
  -OEChem-05262216283D

 39 38  0     1  0  0  0  0  0999 V2000
   -4.8110   -2.9935   -2.1772 C   0  0  0  0  0  0  0  0  0  0  0  0
   -4.3659   -4.1096   -1.9612 O   0  0  0  0  0  0  0  0  0  0  0  0
   -6.3081   -2.7829   -2.3085 C   0  0  0  0  0  0  0  0  0  0  0  0
   -6.5408   -2.3459   -3.2827 H   0  0  0  0  0  0  0  0  0  0  0  0
   -6.8331   -3.7379   -2.2171 H   0  0  0  0  0  0  0  0  0  0  0  0
   -6.6600   -2.1109   -1.5220 H   0  0  0  0  0  0  0  0  0  0  0  0
   -3.9554   -1.9179   -2.2865 N   0  0  0  0  0  0  0  0  0  0  0  0
   -2.5145   -1.9722   -2.0052 C   0  0  2  0  0  0  0  0  0  0  0  0
   -1.9969   -0.6255   -1.4551 C   0  0  0  0  0  0  0  0  0  0  0  0
   -2.7167    0.3683   -1.4648 O   0  0  0  0  0  0  0  0  0  0  0  0
   -1.7803   -2.3504   -3.2959 C   0  0  0  0  0  0  0  0  0  0  0  0
   -4.3755   -0.9900   -2.3318 H   0  0  0  0  0  0  0  0  0  0  0  0
   -2.3163   -2.7326   -1.2417 H   0  0  0  0  0  0  0  0  0  0  0  0
   -1.9567   -1.5982   -4.0713 H   0  0  0  0  0  0  0  0  0  0  0  0
   -0.7029   -2.4242   -3.1195 H   0  0  0  0  0  0  0  0  0  0  0  0
   -2.1346   -3.3189   -3.6630 H   0  0  0  0  0  0  0  0  0  0  0  0
   -0.7279   -0.5164   -0.9227 N   0  0  0  0  0  0  0  0  0  0  0  0
   -0.1839    0.7149   -0.3346 C   0  0  0  0  0  0  0  0  0  0  0  0
    1.2527    0.5374    0.1766 C   0  0  0  0  0  0  0  0  0  0  0  0
    1.8147   -0.5470    0.0658 O   0  0  0  0  0  0  0  0  0  0  0  0
   -0.1328   -1.3453   -0.9091 H   0  0  0  0  0  0  0  0  0  0  0  0
   -0.8136    1.0312    0.5026 H   0  0  0  0  0  0  0  0  0  0  0  0
   -0.1899    1.5119   -1.0841 H   0  0  0  0  0  0  0  0  0  0  0  0
    1.9190    1.5966    0.7610 N   0  0  0  0  0  0  0  0  0  0  0  0
    3.2001    1.4768    1.4706 C   0  0  2  0  0  0  0  0  0  0  0  0
    3.1794    2.2556    2.8024 C   0  0  0  0  0  0  0  0  0  0  0  0
    2.3285    3.1176    2.9941 O   0  0  0  0  0  0  0  0  0  0  0  0
    4.3041    2.0068    0.5527 C   0  0  0  0  0  0  0  0  0  0  0  0
    1.3660    2.4269    0.9744 H   0  0  0  0  0  0  0  0  0  0  0  0
    3.4058    0.4282    1.7098 H   0  0  0  0  0  0  0  0  0  0  0  0
    4.1353    3.0632    0.3205 H   0  0  0  0  0  0  0  0  0  0  0  0
    5.2830    1.9074    1.0311 H   0  0  0  0  0  0  0  0  0  0  0  0
    4.3191    1.4412   -0.3842 H   0  0  0  0  0  0  0  0  0  0  0  0
    4.1118    1.9886    3.7881 N   0  0  0  0  0  0  0  0  0  0  0  0
    4.1436    2.6866    5.0682 C   0  0  0  0  0  0  0  0  0  0  0  0
    4.7930    1.2563    3.6085 H   0  0  0  0  0  0  0  0  0  0  0  0
    4.3550    3.7506    4.9173 H   0  0  0  0  0  0  0  0  0  0  0  0
    3.1824    2.5878    5.5845 H   0  0  0  0  0  0  0  0  0  0  0  0
    4.9237    2.2655    5.7103 H   0  0  0  0  0  0  0  0  0  0  0  0
  1  2  2  0  0  0  0
  1  3  1  0  0  0  0
  1  7  1  0  0  0  0
  3  4  1  0  0  0  0
  3  5  1  0  0  0  0
  3  6  1  0  0  0  0
  7  8  1  0  0  0  0
  7 12  1  0  0  0  0
  8  9  1  0  0  0  0
  8 11  1  0  0  0  0
  8 13  1  0  0  0  0
  9 10  2  0  0  0  0
  9 17  1  0  0  0  0
 11 14  1  0  0  0  0
 11 15  1  0  0  0  0
 11 16  1  0  0  0  0
 17 18  1  0  0  0  0
 17 21  1  0  0  0  0
 18 19  1  0  0  0  0
 18 22  1  0  0  0  0
 18 23  1  0  0  0  0
 19 20  2  0  0  0  0
 19 24  1  0  0  0  0
 24 25  1  0  0  0  0
 24 29  1  0  0  0  0
 25 26  1  0  0  0  0
 25 28  1  0  0  0  0
 25 30  1  0  0  0  0
 26 27  2  0  0  0  0
 26 34  1  0  0  0  0
 28 31  1  0  0  0  0
 28 32  1  0  0  0  0
 28 33  1  0  0  0  0
 34 35  1  0  0  0  0
 34 36  1  0  0  0  0
 35 37  1  0  0  0  0
 35 38  1  0  0  0  0
 35 39  1  0  0  0  0
M  END
$$$$

  -OEChem-05262216283D

 39 38  0     1  0  0  0  0  0999 V2000
   -4.7625   -2.9619   -2.2468 C   0  0  0  0  0  0  0  0  0  0  0  0
   -4.2789   -4.0755   -2.1188 O   0  0  0  0  0  0  0  0  0  0  0  0
   -6.2685   -2.7885   -2.3012 C   0  0  0  0  0  0  0  0  0  0  0  0
   -6.5618   -2.3807   -3.2716 H   0  0  0  0  0  0  0  0  0  0  0  0
   -6.7641   -3.7530   -2.1590 H   0  0  0  0  0  0  0  0  0  0  0  0
   -6.5951   -2.1062   -1.5127 H   0  0  0  0  0  0  0  0  0  0  0  0
   -3.9421   -1.8575   -2.3334 N   0  0  0  0  0  0  0  0  0  0  0  0
   -2.4891   -1.8874   -2.1217 C   0  0  2  0  0  0  0  0  0  0  0  0
   -1.9896   -0.5939   -1.4455 C   0  0  0  0  0  0  0  0  0  0  0  0
   -2.7146    0.3935   -1.3775 O   0  0  0  0  0  0  0  0  0  0  0  0
   -1.8077   -2.0872   -3.4783 C   0  0  0  0  0  0  0  0  0  0  0  0
   -4.3889   -0.9417   -2.3033 H   0  0  0  0  0  0  0  0  0  0  0  0
   -2.2265   -2.7202   -1.4603 H   0  0  0  0  0  0  0  0  0  0  0  0
   -2.0562   -1.2646   -4.1563 H   0  0  0  0  0  0  0  0  0  0  0  0
   -0.7204   -2.1268   -3.3617 H   0  0  0  0  0  0  0  0  0  0  0  0
   -2.1394   -3.0263   -3.9327 H   0  0  0  0  0  0  0  0  0  0  0  0
   -0.7303   -0.5321   -0.8847 N   0  0  0  0  0  0  0  0  0  0  0  0
   -0.1724    0.6673   -0.2476 C   0  0  0  0  0  0  0  0  0  0  0  0
    1.2478    0.4363    0.2857 C   0  0  0  0  0  0  0  0  0  0  0  0
    1.8648   -0.5772   -0.0244 O   0  0  0  0  0  0  0  0  0  0  0  0
   -0.1196   -1.3453   -0.9697 H   0  0  0  0  0  0  0  0  0  0  0  0
   -0.8144    0.9673    0.5863 H   0  0  0  0  0  0  0  0  0  0  0  0
   -0.1433    1.4912   -0.9669 H   0  0  0  0  0  0  0  0  0  0  0  0
    1.8113    1.3301    1.1739 N   0  0  0  0  0  0  0  0  0  0  0  0
    3.0607    1.0943    1.9084 C   0  0  2  0  0  0  0  0  0  0  0  0
    3.0428    1.7959    3.2832 C   0  0  0  0  0  0  0  0  0  0  0  0
    2.1843    2.6360    3.5317 O   0  0  0  0  0  0  0  0  0  0  0  0
    4.2298    1.5987    1.0563 C   0  0  0  0  0  0  0  0  0  0  0  0
    1.2227    2.0911    1.5150 H   0  0  0  0  0  0  0  0  0  0  0  0
    3.1835    0.0214    2.0919 H   0  0  0  0  0  0  0  0  0  0  0  0
    4.1296    2.6721    0.8658 H   0  0  0  0  0  0  0  0  0  0  0  0
    5.1815    1.4220    1.5663 H   0  0  0  0  0  0  0  0  0  0  0  0
    4.2527    1.0752    0.0950 H   0  0  0  0  0  0  0  0  0  0  0  0
    3.9728    1.4689    4.2529 N   0  0  0  0  0  0  0  0  0  0  0  0
    3.9884    2.0706    5.5811 C   0  0  0  0  0  0  0  0  0  0  0  0
    4.6540    0.7487    4.0302 H   0  0  0  0  0  0  0  0  0  0  0  0
    4.1507    3.1514    5.5098 H   0  0  0  0  0  0  0  0  0  0  0  0
    3.0386    1.8899    6.0957 H   0  0  0  0  0  0  0  0  0  0  0  0
    4.7941    1.6389    6.1829 H   0  0  0  0  0  0  0  0  0  0  0  0
  1  2  2  0  0  0  0
  1  3  1  0  0  0  0
  1  7  1  0  0  0  0
  3  4  1  0  0  0  0
  3  5  1  0  0  0  0
  3  6  1  0  0  0  0
  7  8  1  0  0  0  0
  7 12  1  0  0  0  0
  8  9  1  0  0  0  0
  8 11  1  0  0  0  0
  8 13  1  0  0  0  0
  9 10  2  0  0  0  0
  9 17  1  0  0  0  0
 11 14  1  0  0  0  0
 11 15  1  0  0  0  0
 11 16  1  0  0  0  0
 17 18  1  0  0  0  0
 17 21  1  0  0  0  0
 18 19  1  0  0  0  0
 18 22  1  0  0  0  0
 18 23  1  0  0  0  0
 19 20  2  0  0  0  0
 19 24  1  0  0  0  0
 24 25  1  0  0  0  0
 24 29  1  0  0  0  0
 25 26  1  0  0  0  0
 25 28  1  0  0  0  0
 25 30  1  0  0  0  0
 26 27  2  0  0  0  0
 26 34  1  0  0  0  0
 28 31  1  0  0  0  0
 28 32  1  0  0  0  0
 28 33  1  0  0  0  0
 34 35  1  0  0  0  0
 34 36  1  0  0  0  0
 35 37  1  0  0  0  0
 35 38  1  0  0  0  0
 35 39  1  0  0  0  0
M  END
$$$$

  -OEChem-05262216283D

 39 38  0     1  0  0  0  0  0999 V2000
   -4.7204   -2.9431   -2.2245 C   0  0  0  0  0  0  0  0  0  0  0  0
   -4.2189   -4.0541   -2.1557 O   0  0  0  0  0  0  0  0  0  0  0  0
   -6.2290   -2.7858   -2.1949 C   0  0  0  0  0  0  0  0  0  0  0  0
   -6.5756   -2.3409   -3.1308 H   0  0  0  0  0  0  0  0  0  0  0  0
   -6.7070   -3.7614   -2.0689 H   0  0  0  0  0  0  0  0  0  0  0  0
   -6.5210   -2.1411   -1.3622 H   0  0  0  0  0  0  0  0  0  0  0  0
   -3.9174   -1.8263   -2.3138 N   0  0  0  0  0  0  0  0  0  0  0  0
   -2.4565   -1.8433   -2.1662 C   0  0  2  0  0  0  0  0  0  0  0  0
   -1.9497   -0.5760   -1.4468 C   0  0  0  0  0  0  0  0  0  0  0  0
   -2.6635    0.4183   -1.3641 O   0  0  0  0  0  0  0  0  0  0  0  0
   -1.8351   -1.9594   -3.5605 C   0  0  0  0  0  0  0  0  0  0  0  0
   -4.3726   -0.9169   -2.2420 H   0  0  0  0  0  0  0  0  0  0  0  0
   -2.1514   -2.7054   -1.5629 H   0  0  0  0  0  0  0  0  0  0  0  0
   -2.1202   -1.1023   -4.1791 H   0  0  0  0  0  0  0  0  0  0  0  0
   -0.7435   -1.9945   -3.4938 H   0  0  0  0  0  0  0  0  0  0  0  0
   -2.1801   -2.8746   -4.0524 H   0  0  0  0  0  0  0  0  0  0  0  0
   -0.6945   -0.5420   -0.8738 N   0  0  0  0  0  0  0  0  0  0  0  0
   -0.1038    0.6587   -0.2686 C   0  0  0  0  0  0  0  0  0  0  0  0
    1.3016    0.3907    0.2870 C   0  0  0  0  0  0  0  0  0  0  0  0
    1.9695   -0.5323   -0.1659 O   0  0  0  0  0  0  0  0  0  0  0  0
   -0.0824   -1.3473   -1.0074 H   0  0  0  0  0  0  0  0  0  0  0  0
   -0.7457    1.0083    0.5459 H   0  0  0  0  0  0  0  0  0  0  0  0
   -0.0368    1.4576   -1.0132 H   0  0  0  0  0  0  0  0  0  0  0  0
    1.7760    1.1007    1.3724 N   0  0  0  0  0  0  0  0  0  0  0  0
    2.9917    0.7593    2.1229 C   0  0  2  0  0  0  0  0  0  0  0  0
    2.8790    1.1886    3.6014 C   0  0  0  0  0  0  0  0  0  0  0  0
    1.9914    1.9598    3.9495 O   0  0  0  0  0  0  0  0  0  0  0  0
    4.1876    1.4433    1.4533 C   0  0  0  0  0  0  0  0  0  0  0  0
    1.1410    1.7639    1.8178 H   0  0  0  0  0  0  0  0  0  0  0  0
    3.1410   -0.3257    2.1082 H   0  0  0  0  0  0  0  0  0  0  0  0
    4.0579    2.5304    1.4580 H   0  0  0  0  0  0  0  0  0  0  0  0
    5.1148    1.2002    1.9809 H   0  0  0  0  0  0  0  0  0  0  0  0
    4.2842    1.1079    0.4157 H   0  0  0  0  0  0  0  0  0  0  0  0
    3.7614    0.6968    4.5455 N   0  0  0  0  0  0  0  0  0  0  0  0
    3.7044    1.0524    5.9585 C   0  0  0  0  0  0  0  0  0  0  0  0
    4.4812    0.0540    4.2281 H   0  0  0  0  0  0  0  0  0  0  0  0
    3.8873    2.1236    6.0916 H   0  0  0  0  0  0  0  0  0  0  0  0
    2.7228    0.8080    6.3782 H   0  0  0  0  0  0  0  0  0  0  0  0
    4.4647    0.4995    6.5182 H   0  0  0  0  0  0  0  0  0  0  0  0
  1  2  2  0  0  0  0
  1  3  1  0  0  0  0
  1  7  1  0  0  0  0
  3  4  1  0  0  0  0
  3  5  1  0  0  0  0
  3  6  1  0  0  0  0
  7  8  1  0  0  0  0
  7 12  1  0  0  0  0
  8  9  1  0  0  0  0
  8 11  1  0  0  0  0
  8 13  1  0  0  0  0
  9 10  2  0  0  0  0
  9 17  1  0  0  0  0
 11 14  1  0  0  0  0
 11 15  1  0  0  0  0
 11 16  1  0  0  0  0
 17 18  1  0  0  0  0
 17 21  1  0  0  0  0
 18 19  1  0  0  0  0
 18 22  1  0  0  0  0
 18 23  1  0  0  0  0
 19 20  2  0  0  0  0
 19 24  1  0  0  0  0
 24 25  1  0  0  0  0
 24 29  1  0  0  0  0
 25 26  1  0  0  0  0
 25 28  1  0  0  0  0
 25 30  1  0  0  0  0
 26 27  2  0  0  0  0
 26 34  1  0  0  0  0
 28 31  1  0  0  0  0
 28 32  1  0  0  0  0
 28 33  1  0  0  0  0
 34 35  1  0  0  0  0
 34 36  1  0  0  0  0
 35 37  1  0  0  0  0
 35 38  1  0  0  0  0
 35 39  1  0  0  0  0
M  END
$$$$

  -OEChem-05262216283D

 39 38  0     1  0  0  0  0  0999 V2000
   -4.6706   -2.9491   -2.1313 C   0  0  0  0  0  0  0  0  0  0  0  0
   -4.1570   -4.0535   -2.0467 O   0  0  0  0  0  0  0  0  0  0  0  0
   -6.1804   -2.8060   -2.0904 C   0  0  0  0  0  0  0  0  0  0  0  0
   -6.5387   -2.3715   -3.0270 H   0  0  0  0  0  0  0  0  0  0  0  0
   -6.6492   -3.7848   -1.9530 H   0  0  0  0  0  0  0  0  0  0  0  0
   -6.4708   -2.1570   -1.2603 H   0  0  0  0  0  0  0  0  0  0  0  0
   -3.8809   -1.8255   -2.2514 N   0  0  0  0  0  0  0  0  0  0  0  0
   -2.4185   -1.8247   -2.1181 C   0  0  2  0  0  0  0  0  0  0  0  0
   -1.9173   -0.5498   -1.4089 C   0  0  0  0  0  0  0  0  0  0  0  0
   -2.6459    0.4313   -1.3020 O   0  0  0  0  0  0  0  0  0  0  0  0
   -1.8065   -1.9425   -3.5163 C   0  0  0  0  0  0  0  0  0  0  0  0
   -4.3457   -0.9207   -2.1830 H   0  0  0  0  0  0  0  0  0  0  0  0
   -2.0985   -2.6798   -1.5129 H   0  0  0  0  0  0  0  0  0  0  0  0
   -2.1145   -1.0990   -4.1423 H   0  0  0  0  0  0  0  0  0  0  0  0
   -0.7139   -1.9534   -3.4585 H   0  0  0  0  0  0  0  0  0  0  0  0
   -2.1354   -2.8704   -3.9948 H   0  0  0  0  0  0  0  0  0  0  0  0
   -0.6496   -0.5011   -0.8661 N   0  0  0  0  0  0  0  0  0  0  0  0
   -0.0547    0.7122   -0.2918 C   0  0  0  0  0  0  0  0  0  0  0  0
    1.3626    0.4492    0.2310 C   0  0  0  0  0  0  0  0  0  0  0  0
    2.0967   -0.3198   -0.3785 O   0  0  0  0  0  0  0  0  0  0  0  0
   -0.0218   -1.2819   -1.0566 H   0  0  0  0  0  0  0  0  0  0  0  0
   -0.6798    1.0724    0.5311 H   0  0  0  0  0  0  0  0  0  0  0  0
   -0.0059    1.5014   -1.0481 H   0  0  0  0  0  0  0  0  0  0  0  0
    1.7584    0.9313    1.4628 N   0  0  0  0  0  0  0  0  0  0  0  0
    2.9632    0.4911    2.1777 C   0  0  2  0  0  0  0  0  0  0  0  0
    2.7394    0.5014    3.7047 C   0  0  0  0  0  0  0  0  0  0  0  0
    1.7815    1.1026    4.1792 O   0  0  0  0  0  0  0  0  0  0  0  0
    4.1202    1.4162    1.7905 C   0  0  0  0  0  0  0  0  0  0  0  0
    1.0583    1.4206    2.0215 H   0  0  0  0  0  0  0  0  0  0  0  0
    3.2120   -0.5366    1.8919 H   0  0  0  0  0  0  0  0  0  0  0  0
    3.8943    2.4497    2.0721 H   0  0  0  0  0  0  0  0  0  0  0  0
    5.0421    1.1109    2.2941 H   0  0  0  0  0  0  0  0  0  0  0  0
    4.2894    1.3787    0.7096 H   0  0  0  0  0  0  0  0  0  0  0  0
    3.5943   -0.1857    4.5464 N   0  0  0  0  0  0  0  0  0  0  0  0
    3.4119   -0.2511    5.9916 C   0  0  0  0  0  0  0  0  0  0  0  0
    4.3564   -0.7066    4.1220 H   0  0  0  0  0  0  0  0  0  0  0  0
    3.4603    0.7513    6.4298 H   0  0  0  0  0  0  0  0  0  0  0  0
    2.4414   -0.6959    6.2362 H   0  0  0  0  0  0  0  0  0  0  0  0
    4.1966   -0.8647    6.4445 H   0  0  0  0  0  0  0  0  0  0  0  0
  1  2  2  0  0  0  0
  1  3  1  0  0  0  0
  1  7  1  0  0  0  0
  3  4  1  0  0  0  0
  3  5  1  0  0  0  0
  3  6  1  0  0  0  0
  7  8  1  0  0  0  0
  7 12  1  0  0  0  0
  8  9  1  0  0  0  0
  8 11  1  0  0  0  0
  8 13  1  0  0  0  0
  9 10  2  0  0  0  0
  9 17  1  0  0  0  0
 11 14  1  0  0  0  0
 11 15  1  0  0  0  0
 11 16  1  0  0  0  0
 17 18  1  0  0  0  0
 17 21  1  0  0  0  0
 18 19  1  0  0  0  0
 18 22  1  0  0  0  0
 18 23  1  0  0  0  0
 19 20  2  0  0  0  0
 19 24  1  0  0  0  0
 24 25  1  0  0  0  0
 24 29  1  0  0  0  0
 25 26  1  0  0  0  0
 25 28  1  0  0  0  0
 25 30  1  0  0  0  0
 26 27  2  0  0  0  0
 26 34  1  0  0  0  0
 28 31  1  0  0  0  0
 28 32  1  0  0  0  0
 28 33  1  0  0  0  0
 34 35  1  0  0  0  0
 34 36  1  0  0  0  0
 35 37  1  0  0  0  0
 35 38  1  0  0  0  0
 35 39  1  0  0  0  0
M  END
$$$$

  -OEChem-05262216283D

 39 38  0     1  0  0  0  0  0999 V2000
   -4.6448   -2.9772   -2.2091 C   0  0  0  0  0  0  0  0  0  0  0  0
   -4.1011   -4.0699   -2.2401 O   0  0  0  0  0  0  0  0  0  0  0  0
   -6.1569   -2.8823   -2.1244 C   0  0  0  0  0  0  0  0  0  0  0  0
   -6.5507   -2.3844   -3.0140 H   0  0  0  0  0  0  0  0  0  0  0  0
   -6.5937   -3.8829   -2.0576 H   0  0  0  0  0  0  0  0  0  0  0  0
   -6.4462   -2.3126   -1.2378 H   0  0  0  0  0  0  0  0  0  0  0  0
   -3.8844   -1.8270   -2.2352 N   0  0  0  0  0  0  0  0  0  0  0  0
   -2.4187   -1.8018   -2.1410 C   0  0  2  0  0  0  0  0  0  0  0  0
   -1.9219   -0.5628   -1.3676 C   0  0  0  0  0  0  0  0  0  0  0  0
   -2.6612    0.4007   -1.1959 O   0  0  0  0  0  0  0  0  0  0  0  0
   -1.8409   -1.8177   -3.5587 C   0  0  0  0  0  0  0  0  0  0  0  0
   -4.3677   -0.9426   -2.0817 H   0  0  0  0  0  0  0  0  0  0  0  0
   -2.0659   -2.6860   -1.5991 H   0  0  0  0  0  0  0  0  0  0  0  0
   -2.1682   -0.9337   -4.1157 H   0  0  0  0  0  0  0  0  0  0  0  0
   -0.7471   -1.8259   -3.5276 H   0  0  0  0  0  0  0  0  0  0  0  0
   -2.1770   -2.7118   -4.0935 H   0  0  0  0  0  0  0  0  0  0  0  0
   -0.6471   -0.5293   -0.8379 N   0  0  0  0  0  0  0  0  0  0  0  0
   -0.0507    0.6782   -0.2516 C   0  0  0  0  0  0  0  0  0  0  0  0
    1.3713    0.4165    0.2561 C   0  0  0  0  0  0  0  0  0  0  0  0
    2.1840   -0.1251   -0.4825 O   0  0  0  0  0  0  0  0  0  0  0  0
   -0.0122   -1.2806   -1.1049 H   0  0  0  0  0  0  0  0  0  0  0  0
   -0.6702    1.0283    0.5800 H   0  0  0  0  0  0  0  0  0  0  0  0
   -0.0090    1.4775   -0.9981 H   0  0  0  0  0  0  0  0  0  0  0  0
    1.6843    0.6041    1.5878 N   0  0  0  0  0  0  0  0  0  0  0  0
    2.9138    0.1254    2.2322 C   0  0  2  0  0  0  0  0  0  0  0  0
    2.6708   -0.2096    3.7193 C   0  0  0  0  0  0  0  0  0  0  0  0
    1.6360    0.1536    4.2684 O   0  0  0  0  0  0  0  0  0  0  0  0
    3.9884    1.2074    2.0884 C   0  0  0  0  0  0  0  0  0  0  0  0
    0.9264    0.8803    2.2131 H   0  0  0  0  0  0  0  0  0  0  0  0
    3.2559   -0.7925    1.7425 H   0  0  0  0  0  0  0  0  0  0  0  0
    3.6663    2.1327    2.5771 H   0  0  0  0  0  0  0  0  0  0  0  0
    4.9279    0.8805    2.5441 H   0  0  0  0  0  0  0  0  0  0  0  0
    4.1742    1.4185    1.0303 H   0  0  0  0  0  0  0  0  0  0  0  0
    3.5999   -0.9382    4.4391 N   0  0  0  0  0  0  0  0  0  0  0  0
    3.4073   -1.3206    5.8330 C   0  0  0  0  0  0  0  0  0  0  0  0
    4.4338   -1.2536    3.9519 H   0  0  0  0  0  0  0  0  0  0  0  0
    3.2812   -0.4321    6.4607 H   0  0  0  0  0  0  0  0  0  0  0  0
    2.5199   -1.9539    5.9369 H   0  0  0  0  0  0  0  0  0  0  0  0
    4.2750   -1.8792    6.1965 H   0  0  0  0  0  0  0  0  0  0  0  0
  1  2  2  0  0  0  0
  1  3  1  0  0  0  0
  1  7  1  0  0  0  0
  3  4  1  0  0  0  0
  3  5  1  0  0  0  0
  3  6  1  0  0  0  0
  7  8  1  0  0  0  0
  7 12  1  0  0  0  0
  8  9  1  0  0  0  0
  8 11  1  0  0  0  0
  8 13  1  0  0  0  0
  9 10  2  0  0  0  0
  9 17  1  0  0  0  0
 11 14  1  0  0  0  0
 11 15  1  0  0  0  0
 11 16  1  0  0  0  0
 17 18  1  0  0  0  0
 17 21  1  0  0  0  0
 18 19  1  0  0  0  0
 18 22  1  0  0  0  0
 18 23  1  0  0  0  0
 19 20  2  0  0  0  0
 19 24  1  0  0  0  0
 24 25  1  0  0  0  0
 24 29  1  0  0  0  0
 25 26  1  0  0  0  0
 25 28  1  0  0  0  0
 25 30  1  0  0  0  0
 26 27  2  0  0  0  0
 26 34  1  0  0  0  0
 28 31  1  0  0  0  0
 28 32  1  0  0  0  0
 28 33  1  0  0  0  0
 34 35  1  0  0  0  0
 34 36  1  0  0  0  0
 35 37  1  0  0  0  0
 35 38  1  0  0  0  0
 35 39  1  0  0  0  0
M  END
$$$$

  -OEChem-05262216283D

 39 38  0     1  0  0  0  0  0999 V2000
   -4.6298   -2.9927   -2.2300 C   0  0  0  0  0  0  0  0  0  0  0  0
   -4.0789   -4.0817   -2.2656 O   0  0  0  0  0  0  0  0  0  0  0  0
   -6.1439   -2.9096   -2.1739 C   0  0  0  0  0  0  0  0  0  0  0  0
   -6.5270   -2.4626   -3.0946 H   0  0  0  0  0  0  0  0  0  0  0  0
   -6.5711   -3.9104   -2.0625 H   0  0  0  0  0  0  0  0  0  0  0  0
   -6.4553   -2.2985   -1.3230 H   0  0  0  0  0  0  0  0  0  0  0  0
   -3.8760   -1.8380   -2.2329 N   0  0  0  0  0  0  0  0  0  0  0  0
   -2.4120   -1.8072   -2.1209 C   0  0  2  0  0  0  0  0  0  0  0  0
   -1.9273   -0.5727   -1.3333 C   0  0  0  0  0  0  0  0  0  0  0  0
   -2.6786    0.3780   -1.1428 O   0  0  0  0  0  0  0  0  0  0  0  0
   -1.8181   -1.8123   -3.5326 C   0  0  0  0  0  0  0  0  0  0  0  0
   -4.3662   -0.9578   -2.0764 H   0  0  0  0  0  0  0  0  0  0  0  0
   -2.0634   -2.6936   -1.5799 H   0  0  0  0  0  0  0  0  0  0  0  0
   -2.1456   -0.9283   -4.0892 H   0  0  0  0  0  0  0  0  0  0  0  0
   -0.7247   -1.8125   -3.4908 H   0  0  0  0  0  0  0  0  0  0  0  0
   -2.1413   -2.7060   -4.0757 H   0  0  0  0  0  0  0  0  0  0  0  0
   -0.6469   -0.5282   -0.8173 N   0  0  0  0  0  0  0  0  0  0  0  0
   -0.0630    0.6862   -0.2320 C   0  0  0  0  0  0  0  0  0  0  0  0
    1.3673    0.4468    0.2611 C   0  0  0  0  0  0  0  0  0  0  0  0
    2.2485    0.1884   -0.5474 O   0  0  0  0  0  0  0  0  0  0  0  0
   -0.0076   -1.2683   -1.1023 H   0  0  0  0  0  0  0  0  0  0  0  0
   -0.6783    1.0282    0.6060 H   0  0  0  0  0  0  0  0  0  0  0  0
   -0.0420    1.4872   -0.9778 H   0  0  0  0  0  0  0  0  0  0  0  0
    1.6278    0.3307    1.6122 N   0  0  0  0  0  0  0  0  0  0  0  0
    2.8844   -0.1754    2.1797 C   0  0  2  0  0  0  0  0  0  0  0  0
    2.6391   -0.9024    3.5192 C   0  0  0  0  0  0  0  0  0  0  0  0
    1.5501   -0.8114    4.0761 O   0  0  0  0  0  0  0  0  0  0  0  0
    3.8416    1.0048    2.3712 C   0  0  0  0  0  0  0  0  0  0  0  0
    0.8270    0.3576    2.2447 H   0  0  0  0  0  0  0  0  0  0  0  0
    3.3362   -0.8999    1.4936 H   0  0  0  0  0  0  0  0  0  0  0  0
    3.4110    1.7384    3.0604 H   0  0  0  0  0  0  0  0  0  0  0  0
    4.7977    0.6627    2.7782 H   0  0  0  0  0  0  0  0  0  0  0  0
    4.0326    1.4971    1.4123 H   0  0  0  0  0  0  0  0  0  0  0  0
    3.6292   -1.6807    4.0900 N   0  0  0  0  0  0  0  0  0  0  0  0
    3.4469   -2.4198    5.3339 C   0  0  0  0  0  0  0  0  0  0  0  0
    4.5165   -1.7505    3.5999 H   0  0  0  0  0  0  0  0  0  0  0  0
    3.2325   -1.7330    6.1598 H   0  0  0  0  0  0  0  0  0  0  0  0
    2.6168   -3.1285    5.2408 H   0  0  0  0  0  0  0  0  0  0  0  0
    4.3540   -2.9816    5.5777 H   0  0  0  0  0  0  0  0  0  0  0  0
  1  2  2  0  0  0  0
  1  3  1  0  0  0  0
  1  7  1  0  0  0  0
  3  4  1  0  0  0  0
  3  5  1  0  0  0  0
  3  6  1  0  0  0  0
  7  8  1  0  0  0  0
  7 12  1  0  0  0  0
  8  9  1  0  0  0  0
  8 11  1  0  0  0  0
  8 13  1  0  0  0  0
  9 10  2  0  0  0  0
  9 17  1  0  0  0  0
 11 14  1  0  0  0  0
 11 15  1  0  0  0  0
 11 16  1  0  0  0  0
 17 18  1  0  0  0  0
 17 21  1  0  0  0  0
 18 19  1  0  0  0  0
 18 22  1  0  0  0  0
 18 23  1  0  0  0  0
 19 20  2  0  0  0  0
 19 24  1  0  0  0  0
 24 25  1  0  0  0  0
 24 29  1  0  0  0  0
 25 26  1  0  0  0  0
 25 28  1  0  0  0  0
 25 30  1  0  0  0  0
 26 27  2  0  0  0  0
 26 34  1  0  0  0  0
 28 31  1  0  0  0  0
 28 32  1  0  0  0  0
 28 33  1  0  0  0  0
 34 35  1  0  0  0  0
 34 36  1  0  0  0  0
 35 37  1  0  0  0  0
 35 38  1  0  0  0  0
 35 39  1  0  0  0  0
M  END
$$$$

  -OEChem-05262216283D

 39 38  0     1  0  0  0  0  0999 V2000
   -4.5986   -3.0062   -2.2137 C   0  0  0  0  0  0  0  0  0  0  0  0
   -4.0445   -4.0939   -2.2259 O   0  0  0  0  0  0  0  0  0  0  0  0
   -6.1117   -2.9226   -2.1474 C   0  0  0  0  0  0  0  0  0  0  0  0
   -6.5018   -2.4942   -3.0739 H   0  0  0  0  0  0  0  0  0  0  0  0
   -6.5390   -3.9202   -2.0120 H   0  0  0  0  0  0  0  0  0  0  0  0
   -6.4141   -2.2938   -1.3064 H   0  0  0  0  0  0  0  0  0  0  0  0
   -3.8492   -1.8496   -2.2489 N   0  0  0  0  0  0  0  0  0  0  0  0
   -2.3859   -1.8096   -2.1359 C   0  0  2  0  0  0  0  0  0  0  0  0
   -1.9120   -0.5633   -1.3598 C   0  0  0  0  0  0  0  0  0  0  0  0
   -2.6692    0.3855   -1.1857 O   0  0  0  0  0  0  0  0  0  0  0  0
   -1.7929   -1.8274   -3.5474 C   0  0  0  0  0  0  0  0  0  0  0  0
   -4.3429   -0.9688   -2.1085 H   0  0  0  0  0  0  0  0  0  0  0  0
   -2.0309   -2.6877   -1.5857 H   0  0  0  0  0  0  0  0  0  0  0  0
   -2.1249   -0.9516   -4.1138 H   0  0  0  0  0  0  0  0  0  0  0  0
   -0.6998   -1.8223   -3.5057 H   0  0  0  0  0  0  0  0  0  0  0  0
   -2.1128   -2.7283   -4.0806 H   0  0  0  0  0  0  0  0  0  0  0  0
   -0.6367   -0.5083   -0.8318 N   0  0  0  0  0  0  0  0  0  0  0  0
   -0.0657    0.7120   -0.2433 C   0  0  0  0  0  0  0  0  0  0  0  0
    1.3606    0.4841    0.2634 C   0  0  0  0  0  0  0  0  0  0  0  0
    2.2976    0.5208   -0.5214 O   0  0  0  0  0  0  0  0  0  0  0  0
    0.0034   -1.2535   -1.0989 H   0  0  0  0  0  0  0  0  0  0  0  0
   -0.6881    1.0534    0.5897 H   0  0  0  0  0  0  0  0  0  0  0  0
   -0.0443    1.5123   -0.9901 H   0  0  0  0  0  0  0  0  0  0  0  0
    1.5760    0.0675    1.5618 N   0  0  0  0  0  0  0  0  0  0  0  0
    2.8546   -0.4475    2.0681 C   0  0  2  0  0  0  0  0  0  0  0  0
    2.6348   -1.5263    3.1498 C   0  0  0  0  0  0  0  0  0  0  0  0
    1.5160   -1.7066    3.6189 O   0  0  0  0  0  0  0  0  0  0  0  0
    3.6628    0.7288    2.6231 C   0  0  0  0  0  0  0  0  0  0  0  0
    0.7510   -0.1369    2.1272 H   0  0  0  0  0  0  0  0  0  0  0  0
    3.4159   -0.9156    1.2526 H   0  0  0  0  0  0  0  0  0  0  0  0
    3.1277    1.2038    3.4515 H   0  0  0  0  0  0  0  0  0  0  0  0
    4.6378    0.3900    2.9853 H   0  0  0  0  0  0  0  0  0  0  0  0
    3.8282    1.4763    1.8406 H   0  0  0  0  0  0  0  0  0  0  0  0
    3.6838   -2.3197    3.5755 N   0  0  0  0  0  0  0  0  0  0  0  0
    3.5325   -3.3838    4.5607 C   0  0  0  0  0  0  0  0  0  0  0  0
    4.5936   -2.1675    3.1499 H   0  0  0  0  0  0  0  0  0  0  0  0
    3.1800   -2.9761    5.5140 H   0  0  0  0  0  0  0  0  0  0  0  0
    2.8132   -4.1312    4.2098 H   0  0  0  0  0  0  0  0  0  0  0  0
    4.4917   -3.8816    4.7316 H   0  0  0  0  0  0  0  0  0  0  0  0
  1  2  2  0  0  0  0
  1  3  1  0  0  0  0
  1  7  1  0  0  0  0
  3  4  1  0  0  0  0
  3  5  1  0  0  0  0
  3  6  1  0  0  0  0
  7  8  1  0  0  0  0
  7 12  1  0  0  0  0
  8  9  1  0  0  0  0
  8 11  1  0  0  0  0
  8 13  1  0  0  0  0
  9 10  2  0  0  0  0
  9 17  1  0  0  0  0
 11 14  1  0  0  0  0
 11 15  1  0  0  0  0
 11 16  1  0  0  0  0
 17 18  1  0  0  0  0
 17 21  1  0  0  0  0
 18 19  1  0  0  0  0
 18 22  1  0  0  0  0
 18 23  1  0  0  0  0
 19 20  2  0  0  0  0
 19 24  1  0  0  0  0
 24 25  1  0  0  0  0
 24 29  1  0  0  0  0
 25 26  1  0  0  0  0
 25 28  1  0  0  0  0
 25 30  1  0  0  0  0
 26 27  2  0  0  0  0
 26 34  1  0  0  0  0
 28 31  1  0  0  0  0
 28 32  1  0  0  0  0
 28 33  1  0  0  0  0
 34 35  1  0  0  0  0
 34 36  1  0  0  0  0
 35 37  1  0  0  0  0
 35 38  1  0  0  0  0
 35 39  1  0  0  0  0
M  END
$$$$

  -OEChem-05262216283D

 39 38  0     1  0  0  0  0  0999 V2000
   -4.6707   -2.9669   -2.2565 C   0  0  0  0  0  0  0  0  0  0  0  0
   -4.1749   -4.0806   -2.1930 O   0  0  0  0  0  0  0  0  0  0  0  0
   -6.1771   -2.8062   -2.3381 C   0  0  0  0  0  0  0  0  0  0  0  0
   -6.4509   -2.3394   -3.2875 H   0  0  0  0  0  0  0  0  0  0  0  0
   -6.6650   -3.7826   -2.2709 H   0  0  0  0  0  0  0  0  0  0  0  0
   -6.5309   -2.1791   -1.5161 H   0  0  0  0  0  0  0  0  0  0  0  0
   -3.8625   -1.8503   -2.2474 N   0  0  0  0  0  0  0  0  0  0  0  0
   -2.4121   -1.8780   -2.0197 C   0  0  2  0  0  0  0  0  0  0  0  0
   -1.9234   -0.5912   -1.3209 C   0  0  0  0  0  0  0  0  0  0  0  0
   -2.6677    0.3774   -1.2117 O   0  0  0  0  0  0  0  0  0  0  0  0
   -1.7128   -2.0572   -3.3714 C   0  0  0  0  0  0  0  0  0  0  0  0
   -4.3199   -0.9420   -2.1747 H   0  0  0  0  0  0  0  0  0  0  0  0
   -2.1574   -2.7202   -1.3669 H   0  0  0  0  0  0  0  0  0  0  0  0
   -1.9416   -1.2174   -4.0355 H   0  0  0  0  0  0  0  0  0  0  0  0
   -0.6279   -2.1128   -3.2405 H   0  0  0  0  0  0  0  0  0  0  0  0
   -2.0482   -2.9821   -3.8517 H   0  0  0  0  0  0  0  0  0  0  0  0
   -0.6464   -0.5136   -0.7984 N   0  0  0  0  0  0  0  0  0  0  0  0
   -0.0729    0.7326   -0.2670 C   0  0  0  0  0  0  0  0  0  0  0  0
    1.3543    0.5338    0.2478 C   0  0  0  0  0  0  0  0  0  0  0  0
    2.3091    0.8551   -0.4440 O   0  0  0  0  0  0  0  0  0  0  0  0
   -0.0206   -1.2938   -0.9880 H   0  0  0  0  0  0  0  0  0  0  0  0
   -0.6912    1.1096    0.5533 H   0  0  0  0  0  0  0  0  0  0  0  0
   -0.0580    1.4980   -1.0500 H   0  0  0  0  0  0  0  0  0  0  0  0
    1.5627   -0.1125    1.4496 N   0  0  0  0  0  0  0  0  0  0  0  0
    2.8648   -0.6207    1.9008 C   0  0  2  0  0  0  0  0  0  0  0  0
    2.7295   -2.0164    2.5457 C   0  0  0  0  0  0  0  0  0  0  0  0
    1.6182   -2.4787    2.7819 O   0  0  0  0  0  0  0  0  0  0  0  0
    3.4490    0.3867    2.8945 C   0  0  0  0  0  0  0  0  0  0  0  0
    0.7413   -0.5276    1.8907 H   0  0  0  0  0  0  0  0  0  0  0  0
    3.5467   -0.7234    1.0498 H   0  0  0  0  0  0  0  0  0  0  0  0
    2.8017    0.4781    3.7726 H   0  0  0  0  0  0  0  0  0  0  0  0
    4.4427    0.0702    3.2246 H   0  0  0  0  0  0  0  0  0  0  0  0
    3.5399    1.3712    2.4247 H   0  0  0  0  0  0  0  0  0  0  0  0
    3.8530   -2.7630    2.8484 N   0  0  0  0  0  0  0  0  0  0  0  0
    3.7942   -4.0798    3.4716 C   0  0  0  0  0  0  0  0  0  0  0  0
    4.7602   -2.3597    2.6326 H   0  0  0  0  0  0  0  0  0  0  0  0
    3.2996   -4.0196    4.4469 H   0  0  0  0  0  0  0  0  0  0  0  0
    3.2399   -4.7801    2.8379 H   0  0  0  0  0  0  0  0  0  0  0  0
    4.8043   -4.4737    3.6199 H   0  0  0  0  0  0  0  0  0  0  0  0
  1  2  2  0  0  0  0
  1  3  1  0  0  0  0
  1  7  1  0  0  0  0
  3  4  1  0  0  0  0
  3  5  1  0  0  0  0
  3  6  1  0  0  0  0
  7  8  1  0  0  0  0
  7 12  1  0  0  0  0
  8  9  1  0  0  0  0
  8 11  1  0  0  0  0
  8 13  1  0  0  0  0
  9 10  2  0  0  0  0
  9 17  1  0  0  0  0
 11 14  1  0  0  0  0
 11 15  1  0  0  0  0
 11 16  1  0  0  0  0
 17 18  1  0  0  0  0
 17 21  1  0  0  0  0
 18 19  1  0  0  0  0
 18 22  1  0  0  0  0
 18 23  1  0  0  0  0
 19 20  2  0  0  0  0
 19 24  1  0  0  0  0
 24 25  1  0  0  0  0
 24 29  1  0  0  0  0
 25 26  1  0  0  0  0
 25 28  1  0  0  0  0
 25 30  1  0  0  0  0
 26 27  2  0  0  0  0
 26 34  1  0  0  0  0
 28 31  1  0  0  0  0
 28 32  1  0  0  0  0
 28 33  1  0  0  0  0
 34 35  1  0  0  0  0
 34 36  1  0  0  0  0
 35 37  1  0  0  0  0
 35 38  1  0  0  0  0
 35 39  1  0  0  0  0
M  END
$$$$

  -OEChem-05262216283D

 39 38  0     1  0  0  0  0  0999 V2000
   -4.3884   -2.9435   -1.7761 C   0  0  0  0  0  0  0  0  0  0  0  0
   -4.1436   -3.8984   -1.0561 O   0  0  0  0  0  0  0  0  0  0  0  0
   -5.7795   -2.7666   -2.3553 C   0  0  0  0  0  0  0  0  0  0  0  0
   -5.7301   -2.7480   -3.4468 H   0  0  0  0  0  0  0  0  0  0  0  0
   -6.4245   -3.5936   -2.0454 H   0  0  0  0  0  0  0  0  0  0  0  0
   -6.2146   -1.8291   -2.0012 H   0  0  0  0  0  0  0  0  0  0  0  0
   -3.4070   -2.0170   -2.0565 N   0  0  0  0  0  0  0  0  0  0  0  0
   -2.0747   -2.0045   -1.4376 C   0  0  2  0  0  0  0  0  0  0  0  0
   -1.5023   -0.5729   -1.3562 C   0  0  0  0  0  0  0  0  0  0  0  0
   -2.1090    0.3734   -1.8479 O   0  0  0  0  0  0  0  0  0  0  0  0
   -1.1481   -2.9138   -2.2521 C   0  0  0  0  0  0  0  0  0  0  0  0
   -3.6898   -1.1695   -2.5477 H   0  0  0  0  0  0  0  0  0  0  0  0
   -2.1391   -2.3858   -0.4124 H   0  0  0  0  0  0  0  0  0  0  0  0
   -1.0497   -2.5411   -3.2765 H   0  0  0  0  0  0  0  0  0  0  0  0
   -0.1533   -2.9563   -1.7978 H   0  0  0  0  0  0  0  0  0  0  0  0
   -1.5508   -3.9309   -2.2878 H   0  0  0  0  0  0  0  0  0  0  0  0
   -0.3048   -0.3341   -0.7149 N   0  0  0  0  0  0  0  0  0  0  0  0
    0.3537    0.9805   -0.6522 C   0  0  0  0  0  0  0  0  0  0  0  0
    1.6593    0.8733    0.1366 C   0  0  0  0  0  0  0  0  0  0  0  0
    2.7383    0.9081   -0.4381 O   0  0  0  0  0  0  0  0  0  0  0  0
    0.1881   -1.1477   -0.3283 H   0  0  0  0  0  0  0  0  0  0  0  0
   -0.2999    1.7136   -0.1701 H   0  0  0  0  0  0  0  0  0  0  0  0
    0.5754    1.3387   -1.6629 H   0  0  0  0  0  0  0  0  0  0  0  0
    1.5922    0.4495    1.4507 N   0  0  0  0  0  0  0  0  0  0  0  0
    2.5934   -0.5050    1.9464 C   0  0  2  0  0  0  0  0  0  0  0  0
    2.3461   -1.9248    1.3798 C   0  0  0  0  0  0  0  0  0  0  0  0
    1.2515   -2.2202    0.9011 O   0  0  0  0  0  0  0  0  0  0  0  0
    2.5237   -0.5128    3.4747 C   0  0  0  0  0  0  0  0  0  0  0  0
    0.6396    0.2824    1.7655 H   0  0  0  0  0  0  0  0  0  0  0  0
    3.5978   -0.1844    1.6485 H   0  0  0  0  0  0  0  0  0  0  0  0
    1.5397   -0.8517    3.8143 H   0  0  0  0  0  0  0  0  0  0  0  0
    3.2837   -1.1825    3.8888 H   0  0  0  0  0  0  0  0  0  0  0  0
    2.7010    0.4936    3.8667 H   0  0  0  0  0  0  0  0  0  0  0  0
    3.3504   -2.8738    1.4008 N   0  0  0  0  0  0  0  0  0  0  0  0
    3.1994   -4.2096    0.8353 C   0  0  0  0  0  0  0  0  0  0  0  0
    4.2689   -2.5773    1.7187 H   0  0  0  0  0  0  0  0  0  0  0  0
    2.3877   -4.7483    1.3359 H   0  0  0  0  0  0  0  0  0  0  0  0
    2.9762   -4.1506   -0.2352 H   0  0  0  0  0  0  0  0  0  0  0  0
    4.1233   -4.7818    0.9642 H   0  0  0  0  0  0  0  0  0  0  0  0
  1  2  2  0  0  0  0
  1  3  1  0  0  0  0
  1  7  1  0  0  0  0
  3  4  1  0  0  0  0
  3  5  1  0  0  0  0
  3  6  1  0  0  0  0
  7  8  1  0  0  0  0
  7 12  1  0  0  0  0
  8  9  1  0  0  0  0
  8 11  1  0  0  0  0
  8 13  1  0  0  0  0
  9 10  2  0  0  0  0
  9 17  1  0  0  0  0
 11 14  1  0  0  0  0
 11 15  1  0  0  0  0
 11 16  1  0  0  0  0
 17 18  1  0  0  0  0
 17 21  1  0  0  0  0
 18 19  1  0  0  0  0
 18 22  1  0  0  0  0
 18 23  1  0  0  0  0
 19 20  2  0  0  0  0
 19 24  1  0  0  0  0
 24 25  1  0  0  0  0
 24 29  1  0  0  0  0
 25 26  1  0  0  0  0
 25 28  1  0  0  0  0
 25 30  1  0  0  0  0
 26 27  2  0  0  0  0
 26 34  1  0  0  0  0
 28 31  1  0  0  0  0
 28 32  1  0  0  0  0
 28 33  1  0  0  0  0
 34 35  1  0  0  0  0
 34 36  1  0  0  0  0
 35 37  1  0  0  0  0
 35 38  1  0  0  0  0
 35 39  1  0  0  0  0
M  END
$$$$

  -OEChem-05262216283D

 39 38  0     1  0  0  0  0  0999 V2000
   -4.4083   -2.9380   -1.9012 C   0  0  0  0  0  0  0  0  0  0  0  0
   -4.1593   -3.9159   -1.2142 O   0  0  0  0  0  0  0  0  0  0  0  0
   -5.8082   -2.7287   -2.4472 C   0  0  0  0  0  0  0  0  0  0  0  0
   -5.7761   -2.6459   -3.5362 H   0  0  0  0  0  0  0  0  0  0  0  0
   -6.4482   -3.5732   -2.1771 H   0  0  0  0  0  0  0  0  0  0  0  0
   -6.2375   -1.8138   -2.0320 H   0  0  0  0  0  0  0  0  0  0  0  0
   -3.4236   -2.0128   -2.1734 N   0  0  0  0  0  0  0  0  0  0  0  0
   -2.0862   -2.0200   -1.5656 C   0  0  2  0  0  0  0  0  0  0  0  0
   -1.5392   -0.5861   -1.3957 C   0  0  0  0  0  0  0  0  0  0  0  0
   -2.1546    0.3750   -1.8457 O   0  0  0  0  0  0  0  0  0  0  0  0
   -1.1544   -2.8608   -2.4449 C   0  0  0  0  0  0  0  0  0  0  0  0
   -3.7128   -1.1447   -2.6232 H   0  0  0  0  0  0  0  0  0  0  0  0
   -2.1345   -2.4677   -0.5668 H   0  0  0  0  0  0  0  0  0  0  0  0
   -1.0743   -2.4247   -3.4456 H   0  0  0  0  0  0  0  0  0  0  0  0
   -0.1537   -2.9144   -2.0050 H   0  0  0  0  0  0  0  0  0  0  0  0
   -1.5412   -3.8805   -2.5384 H   0  0  0  0  0  0  0  0  0  0  0  0
   -0.3644   -0.3612   -0.7085 N   0  0  0  0  0  0  0  0  0  0  0  0
    0.2948    0.9539   -0.6275 C   0  0  0  0  0  0  0  0  0  0  0  0
    1.5741    0.8634    0.2072 C   0  0  0  0  0  0  0  0  0  0  0  0
    2.6572    1.1449   -0.2852 O   0  0  0  0  0  0  0  0  0  0  0  0
    0.1787   -1.1934   -0.4493 H   0  0  0  0  0  0  0  0  0  0  0  0
   -0.3766    1.6857   -0.1685 H   0  0  0  0  0  0  0  0  0  0  0  0
    0.5473    1.3098   -1.6317 H   0  0  0  0  0  0  0  0  0  0  0  0
    1.5204    0.1652    1.3992 N   0  0  0  0  0  0  0  0  0  0  0  0
    2.6009   -0.7668    1.7461 C   0  0  2  0  0  0  0  0  0  0  0  0
    2.4779   -2.0834    0.9419 C   0  0  0  0  0  0  0  0  0  0  0  0
    1.4033   -2.3942    0.4290 O   0  0  0  0  0  0  0  0  0  0  0  0
    2.5202   -1.0402    3.2493 C   0  0  0  0  0  0  0  0  0  0  0  0
    0.5822   -0.1571    1.6249 H   0  0  0  0  0  0  0  0  0  0  0  0
    3.5749   -0.3155    1.5274 H   0  0  0  0  0  0  0  0  0  0  0  0
    1.5621   -1.5041    3.5052 H   0  0  0  0  0  0  0  0  0  0  0  0
    3.3255   -1.7125    3.5610 H   0  0  0  0  0  0  0  0  0  0  0  0
    2.6155   -0.1043    3.8089 H   0  0  0  0  0  0  0  0  0  0  0  0
    3.5690   -2.9158    0.7799 N   0  0  0  0  0  0  0  0  0  0  0  0
    3.5353   -4.1258   -0.0332 C   0  0  0  0  0  0  0  0  0  0  0  0
    4.4631   -2.5922    1.1387 H   0  0  0  0  0  0  0  0  0  0  0  0
    2.7828   -4.8240    0.3484 H   0  0  0  0  0  0  0  0  0  0  0  0
    3.2948   -3.8822   -1.0735 H   0  0  0  0  0  0  0  0  0  0  0  0
    4.5096   -4.6238   -0.0111 H   0  0  0  0  0  0  0  0  0  0  0  0
  1  2  2  0  0  0  0
  1  3  1  0  0  0  0
  1  7  1  0  0  0  0
  3  4  1  0  0  0  0
  3  5  1  0  0  0  0
  3  6  1  0  0  0  0
  7  8  1  0  0  0  0
  7 12  1  0  0  0  0
  8  9  1  0  0  0  0
  8 11  1  0  0  0  0
  8 13  1  0  0  0  0
  9 10  2  0  0  0  0
  9 17  1  0  0  0  0
 11 14  1  0  0  0  0
 11 15  1  0  0  0  0
 11 16  1  0  0  0  0
 17 18  1  0  0  0  0
 17 21  1  0  0  0  0
 18 19  1  0  0  0  0
 18 22  1  0  0  0  0
 18 23  1  0  0  0  0
 19 20  2  0  0  0  0
 19 24  1  0  0  0  0
 24 25  1  0  0  0  0
 24 29  1  0  0  0  0
 25 26  1  0  0  0  0
 25 28  1  0  0  0  0
 25 30  1  0  0  0  0
 26 27  2  0  0  0  0
 26 34  1  0  0  0  0
 28 31  1  0  0  0  0
 28 32  1  0  0  0  0
 28 33  1  0  0  0  0
 34 35  1  0  0  0  0
 34 36  1  0  0  0  0
 35 37  1  0  0  0  0
 35 38  1  0  0  0  0
 35 39  1  0  0  0  0
M  END
$$$$

  -OEChem-05262216283D

 39 38  0     1  0  0  0  0  0999 V2000
   -4.4015   -2.9532   -2.0224 C   0  0  0  0  0  0  0  0  0  0  0  0
   -4.0954   -3.9672   -1.4157 O   0  0  0  0  0  0  0  0  0  0  0  0
   -5.8334   -2.7425   -2.4778 C   0  0  0  0  0  0  0  0  0  0  0  0
   -5.8573   -2.5255   -3.5486 H   0  0  0  0  0  0  0  0  0  0  0  0
   -6.4256   -3.6423   -2.2878 H   0  0  0  0  0  0  0  0  0  0  0  0
   -6.2775   -1.9055   -1.9333 H   0  0  0  0  0  0  0  0  0  0  0  0
   -3.4533   -1.9862   -2.2794 N   0  0  0  0  0  0  0  0  0  0  0  0
   -2.0900   -1.9959   -1.7326 C   0  0  2  0  0  0  0  0  0  0  0  0
   -1.5831   -0.5649   -1.4524 C   0  0  0  0  0  0  0  0  0  0  0  0
   -2.2080    0.4093   -1.8588 O   0  0  0  0  0  0  0  0  0  0  0  0
   -1.1720   -2.7132   -2.7266 C   0  0  0  0  0  0  0  0  0  0  0  0
   -3.7837   -1.1012   -2.6624 H   0  0  0  0  0  0  0  0  0  0  0  0
   -2.0755   -2.5362   -0.7797 H   0  0  0  0  0  0  0  0  0  0  0  0
   -1.1678   -2.1928   -3.6896 H   0  0  0  0  0  0  0  0  0  0  0  0
   -0.1471   -2.7513   -2.3448 H   0  0  0  0  0  0  0  0  0  0  0  0
   -1.5168   -3.7399   -2.8858 H   0  0  0  0  0  0  0  0  0  0  0  0
   -0.4345   -0.3635   -0.7136 N   0  0  0  0  0  0  0  0  0  0  0  0
    0.2291    0.9499   -0.6078 C   0  0  0  0  0  0  0  0  0  0  0  0
    1.4791    0.8786    0.2758 C   0  0  0  0  0  0  0  0  0  0  0  0
    2.5256    1.3860   -0.1006 O   0  0  0  0  0  0  0  0  0  0  0  0
    0.1434   -1.1992   -0.5644 H   0  0  0  0  0  0  0  0  0  0  0  0
   -0.4588    1.6837   -0.1773 H   0  0  0  0  0  0  0  0  0  0  0  0
    0.5191    1.3027   -1.6028 H   0  0  0  0  0  0  0  0  0  0  0  0
    1.4996   -0.0487    1.3012 N   0  0  0  0  0  0  0  0  0  0  0  0
    2.6631   -0.9263    1.4768 C   0  0  2  0  0  0  0  0  0  0  0  0
    2.6062   -2.1137    0.4873 C   0  0  0  0  0  0  0  0  0  0  0  0
    1.5372   -2.4247   -0.0372 O   0  0  0  0  0  0  0  0  0  0  0  0
    2.6634   -1.4250    2.9232 C   0  0  0  0  0  0  0  0  0  0  0  0
    0.5973   -0.4981    1.4395 H   0  0  0  0  0  0  0  0  0  0  0  0
    3.5906   -0.3705    1.3014 H   0  0  0  0  0  0  0  0  0  0  0  0
    1.7584   -2.0053    3.1308 H   0  0  0  0  0  0  0  0  0  0  0  0
    3.5341   -2.0615    3.1083 H   0  0  0  0  0  0  0  0  0  0  0  0
    2.7013   -0.5778    3.6156 H   0  0  0  0  0  0  0  0  0  0  0  0
    3.7480   -2.8262    0.1751 N   0  0  0  0  0  0  0  0  0  0  0  0
    3.7732   -3.9109   -0.7988 C   0  0  0  0  0  0  0  0  0  0  0  0
    4.6270   -2.4972    0.5648 H   0  0  0  0  0  0  0  0  0  0  0  0
    3.1040   -4.7206   -0.4894 H   0  0  0  0  0  0  0  0  0  0  0  0
    3.4588   -3.5502   -1.7838 H   0  0  0  0  0  0  0  0  0  0  0  0
    4.7859   -4.3156   -0.8865 H   0  0  0  0  0  0  0  0  0  0  0  0
  1  2  2  0  0  0  0
  1  3  1  0  0  0  0
  1  7  1  0  0  0  0
  3  4  1  0  0  0  0
  3  5  1  0  0  0  0
  3  6  1  0  0  0  0
  7  8  1  0  0  0  0
  7 12  1  0  0  0  0
  8  9  1  0  0  0  0
  8 11  1  0  0  0  0
  8 13  1  0  0  0  0
  9 10  2  0  0  0  0
  9 17  1  0  0  0  0
 11 14  1  0  0  0  0
 11 15  1  0  0  0  0
 11 16  1  0  0  0  0
 17 18  1  0  0  0  0
 17 21  1  0  0  0  0
 18 19  1  0  0  0  0
 18 22  1  0  0  0  0
 18 23  1  0  0  0  0
 19 20  2  0  0  0  0
 19 24  1  0  0  0  0
 24 25  1  0  0  0  0
 24 29  1  0  0  0  0
 25 26  1  0  0  0  0
 25 28  1  0  0  0  0
 25 30  1  0  0  0  0
 26 27  2  0  0  0  0
 26 34  1  0  0  0  0
 28 31  1  0  0  0  0
 28 32  1  0  0  0  0
 28 33  1  0  0  0  0
 34 35  1  0  0  0  0
 34 36  1  0  0  0  0
 35 37  1  0  0  0  0
 35 38  1  0  0  0  0
 35 39  1  0  0  0  0
M  END
$$$$

  -OEChem-05262216283D

 39 38  0     1  0  0  0  0  0999 V2000
   -4.3968   -2.9706   -2.1909 C   0  0  0  0  0  0  0  0  0  0  0  0
   -4.0556   -4.0203   -1.6694 O   0  0  0  0  0  0  0  0  0  0  0  0
   -5.8260   -2.7848   -2.6640 C   0  0  0  0  0  0  0  0  0  0  0  0
   -5.8434   -2.6513   -3.7484 H   0  0  0  0  0  0  0  0  0  0  0  0
   -6.4256   -3.6623   -2.4062 H   0  0  0  0  0  0  0  0  0  0  0  0
   -6.2665   -1.9053   -2.1882 H   0  0  0  0  0  0  0  0  0  0  0  0
   -3.4863   -1.9485   -2.3516 N   0  0  0  0  0  0  0  0  0  0  0  0
   -2.1223   -1.9568   -1.8072 C   0  0  2  0  0  0  0  0  0  0  0  0
   -1.6712   -0.5387   -1.3966 C   0  0  0  0  0  0  0  0  0  0  0  0
   -2.3243    0.4430   -1.7352 O   0  0  0  0  0  0  0  0  0  0  0  0
   -1.1845   -2.5408   -2.8684 C   0  0  0  0  0  0  0  0  0  0  0  0
   -3.8464   -1.0477   -2.6646 H   0  0  0  0  0  0  0  0  0  0  0  0
   -2.0826   -2.5836   -0.9095 H   0  0  0  0  0  0  0  0  0  0  0  0
   -1.2031   -1.9284   -3.7755 H   0  0  0  0  0  0  0  0  0  0  0  0
   -0.1568   -2.5811   -2.4957 H   0  0  0  0  0  0  0  0  0  0  0  0
   -1.4941   -3.5583   -3.1274 H   0  0  0  0  0  0  0  0  0  0  0  0
   -0.5322   -0.3587   -0.6363 N   0  0  0  0  0  0  0  0  0  0  0  0
    0.1104    0.9636   -0.4966 C   0  0  0  0  0  0  0  0  0  0  0  0
    1.3583    0.9226    0.3952 C   0  0  0  0  0  0  0  0  0  0  0  0
    2.3065    1.6490    0.1368 O   0  0  0  0  0  0  0  0  0  0  0  0
    0.0825   -1.1798   -0.5978 H   0  0  0  0  0  0  0  0  0  0  0  0
   -0.5975    1.6740   -0.0585 H   0  0  0  0  0  0  0  0  0  0  0  0
    0.3972    1.3411   -1.4835 H   0  0  0  0  0  0  0  0  0  0  0  0
    1.5565   -0.1859    1.1970 N   0  0  0  0  0  0  0  0  0  0  0  0
    2.8127   -0.9421    1.1315 C   0  0  2  0  0  0  0  0  0  0  0  0
    2.7261   -2.0232    0.0298 C   0  0  0  0  0  0  0  0  0  0  0  0
    1.6271   -2.3527   -0.4158 O   0  0  0  0  0  0  0  0  0  0  0  0
    3.0515   -1.5767    2.5029 C   0  0  0  0  0  0  0  0  0  0  0  0
    0.7218   -0.7626    1.2738 H   0  0  0  0  0  0  0  0  0  0  0  0
    3.6550   -0.2798    0.9032 H   0  0  0  0  0  0  0  0  0  0  0  0
    2.2367   -2.2624    2.7570 H   0  0  0  0  0  0  0  0  0  0  0  0
    3.9916   -2.1367    2.5081 H   0  0  0  0  0  0  0  0  0  0  0  0
    3.1072   -0.8010    3.2734 H   0  0  0  0  0  0  0  0  0  0  0  0
    3.8682   -2.6124   -0.4775 N   0  0  0  0  0  0  0  0  0  0  0  0
    3.8507   -3.5938   -1.5561 C   0  0  0  0  0  0  0  0  0  0  0  0
    4.7638   -2.2719   -0.1383 H   0  0  0  0  0  0  0  0  0  0  0  0
    3.2734   -4.4768   -1.2623 H   0  0  0  0  0  0  0  0  0  0  0  0
    3.4034   -3.1642   -2.4588 H   0  0  0  0  0  0  0  0  0  0  0  0
    4.8700   -3.9127   -1.7942 H   0  0  0  0  0  0  0  0  0  0  0  0
  1  2  2  0  0  0  0
  1  3  1  0  0  0  0
  1  7  1  0  0  0  0
  3  4  1  0  0  0  0
  3  5  1  0  0  0  0
  3  6  1  0  0  0  0
  7  8  1  0  0  0  0
  7 12  1  0  0  0  0
  8  9  1  0  0  0  0
  8 11  1  0  0  0  0
  8 13  1  0  0  0  0
  9 10  2  0  0  0  0
  9 17  1  0  0  0  0
 11 14  1  0  0  0  0
 11 15  1  0  0  0  0
 11 16  1  0  0  0  0
 17 18  1  0  0  0  0
 17 21  1  0  0  0  0
 18 19  1  0  0  0  0
 18 22  1  0  0  0  0
 18 23  1  0  0  0  0
 19 20  2  0  0  0  0
 19 24  1  0  0  0  0
 24 25  1  0  0  0  0
 24 29  1  0  0  0  0
 25 26  1  0  0  0  0
 25 28  1  0  0  0  0
 25 30  1  0  0  0  0
 26 27  2  0  0  0  0
 26 34  1  0  0  0  0
 28 31  1  0  0  0  0
 28 32  1  0  0  0  0
 28 33  1  0  0  0  0
 34 35  1  0  0  0  0
 34 36  1  0  0  0  0
 35 37  1  0  0  0  0
 35 38  1  0  0  0  0
 35 39  1  0  0  0  0
M  END
$$$$

  -OEChem-05262216283D

 39 38  0     1  0  0  0  0  0999 V2000
   -5.0212   -2.7688   -2.3412 C   0  0  0  0  0  0  0  0  0  0  0  0
   -4.5764   -3.9028   -2.2597 O   0  0  0  0  0  0  0  0  0  0  0  0
   -6.5204   -2.5371   -2.3345 C   0  0  0  0  0  0  0  0  0  0  0  0
   -6.8231   -2.0202   -3.2483 H   0  0  0  0  0  0  0  0  0  0  0  0
   -7.0482   -3.4932   -2.2790 H   0  0  0  0  0  0  0  0  0  0  0  0
   -6.8006   -1.9295   -1.4706 H   0  0  0  0  0  0  0  0  0  0  0  0
   -4.1612   -1.6942   -2.4224 N   0  0  0  0  0  0  0  0  0  0  0  0
   -2.7067   -1.7848   -2.2370 C   0  0  2  0  0  0  0  0  0  0  0  0
   -2.1582   -0.5617   -1.4718 C   0  0  0  0  0  0  0  0  0  0  0  0
   -2.8522    0.4389   -1.3310 O   0  0  0  0  0  0  0  0  0  0  0  0
   -2.0532   -1.9032   -3.6171 C   0  0  0  0  0  0  0  0  0  0  0  0
   -4.5730   -0.7649   -2.3418 H   0  0  0  0  0  0  0  0  0  0  0  0
   -2.4608   -2.6735   -1.6456 H   0  0  0  0  0  0  0  0  0  0  0  0
   -2.2758   -1.0195   -4.2240 H   0  0  0  0  0  0  0  0  0  0  0  0
   -0.9671   -1.9981   -3.5238 H   0  0  0  0  0  0  0  0  0  0  0  0
   -2.4319   -2.7882   -4.1387 H   0  0  0  0  0  0  0  0  0  0  0  0
   -0.8875   -0.5808   -0.9250 N   0  0  0  0  0  0  0  0  0  0  0  0
   -0.2768    0.6175   -0.3135 C   0  0  0  0  0  0  0  0  0  0  0  0
    1.1401    0.4327    0.2503 C   0  0  0  0  0  0  0  0  0  0  0  0
    1.7357    1.3970    0.7065 O   0  0  0  0  0  0  0  0  0  0  0  0
   -0.2974   -1.3636   -1.1905 H   0  0  0  0  0  0  0  0  0  0  0  0
   -0.9126    0.9603    0.5090 H   0  0  0  0  0  0  0  0  0  0  0  0
   -0.2367    1.4186   -1.0583 H   0  0  0  0  0  0  0  0  0  0  0  0
    1.7943   -0.7832    0.1862 N   0  0  0  0  0  0  0  0  0  0  0  0
    3.2200   -0.9842    0.4711 C   0  0  2  0  0  0  0  0  0  0  0  0
    3.8050   -2.0911   -0.4311 C   0  0  0  0  0  0  0  0  0  0  0  0
    3.0514   -2.8005   -1.0918 O   0  0  0  0  0  0  0  0  0  0  0  0
    3.3741   -1.3479    1.9508 C   0  0  0  0  0  0  0  0  0  0  0  0
    1.3218   -1.5525   -0.2798 H   0  0  0  0  0  0  0  0  0  0  0  0
    3.7760   -0.0632    0.2650 H   0  0  0  0  0  0  0  0  0  0  0  0
    2.8330   -2.2723    2.1756 H   0  0  0  0  0  0  0  0  0  0  0  0
    4.4285   -1.4903    2.2055 H   0  0  0  0  0  0  0  0  0  0  0  0
    2.9736   -0.5474    2.5810 H   0  0  0  0  0  0  0  0  0  0  0  0
    5.1719   -2.2769   -0.5236 N   0  0  0  0  0  0  0  0  0  0  0  0
    5.7880   -3.2757   -1.3893 C   0  0  0  0  0  0  0  0  0  0  0  0
    5.7701   -1.6536    0.0114 H   0  0  0  0  0  0  0  0  0  0  0  0
    5.4380   -4.2801   -1.1277 H   0  0  0  0  0  0  0  0  0  0  0  0
    5.5412   -3.0787   -2.4381 H   0  0  0  0  0  0  0  0  0  0  0  0
    6.8768   -3.2505   -1.2800 H   0  0  0  0  0  0  0  0  0  0  0  0
  1  2  2  0  0  0  0
  1  3  1  0  0  0  0
  1  7  1  0  0  0  0
  3  4  1  0  0  0  0
  3  5  1  0  0  0  0
  3  6  1  0  0  0  0
  7  8  1  0  0  0  0
  7 12  1  0  0  0  0
  8  9  1  0  0  0  0
  8 11  1  0  0  0  0
  8 13  1  0  0  0  0
  9 10  2  0  0  0  0
  9 17  1  0  0  0  0
 11 14  1  0  0  0  0
 11 15  1  0  0  0  0
 11 16  1  0  0  0  0
 17 18  1  0  0  0  0
 17 21  1  0  0  0  0
 18 19  1  0  0  0  0
 18 22  1  0  0  0  0
 18 23  1  0  0  0  0
 19 20  2  0  0  0  0
 19 24  1  0  0  0  0
 24 25  1  0  0  0  0
 24 29  1  0  0  0  0
 25 26  1  0  0  0  0
 25 28  1  0  0  0  0
 25 30  1  0  0  0  0
 26 27  2  0  0  0  0
 26 34  1  0  0  0  0
 28 31  1  0  0  0  0
 28 32  1  0  0  0  0
 28 33  1  0  0  0  0
 34 35  1  0  0  0  0
 34 36  1  0  0  0  0
 35 37  1  0  0  0  0
 35 38  1  0  0  0  0
 35 39  1  0  0  0  0
M  END
$$$$

  -OEChem-05262216283D

 39 38  0     1  0  0  0  0  0999 V2000
   -3.8668   -3.2063   -2.9163 C   0  0  0  0  0  0  0  0  0  0  0  0
   -3.0600   -3.8859   -3.5306 O   0  0  0  0  0  0  0  0  0  0  0  0
   -5.2909   -3.6948   -2.7321 C   0  0  0  0  0  0  0  0  0  0  0  0
   -5.9922   -2.9640   -3.1425 H   0  0  0  0  0  0  0  0  0  0  0  0
   -5.4326   -4.6484   -3.2485 H   0  0  0  0  0  0  0  0  0  0  0  0
   -5.5015   -3.8342   -1.6687 H   0  0  0  0  0  0  0  0  0  0  0  0
   -3.4848   -2.0002   -2.3697 N   0  0  0  0  0  0  0  0  0  0  0  0
   -2.0993   -1.5168   -2.3147 C   0  0  2  0  0  0  0  0  0  0  0  0
   -1.8650   -0.6345   -1.0694 C   0  0  0  0  0  0  0  0  0  0  0  0
   -2.8083   -0.2953   -0.3621 O   0  0  0  0  0  0  0  0  0  0  0  0
   -1.8002   -0.7378   -3.5994 C   0  0  0  0  0  0  0  0  0  0  0  0
   -4.1504   -1.5401   -1.7493 H   0  0  0  0  0  0  0  0  0  0  0  0
   -1.4132   -2.3685   -2.2439 H   0  0  0  0  0  0  0  0  0  0  0  0
   -2.4639    0.1285   -3.6851 H   0  0  0  0  0  0  0  0  0  0  0  0
   -0.7634   -0.3880   -3.6038 H   0  0  0  0  0  0  0  0  0  0  0  0
   -1.9488   -1.3793   -4.4741 H   0  0  0  0  0  0  0  0  0  0  0  0
   -0.5868   -0.2525   -0.7130 N   0  0  0  0  0  0  0  0  0  0  0  0
   -0.2691    0.1901    0.6585 C   0  0  0  0  0  0  0  0  0  0  0  0
    1.2073    0.5696    0.8342 C   0  0  0  0  0  0  0  0  0  0  0  0
    1.7357    0.3742    1.9170 O   0  0  0  0  0  0  0  0  0  0  0  0
    0.1503   -0.7729   -1.2027 H   0  0  0  0  0  0  0  0  0  0  0  0
   -0.5116   -0.6079    1.3679 H   0  0  0  0  0  0  0  0  0  0  0  0
   -0.8765    1.0634    0.9149 H   0  0  0  0  0  0  0  0  0  0  0  0
    1.9715    0.7738   -0.3045 N   0  0  0  0  0  0  0  0  0  0  0  0
    3.2112    0.0338   -0.6104 C   0  0  2  0  0  0  0  0  0  0  0  0
    2.8747   -1.4155   -1.0410 C   0  0  0  0  0  0  0  0  0  0  0  0
    1.8015   -1.6349   -1.6007 O   0  0  0  0  0  0  0  0  0  0  0  0
    4.2741    0.1042    0.4999 C   0  0  0  0  0  0  0  0  0  0  0  0
    1.3778    0.9225   -1.1170 H   0  0  0  0  0  0  0  0  0  0  0  0
    3.6576    0.5169   -1.4849 H   0  0  0  0  0  0  0  0  0  0  0  0
    4.0152   -0.5504    1.3379 H   0  0  0  0  0  0  0  0  0  0  0  0
    5.2493   -0.2055    0.1126 H   0  0  0  0  0  0  0  0  0  0  0  0
    4.3634    1.1291    0.8739 H   0  0  0  0  0  0  0  0  0  0  0  0
    3.7646   -2.4580   -0.8608 N   0  0  0  0  0  0  0  0  0  0  0  0
    3.4581   -3.8406   -1.2096 C   0  0  0  0  0  0  0  0  0  0  0  0
    4.6040   -2.2647   -0.3215 H   0  0  0  0  0  0  0  0  0  0  0  0
    2.6157   -4.2087   -0.6144 H   0  0  0  0  0  0  0  0  0  0  0  0
    3.2019   -3.9223   -2.2713 H   0  0  0  0  0  0  0  0  0  0  0  0
    4.3248   -4.4799   -1.0159 H   0  0  0  0  0  0  0  0  0  0  0  0
  1  2  2  0  0  0  0
  1  3  1  0  0  0  0
  1  7  1  0  0  0  0
  3  4  1  0  0  0  0
  3  5  1  0  0  0  0
  3  6  1  0  0  0  0
  7  8  1  0  0  0  0
  7 12  1  0  0  0  0
  8  9  1  0  0  0  0
  8 11  1  0  0  0  0
  8 13  1  0  0  0  0
  9 10  2  0  0  0  0
  9 17  1  0  0  0  0
 11 14  1  0  0  0  0
 11 15  1  0  0  0  0
 11 16  1  0  0  0  0
 17 18  1  0  0  0  0
 17 21  1  0  0  0  0
 18 19  1  0  0  0  0
 18 22  1  0  0  0  0
 18 23  1  0  0  0  0
 19 20  2  0  0  0  0
 19 24  1  0  0  0  0
 24 25  1  0  0  0  0
 24 29  1  0  0  0  0
 25 26  1  0  0  0  0
 25 28  1  0  0  0  0
 25 30  1  0  0  0  0
 26 27  2  0  0  0  0
 26 34  1  0  0  0  0
 28 31  1  0  0  0  0
 28 32  1  0  0  0  0
 28 33  1  0  0  0  0
 34 35  1  0  0  0  0
 34 36  1  0  0  0  0
 35 37  1  0  0  0  0
 35 38  1  0  0  0  0
 35 39  1  0  0  0  0
M  END
$$$$

  -OEChem-05262216283D

 39 38  0     1  0  0  0  0  0999 V2000
   -3.8202   -3.0889   -3.0950 C   0  0  0  0  0  0  0  0  0  0  0  0
   -2.9956   -3.6844   -3.7699 O   0  0  0  0  0  0  0  0  0  0  0  0
   -5.2272   -3.6378   -2.9549 C   0  0  0  0  0  0  0  0  0  0  0  0
   -5.9500   -2.9095   -3.3299 H   0  0  0  0  0  0  0  0  0  0  0  0
   -5.3301   -4.5639   -3.5273 H   0  0  0  0  0  0  0  0  0  0  0  0
   -5.4423   -3.8473   -1.9044 H   0  0  0  0  0  0  0  0  0  0  0  0
   -3.4756   -1.9221   -2.4471 N   0  0  0  0  0  0  0  0  0  0  0  0
   -2.1068   -1.3967   -2.3610 C   0  0  2  0  0  0  0  0  0  0  0  0
   -1.8743   -0.6449   -1.0333 C   0  0  0  0  0  0  0  0  0  0  0  0
   -2.8163   -0.3756   -0.2951 O   0  0  0  0  0  0  0  0  0  0  0  0
   -1.8603   -0.4732   -3.5574 C   0  0  0  0  0  0  0  0  0  0  0  0
   -4.1526   -1.5384   -1.7884 H   0  0  0  0  0  0  0  0  0  0  0  0
   -1.3892   -2.2243   -2.3948 H   0  0  0  0  0  0  0  0  0  0  0  0
   -2.5512    0.3754   -3.5353 H   0  0  0  0  0  0  0  0  0  0  0  0
   -0.8349   -0.0916   -3.5419 H   0  0  0  0  0  0  0  0  0  0  0  0
   -2.0083   -1.0200   -4.4940 H   0  0  0  0  0  0  0  0  0  0  0  0
   -0.5968   -0.2947   -0.6460 N   0  0  0  0  0  0  0  0  0  0  0  0
   -0.2664    0.0812    0.7411 C   0  0  0  0  0  0  0  0  0  0  0  0
    1.2200    0.4236    0.8930 C   0  0  0  0  0  0  0  0  0  0  0  0
    1.8479   -0.0592    1.8223 O   0  0  0  0  0  0  0  0  0  0  0  0
    0.1540   -0.7235   -1.2007 H   0  0  0  0  0  0  0  0  0  0  0  0
   -0.5129   -0.7423    1.4192 H   0  0  0  0  0  0  0  0  0  0  0  0
   -0.8542    0.9533    1.0429 H   0  0  0  0  0  0  0  0  0  0  0  0
    1.8726    0.9604   -0.2062 N   0  0  0  0  0  0  0  0  0  0  0  0
    3.1439    0.4270   -0.7293 C   0  0  2  0  0  0  0  0  0  0  0  0
    2.9388   -1.0018   -1.2921 C   0  0  0  0  0  0  0  0  0  0  0  0
    1.8719   -1.2744   -1.8407 O   0  0  0  0  0  0  0  0  0  0  0  0
    4.3055    0.5362    0.2743 C   0  0  0  0  0  0  0  0  0  0  0  0
    1.2128    1.2453   -0.9264 H   0  0  0  0  0  0  0  0  0  0  0  0
    3.4226    1.0519   -1.5831 H   0  0  0  0  0  0  0  0  0  0  0  0
    4.2265   -0.2185    1.0622 H   0  0  0  0  0  0  0  0  0  0  0  0
    5.2622    0.3953   -0.2372 H   0  0  0  0  0  0  0  0  0  0  0  0
    4.3078    1.5258    0.7415 H   0  0  0  0  0  0  0  0  0  0  0  0
    3.9280   -1.9654   -1.2263 N   0  0  0  0  0  0  0  0  0  0  0  0
    3.7294   -3.3408   -1.6688 C   0  0  0  0  0  0  0  0  0  0  0  0
    4.7470   -1.7480   -0.6653 H   0  0  0  0  0  0  0  0  0  0  0  0
    2.9430   -3.8232   -1.0787 H   0  0  0  0  0  0  0  0  0  0  0  0
    3.4435   -3.3676   -2.7256 H   0  0  0  0  0  0  0  0  0  0  0  0
    4.6538   -3.9141   -1.5490 H   0  0  0  0  0  0  0  0  0  0  0  0
  1  2  2  0  0  0  0
  1  3  1  0  0  0  0
  1  7  1  0  0  0  0
  3  4  1  0  0  0  0
  3  5  1  0  0  0  0
  3  6  1  0  0  0  0
  7  8  1  0  0  0  0
  7 12  1  0  0  0  0
  8  9  1  0  0  0  0
  8 11  1  0  0  0  0
  8 13  1  0  0  0  0
  9 10  2  0  0  0  0
  9 17  1  0  0  0  0
 11 14  1  0  0  0  0
 11 15  1  0  0  0  0
 11 16  1  0  0  0  0
 17 18  1  0  0  0  0
 17 21  1  0  0  0  0
 18 19  1  0  0  0  0
 18 22  1  0  0  0  0
 18 23  1  0  0  0  0
 19 20  2  0  0  0  0
 19 24  1  0  0  0  0
 24 25  1  0  0  0  0
 24 29  1  0  0  0  0
 25 26  1  0  0  0  0
 25 28  1  0  0  0  0
 25 30  1  0  0  0  0
 26 27  2  0  0  0  0
 26 34  1  0  0  0  0
 28 31  1  0  0  0  0
 28 32  1  0  0  0  0
 28 33  1  0  0  0  0
 34 35  1  0  0  0  0
 34 36  1  0  0  0  0
 35 37  1  0  0  0  0
 35 38  1  0  0  0  0
 35 39  1  0  0  0  0
M  END
$$$$

  -OEChem-05262216283D

 39 38  0     1  0  0  0  0  0999 V2000
   -3.7783   -2.9517   -3.2640 C   0  0  0  0  0  0  0  0  0  0  0  0
   -2.9549   -3.4449   -4.0182 O   0  0  0  0  0  0  0  0  0  0  0  0
   -5.1730   -3.5422   -3.1726 C   0  0  0  0  0  0  0  0  0  0  0  0
   -5.9196   -2.7721   -3.3817 H   0  0  0  0  0  0  0  0  0  0  0  0
   -5.2879   -4.3502   -3.9008 H   0  0  0  0  0  0  0  0  0  0  0  0
   -5.3430   -3.9435   -2.1704 H   0  0  0  0  0  0  0  0  0  0  0  0
   -3.4414   -1.8650   -2.4851 N   0  0  0  0  0  0  0  0  0  0  0  0
   -2.0818   -1.3224   -2.3628 C   0  0  2  0  0  0  0  0  0  0  0  0
   -1.8392   -0.7204   -0.9624 C   0  0  0  0  0  0  0  0  0  0  0  0
   -2.7698   -0.5634   -0.1786 O   0  0  0  0  0  0  0  0  0  0  0  0
   -1.8768   -0.2631   -3.4504 C   0  0  0  0  0  0  0  0  0  0  0  0
   -4.1132   -1.5738   -1.7758 H   0  0  0  0  0  0  0  0  0  0  0  0
   -1.3485   -2.1247   -2.5022 H   0  0  0  0  0  0  0  0  0  0  0  0
   -2.5909    0.5570   -3.3261 H   0  0  0  0  0  0  0  0  0  0  0  0
   -0.8622    0.1445   -3.4031 H   0  0  0  0  0  0  0  0  0  0  0  0
   -2.0219   -0.7054   -4.4410 H   0  0  0  0  0  0  0  0  0  0  0  0
   -0.5671   -0.3592   -0.5690 N   0  0  0  0  0  0  0  0  0  0  0  0
   -0.2134   -0.0224    0.8209 C   0  0  0  0  0  0  0  0  0  0  0  0
    1.2718    0.3341    0.9234 C   0  0  0  0  0  0  0  0  0  0  0  0
    2.0074   -0.3478    1.6207 O   0  0  0  0  0  0  0  0  0  0  0  0
    0.1943   -0.6399   -1.1990 H   0  0  0  0  0  0  0  0  0  0  0  0
   -0.4246   -0.8722    1.4785 H   0  0  0  0  0  0  0  0  0  0  0  0
   -0.8070    0.8283    1.1683 H   0  0  0  0  0  0  0  0  0  0  0  0
    1.7950    1.1818   -0.0406 N   0  0  0  0  0  0  0  0  0  0  0  0
    3.0561    0.8810   -0.7420 C   0  0  2  0  0  0  0  0  0  0  0  0
    2.9642   -0.4882   -1.4635 C   0  0  0  0  0  0  0  0  0  0  0  0
    1.9195   -0.7781   -2.0447 O   0  0  0  0  0  0  0  0  0  0  0  0
    4.2829    1.0286    0.1756 C   0  0  0  0  0  0  0  0  0  0  0  0
    1.0688    1.5860   -0.6271 H   0  0  0  0  0  0  0  0  0  0  0  0
    3.1741    1.6294   -1.5316 H   0  0  0  0  0  0  0  0  0  0  0  0
    4.3415    0.2162    0.9055 H   0  0  0  0  0  0  0  0  0  0  0  0
    5.2016    1.0213   -0.4187 H   0  0  0  0  0  0  0  0  0  0  0  0
    4.2338    1.9770    0.7196 H   0  0  0  0  0  0  0  0  0  0  0  0
    4.0109   -1.3913   -1.4676 N   0  0  0  0  0  0  0  0  0  0  0  0
    3.8911   -2.7379   -2.0145 C   0  0  0  0  0  0  0  0  0  0  0  0
    4.7899   -1.1882   -0.8476 H   0  0  0  0  0  0  0  0  0  0  0  0
    3.1233   -3.3033   -1.4758 H   0  0  0  0  0  0  0  0  0  0  0  0
    3.6215   -2.7000   -3.0752 H   0  0  0  0  0  0  0  0  0  0  0  0
    4.8426   -3.2701   -1.9211 H   0  0  0  0  0  0  0  0  0  0  0  0
  1  2  2  0  0  0  0
  1  3  1  0  0  0  0
  1  7  1  0  0  0  0
  3  4  1  0  0  0  0
  3  5  1  0  0  0  0
  3  6  1  0  0  0  0
  7  8  1  0  0  0  0
  7 12  1  0  0  0  0
  8  9  1  0  0  0  0
  8 11  1  0  0  0  0
  8 13  1  0  0  0  0
  9 10  2  0  0  0  0
  9 17  1  0  0  0  0
 11 14  1  0  0  0  0
 11 15  1  0  0  0  0
 11 16  1  0  0  0  0
 17 18  1  0  0  0  0
 17 21  1  0  0  0  0
 18 19  1  0  0  0  0
 18 22  1  0  0  0  0
 18 23  1  0  0  0  0
 19 20  2  0  0  0  0
 19 24  1  0  0  0  0
 24 25  1  0  0  0  0
 24 29  1  0  0  0  0
 25 26  1  0  0  0  0
 25 28  1  0  0  0  0
 25 30  1  0  0  0  0
 26 27  2  0  0  0  0
 26 34  1  0  0  0  0
 28 31  1  0  0  0  0
 28 32  1  0  0  0  0
 28 33  1  0  0  0  0
 34 35  1  0  0  0  0
 34 36  1  0  0  0  0
 35 37  1  0  0  0  0
 35 38  1  0  0  0  0
 35 39  1  0  0  0  0
M  END
$$$$

  -OEChem-05262216283D

 39 38  0     1  0  0  0  0  0999 V2000
   -3.7102   -2.8555   -3.3456 C   0  0  0  0  0  0  0  0  0  0  0  0
   -2.8750   -3.2948   -4.1200 O   0  0  0  0  0  0  0  0  0  0  0  0
   -5.1050   -3.4510   -3.3144 C   0  0  0  0  0  0  0  0  0  0  0  0
   -5.8470   -2.6746   -3.5161 H   0  0  0  0  0  0  0  0  0  0  0  0
   -5.1986   -4.2333   -4.0729 H   0  0  0  0  0  0  0  0  0  0  0  0
   -5.3013   -3.8875   -2.3321 H   0  0  0  0  0  0  0  0  0  0  0  0
   -3.3877   -1.8244   -2.4893 N   0  0  0  0  0  0  0  0  0  0  0  0
   -2.0326   -1.2848   -2.3166 C   0  0  2  0  0  0  0  0  0  0  0  0
   -1.8158   -0.7434   -0.8873 C   0  0  0  0  0  0  0  0  0  0  0  0
   -2.7559   -0.6411   -0.1057 O   0  0  0  0  0  0  0  0  0  0  0  0
   -1.8082   -0.1805   -3.3545 C   0  0  0  0  0  0  0  0  0  0  0  0
   -4.0695   -1.5835   -1.7708 H   0  0  0  0  0  0  0  0  0  0  0  0
   -1.2956   -2.0797   -2.4759 H   0  0  0  0  0  0  0  0  0  0  0  0
   -2.5274    0.6320   -3.2117 H   0  0  0  0  0  0  0  0  0  0  0  0
   -0.7963    0.2271   -3.2683 H   0  0  0  0  0  0  0  0  0  0  0  0
   -1.9305   -0.5810   -4.3658 H   0  0  0  0  0  0  0  0  0  0  0  0
   -0.5567   -0.3687   -0.4675 N   0  0  0  0  0  0  0  0  0  0  0  0
   -0.2251    0.0145    0.9138 C   0  0  0  0  0  0  0  0  0  0  0  0
    1.2598    0.3673    1.0092 C   0  0  0  0  0  0  0  0  0  0  0  0
    2.0390   -0.4248    1.5178 O   0  0  0  0  0  0  0  0  0  0  0  0
    0.2156   -0.5177   -1.1279 H   0  0  0  0  0  0  0  0  0  0  0  0
   -0.4412   -0.8130    1.5975 H   0  0  0  0  0  0  0  0  0  0  0  0
   -0.8228    0.8758    1.2262 H   0  0  0  0  0  0  0  0  0  0  0  0
    1.7223    1.4101    0.2225 N   0  0  0  0  0  0  0  0  0  0  0  0
    2.9728    1.2972   -0.5504 C   0  0  2  0  0  0  0  0  0  0  0  0
    2.9383    0.0611   -1.4875 C   0  0  0  0  0  0  0  0  0  0  0  0
    1.8903   -0.2124   -2.0706 O   0  0  0  0  0  0  0  0  0  0  0  0
    4.2142    1.3610    0.3569 C   0  0  0  0  0  0  0  0  0  0  0  0
    0.9689    1.9000   -0.2534 H   0  0  0  0  0  0  0  0  0  0  0  0
    3.0280    2.1698   -1.2082 H   0  0  0  0  0  0  0  0  0  0  0  0
    4.3258    0.4496    0.9513 H   0  0  0  0  0  0  0  0  0  0  0  0
    5.1179    1.4895   -0.2467 H   0  0  0  0  0  0  0  0  0  0  0  0
    4.1356    2.2112    1.0414 H   0  0  0  0  0  0  0  0  0  0  0  0
    4.0495   -0.7354   -1.6940 N   0  0  0  0  0  0  0  0  0  0  0  0
    4.0071   -1.9660   -2.4759 C   0  0  0  0  0  0  0  0  0  0  0  0
    4.8382   -0.5853   -1.0711 H   0  0  0  0  0  0  0  0  0  0  0  0
    3.3433   -2.6975   -2.0028 H   0  0  0  0  0  0  0  0  0  0  0  0
    3.6450   -1.7658   -3.4902 H   0  0  0  0  0  0  0  0  0  0  0  0
    5.0082   -2.4018   -2.5501 H   0  0  0  0  0  0  0  0  0  0  0  0
  1  2  2  0  0  0  0
  1  3  1  0  0  0  0
  1  7  1  0  0  0  0
  3  4  1  0  0  0  0
  3  5  1  0  0  0  0
  3  6  1  0  0  0  0
  7  8  1  0  0  0  0
  7 12  1  0  0  0  0
  8  9  1  0  0  0  0
  8 11  1  0  0  0  0
  8 13  1  0  0  0  0
  9 10  2  0  0  0  0
  9 17  1  0  0  0  0
 11 14  1  0  0  0  0
 11 15  1  0  0  0  0
 11 16  1  0  0  0  0
 17 18  1  0  0  0  0
 17 21  1  0  0  0  0
 18 19  1  0  0  0  0
 18 22  1  0  0  0  0
 18 23  1  0  0  0  0
 19 20  2  0  0  0  0
 19 24  1  0  0  0  0
 24 25  1  0  0  0  0
 24 29  1  0  0  0  0
 25 26  1  0  0  0  0
 25 28  1  0  0  0  0
 25 30  1  0  0  0  0
 26 27  2  0  0  0  0
 26 34  1  0  0  0  0
 28 31  1  0  0  0  0
 28 32  1  0  0  0  0
 28 33  1  0  0  0  0
 34 35  1  0  0  0  0
 34 36  1  0  0  0  0
 35 37  1  0  0  0  0
 35 38  1  0  0  0  0
 35 39  1  0  0  0  0
M  END
$$$$

  -OEChem-05262216283D

 39 38  0     1  0  0  0  0  0999 V2000
   -3.6349   -2.7989   -3.3741 C   0  0  0  0  0  0  0  0  0  0  0  0
   -2.7848   -3.2131   -4.1462 O   0  0  0  0  0  0  0  0  0  0  0  0
   -5.0184   -3.4210   -3.3624 C   0  0  0  0  0  0  0  0  0  0  0  0
   -5.7581   -2.6883   -3.6939 H   0  0  0  0  0  0  0  0  0  0  0  0
   -5.0496   -4.2840   -4.0334 H   0  0  0  0  0  0  0  0  0  0  0  0
   -5.2708   -3.7524   -2.3522 H   0  0  0  0  0  0  0  0  0  0  0  0
   -3.3422   -1.7707   -2.5040 N   0  0  0  0  0  0  0  0  0  0  0  0
   -1.9970   -1.2179   -2.2993 C   0  0  2  0  0  0  0  0  0  0  0  0
   -1.7972   -0.7432   -0.8443 C   0  0  0  0  0  0  0  0  0  0  0  0
   -2.7461   -0.6910   -0.0679 O   0  0  0  0  0  0  0  0  0  0  0  0
   -1.7920   -0.0614   -3.2826 C   0  0  0  0  0  0  0  0  0  0  0  0
   -4.0337   -1.5591   -1.7856 H   0  0  0  0  0  0  0  0  0  0  0  0
   -1.2448   -1.9905   -2.4929 H   0  0  0  0  0  0  0  0  0  0  0  0
   -2.5205    0.7343   -3.0973 H   0  0  0  0  0  0  0  0  0  0  0  0
   -0.7850    0.3550   -3.1814 H   0  0  0  0  0  0  0  0  0  0  0  0
   -1.9149   -0.4140   -4.3117 H   0  0  0  0  0  0  0  0  0  0  0  0
   -0.5487   -0.3704   -0.3927 N   0  0  0  0  0  0  0  0  0  0  0  0
   -0.2550    0.0388    0.9885 C   0  0  0  0  0  0  0  0  0  0  0  0
    1.2297    0.3787    1.1148 C   0  0  0  0  0  0  0  0  0  0  0  0
    2.0280   -0.4941    1.4239 O   0  0  0  0  0  0  0  0  0  0  0  0
    0.2247   -0.3949   -1.0672 H   0  0  0  0  0  0  0  0  0  0  0  0
   -0.4928   -0.7743    1.6819 H   0  0  0  0  0  0  0  0  0  0  0  0
   -0.8570    0.9081    1.2686 H   0  0  0  0  0  0  0  0  0  0  0  0
    1.6642    1.5783    0.5751 N   0  0  0  0  0  0  0  0  0  0  0  0
    2.9082    1.6519   -0.2141 C   0  0  2  0  0  0  0  0  0  0  0  0
    2.9095    0.6151   -1.3708 C   0  0  0  0  0  0  0  0  0  0  0  0
    1.8567    0.3674   -1.9573 O   0  0  0  0  0  0  0  0  0  0  0  0
    4.1512    1.5755    0.6891 C   0  0  0  0  0  0  0  0  0  0  0  0
    0.8991    2.1472    0.2224 H   0  0  0  0  0  0  0  0  0  0  0  0
    2.9330    2.6357   -0.6922 H   0  0  0  0  0  0  0  0  0  0  0  0
    4.2968    0.5661    1.0845 H   0  0  0  0  0  0  0  0  0  0  0  0
    5.0467    1.8572    0.1270 H   0  0  0  0  0  0  0  0  0  0  0  0
    4.0462    2.2644    1.5329 H   0  0  0  0  0  0  0  0  0  0  0  0
    4.0674   -0.0202   -1.7805 N   0  0  0  0  0  0  0  0  0  0  0  0
    4.0794   -1.0717   -2.7910 C   0  0  0  0  0  0  0  0  0  0  0  0
    4.8833    0.0887   -1.1849 H   0  0  0  0  0  0  0  0  0  0  0  0
    3.4747   -1.9245   -2.4645 H   0  0  0  0  0  0  0  0  0  0  0  0
    3.6786   -0.6975   -3.7390 H   0  0  0  0  0  0  0  0  0  0  0  0
    5.1027   -1.4187   -2.9643 H   0  0  0  0  0  0  0  0  0  0  0  0
  1  2  2  0  0  0  0
  1  3  1  0  0  0  0
  1  7  1  0  0  0  0
  3  4  1  0  0  0  0
  3  5  1  0  0  0  0
  3  6  1  0  0  0  0
  7  8  1  0  0  0  0
  7 12  1  0  0  0  0
  8  9  1  0  0  0  0
  8 11  1  0  0  0  0
  8 13  1  0  0  0  0
  9 10  2  0  0  0  0
  9 17  1  0  0  0  0
 11 14  1  0  0  0  0
 11 15  1  0  0  0  0
 11 16  1  0  0  0  0
 17 18  1  0  0  0  0
 17 21  1  0  0  0  0
 18 19  1  0  0  0  0
 18 22  1  0  0  0  0
 18 23  1  0  0  0  0
 19 20  2  0  0  0  0
 19 24  1  0  0  0  0
 24 25  1  0  0  0  0
 24 29  1  0  0  0  0
 25 26  1  0  0  0  0
 25 28  1  0  0  0  0
 25 30  1  0  0  0  0
 26 27  2  0  0  0  0
 26 34  1  0  0  0  0
 28 31  1  0  0  0  0
 28 32  1  0  0  0  0
 28 33  1  0  0  0  0
 34 35  1  0  0  0  0
 34 36  1  0  0  0  0
 35 37  1  0  0  0  0
 35 38  1  0  0  0  0
 35 39  1  0  0  0  0
M  END
$$$$

  -OEChem-05262216283D

 39 38  0     1  0  0  0  0  0999 V2000
   -3.9214   -2.8201   -3.3191 C   0  0  0  0  0  0  0  0  0  0  0  0
   -3.1460   -3.1890   -4.1869 O   0  0  0  0  0  0  0  0  0  0  0  0
   -5.2971   -3.4505   -3.2094 C   0  0  0  0  0  0  0  0  0  0  0  0
   -6.0677   -2.6934   -3.3725 H   0  0  0  0  0  0  0  0  0  0  0  0
   -5.4126   -4.2383   -3.9590 H   0  0  0  0  0  0  0  0  0  0  0  0
   -5.4302   -3.8876   -2.2170 H   0  0  0  0  0  0  0  0  0  0  0  0
   -3.5458   -1.8344   -2.4310 N   0  0  0  0  0  0  0  0  0  0  0  0
   -2.1950   -1.2625   -2.3500 C   0  0  2  0  0  0  0  0  0  0  0  0
   -1.8516   -0.8119   -0.9138 C   0  0  0  0  0  0  0  0  0  0  0  0
   -2.7127   -0.8039   -0.0399 O   0  0  0  0  0  0  0  0  0  0  0  0
   -2.1072   -0.0811   -3.3220 C   0  0  0  0  0  0  0  0  0  0  0  0
   -4.1678   -1.6522   -1.6441 H   0  0  0  0  0  0  0  0  0  0  0  0
   -1.4573   -2.0199   -2.6366 H   0  0  0  0  0  0  0  0  0  0  0  0
   -2.8252    0.6971   -3.0445 H   0  0  0  0  0  0  0  0  0  0  0  0
   -1.1020    0.3517   -3.3137 H   0  0  0  0  0  0  0  0  0  0  0  0
   -2.3287   -0.4119   -4.3417 H   0  0  0  0  0  0  0  0  0  0  0  0
   -0.5707   -0.4110   -0.5879 N   0  0  0  0  0  0  0  0  0  0  0  0
   -0.1421   -0.1118    0.7857 C   0  0  0  0  0  0  0  0  0  0  0  0
    1.3291    0.3061    0.8258 C   0  0  0  0  0  0  0  0  0  0  0  0
    2.2000   -0.5519    0.7868 O   0  0  0  0  0  0  0  0  0  0  0  0
    0.1465   -0.5109   -1.3059 H   0  0  0  0  0  0  0  0  0  0  0  0
   -0.2711   -0.9965    1.4177 H   0  0  0  0  0  0  0  0  0  0  0  0
   -0.7568    0.6897    1.2062 H   0  0  0  0  0  0  0  0  0  0  0  0
    1.6555    1.6451    0.6926 N   0  0  0  0  0  0  0  0  0  0  0  0
    2.9671    2.1138    0.2130 C   0  0  2  0  0  0  0  0  0  0  0  0
    3.3107    1.5167   -1.1740 C   0  0  0  0  0  0  0  0  0  0  0  0
    2.5641    1.7539   -2.1170 O   0  0  0  0  0  0  0  0  0  0  0  0
    4.0553    1.8908    1.2779 C   0  0  0  0  0  0  0  0  0  0  0  0
    0.8633    2.2559    0.5107 H   0  0  0  0  0  0  0  0  0  0  0  0
    2.8971    3.1953    0.0603 H   0  0  0  0  0  0  0  0  0  0  0  0
    4.2339    0.8267    1.4561 H   0  0  0  0  0  0  0  0  0  0  0  0
    4.9962    2.3491    0.9578 H   0  0  0  0  0  0  0  0  0  0  0  0
    3.7535    2.3499    2.2241 H   0  0  0  0  0  0  0  0  0  0  0  0
    4.3948    0.6786   -1.3606 N   0  0  0  0  0  0  0  0  0  0  0  0
    4.6335   -0.0343   -2.6094 C   0  0  0  0  0  0  0  0  0  0  0  0
    4.8147    0.3096   -0.5114 H   0  0  0  0  0  0  0  0  0  0  0  0
    3.8259   -0.7480   -2.8032 H   0  0  0  0  0  0  0  0  0  0  0  0
    4.6926    0.6676   -3.4480 H   0  0  0  0  0  0  0  0  0  0  0  0
    5.5783   -0.5839   -2.5556 H   0  0  0  0  0  0  0  0  0  0  0  0
  1  2  2  0  0  0  0
  1  3  1  0  0  0  0
  1  7  1  0  0  0  0
  3  4  1  0  0  0  0
  3  5  1  0  0  0  0
  3  6  1  0  0  0  0
  7  8  1  0  0  0  0
  7 12  1  0  0  0  0
  8  9  1  0  0  0  0
  8 11  1  0  0  0  0
  8 13  1  0  0  0  0
  9 10  2  0  0  0  0
  9 17  1  0  0  0  0
 11 14  1  0  0  0  0
 11 15  1  0  0  0  0
 11 16  1  0  0  0  0
 17 18  1  0  0  0  0
 17 21  1  0  0  0  0
 18 19  1  0  0  0  0
 18 22  1  0  0  0  0
 18 23  1  0  0  0  0
 19 20  2  0  0  0  0
 19 24  1  0  0  0  0
 24 25  1  0  0  0  0
 24 29  1  0  0  0  0
 25 26  1  0  0  0  0
 25 28  1  0  0  0  0
 25 30  1  0  0  0  0
 26 27  2  0  0  0  0
 26 34  1  0  0  0  0
 28 31  1  0  0  0  0
 28 32  1  0  0  0  0
 28 33  1  0  0  0  0
 34 35  1  0  0  0  0
 34 36  1  0  0  0  0
 35 37  1  0  0  0  0
 35 38  1  0  0  0  0
 35 39  1  0  0  0  0
M  END
$$$$

  -OEChem-05262216283D

 39 38  0     1  0  0  0  0  0999 V2000
   -3.8759   -2.9211   -3.2297 C   0  0  0  0  0  0  0  0  0  0  0  0
   -3.0872   -3.3434   -4.0603 O   0  0  0  0  0  0  0  0  0  0  0  0
   -5.2411   -3.5656   -3.0782 C   0  0  0  0  0  0  0  0  0  0  0  0
   -6.0257   -2.8234   -3.2449 H   0  0  0  0  0  0  0  0  0  0  0  0
   -5.3594   -4.3726   -3.8068 H   0  0  0  0  0  0  0  0  0  0  0  0
   -5.3489   -3.9803   -2.0730 H   0  0  0  0  0  0  0  0  0  0  0  0
   -3.5205   -1.8646   -2.4180 N   0  0  0  0  0  0  0  0  0  0  0  0
   -2.1793   -1.2678   -2.3761 C   0  0  2  0  0  0  0  0  0  0  0  0
   -1.8493   -0.7065   -0.9767 C   0  0  0  0  0  0  0  0  0  0  0  0
   -2.7220   -0.6104   -0.1202 O   0  0  0  0  0  0  0  0  0  0  0  0
   -2.1065   -0.1603   -3.4325 C   0  0  0  0  0  0  0  0  0  0  0  0
   -4.1553   -1.6235   -1.6576 H   0  0  0  0  0  0  0  0  0  0  0  0
   -1.4295   -2.0334   -2.6042 H   0  0  0  0  0  0  0  0  0  0  0  0
   -2.8359    0.6259   -3.2130 H   0  0  0  0  0  0  0  0  0  0  0  0
   -1.1078    0.2861   -3.4559 H   0  0  0  0  0  0  0  0  0  0  0  0
   -2.3225   -0.5687   -4.4250 H   0  0  0  0  0  0  0  0  0  0  0  0
   -0.5636   -0.3104   -0.6629 N   0  0  0  0  0  0  0  0  0  0  0  0
   -0.1435    0.0193    0.7063 C   0  0  0  0  0  0  0  0  0  0  0  0
    1.3315    0.4272    0.7636 C   0  0  0  0  0  0  0  0  0  0  0  0
    2.1836   -0.4050    0.4834 O   0  0  0  0  0  0  0  0  0  0  0  0
    0.1637   -0.5417   -1.3376 H   0  0  0  0  0  0  0  0  0  0  0  0
   -0.2883   -0.8469    1.3601 H   0  0  0  0  0  0  0  0  0  0  0  0
   -0.7583    0.8359    1.0972 H   0  0  0  0  0  0  0  0  0  0  0  0
    1.6750    1.7596    0.9232 N   0  0  0  0  0  0  0  0  0  0  0  0
    3.0328    2.3415    0.8743 C   0  0  2  0  0  0  0  0  0  0  0  0
    3.6974    2.3041   -0.5217 C   0  0  0  0  0  0  0  0  0  0  0  0
    4.0534    3.3508   -1.0458 O   0  0  0  0  0  0  0  0  0  0  0  0
    3.9452    1.7138    1.9381 C   0  0  0  0  0  0  0  0  0  0  0  0
    0.8982    2.4071    1.0296 H   0  0  0  0  0  0  0  0  0  0  0  0
    2.9327    3.4013    1.1319 H   0  0  0  0  0  0  0  0  0  0  0  0
    4.1767    0.6713    1.7015 H   0  0  0  0  0  0  0  0  0  0  0  0
    4.8884    2.2660    1.9949 H   0  0  0  0  0  0  0  0  0  0  0  0
    3.4643    1.7492    2.9202 H   0  0  0  0  0  0  0  0  0  0  0  0
    3.8739    1.1156   -1.2017 N   0  0  0  0  0  0  0  0  0  0  0  0
    4.4424    1.0172   -2.5387 C   0  0  0  0  0  0  0  0  0  0  0  0
    3.5073    0.2761   -0.7451 H   0  0  0  0  0  0  0  0  0  0  0  0
    3.8289    1.5710   -3.2567 H   0  0  0  0  0  0  0  0  0  0  0  0
    5.4585    1.4250   -2.5542 H   0  0  0  0  0  0  0  0  0  0  0  0
    4.4855   -0.0296   -2.8540 H   0  0  0  0  0  0  0  0  0  0  0  0
  1  2  2  0  0  0  0
  1  3  1  0  0  0  0
  1  7  1  0  0  0  0
  3  4  1  0  0  0  0
  3  5  1  0  0  0  0
  3  6  1  0  0  0  0
  7  8  1  0  0  0  0
  7 12  1  0  0  0  0
  8  9  1  0  0  0  0
  8 11  1  0  0  0  0
  8 13  1  0  0  0  0
  9 10  2  0  0  0  0
  9 17  1  0  0  0  0
 11 14  1  0  0  0  0
 11 15  1  0  0  0  0
 11 16  1  0  0  0  0
 17 18  1  0  0  0  0
 17 21  1  0  0  0  0
 18 19  1  0  0  0  0
 18 22  1  0  0  0  0
 18 23  1  0  0  0  0
 19 20  2  0  0  0  0
 19 24  1  0  0  0  0
 24 25  1  0  0  0  0
 24 29  1  0  0  0  0
 25 26  1  0  0  0  0
 25 28  1  0  0  0  0
 25 30  1  0  0  0  0
 26 27  2  0  0  0  0
 26 34  1  0  0  0  0
 28 31  1  0  0  0  0
 28 32  1  0  0  0  0
 28 33  1  0  0  0  0
 34 35  1  0  0  0  0
 34 36  1  0  0  0  0
 35 37  1  0  0  0  0
 35 38  1  0  0  0  0
 35 39  1  0  0  0  0
M  END
$$$$

  -OEChem-05262216283D

 39 38  0     1  0  0  0  0  0999 V2000
   -4.9007   -3.1508   -2.2178 C   0  0  0  0  0  0  0  0  0  0  0  0
   -4.4117   -4.2584   -2.0617 O   0  0  0  0  0  0  0  0  0  0  0  0
   -6.3999   -2.9981   -2.3932 C   0  0  0  0  0  0  0  0  0  0  0  0
   -6.6169   -2.5395   -3.3610 H   0  0  0  0  0  0  0  0  0  0  0  0
   -6.8861   -3.9769   -2.3503 H   0  0  0  0  0  0  0  0  0  0  0  0
   -6.8064   -2.3673   -1.5990 H   0  0  0  0  0  0  0  0  0  0  0  0
   -4.0919   -2.0343   -2.2314 N   0  0  0  0  0  0  0  0  0  0  0  0
   -2.6534   -2.0477   -1.9342 C   0  0  2  0  0  0  0  0  0  0  0  0
   -2.1835   -0.7025   -1.3388 C   0  0  0  0  0  0  0  0  0  0  0  0
   -2.9503    0.2535   -1.2835 O   0  0  0  0  0  0  0  0  0  0  0  0
   -1.8942   -2.3626   -3.2280 C   0  0  0  0  0  0  0  0  0  0  0  0
   -4.5502   -1.1234   -2.2351 H   0  0  0  0  0  0  0  0  0  0  0  0
   -2.4390   -2.8241   -1.1915 H   0  0  0  0  0  0  0  0  0  0  0  0
   -2.0911   -1.5952   -3.9834 H   0  0  0  0  0  0  0  0  0  0  0  0
   -0.8164   -2.4032   -3.0439 H   0  0  0  0  0  0  0  0  0  0  0  0
   -2.2100   -3.3321   -3.6263 H   0  0  0  0  0  0  0  0  0  0  0  0
   -0.8981   -0.5518   -0.8555 N   0  0  0  0  0  0  0  0  0  0  0  0
   -0.4557    0.6336   -0.1085 C   0  0  0  0  0  0  0  0  0  0  0  0
    1.0169    0.5298    0.3022 C   0  0  0  0  0  0  0  0  0  0  0  0
    1.4109   -0.4743    0.8811 O   0  0  0  0  0  0  0  0  0  0  0  0
   -0.3284   -1.3933   -0.7751 H   0  0  0  0  0  0  0  0  0  0  0  0
   -1.0595    0.7525    0.7966 H   0  0  0  0  0  0  0  0  0  0  0  0
   -0.5933    1.5286   -0.7231 H   0  0  0  0  0  0  0  0  0  0  0  0
    1.9347    1.4677   -0.1278 N   0  0  0  0  0  0  0  0  0  0  0  0
    3.3598    1.4648    0.2262 C   0  0  2  0  0  0  0  0  0  0  0  0
    3.9329    2.8978    0.2713 C   0  0  0  0  0  0  0  0  0  0  0  0
    3.2779    3.8350   -0.1723 O   0  0  0  0  0  0  0  0  0  0  0  0
    4.1129    0.6143   -0.8018 C   0  0  0  0  0  0  0  0  0  0  0  0
    1.5735    2.3216   -0.5537 H   0  0  0  0  0  0  0  0  0  0  0  0
    3.4905    1.0282    1.2221 H   0  0  0  0  0  0  0  0  0  0  0  0
    4.0009    1.0390   -1.8046 H   0  0  0  0  0  0  0  0  0  0  0  0
    5.1785    0.5688   -0.5582 H   0  0  0  0  0  0  0  0  0  0  0  0
    3.7194   -0.4071   -0.8104 H   0  0  0  0  0  0  0  0  0  0  0  0
    5.1789    3.1404    0.8192 N   0  0  0  0  0  0  0  0  0  0  0  0
    5.7746    4.4690    0.9007 C   0  0  0  0  0  0  0  0  0  0  0  0
    5.6948    2.3456    1.1854 H   0  0  0  0  0  0  0  0  0  0  0  0
    5.8991    4.8957   -0.1001 H   0  0  0  0  0  0  0  0  0  0  0  0
    5.1410    5.1383    1.4924 H   0  0  0  0  0  0  0  0  0  0  0  0
    6.7580    4.4143    1.3776 H   0  0  0  0  0  0  0  0  0  0  0  0
  1  2  2  0  0  0  0
  1  3  1  0  0  0  0
  1  7  1  0  0  0  0
  3  4  1  0  0  0  0
  3  5  1  0  0  0  0
  3  6  1  0  0  0  0
  7  8  1  0  0  0  0
  7 12  1  0  0  0  0
  8  9  1  0  0  0  0
  8 11  1  0  0  0  0
  8 13  1  0  0  0  0
  9 10  2  0  0  0  0
  9 17  1  0  0  0  0
 11 14  1  0  0  0  0
 11 15  1  0  0  0  0
 11 16  1  0  0  0  0
 17 18  1  0  0  0  0
 17 21  1  0  0  0  0
 18 19  1  0  0  0  0
 18 22  1  0  0  0  0
 18 23  1  0  0  0  0
 19 20  2  0  0  0  0
 19 24  1  0  0  0  0
 24 25  1  0  0  0  0
 24 29  1  0  0  0  0
 25 26  1  0  0  0  0
 25 28  1  0  0  0  0
 25 30  1  0  0  0  0
 26 27  2  0  0  0  0
 26 34  1  0  0  0  0
 28 31  1  0  0  0  0
 28 32  1  0  0  0  0
 28 33  1  0  0  0  0
 34 35  1  0  0  0  0
 34 36  1  0  0  0  0
 35 37  1  0  0  0  0
 35 38  1  0  0  0  0
 35 39  1  0  0  0  0
M  END
$$$$

  -OEChem-05262216283D

 39 38  0     1  0  0  0  0  0999 V2000
   -4.8674   -3.1501   -2.2482 C   0  0  0  0  0  0  0  0  0  0  0  0
   -4.3744   -4.2567   -2.0966 O   0  0  0  0  0  0  0  0  0  0  0  0
   -6.3667   -3.0023   -2.4270 C   0  0  0  0  0  0  0  0  0  0  0  0
   -6.5826   -2.5543   -3.4002 H   0  0  0  0  0  0  0  0  0  0  0  0
   -6.8513   -3.9815   -2.3737 H   0  0  0  0  0  0  0  0  0  0  0  0
   -6.7756   -2.3637   -1.6401 H   0  0  0  0  0  0  0  0  0  0  0  0
   -4.0629   -2.0307   -2.2568 N   0  0  0  0  0  0  0  0  0  0  0  0
   -2.6220   -2.0410   -1.9712 C   0  0  2  0  0  0  0  0  0  0  0  0
   -2.1493   -0.6944   -1.3810 C   0  0  0  0  0  0  0  0  0  0  0  0
   -2.9128    0.2647   -1.3335 O   0  0  0  0  0  0  0  0  0  0  0  0
   -1.8719   -2.3566   -3.2701 C   0  0  0  0  0  0  0  0  0  0  0  0
   -4.5237   -1.1211   -2.2605 H   0  0  0  0  0  0  0  0  0  0  0  0
   -2.4018   -2.8164   -1.2295 H   0  0  0  0  0  0  0  0  0  0  0  0
   -2.0674   -1.5853   -4.0217 H   0  0  0  0  0  0  0  0  0  0  0  0
   -0.7938   -2.4050   -3.0908 H   0  0  0  0  0  0  0  0  0  0  0  0
   -2.1952   -3.3226   -3.6709 H   0  0  0  0  0  0  0  0  0  0  0  0
   -0.8684   -0.5467   -0.8860 N   0  0  0  0  0  0  0  0  0  0  0  0
   -0.4181    0.6436   -0.1518 C   0  0  0  0  0  0  0  0  0  0  0  0
    1.0500    0.5333    0.2769 C   0  0  0  0  0  0  0  0  0  0  0  0
    1.4937   -0.5490    0.6414 O   0  0  0  0  0  0  0  0  0  0  0  0
   -0.2893   -1.3833   -0.8158 H   0  0  0  0  0  0  0  0  0  0  0  0
   -1.0305    0.7855    0.7438 H   0  0  0  0  0  0  0  0  0  0  0  0
   -0.5369    1.5282   -0.7850 H   0  0  0  0  0  0  0  0  0  0  0  0
    1.9140    1.5977    0.1110 N   0  0  0  0  0  0  0  0  0  0  0  0
    3.3206    1.6007    0.5342 C   0  0  2  0  0  0  0  0  0  0  0  0
    3.7685    3.0055    0.9905 C   0  0  0  0  0  0  0  0  0  0  0  0
    3.0626    3.9805    0.7555 O   0  0  0  0  0  0  0  0  0  0  0  0
    4.1790    1.1158   -0.6384 C   0  0  0  0  0  0  0  0  0  0  0  0
    1.5054    2.5066   -0.1084 H   0  0  0  0  0  0  0  0  0  0  0  0
    3.4535    0.9224    1.3839 H   0  0  0  0  0  0  0  0  0  0  0  0
    4.0735    1.7899   -1.4947 H   0  0  0  0  0  0  0  0  0  0  0  0
    5.2344    1.0772   -0.3525 H   0  0  0  0  0  0  0  0  0  0  0  0
    3.8692    0.1117   -0.9452 H   0  0  0  0  0  0  0  0  0  0  0  0
    4.9593    3.1783    1.6718 N   0  0  0  0  0  0  0  0  0  0  0  0
    5.4360    4.4774    2.1306 C   0  0  0  0  0  0  0  0  0  0  0  0
    5.5165    2.3514    1.8664 H   0  0  0  0  0  0  0  0  0  0  0  0
    5.5586    5.1611    1.2838 H   0  0  0  0  0  0  0  0  0  0  0  0
    4.7260    4.9171    2.8390 H   0  0  0  0  0  0  0  0  0  0  0  0
    6.4031    4.3714    2.6313 H   0  0  0  0  0  0  0  0  0  0  0  0
  1  2  2  0  0  0  0
  1  3  1  0  0  0  0
  1  7  1  0  0  0  0
  3  4  1  0  0  0  0
  3  5  1  0  0  0  0
  3  6  1  0  0  0  0
  7  8  1  0  0  0  0
  7 12  1  0  0  0  0
  8  9  1  0  0  0  0
  8 11  1  0  0  0  0
  8 13  1  0  0  0  0
  9 10  2  0  0  0  0
  9 17  1  0  0  0  0
 11 14  1  0  0  0  0
 11 15  1  0  0  0  0
 11 16  1  0  0  0  0
 17 18  1  0  0  0  0
 17 21  1  0  0  0  0
 18 19  1  0  0  0  0
 18 22  1  0  0  0  0
 18 23  1  0  0  0  0
 19 20  2  0  0  0  0
 19 24  1  0  0  0  0
 24 25  1  0  0  0  0
 24 29  1  0  0  0  0
 25 26  1  0  0  0  0
 25 28  1  0  0  0  0
 25 30  1  0  0  0  0
 26 27  2  0  0  0  0
 26 34  1  0  0  0  0
 28 31  1  0  0  0  0
 28 32  1  0  0  0  0
 28 33  1  0  0  0  0
 34 35  1  0  0  0  0
 34 36  1  0  0  0  0
 35 37  1  0  0  0  0
 35 38  1  0  0  0  0
 35 39  1  0  0  0  0
M  END
$$$$

  -OEChem-05262216283D

 39 38  0     1  0  0  0  0  0999 V2000
   -4.7913   -3.1519   -2.2777 C   0  0  0  0  0  0  0  0  0  0  0  0
   -4.2581   -4.2447   -2.1689 O   0  0  0  0  0  0  0  0  0  0  0  0
   -6.3019   -3.0486   -2.3714 C   0  0  0  0  0  0  0  0  0  0  0  0
   -6.5845   -2.5512   -3.3024 H   0  0  0  0  0  0  0  0  0  0  0  0
   -6.7495   -4.0465   -2.3549 H   0  0  0  0  0  0  0  0  0  0  0  0
   -6.6900   -2.4744   -1.5264 H   0  0  0  0  0  0  0  0  0  0  0  0
   -4.0219   -2.0083   -2.3050 N   0  0  0  0  0  0  0  0  0  0  0  0
   -2.5730   -1.9796   -2.0671 C   0  0  2  0  0  0  0  0  0  0  0  0
   -2.1311   -0.6519   -1.4169 C   0  0  0  0  0  0  0  0  0  0  0  0
   -2.9006    0.3022   -1.3626 O   0  0  0  0  0  0  0  0  0  0  0  0
   -1.8567   -2.1891   -3.4049 C   0  0  0  0  0  0  0  0  0  0  0  0
   -4.5093   -1.1133   -2.2744 H   0  0  0  0  0  0  0  0  0  0  0  0
   -2.2964   -2.7863   -1.3795 H   0  0  0  0  0  0  0  0  0  0  0  0
   -2.1144   -1.3892   -4.1064 H   0  0  0  0  0  0  0  0  0  0  0  0
   -0.7715   -2.1941   -3.2648 H   0  0  0  0  0  0  0  0  0  0  0  0
   -2.1504   -3.1473   -3.8451 H   0  0  0  0  0  0  0  0  0  0  0  0
   -0.8669   -0.5176   -0.8795 N   0  0  0  0  0  0  0  0  0  0  0  0
   -0.4057    0.6754   -0.1586 C   0  0  0  0  0  0  0  0  0  0  0  0
    1.0449    0.5307    0.3206 C   0  0  0  0  0  0  0  0  0  0  0  0
    1.5169   -0.5851    0.5078 O   0  0  0  0  0  0  0  0  0  0  0  0
   -0.2684   -1.3434   -0.8465 H   0  0  0  0  0  0  0  0  0  0  0  0
   -1.0438    0.8577    0.7115 H   0  0  0  0  0  0  0  0  0  0  0  0
   -0.4749    1.5464   -0.8174 H   0  0  0  0  0  0  0  0  0  0  0  0
    1.8582    1.6391    0.4461 N   0  0  0  0  0  0  0  0  0  0  0  0
    3.2334    1.6096    0.9608 C   0  0  2  0  0  0  0  0  0  0  0  0
    3.6023    2.9389    1.6529 C   0  0  0  0  0  0  0  0  0  0  0  0
    2.8879    3.9250    1.5070 O   0  0  0  0  0  0  0  0  0  0  0  0
    4.1858    1.3292   -0.2065 C   0  0  0  0  0  0  0  0  0  0  0  0
    1.4237    2.5587    0.3622 H   0  0  0  0  0  0  0  0  0  0  0  0
    3.3293    0.8137    1.7073 H   0  0  0  0  0  0  0  0  0  0  0  0
    4.1103    2.1203   -0.9595 H   0  0  0  0  0  0  0  0  0  0  0  0
    5.2207    1.2794    0.1448 H   0  0  0  0  0  0  0  0  0  0  0  0
    3.9374    0.3736   -0.6792 H   0  0  0  0  0  0  0  0  0  0  0  0
    4.7276    3.0291    2.4513 N   0  0  0  0  0  0  0  0  0  0  0  0
    5.1260    4.2540    3.1345 C   0  0  0  0  0  0  0  0  0  0  0  0
    5.2954    2.1941    2.5638 H   0  0  0  0  0  0  0  0  0  0  0  0
    5.3324    5.0474    2.4085 H   0  0  0  0  0  0  0  0  0  0  0  0
    4.3330    4.5926    3.8096 H   0  0  0  0  0  0  0  0  0  0  0  0
    6.0311    4.0813    3.7246 H   0  0  0  0  0  0  0  0  0  0  0  0
  1  2  2  0  0  0  0
  1  3  1  0  0  0  0
  1  7  1  0  0  0  0
  3  4  1  0  0  0  0
  3  5  1  0  0  0  0
  3  6  1  0  0  0  0
  7  8  1  0  0  0  0
  7 12  1  0  0  0  0
  8  9  1  0  0  0  0
  8 11  1  0  0  0  0
  8 13  1  0  0  0  0
  9 10  2  0  0  0  0
  9 17  1  0  0  0  0
 11 14  1  0  0  0  0
 11 15  1  0  0  0  0
 11 16  1  0  0  0  0
 17 18  1  0  0  0  0
 17 21  1  0  0  0  0
 18 19  1  0  0  0  0
 18 22  1  0  0  0  0
 18 23  1  0  0  0  0
 19 20  2  0  0  0  0
 19 24  1  0  0  0  0
 24 25  1  0  0  0  0
 24 29  1  0  0  0  0
 25 26  1  0  0  0  0
 25 28  1  0  0  0  0
 25 30  1  0  0  0  0
 26 27  2  0  0  0  0
 26 34  1  0  0  0  0
 28 31  1  0  0  0  0
 28 32  1  0  0  0  0
 28 33  1  0  0  0  0
 34 35  1  0  0  0  0
 34 36  1  0  0  0  0
 35 37  1  0  0  0  0
 35 38  1  0  0  0  0
 35 39  1  0  0  0  0
M  END
$$$$

  -OEChem-05262216283D

 39 38  0     1  0  0  0  0  0999 V2000
   -4.8434   -3.0191   -2.2156 C   0  0  0  0  0  0  0  0  0  0  0  0
   -4.3959   -4.1344   -2.0011 O   0  0  0  0  0  0  0  0  0  0  0  0
   -6.3368   -2.8159   -2.3853 C   0  0  0  0  0  0  0  0  0  0  0  0
   -6.5455   -2.4056   -3.3763 H   0  0  0  0  0  0  0  0  0  0  0  0
   -6.8617   -3.7694   -2.2802 H   0  0  0  0  0  0  0  0  0  0  0  0
   -6.7083   -2.1239   -1.6256 H   0  0  0  0  0  0  0  0  0  0  0  0
   -3.9932   -1.9375   -2.3001 N   0  0  0  0  0  0  0  0  0  0  0  0
   -2.5550   -1.9879   -2.0083 C   0  0  2  0  0  0  0  0  0  0  0  0
   -2.0412   -0.6361   -1.4682 C   0  0  0  0  0  0  0  0  0  0  0  0
   -2.7606    0.3576   -1.4921 O   0  0  0  0  0  0  0  0  0  0  0  0
   -1.8124   -2.3770   -3.2906 C   0  0  0  0  0  0  0  0  0  0  0  0
   -4.4171   -1.0117   -2.3516 H   0  0  0  0  0  0  0  0  0  0  0  0
   -2.3626   -2.7417   -1.2369 H   0  0  0  0  0  0  0  0  0  0  0  0
   -1.9726   -1.6239   -4.0688 H   0  0  0  0  0  0  0  0  0  0  0  0
   -0.7381   -2.4631   -3.1019 H   0  0  0  0  0  0  0  0  0  0  0  0
   -2.1734   -3.3419   -3.6606 H   0  0  0  0  0  0  0  0  0  0  0  0
   -0.7752   -0.5239   -0.9297 N   0  0  0  0  0  0  0  0  0  0  0  0
   -0.2477    0.7032   -0.3190 C   0  0  0  0  0  0  0  0  0  0  0  0
    1.1888    0.5312    0.1941 C   0  0  0  0  0  0  0  0  0  0  0  0
    1.6784   -0.5893    0.2850 O   0  0  0  0  0  0  0  0  0  0  0  0
   -0.2016   -1.3651   -0.8617 H   0  0  0  0  0  0  0  0  0  0  0  0
   -0.8829    1.0021    0.5203 H   0  0  0  0  0  0  0  0  0  0  0  0
   -0.2592    1.5107   -1.0574 H   0  0  0  0  0  0  0  0  0  0  0  0
    1.9528    1.6363    0.5132 N   0  0  0  0  0  0  0  0  0  0  0  0
    3.2554    1.5715    1.1898 C   0  0  2  0  0  0  0  0  0  0  0  0
    3.3886    2.6824    2.2532 C   0  0  0  0  0  0  0  0  0  0  0  0
    2.5979    3.6199    2.2625 O   0  0  0  0  0  0  0  0  0  0  0  0
    4.3537    1.6941    0.1304 C   0  0  0  0  0  0  0  0  0  0  0  0
    1.4706    2.5346    0.5578 H   0  0  0  0  0  0  0  0  0  0  0  0
    3.3628    0.6130    1.7086 H   0  0  0  0  0  0  0  0  0  0  0  0
    4.2796    2.6544   -0.3898 H   0  0  0  0  0  0  0  0  0  0  0  0
    5.3430    1.6223    0.5919 H   0  0  0  0  0  0  0  0  0  0  0  0
    4.2579    0.8901   -0.6062 H   0  0  0  0  0  0  0  0  0  0  0  0
    4.3757    2.6170    3.2190 N   0  0  0  0  0  0  0  0  0  0  0  0
    4.5068    3.5927    4.2953 C   0  0  0  0  0  0  0  0  0  0  0  0
    4.9863    1.8049    3.2138 H   0  0  0  0  0  0  0  0  0  0  0  0
    3.6165    3.5804    4.9331 H   0  0  0  0  0  0  0  0  0  0  0  0
    5.3785    3.3594    4.9142 H   0  0  0  0  0  0  0  0  0  0  0  0
    4.6343    4.6013    3.8877 H   0  0  0  0  0  0  0  0  0  0  0  0
  1  2  2  0  0  0  0
  1  3  1  0  0  0  0
  1  7  1  0  0  0  0
  3  4  1  0  0  0  0
  3  5  1  0  0  0  0
  3  6  1  0  0  0  0
  7  8  1  0  0  0  0
  7 12  1  0  0  0  0
  8  9  1  0  0  0  0
  8 11  1  0  0  0  0
  8 13  1  0  0  0  0
  9 10  2  0  0  0  0
  9 17  1  0  0  0  0
 11 14  1  0  0  0  0
 11 15  1  0  0  0  0
 11 16  1  0  0  0  0
 17 18  1  0  0  0  0
 17 21  1  0  0  0  0
 18 19  1  0  0  0  0
 18 22  1  0  0  0  0
 18 23  1  0  0  0  0
 19 20  2  0  0  0  0
 19 24  1  0  0  0  0
 24 25  1  0  0  0  0
 24 29  1  0  0  0  0
 25 26  1  0  0  0  0
 25 28  1  0  0  0  0
 25 30  1  0  0  0  0
 26 27  2  0  0  0  0
 26 34  1  0  0  0  0
 28 31  1  0  0  0  0
 28 32  1  0  0  0  0
 28 33  1  0  0  0  0
 34 35  1  0  0  0  0
 34 36  1  0  0  0  0
 35 37  1  0  0  0  0
 35 38  1  0  0  0  0
 35 39  1  0  0  0  0
M  END
$$$$

  -OEChem-05262216283D

 39 38  0     1  0  0  0  0  0999 V2000
   -4.6398   -3.2124   -2.2895 C   0  0  0  0  0  0  0  0  0  0  0  0
   -4.0776   -4.2812   -2.1110 O   0  0  0  0  0  0  0  0  0  0  0  0
   -6.1455   -3.1638   -2.4679 C   0  0  0  0  0  0  0  0  0  0  0  0
   -6.3925   -2.6868   -3.4192 H   0  0  0  0  0  0  0  0  0  0  0  0
   -6.5592   -4.1761   -2.4641 H   0  0  0  0  0  0  0  0  0  0  0  0
   -6.5996   -2.5941   -1.6535 H   0  0  0  0  0  0  0  0  0  0  0  0
   -3.9093   -2.0438   -2.3214 N   0  0  0  0  0  0  0  0  0  0  0  0
   -2.4773   -1.9494   -2.0087 C   0  0  2  0  0  0  0  0  0  0  0  0
   -2.1283   -0.5899   -1.3663 C   0  0  0  0  0  0  0  0  0  0  0  0
   -2.9383    0.3315   -1.3851 O   0  0  0  0  0  0  0  0  0  0  0  0
   -1.6847   -2.1548   -3.3033 C   0  0  0  0  0  0  0  0  0  0  0  0
   -4.4297   -1.1677   -2.3472 H   0  0  0  0  0  0  0  0  0  0  0  0
   -2.2031   -2.7294   -1.2901 H   0  0  0  0  0  0  0  0  0  0  0  0
   -1.9346   -1.3774   -4.0322 H   0  0  0  0  0  0  0  0  0  0  0  0
   -0.6090   -2.1168   -3.1067 H   0  0  0  0  0  0  0  0  0  0  0  0
   -1.9196   -3.1306   -3.7404 H   0  0  0  0  0  0  0  0  0  0  0  0
   -0.9109   -0.3905   -0.7462 N   0  0  0  0  0  0  0  0  0  0  0  0
   -0.4728    0.8966   -0.1891 C   0  0  0  0  0  0  0  0  0  0  0  0
    1.0339    0.9292    0.1031 C   0  0  0  0  0  0  0  0  0  0  0  0
    1.7246   -0.0616   -0.1095 O   0  0  0  0  0  0  0  0  0  0  0  0
   -0.2182   -1.1385   -0.7917 H   0  0  0  0  0  0  0  0  0  0  0  0
   -1.0159    1.0965    0.7392 H   0  0  0  0  0  0  0  0  0  0  0  0
   -0.6997    1.7021   -0.8947 H   0  0  0  0  0  0  0  0  0  0  0  0
    1.6139    2.0657    0.6311 N   0  0  0  0  0  0  0  0  0  0  0  0
    2.9792    2.1238    1.1709 C   0  0  2  0  0  0  0  0  0  0  0  0
    3.0387    2.9891    2.4477 C   0  0  0  0  0  0  0  0  0  0  0  0
    2.0997    3.7248    2.7329 O   0  0  0  0  0  0  0  0  0  0  0  0
    3.9021    2.6899    0.0885 C   0  0  0  0  0  0  0  0  0  0  0  0
    0.9835    2.8100    0.9309 H   0  0  0  0  0  0  0  0  0  0  0  0
    3.3186    1.1187    1.4432 H   0  0  0  0  0  0  0  0  0  0  0  0
    3.5957    3.7053   -0.1833 H   0  0  0  0  0  0  0  0  0  0  0  0
    4.9369    2.7209    0.4431 H   0  0  0  0  0  0  0  0  0  0  0  0
    3.8635    2.0618   -0.8073 H   0  0  0  0  0  0  0  0  0  0  0  0
    4.1337    2.9288    3.2899 N   0  0  0  0  0  0  0  0  0  0  0  0
    4.2304    3.6896    4.5300 C   0  0  0  0  0  0  0  0  0  0  0  0
    4.8843    2.2899    3.0438 H   0  0  0  0  0  0  0  0  0  0  0  0
    4.1834    4.7643    4.3248 H   0  0  0  0  0  0  0  0  0  0  0  0
    3.4120    3.4242    5.2076 H   0  0  0  0  0  0  0  0  0  0  0  0
    5.1782    3.4753    5.0331 H   0  0  0  0  0  0  0  0  0  0  0  0
  1  2  2  0  0  0  0
  1  3  1  0  0  0  0
  1  7  1  0  0  0  0
  3  4  1  0  0  0  0
  3  5  1  0  0  0  0
  3  6  1  0  0  0  0
  7  8  1  0  0  0  0
  7 12  1  0  0  0  0
  8  9  1  0  0  0  0
  8 11  1  0  0  0  0
  8 13  1  0  0  0  0
  9 10  2  0  0  0  0
  9 17  1  0  0  0  0
 11 14  1  0  0  0  0
 11 15  1  0  0  0  0
 11 16  1  0  0  0  0
 17 18  1  0  0  0  0
 17 21  1  0  0  0  0
 18 19  1  0  0  0  0
 18 22  1  0  0  0  0
 18 23  1  0  0  0  0
 19 20  2  0  0  0  0
 19 24  1  0  0  0  0
 24 25  1  0  0  0  0
 24 29  1  0  0  0  0
 25 26  1  0  0  0  0
 25 28  1  0  0  0  0
 25 30  1  0  0  0  0
 26 27  2  0  0  0  0
 26 34  1  0  0  0  0
 28 31  1  0  0  0  0
 28 32  1  0  0  0  0
 28 33  1  0  0  0  0
 34 35  1  0  0  0  0
 34 36  1  0  0  0  0
 35 37  1  0  0  0  0
 35 38  1  0  0  0  0
 35 39  1  0  0  0  0
M  END
$$$$

  -OEChem-05262216283D

 39 38  0     1  0  0  0  0  0999 V2000
   -4.6189   -3.1615   -2.3499 C   0  0  0  0  0  0  0  0  0  0  0  0
   -4.0524   -4.2311   -2.1898 O   0  0  0  0  0  0  0  0  0  0  0  0
   -6.1275   -3.1143   -2.5021 C   0  0  0  0  0  0  0  0  0  0  0  0
   -6.3908   -2.7164   -3.4850 H   0  0  0  0  0  0  0  0  0  0  0  0
   -6.5476   -4.1192   -2.4039 H   0  0  0  0  0  0  0  0  0  0  0  0
   -6.5611   -2.4750   -1.7291 H   0  0  0  0  0  0  0  0  0  0  0  0
   -3.8912   -1.9908   -2.3785 N   0  0  0  0  0  0  0  0  0  0  0  0
   -2.4612   -1.8981   -2.0556 C   0  0  2  0  0  0  0  0  0  0  0  0
   -2.1285   -0.5718   -1.3395 C   0  0  0  0  0  0  0  0  0  0  0  0
   -2.9441    0.3445   -1.3172 O   0  0  0  0  0  0  0  0  0  0  0  0
   -1.6627   -2.0274   -3.3563 C   0  0  0  0  0  0  0  0  0  0  0  0
   -4.4158   -1.1166   -2.3755 H   0  0  0  0  0  0  0  0  0  0  0  0
   -2.1790   -2.7118   -1.3783 H   0  0  0  0  0  0  0  0  0  0  0  0
   -1.9231   -1.2195   -4.0477 H   0  0  0  0  0  0  0  0  0  0  0  0
   -0.5881   -1.9818   -3.1544 H   0  0  0  0  0  0  0  0  0  0  0  0
   -1.8814   -2.9849   -3.8403 H   0  0  0  0  0  0  0  0  0  0  0  0
   -0.9161   -0.4005   -0.7021 N   0  0  0  0  0  0  0  0  0  0  0  0
   -0.4612    0.8762   -0.1353 C   0  0  0  0  0  0  0  0  0  0  0  0
    1.0426    0.8652    0.1739 C   0  0  0  0  0  0  0  0  0  0  0  0
    1.7462   -0.0510   -0.2380 O   0  0  0  0  0  0  0  0  0  0  0  0
   -0.2111   -1.1288   -0.8209 H   0  0  0  0  0  0  0  0  0  0  0  0
   -1.0127    1.0817    0.7869 H   0  0  0  0  0  0  0  0  0  0  0  0
   -0.6609    1.6912   -0.8381 H   0  0  0  0  0  0  0  0  0  0  0  0
    1.5996    1.8361    0.9822 N   0  0  0  0  0  0  0  0  0  0  0  0
    2.9678    1.7870    1.5149 C   0  0  2  0  0  0  0  0  0  0  0  0
    3.0520    2.4478    2.9068 C   0  0  0  0  0  0  0  0  0  0  0  0
    2.1207    3.1317    3.3183 O   0  0  0  0  0  0  0  0  0  0  0  0
    3.9012    2.4900    0.5246 C   0  0  0  0  0  0  0  0  0  0  0  0
    0.9651    2.5003    1.4268 H   0  0  0  0  0  0  0  0  0  0  0  0
    3.2840    0.7448    1.6308 H   0  0  0  0  0  0  0  0  0  0  0  0
    3.6034    3.5351    0.3928 H   0  0  0  0  0  0  0  0  0  0  0  0
    4.9342    2.4647    0.8843 H   0  0  0  0  0  0  0  0  0  0  0  0
    3.8642    1.9914   -0.4492 H   0  0  0  0  0  0  0  0  0  0  0  0
    4.1629    2.2607    3.7087 N   0  0  0  0  0  0  0  0  0  0  0  0
    4.2967    2.8460    5.0373 C   0  0  0  0  0  0  0  0  0  0  0  0
    4.9118    1.6750    3.3504 H   0  0  0  0  0  0  0  0  0  0  0  0
    4.3079    3.9392    4.9741 H   0  0  0  0  0  0  0  0  0  0  0  0
    3.4633    2.5385    5.6780 H   0  0  0  0  0  0  0  0  0  0  0  0
    5.2299    2.5164    5.5043 H   0  0  0  0  0  0  0  0  0  0  0  0
  1  2  2  0  0  0  0
  1  3  1  0  0  0  0
  1  7  1  0  0  0  0
  3  4  1  0  0  0  0
  3  5  1  0  0  0  0
  3  6  1  0  0  0  0
  7  8  1  0  0  0  0
  7 12  1  0  0  0  0
  8  9  1  0  0  0  0
  8 11  1  0  0  0  0
  8 13  1  0  0  0  0
  9 10  2  0  0  0  0
  9 17  1  0  0  0  0
 11 14  1  0  0  0  0
 11 15  1  0  0  0  0
 11 16  1  0  0  0  0
 17 18  1  0  0  0  0
 17 21  1  0  0  0  0
 18 19  1  0  0  0  0
 18 22  1  0  0  0  0
 18 23  1  0  0  0  0
 19 20  2  0  0  0  0
 19 24  1  0  0  0  0
 24 25  1  0  0  0  0
 24 29  1  0  0  0  0
 25 26  1  0  0  0  0
 25 28  1  0  0  0  0
 25 30  1  0  0  0  0
 26 27  2  0  0  0  0
 26 34  1  0  0  0  0
 28 31  1  0  0  0  0
 28 32  1  0  0  0  0
 28 33  1  0  0  0  0
 34 35  1  0  0  0  0
 34 36  1  0  0  0  0
 35 37  1  0  0  0  0
 35 38  1  0  0  0  0
 35 39  1  0  0  0  0
M  END
$$$$

  -OEChem-05262216283D

 39 38  0     1  0  0  0  0  0999 V2000
   -4.6147   -3.1048   -2.3097 C   0  0  0  0  0  0  0  0  0  0  0  0
   -4.0524   -4.1775   -2.1548 O   0  0  0  0  0  0  0  0  0  0  0  0
   -6.1255   -3.0501   -2.4367 C   0  0  0  0  0  0  0  0  0  0  0  0
   -6.4036   -2.6468   -3.4135 H   0  0  0  0  0  0  0  0  0  0  0  0
   -6.5486   -4.0536   -2.3357 H   0  0  0  0  0  0  0  0  0  0  0  0
   -6.5429   -2.4119   -1.6539 H   0  0  0  0  0  0  0  0  0  0  0  0
   -3.8806   -1.9387   -2.3546 N   0  0  0  0  0  0  0  0  0  0  0  0
   -2.4450   -1.8569   -2.0558 C   0  0  2  0  0  0  0  0  0  0  0  0
   -2.0870   -0.5361   -1.3425 C   0  0  0  0  0  0  0  0  0  0  0  0
   -2.8886    0.3922   -1.3097 O   0  0  0  0  0  0  0  0  0  0  0  0
   -1.6698   -1.9932   -3.3696 C   0  0  0  0  0  0  0  0  0  0  0  0
   -4.3994   -1.0611   -2.3489 H   0  0  0  0  0  0  0  0  0  0  0  0
   -2.1590   -2.6741   -1.3846 H   0  0  0  0  0  0  0  0  0  0  0  0
   -1.9274   -1.1781   -4.0534 H   0  0  0  0  0  0  0  0  0  0  0  0
   -0.5917   -1.9667   -3.1848 H   0  0  0  0  0  0  0  0  0  0  0  0
   -1.9121   -2.9446   -3.8542 H   0  0  0  0  0  0  0  0  0  0  0  0
   -0.8669   -0.3872   -0.7142 N   0  0  0  0  0  0  0  0  0  0  0  0
   -0.3805    0.8901   -0.1760 C   0  0  0  0  0  0  0  0  0  0  0  0
    1.1236    0.8468    0.1269 C   0  0  0  0  0  0  0  0  0  0  0  0
    1.8371    0.0325   -0.4486 O   0  0  0  0  0  0  0  0  0  0  0  0
   -0.1686   -1.1140   -0.8722 H   0  0  0  0  0  0  0  0  0  0  0  0
   -0.9246    1.1256    0.7435 H   0  0  0  0  0  0  0  0  0  0  0  0
   -0.5619    1.6969   -0.8930 H   0  0  0  0  0  0  0  0  0  0  0  0
    1.6577    1.6169    1.1412 N   0  0  0  0  0  0  0  0  0  0  0  0
    3.0129    1.4513    1.6843 C   0  0  2  0  0  0  0  0  0  0  0  0
    3.0646    1.8091    3.1853 C   0  0  0  0  0  0  0  0  0  0  0  0
    2.1194    2.3891    3.7093 O   0  0  0  0  0  0  0  0  0  0  0  0
    3.9710    2.3367    0.8813 C   0  0  0  0  0  0  0  0  0  0  0  0
    1.0097    2.1673    1.7058 H   0  0  0  0  0  0  0  0  0  0  0  0
    3.3239    0.4055    1.5886 H   0  0  0  0  0  0  0  0  0  0  0  0
    3.6907    3.3904    0.9785 H   0  0  0  0  0  0  0  0  0  0  0  0
    4.9983    2.2147    1.2376 H   0  0  0  0  0  0  0  0  0  0  0  0
    3.9405    2.0640   -0.1785 H   0  0  0  0  0  0  0  0  0  0  0  0
    4.1579    1.4597    3.9569 N   0  0  0  0  0  0  0  0  0  0  0  0
    4.2482    1.7345    5.3866 C   0  0  0  0  0  0  0  0  0  0  0  0
    4.9176    0.9620    3.5013 H   0  0  0  0  0  0  0  0  0  0  0  0
    4.2066    2.8129    5.5731 H   0  0  0  0  0  0  0  0  0  0  0  0
    3.4239    1.2524    5.9230 H   0  0  0  0  0  0  0  0  0  0  0  0
    5.1912    1.3511    5.7878 H   0  0  0  0  0  0  0  0  0  0  0  0
  1  2  2  0  0  0  0
  1  3  1  0  0  0  0
  1  7  1  0  0  0  0
  3  4  1  0  0  0  0
  3  5  1  0  0  0  0
  3  6  1  0  0  0  0
  7  8  1  0  0  0  0
  7 12  1  0  0  0  0
  8  9  1  0  0  0  0
  8 11  1  0  0  0  0
  8 13  1  0  0  0  0
  9 10  2  0  0  0  0
  9 17  1  0  0  0  0
 11 14  1  0  0  0  0
 11 15  1  0  0  0  0
 11 16  1  0  0  0  0
 17 18  1  0  0  0  0
 17 21  1  0  0  0  0
 18 19  1  0  0  0  0
 18 22  1  0  0  0  0
 18 23  1  0  0  0  0
 19 20  2  0  0  0  0
 19 24  1  0  0  0  0
 24 25  1  0  0  0  0
 24 29  1  0  0  0  0
 25 26  1  0  0  0  0
 25 28  1  0  0  0  0
 25 30  1  0  0  0  0
 26 27  2  0  0  0  0
 26 34  1  0  0  0  0
 28 31  1  0  0  0  0
 28 32  1  0  0  0  0
 28 33  1  0  0  0  0
 34 35  1  0  0  0  0
 34 36  1  0  0  0  0
 35 37  1  0  0  0  0
 35 38  1  0  0  0  0
 35 39  1  0  0  0  0
M  END
$$$$

  -OEChem-05262216283D

 39 38  0     1  0  0  0  0  0999 V2000
   -4.5753   -3.0926   -2.2458 C   0  0  0  0  0  0  0  0  0  0  0  0
   -3.9971   -4.1630   -2.1444 O   0  0  0  0  0  0  0  0  0  0  0  0
   -6.0907   -3.0457   -2.2943 C   0  0  0  0  0  0  0  0  0  0  0  0
   -6.4193   -2.5802   -3.2264 H   0  0  0  0  0  0  0  0  0  0  0  0
   -6.5018   -4.0577   -2.2424 H   0  0  0  0  0  0  0  0  0  0  0  0
   -6.4732   -2.4658   -1.4507 H   0  0  0  0  0  0  0  0  0  0  0  0
   -3.8540   -1.9196   -2.3042 N   0  0  0  0  0  0  0  0  0  0  0  0
   -2.4052   -1.8270   -2.0847 C   0  0  2  0  0  0  0  0  0  0  0  0
   -2.0293   -0.5185   -1.3590 C   0  0  0  0  0  0  0  0  0  0  0  0
   -2.8233    0.4156   -1.3111 O   0  0  0  0  0  0  0  0  0  0  0  0
   -1.7056   -1.9138   -3.4440 C   0  0  0  0  0  0  0  0  0  0  0  0
   -4.3789   -1.0470   -2.2569 H   0  0  0  0  0  0  0  0  0  0  0  0
   -2.0699   -2.6569   -1.4532 H   0  0  0  0  0  0  0  0  0  0  0  0
   -2.0202   -1.0874   -4.0891 H   0  0  0  0  0  0  0  0  0  0  0  0
   -0.6190   -1.8679   -3.3226 H   0  0  0  0  0  0  0  0  0  0  0  0
   -1.9567   -2.8576   -3.9388 H   0  0  0  0  0  0  0  0  0  0  0  0
   -0.8047   -0.3874   -0.7357 N   0  0  0  0  0  0  0  0  0  0  0  0
   -0.3003    0.8945   -0.2256 C   0  0  0  0  0  0  0  0  0  0  0  0
    1.2016    0.8335    0.0776 C   0  0  0  0  0  0  0  0  0  0  0  0
    1.9359    0.1671   -0.6422 O   0  0  0  0  0  0  0  0  0  0  0  0
   -0.1111   -1.1098   -0.9283 H   0  0  0  0  0  0  0  0  0  0  0  0
   -0.8438    1.1616    0.6855 H   0  0  0  0  0  0  0  0  0  0  0  0
   -0.4669    1.6872   -0.9617 H   0  0  0  0  0  0  0  0  0  0  0  0
    1.7037    1.3643    1.2494 N   0  0  0  0  0  0  0  0  0  0  0  0
    3.0566    1.1126    1.7633 C   0  0  2  0  0  0  0  0  0  0  0  0
    3.0788    1.1094    3.3065 C   0  0  0  0  0  0  0  0  0  0  0  0
    2.1179    1.5412    3.9344 O   0  0  0  0  0  0  0  0  0  0  0  0
    3.9948    2.1892    1.2090 C   0  0  0  0  0  0  0  0  0  0  0  0
    1.0344    1.7539    1.9140 H   0  0  0  0  0  0  0  0  0  0  0  0
    3.4025    0.1279    1.4316 H   0  0  0  0  0  0  0  0  0  0  0  0
    3.6734    3.1833    1.5362 H   0  0  0  0  0  0  0  0  0  0  0  0
    5.0193    2.0224    1.5552 H   0  0  0  0  0  0  0  0  0  0  0  0
    3.9937    2.1652    0.1144 H   0  0  0  0  0  0  0  0  0  0  0  0
    4.1652    0.6002    3.9935 N   0  0  0  0  0  0  0  0  0  0  0  0
    4.2338    0.5419    5.4486 C   0  0  0  0  0  0  0  0  0  0  0  0
    4.9350    0.2232    3.4480 H   0  0  0  0  0  0  0  0  0  0  0  0
    4.1780    1.5490    5.8751 H   0  0  0  0  0  0  0  0  0  0  0  0
    3.4079   -0.0562    5.8481 H   0  0  0  0  0  0  0  0  0  0  0  0
    5.1759    0.0842    5.7650 H   0  0  0  0  0  0  0  0  0  0  0  0
  1  2  2  0  0  0  0
  1  3  1  0  0  0  0
  1  7  1  0  0  0  0
  3  4  1  0  0  0  0
  3  5  1  0  0  0  0
  3  6  1  0  0  0  0
  7  8  1  0  0  0  0
  7 12  1  0  0  0  0
  8  9  1  0  0  0  0
  8 11  1  0  0  0  0
  8 13  1  0  0  0  0
  9 10  2  0  0  0  0
  9 17  1  0  0  0  0
 11 14  1  0  0  0  0
 11 15  1  0  0  0  0
 11 16  1  0  0  0  0
 17 18  1  0  0  0  0
 17 21  1  0  0  0  0
 18 19  1  0  0  0  0
 18 22  1  0  0  0  0
 18 23  1  0  0  0  0
 19 20  2  0  0  0  0
 19 24  1  0  0  0  0
 24 25  1  0  0  0  0
 24 29  1  0  0  0  0
 25 26  1  0  0  0  0
 25 28  1  0  0  0  0
 25 30  1  0  0  0  0
 26 27  2  0  0  0  0
 26 34  1  0  0  0  0
 28 31  1  0  0  0  0
 28 32  1  0  0  0  0
 28 33  1  0  0  0  0
 34 35  1  0  0  0  0
 34 36  1  0  0  0  0
 35 37  1  0  0  0  0
 35 38  1  0  0  0  0
 35 39  1  0  0  0  0
M  END
$$$$

  -OEChem-05262216283D

 39 38  0     1  0  0  0  0  0999 V2000
   -4.5621   -3.0888   -2.2677 C   0  0  0  0  0  0  0  0  0  0  0  0
   -3.9802   -4.1591   -2.1880 O   0  0  0  0  0  0  0  0  0  0  0  0
   -6.0769   -3.0488   -2.3368 C   0  0  0  0  0  0  0  0  0  0  0  0
   -6.3954   -2.6108   -3.2856 H   0  0  0  0  0  0  0  0  0  0  0  0
   -6.4845   -4.0608   -2.2607 H   0  0  0  0  0  0  0  0  0  0  0  0
   -6.4723   -2.4469   -1.5149 H   0  0  0  0  0  0  0  0  0  0  0  0
   -3.8442   -1.9122   -2.2836 N   0  0  0  0  0  0  0  0  0  0  0  0
   -2.3969   -1.8231   -2.0524 C   0  0  2  0  0  0  0  0  0  0  0  0
   -2.0234   -0.5253   -1.3066 C   0  0  0  0  0  0  0  0  0  0  0  0
   -2.8279    0.3973   -1.2239 O   0  0  0  0  0  0  0  0  0  0  0  0
   -1.6862   -1.8907   -3.4071 C   0  0  0  0  0  0  0  0  0  0  0  0
   -4.3715   -1.0422   -2.2174 H   0  0  0  0  0  0  0  0  0  0  0  0
   -2.0672   -2.6628   -1.4307 H   0  0  0  0  0  0  0  0  0  0  0  0
   -1.9903   -1.0521   -4.0418 H   0  0  0  0  0  0  0  0  0  0  0  0
   -0.6005   -1.8526   -3.2757 H   0  0  0  0  0  0  0  0  0  0  0  0
   -1.9380   -2.8251   -3.9189 H   0  0  0  0  0  0  0  0  0  0  0  0
   -0.7853   -0.3900   -0.7106 N   0  0  0  0  0  0  0  0  0  0  0  0
   -0.2845    0.8949   -0.2034 C   0  0  0  0  0  0  0  0  0  0  0  0
    1.2233    0.8476    0.0649 C   0  0  0  0  0  0  0  0  0  0  0  0
    1.9742    0.4182   -0.8017 O   0  0  0  0  0  0  0  0  0  0  0  0
   -0.0901   -1.0986   -0.9410 H   0  0  0  0  0  0  0  0  0  0  0  0
   -0.8117    1.1555    0.7189 H   0  0  0  0  0  0  0  0  0  0  0  0
   -0.4739    1.6891   -0.9325 H   0  0  0  0  0  0  0  0  0  0  0  0
    1.7186    1.0845    1.3321 N   0  0  0  0  0  0  0  0  0  0  0  0
    3.0914    0.7821    1.7580 C   0  0  2  0  0  0  0  0  0  0  0  0
    3.1450    0.4041    3.2535 C   0  0  0  0  0  0  0  0  0  0  0  0
    2.1799    0.6277    3.9765 O   0  0  0  0  0  0  0  0  0  0  0  0
    3.9683    2.0064    1.4761 C   0  0  0  0  0  0  0  0  0  0  0  0
    1.0423    1.2562    2.0769 H   0  0  0  0  0  0  0  0  0  0  0  0
    3.4738   -0.0741    1.1923 H   0  0  0  0  0  0  0  0  0  0  0  0
    3.6186    2.8695    2.0520 H   0  0  0  0  0  0  0  0  0  0  0  0
    5.0088    1.8043    1.7470 H   0  0  0  0  0  0  0  0  0  0  0  0
    3.9342    2.2610    0.4118 H   0  0  0  0  0  0  0  0  0  0  0  0
    4.2648   -0.2078    3.7859 N   0  0  0  0  0  0  0  0  0  0  0  0
    4.3707   -0.6055    5.1846 C   0  0  0  0  0  0  0  0  0  0  0  0
    5.0423   -0.3966    3.1599 H   0  0  0  0  0  0  0  0  0  0  0  0
    4.3122    0.2717    5.8373 H   0  0  0  0  0  0  0  0  0  0  0  0
    3.5634   -1.2967    5.4488 H   0  0  0  0  0  0  0  0  0  0  0  0
    5.3263   -1.1069    5.3649 H   0  0  0  0  0  0  0  0  0  0  0  0
  1  2  2  0  0  0  0
  1  3  1  0  0  0  0
  1  7  1  0  0  0  0
  3  4  1  0  0  0  0
  3  5  1  0  0  0  0
  3  6  1  0  0  0  0
  7  8  1  0  0  0  0
  7 12  1  0  0  0  0
  8  9  1  0  0  0  0
  8 11  1  0  0  0  0
  8 13  1  0  0  0  0
  9 10  2  0  0  0  0
  9 17  1  0  0  0  0
 11 14  1  0  0  0  0
 11 15  1  0  0  0  0
 11 16  1  0  0  0  0
 17 18  1  0  0  0  0
 17 21  1  0  0  0  0
 18 19  1  0  0  0  0
 18 22  1  0  0  0  0
 18 23  1  0  0  0  0
 19 20  2  0  0  0  0
 19 24  1  0  0  0  0
 24 25  1  0  0  0  0
 24 29  1  0  0  0  0
 25 26  1  0  0  0  0
 25 28  1  0  0  0  0
 25 30  1  0  0  0  0
 26 27  2  0  0  0  0
 26 34  1  0  0  0  0
 28 31  1  0  0  0  0
 28 32  1  0  0  0  0
 28 33  1  0  0  0  0
 34 35  1  0  0  0  0
 34 36  1  0  0  0  0
 35 37  1  0  0  0  0
 35 38  1  0  0  0  0
 35 39  1  0  0  0  0
M  END
$$$$

  -OEChem-05262216283D

 39 38  0     1  0  0  0  0  0999 V2000
   -4.5065   -3.1207   -2.2574 C   0  0  0  0  0  0  0  0  0  0  0  0
   -3.8923   -4.1752   -2.2175 O   0  0  0  0  0  0  0  0  0  0  0  0
   -6.0233   -3.1227   -2.2711 C   0  0  0  0  0  0  0  0  0  0  0  0
   -6.3867   -2.7064   -3.2137 H   0  0  0  0  0  0  0  0  0  0  0  0
   -6.4012   -4.1437   -2.1665 H   0  0  0  0  0  0  0  0  0  0  0  0
   -6.4044   -2.5205   -1.4427 H   0  0  0  0  0  0  0  0  0  0  0  0
   -3.8238   -1.9233   -2.2811 N   0  0  0  0  0  0  0  0  0  0  0  0
   -2.3725   -1.7947   -2.0995 C   0  0  2  0  0  0  0  0  0  0  0  0
   -2.0102   -0.5165   -1.3155 C   0  0  0  0  0  0  0  0  0  0  0  0
   -2.8291    0.3882   -1.1914 O   0  0  0  0  0  0  0  0  0  0  0  0
   -1.7139   -1.7830   -3.4816 C   0  0  0  0  0  0  0  0  0  0  0  0
   -4.3739   -1.0704   -2.1841 H   0  0  0  0  0  0  0  0  0  0  0  0
   -1.9917   -2.6471   -1.5263 H   0  0  0  0  0  0  0  0  0  0  0  0
   -2.0707   -0.9308   -4.0689 H   0  0  0  0  0  0  0  0  0  0  0  0
   -0.6259   -1.7115   -3.3889 H   0  0  0  0  0  0  0  0  0  0  0  0
   -1.9538   -2.7041   -4.0224 H   0  0  0  0  0  0  0  0  0  0  0  0
   -0.7667   -0.3815   -0.7296 N   0  0  0  0  0  0  0  0  0  0  0  0
   -0.2763    0.8994   -0.2014 C   0  0  0  0  0  0  0  0  0  0  0  0
    1.2339    0.8658    0.0513 C   0  0  0  0  0  0  0  0  0  0  0  0
    2.0004    0.7295   -0.8924 O   0  0  0  0  0  0  0  0  0  0  0  0
   -0.0686   -1.0760   -0.9893 H   0  0  0  0  0  0  0  0  0  0  0  0
   -0.7966    1.1401    0.7303 H   0  0  0  0  0  0  0  0  0  0  0  0
   -0.4828    1.7043   -0.9144 H   0  0  0  0  0  0  0  0  0  0  0  0
    1.7238    0.7735    1.3392 N   0  0  0  0  0  0  0  0  0  0  0  0
    3.1152    0.4500    1.6810 C   0  0  2  0  0  0  0  0  0  0  0  0
    3.2058   -0.2911    3.0323 C   0  0  0  0  0  0  0  0  0  0  0  0
    2.2237   -0.3550    3.7640 O   0  0  0  0  0  0  0  0  0  0  0  0
    3.9187    1.7530    1.7221 C   0  0  0  0  0  0  0  0  0  0  0  0
    1.0432    0.6988    2.0961 H   0  0  0  0  0  0  0  0  0  0  0  0
    3.5395   -0.2111    0.9179 H   0  0  0  0  0  0  0  0  0  0  0  0
    3.5196    2.4244    2.4891 H   0  0  0  0  0  0  0  0  0  0  0  0
    4.9700    1.5505    1.9472 H   0  0  0  0  0  0  0  0  0  0  0  0
    3.8668    2.2598    0.7533 H   0  0  0  0  0  0  0  0  0  0  0  0
    4.3812   -0.9084    3.4194 N   0  0  0  0  0  0  0  0  0  0  0  0
    4.5241   -1.6482    4.6679 C   0  0  0  0  0  0  0  0  0  0  0  0
    5.1727   -0.8575    2.7844 H   0  0  0  0  0  0  0  0  0  0  0  0
    4.3148   -0.9990    5.5248 H   0  0  0  0  0  0  0  0  0  0  0  0
    3.8328   -2.4974    4.6919 H   0  0  0  0  0  0  0  0  0  0  0  0
    5.5448   -2.0306    4.7658 H   0  0  0  0  0  0  0  0  0  0  0  0
  1  2  2  0  0  0  0
  1  3  1  0  0  0  0
  1  7  1  0  0  0  0
  3  4  1  0  0  0  0
  3  5  1  0  0  0  0
  3  6  1  0  0  0  0
  7  8  1  0  0  0  0
  7 12  1  0  0  0  0
  8  9  1  0  0  0  0
  8 11  1  0  0  0  0
  8 13  1  0  0  0  0
  9 10  2  0  0  0  0
  9 17  1  0  0  0  0
 11 14  1  0  0  0  0
 11 15  1  0  0  0  0
 11 16  1  0  0  0  0
 17 18  1  0  0  0  0
 17 21  1  0  0  0  0
 18 19  1  0  0  0  0
 18 22  1  0  0  0  0
 18 23  1  0  0  0  0
 19 20  2  0  0  0  0
 19 24  1  0  0  0  0
 24 25  1  0  0  0  0
 24 29  1  0  0  0  0
 25 26  1  0  0  0  0
 25 28  1  0  0  0  0
 25 30  1  0  0  0  0
 26 27  2  0  0  0  0
 26 34  1  0  0  0  0
 28 31  1  0  0  0  0
 28 32  1  0  0  0  0
 28 33  1  0  0  0  0
 34 35  1  0  0  0  0
 34 36  1  0  0  0  0
 35 37  1  0  0  0  0
 35 38  1  0  0  0  0
 35 39  1  0  0  0  0
M  END
$$$$

  -OEChem-05262216283D

 39 38  0     1  0  0  0  0  0999 V2000
   -4.5140   -3.1064   -2.2583 C   0  0  0  0  0  0  0  0  0  0  0  0
   -3.9101   -4.1663   -2.2085 O   0  0  0  0  0  0  0  0  0  0  0  0
   -6.0309   -3.0949   -2.2763 C   0  0  0  0  0  0  0  0  0  0  0  0
   -6.3888   -2.7384   -3.2452 H   0  0  0  0  0  0  0  0  0  0  0  0
   -6.4164   -4.1040   -2.1060 H   0  0  0  0  0  0  0  0  0  0  0  0
   -6.4104   -2.4371   -1.4904 H   0  0  0  0  0  0  0  0  0  0  0  0
   -3.8189   -1.9162   -2.2892 N   0  0  0  0  0  0  0  0  0  0  0  0
   -2.3668   -1.8001   -2.1043 C   0  0  2  0  0  0  0  0  0  0  0  0
   -1.9953   -0.5148   -1.3348 C   0  0  0  0  0  0  0  0  0  0  0  0
   -2.8069    0.3984   -1.2258 O   0  0  0  0  0  0  0  0  0  0  0  0
   -1.7052   -1.8141   -3.4855 C   0  0  0  0  0  0  0  0  0  0  0  0
   -4.3605   -1.0565   -2.2053 H   0  0  0  0  0  0  0  0  0  0  0  0
   -1.9966   -2.6490   -1.5190 H   0  0  0  0  0  0  0  0  0  0  0  0
   -2.0489   -0.9635   -4.0833 H   0  0  0  0  0  0  0  0  0  0  0  0
   -0.6164   -1.7576   -3.3916 H   0  0  0  0  0  0  0  0  0  0  0  0
   -1.9579   -2.7379   -4.0163 H   0  0  0  0  0  0  0  0  0  0  0  0
   -0.7501   -0.3786   -0.7509 N   0  0  0  0  0  0  0  0  0  0  0  0
   -0.2569    0.9055   -0.2289 C   0  0  0  0  0  0  0  0  0  0  0  0
    1.2532    0.8836    0.0255 C   0  0  0  0  0  0  0  0  0  0  0  0
    2.0297    1.0621   -0.9019 O   0  0  0  0  0  0  0  0  0  0  0  0
   -0.0643   -1.0978   -0.9711 H   0  0  0  0  0  0  0  0  0  0  0  0
   -0.7753    1.1509    0.7028 H   0  0  0  0  0  0  0  0  0  0  0  0
   -0.4668    1.7068   -0.9456 H   0  0  0  0  0  0  0  0  0  0  0  0
    1.7450    0.4957    1.2563 N   0  0  0  0  0  0  0  0  0  0  0  0
    3.1544    0.1839    1.5291 C   0  0  2  0  0  0  0  0  0  0  0  0
    3.2888   -0.8995    2.6204 C   0  0  0  0  0  0  0  0  0  0  0  0
    2.3064   -1.2407    3.2706 O   0  0  0  0  0  0  0  0  0  0  0  0
    3.8658    1.4723    1.9545 C   0  0  0  0  0  0  0  0  0  0  0  0
    1.0681    0.1819    1.9529 H   0  0  0  0  0  0  0  0  0  0  0  0
    3.6287   -0.2073    0.6226 H   0  0  0  0  0  0  0  0  0  0  0  0
    3.4166    1.8735    2.8688 H   0  0  0  0  0  0  0  0  0  0  0  0
    4.9269    1.2819    2.1415 H   0  0  0  0  0  0  0  0  0  0  0  0
    3.7865    2.2277    1.1661 H   0  0  0  0  0  0  0  0  0  0  0  0
    4.5060   -1.5100    2.8604 N   0  0  0  0  0  0  0  0  0  0  0  0
    4.6981   -2.5401    3.8744 C   0  0  0  0  0  0  0  0  0  0  0  0
    5.3005   -1.2166    2.2993 H   0  0  0  0  0  0  0  0  0  0  0  0
    4.4729   -2.1434    4.8701 H   0  0  0  0  0  0  0  0  0  0  0  0
    4.0446   -3.3973    3.6804 H   0  0  0  0  0  0  0  0  0  0  0  0
    5.7352   -2.8891    3.8677 H   0  0  0  0  0  0  0  0  0  0  0  0
  1  2  2  0  0  0  0
  1  3  1  0  0  0  0
  1  7  1  0  0  0  0
  3  4  1  0  0  0  0
  3  5  1  0  0  0  0
  3  6  1  0  0  0  0
  7  8  1  0  0  0  0
  7 12  1  0  0  0  0
  8  9  1  0  0  0  0
  8 11  1  0  0  0  0
  8 13  1  0  0  0  0
  9 10  2  0  0  0  0
  9 17  1  0  0  0  0
 11 14  1  0  0  0  0
 11 15  1  0  0  0  0
 11 16  1  0  0  0  0
 17 18  1  0  0  0  0
 17 21  1  0  0  0  0
 18 19  1  0  0  0  0
 18 22  1  0  0  0  0
 18 23  1  0  0  0  0
 19 20  2  0  0  0  0
 19 24  1  0  0  0  0
 24 25  1  0  0  0  0
 24 29  1  0  0  0  0
 25 26  1  0  0  0  0
 25 28  1  0  0  0  0
 25 30  1  0  0  0  0
 26 27  2  0  0  0  0
 26 34  1  0  0  0  0
 28 31  1  0  0  0  0
 28 32  1  0  0  0  0
 28 33  1  0  0  0  0
 34 35  1  0  0  0  0
 34 36  1  0  0  0  0
 35 37  1  0  0  0  0
 35 38  1  0  0  0  0
 35 39  1  0  0  0  0
M  END
$$$$

  -OEChem-05262216283D

 39 38  0     1  0  0  0  0  0999 V2000
   -4.5034   -3.1065   -2.2277 C   0  0  0  0  0  0  0  0  0  0  0  0
   -3.9283   -4.1749   -2.0943 O   0  0  0  0  0  0  0  0  0  0  0  0
   -6.0166   -3.0622   -2.3230 C   0  0  0  0  0  0  0  0  0  0  0  0
   -6.3179   -2.6738   -3.2987 H   0  0  0  0  0  0  0  0  0  0  0  0
   -6.4316   -4.0663   -2.1995 H   0  0  0  0  0  0  0  0  0  0  0  0
   -6.4210   -2.4158   -1.5404 H   0  0  0  0  0  0  0  0  0  0  0  0
   -3.7791   -1.9346   -2.2763 N   0  0  0  0  0  0  0  0  0  0  0  0
   -2.3362   -1.8431   -2.0179 C   0  0  2  0  0  0  0  0  0  0  0  0
   -1.9660   -0.5055   -1.3432 C   0  0  0  0  0  0  0  0  0  0  0  0
   -2.7737    0.4167   -1.3123 O   0  0  0  0  0  0  0  0  0  0  0  0
   -1.5940   -1.9984   -3.3493 C   0  0  0  0  0  0  0  0  0  0  0  0
   -4.3033   -1.0603   -2.2566 H   0  0  0  0  0  0  0  0  0  0  0  0
   -2.0305   -2.6463   -1.3387 H   0  0  0  0  0  0  0  0  0  0  0  0
   -1.8716   -1.1941   -4.0383 H   0  0  0  0  0  0  0  0  0  0  0  0
   -0.5113   -1.9661   -3.1937 H   0  0  0  0  0  0  0  0  0  0  0  0
   -1.8454   -2.9573   -3.8140 H   0  0  0  0  0  0  0  0  0  0  0  0
   -0.7280   -0.3311   -0.7538 N   0  0  0  0  0  0  0  0  0  0  0  0
   -0.2452    0.9814   -0.2949 C   0  0  0  0  0  0  0  0  0  0  0  0
    1.2612    0.9821   -0.0231 C   0  0  0  0  0  0  0  0  0  0  0  0
    2.0394    1.4390   -0.8472 O   0  0  0  0  0  0  0  0  0  0  0  0
   -0.0500   -1.0795   -0.8816 H   0  0  0  0  0  0  0  0  0  0  0  0
   -0.7715    1.2728    0.6189 H   0  0  0  0  0  0  0  0  0  0  0  0
   -0.4544    1.7423   -1.0547 H   0  0  0  0  0  0  0  0  0  0  0  0
    1.7476    0.3713    1.1152 N   0  0  0  0  0  0  0  0  0  0  0  0
    3.1647    0.0620    1.3488 C   0  0  2  0  0  0  0  0  0  0  0  0
    3.3384   -1.3429    1.9648 C   0  0  0  0  0  0  0  0  0  0  0  0
    2.3544   -1.9757    2.3338 O   0  0  0  0  0  0  0  0  0  0  0  0
    3.7392    1.1433    2.2674 C   0  0  0  0  0  0  0  0  0  0  0  0
    1.0742   -0.1545    1.6731 H   0  0  0  0  0  0  0  0  0  0  0  0
    3.7149    0.0681    0.4018 H   0  0  0  0  0  0  0  0  0  0  0  0
    3.2198    1.1440    3.2310 H   0  0  0  0  0  0  0  0  0  0  0  0
    4.8050    0.9723    2.4451 H   0  0  0  0  0  0  0  0  0  0  0  0
    3.6210    2.1293    1.8066 H   0  0  0  0  0  0  0  0  0  0  0  0
    4.5928   -1.9128    2.0826 N   0  0  0  0  0  0  0  0  0  0  0  0
    4.8187   -3.2397    2.6444 C   0  0  0  0  0  0  0  0  0  0  0  0
    5.3903   -1.3716    1.7611 H   0  0  0  0  0  0  0  0  0  0  0  0
    4.4824   -3.2765    3.6861 H   0  0  0  0  0  0  0  0  0  0  0  0
    4.2735   -3.9976    2.0717 H   0  0  0  0  0  0  0  0  0  0  0  0
    5.8843   -3.4875    2.6163 H   0  0  0  0  0  0  0  0  0  0  0  0
  1  2  2  0  0  0  0
  1  3  1  0  0  0  0
  1  7  1  0  0  0  0
  3  4  1  0  0  0  0
  3  5  1  0  0  0  0
  3  6  1  0  0  0  0
  7  8  1  0  0  0  0
  7 12  1  0  0  0  0
  8  9  1  0  0  0  0
  8 11  1  0  0  0  0
  8 13  1  0  0  0  0
  9 10  2  0  0  0  0
  9 17  1  0  0  0  0
 11 14  1  0  0  0  0
 11 15  1  0  0  0  0
 11 16  1  0  0  0  0
 17 18  1  0  0  0  0
 17 21  1  0  0  0  0
 18 19  1  0  0  0  0
 18 22  1  0  0  0  0
 18 23  1  0  0  0  0
 19 20  2  0  0  0  0
 19 24  1  0  0  0  0
 24 25  1  0  0  0  0
 24 29  1  0  0  0  0
 25 26  1  0  0  0  0
 25 28  1  0  0  0  0
 25 30  1  0  0  0  0
 26 27  2  0  0  0  0
 26 34  1  0  0  0  0
 28 31  1  0  0  0  0
 28 32  1  0  0  0  0
 28 33  1  0  0  0  0
 34 35  1  0  0  0  0
 34 36  1  0  0  0  0
 35 37  1  0  0  0  0
 35 38  1  0  0  0  0
 35 39  1  0  0  0  0
M  END
$$$$

  -OEChem-05262216283D

 39 38  0     1  0  0  0  0  0999 V2000
   -4.0457   -3.1431   -1.7697 C   0  0  0  0  0  0  0  0  0  0  0  0
   -3.6939   -4.0225   -0.9995 O   0  0  0  0  0  0  0  0  0  0  0  0
   -5.4431   -3.1636   -2.3602 C   0  0  0  0  0  0  0  0  0  0  0  0
   -5.3860   -3.2245   -3.4497 H   0  0  0  0  0  0  0  0  0  0  0  0
   -5.9978   -4.0292   -1.9872 H   0  0  0  0  0  0  0  0  0  0  0  0
   -5.9798   -2.2538   -2.0808 H   0  0  0  0  0  0  0  0  0  0  0  0
   -3.1799   -2.1233   -2.1018 N   0  0  0  0  0  0  0  0  0  0  0  0
   -1.8721   -1.9062   -1.4690 C   0  0  2  0  0  0  0  0  0  0  0  0
   -1.5188   -0.4051   -1.4007 C   0  0  0  0  0  0  0  0  0  0  0  0
   -2.2304    0.4319   -1.9471 O   0  0  0  0  0  0  0  0  0  0  0  0
   -0.8124   -2.6772   -2.2620 C   0  0  0  0  0  0  0  0  0  0  0  0
   -3.5636   -1.3420   -2.6323 H   0  0  0  0  0  0  0  0  0  0  0  0
   -1.8905   -2.2806   -0.4395 H   0  0  0  0  0  0  0  0  0  0  0  0
   -0.7661   -2.3137   -3.2933 H   0  0  0  0  0  0  0  0  0  0  0  0
    0.1746   -2.5578   -1.8045 H   0  0  0  0  0  0  0  0  0  0  0  0
   -1.0552   -3.7442   -2.2774 H   0  0  0  0  0  0  0  0  0  0  0  0
   -0.4061    0.0158   -0.7027 N   0  0  0  0  0  0  0  0  0  0  0  0
    0.0914    1.4012   -0.7068 C   0  0  0  0  0  0  0  0  0  0  0  0
    1.5160    1.4458   -0.1527 C   0  0  0  0  0  0  0  0  0  0  0  0
    2.4698    1.6105   -0.9001 O   0  0  0  0  0  0  0  0  0  0  0  0
    0.2118   -0.7208   -0.3423 H   0  0  0  0  0  0  0  0  0  0  0  0
   -0.5568    2.0398   -0.1003 H   0  0  0  0  0  0  0  0  0  0  0  0
    0.0989    1.7994   -1.7271 H   0  0  0  0  0  0  0  0  0  0  0  0
    1.7242    0.9994    1.1392 N   0  0  0  0  0  0  0  0  0  0  0  0
    2.8934    0.1565    1.4242 C   0  0  2  0  0  0  0  0  0  0  0  0
    2.7118   -1.2674    0.8443 C   0  0  0  0  0  0  0  0  0  0  0  0
    1.5850   -1.6940    0.5950 O   0  0  0  0  0  0  0  0  0  0  0  0
    3.0792    0.0994    2.9417 C   0  0  0  0  0  0  0  0  0  0  0  0
    0.8657    0.7249    1.6103 H   0  0  0  0  0  0  0  0  0  0  0  0
    3.7919    0.5997    0.9809 H   0  0  0  0  0  0  0  0  0  0  0  0
    2.2062   -0.3570    3.4197 H   0  0  0  0  0  0  0  0  0  0  0  0
    3.9635   -0.4930    3.1964 H   0  0  0  0  0  0  0  0  0  0  0  0
    3.2116    1.1079    3.3459 H   0  0  0  0  0  0  0  0  0  0  0  0
    3.8089   -2.0663    0.5852 N   0  0  0  0  0  0  0  0  0  0  0  0
    3.7102   -3.3762   -0.0483 C   0  0  0  0  0  0  0  0  0  0  0  0
    4.7278   -1.6486    0.7025 H   0  0  0  0  0  0  0  0  0  0  0  0
    3.0947   -4.0504    0.5566 H   0  0  0  0  0  0  0  0  0  0  0  0
    3.2624   -3.2873   -1.0438 H   0  0  0  0  0  0  0  0  0  0  0  0
    4.7043   -3.8210   -0.1550 H   0  0  0  0  0  0  0  0  0  0  0  0
  1  2  2  0  0  0  0
  1  3  1  0  0  0  0
  1  7  1  0  0  0  0
  3  4  1  0  0  0  0
  3  5  1  0  0  0  0
  3  6  1  0  0  0  0
  7  8  1  0  0  0  0
  7 12  1  0  0  0  0
  8  9  1  0  0  0  0
  8 11  1  0  0  0  0
  8 13  1  0  0  0  0
  9 10  2  0  0  0  0
  9 17  1  0  0  0  0
 11 14  1  0  0  0  0
 11 15  1  0  0  0  0
 11 16  1  0  0  0  0
 17 18  1  0  0  0  0
 17 21  1  0  0  0  0
 18 19  1  0  0  0  0
 18 22  1  0  0  0  0
 18 23  1  0  0  0  0
 19 20  2  0  0  0  0
 19 24  1  0  0  0  0
 24 25  1  0  0  0  0
 24 29  1  0  0  0  0
 25 26  1  0  0  0  0
 25 28  1  0  0  0  0
 25 30  1  0  0  0  0
 26 27  2  0  0  0  0
 26 34  1  0  0  0  0
 28 31  1  0  0  0  0
 28 32  1  0  0  0  0
 28 33  1  0  0  0  0
 34 35  1  0  0  0  0
 34 36  1  0  0  0  0
 35 37  1  0  0  0  0
 35 38  1  0  0  0  0
 35 39  1  0  0  0  0
M  END
$$$$

  -OEChem-05262216283D

 39 38  0     1  0  0  0  0  0999 V2000
   -4.0093   -3.1739   -1.9225 C   0  0  0  0  0  0  0  0  0  0  0  0
   -3.5628   -4.1129   -1.2827 O   0  0  0  0  0  0  0  0  0  0  0  0
   -5.4530   -3.1907   -2.3890 C   0  0  0  0  0  0  0  0  0  0  0  0
   -5.4978   -3.0621   -3.4732 H   0  0  0  0  0  0  0  0  0  0  0  0
   -5.9222   -4.1434   -2.1277 H   0  0  0  0  0  0  0  0  0  0  0  0
   -6.0088   -2.3808   -1.9102 H   0  0  0  0  0  0  0  0  0  0  0  0
   -3.2113   -2.0865   -2.2072 N   0  0  0  0  0  0  0  0  0  0  0  0
   -1.8626   -1.8815   -1.6619 C   0  0  2  0  0  0  0  0  0  0  0  0
   -1.5679   -0.3843   -1.4292 C   0  0  0  0  0  0  0  0  0  0  0  0
   -2.3110    0.4775   -1.8876 O   0  0  0  0  0  0  0  0  0  0  0  0
   -0.8487   -2.4891   -2.6358 C   0  0  0  0  0  0  0  0  0  0  0  0
   -3.6618   -1.2744   -2.6273 H   0  0  0  0  0  0  0  0  0  0  0  0
   -1.7715   -2.3843   -0.6927 H   0  0  0  0  0  0  0  0  0  0  0  0
   -0.9170   -2.0017   -3.6134 H   0  0  0  0  0  0  0  0  0  0  0  0
    0.1704   -2.3692   -2.2559 H   0  0  0  0  0  0  0  0  0  0  0  0
   -1.0428   -3.5587   -2.7636 H   0  0  0  0  0  0  0  0  0  0  0  0
   -0.4720    0.0020   -0.6845 N   0  0  0  0  0  0  0  0  0  0  0  0
    0.0246    1.3899   -0.6483 C   0  0  0  0  0  0  0  0  0  0  0  0
    1.4349    1.4452   -0.0547 C   0  0  0  0  0  0  0  0  0  0  0  0
    2.3701    1.8761   -0.7137 O   0  0  0  0  0  0  0  0  0  0  0  0
    0.1945   -0.7480   -0.4670 H   0  0  0  0  0  0  0  0  0  0  0  0
   -0.6419    2.0127   -0.0448 H   0  0  0  0  0  0  0  0  0  0  0  0
    0.0527    1.8090   -1.6599 H   0  0  0  0  0  0  0  0  0  0  0  0
    1.6829    0.7108    1.0902 N   0  0  0  0  0  0  0  0  0  0  0  0
    2.9120   -0.0855    1.1988 C   0  0  2  0  0  0  0  0  0  0  0  0
    2.7909   -1.3977    0.3878 C   0  0  0  0  0  0  0  0  0  0  0  0
    1.6797   -1.8304    0.0844 O   0  0  0  0  0  0  0  0  0  0  0  0
    3.1470   -0.3846    2.6807 C   0  0  0  0  0  0  0  0  0  0  0  0
    0.8474    0.2688    1.4661 H   0  0  0  0  0  0  0  0  0  0  0  0
    3.7685    0.4823    0.8189 H   0  0  0  0  0  0  0  0  0  0  0  0
    2.3191   -0.9719    3.0914 H   0  0  0  0  0  0  0  0  0  0  0  0
    4.0742   -0.9503    2.8145 H   0  0  0  0  0  0  0  0  0  0  0  0
    3.2271    0.5489    3.2467 H   0  0  0  0  0  0  0  0  0  0  0  0
    3.9178   -2.0892   -0.0142 N   0  0  0  0  0  0  0  0  0  0  0  0
    3.8647   -3.2930   -0.8360 C   0  0  0  0  0  0  0  0  0  0  0  0
    4.8214   -1.6612    0.1685 H   0  0  0  0  0  0  0  0  0  0  0  0
    3.2942   -4.0791   -0.3299 H   0  0  0  0  0  0  0  0  0  0  0  0
    3.3912   -3.0786   -1.8000 H   0  0  0  0  0  0  0  0  0  0  0  0
    4.8756   -3.6683   -1.0226 H   0  0  0  0  0  0  0  0  0  0  0  0
  1  2  2  0  0  0  0
  1  3  1  0  0  0  0
  1  7  1  0  0  0  0
  3  4  1  0  0  0  0
  3  5  1  0  0  0  0
  3  6  1  0  0  0  0
  7  8  1  0  0  0  0
  7 12  1  0  0  0  0
  8  9  1  0  0  0  0
  8 11  1  0  0  0  0
  8 13  1  0  0  0  0
  9 10  2  0  0  0  0
  9 17  1  0  0  0  0
 11 14  1  0  0  0  0
 11 15  1  0  0  0  0
 11 16  1  0  0  0  0
 17 18  1  0  0  0  0
 17 21  1  0  0  0  0
 18 19  1  0  0  0  0
 18 22  1  0  0  0  0
 18 23  1  0  0  0  0
 19 20  2  0  0  0  0
 19 24  1  0  0  0  0
 24 25  1  0  0  0  0
 24 29  1  0  0  0  0
 25 26  1  0  0  0  0
 25 28  1  0  0  0  0
 25 30  1  0  0  0  0
 26 27  2  0  0  0  0
 26 34  1  0  0  0  0
 28 31  1  0  0  0  0
 28 32  1  0  0  0  0
 28 33  1  0  0  0  0
 34 35  1  0  0  0  0
 34 36  1  0  0  0  0
 35 37  1  0  0  0  0
 35 38  1  0  0  0  0
 35 39  1  0  0  0  0
M  END
$$$$

  -OEChem-05262216283D

 39 38  0     1  0  0  0  0  0999 V2000
   -4.0062   -3.1424   -2.0666 C   0  0  0  0  0  0  0  0  0  0  0  0
   -3.5370   -4.1009   -1.4736 O   0  0  0  0  0  0  0  0  0  0  0  0
   -5.4597   -3.1550   -2.4998 C   0  0  0  0  0  0  0  0  0  0  0  0
   -5.5263   -3.0493   -3.5852 H   0  0  0  0  0  0  0  0  0  0  0  0
   -5.9315   -4.0971   -2.2073 H   0  0  0  0  0  0  0  0  0  0  0  0
   -5.9972   -2.3298   -2.0263 H   0  0  0  0  0  0  0  0  0  0  0  0
   -3.2225   -2.0408   -2.3356 N   0  0  0  0  0  0  0  0  0  0  0  0
   -1.8601   -1.8477   -1.8225 C   0  0  2  0  0  0  0  0  0  0  0  0
   -1.5875   -0.3647   -1.4940 C   0  0  0  0  0  0  0  0  0  0  0  0
   -2.3204    0.5145   -1.9357 O   0  0  0  0  0  0  0  0  0  0  0  0
   -0.8745   -2.3625   -2.8751 C   0  0  0  0  0  0  0  0  0  0  0  0
   -3.6888   -1.2163   -2.7126 H   0  0  0  0  0  0  0  0  0  0  0  0
   -1.7240   -2.4158   -0.8955 H   0  0  0  0  0  0  0  0  0  0  0  0
   -0.9933   -1.8112   -3.8131 H   0  0  0  0  0  0  0  0  0  0  0  0
    0.1561   -2.2442   -2.5289 H   0  0  0  0  0  0  0  0  0  0  0  0
   -1.0509   -3.4251   -3.0690 H   0  0  0  0  0  0  0  0  0  0  0  0
   -0.5269   -0.0122   -0.6830 N   0  0  0  0  0  0  0  0  0  0  0  0
   -0.0285    1.3755   -0.6084 C   0  0  0  0  0  0  0  0  0  0  0  0
    1.3519    1.4534    0.0540 C   0  0  0  0  0  0  0  0  0  0  0  0
    2.2434    2.1056   -0.4691 O   0  0  0  0  0  0  0  0  0  0  0  0
    0.1556   -0.7646   -0.5359 H   0  0  0  0  0  0  0  0  0  0  0  0
   -0.7290    1.9892   -0.0346 H   0  0  0  0  0  0  0  0  0  0  0  0
    0.0455    1.8023   -1.6146 H   0  0  0  0  0  0  0  0  0  0  0  0
    1.6734    0.5071    1.0097 N   0  0  0  0  0  0  0  0  0  0  0  0
    2.9467   -0.2199    0.9346 C   0  0  2  0  0  0  0  0  0  0  0  0
    2.8251   -1.4129   -0.0405 C   0  0  0  0  0  0  0  0  0  0  0  0
    1.7134   -1.8643   -0.3127 O   0  0  0  0  0  0  0  0  0  0  0  0
    3.2991   -0.7040    2.3420 C   0  0  0  0  0  0  0  0  0  0  0  0
    0.8748   -0.0569    1.2913 H   0  0  0  0  0  0  0  0  0  0  0  0
    3.7479    0.4395    0.5835 H   0  0  0  0  0  0  0  0  0  0  0  0
    2.5251   -1.3787    2.7219 H   0  0  0  0  0  0  0  0  0  0  0  0
    4.2536   -1.2392    2.3348 H   0  0  0  0  0  0  0  0  0  0  0  0
    3.3855    0.1477    3.0242 H   0  0  0  0  0  0  0  0  0  0  0  0
    3.9444   -1.9669   -0.6309 N   0  0  0  0  0  0  0  0  0  0  0  0
    3.8773   -3.0402   -1.6159 C   0  0  0  0  0  0  0  0  0  0  0  0
    4.8406   -1.5232   -0.4490 H   0  0  0  0  0  0  0  0  0  0  0  0
    3.4290   -3.9373   -1.1760 H   0  0  0  0  0  0  0  0  0  0  0  0
    3.2765   -2.7328   -2.4785 H   0  0  0  0  0  0  0  0  0  0  0  0
    4.8815   -3.2943   -1.9685 H   0  0  0  0  0  0  0  0  0  0  0  0
  1  2  2  0  0  0  0
  1  3  1  0  0  0  0
  1  7  1  0  0  0  0
  3  4  1  0  0  0  0
  3  5  1  0  0  0  0
  3  6  1  0  0  0  0
  7  8  1  0  0  0  0
  7 12  1  0  0  0  0
  8  9  1  0  0  0  0
  8 11  1  0  0  0  0
  8 13  1  0  0  0  0
  9 10  2  0  0  0  0
  9 17  1  0  0  0  0
 11 14  1  0  0  0  0
 11 15  1  0  0  0  0
 11 16  1  0  0  0  0
 17 18  1  0  0  0  0
 17 21  1  0  0  0  0
 18 19  1  0  0  0  0
 18 22  1  0  0  0  0
 18 23  1  0  0  0  0
 19 20  2  0  0  0  0
 19 24  1  0  0  0  0
 24 25  1  0  0  0  0
 24 29  1  0  0  0  0
 25 26  1  0  0  0  0
 25 28  1  0  0  0  0
 25 30  1  0  0  0  0
 26 27  2  0  0  0  0
 26 34  1  0  0  0  0
 28 31  1  0  0  0  0
 28 32  1  0  0  0  0
 28 33  1  0  0  0  0
 34 35  1  0  0  0  0
 34 36  1  0  0  0  0
 35 37  1  0  0  0  0
 35 38  1  0  0  0  0
 35 39  1  0  0  0  0
M  END
$$$$

  -OEChem-05262216283D

 39 38  0     1  0  0  0  0  0999 V2000
   -3.9510   -3.2240   -2.2849 C   0  0  0  0  0  0  0  0  0  0  0  0
   -3.3566   -4.2269   -1.9226 O   0  0  0  0  0  0  0  0  0  0  0  0
   -5.4129   -3.3069   -2.6810 C   0  0  0  0  0  0  0  0  0  0  0  0
   -5.5290   -3.0331   -3.7324 H   0  0  0  0  0  0  0  0  0  0  0  0
   -5.7857   -4.3249   -2.5379 H   0  0  0  0  0  0  0  0  0  0  0  0
   -6.0056   -2.6254   -2.0660 H   0  0  0  0  0  0  0  0  0  0  0  0
   -3.2974   -2.0117   -2.3361 N   0  0  0  0  0  0  0  0  0  0  0  0
   -1.9154   -1.7863   -1.8931 C   0  0  2  0  0  0  0  0  0  0  0  0
   -1.7221   -0.3486   -1.3657 C   0  0  0  0  0  0  0  0  0  0  0  0
   -2.5212    0.5315   -1.6686 O   0  0  0  0  0  0  0  0  0  0  0  0
   -0.9863   -2.0534   -3.0813 C   0  0  0  0  0  0  0  0  0  0  0  0
   -3.8523   -1.1839   -2.5509 H   0  0  0  0  0  0  0  0  0  0  0  0
   -1.6667   -2.4737   -1.0770 H   0  0  0  0  0  0  0  0  0  0  0  0
   -1.2263   -1.3826   -3.9124 H   0  0  0  0  0  0  0  0  0  0  0  0
    0.0583   -1.8967   -2.7986 H   0  0  0  0  0  0  0  0  0  0  0  0
   -1.0971   -3.0873   -3.4232 H   0  0  0  0  0  0  0  0  0  0  0  0
   -0.6527   -0.0341   -0.5485 N   0  0  0  0  0  0  0  0  0  0  0  0
   -0.2066    1.3668   -0.3929 C   0  0  0  0  0  0  0  0  0  0  0  0
    1.1841    1.4930    0.2434 C   0  0  0  0  0  0  0  0  0  0  0  0
    1.9304    2.3897   -0.1194 O   0  0  0  0  0  0  0  0  0  0  0  0
    0.0781   -0.7538   -0.5491 H   0  0  0  0  0  0  0  0  0  0  0  0
   -0.9208    1.9091    0.2337 H   0  0  0  0  0  0  0  0  0  0  0  0
   -0.1781    1.8586   -1.3712 H   0  0  0  0  0  0  0  0  0  0  0  0
    1.7212    0.3917    0.8822 N   0  0  0  0  0  0  0  0  0  0  0  0
    3.0338   -0.1423    0.4995 C   0  0  2  0  0  0  0  0  0  0  0  0
    2.8573   -1.2797   -0.5312 C   0  0  0  0  0  0  0  0  0  0  0  0
    1.7407   -1.7636   -0.7140 O   0  0  0  0  0  0  0  0  0  0  0  0
    3.7234   -0.6474    1.7680 C   0  0  0  0  0  0  0  0  0  0  0  0
    1.0248   -0.3203    1.0905 H   0  0  0  0  0  0  0  0  0  0  0  0
    3.6594    0.6359    0.0488 H   0  0  0  0  0  0  0  0  0  0  0  0
    3.1320   -1.4398    2.2380 H   0  0  0  0  0  0  0  0  0  0  0  0
    4.7156   -1.0454    1.5344 H   0  0  0  0  0  0  0  0  0  0  0  0
    3.8397    0.1727    2.4840 H   0  0  0  0  0  0  0  0  0  0  0  0
    3.9291   -1.7454   -1.2679 N   0  0  0  0  0  0  0  0  0  0  0  0
    3.8119   -2.7929   -2.2755 C   0  0  0  0  0  0  0  0  0  0  0  0
    4.8302   -1.2968   -1.1269 H   0  0  0  0  0  0  0  0  0  0  0  0
    3.4884   -3.7323   -1.8151 H   0  0  0  0  0  0  0  0  0  0  0  0
    3.0847   -2.5084   -3.0432 H   0  0  0  0  0  0  0  0  0  0  0  0
    4.7779   -2.9602   -2.7617 H   0  0  0  0  0  0  0  0  0  0  0  0
  1  2  2  0  0  0  0
  1  3  1  0  0  0  0
  1  7  1  0  0  0  0
  3  4  1  0  0  0  0
  3  5  1  0  0  0  0
  3  6  1  0  0  0  0
  7  8  1  0  0  0  0
  7 12  1  0  0  0  0
  8  9  1  0  0  0  0
  8 11  1  0  0  0  0
  8 13  1  0  0  0  0
  9 10  2  0  0  0  0
  9 17  1  0  0  0  0
 11 14  1  0  0  0  0
 11 15  1  0  0  0  0
 11 16  1  0  0  0  0
 17 18  1  0  0  0  0
 17 21  1  0  0  0  0
 18 19  1  0  0  0  0
 18 22  1  0  0  0  0
 18 23  1  0  0  0  0
 19 20  2  0  0  0  0
 19 24  1  0  0  0  0
 24 25  1  0  0  0  0
 24 29  1  0  0  0  0
 25 26  1  0  0  0  0
 25 28  1  0  0  0  0
 25 30  1  0  0  0  0
 26 27  2  0  0  0  0
 26 34  1  0  0  0  0
 28 31  1  0  0  0  0
 28 32  1  0  0  0  0
 28 33  1  0  0  0  0
 34 35  1  0  0  0  0
 34 36  1  0  0  0  0
 35 37  1  0  0  0  0
 35 38  1  0  0  0  0
 35 39  1  0  0  0  0
M  END
$$$$

  -OEChem-05262216283D

 39 38  0     1  0  0  0  0  0999 V2000
   -4.9018   -2.7861   -1.9373 C   0  0  0  0  0  0  0  0  0  0  0  0
   -4.4675   -3.7496   -1.3260 O   0  0  0  0  0  0  0  0  0  0  0  0
   -6.3976   -2.5394   -2.0007 C   0  0  0  0  0  0  0  0  0  0  0  0
   -6.7269   -2.5011   -3.0418 H   0  0  0  0  0  0  0  0  0  0  0  0
   -6.9350   -3.3445   -1.4919 H   0  0  0  0  0  0  0  0  0  0  0  0
   -6.6392   -1.5912   -1.5139 H   0  0  0  0  0  0  0  0  0  0  0  0
   -4.0395   -1.9056   -2.5573 N   0  0  0  0  0  0  0  0  0  0  0  0
   -2.5856   -1.8894   -2.3372 C   0  0  2  0  0  0  0  0  0  0  0  0
   -2.1242   -0.5654   -1.6919 C   0  0  0  0  0  0  0  0  0  0  0  0
   -2.8260    0.4359   -1.7753 O   0  0  0  0  0  0  0  0  0  0  0  0
   -1.9049   -2.0918   -3.6924 C   0  0  0  0  0  0  0  0  0  0  0  0
   -4.4540   -1.0292   -2.8698 H   0  0  0  0  0  0  0  0  0  0  0  0
   -2.2856   -2.7038   -1.6698 H   0  0  0  0  0  0  0  0  0  0  0  0
   -2.1739   -1.2847   -4.3813 H   0  0  0  0  0  0  0  0  0  0  0  0
   -0.8165   -2.1034   -3.5781 H   0  0  0  0  0  0  0  0  0  0  0  0
   -2.2160   -3.0446   -4.1323 H   0  0  0  0  0  0  0  0  0  0  0  0
   -0.9123   -0.4896   -1.0281 N   0  0  0  0  0  0  0  0  0  0  0  0
   -0.5159    0.6928   -0.2362 C   0  0  0  0  0  0  0  0  0  0  0  0
    0.9760    0.7518    0.1177 C   0  0  0  0  0  0  0  0  0  0  0  0
    1.3978    1.6554    0.8237 O   0  0  0  0  0  0  0  0  0  0  0  0
   -0.4636   -1.3793   -0.8248 H   0  0  0  0  0  0  0  0  0  0  0  0
   -1.0908    0.7151    0.6945 H   0  0  0  0  0  0  0  0  0  0  0  0
   -0.7507    1.6049   -0.7951 H   0  0  0  0  0  0  0  0  0  0  0  0
    1.8418   -0.2432   -0.2946 N   0  0  0  0  0  0  0  0  0  0  0  0
    3.2973   -0.2028   -0.1080 C   0  0  2  0  0  0  0  0  0  0  0  0
    4.0177   -0.9531   -1.2491 C   0  0  0  0  0  0  0  0  0  0  0  0
    3.3675   -1.6340   -2.0369 O   0  0  0  0  0  0  0  0  0  0  0  0
    3.6332   -0.8265    1.2506 C   0  0  0  0  0  0  0  0  0  0  0  0
    1.5119   -0.8470   -1.0458 H   0  0  0  0  0  0  0  0  0  0  0  0
    3.6454    0.8359   -0.1252 H   0  0  0  0  0  0  0  0  0  0  0  0
    3.3095   -1.8718    1.2834 H   0  0  0  0  0  0  0  0  0  0  0  0
    4.7109   -0.7888    1.4359 H   0  0  0  0  0  0  0  0  0  0  0  0
    3.1277   -0.2804    2.0536 H   0  0  0  0  0  0  0  0  0  0  0  0
    5.3877   -0.8528   -1.4071 N   0  0  0  0  0  0  0  0  0  0  0  0
    6.1224   -1.5228   -2.4739 C   0  0  0  0  0  0  0  0  0  0  0  0
    5.8957   -0.2624   -0.7545 H   0  0  0  0  0  0  0  0  0  0  0  0
    5.9709   -2.6062   -2.4222 H   0  0  0  0  0  0  0  0  0  0  0  0
    5.7868   -1.1665   -3.4535 H   0  0  0  0  0  0  0  0  0  0  0  0
    7.1937   -1.3202   -2.3814 H   0  0  0  0  0  0  0  0  0  0  0  0
  1  2  2  0  0  0  0
  1  3  1  0  0  0  0
  1  7  1  0  0  0  0
  3  4  1  0  0  0  0
  3  5  1  0  0  0  0
  3  6  1  0  0  0  0
  7  8  1  0  0  0  0
  7 12  1  0  0  0  0
  8  9  1  0  0  0  0
  8 11  1  0  0  0  0
  8 13  1  0  0  0  0
  9 10  2  0  0  0  0
  9 17  1  0  0  0  0
 11 14  1  0  0  0  0
 11 15  1  0  0  0  0
 11 16  1  0  0  0  0
 17 18  1  0  0  0  0
 17 21  1  0  0  0  0
 18 19  1  0  0  0  0
 18 22  1  0  0  0  0
 18 23  1  0  0  0  0
 19 20  2  0  0  0  0
 19 24  1  0  0  0  0
 24 25  1  0  0  0  0
 24 29  1  0  0  0  0
 25 26  1  0  0  0  0
 25 28  1  0  0  0  0
 25 30  1  0  0  0  0
 26 27  2  0  0  0  0
 26 34  1  0  0  0  0
 28 31  1  0  0  0  0
 28 32  1  0  0  0  0
 28 33  1  0  0  0  0
 34 35  1  0  0  0  0
 34 36  1  0  0  0  0
 35 37  1  0  0  0  0
 35 38  1  0  0  0  0
 35 39  1  0  0  0  0
M  END
$$$$

  -OEChem-05262216283D

 39 38  0     1  0  0  0  0  0999 V2000
   -3.9319   -3.1149   -2.9975 C   0  0  0  0  0  0  0  0  0  0  0  0
   -3.1427   -3.7403   -3.6875 O   0  0  0  0  0  0  0  0  0  0  0  0
   -5.3418   -3.6362   -2.7923 C   0  0  0  0  0  0  0  0  0  0  0  0
   -6.0682   -2.8676   -3.0669 H   0  0  0  0  0  0  0  0  0  0  0  0
   -5.5118   -4.5192   -3.4148 H   0  0  0  0  0  0  0  0  0  0  0  0
   -5.4887   -3.9092   -1.7444 H   0  0  0  0  0  0  0  0  0  0  0  0
   -3.5414   -1.9419   -2.3877 N   0  0  0  0  0  0  0  0  0  0  0  0
   -2.1604   -1.4427   -2.3608 C   0  0  2  0  0  0  0  0  0  0  0  0
   -1.8715   -0.6542   -1.0656 C   0  0  0  0  0  0  0  0  0  0  0  0
   -2.7803   -0.3804   -0.2889 O   0  0  0  0  0  0  0  0  0  0  0  0
   -1.9345   -0.5636   -3.5951 C   0  0  0  0  0  0  0  0  0  0  0  0
   -4.1860   -1.5317   -1.7126 H   0  0  0  0  0  0  0  0  0  0  0  0
   -1.4612   -2.2861   -2.3895 H   0  0  0  0  0  0  0  0  0  0  0  0
   -2.6132    0.2953   -3.5842 H   0  0  0  0  0  0  0  0  0  0  0  0
   -0.9040   -0.1964   -3.6224 H   0  0  0  0  0  0  0  0  0  0  0  0
   -2.1162   -1.1400   -4.5079 H   0  0  0  0  0  0  0  0  0  0  0  0
   -0.5816   -0.2723   -0.7544 N   0  0  0  0  0  0  0  0  0  0  0  0
   -0.1797    0.1742    0.5936 C   0  0  0  0  0  0  0  0  0  0  0  0
    1.1814    0.8816    0.5953 C   0  0  0  0  0  0  0  0  0  0  0  0
    1.8956    0.7706    1.5791 O   0  0  0  0  0  0  0  0  0  0  0  0
    0.1511   -0.6962   -1.3361 H   0  0  0  0  0  0  0  0  0  0  0  0
   -0.1329   -0.6871    1.2673 H   0  0  0  0  0  0  0  0  0  0  0  0
   -0.9189    0.8751    0.9945 H   0  0  0  0  0  0  0  0  0  0  0  0
    1.7002    1.3028   -0.6195 N   0  0  0  0  0  0  0  0  0  0  0  0
    3.0230    0.8957   -1.1299 C   0  0  2  0  0  0  0  0  0  0  0  0
    2.9892   -0.5889   -1.5714 C   0  0  0  0  0  0  0  0  0  0  0  0
    1.9339   -1.0606   -1.9930 O   0  0  0  0  0  0  0  0  0  0  0  0
    4.1859    1.2240   -0.1769 C   0  0  0  0  0  0  0  0  0  0  0  0
    0.9762    1.3147   -1.3346 H   0  0  0  0  0  0  0  0  0  0  0  0
    3.2040    1.4809   -2.0365 H   0  0  0  0  0  0  0  0  0  0  0  0
    4.2280    0.5164    0.6569 H   0  0  0  0  0  0  0  0  0  0  0  0
    5.1397    1.1801   -0.7109 H   0  0  0  0  0  0  0  0  0  0  0  0
    4.0668    2.2333    0.2297 H   0  0  0  0  0  0  0  0  0  0  0  0
    4.1194   -1.3847   -1.5521 N   0  0  0  0  0  0  0  0  0  0  0  0
    4.1054   -2.7982   -1.9111 C   0  0  0  0  0  0  0  0  0  0  0  0
    4.9489   -1.0019   -1.1069 H   0  0  0  0  0  0  0  0  0  0  0  0
    3.4773   -3.3636   -1.2147 H   0  0  0  0  0  0  0  0  0  0  0  0
    3.7164   -2.9336   -2.9260 H   0  0  0  0  0  0  0  0  0  0  0  0
    5.1194   -3.2080   -1.8755 H   0  0  0  0  0  0  0  0  0  0  0  0
  1  2  2  0  0  0  0
  1  3  1  0  0  0  0
  1  7  1  0  0  0  0
  3  4  1  0  0  0  0
  3  5  1  0  0  0  0
  3  6  1  0  0  0  0
  7  8  1  0  0  0  0
  7 12  1  0  0  0  0
  8  9  1  0  0  0  0
  8 11  1  0  0  0  0
  8 13  1  0  0  0  0
  9 10  2  0  0  0  0
  9 17  1  0  0  0  0
 11 14  1  0  0  0  0
 11 15  1  0  0  0  0
 11 16  1  0  0  0  0
 17 18  1  0  0  0  0
 17 21  1  0  0  0  0
 18 19  1  0  0  0  0
 18 22  1  0  0  0  0
 18 23  1  0  0  0  0
 19 20  2  0  0  0  0
 19 24  1  0  0  0  0
 24 25  1  0  0  0  0
 24 29  1  0  0  0  0
 25 26  1  0  0  0  0
 25 28  1  0  0  0  0
 25 30  1  0  0  0  0
 26 27  2  0  0  0  0
 26 34  1  0  0  0  0
 28 31  1  0  0  0  0
 28 32  1  0  0  0  0
 28 33  1  0  0  0  0
 34 35  1  0  0  0  0
 34 36  1  0  0  0  0
 35 37  1  0  0  0  0
 35 38  1  0  0  0  0
 35 39  1  0  0  0  0
M  END
$$$$

  -OEChem-05262216283D

 39 38  0     1  0  0  0  0  0999 V2000
   -3.9302   -2.9591   -3.1774 C   0  0  0  0  0  0  0  0  0  0  0  0
   -3.1569   -3.4612   -3.9775 O   0  0  0  0  0  0  0  0  0  0  0  0
   -5.3136   -3.5511   -2.9825 C   0  0  0  0  0  0  0  0  0  0  0  0
   -6.0763   -2.7982   -3.1960 H   0  0  0  0  0  0  0  0  0  0  0  0
   -5.4582   -4.4002   -3.6564 H   0  0  0  0  0  0  0  0  0  0  0  0
   -5.4295   -3.8952   -1.9517 H   0  0  0  0  0  0  0  0  0  0  0  0
   -3.5444   -1.8644   -2.4337 N   0  0  0  0  0  0  0  0  0  0  0  0
   -2.1752   -1.3343   -2.3927 C   0  0  2  0  0  0  0  0  0  0  0  0
   -1.8537   -0.7187   -1.0144 C   0  0  0  0  0  0  0  0  0  0  0  0
   -2.7397   -0.5538   -0.1824 O   0  0  0  0  0  0  0  0  0  0  0  0
   -2.0181   -0.2896   -3.5021 C   0  0  0  0  0  0  0  0  0  0  0  0
   -4.1679   -1.5699   -1.6825 H   0  0  0  0  0  0  0  0  0  0  0  0
   -1.4586   -2.1463   -2.5612 H   0  0  0  0  0  0  0  0  0  0  0  0
   -2.7044    0.5476   -3.3400 H   0  0  0  0  0  0  0  0  0  0  0  0
   -0.9938    0.0948   -3.5240 H   0  0  0  0  0  0  0  0  0  0  0  0
   -2.2366   -0.7363   -4.4772 H   0  0  0  0  0  0  0  0  0  0  0  0
   -0.5610   -0.3546   -0.6979 N   0  0  0  0  0  0  0  0  0  0  0  0
   -0.1237    0.0146    0.6610 C   0  0  0  0  0  0  0  0  0  0  0  0
    1.2391    0.7150    0.6370 C   0  0  0  0  0  0  0  0  0  0  0  0
    2.1045    0.3549    1.4196 O   0  0  0  0  0  0  0  0  0  0  0  0
    0.1648   -0.6411   -1.3661 H   0  0  0  0  0  0  0  0  0  0  0  0
   -0.0580   -0.8811    1.2866 H   0  0  0  0  0  0  0  0  0  0  0  0
   -0.8475    0.6941    1.1213 H   0  0  0  0  0  0  0  0  0  0  0  0
    1.5617    1.4589   -0.4873 N   0  0  0  0  0  0  0  0  0  0  0  0
    2.8275    1.2835   -1.2221 C   0  0  2  0  0  0  0  0  0  0  0  0
    2.9073   -0.1409   -1.8268 C   0  0  0  0  0  0  0  0  0  0  0  0
    1.8796   -0.6561   -2.2650 O   0  0  0  0  0  0  0  0  0  0  0  0
    4.0629    1.6791   -0.3935 C   0  0  0  0  0  0  0  0  0  0  0  0
    0.7492    1.5980   -1.0836 H   0  0  0  0  0  0  0  0  0  0  0  0
    2.8008    1.9715   -2.0724 H   0  0  0  0  0  0  0  0  0  0  0  0
    4.3001    0.9232    0.3609 H   0  0  0  0  0  0  0  0  0  0  0  0
    4.9341    1.7953   -1.0453 H   0  0  0  0  0  0  0  0  0  0  0  0
    3.8852    2.6315    0.1155 H   0  0  0  0  0  0  0  0  0  0  0  0
    4.0980   -0.8384   -1.9067 N   0  0  0  0  0  0  0  0  0  0  0  0
    4.1829   -2.2160   -2.3774 C   0  0  0  0  0  0  0  0  0  0  0  0
    4.8940   -0.4441   -1.4131 H   0  0  0  0  0  0  0  0  0  0  0  0
    3.6141   -2.8812   -1.7191 H   0  0  0  0  0  0  0  0  0  0  0  0
    3.7847   -2.3011   -3.3941 H   0  0  0  0  0  0  0  0  0  0  0  0
    5.2256   -2.5476   -2.3886 H   0  0  0  0  0  0  0  0  0  0  0  0
  1  2  2  0  0  0  0
  1  3  1  0  0  0  0
  1  7  1  0  0  0  0
  3  4  1  0  0  0  0
  3  5  1  0  0  0  0
  3  6  1  0  0  0  0
  7  8  1  0  0  0  0
  7 12  1  0  0  0  0
  8  9  1  0  0  0  0
  8 11  1  0  0  0  0
  8 13  1  0  0  0  0
  9 10  2  0  0  0  0
  9 17  1  0  0  0  0
 11 14  1  0  0  0  0
 11 15  1  0  0  0  0
 11 16  1  0  0  0  0
 17 18  1  0  0  0  0
 17 21  1  0  0  0  0
 18 19  1  0  0  0  0
 18 22  1  0  0  0  0
 18 23  1  0  0  0  0
 19 20  2  0  0  0  0
 19 24  1  0  0  0  0
 24 25  1  0  0  0  0
 24 29  1  0  0  0  0
 25 26  1  0  0  0  0
 25 28  1  0  0  0  0
 25 30  1  0  0  0  0
 26 27  2  0  0  0  0
 26 34  1  0  0  0  0
 28 31  1  0  0  0  0
 28 32  1  0  0  0  0
 28 33  1  0  0  0  0
 34 35  1  0  0  0  0
 34 36  1  0  0  0  0
 35 37  1  0  0  0  0
 35 38  1  0  0  0  0
 35 39  1  0  0  0  0
M  END
$$$$

  -OEChem-05262216283D

 39 38  0     1  0  0  0  0  0999 V2000
   -3.8984   -2.8461   -3.2764 C   0  0  0  0  0  0  0  0  0  0  0  0
   -3.1253   -3.2784   -4.1163 O   0  0  0  0  0  0  0  0  0  0  0  0
   -5.2827   -3.4508   -3.1343 C   0  0  0  0  0  0  0  0  0  0  0  0
   -6.0425   -2.6723   -3.2358 H   0  0  0  0  0  0  0  0  0  0  0  0
   -5.4466   -4.2045   -3.9096 H   0  0  0  0  0  0  0  0  0  0  0  0
   -5.3841   -3.9242   -2.1546 H   0  0  0  0  0  0  0  0  0  0  0  0
   -3.5159   -1.8119   -2.4487 N   0  0  0  0  0  0  0  0  0  0  0  0
   -2.1567   -1.2586   -2.3836 C   0  0  2  0  0  0  0  0  0  0  0  0
   -1.8276   -0.7390   -0.9676 C   0  0  0  0  0  0  0  0  0  0  0  0
   -2.7068   -0.6426   -0.1176 O   0  0  0  0  0  0  0  0  0  0  0  0
   -2.0377   -0.1331   -3.4163 C   0  0  0  0  0  0  0  0  0  0  0  0
   -4.1416   -1.5739   -1.6799 H   0  0  0  0  0  0  0  0  0  0  0  0
   -1.4264   -2.0404   -2.6202 H   0  0  0  0  0  0  0  0  0  0  0  0
   -2.7546    0.6647   -3.1981 H   0  0  0  0  0  0  0  0  0  0  0  0
   -1.0285    0.2905   -3.4098 H   0  0  0  0  0  0  0  0  0  0  0  0
   -2.2398   -0.5189   -4.4206 H   0  0  0  0  0  0  0  0  0  0  0  0
   -0.5368   -0.3815   -0.6360 N   0  0  0  0  0  0  0  0  0  0  0  0
   -0.0971   -0.0195    0.7229 C   0  0  0  0  0  0  0  0  0  0  0  0
    1.2686    0.6699    0.6769 C   0  0  0  0  0  0  0  0  0  0  0  0
    2.2182    0.1583    1.2503 O   0  0  0  0  0  0  0  0  0  0  0  0
    0.1840   -0.5321   -1.3522 H   0  0  0  0  0  0  0  0  0  0  0  0
   -0.0290   -0.9173    1.3456 H   0  0  0  0  0  0  0  0  0  0  0  0
   -0.8152    0.6609    1.1907 H   0  0  0  0  0  0  0  0  0  0  0  0
    1.4612    1.6489   -0.2850 N   0  0  0  0  0  0  0  0  0  0  0  0
    2.6643    1.6831   -1.1361 C   0  0  2  0  0  0  0  0  0  0  0  0
    2.7973    0.3696   -1.9490 C   0  0  0  0  0  0  0  0  0  0  0  0
    1.7803   -0.1460   -2.4106 O   0  0  0  0  0  0  0  0  0  0  0  0
    3.9288    2.0607   -0.3447 C   0  0  0  0  0  0  0  0  0  0  0  0
    0.5957    1.8839   -0.7647 H   0  0  0  0  0  0  0  0  0  0  0  0
    2.5161    2.4787   -1.8726 H   0  0  0  0  0  0  0  0  0  0  0  0
    4.2640    1.2391    0.2948 H   0  0  0  0  0  0  0  0  0  0  0  0
    4.7428    2.3134   -1.0304 H   0  0  0  0  0  0  0  0  0  0  0  0
    3.7303    2.9316    0.2876 H   0  0  0  0  0  0  0  0  0  0  0  0
    4.0213   -0.2285   -2.1844 N   0  0  0  0  0  0  0  0  0  0  0  0
    4.1598   -1.5115   -2.8629 C   0  0  0  0  0  0  0  0  0  0  0  0
    4.8154    0.1345   -1.6647 H   0  0  0  0  0  0  0  0  0  0  0  0
    3.6545   -2.3011   -2.2971 H   0  0  0  0  0  0  0  0  0  0  0  0
    3.7247   -1.4637   -3.8667 H   0  0  0  0  0  0  0  0  0  0  0  0
    5.2169   -1.7767   -2.9593 H   0  0  0  0  0  0  0  0  0  0  0  0
  1  2  2  0  0  0  0
  1  3  1  0  0  0  0
  1  7  1  0  0  0  0
  3  4  1  0  0  0  0
  3  5  1  0  0  0  0
  3  6  1  0  0  0  0
  7  8  1  0  0  0  0
  7 12  1  0  0  0  0
  8  9  1  0  0  0  0
  8 11  1  0  0  0  0
  8 13  1  0  0  0  0
  9 10  2  0  0  0  0
  9 17  1  0  0  0  0
 11 14  1  0  0  0  0
 11 15  1  0  0  0  0
 11 16  1  0  0  0  0
 17 18  1  0  0  0  0
 17 21  1  0  0  0  0
 18 19  1  0  0  0  0
 18 22  1  0  0  0  0
 18 23  1  0  0  0  0
 19 20  2  0  0  0  0
 19 24  1  0  0  0  0
 24 25  1  0  0  0  0
 24 29  1  0  0  0  0
 25 26  1  0  0  0  0
 25 28  1  0  0  0  0
 25 30  1  0  0  0  0
 26 27  2  0  0  0  0
 26 34  1  0  0  0  0
 28 31  1  0  0  0  0
 28 32  1  0  0  0  0
 28 33  1  0  0  0  0
 34 35  1  0  0  0  0
 34 36  1  0  0  0  0
 35 37  1  0  0  0  0
 35 38  1  0  0  0  0
 35 39  1  0  0  0  0
M  END
$$$$

  -OEChem-05262216283D

 39 38  0     1  0  0  0  0  0999 V2000
   -3.8157   -2.7379   -3.3655 C   0  0  0  0  0  0  0  0  0  0  0  0
   -3.0359   -3.0647   -4.2460 O   0  0  0  0  0  0  0  0  0  0  0  0
   -5.1754   -3.4039   -3.2699 C   0  0  0  0  0  0  0  0  0  0  0  0
   -5.9652   -2.6536   -3.3574 H   0  0  0  0  0  0  0  0  0  0  0  0
   -5.2939   -4.1358   -4.0739 H   0  0  0  0  0  0  0  0  0  0  0  0
   -5.2727   -3.9165   -2.3097 H   0  0  0  0  0  0  0  0  0  0  0  0
   -3.4631   -1.7680   -2.4513 N   0  0  0  0  0  0  0  0  0  0  0  0
   -2.1293   -1.1597   -2.3580 C   0  0  2  0  0  0  0  0  0  0  0  0
   -1.8065   -0.7257   -0.9123 C   0  0  0  0  0  0  0  0  0  0  0  0
   -2.6873   -0.6914   -0.0587 O   0  0  0  0  0  0  0  0  0  0  0  0
   -2.0730    0.0394   -3.3097 C   0  0  0  0  0  0  0  0  0  0  0  0
   -4.0913   -1.6158   -1.6629 H   0  0  0  0  0  0  0  0  0  0  0  0
   -1.3680   -1.8893   -2.6557 H   0  0  0  0  0  0  0  0  0  0  0  0
   -2.8189    0.7885   -3.0265 H   0  0  0  0  0  0  0  0  0  0  0  0
   -1.0825    0.5038   -3.2855 H   0  0  0  0  0  0  0  0  0  0  0  0
   -2.2741   -0.2831   -4.3362 H   0  0  0  0  0  0  0  0  0  0  0  0
   -0.5214   -0.3722   -0.5574 N   0  0  0  0  0  0  0  0  0  0  0  0
   -0.1074    0.0175    0.8001 C   0  0  0  0  0  0  0  0  0  0  0  0
    1.2651    0.6895    0.7497 C   0  0  0  0  0  0  0  0  0  0  0  0
    2.2535    0.0728    1.1185 O   0  0  0  0  0  0  0  0  0  0  0  0
    0.1907   -0.3878   -1.2973 H   0  0  0  0  0  0  0  0  0  0  0  0
   -0.0551   -0.8655    1.4449 H   0  0  0  0  0  0  0  0  0  0  0  0
   -0.8284    0.7137    1.2394 H   0  0  0  0  0  0  0  0  0  0  0  0
    1.3881    1.8415   -0.0101 N   0  0  0  0  0  0  0  0  0  0  0  0
    2.5326    2.0513   -0.9159 C   0  0  2  0  0  0  0  0  0  0  0  0
    2.6595    0.8886   -1.9359 C   0  0  0  0  0  0  0  0  0  0  0  0
    1.6364    0.3878   -2.4006 O   0  0  0  0  0  0  0  0  0  0  0  0
    3.8288    2.3426   -0.1394 C   0  0  0  0  0  0  0  0  0  0  0  0
    0.4933    2.1641   -0.3694 H   0  0  0  0  0  0  0  0  0  0  0  0
    2.3194    2.9477   -1.5061 H   0  0  0  0  0  0  0  0  0  0  0  0
    4.2150    1.4436    0.3496 H   0  0  0  0  0  0  0  0  0  0  0  0
    4.5992    2.7217   -0.8174 H   0  0  0  0  0  0  0  0  0  0  0  0
    3.6446    3.1002    0.6286 H   0  0  0  0  0  0  0  0  0  0  0  0
    3.8886    0.4127   -2.3542 N   0  0  0  0  0  0  0  0  0  0  0  0
    4.0354   -0.7469   -3.2263 C   0  0  0  0  0  0  0  0  0  0  0  0
    4.7022    0.7365   -1.8388 H   0  0  0  0  0  0  0  0  0  0  0  0
    3.6236   -1.6414   -2.7470 H   0  0  0  0  0  0  0  0  0  0  0  0
    3.5138   -0.5836   -4.1754 H   0  0  0  0  0  0  0  0  0  0  0  0
    5.0930   -0.9252   -3.4433 H   0  0  0  0  0  0  0  0  0  0  0  0
  1  2  2  0  0  0  0
  1  3  1  0  0  0  0
  1  7  1  0  0  0  0
  3  4  1  0  0  0  0
  3  5  1  0  0  0  0
  3  6  1  0  0  0  0
  7  8  1  0  0  0  0
  7 12  1  0  0  0  0
  8  9  1  0  0  0  0
  8 11  1  0  0  0  0
  8 13  1  0  0  0  0
  9 10  2  0  0  0  0
  9 17  1  0  0  0  0
 11 14  1  0  0  0  0
 11 15  1  0  0  0  0
 11 16  1  0  0  0  0
 17 18  1  0  0  0  0
 17 21  1  0  0  0  0
 18 19  1  0  0  0  0
 18 22  1  0  0  0  0
 18 23  1  0  0  0  0
 19 20  2  0  0  0  0
 19 24  1  0  0  0  0
 24 25  1  0  0  0  0
 24 29  1  0  0  0  0
 25 26  1  0  0  0  0
 25 28  1  0  0  0  0
 25 30  1  0  0  0  0
 26 27  2  0  0  0  0
 26 34  1  0  0  0  0
 28 31  1  0  0  0  0
 28 32  1  0  0  0  0
 28 33  1  0  0  0  0
 34 35  1  0  0  0  0
 34 36  1  0  0  0  0
 35 37  1  0  0  0  0
 35 38  1  0  0  0  0
 35 39  1  0  0  0  0
M  END
$$$$

  -OEChem-05262216283D

 39 38  0     1  0  0  0  0  0999 V2000
   -3.7295   -2.6555   -3.4267 C   0  0  0  0  0  0  0  0  0  0  0  0
   -2.9419   -2.9072   -4.3248 O   0  0  0  0  0  0  0  0  0  0  0  0
   -5.0550   -3.3895   -3.3506 C   0  0  0  0  0  0  0  0  0  0  0  0
   -5.8808   -2.6743   -3.3723 H   0  0  0  0  0  0  0  0  0  0  0  0
   -5.1579   -4.0715   -4.1992 H   0  0  0  0  0  0  0  0  0  0  0  0
   -5.1072   -3.9680   -2.4251 H   0  0  0  0  0  0  0  0  0  0  0  0
   -3.4139   -1.7143   -2.4702 N   0  0  0  0  0  0  0  0  0  0  0  0
   -2.1025   -1.0649   -2.3445 C   0  0  2  0  0  0  0  0  0  0  0  0
   -1.7779   -0.7320   -0.8725 C   0  0  0  0  0  0  0  0  0  0  0  0
   -2.6564   -0.7698   -0.0164 O   0  0  0  0  0  0  0  0  0  0  0  0
   -2.1081    0.2067   -3.1985 C   0  0  0  0  0  0  0  0  0  0  0  0
   -4.0428   -1.6290   -1.6726 H   0  0  0  0  0  0  0  0  0  0  0  0
   -1.3172   -1.7377   -2.7067 H   0  0  0  0  0  0  0  0  0  0  0  0
   -2.8805    0.8992   -2.8495 H   0  0  0  0  0  0  0  0  0  0  0  0
   -1.1377    0.7094   -3.1461 H   0  0  0  0  0  0  0  0  0  0  0  0
   -2.3088   -0.0412   -4.2456 H   0  0  0  0  0  0  0  0  0  0  0  0
   -0.4988   -0.3768   -0.4975 N   0  0  0  0  0  0  0  0  0  0  0  0
   -0.1175    0.0229    0.8657 C   0  0  0  0  0  0  0  0  0  0  0  0
    1.2553    0.6932    0.8347 C   0  0  0  0  0  0  0  0  0  0  0  0
    2.2646    0.0188    0.9811 O   0  0  0  0  0  0  0  0  0  0  0  0
    0.1912   -0.2544   -1.2472 H   0  0  0  0  0  0  0  0  0  0  0  0
   -0.0743   -0.8557    1.5169 H   0  0  0  0  0  0  0  0  0  0  0  0
   -0.8499    0.7186    1.2862 H   0  0  0  0  0  0  0  0  0  0  0  0
    1.3304    1.9852    0.3412 N   0  0  0  0  0  0  0  0  0  0  0  0
    2.4131    2.3851   -0.5768 C   0  0  2  0  0  0  0  0  0  0  0  0
    2.5209    1.4170   -1.7868 C   0  0  0  0  0  0  0  0  0  0  0  0
    1.4930    0.9497   -2.2749 O   0  0  0  0  0  0  0  0  0  0  0  0
    3.7384    2.5841    0.1787 C   0  0  0  0  0  0  0  0  0  0  0  0
    0.4168    2.3737    0.1223 H   0  0  0  0  0  0  0  0  0  0  0  0
    2.1435    3.3598   -0.9947 H   0  0  0  0  0  0  0  0  0  0  0  0
    4.1586    1.6288    0.5069 H   0  0  0  0  0  0  0  0  0  0  0  0
    4.4719    3.0801   -0.4641 H   0  0  0  0  0  0  0  0  0  0  0  0
    3.5776    3.2111    1.0612 H   0  0  0  0  0  0  0  0  0  0  0  0
    3.7402    1.0784   -2.3441 N   0  0  0  0  0  0  0  0  0  0  0  0
    3.8778    0.0827   -3.4002 C   0  0  0  0  0  0  0  0  0  0  0  0
    4.5690    1.3454   -1.8208 H   0  0  0  0  0  0  0  0  0  0  0  0
    3.5447   -0.8988   -3.0467 H   0  0  0  0  0  0  0  0  0  0  0  0
    3.2807    0.3646   -4.2738 H   0  0  0  0  0  0  0  0  0  0  0  0
    4.9237    0.0031   -3.7111 H   0  0  0  0  0  0  0  0  0  0  0  0
  1  2  2  0  0  0  0
  1  3  1  0  0  0  0
  1  7  1  0  0  0  0
  3  4  1  0  0  0  0
  3  5  1  0  0  0  0
  3  6  1  0  0  0  0
  7  8  1  0  0  0  0
  7 12  1  0  0  0  0
  8  9  1  0  0  0  0
  8 11  1  0  0  0  0
  8 13  1  0  0  0  0
  9 10  2  0  0  0  0
  9 17  1  0  0  0  0
 11 14  1  0  0  0  0
 11 15  1  0  0  0  0
 11 16  1  0  0  0  0
 17 18  1  0  0  0  0
 17 21  1  0  0  0  0
 18 19  1  0  0  0  0
 18 22  1  0  0  0  0
 18 23  1  0  0  0  0
 19 20  2  0  0  0  0
 19 24  1  0  0  0  0
 24 25  1  0  0  0  0
 24 29  1  0  0  0  0
 25 26  1  0  0  0  0
 25 28  1  0  0  0  0
 25 30  1  0  0  0  0
 26 27  2  0  0  0  0
 26 34  1  0  0  0  0
 28 31  1  0  0  0  0
 28 32  1  0  0  0  0
 28 33  1  0  0  0  0
 34 35  1  0  0  0  0
 34 36  1  0  0  0  0
 35 37  1  0  0  0  0
 35 38  1  0  0  0  0
 35 39  1  0  0  0  0
M  END
$$$$

  -OEChem-05262216283D

 39 38  0     1  0  0  0  0  0999 V2000
   -3.7629   -2.5958   -3.4311 C   0  0  0  0  0  0  0  0  0  0  0  0
   -2.9796   -2.8812   -4.3228 O   0  0  0  0  0  0  0  0  0  0  0  0
   -5.1403   -3.2309   -3.3980 C   0  0  0  0  0  0  0  0  0  0  0  0
   -5.9090   -2.4550   -3.4295 H   0  0  0  0  0  0  0  0  0  0  0  0
   -5.2713   -3.8917   -4.2594 H   0  0  0  0  0  0  0  0  0  0  0  0
   -5.2603   -3.8164   -2.4832 H   0  0  0  0  0  0  0  0  0  0  0  0
   -3.3993   -1.6996   -2.4490 N   0  0  0  0  0  0  0  0  0  0  0  0
   -2.0516   -1.1351   -2.2967 C   0  0  2  0  0  0  0  0  0  0  0  0
   -1.7367   -0.8173   -0.8188 C   0  0  0  0  0  0  0  0  0  0  0  0
   -2.6168   -0.8878    0.0341 O   0  0  0  0  0  0  0  0  0  0  0  0
   -1.9542    0.1284   -3.1579 C   0  0  0  0  0  0  0  0  0  0  0  0
   -4.0307   -1.5932   -1.6557 H   0  0  0  0  0  0  0  0  0  0  0  0
   -1.3059   -1.8612   -2.6382 H   0  0  0  0  0  0  0  0  0  0  0  0
   -2.6811    0.8757   -2.8252 H   0  0  0  0  0  0  0  0  0  0  0  0
   -0.9522    0.5628   -3.0936 H   0  0  0  0  0  0  0  0  0  0  0  0
   -2.1546   -0.1113   -4.2068 H   0  0  0  0  0  0  0  0  0  0  0  0
   -0.4666   -0.4400   -0.4326 N   0  0  0  0  0  0  0  0  0  0  0  0
   -0.1128   -0.0306    0.9342 C   0  0  0  0  0  0  0  0  0  0  0  0
    1.2484    0.6643    0.9268 C   0  0  0  0  0  0  0  0  0  0  0  0
    2.2682   -0.0053    0.8380 O   0  0  0  0  0  0  0  0  0  0  0  0
    0.2145   -0.2615   -1.1756 H   0  0  0  0  0  0  0  0  0  0  0  0
   -0.0619   -0.9074    1.5871 H   0  0  0  0  0  0  0  0  0  0  0  0
   -0.8666    0.6494    1.3425 H   0  0  0  0  0  0  0  0  0  0  0  0
    1.2839    2.0365    0.7411 N   0  0  0  0  0  0  0  0  0  0  0  0
    2.3158    2.6597   -0.1086 C   0  0  2  0  0  0  0  0  0  0  0  0
    2.4041    1.9791   -1.5029 C   0  0  0  0  0  0  0  0  0  0  0  0
    1.3790    1.5614   -2.0384 O   0  0  0  0  0  0  0  0  0  0  0  0
    3.6622    2.7319    0.6318 C   0  0  0  0  0  0  0  0  0  0  0  0
    0.3585    2.4513    0.6731 H   0  0  0  0  0  0  0  0  0  0  0  0
    2.0064    3.6920   -0.2980 H   0  0  0  0  0  0  0  0  0  0  0  0
    4.1118    1.7404    0.7388 H   0  0  0  0  0  0  0  0  0  0  0  0
    4.3632    3.3716    0.0874 H   0  0  0  0  0  0  0  0  0  0  0  0
    3.5185    3.1548    1.6308 H   0  0  0  0  0  0  0  0  0  0  0  0
    3.6060    1.8532   -2.1756 N   0  0  0  0  0  0  0  0  0  0  0  0
    3.7394    1.1149   -3.4260 C   0  0  0  0  0  0  0  0  0  0  0  0
    4.4475    2.0672   -1.6485 H   0  0  0  0  0  0  0  0  0  0  0  0
    3.4875    0.0594   -3.2763 H   0  0  0  0  0  0  0  0  0  0  0  0
    3.0749    1.5309   -4.1908 H   0  0  0  0  0  0  0  0  0  0  0  0
    4.7680    1.1775   -3.7942 H   0  0  0  0  0  0  0  0  0  0  0  0
  1  2  2  0  0  0  0
  1  3  1  0  0  0  0
  1  7  1  0  0  0  0
  3  4  1  0  0  0  0
  3  5  1  0  0  0  0
  3  6  1  0  0  0  0
  7  8  1  0  0  0  0
  7 12  1  0  0  0  0
  8  9  1  0  0  0  0
  8 11  1  0  0  0  0
  8 13  1  0  0  0  0
  9 10  2  0  0  0  0
  9 17  1  0  0  0  0
 11 14  1  0  0  0  0
 11 15  1  0  0  0  0
 11 16  1  0  0  0  0
 17 18  1  0  0  0  0
 17 21  1  0  0  0  0
 18 19  1  0  0  0  0
 18 22  1  0  0  0  0
 18 23  1  0  0  0  0
 19 20  2  0  0  0  0
 19 24  1  0  0  0  0
 24 25  1  0  0  0  0
 24 29  1  0  0  0  0
 25 26  1  0  0  0  0
 25 28  1  0  0  0  0
 25 30  1  0  0  0  0
 26 27  2  0  0  0  0
 26 34  1  0  0  0  0
 28 31  1  0  0  0  0
 28 32  1  0  0  0  0
 28 33  1  0  0  0  0
 34 35  1  0  0  0  0
 34 36  1  0  0  0  0
 35 37  1  0  0  0  0
 35 38  1  0  0  0  0
 35 39  1  0  0  0  0
M  END
$$$$

  -OEChem-05262216283D

 39 38  0     1  0  0  0  0  0999 V2000
   -4.7284   -3.3140   -2.2182 C   0  0  0  0  0  0  0  0  0  0  0  0
   -4.1559   -4.3718   -2.0090 O   0  0  0  0  0  0  0  0  0  0  0  0
   -6.2274   -3.2918   -2.4514 C   0  0  0  0  0  0  0  0  0  0  0  0
   -6.4440   -2.8846   -3.4419 H   0  0  0  0  0  0  0  0  0  0  0  0
   -6.6331   -4.3055   -2.3908 H   0  0  0  0  0  0  0  0  0  0  0  0
   -6.7148   -2.6715   -1.6953 H   0  0  0  0  0  0  0  0  0  0  0  0
   -4.0129   -2.1358   -2.2416 N   0  0  0  0  0  0  0  0  0  0  0  0
   -2.5900   -2.0212   -1.8955 C   0  0  2  0  0  0  0  0  0  0  0  0
   -2.2632   -0.6387   -1.2913 C   0  0  0  0  0  0  0  0  0  0  0  0
   -3.0967    0.2607   -1.3167 O   0  0  0  0  0  0  0  0  0  0  0  0
   -1.7623   -2.2670   -3.1613 C   0  0  0  0  0  0  0  0  0  0  0  0
   -4.5430   -1.2663   -2.2924 H   0  0  0  0  0  0  0  0  0  0  0  0
   -2.3320   -2.7752   -1.1439 H   0  0  0  0  0  0  0  0  0  0  0  0
   -1.9924   -1.5125   -3.9204 H   0  0  0  0  0  0  0  0  0  0  0  0
   -0.6922   -2.2225   -2.9374 H   0  0  0  0  0  0  0  0  0  0  0  0
   -1.9851   -3.2562   -3.5743 H   0  0  0  0  0  0  0  0  0  0  0  0
   -1.0353   -0.3971   -0.7056 N   0  0  0  0  0  0  0  0  0  0  0  0
   -0.7031    0.8441    0.0080 C   0  0  0  0  0  0  0  0  0  0  0  0
    0.8063    0.9877    0.2237 C   0  0  0  0  0  0  0  0  0  0  0  0
    1.3840    0.2102    0.9711 O   0  0  0  0  0  0  0  0  0  0  0  0
   -0.4021   -1.1879   -0.5995 H   0  0  0  0  0  0  0  0  0  0  0  0
   -1.1991    0.8566    0.9831 H   0  0  0  0  0  0  0  0  0  0  0  0
   -1.0594    1.7113   -0.5571 H   0  0  0  0  0  0  0  0  0  0  0  0
    1.5446    1.8745   -0.5346 N   0  0  0  0  0  0  0  0  0  0  0  0
    2.9911    2.0901   -0.4003 C   0  0  2  0  0  0  0  0  0  0  0  0
    3.3886    3.5209   -0.8227 C   0  0  0  0  0  0  0  0  0  0  0  0
    2.5851    4.2300   -1.4190 O   0  0  0  0  0  0  0  0  0  0  0  0
    3.7207    1.0537   -1.2619 C   0  0  0  0  0  0  0  0  0  0  0  0
    1.0347    2.5429   -1.1131 H   0  0  0  0  0  0  0  0  0  0  0  0
    3.2849    1.9622    0.6472 H   0  0  0  0  0  0  0  0  0  0  0  0
    3.4487    1.1725   -2.3157 H   0  0  0  0  0  0  0  0  0  0  0  0
    4.8046    1.1674   -1.1662 H   0  0  0  0  0  0  0  0  0  0  0  0
    3.4533    0.0406   -0.9455 H   0  0  0  0  0  0  0  0  0  0  0  0
    4.6441    4.0200   -0.5280 N   0  0  0  0  0  0  0  0  0  0  0  0
    5.0792    5.3611   -0.9002 C   0  0  0  0  0  0  0  0  0  0  0  0
    5.2869    3.4147   -0.0255 H   0  0  0  0  0  0  0  0  0  0  0  0
    5.0766    5.4763   -1.9893 H   0  0  0  0  0  0  0  0  0  0  0  0
    4.4147    6.1145   -0.4642 H   0  0  0  0  0  0  0  0  0  0  0  0
    6.0944    5.5453   -0.5359 H   0  0  0  0  0  0  0  0  0  0  0  0
  1  2  2  0  0  0  0
  1  3  1  0  0  0  0
  1  7  1  0  0  0  0
  3  4  1  0  0  0  0
  3  5  1  0  0  0  0
  3  6  1  0  0  0  0
  7  8  1  0  0  0  0
  7 12  1  0  0  0  0
  8  9  1  0  0  0  0
  8 11  1  0  0  0  0
  8 13  1  0  0  0  0
  9 10  2  0  0  0  0
  9 17  1  0  0  0  0
 11 14  1  0  0  0  0
 11 15  1  0  0  0  0
 11 16  1  0  0  0  0
 17 18  1  0  0  0  0
 17 21  1  0  0  0  0
 18 19  1  0  0  0  0
 18 22  1  0  0  0  0
 18 23  1  0  0  0  0
 19 20  2  0  0  0  0
 19 24  1  0  0  0  0
 24 25  1  0  0  0  0
 24 29  1  0  0  0  0
 25 26  1  0  0  0  0
 25 28  1  0  0  0  0
 25 30  1  0  0  0  0
 26 27  2  0  0  0  0
 26 34  1  0  0  0  0
 28 31  1  0  0  0  0
 28 32  1  0  0  0  0
 28 33  1  0  0  0  0
 34 35  1  0  0  0  0
 34 36  1  0  0  0  0
 35 37  1  0  0  0  0
 35 38  1  0  0  0  0
 35 39  1  0  0  0  0
M  END
$$$$

  -OEChem-05262216283D

 39 38  0     1  0  0  0  0  0999 V2000
   -4.6824   -3.3466   -2.2721 C   0  0  0  0  0  0  0  0  0  0  0  0
   -4.0893   -4.4014   -2.1109 O   0  0  0  0  0  0  0  0  0  0  0  0
   -6.1841   -3.3422   -2.4865 C   0  0  0  0  0  0  0  0  0  0  0  0
   -6.4209   -2.8857   -3.4505 H   0  0  0  0  0  0  0  0  0  0  0  0
   -6.5698   -4.3655   -2.4766 H   0  0  0  0  0  0  0  0  0  0  0  0
   -6.6736   -2.7743   -1.6917 H   0  0  0  0  0  0  0  0  0  0  0  0
   -3.9890   -2.1553   -2.2533 N   0  0  0  0  0  0  0  0  0  0  0  0
   -2.5654   -2.0302   -1.9149 C   0  0  2  0  0  0  0  0  0  0  0  0
   -2.2512   -0.6597   -1.2778 C   0  0  0  0  0  0  0  0  0  0  0  0
   -3.0989    0.2268   -1.2594 O   0  0  0  0  0  0  0  0  0  0  0  0
   -1.7418   -2.2362   -3.1904 C   0  0  0  0  0  0  0  0  0  0  0  0
   -4.5352   -1.2945   -2.2643 H   0  0  0  0  0  0  0  0  0  0  0  0
   -2.2934   -2.7982   -1.1826 H   0  0  0  0  0  0  0  0  0  0  0  0
   -1.9905   -1.4735   -3.9350 H   0  0  0  0  0  0  0  0  0  0  0  0
   -0.6716   -2.1757   -2.9721 H   0  0  0  0  0  0  0  0  0  0  0  0
   -1.9485   -3.2217   -3.6194 H   0  0  0  0  0  0  0  0  0  0  0  0
   -1.0173   -0.4151   -0.7074 N   0  0  0  0  0  0  0  0  0  0  0  0
   -0.6813    0.8125    0.0266 C   0  0  0  0  0  0  0  0  0  0  0  0
    0.8321    0.9594    0.2157 C   0  0  0  0  0  0  0  0  0  0  0  0
    1.4705    0.0283    0.6897 O   0  0  0  0  0  0  0  0  0  0  0  0
   -0.3565   -1.1894   -0.6561 H   0  0  0  0  0  0  0  0  0  0  0  0
   -1.1586    0.8019    1.0110 H   0  0  0  0  0  0  0  0  0  0  0  0
   -1.0547    1.6861   -0.5169 H   0  0  0  0  0  0  0  0  0  0  0  0
    1.5062    2.0520   -0.2925 N   0  0  0  0  0  0  0  0  0  0  0  0
    2.9496    2.2803   -0.1498 C   0  0  2  0  0  0  0  0  0  0  0  0
    3.2819    3.7871   -0.1142 C   0  0  0  0  0  0  0  0  0  0  0  0
    2.4323    4.6103   -0.4372 O   0  0  0  0  0  0  0  0  0  0  0  0
    3.6647    1.5997   -1.3212 C   0  0  0  0  0  0  0  0  0  0  0  0
    0.9507    2.8382   -0.6309 H   0  0  0  0  0  0  0  0  0  0  0  0
    3.2997    1.8442    0.7921 H   0  0  0  0  0  0  0  0  0  0  0  0
    3.3392    2.0340   -2.2720 H   0  0  0  0  0  0  0  0  0  0  0  0
    4.7481    1.7228   -1.2333 H   0  0  0  0  0  0  0  0  0  0  0  0
    3.4405    0.5284   -1.3330 H   0  0  0  0  0  0  0  0  0  0  0  0
    4.5315    4.2239    0.2861 N   0  0  0  0  0  0  0  0  0  0  0  0
    4.9053    5.6321    0.3416 C   0  0  0  0  0  0  0  0  0  0  0  0
    5.2135    3.5215    0.5574 H   0  0  0  0  0  0  0  0  0  0  0  0
    4.8499    6.0828   -0.6550 H   0  0  0  0  0  0  0  0  0  0  0  0
    4.2365    6.1798    1.0140 H   0  0  0  0  0  0  0  0  0  0  0  0
    5.9296    5.7377    0.7119 H   0  0  0  0  0  0  0  0  0  0  0  0
  1  2  2  0  0  0  0
  1  3  1  0  0  0  0
  1  7  1  0  0  0  0
  3  4  1  0  0  0  0
  3  5  1  0  0  0  0
  3  6  1  0  0  0  0
  7  8  1  0  0  0  0
  7 12  1  0  0  0  0
  8  9  1  0  0  0  0
  8 11  1  0  0  0  0
  8 13  1  0  0  0  0
  9 10  2  0  0  0  0
  9 17  1  0  0  0  0
 11 14  1  0  0  0  0
 11 15  1  0  0  0  0
 11 16  1  0  0  0  0
 17 18  1  0  0  0  0
 17 21  1  0  0  0  0
 18 19  1  0  0  0  0
 18 22  1  0  0  0  0
 18 23  1  0  0  0  0
 19 20  2  0  0  0  0
 19 24  1  0  0  0  0
 24 25  1  0  0  0  0
 24 29  1  0  0  0  0
 25 26  1  0  0  0  0
 25 28  1  0  0  0  0
 25 30  1  0  0  0  0
 26 27  2  0  0  0  0
 26 34  1  0  0  0  0
 28 31  1  0  0  0  0
 28 32  1  0  0  0  0
 28 33  1  0  0  0  0
 34 35  1  0  0  0  0
 34 36  1  0  0  0  0
 35 37  1  0  0  0  0
 35 38  1  0  0  0  0
 35 39  1  0  0  0  0
M  END
$$$$

  -OEChem-05262216283D

 39 38  0     1  0  0  0  0  0999 V2000
   -4.6083   -3.3730   -2.3622 C   0  0  0  0  0  0  0  0  0  0  0  0
   -3.9813   -4.4132   -2.2392 O   0  0  0  0  0  0  0  0  0  0  0  0
   -6.1083   -3.4102   -2.5855 C   0  0  0  0  0  0  0  0  0  0  0  0
   -6.3583   -2.9099   -3.5243 H   0  0  0  0  0  0  0  0  0  0  0  0
   -6.4563   -4.4461   -2.6345 H   0  0  0  0  0  0  0  0  0  0  0  0
   -6.6206   -2.9044   -1.7634 H   0  0  0  0  0  0  0  0  0  0  0  0
   -3.9554   -2.1610   -2.2895 N   0  0  0  0  0  0  0  0  0  0  0  0
   -2.5373   -2.0024   -1.9430 C   0  0  2  0  0  0  0  0  0  0  0  0
   -2.2668   -0.6431   -1.2640 C   0  0  0  0  0  0  0  0  0  0  0  0
   -3.1292    0.2292   -1.2496 O   0  0  0  0  0  0  0  0  0  0  0  0
   -1.7036   -2.1392   -3.2216 C   0  0  0  0  0  0  0  0  0  0  0  0
   -4.5284   -1.3177   -2.2773 H   0  0  0  0  0  0  0  0  0  0  0  0
   -2.2431   -2.7846   -1.2348 H   0  0  0  0  0  0  0  0  0  0  0  0
   -1.9782   -1.3624   -3.9422 H   0  0  0  0  0  0  0  0  0  0  0  0
   -0.6369   -2.0458   -2.9971 H   0  0  0  0  0  0  0  0  0  0  0  0
   -1.8723   -3.1174   -3.6828 H   0  0  0  0  0  0  0  0  0  0  0  0
   -1.0508   -0.3891   -0.6617 N   0  0  0  0  0  0  0  0  0  0  0  0
   -0.7178    0.8567    0.0420 C   0  0  0  0  0  0  0  0  0  0  0  0
    0.7932    0.9860    0.2724 C   0  0  0  0  0  0  0  0  0  0  0  0
    1.4468   -0.0124    0.5506 O   0  0  0  0  0  0  0  0  0  0  0  0
   -0.3647   -1.1431   -0.6293 H   0  0  0  0  0  0  0  0  0  0  0  0
   -1.2264    0.8877    1.0100 H   0  0  0  0  0  0  0  0  0  0  0  0
   -1.0589    1.7151   -0.5453 H   0  0  0  0  0  0  0  0  0  0  0  0
    1.4496    2.1763    0.0277 N   0  0  0  0  0  0  0  0  0  0  0  0
    2.8900    2.3876    0.2224 C   0  0  2  0  0  0  0  0  0  0  0  0
    3.2061    3.8524    0.5919 C   0  0  0  0  0  0  0  0  0  0  0  0
    2.3493    4.7194    0.4587 O   0  0  0  0  0  0  0  0  0  0  0  0
    3.6168    1.9889   -1.0662 C   0  0  0  0  0  0  0  0  0  0  0  0
    0.8823    3.0087   -0.1343 H   0  0  0  0  0  0  0  0  0  0  0  0
    3.2450    1.7595    1.0464 H   0  0  0  0  0  0  0  0  0  0  0  0
    3.2849    2.6133   -1.9020 H   0  0  0  0  0  0  0  0  0  0  0  0
    4.6982    2.1071   -0.9507 H   0  0  0  0  0  0  0  0  0  0  0  0
    3.4106    0.9419   -1.3098 H   0  0  0  0  0  0  0  0  0  0  0  0
    4.4505    4.1967    1.0870 N   0  0  0  0  0  0  0  0  0  0  0  0
    4.8165    5.5565    1.4653 C   0  0  0  0  0  0  0  0  0  0  0  0
    5.1323    3.4530    1.2052 H   0  0  0  0  0  0  0  0  0  0  0  0
    4.7506    6.2259    0.6011 H   0  0  0  0  0  0  0  0  0  0  0  0
    4.1509    5.9287    2.2514 H   0  0  0  0  0  0  0  0  0  0  0  0
    5.8436    5.5806    1.8427 H   0  0  0  0  0  0  0  0  0  0  0  0
  1  2  2  0  0  0  0
  1  3  1  0  0  0  0
  1  7  1  0  0  0  0
  3  4  1  0  0  0  0
  3  5  1  0  0  0  0
  3  6  1  0  0  0  0
  7  8  1  0  0  0  0
  7 12  1  0  0  0  0
  8  9  1  0  0  0  0
  8 11  1  0  0  0  0
  8 13  1  0  0  0  0
  9 10  2  0  0  0  0
  9 17  1  0  0  0  0
 11 14  1  0  0  0  0
 11 15  1  0  0  0  0
 11 16  1  0  0  0  0
 17 18  1  0  0  0  0
 17 21  1  0  0  0  0
 18 19  1  0  0  0  0
 18 22  1  0  0  0  0
 18 23  1  0  0  0  0
 19 20  2  0  0  0  0
 19 24  1  0  0  0  0
 24 25  1  0  0  0  0
 24 29  1  0  0  0  0
 25 26  1  0  0  0  0
 25 28  1  0  0  0  0
 25 30  1  0  0  0  0
 26 27  2  0  0  0  0
 26 34  1  0  0  0  0
 28 31  1  0  0  0  0
 28 32  1  0  0  0  0
 28 33  1  0  0  0  0
 34 35  1  0  0  0  0
 34 36  1  0  0  0  0
 35 37  1  0  0  0  0
 35 38  1  0  0  0  0
 35 39  1  0  0  0  0
M  END
$$$$

  -OEChem-05262216283D

 39 38  0     1  0  0  0  0  0999 V2000
   -4.6463   -3.3260   -2.3349 C   0  0  0  0  0  0  0  0  0  0  0  0
   -4.0699   -4.3876   -2.1589 O   0  0  0  0  0  0  0  0  0  0  0  0
   -6.1438   -3.3027   -2.5779 C   0  0  0  0  0  0  0  0  0  0  0  0
   -6.3585   -2.8223   -3.5355 H   0  0  0  0  0  0  0  0  0  0  0  0
   -6.5389   -4.3222   -2.5992 H   0  0  0  0  0  0  0  0  0  0  0  0
   -6.6430   -2.7482   -1.7796 H   0  0  0  0  0  0  0  0  0  0  0  0
   -3.9395   -2.1429   -2.3046 N   0  0  0  0  0  0  0  0  0  0  0  0
   -2.5242   -2.0308   -1.9287 C   0  0  2  0  0  0  0  0  0  0  0  0
   -2.2175   -0.6583   -1.2925 C   0  0  0  0  0  0  0  0  0  0  0  0
   -3.0678    0.2261   -1.2798 O   0  0  0  0  0  0  0  0  0  0  0  0
   -1.6669   -2.2527   -3.1796 C   0  0  0  0  0  0  0  0  0  0  0  0
   -4.4769   -1.2765   -2.3221 H   0  0  0  0  0  0  0  0  0  0  0  0
   -2.2797   -2.7959   -1.1835 H   0  0  0  0  0  0  0  0  0  0  0  0
   -1.8915   -1.4950   -3.9370 H   0  0  0  0  0  0  0  0  0  0  0  0
   -0.6022   -2.1952   -2.9337 H   0  0  0  0  0  0  0  0  0  0  0  0
   -1.8670   -3.2411   -3.6053 H   0  0  0  0  0  0  0  0  0  0  0  0
   -0.9891   -0.4067   -0.7154 N   0  0  0  0  0  0  0  0  0  0  0  0
   -0.6247    0.8552   -0.0579 C   0  0  0  0  0  0  0  0  0  0  0  0
    0.8907    0.9751    0.1527 C   0  0  0  0  0  0  0  0  0  0  0  0
    1.5761   -0.0384    0.2315 O   0  0  0  0  0  0  0  0  0  0  0  0
   -0.2911   -1.1508   -0.7206 H   0  0  0  0  0  0  0  0  0  0  0  0
   -1.1220    0.9261    0.9140 H   0  0  0  0  0  0  0  0  0  0  0  0
   -0.9580    1.6987   -0.6709 H   0  0  0  0  0  0  0  0  0  0  0  0
    1.5051    2.2116    0.1600 N   0  0  0  0  0  0  0  0  0  0  0  0
    2.9249    2.4286    0.4679 C   0  0  2  0  0  0  0  0  0  0  0  0
    3.1322    3.7266    1.2764 C   0  0  0  0  0  0  0  0  0  0  0  0
    2.2328    4.5579    1.3413 O   0  0  0  0  0  0  0  0  0  0  0  0
    3.7001    2.4802   -0.8517 C   0  0  0  0  0  0  0  0  0  0  0  0
    0.9029    3.0343    0.2009 H   0  0  0  0  0  0  0  0  0  0  0  0
    3.3055    1.6016    1.0768 H   0  0  0  0  0  0  0  0  0  0  0  0
    3.3459    3.3097   -1.4723 H   0  0  0  0  0  0  0  0  0  0  0  0
    4.7695    2.6166   -0.6649 H   0  0  0  0  0  0  0  0  0  0  0  0
    3.5638    1.5464   -1.4068 H   0  0  0  0  0  0  0  0  0  0  0  0
    4.3184    3.9555    1.9486 N   0  0  0  0  0  0  0  0  0  0  0  0
    4.5624    5.1449    2.7556 C   0  0  0  0  0  0  0  0  0  0  0  0
    5.0333    3.2350    1.9043 H   0  0  0  0  0  0  0  0  0  0  0  0
    4.4908    6.0473    2.1395 H   0  0  0  0  0  0  0  0  0  0  0  0
    3.8316    5.2139    3.5681 H   0  0  0  0  0  0  0  0  0  0  0  0
    5.5635    5.1054    3.1950 H   0  0  0  0  0  0  0  0  0  0  0  0
  1  2  2  0  0  0  0
  1  3  1  0  0  0  0
  1  7  1  0  0  0  0
  3  4  1  0  0  0  0
  3  5  1  0  0  0  0
  3  6  1  0  0  0  0
  7  8  1  0  0  0  0
  7 12  1  0  0  0  0
  8  9  1  0  0  0  0
  8 11  1  0  0  0  0
  8 13  1  0  0  0  0
  9 10  2  0  0  0  0
  9 17  1  0  0  0  0
 11 14  1  0  0  0  0
 11 15  1  0  0  0  0
 11 16  1  0  0  0  0
 17 18  1  0  0  0  0
 17 21  1  0  0  0  0
 18 19  1  0  0  0  0
 18 22  1  0  0  0  0
 18 23  1  0  0  0  0
 19 20  2  0  0  0  0
 19 24  1  0  0  0  0
 24 25  1  0  0  0  0
 24 29  1  0  0  0  0
 25 26  1  0  0  0  0
 25 28  1  0  0  0  0
 25 30  1  0  0  0  0
 26 27  2  0  0  0  0
 26 34  1  0  0  0  0
 28 31  1  0  0  0  0
 28 32  1  0  0  0  0
 28 33  1  0  0  0  0
 34 35  1  0  0  0  0
 34 36  1  0  0  0  0
 35 37  1  0  0  0  0
 35 38  1  0  0  0  0
 35 39  1  0  0  0  0
M  END
$$$$

  -OEChem-05262216283D

 39 38  0     1  0  0  0  0  0999 V2000
   -4.6437   -3.2748   -2.3179 C   0  0  0  0  0  0  0  0  0  0  0  0
   -4.0715   -4.3348   -2.1197 O   0  0  0  0  0  0  0  0  0  0  0  0
   -6.1394   -3.2533   -2.5697 C   0  0  0  0  0  0  0  0  0  0  0  0
   -6.3531   -2.7384   -3.5093 H   0  0  0  0  0  0  0  0  0  0  0  0
   -6.5248   -4.2746   -2.6332 H   0  0  0  0  0  0  0  0  0  0  0  0
   -6.6478   -2.7339   -1.7541 H   0  0  0  0  0  0  0  0  0  0  0  0
   -3.9321   -2.0943   -2.3117 N   0  0  0  0  0  0  0  0  0  0  0  0
   -2.5122   -1.9820   -1.9536 C   0  0  2  0  0  0  0  0  0  0  0  0
   -2.1904   -0.6070   -1.3304 C   0  0  0  0  0  0  0  0  0  0  0  0
   -3.0148    0.3009   -1.3665 O   0  0  0  0  0  0  0  0  0  0  0  0
   -1.6745   -2.2100   -3.2159 C   0  0  0  0  0  0  0  0  0  0  0  0
   -4.4625   -1.2251   -2.3602 H   0  0  0  0  0  0  0  0  0  0  0  0
   -2.2589   -2.7447   -1.2090 H   0  0  0  0  0  0  0  0  0  0  0  0
   -1.8964   -1.4439   -3.9658 H   0  0  0  0  0  0  0  0  0  0  0  0
   -0.6064   -2.1709   -2.9819 H   0  0  0  0  0  0  0  0  0  0  0  0
   -1.8954   -3.1924   -3.6453 H   0  0  0  0  0  0  0  0  0  0  0  0
   -0.9751   -0.3776   -0.7170 N   0  0  0  0  0  0  0  0  0  0  0  0
   -0.5675    0.9096   -0.1379 C   0  0  0  0  0  0  0  0  0  0  0  0
    0.9419    0.9701    0.1362 C   0  0  0  0  0  0  0  0  0  0  0  0
    1.6124   -0.0562    0.1044 O   0  0  0  0  0  0  0  0  0  0  0  0
   -0.2841   -1.1285   -0.7176 H   0  0  0  0  0  0  0  0  0  0  0  0
   -1.1027    1.0791    0.8009 H   0  0  0  0  0  0  0  0  0  0  0  0
   -0.8249    1.7211   -0.8260 H   0  0  0  0  0  0  0  0  0  0  0  0
    1.5600    2.1795    0.3849 N   0  0  0  0  0  0  0  0  0  0  0  0
    2.9516    2.3195    0.8345 C   0  0  2  0  0  0  0  0  0  0  0  0
    3.0863    3.4274    1.9007 C   0  0  0  0  0  0  0  0  0  0  0  0
    2.1748    4.2309    2.0674 O   0  0  0  0  0  0  0  0  0  0  0  0
    3.8210    2.6304   -0.3866 C   0  0  0  0  0  0  0  0  0  0  0  0
    0.9560    2.9878    0.5363 H   0  0  0  0  0  0  0  0  0  0  0  0
    3.2948    1.3853    1.2917 H   0  0  0  0  0  0  0  0  0  0  0  0
    3.5058    3.5696   -0.8526 H   0  0  0  0  0  0  0  0  0  0  0  0
    4.8724    2.7199   -0.0975 H   0  0  0  0  0  0  0  0  0  0  0  0
    3.7342    1.8278   -1.1260 H   0  0  0  0  0  0  0  0  0  0  0  0
    4.2187    3.5135    2.6895 N   0  0  0  0  0  0  0  0  0  0  0  0
    4.3853    4.5099    3.7410 C   0  0  0  0  0  0  0  0  0  0  0  0
    4.9460    2.8179    2.5507 H   0  0  0  0  0  0  0  0  0  0  0  0
    4.3538    5.5205    3.3202 H   0  0  0  0  0  0  0  0  0  0  0  0
    3.5906    4.4147    4.4887 H   0  0  0  0  0  0  0  0  0  0  0  0
    5.3488    4.3743    4.2419 H   0  0  0  0  0  0  0  0  0  0  0  0
  1  2  2  0  0  0  0
  1  3  1  0  0  0  0
  1  7  1  0  0  0  0
  3  4  1  0  0  0  0
  3  5  1  0  0  0  0
  3  6  1  0  0  0  0
  7  8  1  0  0  0  0
  7 12  1  0  0  0  0
  8  9  1  0  0  0  0
  8 11  1  0  0  0  0
  8 13  1  0  0  0  0
  9 10  2  0  0  0  0
  9 17  1  0  0  0  0
 11 14  1  0  0  0  0
 11 15  1  0  0  0  0
 11 16  1  0  0  0  0
 17 18  1  0  0  0  0
 17 21  1  0  0  0  0
 18 19  1  0  0  0  0
 18 22  1  0  0  0  0
 18 23  1  0  0  0  0
 19 20  2  0  0  0  0
 19 24  1  0  0  0  0
 24 25  1  0  0  0  0
 24 29  1  0  0  0  0
 25 26  1  0  0  0  0
 25 28  1  0  0  0  0
 25 30  1  0  0  0  0
 26 27  2  0  0  0  0
 26 34  1  0  0  0  0
 28 31  1  0  0  0  0
 28 32  1  0  0  0  0
 28 33  1  0  0  0  0
 34 35  1  0  0  0  0
 34 36  1  0  0  0  0
 35 37  1  0  0  0  0
 35 38  1  0  0  0  0
 35 39  1  0  0  0  0
M  END
$$$$

  -OEChem-05262216283D

 39 38  0     1  0  0  0  0  0999 V2000
   -4.4273   -3.3841   -2.4153 C   0  0  0  0  0  0  0  0  0  0  0  0
   -3.7613   -4.3878   -2.2164 O   0  0  0  0  0  0  0  0  0  0  0  0
   -5.9242   -3.4968   -2.6357 C   0  0  0  0  0  0  0  0  0  0  0  0
   -6.1792   -3.1632   -3.6444 H   0  0  0  0  0  0  0  0  0  0  0  0
   -6.2444   -4.5356   -2.5158 H   0  0  0  0  0  0  0  0  0  0  0  0
   -6.4571   -2.8787   -1.9091 H   0  0  0  0  0  0  0  0  0  0  0  0
   -3.8236   -2.1446   -2.4259 N   0  0  0  0  0  0  0  0  0  0  0  0
   -2.4272   -1.9023   -2.0394 C   0  0  2  0  0  0  0  0  0  0  0  0
   -2.2667   -0.5525   -1.3087 C   0  0  0  0  0  0  0  0  0  0  0  0
   -3.1640    0.2834   -1.3477 O   0  0  0  0  0  0  0  0  0  0  0  0
   -1.5641   -1.9388   -3.3032 C   0  0  0  0  0  0  0  0  0  0  0  0
   -4.4352   -1.3296   -2.4575 H   0  0  0  0  0  0  0  0  0  0  0  0
   -2.0905   -2.6853   -1.3512 H   0  0  0  0  0  0  0  0  0  0  0  0
   -1.8755   -1.1561   -4.0022 H   0  0  0  0  0  0  0  0  0  0  0  0
   -0.5098   -1.7851   -3.0540 H   0  0  0  0  0  0  0  0  0  0  0  0
   -1.6626   -2.9094   -3.7997 H   0  0  0  0  0  0  0  0  0  0  0  0
   -1.1252   -0.2795   -0.5809 N   0  0  0  0  0  0  0  0  0  0  0  0
   -0.8164    1.0334    0.0045 C   0  0  0  0  0  0  0  0  0  0  0  0
    0.6939    1.2926    0.0921 C   0  0  0  0  0  0  0  0  0  0  0  0
    1.4894    0.4299   -0.2645 O   0  0  0  0  0  0  0  0  0  0  0  0
   -0.3463   -0.9322   -0.6734 H   0  0  0  0  0  0  0  0  0  0  0  0
   -1.2465    1.0957    1.0080 H   0  0  0  0  0  0  0  0  0  0  0  0
   -1.2572    1.8314   -0.6012 H   0  0  0  0  0  0  0  0  0  0  0  0
    1.1658    2.4788    0.6172 N   0  0  0  0  0  0  0  0  0  0  0  0
    2.5726    2.7377    0.9498 C   0  0  2  0  0  0  0  0  0  0  0  0
    2.6941    3.6499    2.1887 C   0  0  0  0  0  0  0  0  0  0  0  0
    1.7112    4.2561    2.6023 O   0  0  0  0  0  0  0  0  0  0  0  0
    3.2507    3.3789   -0.2648 C   0  0  0  0  0  0  0  0  0  0  0  0
    0.4819    3.1153    1.0279 H   0  0  0  0  0  0  0  0  0  0  0  0
    3.0772    1.7954    1.1887 H   0  0  0  0  0  0  0  0  0  0  0  0
    2.7644    4.3259   -0.5201 H   0  0  0  0  0  0  0  0  0  0  0  0
    4.3071    3.5747   -0.0578 H   0  0  0  0  0  0  0  0  0  0  0  0
    3.1880    2.7109   -1.1295 H   0  0  0  0  0  0  0  0  0  0  0  0
    3.8983    3.7729    2.8565 N   0  0  0  0  0  0  0  0  0  0  0  0
    4.0702    4.5923    4.0503 C   0  0  0  0  0  0  0  0  0  0  0  0
    4.6864    3.2314    2.5129 H   0  0  0  0  0  0  0  0  0  0  0  0
    3.8217    5.6376    3.8371 H   0  0  0  0  0  0  0  0  0  0  0  0
    3.4233    4.2339    4.8581 H   0  0  0  0  0  0  0  0  0  0  0  0
    5.1083    4.5475    4.3931 H   0  0  0  0  0  0  0  0  0  0  0  0
  1  2  2  0  0  0  0
  1  3  1  0  0  0  0
  1  7  1  0  0  0  0
  3  4  1  0  0  0  0
  3  5  1  0  0  0  0
  3  6  1  0  0  0  0
  7  8  1  0  0  0  0
  7 12  1  0  0  0  0
  8  9  1  0  0  0  0
  8 11  1  0  0  0  0
  8 13  1  0  0  0  0
  9 10  2  0  0  0  0
  9 17  1  0  0  0  0
 11 14  1  0  0  0  0
 11 15  1  0  0  0  0
 11 16  1  0  0  0  0
 17 18  1  0  0  0  0
 17 21  1  0  0  0  0
 18 19  1  0  0  0  0
 18 22  1  0  0  0  0
 18 23  1  0  0  0  0
 19 20  2  0  0  0  0
 19 24  1  0  0  0  0
 24 25  1  0  0  0  0
 24 29  1  0  0  0  0
 25 26  1  0  0  0  0
 25 28  1  0  0  0  0
 25 30  1  0  0  0  0
 26 27  2  0  0  0  0
 26 34  1  0  0  0  0
 28 31  1  0  0  0  0
 28 32  1  0  0  0  0
 28 33  1  0  0  0  0
 34 35  1  0  0  0  0
 34 36  1  0  0  0  0
 35 37  1  0  0  0  0
 35 38  1  0  0  0  0
 35 39  1  0  0  0  0
M  END
$$$$

  -OEChem-05262216283D

 39 38  0     1  0  0  0  0  0999 V2000
   -4.4532   -3.3144   -2.4698 C   0  0  0  0  0  0  0  0  0  0  0  0
   -3.8124   -4.3358   -2.2793 O   0  0  0  0  0  0  0  0  0  0  0  0
   -5.9359   -3.3949   -2.7814 C   0  0  0  0  0  0  0  0  0  0  0  0
   -6.1394   -2.9327   -3.7503 H   0  0  0  0  0  0  0  0  0  0  0  0
   -6.2580   -4.4397   -2.8147 H   0  0  0  0  0  0  0  0  0  0  0  0
   -6.5081   -2.8744   -2.0098 H   0  0  0  0  0  0  0  0  0  0  0  0
   -3.8320   -2.0858   -2.3964 N   0  0  0  0  0  0  0  0  0  0  0  0
   -2.4446   -1.8837   -1.9579 C   0  0  2  0  0  0  0  0  0  0  0  0
   -2.2684   -0.5382   -1.2231 C   0  0  0  0  0  0  0  0  0  0  0  0
   -3.1546    0.3095   -1.2588 O   0  0  0  0  0  0  0  0  0  0  0  0
   -1.5348   -1.9484   -3.1883 C   0  0  0  0  0  0  0  0  0  0  0  0
   -4.4252   -1.2577   -2.4371 H   0  0  0  0  0  0  0  0  0  0  0  0
   -2.1592   -2.6754   -1.2567 H   0  0  0  0  0  0  0  0  0  0  0  0
   -1.7968   -1.1592   -3.9000 H   0  0  0  0  0  0  0  0  0  0  0  0
   -0.4866   -1.8245   -2.8999 H   0  0  0  0  0  0  0  0  0  0  0  0
   -1.6414   -2.9168   -3.6871 H   0  0  0  0  0  0  0  0  0  0  0  0
   -1.1163   -0.2766   -0.5075 N   0  0  0  0  0  0  0  0  0  0  0  0
   -0.7693    1.0513    0.0204 C   0  0  0  0  0  0  0  0  0  0  0  0
    0.7494    1.2648    0.0961 C   0  0  0  0  0  0  0  0  0  0  0  0
    1.5097    0.4592   -0.4301 O   0  0  0  0  0  0  0  0  0  0  0  0
   -0.3416   -0.9286   -0.6331 H   0  0  0  0  0  0  0  0  0  0  0  0
   -1.1969    1.1662    1.0205 H   0  0  0  0  0  0  0  0  0  0  0  0
   -1.1864    1.8372   -0.6172 H   0  0  0  0  0  0  0  0  0  0  0  0
    1.2717    2.3050    0.8388 N   0  0  0  0  0  0  0  0  0  0  0  0
    2.6945    2.4574    1.1714 C   0  0  2  0  0  0  0  0  0  0  0  0
    2.8769    3.0877    2.5690 C   0  0  0  0  0  0  0  0  0  0  0  0
    1.9193    3.5980    3.1410 O   0  0  0  0  0  0  0  0  0  0  0  0
    3.3539    3.3231    0.0933 C   0  0  0  0  0  0  0  0  0  0  0  0
    0.6187    2.8614    1.3914 H   0  0  0  0  0  0  0  0  0  0  0  0
    3.1796    1.4755    1.1919 H   0  0  0  0  0  0  0  0  0  0  0  0
    2.8921    4.3153    0.0629 H   0  0  0  0  0  0  0  0  0  0  0  0
    4.4225    3.4423    0.2953 H   0  0  0  0  0  0  0  0  0  0  0  0
    3.2401    2.8554   -0.8901 H   0  0  0  0  0  0  0  0  0  0  0  0
    4.1086    3.0649    3.1975 N   0  0  0  0  0  0  0  0  0  0  0  0
    4.3405    3.6222    4.5254 C   0  0  0  0  0  0  0  0  0  0  0  0
    4.8800    2.6195    2.7089 H   0  0  0  0  0  0  0  0  0  0  0  0
    4.1511    4.7010    4.5263 H   0  0  0  0  0  0  0  0  0  0  0  0
    3.6823    3.1484    5.2618 H   0  0  0  0  0  0  0  0  0  0  0  0
    5.3777    3.4531    4.8311 H   0  0  0  0  0  0  0  0  0  0  0  0
  1  2  2  0  0  0  0
  1  3  1  0  0  0  0
  1  7  1  0  0  0  0
  3  4  1  0  0  0  0
  3  5  1  0  0  0  0
  3  6  1  0  0  0  0
  7  8  1  0  0  0  0
  7 12  1  0  0  0  0
  8  9  1  0  0  0  0
  8 11  1  0  0  0  0
  8 13  1  0  0  0  0
  9 10  2  0  0  0  0
  9 17  1  0  0  0  0
 11 14  1  0  0  0  0
 11 15  1  0  0  0  0
 11 16  1  0  0  0  0
 17 18  1  0  0  0  0
 17 21  1  0  0  0  0
 18 19  1  0  0  0  0
 18 22  1  0  0  0  0
 18 23  1  0  0  0  0
 19 20  2  0  0  0  0
 19 24  1  0  0  0  0
 24 25  1  0  0  0  0
 24 29  1  0  0  0  0
 25 26  1  0  0  0  0
 25 28  1  0  0  0  0
 25 30  1  0  0  0  0
 26 27  2  0  0  0  0
 26 34  1  0  0  0  0
 28 31  1  0  0  0  0
 28 32  1  0  0  0  0
 28 33  1  0  0  0  0
 34 35  1  0  0  0  0
 34 36  1  0  0  0  0
 35 37  1  0  0  0  0
 35 38  1  0  0  0  0
 35 39  1  0  0  0  0
M  END
$$$$

  -OEChem-05262216283D

 39 38  0     1  0  0  0  0  0999 V2000
   -4.4365   -3.2714   -2.3684 C   0  0  0  0  0  0  0  0  0  0  0  0
   -3.7941   -4.2883   -2.1597 O   0  0  0  0  0  0  0  0  0  0  0  0
   -5.9343   -3.3518   -2.5960 C   0  0  0  0  0  0  0  0  0  0  0  0
   -6.1825   -2.9625   -3.5864 H   0  0  0  0  0  0  0  0  0  0  0  0
   -6.2693   -4.3908   -2.5313 H   0  0  0  0  0  0  0  0  0  0  0  0
   -6.4597   -2.7648   -1.8388 H   0  0  0  0  0  0  0  0  0  0  0  0
   -3.8053   -2.0459   -2.3879 N   0  0  0  0  0  0  0  0  0  0  0  0
   -2.4029   -1.8321   -2.0071 C   0  0  2  0  0  0  0  0  0  0  0  0
   -2.2127   -0.4870   -1.2758 C   0  0  0  0  0  0  0  0  0  0  0  0
   -3.0909    0.3691   -1.3117 O   0  0  0  0  0  0  0  0  0  0  0  0
   -1.5434   -1.8845   -3.2741 C   0  0  0  0  0  0  0  0  0  0  0  0
   -4.3980   -1.2176   -2.4278 H   0  0  0  0  0  0  0  0  0  0  0  0
   -2.0785   -2.6217   -1.3206 H   0  0  0  0  0  0  0  0  0  0  0  0
   -1.8473   -1.1020   -3.9770 H   0  0  0  0  0  0  0  0  0  0  0  0
   -0.4864   -1.7412   -3.0289 H   0  0  0  0  0  0  0  0  0  0  0  0
   -1.6535   -2.8565   -3.7657 H   0  0  0  0  0  0  0  0  0  0  0  0
   -1.0584   -0.2396   -0.5593 N   0  0  0  0  0  0  0  0  0  0  0  0
   -0.6860    1.0938   -0.0643 C   0  0  0  0  0  0  0  0  0  0  0  0
    0.8369    1.2677    0.0146 C   0  0  0  0  0  0  0  0  0  0  0  0
    1.5679    0.5609   -0.6703 O   0  0  0  0  0  0  0  0  0  0  0  0
   -0.2908   -0.8954   -0.7040 H   0  0  0  0  0  0  0  0  0  0  0  0
   -1.1193    1.2450    0.9285 H   0  0  0  0  0  0  0  0  0  0  0  0
   -1.0787    1.8729   -0.7256 H   0  0  0  0  0  0  0  0  0  0  0  0
    1.3964    2.1028    0.9607 N   0  0  0  0  0  0  0  0  0  0  0  0
    2.8240    2.1307    1.3049 C   0  0  2  0  0  0  0  0  0  0  0  0
    3.0320    2.4392    2.8026 C   0  0  0  0  0  0  0  0  0  0  0  0
    2.0959    2.8503    3.4799 O   0  0  0  0  0  0  0  0  0  0  0  0
    3.5116    3.1858    0.4337 C   0  0  0  0  0  0  0  0  0  0  0  0
    0.7642    2.5435    1.6295 H   0  0  0  0  0  0  0  0  0  0  0  0
    3.2746    1.1519    1.1095 H   0  0  0  0  0  0  0  0  0  0  0  0
    3.0767    4.1738    0.6155 H   0  0  0  0  0  0  0  0  0  0  0  0
    4.5823    3.2300    0.6547 H   0  0  0  0  0  0  0  0  0  0  0  0
    3.3892    2.9403   -0.6261 H   0  0  0  0  0  0  0  0  0  0  0  0
    4.2635    2.2374    3.3978 N   0  0  0  0  0  0  0  0  0  0  0  0
    4.5191    2.4885    4.8112 C   0  0  0  0  0  0  0  0  0  0  0  0
    5.0146    1.8735    2.8183 H   0  0  0  0  0  0  0  0  0  0  0  0
    4.3500    3.5440    5.0497 H   0  0  0  0  0  0  0  0  0  0  0  0
    3.8591    1.8761    5.4350 H   0  0  0  0  0  0  0  0  0  0  0  0
    5.5560    2.2402    5.0584 H   0  0  0  0  0  0  0  0  0  0  0  0
  1  2  2  0  0  0  0
  1  3  1  0  0  0  0
  1  7  1  0  0  0  0
  3  4  1  0  0  0  0
  3  5  1  0  0  0  0
  3  6  1  0  0  0  0
  7  8  1  0  0  0  0
  7 12  1  0  0  0  0
  8  9  1  0  0  0  0
  8 11  1  0  0  0  0
  8 13  1  0  0  0  0
  9 10  2  0  0  0  0
  9 17  1  0  0  0  0
 11 14  1  0  0  0  0
 11 15  1  0  0  0  0
 11 16  1  0  0  0  0
 17 18  1  0  0  0  0
 17 21  1  0  0  0  0
 18 19  1  0  0  0  0
 18 22  1  0  0  0  0
 18 23  1  0  0  0  0
 19 20  2  0  0  0  0
 19 24  1  0  0  0  0
 24 25  1  0  0  0  0
 24 29  1  0  0  0  0
 25 26  1  0  0  0  0
 25 28  1  0  0  0  0
 25 30  1  0  0  0  0
 26 27  2  0  0  0  0
 26 34  1  0  0  0  0
 28 31  1  0  0  0  0
 28 32  1  0  0  0  0
 28 33  1  0  0  0  0
 34 35  1  0  0  0  0
 34 36  1  0  0  0  0
 35 37  1  0  0  0  0
 35 38  1  0  0  0  0
 35 39  1  0  0  0  0
M  END
$$$$

  -OEChem-05262216283D

 39 38  0     1  0  0  0  0  0999 V2000
   -4.4250   -3.2405   -2.3454 C   0  0  0  0  0  0  0  0  0  0  0  0
   -3.7699   -4.2587   -2.1885 O   0  0  0  0  0  0  0  0  0  0  0  0
   -5.9286   -3.3255   -2.5296 C   0  0  0  0  0  0  0  0  0  0  0  0
   -6.2029   -2.9637   -3.5235 H   0  0  0  0  0  0  0  0  0  0  0  0
   -6.2630   -4.3616   -2.4266 H   0  0  0  0  0  0  0  0  0  0  0  0
   -6.4331   -2.7169   -1.7751 H   0  0  0  0  0  0  0  0  0  0  0  0
   -3.8014   -2.0108   -2.3452 N   0  0  0  0  0  0  0  0  0  0  0  0
   -2.3875   -1.7998   -2.0071 C   0  0  2  0  0  0  0  0  0  0  0  0
   -2.1739   -0.4653   -1.2623 C   0  0  0  0  0  0  0  0  0  0  0  0
   -3.0507    0.3928   -1.2628 O   0  0  0  0  0  0  0  0  0  0  0  0
   -1.5705   -1.8322   -3.3019 C   0  0  0  0  0  0  0  0  0  0  0  0
   -4.3984   -1.1845   -2.3465 H   0  0  0  0  0  0  0  0  0  0  0  0
   -2.0400   -2.5995   -1.3441 H   0  0  0  0  0  0  0  0  0  0  0  0
   -1.8983   -1.0402   -3.9832 H   0  0  0  0  0  0  0  0  0  0  0  0
   -0.5063   -1.6907   -3.0890 H   0  0  0  0  0  0  0  0  0  0  0  0
   -1.6958   -2.7974   -3.8029 H   0  0  0  0  0  0  0  0  0  0  0  0
   -1.0026   -0.2321   -0.5682 N   0  0  0  0  0  0  0  0  0  0  0  0
   -0.6107    1.1027   -0.0910 C   0  0  0  0  0  0  0  0  0  0  0  0
    0.9139    1.2630   -0.0398 C   0  0  0  0  0  0  0  0  0  0  0  0
    1.6095    0.7177   -0.8881 O   0  0  0  0  0  0  0  0  0  0  0  0
   -0.2430   -0.8882   -0.7469 H   0  0  0  0  0  0  0  0  0  0  0  0
   -1.0292    1.2683    0.9059 H   0  0  0  0  0  0  0  0  0  0  0  0
   -1.0046    1.8804   -0.7536 H   0  0  0  0  0  0  0  0  0  0  0  0
    1.5184    1.8418    1.0584 N   0  0  0  0  0  0  0  0  0  0  0  0
    2.9567    1.7777    1.3488 C   0  0  2  0  0  0  0  0  0  0  0  0
    3.2167    1.7540    2.8704 C   0  0  0  0  0  0  0  0  0  0  0  0
    2.3002    1.9868    3.6518 O   0  0  0  0  0  0  0  0  0  0  0  0
    3.6331    2.9879    0.6986 C   0  0  0  0  0  0  0  0  0  0  0  0
    0.9158    2.1153    1.8353 H   0  0  0  0  0  0  0  0  0  0  0  0
    3.3812    0.8584    0.9311 H   0  0  0  0  0  0  0  0  0  0  0  0
    3.2307    3.9183    1.1116 H   0  0  0  0  0  0  0  0  0  0  0  0
    4.7128    2.9665    0.8731 H   0  0  0  0  0  0  0  0  0  0  0  0
    3.4594    2.9825   -0.3822 H   0  0  0  0  0  0  0  0  0  0  0  0
    4.4708    1.4518    3.3681 N   0  0  0  0  0  0  0  0  0  0  0  0
    4.7694    1.3868    4.7940 C   0  0  0  0  0  0  0  0  0  0  0  0
    5.2082    1.2469    2.6999 H   0  0  0  0  0  0  0  0  0  0  0  0
    4.5842    2.3556    5.2699 H   0  0  0  0  0  0  0  0  0  0  0  0
    4.1460    0.6304    5.2823 H   0  0  0  0  0  0  0  0  0  0  0  0
    5.8193    1.1208    4.9494 H   0  0  0  0  0  0  0  0  0  0  0  0
  1  2  2  0  0  0  0
  1  3  1  0  0  0  0
  1  7  1  0  0  0  0
  3  4  1  0  0  0  0
  3  5  1  0  0  0  0
  3  6  1  0  0  0  0
  7  8  1  0  0  0  0
  7 12  1  0  0  0  0
  8  9  1  0  0  0  0
  8 11  1  0  0  0  0
  8 13  1  0  0  0  0
  9 10  2  0  0  0  0
  9 17  1  0  0  0  0
 11 14  1  0  0  0  0
 11 15  1  0  0  0  0
 11 16  1  0  0  0  0
 17 18  1  0  0  0  0
 17 21  1  0  0  0  0
 18 19  1  0  0  0  0
 18 22  1  0  0  0  0
 18 23  1  0  0  0  0
 19 20  2  0  0  0  0
 19 24  1  0  0  0  0
 24 25  1  0  0  0  0
 24 29  1  0  0  0  0
 25 26  1  0  0  0  0
 25 28  1  0  0  0  0
 25 30  1  0  0  0  0
 26 27  2  0  0  0  0
 26 34  1  0  0  0  0
 28 31  1  0  0  0  0
 28 32  1  0  0  0  0
 28 33  1  0  0  0  0
 34 35  1  0  0  0  0
 34 36  1  0  0  0  0
 35 37  1  0  0  0  0
 35 38  1  0  0  0  0
 35 39  1  0  0  0  0
M  END
$$$$

  -OEChem-05262216283D

 39 38  0     1  0  0  0  0  0999 V2000
   -4.4118   -3.2250   -2.3400 C   0  0  0  0  0  0  0  0  0  0  0  0
   -3.7597   -4.2487   -2.2081 O   0  0  0  0  0  0  0  0  0  0  0  0
   -5.9182   -3.2970   -2.5057 C   0  0  0  0  0  0  0  0  0  0  0  0
   -6.2075   -2.8720   -3.4698 H   0  0  0  0  0  0  0  0  0  0  0  0
   -6.2539   -4.3369   -2.4639 H   0  0  0  0  0  0  0  0  0  0  0  0
   -6.4084   -2.7365   -1.7060 H   0  0  0  0  0  0  0  0  0  0  0  0
   -3.7839   -1.9977   -2.3257 N   0  0  0  0  0  0  0  0  0  0  0  0
   -2.3656   -1.7952   -2.0020 C   0  0  2  0  0  0  0  0  0  0  0  0
   -2.1409   -0.4686   -1.2462 C   0  0  0  0  0  0  0  0  0  0  0  0
   -3.0221    0.3845   -1.2197 O   0  0  0  0  0  0  0  0  0  0  0  0
   -1.5642   -1.8128   -3.3069 C   0  0  0  0  0  0  0  0  0  0  0  0
   -4.3786   -1.1699   -2.3057 H   0  0  0  0  0  0  0  0  0  0  0  0
   -2.0144   -2.6037   -1.3517 H   0  0  0  0  0  0  0  0  0  0  0  0
   -1.8978   -1.0099   -3.9724 H   0  0  0  0  0  0  0  0  0  0  0  0
   -0.4972   -1.6775   -3.1051 H   0  0  0  0  0  0  0  0  0  0  0  0
   -1.6991   -2.7701   -3.8204 H   0  0  0  0  0  0  0  0  0  0  0  0
   -0.9567   -0.2358   -0.5731 N   0  0  0  0  0  0  0  0  0  0  0  0
   -0.5647    1.1013   -0.1008 C   0  0  0  0  0  0  0  0  0  0  0  0
    0.9585    1.2730   -0.0757 C   0  0  0  0  0  0  0  0  0  0  0  0
    1.6182    0.9613   -1.0586 O   0  0  0  0  0  0  0  0  0  0  0  0
   -0.2013   -0.8895   -0.7717 H   0  0  0  0  0  0  0  0  0  0  0  0
   -0.9698    1.2672    0.9016 H   0  0  0  0  0  0  0  0  0  0  0  0
   -0.9733    1.8764   -0.7574 H   0  0  0  0  0  0  0  0  0  0  0  0
    1.6094    1.5603    1.1079 N   0  0  0  0  0  0  0  0  0  0  0  0
    3.0606    1.4565    1.3086 C   0  0  2  0  0  0  0  0  0  0  0  0
    3.4000    1.0814    2.7668 C   0  0  0  0  0  0  0  0  0  0  0  0
    2.5317    1.1346    3.6315 O   0  0  0  0  0  0  0  0  0  0  0  0
    3.6991    2.7967    0.9326 C   0  0  0  0  0  0  0  0  0  0  0  0
    1.0415    1.6294    1.9528 H   0  0  0  0  0  0  0  0  0  0  0  0
    3.4689    0.6690    0.6662 H   0  0  0  0  0  0  0  0  0  0  0  0
    3.3074    3.5982    1.5673 H   0  0  0  0  0  0  0  0  0  0  0  0
    4.7855    2.7527    1.0555 H   0  0  0  0  0  0  0  0  0  0  0  0
    3.4804    3.0407   -0.1121 H   0  0  0  0  0  0  0  0  0  0  0  0
    4.6744    0.6677    3.1089 N   0  0  0  0  0  0  0  0  0  0  0  0
    5.0579    0.2999    4.4669 C   0  0  0  0  0  0  0  0  0  0  0  0
    5.3717    0.6260    2.3710 H   0  0  0  0  0  0  0  0  0  0  0  0
    4.9351    1.1528    5.1429 H   0  0  0  0  0  0  0  0  0  0  0  0
    4.4400   -0.5289    4.8292 H   0  0  0  0  0  0  0  0  0  0  0  0
    6.1061   -0.0137    4.4934 H   0  0  0  0  0  0  0  0  0  0  0  0
  1  2  2  0  0  0  0
  1  3  1  0  0  0  0
  1  7  1  0  0  0  0
  3  4  1  0  0  0  0
  3  5  1  0  0  0  0
  3  6  1  0  0  0  0
  7  8  1  0  0  0  0
  7 12  1  0  0  0  0
  8  9  1  0  0  0  0
  8 11  1  0  0  0  0
  8 13  1  0  0  0  0
  9 10  2  0  0  0  0
  9 17  1  0  0  0  0
 11 14  1  0  0  0  0
 11 15  1  0  0  0  0
 11 16  1  0  0  0  0
 17 18  1  0  0  0  0
 17 21  1  0  0  0  0
 18 19  1  0  0  0  0
 18 22  1  0  0  0  0
 18 23  1  0  0  0  0
 19 20  2  0  0  0  0
 19 24  1  0  0  0  0
 24 25  1  0  0  0  0
 24 29  1  0  0  0  0
 25 26  1  0  0  0  0
 25 28  1  0  0  0  0
 25 30  1  0  0  0  0
 26 27  2  0  0  0  0
 26 34  1  0  0  0  0
 28 31  1  0  0  0  0
 28 32  1  0  0  0  0
 28 33  1  0  0  0  0
 34 35  1  0  0  0  0
 34 36  1  0  0  0  0
 35 37  1  0  0  0  0
 35 38  1  0  0  0  0
 35 39  1  0  0  0  0
M  END
$$$$

  -OEChem-05262216283D

 39 38  0     1  0  0  0  0  0999 V2000
   -4.3879   -3.2204   -2.3207 C   0  0  0  0  0  0  0  0  0  0  0  0
   -3.7170   -4.2360   -2.2262 O   0  0  0  0  0  0  0  0  0  0  0  0
   -5.8966   -3.3145   -2.4499 C   0  0  0  0  0  0  0  0  0  0  0  0
   -6.2139   -2.9193   -3.4180 H   0  0  0  0  0  0  0  0  0  0  0  0
   -6.2167   -4.3574   -2.3713 H   0  0  0  0  0  0  0  0  0  0  0  0
   -6.3757   -2.7390   -1.6542 H   0  0  0  0  0  0  0  0  0  0  0  0
   -3.7762   -1.9850   -2.2966 N   0  0  0  0  0  0  0  0  0  0  0  0
   -2.3510   -1.7726   -2.0128 C   0  0  2  0  0  0  0  0  0  0  0  0
   -2.1130   -0.4434   -1.2660 C   0  0  0  0  0  0  0  0  0  0  0  0
   -2.9898    0.4141   -1.2352 O   0  0  0  0  0  0  0  0  0  0  0  0
   -1.5865   -1.7886   -3.3396 C   0  0  0  0  0  0  0  0  0  0  0  0
   -4.3783   -1.1630   -2.2583 H   0  0  0  0  0  0  0  0  0  0  0  0
   -1.9771   -2.5779   -1.3711 H   0  0  0  0  0  0  0  0  0  0  0  0
   -1.9409   -0.9865   -3.9950 H   0  0  0  0  0  0  0  0  0  0  0  0
   -0.5145   -1.6513   -3.1685 H   0  0  0  0  0  0  0  0  0  0  0  0
   -1.7337   -2.7462   -3.8492 H   0  0  0  0  0  0  0  0  0  0  0  0
   -0.9207   -0.2149   -0.6047 N   0  0  0  0  0  0  0  0  0  0  0  0
   -0.5173    1.1221   -0.1415 C   0  0  0  0  0  0  0  0  0  0  0  0
    1.0059    1.2901   -0.1299 C   0  0  0  0  0  0  0  0  0  0  0  0
    1.6280    1.2563   -1.1823 O   0  0  0  0  0  0  0  0  0  0  0  0
   -0.1779   -0.8866   -0.7875 H   0  0  0  0  0  0  0  0  0  0  0  0
   -0.9136    1.2975    0.8626 H   0  0  0  0  0  0  0  0  0  0  0  0
   -0.9284    1.8953   -0.7995 H   0  0  0  0  0  0  0  0  0  0  0  0
    1.6994    1.2710    1.0644 N   0  0  0  0  0  0  0  0  0  0  0  0
    3.1598    1.1610    1.1833 C   0  0  2  0  0  0  0  0  0  0  0  0
    3.5647    0.4294    2.4812 C   0  0  0  0  0  0  0  0  0  0  0  0
    2.7243    0.2094    3.3469 O   0  0  0  0  0  0  0  0  0  0  0  0
    3.7553    2.5722    1.1515 C   0  0  0  0  0  0  0  0  0  0  0  0
    1.1629    1.1111    1.9176 H   0  0  0  0  0  0  0  0  0  0  0  0
    3.5573    0.5809    0.3436 H   0  0  0  0  0  0  0  0  0  0  0  0
    3.3870    3.1613    1.9979 H   0  0  0  0  0  0  0  0  0  0  0  0
    4.8474    2.5309    1.2035 H   0  0  0  0  0  0  0  0  0  0  0  0
    3.4753    3.0820    0.2241 H   0  0  0  0  0  0  0  0  0  0  0  0
    4.8654    0.0014    2.6759 N   0  0  0  0  0  0  0  0  0  0  0  0
    5.3037   -0.7031    3.8755 C   0  0  0  0  0  0  0  0  0  0  0  0
    5.5385    0.1811    1.9362 H   0  0  0  0  0  0  0  0  0  0  0  0
    5.1421   -0.0839    4.7644 H   0  0  0  0  0  0  0  0  0  0  0  0
    4.7494   -1.6401    3.9939 H   0  0  0  0  0  0  0  0  0  0  0  0
    6.3702   -0.9393    3.8084 H   0  0  0  0  0  0  0  0  0  0  0  0
  1  2  2  0  0  0  0
  1  3  1  0  0  0  0
  1  7  1  0  0  0  0
  3  4  1  0  0  0  0
  3  5  1  0  0  0  0
  3  6  1  0  0  0  0
  7  8  1  0  0  0  0
  7 12  1  0  0  0  0
  8  9  1  0  0  0  0
  8 11  1  0  0  0  0
  8 13  1  0  0  0  0
  9 10  2  0  0  0  0
  9 17  1  0  0  0  0
 11 14  1  0  0  0  0
 11 15  1  0  0  0  0
 11 16  1  0  0  0  0
 17 18  1  0  0  0  0
 17 21  1  0  0  0  0
 18 19  1  0  0  0  0
 18 22  1  0  0  0  0
 18 23  1  0  0  0  0
 19 20  2  0  0  0  0
 19 24  1  0  0  0  0
 24 25  1  0  0  0  0
 24 29  1  0  0  0  0
 25 26  1  0  0  0  0
 25 28  1  0  0  0  0
 25 30  1  0  0  0  0
 26 27  2  0  0  0  0
 26 34  1  0  0  0  0
 28 31  1  0  0  0  0
 28 32  1  0  0  0  0
 28 33  1  0  0  0  0
 34 35  1  0  0  0  0
 34 36  1  0  0  0  0
 35 37  1  0  0  0  0
 35 38  1  0  0  0  0
 35 39  1  0  0  0  0
M  END
$$$$

  -OEChem-05262216283D

 39 38  0     1  0  0  0  0  0999 V2000
   -4.3678   -3.2172   -2.2921 C   0  0  0  0  0  0  0  0  0  0  0  0
   -3.7379   -4.2445   -2.0952 O   0  0  0  0  0  0  0  0  0  0  0  0
   -5.8659   -3.2730   -2.5235 C   0  0  0  0  0  0  0  0  0  0  0  0
   -6.1033   -2.8913   -3.5196 H   0  0  0  0  0  0  0  0  0  0  0  0
   -6.2213   -4.3044   -2.4465 H   0  0  0  0  0  0  0  0  0  0  0  0
   -6.3815   -2.6658   -1.7753 H   0  0  0  0  0  0  0  0  0  0  0  0
   -3.7201   -2.0006   -2.2963 N   0  0  0  0  0  0  0  0  0  0  0  0
   -2.3122   -1.8103   -1.9244 C   0  0  2  0  0  0  0  0  0  0  0  0
   -2.0850   -0.4409   -1.2496 C   0  0  0  0  0  0  0  0  0  0  0  0
   -2.9679    0.4103   -1.2668 O   0  0  0  0  0  0  0  0  0  0  0  0
   -1.4579   -1.9381   -3.1897 C   0  0  0  0  0  0  0  0  0  0  0  0
   -4.2996   -1.1625   -2.3363 H   0  0  0  0  0  0  0  0  0  0  0  0
   -2.0117   -2.5813   -1.2063 H   0  0  0  0  0  0  0  0  0  0  0  0
   -1.7303   -1.1645   -3.9151 H   0  0  0  0  0  0  0  0  0  0  0  0
   -0.3953   -1.8338   -2.9509 H   0  0  0  0  0  0  0  0  0  0  0  0
   -1.6108   -2.9189   -3.6514 H   0  0  0  0  0  0  0  0  0  0  0  0
   -0.8956   -0.1672   -0.6003 N   0  0  0  0  0  0  0  0  0  0  0  0
   -0.5194    1.1858   -0.1588 C   0  0  0  0  0  0  0  0  0  0  0  0
    0.9979    1.3906   -0.1614 C   0  0  0  0  0  0  0  0  0  0  0  0
    1.5770    1.6846   -1.1968 O   0  0  0  0  0  0  0  0  0  0  0  0
   -0.1546   -0.8556   -0.7114 H   0  0  0  0  0  0  0  0  0  0  0  0
   -0.9091    1.3699    0.8465 H   0  0  0  0  0  0  0  0  0  0  0  0
   -0.9547    1.9392   -0.8242 H   0  0  0  0  0  0  0  0  0  0  0  0
    1.7343    1.0988    0.9694 N   0  0  0  0  0  0  0  0  0  0  0  0
    3.1997    1.0057    1.0060 C   0  0  2  0  0  0  0  0  0  0  0  0
    3.6664   -0.1103    1.9641 C   0  0  0  0  0  0  0  0  0  0  0  0
    2.8657   -0.6320    2.7330 O   0  0  0  0  0  0  0  0  0  0  0  0
    3.7551    2.3653    1.4394 C   0  0  0  0  0  0  0  0  0  0  0  0
    1.2351    0.6822    1.7559 H   0  0  0  0  0  0  0  0  0  0  0  0
    3.5854    0.7603    0.0107 H   0  0  0  0  0  0  0  0  0  0  0  0
    3.3977    2.6230    2.4416 H   0  0  0  0  0  0  0  0  0  0  0  0
    4.8490    2.3482    1.4526 H   0  0  0  0  0  0  0  0  0  0  0  0
    3.4314    3.1451    0.7424 H   0  0  0  0  0  0  0  0  0  0  0  0
    4.9768   -0.5507    1.9470 N   0  0  0  0  0  0  0  0  0  0  0  0
    5.4746   -1.6135    2.8122 C   0  0  0  0  0  0  0  0  0  0  0  0
    5.6152   -0.1096    1.2910 H   0  0  0  0  0  0  0  0  0  0  0  0
    5.4033   -1.3160    3.8637 H   0  0  0  0  0  0  0  0  0  0  0  0
    4.8954   -2.5314    2.6657 H   0  0  0  0  0  0  0  0  0  0  0  0
    6.5228   -1.8281    2.5830 H   0  0  0  0  0  0  0  0  0  0  0  0
  1  2  2  0  0  0  0
  1  3  1  0  0  0  0
  1  7  1  0  0  0  0
  3  4  1  0  0  0  0
  3  5  1  0  0  0  0
  3  6  1  0  0  0  0
  7  8  1  0  0  0  0
  7 12  1  0  0  0  0
  8  9  1  0  0  0  0
  8 11  1  0  0  0  0
  8 13  1  0  0  0  0
  9 10  2  0  0  0  0
  9 17  1  0  0  0  0
 11 14  1  0  0  0  0
 11 15  1  0  0  0  0
 11 16  1  0  0  0  0
 17 18  1  0  0  0  0
 17 21  1  0  0  0  0
 18 19  1  0  0  0  0
 18 22  1  0  0  0  0
 18 23  1  0  0  0  0
 19 20  2  0  0  0  0
 19 24  1  0  0  0  0
 24 25  1  0  0  0  0
 24 29  1  0  0  0  0
 25 26  1  0  0  0  0
 25 28  1  0  0  0  0
 25 30  1  0  0  0  0
 26 27  2  0  0  0  0
 26 34  1  0  0  0  0
 28 31  1  0  0  0  0
 28 32  1  0  0  0  0
 28 33  1  0  0  0  0
 34 35  1  0  0  0  0
 34 36  1  0  0  0  0
 35 37  1  0  0  0  0
 35 38  1  0  0  0  0
 35 39  1  0  0  0  0
M  END
$$$$

  -OEChem-05262216283D

 39 38  0     1  0  0  0  0  0999 V2000
   -3.6487   -3.3156   -1.7560 C   0  0  0  0  0  0  0  0  0  0  0  0
   -3.2045   -4.1306   -0.9629 O   0  0  0  0  0  0  0  0  0  0  0  0
   -4.9624   -3.5841   -2.4656 C   0  0  0  0  0  0  0  0  0  0  0  0
   -4.7963   -3.6522   -3.5435 H   0  0  0  0  0  0  0  0  0  0  0  0
   -5.3947   -4.5255   -2.1150 H   0  0  0  0  0  0  0  0  0  0  0  0
   -5.6687   -2.7756   -2.2628 H   0  0  0  0  0  0  0  0  0  0  0  0
   -2.9592   -2.1499   -2.0125 N   0  0  0  0  0  0  0  0  0  0  0  0
   -1.7507   -1.7221   -1.2952 C   0  0  2  0  0  0  0  0  0  0  0  0
   -1.6226   -0.1831   -1.2724 C   0  0  0  0  0  0  0  0  0  0  0  0
   -2.4419    0.5196   -1.8562 O   0  0  0  0  0  0  0  0  0  0  0  0
   -0.5305   -2.3602   -1.9695 C   0  0  0  0  0  0  0  0  0  0  0  0
   -3.4298   -1.4413   -2.5745 H   0  0  0  0  0  0  0  0  0  0  0  0
   -1.8007   -2.0591   -0.2540 H   0  0  0  0  0  0  0  0  0  0  0  0
   -0.4409   -2.0151   -3.0043 H   0  0  0  0  0  0  0  0  0  0  0  0
    0.3875   -2.0999   -1.4340 H   0  0  0  0  0  0  0  0  0  0  0  0
   -0.6257   -3.4506   -1.9720 H   0  0  0  0  0  0  0  0  0  0  0  0
   -0.5900    0.4198   -0.5838 N   0  0  0  0  0  0  0  0  0  0  0  0
   -0.2717    1.8549   -0.6545 C   0  0  0  0  0  0  0  0  0  0  0  0
    1.2287    2.0529   -0.4380 C   0  0  0  0  0  0  0  0  0  0  0  0
    2.0000    2.0546   -1.3877 O   0  0  0  0  0  0  0  0  0  0  0  0
    0.1131   -0.2071   -0.1763 H   0  0  0  0  0  0  0  0  0  0  0  0
   -0.8354    2.4092    0.1007 H   0  0  0  0  0  0  0  0  0  0  0  0
   -0.5346    2.2625   -1.6365 H   0  0  0  0  0  0  0  0  0  0  0  0
    1.7249    1.9200    0.8454 N   0  0  0  0  0  0  0  0  0  0  0  0
    2.9825    1.1846    1.0383 C   0  0  2  0  0  0  0  0  0  0  0  0
    2.8112   -0.3220    0.7181 C   0  0  0  0  0  0  0  0  0  0  0  0
    1.6977   -0.8428    0.7726 O   0  0  0  0  0  0  0  0  0  0  0  0
    3.4238    1.3779    2.4901 C   0  0  0  0  0  0  0  0  0  0  0  0
    1.0035    1.7341    1.5371 H   0  0  0  0  0  0  0  0  0  0  0  0
    3.7568    1.5947    0.3803 H   0  0  0  0  0  0  0  0  0  0  0  0
    2.6756    0.9692    3.1772 H   0  0  0  0  0  0  0  0  0  0  0  0
    4.3757    0.8690    2.6708 H   0  0  0  0  0  0  0  0  0  0  0  0
    3.5543    2.4427    2.7082 H   0  0  0  0  0  0  0  0  0  0  0  0
    3.8966   -1.0928    0.3464 N   0  0  0  0  0  0  0  0  0  0  0  0
    3.7770   -2.4848   -0.0723 C   0  0  0  0  0  0  0  0  0  0  0  0
    4.7786   -0.6119    0.1929 H   0  0  0  0  0  0  0  0  0  0  0  0
    3.3346   -3.0888    0.7270 H   0  0  0  0  0  0  0  0  0  0  0  0
    3.1470   -2.5644   -0.9647 H   0  0  0  0  0  0  0  0  0  0  0  0
    4.7634   -2.8959   -0.3078 H   0  0  0  0  0  0  0  0  0  0  0  0
  1  2  2  0  0  0  0
  1  3  1  0  0  0  0
  1  7  1  0  0  0  0
  3  4  1  0  0  0  0
  3  5  1  0  0  0  0
  3  6  1  0  0  0  0
  7  8  1  0  0  0  0
  7 12  1  0  0  0  0
  8  9  1  0  0  0  0
  8 11  1  0  0  0  0
  8 13  1  0  0  0  0
  9 10  2  0  0  0  0
  9 17  1  0  0  0  0
 11 14  1  0  0  0  0
 11 15  1  0  0  0  0
 11 16  1  0  0  0  0
 17 18  1  0  0  0  0
 17 21  1  0  0  0  0
 18 19  1  0  0  0  0
 18 22  1  0  0  0  0
 18 23  1  0  0  0  0
 19 20  2  0  0  0  0
 19 24  1  0  0  0  0
 24 25  1  0  0  0  0
 24 29  1  0  0  0  0
 25 26  1  0  0  0  0
 25 28  1  0  0  0  0
 25 30  1  0  0  0  0
 26 27  2  0  0  0  0
 26 34  1  0  0  0  0
 28 31  1  0  0  0  0
 28 32  1  0  0  0  0
 28 33  1  0  0  0  0
 34 35  1  0  0  0  0
 34 36  1  0  0  0  0
 35 37  1  0  0  0  0
 35 38  1  0  0  0  0
 35 39  1  0  0  0  0
M  END
$$$$

  -OEChem-05262216283D

 39 38  0     1  0  0  0  0  0999 V2000
   -3.5649   -3.3353   -1.8742 C   0  0  0  0  0  0  0  0  0  0  0  0
   -2.9865   -4.1845   -1.2148 O   0  0  0  0  0  0  0  0  0  0  0  0
   -4.9767   -3.5880   -2.3684 C   0  0  0  0  0  0  0  0  0  0  0  0
   -5.0164   -3.4845   -3.4554 H   0  0  0  0  0  0  0  0  0  0  0  0
   -5.2949   -4.5990   -2.0993 H   0  0  0  0  0  0  0  0  0  0  0  0
   -5.6643   -2.8697   -1.9155 H   0  0  0  0  0  0  0  0  0  0  0  0
   -2.9454   -2.1375   -2.1593 N   0  0  0  0  0  0  0  0  0  0  0  0
   -1.6588   -1.7138   -1.5923 C   0  0  2  0  0  0  0  0  0  0  0  0
   -1.6028   -0.1834   -1.4006 C   0  0  0  0  0  0  0  0  0  0  0  0
   -2.4460    0.5416   -1.9189 O   0  0  0  0  0  0  0  0  0  0  0  0
   -0.5384   -2.1800   -2.5269 C   0  0  0  0  0  0  0  0  0  0  0  0
   -3.5092   -1.4119   -2.6005 H   0  0  0  0  0  0  0  0  0  0  0  0
   -1.5172   -2.1719   -0.6071 H   0  0  0  0  0  0  0  0  0  0  0  0
   -0.6502   -1.7243   -3.5157 H   0  0  0  0  0  0  0  0  0  0  0  0
    0.4400   -1.9021   -2.1233 H   0  0  0  0  0  0  0  0  0  0  0  0
   -0.5668   -3.2684   -2.6383 H   0  0  0  0  0  0  0  0  0  0  0  0
   -0.6091    0.3822   -0.6282 N   0  0  0  0  0  0  0  0  0  0  0  0
   -0.3034    1.8238   -0.6228 C   0  0  0  0  0  0  0  0  0  0  0  0
    1.1804    2.0398   -0.3209 C   0  0  0  0  0  0  0  0  0  0  0  0
    1.9597    2.3529   -1.2096 O   0  0  0  0  0  0  0  0  0  0  0  0
    0.1333   -0.2620   -0.3324 H   0  0  0  0  0  0  0  0  0  0  0  0
   -0.9090    2.3372    0.1289 H   0  0  0  0  0  0  0  0  0  0  0  0
   -0.5270    2.2714   -1.5974 H   0  0  0  0  0  0  0  0  0  0  0  0
    1.6669    1.5670    0.8838 N   0  0  0  0  0  0  0  0  0  0  0  0
    2.9592    0.8693    0.9171 C   0  0  2  0  0  0  0  0  0  0  0  0
    2.8369   -0.5539    0.3219 C   0  0  0  0  0  0  0  0  0  0  0  0
    1.7389   -1.1062    0.2701 O   0  0  0  0  0  0  0  0  0  0  0  0
    3.4232    0.8059    2.3731 C   0  0  0  0  0  0  0  0  0  0  0  0
    0.9442    1.1676    1.4776 H   0  0  0  0  0  0  0  0  0  0  0  0
    3.7042    1.4267    0.3388 H   0  0  0  0  0  0  0  0  0  0  0  0
    2.7071    0.2435    2.9812 H   0  0  0  0  0  0  0  0  0  0  0  0
    4.3987    0.3149    2.4427 H   0  0  0  0  0  0  0  0  0  0  0  0
    3.5147    1.8157    2.7851 H   0  0  0  0  0  0  0  0  0  0  0  0
    3.9472   -1.2122   -0.1709 N   0  0  0  0  0  0  0  0  0  0  0  0
    3.8747   -2.5099   -0.8329 C   0  0  0  0  0  0  0  0  0  0  0  0
    4.8198   -0.6928   -0.2092 H   0  0  0  0  0  0  0  0  0  0  0  0
    3.4122   -3.2533   -0.1747 H   0  0  0  0  0  0  0  0  0  0  0  0
    3.2845   -2.4379   -1.7526 H   0  0  0  0  0  0  0  0  0  0  0  0
    4.8792   -2.8588   -1.0916 H   0  0  0  0  0  0  0  0  0  0  0  0
  1  2  2  0  0  0  0
  1  3  1  0  0  0  0
  1  7  1  0  0  0  0
  3  4  1  0  0  0  0
  3  5  1  0  0  0  0
  3  6  1  0  0  0  0
  7  8  1  0  0  0  0
  7 12  1  0  0  0  0
  8  9  1  0  0  0  0
  8 11  1  0  0  0  0
  8 13  1  0  0  0  0
  9 10  2  0  0  0  0
  9 17  1  0  0  0  0
 11 14  1  0  0  0  0
 11 15  1  0  0  0  0
 11 16  1  0  0  0  0
 17 18  1  0  0  0  0
 17 21  1  0  0  0  0
 18 19  1  0  0  0  0
 18 22  1  0  0  0  0
 18 23  1  0  0  0  0
 19 20  2  0  0  0  0
 19 24  1  0  0  0  0
 24 25  1  0  0  0  0
 24 29  1  0  0  0  0
 25 26  1  0  0  0  0
 25 28  1  0  0  0  0
 25 30  1  0  0  0  0
 26 27  2  0  0  0  0
 26 34  1  0  0  0  0
 28 31  1  0  0  0  0
 28 32  1  0  0  0  0
 28 33  1  0  0  0  0
 34 35  1  0  0  0  0
 34 36  1  0  0  0  0
 35 37  1  0  0  0  0
 35 38  1  0  0  0  0
 35 39  1  0  0  0  0
M  END
$$$$

  -OEChem-05262216283D

 39 38  0     1  0  0  0  0  0999 V2000
   -3.5421   -3.3402   -2.0047 C   0  0  0  0  0  0  0  0  0  0  0  0
   -2.8842   -4.2070   -1.4515 O   0  0  0  0  0  0  0  0  0  0  0  0
   -4.9793   -3.6175   -2.4039 C   0  0  0  0  0  0  0  0  0  0  0  0
   -5.0954   -3.5010   -3.4841 H   0  0  0  0  0  0  0  0  0  0  0  0
   -5.2566   -4.6388   -2.1277 H   0  0  0  0  0  0  0  0  0  0  0  0
   -5.6494   -2.9208   -1.8945 H   0  0  0  0  0  0  0  0  0  0  0  0
   -2.9865   -2.1046   -2.2598 N   0  0  0  0  0  0  0  0  0  0  0  0
   -1.6646   -1.6732   -1.7854 C   0  0  2  0  0  0  0  0  0  0  0  0
   -1.6515   -0.1691   -1.4417 C   0  0  0  0  0  0  0  0  0  0  0  0
   -2.5163    0.5769   -1.8896 O   0  0  0  0  0  0  0  0  0  0  0  0
   -0.6364   -1.9834   -2.8772 C   0  0  0  0  0  0  0  0  0  0  0  0
   -3.6049   -1.3764   -2.6152 H   0  0  0  0  0  0  0  0  0  0  0  0
   -1.3965   -2.2190   -0.8739 H   0  0  0  0  0  0  0  0  0  0  0  0
   -0.8775   -1.4400   -3.7963 H   0  0  0  0  0  0  0  0  0  0  0  0
    0.3673   -1.6924   -2.5538 H   0  0  0  0  0  0  0  0  0  0  0  0
   -0.6294   -3.0557   -3.0963 H   0  0  0  0  0  0  0  0  0  0  0  0
   -0.6722    0.3479   -0.6168 N   0  0  0  0  0  0  0  0  0  0  0  0
   -0.3701    1.7915   -0.5602 C   0  0  0  0  0  0  0  0  0  0  0  0
    1.1025    2.0300   -0.2134 C   0  0  0  0  0  0  0  0  0  0  0  0
    1.8355    2.6201   -0.9936 O   0  0  0  0  0  0  0  0  0  0  0  0
    0.1024   -0.3001   -0.4340 H   0  0  0  0  0  0  0  0  0  0  0  0
   -1.0001    2.2763    0.1906 H   0  0  0  0  0  0  0  0  0  0  0  0
   -0.5754    2.2657   -1.5262 H   0  0  0  0  0  0  0  0  0  0  0  0
    1.6532    1.2871    0.8146 N   0  0  0  0  0  0  0  0  0  0  0  0
    2.9734    0.6644    0.6531 C   0  0  2  0  0  0  0  0  0  0  0  0
    2.8607   -0.6557   -0.1437 C   0  0  0  0  0  0  0  0  0  0  0  0
    1.7724   -1.2216   -0.2356 O   0  0  0  0  0  0  0  0  0  0  0  0
    3.5459    0.4051    2.0473 C   0  0  0  0  0  0  0  0  0  0  0  0
    0.9680    0.7228    1.3116 H   0  0  0  0  0  0  0  0  0  0  0  0
    3.6524    1.3376    0.1185 H   0  0  0  0  0  0  0  0  0  0  0  0
    2.8988   -0.2771    2.6079 H   0  0  0  0  0  0  0  0  0  0  0  0
    4.5418   -0.0422    1.9746 H   0  0  0  0  0  0  0  0  0  0  0  0
    3.6288    1.3442    2.6032 H   0  0  0  0  0  0  0  0  0  0  0  0
    3.9656   -1.2048   -0.7653 N   0  0  0  0  0  0  0  0  0  0  0  0
    3.9032   -2.4061   -1.5897 C   0  0  0  0  0  0  0  0  0  0  0  0
    4.8309   -0.6722   -0.7405 H   0  0  0  0  0  0  0  0  0  0  0  0
    3.5185   -3.2515   -1.0093 H   0  0  0  0  0  0  0  0  0  0  0  0
    3.2495   -2.2444   -2.4533 H   0  0  0  0  0  0  0  0  0  0  0  0
    4.9015   -2.6662   -1.9548 H   0  0  0  0  0  0  0  0  0  0  0  0
  1  2  2  0  0  0  0
  1  3  1  0  0  0  0
  1  7  1  0  0  0  0
  3  4  1  0  0  0  0
  3  5  1  0  0  0  0
  3  6  1  0  0  0  0
  7  8  1  0  0  0  0
  7 12  1  0  0  0  0
  8  9  1  0  0  0  0
  8 11  1  0  0  0  0
  8 13  1  0  0  0  0
  9 10  2  0  0  0  0
  9 17  1  0  0  0  0
 11 14  1  0  0  0  0
 11 15  1  0  0  0  0
 11 16  1  0  0  0  0
 17 18  1  0  0  0  0
 17 21  1  0  0  0  0
 18 19  1  0  0  0  0
 18 22  1  0  0  0  0
 18 23  1  0  0  0  0
 19 20  2  0  0  0  0
 19 24  1  0  0  0  0
 24 25  1  0  0  0  0
 24 29  1  0  0  0  0
 25 26  1  0  0  0  0
 25 28  1  0  0  0  0
 25 30  1  0  0  0  0
 26 27  2  0  0  0  0
 26 34  1  0  0  0  0
 28 31  1  0  0  0  0
 28 32  1  0  0  0  0
 28 33  1  0  0  0  0
 34 35  1  0  0  0  0
 34 36  1  0  0  0  0
 35 37  1  0  0  0  0
 35 38  1  0  0  0  0
 35 39  1  0  0  0  0
M  END
$$$$

  -OEChem-05262216283D

 39 38  0     1  0  0  0  0  0999 V2000
   -3.5370   -3.3193   -2.1545 C   0  0  0  0  0  0  0  0  0  0  0  0
   -2.8335   -4.1942   -1.6751 O   0  0  0  0  0  0  0  0  0  0  0  0
   -4.9866   -3.6123   -2.4941 C   0  0  0  0  0  0  0  0  0  0  0  0
   -5.1543   -3.4738   -3.5650 H   0  0  0  0  0  0  0  0  0  0  0  0
   -5.2346   -4.6440   -2.2290 H   0  0  0  0  0  0  0  0  0  0  0  0
   -5.6442   -2.9387   -1.9393 H   0  0  0  0  0  0  0  0  0  0  0  0
   -3.0213   -2.0619   -2.3860 N   0  0  0  0  0  0  0  0  0  0  0  0
   -1.6828   -1.6197   -1.9723 C   0  0  2  0  0  0  0  0  0  0  0  0
   -1.7010   -0.1559   -1.4855 C   0  0  0  0  0  0  0  0  0  0  0  0
   -2.5758    0.6111   -1.8746 O   0  0  0  0  0  0  0  0  0  0  0  0
   -0.7419   -1.7753   -3.1698 C   0  0  0  0  0  0  0  0  0  0  0  0
   -3.6729   -1.3355   -2.6797 H   0  0  0  0  0  0  0  0  0  0  0  0
   -1.3183   -2.2377   -1.1440 H   0  0  0  0  0  0  0  0  0  0  0  0
   -1.0953   -1.1759   -4.0148 H   0  0  0  0  0  0  0  0  0  0  0  0
    0.2690   -1.4482   -2.9113 H   0  0  0  0  0  0  0  0  0  0  0  0
   -0.6961   -2.8240   -3.4795 H   0  0  0  0  0  0  0  0  0  0  0  0
   -0.7476    0.3008   -0.5953 N   0  0  0  0  0  0  0  0  0  0  0  0
   -0.4582    1.7441   -0.4564 C   0  0  0  0  0  0  0  0  0  0  0  0
    0.9959    2.0089   -0.0471 C   0  0  0  0  0  0  0  0  0  0  0  0
    1.6583    2.8429   -0.6464 O   0  0  0  0  0  0  0  0  0  0  0  0
    0.0486   -0.3393   -0.5054 H   0  0  0  0  0  0  0  0  0  0  0  0
   -1.1215    2.1812    0.2952 H   0  0  0  0  0  0  0  0  0  0  0  0
   -0.6407    2.2627   -1.4041 H   0  0  0  0  0  0  0  0  0  0  0  0
    1.6391    1.0605    0.7264 N   0  0  0  0  0  0  0  0  0  0  0  0
    2.9710    0.5626    0.3623 C   0  0  2  0  0  0  0  0  0  0  0  0
    2.8444   -0.6440   -0.5943 C   0  0  0  0  0  0  0  0  0  0  0  0
    1.7709   -1.2390   -0.6810 O   0  0  0  0  0  0  0  0  0  0  0  0
    3.6921    0.1659    1.6514 C   0  0  0  0  0  0  0  0  0  0  0  0
    1.0086    0.3569    1.1036 H   0  0  0  0  0  0  0  0  0  0  0  0
    3.5557    1.3425   -0.1375 H   0  0  0  0  0  0  0  0  0  0  0  0
    3.1437   -0.6264    2.1712 H   0  0  0  0  0  0  0  0  0  0  0  0
    4.7005   -0.1966    1.4303 H   0  0  0  0  0  0  0  0  0  0  0  0
    3.7740    1.0293    2.3193 H   0  0  0  0  0  0  0  0  0  0  0  0
    3.9136   -1.0520   -1.3679 N   0  0  0  0  0  0  0  0  0  0  0  0
    3.8350   -2.1466   -2.3282 C   0  0  0  0  0  0  0  0  0  0  0  0
    4.7682   -0.5041   -1.3168 H   0  0  0  0  0  0  0  0  0  0  0  0
    3.5420   -3.0755   -1.8277 H   0  0  0  0  0  0  0  0  0  0  0  0
    3.1017   -1.9204   -3.1095 H   0  0  0  0  0  0  0  0  0  0  0  0
    4.8084   -2.3038   -2.8029 H   0  0  0  0  0  0  0  0  0  0  0  0
  1  2  2  0  0  0  0
  1  3  1  0  0  0  0
  1  7  1  0  0  0  0
  3  4  1  0  0  0  0
  3  5  1  0  0  0  0
  3  6  1  0  0  0  0
  7  8  1  0  0  0  0
  7 12  1  0  0  0  0
  8  9  1  0  0  0  0
  8 11  1  0  0  0  0
  8 13  1  0  0  0  0
  9 10  2  0  0  0  0
  9 17  1  0  0  0  0
 11 14  1  0  0  0  0
 11 15  1  0  0  0  0
 11 16  1  0  0  0  0
 17 18  1  0  0  0  0
 17 21  1  0  0  0  0
 18 19  1  0  0  0  0
 18 22  1  0  0  0  0
 18 23  1  0  0  0  0
 19 20  2  0  0  0  0
 19 24  1  0  0  0  0
 24 25  1  0  0  0  0
 24 29  1  0  0  0  0
 25 26  1  0  0  0  0
 25 28  1  0  0  0  0
 25 30  1  0  0  0  0
 26 27  2  0  0  0  0
 26 34  1  0  0  0  0
 28 31  1  0  0  0  0
 28 32  1  0  0  0  0
 28 33  1  0  0  0  0
 34 35  1  0  0  0  0
 34 36  1  0  0  0  0
 35 37  1  0  0  0  0
 35 38  1  0  0  0  0
 35 39  1  0  0  0  0
M  END
$$$$

  -OEChem-05262216283D

 39 38  0     1  0  0  0  0  0999 V2000
   -4.6852   -3.0079   -2.1156 C   0  0  0  0  0  0  0  0  0  0  0  0
   -4.2193   -3.9831   -1.5479 O   0  0  0  0  0  0  0  0  0  0  0  0
   -6.1784   -2.9158   -2.3670 C   0  0  0  0  0  0  0  0  0  0  0  0
   -6.3692   -2.7654   -3.4324 H   0  0  0  0  0  0  0  0  0  0  0  0
   -6.6721   -3.8380   -2.0477 H   0  0  0  0  0  0  0  0  0  0  0  0
   -6.5999   -2.0778   -1.8064 H   0  0  0  0  0  0  0  0  0  0  0  0
   -3.8604   -1.9783   -2.5170 N   0  0  0  0  0  0  0  0  0  0  0  0
   -2.4448   -1.8594   -2.1427 C   0  0  2  0  0  0  0  0  0  0  0  0
   -2.1075   -0.4376   -1.6467 C   0  0  0  0  0  0  0  0  0  0  0  0
   -2.8591    0.4963   -1.9010 O   0  0  0  0  0  0  0  0  0  0  0  0
   -1.5978   -2.2204   -3.3657 C   0  0  0  0  0  0  0  0  0  0  0  0
   -4.3181   -1.1232   -2.8304 H   0  0  0  0  0  0  0  0  0  0  0  0
   -2.2077   -2.5525   -1.3287 H   0  0  0  0  0  0  0  0  0  0  0  0
   -1.8141   -1.5410   -4.1966 H   0  0  0  0  0  0  0  0  0  0  0  0
   -0.5310   -2.1535   -3.1301 H   0  0  0  0  0  0  0  0  0  0  0  0
   -1.8165   -3.2441   -3.6862 H   0  0  0  0  0  0  0  0  0  0  0  0
   -0.9658   -0.2134   -0.8972 N   0  0  0  0  0  0  0  0  0  0  0  0
   -0.6517    1.0807   -0.2551 C   0  0  0  0  0  0  0  0  0  0  0  0
    0.8496    1.3716   -0.1200 C   0  0  0  0  0  0  0  0  0  0  0  0
    1.2257    2.4831    0.2208 O   0  0  0  0  0  0  0  0  0  0  0  0
   -0.4744   -1.0447   -0.5797 H   0  0  0  0  0  0  0  0  0  0  0  0
   -1.1001    1.1085    0.7422 H   0  0  0  0  0  0  0  0  0  0  0  0
   -1.0839    1.9036   -0.8345 H   0  0  0  0  0  0  0  0  0  0  0  0
    1.7827    0.3658   -0.2852 N   0  0  0  0  0  0  0  0  0  0  0  0
    3.2340    0.5820   -0.3148 C   0  0  2  0  0  0  0  0  0  0  0  0
    3.9060   -0.3817   -1.3159 C   0  0  0  0  0  0  0  0  0  0  0  0
    3.2545   -1.2951   -1.8149 O   0  0  0  0  0  0  0  0  0  0  0  0
    3.7850    0.3758    1.0994 C   0  0  0  0  0  0  0  0  0  0  0  0
    1.4594   -0.4740   -0.7611 H   0  0  0  0  0  0  0  0  0  0  0  0
    3.4551    1.6033   -0.6434 H   0  0  0  0  0  0  0  0  0  0  0  0
    3.5873   -0.6448    1.4434 H   0  0  0  0  0  0  0  0  0  0  0  0
    4.8653    0.5488    1.1207 H   0  0  0  0  0  0  0  0  0  0  0  0
    3.3111    1.0762    1.7949 H   0  0  0  0  0  0  0  0  0  0  0  0
    5.2297   -0.2126   -1.6766 N   0  0  0  0  0  0  0  0  0  0  0  0
    5.9084   -1.0580   -2.6514 C   0  0  0  0  0  0  0  0  0  0  0  0
    5.7314    0.5735   -1.2727 H   0  0  0  0  0  0  0  0  0  0  0  0
    5.8597   -2.1098   -2.3495 H   0  0  0  0  0  0  0  0  0  0  0  0
    5.4448   -0.9529   -3.6380 H   0  0  0  0  0  0  0  0  0  0  0  0
    6.9615   -0.7713   -2.7307 H   0  0  0  0  0  0  0  0  0  0  0  0
  1  2  2  0  0  0  0
  1  3  1  0  0  0  0
  1  7  1  0  0  0  0
  3  4  1  0  0  0  0
  3  5  1  0  0  0  0
  3  6  1  0  0  0  0
  7  8  1  0  0  0  0
  7 12  1  0  0  0  0
  8  9  1  0  0  0  0
  8 11  1  0  0  0  0
  8 13  1  0  0  0  0
  9 10  2  0  0  0  0
  9 17  1  0  0  0  0
 11 14  1  0  0  0  0
 11 15  1  0  0  0  0
 11 16  1  0  0  0  0
 17 18  1  0  0  0  0
 17 21  1  0  0  0  0
 18 19  1  0  0  0  0
 18 22  1  0  0  0  0
 18 23  1  0  0  0  0
 19 20  2  0  0  0  0
 19 24  1  0  0  0  0
 24 25  1  0  0  0  0
 24 29  1  0  0  0  0
 25 26  1  0  0  0  0
 25 28  1  0  0  0  0
 25 30  1  0  0  0  0
 26 27  2  0  0  0  0
 26 34  1  0  0  0  0
 28 31  1  0  0  0  0
 28 32  1  0  0  0  0
 28 33  1  0  0  0  0
 34 35  1  0  0  0  0
 34 36  1  0  0  0  0
 35 37  1  0  0  0  0
 35 38  1  0  0  0  0
 35 39  1  0  0  0  0
M  END
$$$$

  -OEChem-05262216283D

 39 38  0     1  0  0  0  0  0999 V2000
   -4.7359   -3.0206   -2.0621 C   0  0  0  0  0  0  0  0  0  0  0  0
   -4.2512   -3.9931   -1.5056 O   0  0  0  0  0  0  0  0  0  0  0  0
   -6.2376   -2.9276   -2.2574 C   0  0  0  0  0  0  0  0  0  0  0  0
   -6.4708   -2.8388   -3.3214 H   0  0  0  0  0  0  0  0  0  0  0  0
   -6.7251   -3.8236   -1.8628 H   0  0  0  0  0  0  0  0  0  0  0  0
   -6.6289   -2.0534   -1.7310 H   0  0  0  0  0  0  0  0  0  0  0  0
   -3.9249   -1.9944   -2.4994 N   0  0  0  0  0  0  0  0  0  0  0  0
   -2.4994   -1.8696   -2.1637 C   0  0  2  0  0  0  0  0  0  0  0  0
   -2.1689   -0.4677   -1.6099 C   0  0  0  0  0  0  0  0  0  0  0  0
   -2.9331    0.4680   -1.8160 O   0  0  0  0  0  0  0  0  0  0  0  0
   -1.6892   -2.1513   -3.4309 C   0  0  0  0  0  0  0  0  0  0  0  0
   -4.3954   -1.1390   -2.7930 H   0  0  0  0  0  0  0  0  0  0  0  0
   -2.2223   -2.5984   -1.3947 H   0  0  0  0  0  0  0  0  0  0  0  0
   -1.9344   -1.4238   -4.2117 H   0  0  0  0  0  0  0  0  0  0  0  0
   -0.6162   -2.0914   -3.2231 H   0  0  0  0  0  0  0  0  0  0  0  0
   -1.9126   -3.1551   -3.8063 H   0  0  0  0  0  0  0  0  0  0  0  0
   -1.0137   -0.2575   -0.8771 N   0  0  0  0  0  0  0  0  0  0  0  0
   -0.7076    1.0130   -0.1868 C   0  0  0  0  0  0  0  0  0  0  0  0
    0.7914    1.3206   -0.0747 C   0  0  0  0  0  0  0  0  0  0  0  0
    1.1636    2.3138    0.5318 O   0  0  0  0  0  0  0  0  0  0  0  0
   -0.4980   -1.0911   -0.6045 H   0  0  0  0  0  0  0  0  0  0  0  0
   -1.1329    0.9896    0.8209 H   0  0  0  0  0  0  0  0  0  0  0  0
   -1.1657    1.8529   -0.7197 H   0  0  0  0  0  0  0  0  0  0  0  0
    1.7334    0.4520   -0.5926 N   0  0  0  0  0  0  0  0  0  0  0  0
    3.1735    0.7309   -0.6451 C   0  0  2  0  0  0  0  0  0  0  0  0
    3.8236    0.0483   -1.8671 C   0  0  0  0  0  0  0  0  0  0  0  0
    3.1958   -0.7932   -2.5032 O   0  0  0  0  0  0  0  0  0  0  0  0
    3.8163    0.2397    0.6561 C   0  0  0  0  0  0  0  0  0  0  0  0
    1.3926   -0.2461   -1.2521 H   0  0  0  0  0  0  0  0  0  0  0  0
    3.3369    1.8094   -0.7453 H   0  0  0  0  0  0  0  0  0  0  0  0
    3.6803   -0.8410    0.7664 H   0  0  0  0  0  0  0  0  0  0  0  0
    4.8882    0.4593    0.6621 H   0  0  0  0  0  0  0  0  0  0  0  0
    3.3587    0.7384    1.5167 H   0  0  0  0  0  0  0  0  0  0  0  0
    5.1014    0.3918   -2.2678 N   0  0  0  0  0  0  0  0  0  0  0  0
    5.7642   -0.1998   -3.4237 C   0  0  0  0  0  0  0  0  0  0  0  0
    5.5866    1.1083   -1.7350 H   0  0  0  0  0  0  0  0  0  0  0  0
    5.8856   -1.2791   -3.2850 H   0  0  0  0  0  0  0  0  0  0  0  0
    5.1792   -0.0247   -4.3328 H   0  0  0  0  0  0  0  0  0  0  0  0
    6.7551    0.2442   -3.5598 H   0  0  0  0  0  0  0  0  0  0  0  0
  1  2  2  0  0  0  0
  1  3  1  0  0  0  0
  1  7  1  0  0  0  0
  3  4  1  0  0  0  0
  3  5  1  0  0  0  0
  3  6  1  0  0  0  0
  7  8  1  0  0  0  0
  7 12  1  0  0  0  0
  8  9  1  0  0  0  0
  8 11  1  0  0  0  0
  8 13  1  0  0  0  0
  9 10  2  0  0  0  0
  9 17  1  0  0  0  0
 11 14  1  0  0  0  0
 11 15  1  0  0  0  0
 11 16  1  0  0  0  0
 17 18  1  0  0  0  0
 17 21  1  0  0  0  0
 18 19  1  0  0  0  0
 18 22  1  0  0  0  0
 18 23  1  0  0  0  0
 19 20  2  0  0  0  0
 19 24  1  0  0  0  0
 24 25  1  0  0  0  0
 24 29  1  0  0  0  0
 25 26  1  0  0  0  0
 25 28  1  0  0  0  0
 25 30  1  0  0  0  0
 26 27  2  0  0  0  0
 26 34  1  0  0  0  0
 28 31  1  0  0  0  0
 28 32  1  0  0  0  0
 28 33  1  0  0  0  0
 34 35  1  0  0  0  0
 34 36  1  0  0  0  0
 35 37  1  0  0  0  0
 35 38  1  0  0  0  0
 35 39  1  0  0  0  0
M  END
$$$$

  -OEChem-05262216283D

 39 38  0     1  0  0  0  0  0999 V2000
   -3.9909   -3.0327   -3.0611 C   0  0  0  0  0  0  0  0  0  0  0  0
   -3.2278   -3.5847   -3.8377 O   0  0  0  0  0  0  0  0  0  0  0  0
   -5.3703   -3.6115   -2.8085 C   0  0  0  0  0  0  0  0  0  0  0  0
   -6.1337   -2.8489   -2.9815 H   0  0  0  0  0  0  0  0  0  0  0  0
   -5.5555   -4.4536   -3.4813 H   0  0  0  0  0  0  0  0  0  0  0  0
   -5.4426   -3.9619   -1.7760 H   0  0  0  0  0  0  0  0  0  0  0  0
   -3.5966   -1.8923   -2.3943 N   0  0  0  0  0  0  0  0  0  0  0  0
   -2.2296   -1.3547   -2.4100 C   0  0  2  0  0  0  0  0  0  0  0  0
   -1.8815   -0.6615   -1.0751 C   0  0  0  0  0  0  0  0  0  0  0  0
   -2.7528   -0.4558   -0.2372 O   0  0  0  0  0  0  0  0  0  0  0  0
   -2.1000   -0.3762   -3.5817 C   0  0  0  0  0  0  0  0  0  0  0  0
   -4.2093   -1.5531   -1.6534 H   0  0  0  0  0  0  0  0  0  0  0  0
   -1.5126   -2.1717   -2.5471 H   0  0  0  0  0  0  0  0  0  0  0  0
   -2.7938    0.4617   -3.4613 H   0  0  0  0  0  0  0  0  0  0  0  0
   -1.0809    0.0177   -3.6422 H   0  0  0  0  0  0  0  0  0  0  0  0
   -2.3266   -0.8835   -4.5249 H   0  0  0  0  0  0  0  0  0  0  0  0
   -0.5817   -0.2797   -0.8059 N   0  0  0  0  0  0  0  0  0  0  0  0
   -0.0976    0.1653    0.5161 C   0  0  0  0  0  0  0  0  0  0  0  0
    1.0569    1.1694    0.4032 C   0  0  0  0  0  0  0  0  0  0  0  0
    1.9229    1.1629    1.2639 O   0  0  0  0  0  0  0  0  0  0  0  0
    0.1286   -0.5794   -1.4845 H   0  0  0  0  0  0  0  0  0  0  0  0
    0.2373   -0.7007    1.0949 H   0  0  0  0  0  0  0  0  0  0  0  0
   -0.9020    0.6502    1.0776 H   0  0  0  0  0  0  0  0  0  0  0  0
    1.2808    1.7688   -0.8266 N   0  0  0  0  0  0  0  0  0  0  0  0
    2.5712    1.7053   -1.5382 C   0  0  2  0  0  0  0  0  0  0  0  0
    2.8362    0.2642   -2.0417 C   0  0  0  0  0  0  0  0  0  0  0  0
    1.8801   -0.4385   -2.3673 O   0  0  0  0  0  0  0  0  0  0  0  0
    3.7448    2.3034   -0.7425 C   0  0  0  0  0  0  0  0  0  0  0  0
    0.4743    1.6497   -1.4353 H   0  0  0  0  0  0  0  0  0  0  0  0
    2.4684    2.3256   -2.4337 H   0  0  0  0  0  0  0  0  0  0  0  0
    4.0728    1.6276    0.0530 H   0  0  0  0  0  0  0  0  0  0  0  0
    4.5960    2.4900   -1.4039 H   0  0  0  0  0  0  0  0  0  0  0  0
    3.4471    3.2545   -0.2899 H   0  0  0  0  0  0  0  0  0  0  0  0
    4.1170   -0.2361   -2.1851 N   0  0  0  0  0  0  0  0  0  0  0  0
    4.3993   -1.5969   -2.6266 C   0  0  0  0  0  0  0  0  0  0  0  0
    4.8795    0.3272   -1.8189 H   0  0  0  0  0  0  0  0  0  0  0  0
    3.9737   -2.3236   -1.9266 H   0  0  0  0  0  0  0  0  0  0  0  0
    3.9744   -1.7738   -3.6204 H   0  0  0  0  0  0  0  0  0  0  0  0
    5.4801   -1.7600   -2.6812 H   0  0  0  0  0  0  0  0  0  0  0  0
  1  2  2  0  0  0  0
  1  3  1  0  0  0  0
  1  7  1  0  0  0  0
  3  4  1  0  0  0  0
  3  5  1  0  0  0  0
  3  6  1  0  0  0  0
  7  8  1  0  0  0  0
  7 12  1  0  0  0  0
  8  9  1  0  0  0  0
  8 11  1  0  0  0  0
  8 13  1  0  0  0  0
  9 10  2  0  0  0  0
  9 17  1  0  0  0  0
 11 14  1  0  0  0  0
 11 15  1  0  0  0  0
 11 16  1  0  0  0  0
 17 18  1  0  0  0  0
 17 21  1  0  0  0  0
 18 19  1  0  0  0  0
 18 22  1  0  0  0  0
 18 23  1  0  0  0  0
 19 20  2  0  0  0  0
 19 24  1  0  0  0  0
 24 25  1  0  0  0  0
 24 29  1  0  0  0  0
 25 26  1  0  0  0  0
 25 28  1  0  0  0  0
 25 30  1  0  0  0  0
 26 27  2  0  0  0  0
 26 34  1  0  0  0  0
 28 31  1  0  0  0  0
 28 32  1  0  0  0  0
 28 33  1  0  0  0  0
 34 35  1  0  0  0  0
 34 36  1  0  0  0  0
 35 37  1  0  0  0  0
 35 38  1  0  0  0  0
 35 39  1  0  0  0  0
M  END
$$$$

  -OEChem-05262216283D

 39 38  0     1  0  0  0  0  0999 V2000
   -4.0249   -2.8913   -3.1731 C   0  0  0  0  0  0  0  0  0  0  0  0
   -3.2887   -3.3503   -4.0318 O   0  0  0  0  0  0  0  0  0  0  0  0
   -5.3984   -3.4946   -2.9473 C   0  0  0  0  0  0  0  0  0  0  0  0
   -6.1702   -2.7405   -3.1185 H   0  0  0  0  0  0  0  0  0  0  0  0
   -5.5616   -4.3286   -3.6356 H   0  0  0  0  0  0  0  0  0  0  0  0
   -5.4800   -3.8635   -1.9221 H   0  0  0  0  0  0  0  0  0  0  0  0
   -3.6061   -1.8321   -2.3962 N   0  0  0  0  0  0  0  0  0  0  0  0
   -2.2401   -1.2914   -2.4013 C   0  0  2  0  0  0  0  0  0  0  0  0
   -1.8487   -0.7317   -1.0169 C   0  0  0  0  0  0  0  0  0  0  0  0
   -2.6908   -0.6112   -0.1336 O   0  0  0  0  0  0  0  0  0  0  0  0
   -2.1499   -0.2011   -3.4737 C   0  0  0  0  0  0  0  0  0  0  0  0
   -4.1963   -1.5714   -1.6070 H   0  0  0  0  0  0  0  0  0  0  0  0
   -1.5277   -2.0884   -2.6416 H   0  0  0  0  0  0  0  0  0  0  0  0
   -2.8349    0.6209   -3.2432 H   0  0  0  0  0  0  0  0  0  0  0  0
   -1.1321    0.1965   -3.5343 H   0  0  0  0  0  0  0  0  0  0  0  0
   -2.4147   -0.6116   -4.4534 H   0  0  0  0  0  0  0  0  0  0  0  0
   -0.5447   -0.3606   -0.7575 N   0  0  0  0  0  0  0  0  0  0  0  0
   -0.0271    0.0443    0.5636 C   0  0  0  0  0  0  0  0  0  0  0  0
    1.1253    1.0453    0.4259 C   0  0  0  0  0  0  0  0  0  0  0  0
    2.1440    0.8675    1.0754 O   0  0  0  0  0  0  0  0  0  0  0  0
    0.1389   -0.5195   -1.5074 H   0  0  0  0  0  0  0  0  0  0  0  0
    0.3218   -0.8371    1.1108 H   0  0  0  0  0  0  0  0  0  0  0  0
   -0.8136    0.5175    1.1594 H   0  0  0  0  0  0  0  0  0  0  0  0
    1.1201    1.8902   -0.6730 N   0  0  0  0  0  0  0  0  0  0  0  0
    2.2867    2.0533   -1.5595 C   0  0  2  0  0  0  0  0  0  0  0  0
    2.6157    0.7177   -2.2736 C   0  0  0  0  0  0  0  0  0  0  0  0
    1.6906   -0.0205   -2.6097 O   0  0  0  0  0  0  0  0  0  0  0  0
    3.4944    2.6939   -0.8516 C   0  0  0  0  0  0  0  0  0  0  0  0
    0.2274    1.8557   -1.1596 H   0  0  0  0  0  0  0  0  0  0  0  0
    1.9927    2.7531   -2.3476 H   0  0  0  0  0  0  0  0  0  0  0  0
    3.9894    1.9858   -0.1807 H   0  0  0  0  0  0  0  0  0  0  0  0
    4.2282    3.0347   -1.5880 H   0  0  0  0  0  0  0  0  0  0  0  0
    3.1706    3.5586   -0.2642 H   0  0  0  0  0  0  0  0  0  0  0  0
    3.9137    0.3474   -2.5731 N   0  0  0  0  0  0  0  0  0  0  0  0
    4.2582   -0.9402   -3.1645 C   0  0  0  0  0  0  0  0  0  0  0  0
    4.6568    0.9131   -2.1726 H   0  0  0  0  0  0  0  0  0  0  0  0
    3.9713   -1.7584   -2.4955 H   0  0  0  0  0  0  0  0  0  0  0  0
    3.7459   -1.0728   -4.1234 H   0  0  0  0  0  0  0  0  0  0  0  0
    5.3366   -0.9985   -3.3407 H   0  0  0  0  0  0  0  0  0  0  0  0
  1  2  2  0  0  0  0
  1  3  1  0  0  0  0
  1  7  1  0  0  0  0
  3  4  1  0  0  0  0
  3  5  1  0  0  0  0
  3  6  1  0  0  0  0
  7  8  1  0  0  0  0
  7 12  1  0  0  0  0
  8  9  1  0  0  0  0
  8 11  1  0  0  0  0
  8 13  1  0  0  0  0
  9 10  2  0  0  0  0
  9 17  1  0  0  0  0
 11 14  1  0  0  0  0
 11 15  1  0  0  0  0
 11 16  1  0  0  0  0
 17 18  1  0  0  0  0
 17 21  1  0  0  0  0
 18 19  1  0  0  0  0
 18 22  1  0  0  0  0
 18 23  1  0  0  0  0
 19 20  2  0  0  0  0
 19 24  1  0  0  0  0
 24 25  1  0  0  0  0
 24 29  1  0  0  0  0
 25 26  1  0  0  0  0
 25 28  1  0  0  0  0
 25 30  1  0  0  0  0
 26 27  2  0  0  0  0
 26 34  1  0  0  0  0
 28 31  1  0  0  0  0
 28 32  1  0  0  0  0
 28 33  1  0  0  0  0
 34 35  1  0  0  0  0
 34 36  1  0  0  0  0
 35 37  1  0  0  0  0
 35 38  1  0  0  0  0
 35 39  1  0  0  0  0
M  END
$$$$

  -OEChem-05262216283D

 39 38  0     1  0  0  0  0  0999 V2000
   -4.0122   -2.7410   -3.2803 C   0  0  0  0  0  0  0  0  0  0  0  0
   -3.3046   -3.0655   -4.2205 O   0  0  0  0  0  0  0  0  0  0  0  0
   -5.3564   -3.4128   -3.0733 C   0  0  0  0  0  0  0  0  0  0  0  0
   -6.1478   -2.6604   -3.0329 H   0  0  0  0  0  0  0  0  0  0  0  0
   -5.5654   -4.0997   -3.8982 H   0  0  0  0  0  0  0  0  0  0  0  0
   -5.3505   -3.9768   -2.1374 H   0  0  0  0  0  0  0  0  0  0  0  0
   -3.5889   -1.7717   -2.3963 N   0  0  0  0  0  0  0  0  0  0  0  0
   -2.2490   -1.1699   -2.4022 C   0  0  2  0  0  0  0  0  0  0  0  0
   -1.8157   -0.7481   -0.9823 C   0  0  0  0  0  0  0  0  0  0  0  0
   -2.6307   -0.7166   -0.0662 O   0  0  0  0  0  0  0  0  0  0  0  0
   -2.2598    0.0379   -3.3447 C   0  0  0  0  0  0  0  0  0  0  0  0
   -4.1516   -1.6248   -1.5590 H   0  0  0  0  0  0  0  0  0  0  0  0
   -1.5162   -1.9003   -2.7630 H   0  0  0  0  0  0  0  0  0  0  0  0
   -2.9822    0.7850   -3.0016 H   0  0  0  0  0  0  0  0  0  0  0  0
   -1.2695    0.5013   -3.3878 H   0  0  0  0  0  0  0  0  0  0  0  0
   -2.5346   -0.2741   -4.3573 H   0  0  0  0  0  0  0  0  0  0  0  0
   -0.5080   -0.3888   -0.7276 N   0  0  0  0  0  0  0  0  0  0  0  0
    0.0206   -0.0000    0.5921 C   0  0  0  0  0  0  0  0  0  0  0  0
    1.1750    0.9914    0.4282 C   0  0  0  0  0  0  0  0  0  0  0  0
    2.2871    0.6936    0.8376 O   0  0  0  0  0  0  0  0  0  0  0  0
    0.1439   -0.4054   -1.5211 H   0  0  0  0  0  0  0  0  0  0  0  0
    0.3736   -0.8863    1.1283 H   0  0  0  0  0  0  0  0  0  0  0  0
   -0.7553    0.4735    1.2017 H   0  0  0  0  0  0  0  0  0  0  0  0
    1.0042    2.0309   -0.4723 N   0  0  0  0  0  0  0  0  0  0  0  0
    2.0420    2.3857   -1.4573 C   0  0  2  0  0  0  0  0  0  0  0  0
    2.3902    1.1689   -2.3544 C   0  0  0  0  0  0  0  0  0  0  0  0
    1.4828    0.4251   -2.7243 O   0  0  0  0  0  0  0  0  0  0  0  0
    3.2643    3.0491   -0.7974 C   0  0  0  0  0  0  0  0  0  0  0  0
    0.0506    2.0754   -0.8235 H   0  0  0  0  0  0  0  0  0  0  0  0
    1.6095    3.1370   -2.1249 H   0  0  0  0  0  0  0  0  0  0  0  0
    3.8642    2.3240   -0.2398 H   0  0  0  0  0  0  0  0  0  0  0  0
    3.9026    3.5080   -1.5584 H   0  0  0  0  0  0  0  0  0  0  0  0
    2.9393    3.8321   -0.1053 H   0  0  0  0  0  0  0  0  0  0  0  0
    3.6838    0.9054   -2.7649 N   0  0  0  0  0  0  0  0  0  0  0  0
    4.0497   -0.2869   -3.5206 C   0  0  0  0  0  0  0  0  0  0  0  0
    4.4223    1.4441   -2.3212 H   0  0  0  0  0  0  0  0  0  0  0  0
    3.7915   -1.1914   -2.9594 H   0  0  0  0  0  0  0  0  0  0  0  0
    3.5269   -0.3074   -4.4828 H   0  0  0  0  0  0  0  0  0  0  0  0
    5.1267   -0.2956   -3.7140 H   0  0  0  0  0  0  0  0  0  0  0  0
  1  2  2  0  0  0  0
  1  3  1  0  0  0  0
  1  7  1  0  0  0  0
  3  4  1  0  0  0  0
  3  5  1  0  0  0  0
  3  6  1  0  0  0  0
  7  8  1  0  0  0  0
  7 12  1  0  0  0  0
  8  9  1  0  0  0  0
  8 11  1  0  0  0  0
  8 13  1  0  0  0  0
  9 10  2  0  0  0  0
  9 17  1  0  0  0  0
 11 14  1  0  0  0  0
 11 15  1  0  0  0  0
 11 16  1  0  0  0  0
 17 18  1  0  0  0  0
 17 21  1  0  0  0  0
 18 19  1  0  0  0  0
 18 22  1  0  0  0  0
 18 23  1  0  0  0  0
 19 20  2  0  0  0  0
 19 24  1  0  0  0  0
 24 25  1  0  0  0  0
 24 29  1  0  0  0  0
 25 26  1  0  0  0  0
 25 28  1  0  0  0  0
 25 30  1  0  0  0  0
 26 27  2  0  0  0  0
 26 34  1  0  0  0  0
 28 31  1  0  0  0  0
 28 32  1  0  0  0  0
 28 33  1  0  0  0  0
 34 35  1  0  0  0  0
 34 36  1  0  0  0  0
 35 37  1  0  0  0  0
 35 38  1  0  0  0  0
 35 39  1  0  0  0  0
M  END
$$$$

  -OEChem-05262216283D

 39 38  0     1  0  0  0  0  0999 V2000
   -3.9218   -2.6474   -3.3638 C   0  0  0  0  0  0  0  0  0  0  0  0
   -3.2075   -2.8604   -4.3304 O   0  0  0  0  0  0  0  0  0  0  0  0
   -5.2110   -3.4269   -3.1844 C   0  0  0  0  0  0  0  0  0  0  0  0
   -6.0641   -2.7442   -3.1977 H   0  0  0  0  0  0  0  0  0  0  0  0
   -5.3281   -4.1537   -3.9932 H   0  0  0  0  0  0  0  0  0  0  0  0
   -5.1943   -3.9611   -2.2312 H   0  0  0  0  0  0  0  0  0  0  0  0
   -3.5578   -1.7046   -2.4262 N   0  0  0  0  0  0  0  0  0  0  0  0
   -2.2666   -1.0046   -2.4087 C   0  0  2  0  0  0  0  0  0  0  0  0
   -1.8186   -0.6876   -0.9663 C   0  0  0  0  0  0  0  0  0  0  0  0
   -2.6272   -0.7223   -0.0441 O   0  0  0  0  0  0  0  0  0  0  0  0
   -2.4044    0.2822   -3.2274 C   0  0  0  0  0  0  0  0  0  0  0  0
   -4.1227   -1.6433   -1.5800 H   0  0  0  0  0  0  0  0  0  0  0  0
   -1.4935   -1.6363   -2.8600 H   0  0  0  0  0  0  0  0  0  0  0  0
   -3.1583    0.9401   -2.7840 H   0  0  0  0  0  0  0  0  0  0  0  0
   -1.4511    0.8176   -3.2655 H   0  0  0  0  0  0  0  0  0  0  0  0
   -2.7056    0.0471   -4.2533 H   0  0  0  0  0  0  0  0  0  0  0  0
   -0.5074   -0.3538   -0.6942 N   0  0  0  0  0  0  0  0  0  0  0  0
   -0.0005    0.0307    0.6345 C   0  0  0  0  0  0  0  0  0  0  0  0
    1.1744    0.9967    0.4825 C   0  0  0  0  0  0  0  0  0  0  0  0
    2.3131    0.5972    0.6770 O   0  0  0  0  0  0  0  0  0  0  0  0
    0.1169   -0.2344   -1.5003 H   0  0  0  0  0  0  0  0  0  0  0  0
    0.3289   -0.8585    1.1810 H   0  0  0  0  0  0  0  0  0  0  0  0
   -0.7800    0.5196    1.2270 H   0  0  0  0  0  0  0  0  0  0  0  0
    0.9443    2.1951   -0.1735 N   0  0  0  0  0  0  0  0  0  0  0  0
    1.8921    2.7134   -1.1769 C   0  0  2  0  0  0  0  0  0  0  0  0
    2.1582    1.6621   -2.2871 C   0  0  0  0  0  0  0  0  0  0  0  0
    1.2249    0.9681   -2.6879 O   0  0  0  0  0  0  0  0  0  0  0  0
    3.1688    3.2654   -0.5181 C   0  0  0  0  0  0  0  0  0  0  0  0
   -0.0378    2.3299   -0.4002 H   0  0  0  0  0  0  0  0  0  0  0  0
    1.4103    3.5605   -1.6745 H   0  0  0  0  0  0  0  0  0  0  0  0
    3.7962    2.4621   -0.1213 H   0  0  0  0  0  0  0  0  0  0  0  0
    3.7576    3.8319   -1.2458 H   0  0  0  0  0  0  0  0  0  0  0  0
    2.9055    3.9353    0.3062 H   0  0  0  0  0  0  0  0  0  0  0  0
    3.4108    1.4856   -2.8448 N   0  0  0  0  0  0  0  0  0  0  0  0
    3.7091    0.4205   -3.7950 C   0  0  0  0  0  0  0  0  0  0  0  0
    4.1853    1.9534   -2.3827 H   0  0  0  0  0  0  0  0  0  0  0  0
    3.5363   -0.5600   -3.3384 H   0  0  0  0  0  0  0  0  0  0  0  0
    3.0767    0.5114   -4.6845 H   0  0  0  0  0  0  0  0  0  0  0  0
    4.7554    0.4772   -4.1099 H   0  0  0  0  0  0  0  0  0  0  0  0
  1  2  2  0  0  0  0
  1  3  1  0  0  0  0
  1  7  1  0  0  0  0
  3  4  1  0  0  0  0
  3  5  1  0  0  0  0
  3  6  1  0  0  0  0
  7  8  1  0  0  0  0
  7 12  1  0  0  0  0
  8  9  1  0  0  0  0
  8 11  1  0  0  0  0
  8 13  1  0  0  0  0
  9 10  2  0  0  0  0
  9 17  1  0  0  0  0
 11 14  1  0  0  0  0
 11 15  1  0  0  0  0
 11 16  1  0  0  0  0
 17 18  1  0  0  0  0
 17 21  1  0  0  0  0
 18 19  1  0  0  0  0
 18 22  1  0  0  0  0
 18 23  1  0  0  0  0
 19 20  2  0  0  0  0
 19 24  1  0  0  0  0
 24 25  1  0  0  0  0
 24 29  1  0  0  0  0
 25 26  1  0  0  0  0
 25 28  1  0  0  0  0
 25 30  1  0  0  0  0
 26 27  2  0  0  0  0
 26 34  1  0  0  0  0
 28 31  1  0  0  0  0
 28 32  1  0  0  0  0
 28 33  1  0  0  0  0
 34 35  1  0  0  0  0
 34 36  1  0  0  0  0
 35 37  1  0  0  0  0
 35 38  1  0  0  0  0
 35 39  1  0  0  0  0
M  END
$$$$

  -OEChem-05262216283D

 39 38  0     1  0  0  0  0  0999 V2000
   -3.9120   -2.5961   -3.3719 C   0  0  0  0  0  0  0  0  0  0  0  0
   -3.1820   -2.8152   -4.3254 O   0  0  0  0  0  0  0  0  0  0  0  0
   -5.2121   -3.3631   -3.2183 C   0  0  0  0  0  0  0  0  0  0  0  0
   -6.0579   -2.6721   -3.2483 H   0  0  0  0  0  0  0  0  0  0  0  0
   -5.3202   -4.0880   -4.0300 H   0  0  0  0  0  0  0  0  0  0  0  0
   -5.2207   -3.8976   -2.2652 H   0  0  0  0  0  0  0  0  0  0  0  0
   -3.5602   -1.6524   -2.4308 N   0  0  0  0  0  0  0  0  0  0  0  0
   -2.2674   -0.9557   -2.3950 C   0  0  2  0  0  0  0  0  0  0  0  0
   -1.8254   -0.6704   -0.9434 C   0  0  0  0  0  0  0  0  0  0  0  0
   -2.6412   -0.7281   -0.0281 O   0  0  0  0  0  0  0  0  0  0  0  0
   -2.4042    0.3445   -3.1923 C   0  0  0  0  0  0  0  0  0  0  0  0
   -4.1328   -1.5950   -1.5895 H   0  0  0  0  0  0  0  0  0  0  0  0
   -1.4933   -1.5800   -2.8548 H   0  0  0  0  0  0  0  0  0  0  0  0
   -3.1654    0.9913   -2.7451 H   0  0  0  0  0  0  0  0  0  0  0  0
   -1.4541    0.8850   -3.2119 H   0  0  0  0  0  0  0  0  0  0  0  0
   -2.6946    0.1261   -4.2249 H   0  0  0  0  0  0  0  0  0  0  0  0
   -0.5131   -0.3569   -0.6485 N   0  0  0  0  0  0  0  0  0  0  0  0
   -0.0380    0.0243    0.6923 C   0  0  0  0  0  0  0  0  0  0  0  0
    1.1537    0.9716    0.5650 C   0  0  0  0  0  0  0  0  0  0  0  0
    2.2891    0.5183    0.5523 O   0  0  0  0  0  0  0  0  0  0  0  0
    0.1046   -0.1650   -1.4439 H   0  0  0  0  0  0  0  0  0  0  0  0
    0.2673   -0.8675    1.2484 H   0  0  0  0  0  0  0  0  0  0  0  0
   -0.8258    0.5224    1.2656 H   0  0  0  0  0  0  0  0  0  0  0  0
    0.9074    2.2818    0.1907 N   0  0  0  0  0  0  0  0  0  0  0  0
    1.7880    2.9775   -0.7658 C   0  0  2  0  0  0  0  0  0  0  0  0
    1.9852    2.1555   -2.0691 C   0  0  0  0  0  0  0  0  0  0  0  0
    1.0542    1.4803   -2.5048 O   0  0  0  0  0  0  0  0  0  0  0  0
    3.1076    3.3998   -0.0966 C   0  0  0  0  0  0  0  0  0  0  0  0
   -0.0843    2.4828    0.0923 H   0  0  0  0  0  0  0  0  0  0  0  0
    1.2801    3.8989   -1.0662 H   0  0  0  0  0  0  0  0  0  0  0  0
    3.7506    2.5367    0.0993 H   0  0  0  0  0  0  0  0  0  0  0  0
    3.6540    4.0965   -0.7392 H   0  0  0  0  0  0  0  0  0  0  0  0
    2.9033    3.9001    0.8549 H   0  0  0  0  0  0  0  0  0  0  0  0
    3.1712    2.1942   -2.7794 N   0  0  0  0  0  0  0  0  0  0  0  0
    3.4194    1.3674   -3.9543 C   0  0  0  0  0  0  0  0  0  0  0  0
    3.9628    2.6369   -2.3220 H   0  0  0  0  0  0  0  0  0  0  0  0
    3.3664    0.3051   -3.6935 H   0  0  0  0  0  0  0  0  0  0  0  0
    2.6795    1.5768   -4.7340 H   0  0  0  0  0  0  0  0  0  0  0  0
    4.4140    1.5756   -4.3601 H   0  0  0  0  0  0  0  0  0  0  0  0
  1  2  2  0  0  0  0
  1  3  1  0  0  0  0
  1  7  1  0  0  0  0
  3  4  1  0  0  0  0
  3  5  1  0  0  0  0
  3  6  1  0  0  0  0
  7  8  1  0  0  0  0
  7 12  1  0  0  0  0
  8  9  1  0  0  0  0
  8 11  1  0  0  0  0
  8 13  1  0  0  0  0
  9 10  2  0  0  0  0
  9 17  1  0  0  0  0
 11 14  1  0  0  0  0
 11 15  1  0  0  0  0
 11 16  1  0  0  0  0
 17 18  1  0  0  0  0
 17 21  1  0  0  0  0
 18 19  1  0  0  0  0
 18 22  1  0  0  0  0
 18 23  1  0  0  0  0
 19 20  2  0  0  0  0
 19 24  1  0  0  0  0
 24 25  1  0  0  0  0
 24 29  1  0  0  0  0
 25 26  1  0  0  0  0
 25 28  1  0  0  0  0
 25 30  1  0  0  0  0
 26 27  2  0  0  0  0
 26 34  1  0  0  0  0
 28 31  1  0  0  0  0
 28 32  1  0  0  0  0
 28 33  1  0  0  0  0
 34 35  1  0  0  0  0
 34 36  1  0  0  0  0
 35 37  1  0  0  0  0
 35 38  1  0  0  0  0
 35 39  1  0  0  0  0
M  END
$$$$

  -OEChem-05262216283D

 39 38  0     1  0  0  0  0  0999 V2000
   -4.5908   -3.4282   -2.1970 C   0  0  0  0  0  0  0  0  0  0  0  0
   -3.9796   -4.4487   -1.9225 O   0  0  0  0  0  0  0  0  0  0  0  0
   -6.0742   -3.4874   -2.5094 C   0  0  0  0  0  0  0  0  0  0  0  0
   -6.2555   -3.1269   -3.5248 H   0  0  0  0  0  0  0  0  0  0  0  0
   -6.4364   -4.5163   -2.4306 H   0  0  0  0  0  0  0  0  0  0  0  0
   -6.6291   -2.8640   -1.8041 H   0  0  0  0  0  0  0  0  0  0  0  0
   -3.9349   -2.2158   -2.2162 N   0  0  0  0  0  0  0  0  0  0  0  0
   -2.5443   -2.0173   -1.7877 C   0  0  2  0  0  0  0  0  0  0  0  0
   -2.3262   -0.6031   -1.2084 C   0  0  0  0  0  0  0  0  0  0  0  0
   -3.1999    0.2505   -1.3166 O   0  0  0  0  0  0  0  0  0  0  0  0
   -1.6264   -2.2570   -2.9910 C   0  0  0  0  0  0  0  0  0  0  0  0
   -4.5045   -1.3771   -2.3251 H   0  0  0  0  0  0  0  0  0  0  0  0
   -2.2970   -2.7344   -0.9973 H   0  0  0  0  0  0  0  0  0  0  0  0
   -1.8550   -1.5490   -3.7941 H   0  0  0  0  0  0  0  0  0  0  0  0
   -0.5771   -2.1350   -2.7060 H   0  0  0  0  0  0  0  0  0  0  0  0
   -1.7614   -3.2736   -3.3740 H   0  0  0  0  0  0  0  0  0  0  0  0
   -1.1510   -0.2844   -0.5537 N   0  0  0  0  0  0  0  0  0  0  0  0
   -0.9009    1.0015    0.1161 C   0  0  0  0  0  0  0  0  0  0  0  0
    0.5834    1.3757    0.0945 C   0  0  0  0  0  0  0  0  0  0  0  0
    1.3345    0.9276    0.9493 O   0  0  0  0  0  0  0  0  0  0  0  0
   -0.4768   -1.0343   -0.4126 H   0  0  0  0  0  0  0  0  0  0  0  0
   -1.2372    0.9470    1.1558 H   0  0  0  0  0  0  0  0  0  0  0  0
   -1.4624    1.8071   -0.3673 H   0  0  0  0  0  0  0  0  0  0  0  0
    1.1030    2.1164   -0.9483 N   0  0  0  0  0  0  0  0  0  0  0  0
    2.4924    2.5860   -1.0264 C   0  0  2  0  0  0  0  0  0  0  0  0
    2.5905    3.9417   -1.7581 C   0  0  0  0  0  0  0  0  0  0  0  0
    1.6396    4.3579   -2.4107 O   0  0  0  0  0  0  0  0  0  0  0  0
    3.3229    1.5206   -1.7488 C   0  0  0  0  0  0  0  0  0  0  0  0
    0.4415    2.5294   -1.6069 H   0  0  0  0  0  0  0  0  0  0  0  0
    2.8907    2.7305   -0.0163 H   0  0  0  0  0  0  0  0  0  0  0  0
    2.9425    1.3625   -2.7631 H   0  0  0  0  0  0  0  0  0  0  0  0
    4.3712    1.8271   -1.8131 H   0  0  0  0  0  0  0  0  0  0  0  0
    3.2753    0.5710   -1.2063 H   0  0  0  0  0  0  0  0  0  0  0  0
    3.7403    4.7052   -1.6729 N   0  0  0  0  0  0  0  0  0  0  0  0
    3.8870    6.0057   -2.3163 C   0  0  0  0  0  0  0  0  0  0  0  0
    4.5052    4.3446   -1.1099 H   0  0  0  0  0  0  0  0  0  0  0  0
    3.8175    5.9057   -3.4044 H   0  0  0  0  0  0  0  0  0  0  0  0
    3.1054    6.6929   -1.9757 H   0  0  0  0  0  0  0  0  0  0  0  0
    4.8598    6.4424   -2.0710 H   0  0  0  0  0  0  0  0  0  0  0  0
  1  2  2  0  0  0  0
  1  3  1  0  0  0  0
  1  7  1  0  0  0  0
  3  4  1  0  0  0  0
  3  5  1  0  0  0  0
  3  6  1  0  0  0  0
  7  8  1  0  0  0  0
  7 12  1  0  0  0  0
  8  9  1  0  0  0  0
  8 11  1  0  0  0  0
  8 13  1  0  0  0  0
  9 10  2  0  0  0  0
  9 17  1  0  0  0  0
 11 14  1  0  0  0  0
 11 15  1  0  0  0  0
 11 16  1  0  0  0  0
 17 18  1  0  0  0  0
 17 21  1  0  0  0  0
 18 19  1  0  0  0  0
 18 22  1  0  0  0  0
 18 23  1  0  0  0  0
 19 20  2  0  0  0  0
 19 24  1  0  0  0  0
 24 25  1  0  0  0  0
 24 29  1  0  0  0  0
 25 26  1  0  0  0  0
 25 28  1  0  0  0  0
 25 30  1  0  0  0  0
 26 27  2  0  0  0  0
 26 34  1  0  0  0  0
 28 31  1  0  0  0  0
 28 32  1  0  0  0  0
 28 33  1  0  0  0  0
 34 35  1  0  0  0  0
 34 36  1  0  0  0  0
 35 37  1  0  0  0  0
 35 38  1  0  0  0  0
 35 39  1  0  0  0  0
M  END
$$$$

  -OEChem-05262216283D

 39 38  0     1  0  0  0  0  0999 V2000
   -4.4865   -3.4781   -2.3158 C   0  0  0  0  0  0  0  0  0  0  0  0
   -3.8176   -4.4865   -2.1543 O   0  0  0  0  0  0  0  0  0  0  0  0
   -5.9724   -3.5862   -2.6008 C   0  0  0  0  0  0  0  0  0  0  0  0
   -6.1982   -3.1443   -3.5742 H   0  0  0  0  0  0  0  0  0  0  0  0
   -6.2786   -4.6360   -2.6110 H   0  0  0  0  0  0  0  0  0  0  0  0
   -6.5403   -3.0609   -1.8291 H   0  0  0  0  0  0  0  0  0  0  0  0
   -3.8921   -2.2371   -2.2361 N   0  0  0  0  0  0  0  0  0  0  0  0
   -2.4979   -2.0084   -1.8360 C   0  0  2  0  0  0  0  0  0  0  0  0
   -2.3261   -0.6415   -1.1399 C   0  0  0  0  0  0  0  0  0  0  0  0
   -3.2398    0.1767   -1.1482 O   0  0  0  0  0  0  0  0  0  0  0  0
   -1.6151   -2.0910   -3.0858 C   0  0  0  0  0  0  0  0  0  0  0  0
   -4.5038   -1.4214   -2.2528 H   0  0  0  0  0  0  0  0  0  0  0  0
   -2.1880   -2.7797   -1.1221 H   0  0  0  0  0  0  0  0  0  0  0  0
   -1.9181   -1.3356   -3.8177 H   0  0  0  0  0  0  0  0  0  0  0  0
   -0.5645   -1.9265   -2.8287 H   0  0  0  0  0  0  0  0  0  0  0  0
   -1.7037   -3.0793   -3.5479 H   0  0  0  0  0  0  0  0  0  0  0  0
   -1.1432   -0.3229   -0.5003 N   0  0  0  0  0  0  0  0  0  0  0  0
   -0.9040    0.9310    0.2297 C   0  0  0  0  0  0  0  0  0  0  0  0
    0.5720    1.3352    0.1819 C   0  0  0  0  0  0  0  0  0  0  0  0
    1.4015    0.6522    0.7672 O   0  0  0  0  0  0  0  0  0  0  0  0
   -0.4187   -1.0381   -0.4641 H   0  0  0  0  0  0  0  0  0  0  0  0
   -1.2041    0.8147    1.2752 H   0  0  0  0  0  0  0  0  0  0  0  0
   -1.4997    1.7448   -0.1953 H   0  0  0  0  0  0  0  0  0  0  0  0
    0.9940    2.3677   -0.6316 N   0  0  0  0  0  0  0  0  0  0  0  0
    2.3823    2.8344   -0.7363 C   0  0  2  0  0  0  0  0  0  0  0  0
    2.4501    4.3345   -1.0930 C   0  0  0  0  0  0  0  0  0  0  0  0
    1.4497    4.9149   -1.5003 O   0  0  0  0  0  0  0  0  0  0  0  0
    3.0968    1.9962   -1.8014 C   0  0  0  0  0  0  0  0  0  0  0  0
    0.2794    2.9462   -1.0746 H   0  0  0  0  0  0  0  0  0  0  0  0
    2.8871    2.7027    0.2268 H   0  0  0  0  0  0  0  0  0  0  0  0
    2.6083    2.1176   -2.7736 H   0  0  0  0  0  0  0  0  0  0  0  0
    4.1428    2.3026   -1.8956 H   0  0  0  0  0  0  0  0  0  0  0  0
    3.0732    0.9362   -1.5294 H   0  0  0  0  0  0  0  0  0  0  0  0
    3.6312    5.0394   -0.9497 N   0  0  0  0  0  0  0  0  0  0  0  0
    3.7586    6.4577   -1.2642 C   0  0  0  0  0  0  0  0  0  0  0  0
    4.4435    4.5355   -0.6056 H   0  0  0  0  0  0  0  0  0  0  0  0
    3.5672    6.6332   -2.3281 H   0  0  0  0  0  0  0  0  0  0  0  0
    3.0460    7.0461   -0.6764 H   0  0  0  0  0  0  0  0  0  0  0  0
    4.7688    6.8083   -1.0321 H   0  0  0  0  0  0  0  0  0  0  0  0
  1  2  2  0  0  0  0
  1  3  1  0  0  0  0
  1  7  1  0  0  0  0
  3  4  1  0  0  0  0
  3  5  1  0  0  0  0
  3  6  1  0  0  0  0
  7  8  1  0  0  0  0
  7 12  1  0  0  0  0
  8  9  1  0  0  0  0
  8 11  1  0  0  0  0
  8 13  1  0  0  0  0
  9 10  2  0  0  0  0
  9 17  1  0  0  0  0
 11 14  1  0  0  0  0
 11 15  1  0  0  0  0
 11 16  1  0  0  0  0
 17 18  1  0  0  0  0
 17 21  1  0  0  0  0
 18 19  1  0  0  0  0
 18 22  1  0  0  0  0
 18 23  1  0  0  0  0
 19 20  2  0  0  0  0
 19 24  1  0  0  0  0
 24 25  1  0  0  0  0
 24 29  1  0  0  0  0
 25 26  1  0  0  0  0
 25 28  1  0  0  0  0
 25 30  1  0  0  0  0
 26 27  2  0  0  0  0
 26 34  1  0  0  0  0
 28 31  1  0  0  0  0
 28 32  1  0  0  0  0
 28 33  1  0  0  0  0
 34 35  1  0  0  0  0
 34 36  1  0  0  0  0
 35 37  1  0  0  0  0
 35 38  1  0  0  0  0
 35 39  1  0  0  0  0
M  END
$$$$

  -OEChem-05262216283D

 39 38  0     1  0  0  0  0  0999 V2000
   -4.4011   -3.5207   -2.4196 C   0  0  0  0  0  0  0  0  0  0  0  0
   -3.6859   -4.5054   -2.3231 O   0  0  0  0  0  0  0  0  0  0  0  0
   -5.8816   -3.6803   -2.7084 C   0  0  0  0  0  0  0  0  0  0  0  0
   -6.1311   -3.1979   -3.6566 H   0  0  0  0  0  0  0  0  0  0  0  0
   -6.1400   -4.7409   -2.7735 H   0  0  0  0  0  0  0  0  0  0  0  0
   -6.4693   -3.2229   -1.9090 H   0  0  0  0  0  0  0  0  0  0  0  0
   -3.8655   -2.2607   -2.2590 N   0  0  0  0  0  0  0  0  0  0  0  0
   -2.4800   -1.9925   -1.8531 C   0  0  2  0  0  0  0  0  0  0  0  0
   -2.3577   -0.6505   -1.1003 C   0  0  0  0  0  0  0  0  0  0  0  0
   -3.2974    0.1374   -1.0811 O   0  0  0  0  0  0  0  0  0  0  0  0
   -1.5986   -1.9846   -3.1070 C   0  0  0  0  0  0  0  0  0  0  0  0
   -4.5136   -1.4742   -2.2269 H   0  0  0  0  0  0  0  0  0  0  0  0
   -2.1372   -2.7809   -1.1740 H   0  0  0  0  0  0  0  0  0  0  0  0
   -1.9194   -1.1951   -3.7943 H   0  0  0  0  0  0  0  0  0  0  0  0
   -0.5514   -1.8121   -2.8408 H   0  0  0  0  0  0  0  0  0  0  0  0
   -1.6659   -2.9464   -3.6257 H   0  0  0  0  0  0  0  0  0  0  0  0
   -1.1865   -0.3152   -0.4492 N   0  0  0  0  0  0  0  0  0  0  0  0
   -0.9566    0.9506    0.2620 C   0  0  0  0  0  0  0  0  0  0  0  0
    0.5230    1.3465    0.2221 C   0  0  0  0  0  0  0  0  0  0  0  0
    1.3693    0.5328    0.5698 O   0  0  0  0  0  0  0  0  0  0  0  0
   -0.4242   -0.9919   -0.4626 H   0  0  0  0  0  0  0  0  0  0  0  0
   -1.2708    0.8565    1.3055 H   0  0  0  0  0  0  0  0  0  0  0  0
   -1.5448    1.7548   -0.1913 H   0  0  0  0  0  0  0  0  0  0  0  0
    0.9250    2.5362   -0.3513 N   0  0  0  0  0  0  0  0  0  0  0  0
    2.3176    2.9953   -0.4254 C   0  0  2  0  0  0  0  0  0  0  0  0
    2.4080    4.5349   -0.3825 C   0  0  0  0  0  0  0  0  0  0  0  0
    1.4032    5.2150   -0.5609 O   0  0  0  0  0  0  0  0  0  0  0  0
    2.9367    2.4542   -1.7179 C   0  0  0  0  0  0  0  0  0  0  0  0
    0.2043    3.2199   -0.5842 H   0  0  0  0  0  0  0  0  0  0  0  0
    2.8787    2.6114    0.4333 H   0  0  0  0  0  0  0  0  0  0  0  0
    2.3907    2.8296   -2.5894 H   0  0  0  0  0  0  0  0  0  0  0  0
    3.9831    2.7619   -1.8023 H   0  0  0  0  0  0  0  0  0  0  0  0
    2.8986    1.3603   -1.7276 H   0  0  0  0  0  0  0  0  0  0  0  0
    3.6158    5.1597   -0.1318 N   0  0  0  0  0  0  0  0  0  0  0  0
    3.7724    6.6084   -0.0816 C   0  0  0  0  0  0  0  0  0  0  0  0
    4.4302    4.5707    0.0159 H   0  0  0  0  0  0  0  0  0  0  0  0
    3.5820    7.0470   -1.0668 H   0  0  0  0  0  0  0  0  0  0  0  0
    3.0743    7.0461    0.6402 H   0  0  0  0  0  0  0  0  0  0  0  0
    4.7906    6.8690    0.2235 H   0  0  0  0  0  0  0  0  0  0  0  0
  1  2  2  0  0  0  0
  1  3  1  0  0  0  0
  1  7  1  0  0  0  0
  3  4  1  0  0  0  0
  3  5  1  0  0  0  0
  3  6  1  0  0  0  0
  7  8  1  0  0  0  0
  7 12  1  0  0  0  0
  8  9  1  0  0  0  0
  8 11  1  0  0  0  0
  8 13  1  0  0  0  0
  9 10  2  0  0  0  0
  9 17  1  0  0  0  0
 11 14  1  0  0  0  0
 11 15  1  0  0  0  0
 11 16  1  0  0  0  0
 17 18  1  0  0  0  0
 17 21  1  0  0  0  0
 18 19  1  0  0  0  0
 18 22  1  0  0  0  0
 18 23  1  0  0  0  0
 19 20  2  0  0  0  0
 19 24  1  0  0  0  0
 24 25  1  0  0  0  0
 24 29  1  0  0  0  0
 25 26  1  0  0  0  0
 25 28  1  0  0  0  0
 25 30  1  0  0  0  0
 26 27  2  0  0  0  0
 26 34  1  0  0  0  0
 28 31  1  0  0  0  0
 28 32  1  0  0  0  0
 28 33  1  0  0  0  0
 34 35  1  0  0  0  0
 34 36  1  0  0  0  0
 35 37  1  0  0  0  0
 35 38  1  0  0  0  0
 35 39  1  0  0  0  0
M  END
$$$$

  -OEChem-05262216283D

 39 38  0     1  0  0  0  0  0999 V2000
   -4.3805   -3.5262   -2.4738 C   0  0  0  0  0  0  0  0  0  0  0  0
   -3.6708   -4.5139   -2.3688 O   0  0  0  0  0  0  0  0  0  0  0  0
   -5.8594   -3.6783   -2.7752 C   0  0  0  0  0  0  0  0  0  0  0  0
   -6.1043   -3.1670   -3.7092 H   0  0  0  0  0  0  0  0  0  0  0  0
   -6.1171   -4.7363   -2.8748 H   0  0  0  0  0  0  0  0  0  0  0  0
   -6.4514   -3.2461   -1.9650 H   0  0  0  0  0  0  0  0  0  0  0  0
   -3.8414   -2.2682   -2.3098 N   0  0  0  0  0  0  0  0  0  0  0  0
   -2.4627   -2.0040   -1.8785 C   0  0  2  0  0  0  0  0  0  0  0  0
   -2.3539   -0.6585   -1.1295 C   0  0  0  0  0  0  0  0  0  0  0  0
   -3.2978    0.1250   -1.1209 O   0  0  0  0  0  0  0  0  0  0  0  0
   -1.5547   -2.0074   -3.1133 C   0  0  0  0  0  0  0  0  0  0  0  0
   -4.4883   -1.4805   -2.2814 H   0  0  0  0  0  0  0  0  0  0  0  0
   -2.1366   -2.7900   -1.1884 H   0  0  0  0  0  0  0  0  0  0  0  0
   -1.8536   -1.2178   -3.8099 H   0  0  0  0  0  0  0  0  0  0  0  0
   -0.5119   -1.8431   -2.8255 H   0  0  0  0  0  0  0  0  0  0  0  0
   -1.6193   -2.9704   -3.6297 H   0  0  0  0  0  0  0  0  0  0  0  0
   -1.1942   -0.3188   -0.4610 N   0  0  0  0  0  0  0  0  0  0  0  0
   -0.9684    0.9573    0.2329 C   0  0  0  0  0  0  0  0  0  0  0  0
    0.5151    1.3453    0.2175 C   0  0  0  0  0  0  0  0  0  0  0  0
    1.3663    0.4733    0.3472 O   0  0  0  0  0  0  0  0  0  0  0  0
   -0.4128   -0.9731   -0.4987 H   0  0  0  0  0  0  0  0  0  0  0  0
   -1.3062    0.8840    1.2706 H   0  0  0  0  0  0  0  0  0  0  0  0
   -1.5404    1.7561   -0.2495 H   0  0  0  0  0  0  0  0  0  0  0  0
    0.9081    2.6351   -0.0801 N   0  0  0  0  0  0  0  0  0  0  0  0
    2.3024    3.0963   -0.0926 C   0  0  2  0  0  0  0  0  0  0  0  0
    2.4188    4.5692    0.3525 C   0  0  0  0  0  0  0  0  0  0  0  0
    1.4189    5.2772    0.4037 O   0  0  0  0  0  0  0  0  0  0  0  0
    2.8570    2.9147   -1.5087 C   0  0  0  0  0  0  0  0  0  0  0  0
    0.1871    3.3566   -0.1078 H   0  0  0  0  0  0  0  0  0  0  0  0
    2.8964    2.4977    0.6063 H   0  0  0  0  0  0  0  0  0  0  0  0
    2.2844    3.5136   -2.2243 H   0  0  0  0  0  0  0  0  0  0  0  0
    3.9053    3.2245   -1.5542 H   0  0  0  0  0  0  0  0  0  0  0  0
    2.7960    1.8632   -1.8069 H   0  0  0  0  0  0  0  0  0  0  0  0
    3.6453    5.0982    0.7100 N   0  0  0  0  0  0  0  0  0  0  0  0
    3.8256    6.4764    1.1504 C   0  0  0  0  0  0  0  0  0  0  0  0
    4.4518    4.4811    0.6807 H   0  0  0  0  0  0  0  0  0  0  0  0
    3.5314    7.1732    0.3584 H   0  0  0  0  0  0  0  0  0  0  0  0
    3.2198    6.6778    2.0401 H   0  0  0  0  0  0  0  0  0  0  0  0
    4.8753    6.6596    1.3995 H   0  0  0  0  0  0  0  0  0  0  0  0
  1  2  2  0  0  0  0
  1  3  1  0  0  0  0
  1  7  1  0  0  0  0
  3  4  1  0  0  0  0
  3  5  1  0  0  0  0
  3  6  1  0  0  0  0
  7  8  1  0  0  0  0
  7 12  1  0  0  0  0
  8  9  1  0  0  0  0
  8 11  1  0  0  0  0
  8 13  1  0  0  0  0
  9 10  2  0  0  0  0
  9 17  1  0  0  0  0
 11 14  1  0  0  0  0
 11 15  1  0  0  0  0
 11 16  1  0  0  0  0
 17 18  1  0  0  0  0
 17 21  1  0  0  0  0
 18 19  1  0  0  0  0
 18 22  1  0  0  0  0
 18 23  1  0  0  0  0
 19 20  2  0  0  0  0
 19 24  1  0  0  0  0
 24 25  1  0  0  0  0
 24 29  1  0  0  0  0
 25 26  1  0  0  0  0
 25 28  1  0  0  0  0
 25 30  1  0  0  0  0
 26 27  2  0  0  0  0
 26 34  1  0  0  0  0
 28 31  1  0  0  0  0
 28 32  1  0  0  0  0
 28 33  1  0  0  0  0
 34 35  1  0  0  0  0
 34 36  1  0  0  0  0
 35 37  1  0  0  0  0
 35 38  1  0  0  0  0
 35 39  1  0  0  0  0
M  END
$$$$

  -OEChem-05262216283D

 39 38  0     1  0  0  0  0  0999 V2000
   -4.3801   -3.5190   -2.4637 C   0  0  0  0  0  0  0  0  0  0  0  0
   -3.6736   -4.5024   -2.3086 O   0  0  0  0  0  0  0  0  0  0  0  0
   -5.8560   -3.6846   -2.7724 C   0  0  0  0  0  0  0  0  0  0  0  0
   -6.0905   -3.2200   -3.7332 H   0  0  0  0  0  0  0  0  0  0  0  0
   -6.1129   -4.7465   -2.8224 H   0  0  0  0  0  0  0  0  0  0  0  0
   -6.4562   -3.2131   -1.9904 H   0  0  0  0  0  0  0  0  0  0  0  0
   -3.8399   -2.2555   -2.3526 N   0  0  0  0  0  0  0  0  0  0  0  0
   -2.4633   -1.9769   -1.9235 C   0  0  2  0  0  0  0  0  0  0  0  0
   -2.3581   -0.6223   -1.1917 C   0  0  0  0  0  0  0  0  0  0  0  0
   -3.2903    0.1746   -1.2203 O   0  0  0  0  0  0  0  0  0  0  0  0
   -1.5569   -1.9918   -3.1582 C   0  0  0  0  0  0  0  0  0  0  0  0
   -4.4845   -1.4658   -2.3686 H   0  0  0  0  0  0  0  0  0  0  0  0
   -2.1313   -2.7515   -1.2236 H   0  0  0  0  0  0  0  0  0  0  0  0
   -1.8650   -1.2177   -3.8680 H   0  0  0  0  0  0  0  0  0  0  0  0
   -0.5159   -1.8108   -2.8741 H   0  0  0  0  0  0  0  0  0  0  0  0
   -1.6121   -2.9645   -3.6570 H   0  0  0  0  0  0  0  0  0  0  0  0
   -1.2124   -0.2926   -0.4950 N   0  0  0  0  0  0  0  0  0  0  0  0
   -0.9669    1.0064    0.1478 C   0  0  0  0  0  0  0  0  0  0  0  0
    0.5286    1.3506    0.1776 C   0  0  0  0  0  0  0  0  0  0  0  0
    1.3596    0.4496    0.1485 O   0  0  0  0  0  0  0  0  0  0  0  0
   -0.4279   -0.9435   -0.5362 H   0  0  0  0  0  0  0  0  0  0  0  0
   -1.3496    0.9940    1.1723 H   0  0  0  0  0  0  0  0  0  0  0  0
   -1.4887    1.7996   -0.3969 H   0  0  0  0  0  0  0  0  0  0  0  0
    0.9519    2.6646    0.1430 N   0  0  0  0  0  0  0  0  0  0  0  0
    2.3538    3.0858    0.2693 C   0  0  2  0  0  0  0  0  0  0  0  0
    2.4814    4.4024    1.0633 C   0  0  0  0  0  0  0  0  0  0  0  0
    1.4859    5.0810    1.2923 O   0  0  0  0  0  0  0  0  0  0  0  0
    2.9377    3.2447   -1.1376 C   0  0  0  0  0  0  0  0  0  0  0  0
    0.2466    3.3892    0.2790 H   0  0  0  0  0  0  0  0  0  0  0  0
    2.9235    2.3242    0.8124 H   0  0  0  0  0  0  0  0  0  0  0  0
    2.3952    4.0172   -1.6920 H   0  0  0  0  0  0  0  0  0  0  0  0
    3.9931    3.5285   -1.0867 H   0  0  0  0  0  0  0  0  0  0  0  0
    2.8614    2.3016   -1.6880 H   0  0  0  0  0  0  0  0  0  0  0  0
    3.7128    4.8204    1.5326 N   0  0  0  0  0  0  0  0  0  0  0  0
    3.9031    6.0468    2.2968 C   0  0  0  0  0  0  0  0  0  0  0  0
    4.5182    4.2347    1.3318 H   0  0  0  0  0  0  0  0  0  0  0  0
    3.6097    6.9173    1.7009 H   0  0  0  0  0  0  0  0  0  0  0  0
    3.3015    6.0257    3.2115 H   0  0  0  0  0  0  0  0  0  0  0  0
    4.9545    6.1586    2.5781 H   0  0  0  0  0  0  0  0  0  0  0  0
  1  2  2  0  0  0  0
  1  3  1  0  0  0  0
  1  7  1  0  0  0  0
  3  4  1  0  0  0  0
  3  5  1  0  0  0  0
  3  6  1  0  0  0  0
  7  8  1  0  0  0  0
  7 12  1  0  0  0  0
  8  9  1  0  0  0  0
  8 11  1  0  0  0  0
  8 13  1  0  0  0  0
  9 10  2  0  0  0  0
  9 17  1  0  0  0  0
 11 14  1  0  0  0  0
 11 15  1  0  0  0  0
 11 16  1  0  0  0  0
 17 18  1  0  0  0  0
 17 21  1  0  0  0  0
 18 19  1  0  0  0  0
 18 22  1  0  0  0  0
 18 23  1  0  0  0  0
 19 20  2  0  0  0  0
 19 24  1  0  0  0  0
 24 25  1  0  0  0  0
 24 29  1  0  0  0  0
 25 26  1  0  0  0  0
 25 28  1  0  0  0  0
 25 30  1  0  0  0  0
 26 27  2  0  0  0  0
 26 34  1  0  0  0  0
 28 31  1  0  0  0  0
 28 32  1  0  0  0  0
 28 33  1  0  0  0  0
 34 35  1  0  0  0  0
 34 36  1  0  0  0  0
 35 37  1  0  0  0  0
 35 38  1  0  0  0  0
 35 39  1  0  0  0  0
M  END
$$$$

  -OEChem-05262216283D

 39 38  0     1  0  0  0  0  0999 V2000
   -4.3971   -3.4707   -2.4743 C   0  0  0  0  0  0  0  0  0  0  0  0
   -3.7042   -4.4647   -2.3241 O   0  0  0  0  0  0  0  0  0  0  0  0
   -5.8774   -3.6134   -2.7749 C   0  0  0  0  0  0  0  0  0  0  0  0
   -6.1068   -3.1604   -3.7424 H   0  0  0  0  0  0  0  0  0  0  0  0
   -6.1559   -4.6705   -2.8059 H   0  0  0  0  0  0  0  0  0  0  0  0
   -6.4658   -3.1173   -1.9993 H   0  0  0  0  0  0  0  0  0  0  0  0
   -3.8379   -2.2152   -2.3650 N   0  0  0  0  0  0  0  0  0  0  0  0
   -2.4546   -1.9565   -1.9446 C   0  0  2  0  0  0  0  0  0  0  0  0
   -2.3243   -0.5992   -1.2214 C   0  0  0  0  0  0  0  0  0  0  0  0
   -3.2455    0.2107   -1.2493 O   0  0  0  0  0  0  0  0  0  0  0  0
   -1.5542   -1.9928   -3.1836 C   0  0  0  0  0  0  0  0  0  0  0  0
   -4.4715   -1.4165   -2.3726 H   0  0  0  0  0  0  0  0  0  0  0  0
   -2.1329   -2.7322   -1.2410 H   0  0  0  0  0  0  0  0  0  0  0  0
   -1.8539   -1.2184   -3.8969 H   0  0  0  0  0  0  0  0  0  0  0  0
   -0.5092   -1.8254   -2.9055 H   0  0  0  0  0  0  0  0  0  0  0  0
   -1.6263   -2.9675   -3.6768 H   0  0  0  0  0  0  0  0  0  0  0  0
   -1.1767   -0.2860   -0.5197 N   0  0  0  0  0  0  0  0  0  0  0  0
   -0.9033    1.0263    0.0847 C   0  0  0  0  0  0  0  0  0  0  0  0
    0.5991    1.3394    0.1312 C   0  0  0  0  0  0  0  0  0  0  0  0
    1.4163    0.4481   -0.0733 O   0  0  0  0  0  0  0  0  0  0  0  0
   -0.3887   -0.9304   -0.5923 H   0  0  0  0  0  0  0  0  0  0  0  0
   -1.3054    1.0563    1.1013 H   0  0  0  0  0  0  0  0  0  0  0  0
   -1.3931    1.8157   -0.4945 H   0  0  0  0  0  0  0  0  0  0  0  0
    1.0402    2.6257    0.3716 N   0  0  0  0  0  0  0  0  0  0  0  0
    2.4455    2.9871    0.6026 C   0  0  2  0  0  0  0  0  0  0  0  0
    2.5760    4.0887    1.6757 C   0  0  0  0  0  0  0  0  0  0  0  0
    1.5838    4.7114    2.0392 O   0  0  0  0  0  0  0  0  0  0  0  0
    3.0482    3.4500   -0.7269 C   0  0  0  0  0  0  0  0  0  0  0  0
    0.3438    3.3100    0.6689 H   0  0  0  0  0  0  0  0  0  0  0  0
    3.0003    2.1152    0.9655 H   0  0  0  0  0  0  0  0  0  0  0  0
    2.5172    4.3308   -1.1020 H   0  0  0  0  0  0  0  0  0  0  0  0
    4.1044    3.7063   -0.6019 H   0  0  0  0  0  0  0  0  0  0  0  0
    2.9740    2.6535   -1.4743 H   0  0  0  0  0  0  0  0  0  0  0  0
    3.8023    4.3707    2.2495 N   0  0  0  0  0  0  0  0  0  0  0  0
    3.9870    5.3770    3.2886 C   0  0  0  0  0  0  0  0  0  0  0  0
    4.6031    3.8245    1.9450 H   0  0  0  0  0  0  0  0  0  0  0  0
    3.6689    6.3613    2.9291 H   0  0  0  0  0  0  0  0  0  0  0  0
    3.4022    5.1206    4.1785 H   0  0  0  0  0  0  0  0  0  0  0  0
    5.0418    5.4389    3.5739 H   0  0  0  0  0  0  0  0  0  0  0  0
  1  2  2  0  0  0  0
  1  3  1  0  0  0  0
  1  7  1  0  0  0  0
  3  4  1  0  0  0  0
  3  5  1  0  0  0  0
  3  6  1  0  0  0  0
  7  8  1  0  0  0  0
  7 12  1  0  0  0  0
  8  9  1  0  0  0  0
  8 11  1  0  0  0  0
  8 13  1  0  0  0  0
  9 10  2  0  0  0  0
  9 17  1  0  0  0  0
 11 14  1  0  0  0  0
 11 15  1  0  0  0  0
 11 16  1  0  0  0  0
 17 18  1  0  0  0  0
 17 21  1  0  0  0  0
 18 19  1  0  0  0  0
 18 22  1  0  0  0  0
 18 23  1  0  0  0  0
 19 20  2  0  0  0  0
 19 24  1  0  0  0  0
 24 25  1  0  0  0  0
 24 29  1  0  0  0  0
 25 26  1  0  0  0  0
 25 28  1  0  0  0  0
 25 30  1  0  0  0  0
 26 27  2  0  0  0  0
 26 34  1  0  0  0  0
 28 31  1  0  0  0  0
 28 32  1  0  0  0  0
 28 33  1  0  0  0  0
 34 35  1  0  0  0  0
 34 36  1  0  0  0  0
 35 37  1  0  0  0  0
 35 38  1  0  0  0  0
 35 39  1  0  0  0  0
M  END
$$$$

  -OEChem-05262216283D

 39 38  0     1  0  0  0  0  0999 V2000
   -4.1975   -3.5164   -2.6001 C   0  0  0  0  0  0  0  0  0  0  0  0
   -3.4476   -4.4635   -2.4234 O   0  0  0  0  0  0  0  0  0  0  0  0
   -5.6637   -3.7551   -2.9106 C   0  0  0  0  0  0  0  0  0  0  0  0
   -5.8928   -3.4066   -3.9208 H   0  0  0  0  0  0  0  0  0  0  0  0
   -5.8945   -4.8222   -2.8445 H   0  0  0  0  0  0  0  0  0  0  0  0
   -6.2897   -3.2152   -2.1956 H   0  0  0  0  0  0  0  0  0  0  0  0
   -3.7193   -2.2267   -2.5043 N   0  0  0  0  0  0  0  0  0  0  0  0
   -2.3773   -1.8760   -2.0203 C   0  0  2  0  0  0  0  0  0  0  0  0
   -2.3993   -0.5882   -1.1699 C   0  0  0  0  0  0  0  0  0  0  0  0
   -3.3851    0.1423   -1.1822 O   0  0  0  0  0  0  0  0  0  0  0  0
   -1.4580   -1.7066   -3.2328 C   0  0  0  0  0  0  0  0  0  0  0  0
   -4.4082   -1.4756   -2.5158 H   0  0  0  0  0  0  0  0  0  0  0  0
   -1.9887   -2.6780   -1.3833 H   0  0  0  0  0  0  0  0  0  0  0  0
   -1.8248   -0.9059   -3.8829 H   0  0  0  0  0  0  0  0  0  0  0  0
   -0.4414   -1.4580   -2.9131 H   0  0  0  0  0  0  0  0  0  0  0  0
   -1.4201   -2.6355   -3.8107 H   0  0  0  0  0  0  0  0  0  0  0  0
   -1.3177   -0.2573   -0.3758 N   0  0  0  0  0  0  0  0  0  0  0  0
   -1.1422    1.0538    0.2708 C   0  0  0  0  0  0  0  0  0  0  0  0
    0.2871    1.5943    0.1175 C   0  0  0  0  0  0  0  0  0  0  0  0
    1.1463    0.9169   -0.4367 O   0  0  0  0  0  0  0  0  0  0  0  0
   -0.4663   -0.7974   -0.5304 H   0  0  0  0  0  0  0  0  0  0  0  0
   -1.3756    0.9666    1.3356 H   0  0  0  0  0  0  0  0  0  0  0  0
   -1.8234    1.7942   -0.1600 H   0  0  0  0  0  0  0  0  0  0  0  0
    0.6315    2.8151    0.6631 N   0  0  0  0  0  0  0  0  0  0  0  0
    2.0045    3.3283    0.7589 C   0  0  2  0  0  0  0  0  0  0  0  0
    2.1958    4.1820    2.0308 C   0  0  0  0  0  0  0  0  0  0  0  0
    1.2193    4.5454    2.6779 O   0  0  0  0  0  0  0  0  0  0  0  0
    2.3039    4.1508   -0.4984 C   0  0  0  0  0  0  0  0  0  0  0  0
   -0.0677    3.2888    1.2359 H   0  0  0  0  0  0  0  0  0  0  0  0
    2.7100    2.4928    0.8192 H   0  0  0  0  0  0  0  0  0  0  0  0
    1.6124    4.9959   -0.5785 H   0  0  0  0  0  0  0  0  0  0  0  0
    3.3265    4.5385   -0.4697 H   0  0  0  0  0  0  0  0  0  0  0  0
    2.1972    3.5276   -1.3922 H   0  0  0  0  0  0  0  0  0  0  0  0
    3.4630    4.5239    2.4662 N   0  0  0  0  0  0  0  0  0  0  0  0
    3.7101    5.3055    3.6722 C   0  0  0  0  0  0  0  0  0  0  0  0
    4.2552    4.1873    1.9264 H   0  0  0  0  0  0  0  0  0  0  0  0
    3.2405    6.2917    3.5927 H   0  0  0  0  0  0  0  0  0  0  0  0
    3.3057    4.7926    4.5515 H   0  0  0  0  0  0  0  0  0  0  0  0
    4.7855    5.4461    3.8184 H   0  0  0  0  0  0  0  0  0  0  0  0
  1  2  2  0  0  0  0
  1  3  1  0  0  0  0
  1  7  1  0  0  0  0
  3  4  1  0  0  0  0
  3  5  1  0  0  0  0
  3  6  1  0  0  0  0
  7  8  1  0  0  0  0
  7 12  1  0  0  0  0
  8  9  1  0  0  0  0
  8 11  1  0  0  0  0
  8 13  1  0  0  0  0
  9 10  2  0  0  0  0
  9 17  1  0  0  0  0
 11 14  1  0  0  0  0
 11 15  1  0  0  0  0
 11 16  1  0  0  0  0
 17 18  1  0  0  0  0
 17 21  1  0  0  0  0
 18 19  1  0  0  0  0
 18 22  1  0  0  0  0
 18 23  1  0  0  0  0
 19 20  2  0  0  0  0
 19 24  1  0  0  0  0
 24 25  1  0  0  0  0
 24 29  1  0  0  0  0
 25 26  1  0  0  0  0
 25 28  1  0  0  0  0
 25 30  1  0  0  0  0
 26 27  2  0  0  0  0
 26 34  1  0  0  0  0
 28 31  1  0  0  0  0
 28 32  1  0  0  0  0
 28 33  1  0  0  0  0
 34 35  1  0  0  0  0
 34 36  1  0  0  0  0
 35 37  1  0  0  0  0
 35 38  1  0  0  0  0
 35 39  1  0  0  0  0
M  END
$$$$

  -OEChem-05262216283D

 39 38  0     1  0  0  0  0  0999 V2000
   -4.2286   -3.4487   -2.5039 C   0  0  0  0  0  0  0  0  0  0  0  0
   -3.5119   -4.4037   -2.2495 O   0  0  0  0  0  0  0  0  0  0  0  0
   -5.7026   -3.6612   -2.7929 C   0  0  0  0  0  0  0  0  0  0  0  0
   -5.9240   -3.3745   -3.8237 H   0  0  0  0  0  0  0  0  0  0  0  0
   -5.9661   -4.7134   -2.6537 H   0  0  0  0  0  0  0  0  0  0  0  0
   -6.3087   -3.0554   -2.1149 H   0  0  0  0  0  0  0  0  0  0  0  0
   -3.7052   -2.1733   -2.5205 N   0  0  0  0  0  0  0  0  0  0  0  0
   -2.3557   -1.8303   -2.0516 C   0  0  2  0  0  0  0  0  0  0  0  0
   -2.3602   -0.5263   -1.2271 C   0  0  0  0  0  0  0  0  0  0  0  0
   -3.3242    0.2311   -1.2777 O   0  0  0  0  0  0  0  0  0  0  0  0
   -1.4433   -1.6947   -3.2736 C   0  0  0  0  0  0  0  0  0  0  0  0
   -4.3710   -1.4039   -2.5831 H   0  0  0  0  0  0  0  0  0  0  0  0
   -1.9693   -2.6231   -1.4017 H   0  0  0  0  0  0  0  0  0  0  0  0
   -1.7950   -0.8902   -3.9275 H   0  0  0  0  0  0  0  0  0  0  0  0
   -0.4177   -1.4695   -2.9650 H   0  0  0  0  0  0  0  0  0  0  0  0
   -1.4345   -2.6290   -3.8439 H   0  0  0  0  0  0  0  0  0  0  0  0
   -1.2891   -0.2108   -0.4131 N   0  0  0  0  0  0  0  0  0  0  0  0
   -1.0847    1.1218    0.1780 C   0  0  0  0  0  0  0  0  0  0  0  0
    0.3686    1.5998    0.0496 C   0  0  0  0  0  0  0  0  0  0  0  0
    1.1666    0.9687   -0.6348 O   0  0  0  0  0  0  0  0  0  0  0  0
   -0.4475   -0.7695   -0.5543 H   0  0  0  0  0  0  0  0  0  0  0  0
   -1.3586    1.0900    1.2361 H   0  0  0  0  0  0  0  0  0  0  0  0
   -1.7209    1.8681   -0.3082 H   0  0  0  0  0  0  0  0  0  0  0  0
    0.8165    2.6670    0.8026 N   0  0  0  0  0  0  0  0  0  0  0  0
    2.2260    3.0541    0.9456 C   0  0  2  0  0  0  0  0  0  0  0  0
    2.5026    3.6464    2.3441 C   0  0  0  0  0  0  0  0  0  0  0  0
    1.5668    3.9687    3.0684 O   0  0  0  0  0  0  0  0  0  0  0  0
    2.5629    4.0724   -0.1475 C   0  0  0  0  0  0  0  0  0  0  0  0
    0.1673    3.0731    1.4771 H   0  0  0  0  0  0  0  0  0  0  0  0
    2.8669    2.1737    0.8297 H   0  0  0  0  0  0  0  0  0  0  0  0
    1.9417    4.9674   -0.0404 H   0  0  0  0  0  0  0  0  0  0  0  0
    3.6145    4.3681   -0.0866 H   0  0  0  0  0  0  0  0  0  0  0  0
    2.3838    3.6401   -1.1372 H   0  0  0  0  0  0  0  0  0  0  0  0
    3.7982    3.8057    2.8003 N   0  0  0  0  0  0  0  0  0  0  0  0
    4.1219    4.3399    4.1182 C   0  0  0  0  0  0  0  0  0  0  0  0
    4.5539    3.5075    2.1903 H   0  0  0  0  0  0  0  0  0  0  0  0
    3.7370    5.3597    4.2237 H   0  0  0  0  0  0  0  0  0  0  0  0
    3.6834    3.7152    4.9038 H   0  0  0  0  0  0  0  0  0  0  0  0
    5.2067    4.3638    4.2612 H   0  0  0  0  0  0  0  0  0  0  0  0
  1  2  2  0  0  0  0
  1  3  1  0  0  0  0
  1  7  1  0  0  0  0
  3  4  1  0  0  0  0
  3  5  1  0  0  0  0
  3  6  1  0  0  0  0
  7  8  1  0  0  0  0
  7 12  1  0  0  0  0
  8  9  1  0  0  0  0
  8 11  1  0  0  0  0
  8 13  1  0  0  0  0
  9 10  2  0  0  0  0
  9 17  1  0  0  0  0
 11 14  1  0  0  0  0
 11 15  1  0  0  0  0
 11 16  1  0  0  0  0
 17 18  1  0  0  0  0
 17 21  1  0  0  0  0
 18 19  1  0  0  0  0
 18 22  1  0  0  0  0
 18 23  1  0  0  0  0
 19 20  2  0  0  0  0
 19 24  1  0  0  0  0
 24 25  1  0  0  0  0
 24 29  1  0  0  0  0
 25 26  1  0  0  0  0
 25 28  1  0  0  0  0
 25 30  1  0  0  0  0
 26 27  2  0  0  0  0
 26 34  1  0  0  0  0
 28 31  1  0  0  0  0
 28 32  1  0  0  0  0
 28 33  1  0  0  0  0
 34 35  1  0  0  0  0
 34 36  1  0  0  0  0
 35 37  1  0  0  0  0
 35 38  1  0  0  0  0
 35 39  1  0  0  0  0
M  END
$$$$

  -OEChem-05262216283D

 39 38  0     1  0  0  0  0  0999 V2000
   -4.2251   -3.3954   -2.5829 C   0  0  0  0  0  0  0  0  0  0  0  0
   -3.4913   -4.3559   -2.4114 O   0  0  0  0  0  0  0  0  0  0  0  0
   -5.6840   -3.6091   -2.9416 C   0  0  0  0  0  0  0  0  0  0  0  0
   -5.8975   -3.1688   -3.9188 H   0  0  0  0  0  0  0  0  0  0  0  0
   -5.9094   -4.6788   -2.9793 H   0  0  0  0  0  0  0  0  0  0  0  0
   -6.3253   -3.1416   -2.1904 H   0  0  0  0  0  0  0  0  0  0  0  0
   -3.7333   -2.1157   -2.4358 N   0  0  0  0  0  0  0  0  0  0  0  0
   -2.3908   -1.7971   -1.9312 C   0  0  2  0  0  0  0  0  0  0  0  0
   -2.3830   -0.4854   -1.1175 C   0  0  0  0  0  0  0  0  0  0  0  0
   -3.3439    0.2761   -1.1637 O   0  0  0  0  0  0  0  0  0  0  0  0
   -1.4368   -1.6921   -3.1253 C   0  0  0  0  0  0  0  0  0  0  0  0
   -4.4059   -1.3501   -2.4600 H   0  0  0  0  0  0  0  0  0  0  0  0
   -2.0471   -2.5953   -1.2642 H   0  0  0  0  0  0  0  0  0  0  0  0
   -1.7601   -0.8962   -3.8039 H   0  0  0  0  0  0  0  0  0  0  0  0
   -0.4194   -1.4703   -2.7882 H   0  0  0  0  0  0  0  0  0  0  0  0
   -1.4170   -2.6360   -3.6796 H   0  0  0  0  0  0  0  0  0  0  0  0
   -1.2976   -0.1651   -0.3240 N   0  0  0  0  0  0  0  0  0  0  0  0
   -1.0541    1.1893    0.1999 C   0  0  0  0  0  0  0  0  0  0  0  0
    0.4138    1.6113    0.0387 C   0  0  0  0  0  0  0  0  0  0  0  0
    1.1211    1.0565   -0.7947 O   0  0  0  0  0  0  0  0  0  0  0  0
   -0.4667   -0.7351   -0.4782 H   0  0  0  0  0  0  0  0  0  0  0  0
   -1.3231    1.2175    1.2594 H   0  0  0  0  0  0  0  0  0  0  0  0
   -1.6698    1.9303   -0.3199 H   0  0  0  0  0  0  0  0  0  0  0  0
    0.9939    2.4844    0.9380 N   0  0  0  0  0  0  0  0  0  0  0  0
    2.4365    2.7468    1.0329 C   0  0  2  0  0  0  0  0  0  0  0  0
    2.8550    3.0691    2.4831 C   0  0  0  0  0  0  0  0  0  0  0  0
    1.9995    3.3073    3.3291 O   0  0  0  0  0  0  0  0  0  0  0  0
    2.7816    3.9105    0.0984 C   0  0  0  0  0  0  0  0  0  0  0  0
    0.4246    2.8005    1.7237 H   0  0  0  0  0  0  0  0  0  0  0  0
    2.9960    1.8575    0.7236 H   0  0  0  0  0  0  0  0  0  0  0  0
    2.2520    4.8180    0.4053 H   0  0  0  0  0  0  0  0  0  0  0  0
    3.8568    4.1121    0.1151 H   0  0  0  0  0  0  0  0  0  0  0  0
    2.4923    3.6695   -0.9295 H   0  0  0  0  0  0  0  0  0  0  0  0
    4.1891    3.0718    2.8465 N   0  0  0  0  0  0  0  0  0  0  0  0
    4.6487    3.3470    4.2028 C   0  0  0  0  0  0  0  0  0  0  0  0
    4.8742    2.8528    2.1290 H   0  0  0  0  0  0  0  0  0  0  0  0
    4.3722    4.3635    4.5023 H   0  0  0  0  0  0  0  0  0  0  0  0
    4.2048    2.6381    4.9098 H   0  0  0  0  0  0  0  0  0  0  0  0
    5.7375    3.2534    4.2596 H   0  0  0  0  0  0  0  0  0  0  0  0
  1  2  2  0  0  0  0
  1  3  1  0  0  0  0
  1  7  1  0  0  0  0
  3  4  1  0  0  0  0
  3  5  1  0  0  0  0
  3  6  1  0  0  0  0
  7  8  1  0  0  0  0
  7 12  1  0  0  0  0
  8  9  1  0  0  0  0
  8 11  1  0  0  0  0
  8 13  1  0  0  0  0
  9 10  2  0  0  0  0
  9 17  1  0  0  0  0
 11 14  1  0  0  0  0
 11 15  1  0  0  0  0
 11 16  1  0  0  0  0
 17 18  1  0  0  0  0
 17 21  1  0  0  0  0
 18 19  1  0  0  0  0
 18 22  1  0  0  0  0
 18 23  1  0  0  0  0
 19 20  2  0  0  0  0
 19 24  1  0  0  0  0
 24 25  1  0  0  0  0
 24 29  1  0  0  0  0
 25 26  1  0  0  0  0
 25 28  1  0  0  0  0
 25 30  1  0  0  0  0
 26 27  2  0  0  0  0
 26 34  1  0  0  0  0
 28 31  1  0  0  0  0
 28 32  1  0  0  0  0
 28 33  1  0  0  0  0
 34 35  1  0  0  0  0
 34 36  1  0  0  0  0
 35 37  1  0  0  0  0
 35 38  1  0  0  0  0
 35 39  1  0  0  0  0
M  END
$$$$

  -OEChem-05262216283D

 39 38  0     1  0  0  0  0  0999 V2000
   -4.2300   -3.3526   -2.5135 C   0  0  0  0  0  0  0  0  0  0  0  0
   -3.5057   -4.3184   -2.3308 O   0  0  0  0  0  0  0  0  0  0  0  0
   -5.6985   -3.5559   -2.8368 C   0  0  0  0  0  0  0  0  0  0  0  0
   -5.9240   -3.1435   -3.8233 H   0  0  0  0  0  0  0  0  0  0  0  0
   -5.9400   -4.6227   -2.8371 H   0  0  0  0  0  0  0  0  0  0  0  0
   -6.3183   -3.0551   -2.0890 H   0  0  0  0  0  0  0  0  0  0  0  0
   -3.7191   -2.0759   -2.4134 N   0  0  0  0  0  0  0  0  0  0  0  0
   -2.3655   -1.7628   -1.9365 C   0  0  2  0  0  0  0  0  0  0  0  0
   -2.3336   -0.4435   -1.1371 C   0  0  0  0  0  0  0  0  0  0  0  0
   -3.2893    0.3251   -1.1743 O   0  0  0  0  0  0  0  0  0  0  0  0
   -1.4328   -1.6812   -3.1486 C   0  0  0  0  0  0  0  0  0  0  0  0
   -4.3832   -1.3030   -2.4432 H   0  0  0  0  0  0  0  0  0  0  0  0
   -2.0159   -2.5555   -1.2664 H   0  0  0  0  0  0  0  0  0  0  0  0
   -1.7534   -0.8836   -3.8264 H   0  0  0  0  0  0  0  0  0  0  0  0
   -0.4056   -1.4760   -2.8318 H   0  0  0  0  0  0  0  0  0  0  0  0
   -1.4414   -2.6289   -3.6962 H   0  0  0  0  0  0  0  0  0  0  0  0
   -1.2356   -0.1303   -0.3579 N   0  0  0  0  0  0  0  0  0  0  0  0
   -0.9716    1.2300    0.1394 C   0  0  0  0  0  0  0  0  0  0  0  0
    0.4996    1.6278   -0.0412 C   0  0  0  0  0  0  0  0  0  0  0  0
    1.1241    1.2239   -1.0147 O   0  0  0  0  0  0  0  0  0  0  0  0
   -0.4159   -0.7141   -0.5161 H   0  0  0  0  0  0  0  0  0  0  0  0
   -1.2358    1.2814    1.1993 H   0  0  0  0  0  0  0  0  0  0  0  0
   -1.5797    1.9709   -0.3895 H   0  0  0  0  0  0  0  0  0  0  0  0
    1.1859    2.2493    0.9835 N   0  0  0  0  0  0  0  0  0  0  0  0
    2.6428    2.4313    1.0240 C   0  0  2  0  0  0  0  0  0  0  0  0
    3.1681    2.4350    2.4756 C   0  0  0  0  0  0  0  0  0  0  0  0
    2.3808    2.5242    3.4118 O   0  0  0  0  0  0  0  0  0  0  0  0
    2.9836    3.7478    0.3192 C   0  0  0  0  0  0  0  0  0  0  0  0
    0.6851    2.4158    1.8567 H   0  0  0  0  0  0  0  0  0  0  0  0
    3.1344    1.6036    0.5018 H   0  0  0  0  0  0  0  0  0  0  0  0
    2.5085    4.5901    0.8325 H   0  0  0  0  0  0  0  0  0  0  0  0
    4.0654    3.9107    0.3080 H   0  0  0  0  0  0  0  0  0  0  0  0
    2.6289    3.7258   -0.7163 H   0  0  0  0  0  0  0  0  0  0  0  0
    4.5208    2.3166    2.7366 N   0  0  0  0  0  0  0  0  0  0  0  0
    5.0765    2.2987    4.0847 C   0  0  0  0  0  0  0  0  0  0  0  0
    5.1491    2.2275    1.9432 H   0  0  0  0  0  0  0  0  0  0  0  0
    4.8615    3.2407    4.6001 H   0  0  0  0  0  0  0  0  0  0  0  0
    4.6496    1.4742    4.6654 H   0  0  0  0  0  0  0  0  0  0  0  0
    6.1619    2.1665    4.0455 H   0  0  0  0  0  0  0  0  0  0  0  0
  1  2  2  0  0  0  0
  1  3  1  0  0  0  0
  1  7  1  0  0  0  0
  3  4  1  0  0  0  0
  3  5  1  0  0  0  0
  3  6  1  0  0  0  0
  7  8  1  0  0  0  0
  7 12  1  0  0  0  0
  8  9  1  0  0  0  0
  8 11  1  0  0  0  0
  8 13  1  0  0  0  0
  9 10  2  0  0  0  0
  9 17  1  0  0  0  0
 11 14  1  0  0  0  0
 11 15  1  0  0  0  0
 11 16  1  0  0  0  0
 17 18  1  0  0  0  0
 17 21  1  0  0  0  0
 18 19  1  0  0  0  0
 18 22  1  0  0  0  0
 18 23  1  0  0  0  0
 19 20  2  0  0  0  0
 19 24  1  0  0  0  0
 24 25  1  0  0  0  0
 24 29  1  0  0  0  0
 25 26  1  0  0  0  0
 25 28  1  0  0  0  0
 25 30  1  0  0  0  0
 26 27  2  0  0  0  0
 26 34  1  0  0  0  0
 28 31  1  0  0  0  0
 28 32  1  0  0  0  0
 28 33  1  0  0  0  0
 34 35  1  0  0  0  0
 34 36  1  0  0  0  0
 35 37  1  0  0  0  0
 35 38  1  0  0  0  0
 35 39  1  0  0  0  0
M  END
$$$$

  -OEChem-05262216283D

 39 38  0     1  0  0  0  0  0999 V2000
   -4.2161   -3.3386   -2.3722 C   0  0  0  0  0  0  0  0  0  0  0  0
   -3.4875   -4.2924   -2.1487 O   0  0  0  0  0  0  0  0  0  0  0  0
   -5.7043   -3.5512   -2.5800 C   0  0  0  0  0  0  0  0  0  0  0  0
   -5.9933   -3.2134   -3.5782 H   0  0  0  0  0  0  0  0  0  0  0  0
   -5.9518   -4.6121   -2.4814 H   0  0  0  0  0  0  0  0  0  0  0  0
   -6.2701   -2.9877   -1.8338 H   0  0  0  0  0  0  0  0  0  0  0  0
   -3.6926   -2.0640   -2.4232 N   0  0  0  0  0  0  0  0  0  0  0  0
   -2.3154   -1.7192   -2.0439 C   0  0  2  0  0  0  0  0  0  0  0  0
   -2.2598   -0.3988   -1.2479 C   0  0  0  0  0  0  0  0  0  0  0  0
   -3.2033    0.3844   -1.2890 O   0  0  0  0  0  0  0  0  0  0  0  0
   -1.4785   -1.6119   -3.3217 C   0  0  0  0  0  0  0  0  0  0  0  0
   -4.3570   -1.2925   -2.4731 H   0  0  0  0  0  0  0  0  0  0  0  0
   -1.8949   -2.5018   -1.4031 H   0  0  0  0  0  0  0  0  0  0  0  0
   -1.8848   -0.8391   -3.9822 H   0  0  0  0  0  0  0  0  0  0  0  0
   -0.4418   -1.3546   -3.0831 H   0  0  0  0  0  0  0  0  0  0  0  0
   -1.4831   -2.5664   -3.8575 H   0  0  0  0  0  0  0  0  0  0  0  0
   -1.1589   -0.1020   -0.4656 N   0  0  0  0  0  0  0  0  0  0  0  0
   -0.8805    1.2547    0.0351 C   0  0  0  0  0  0  0  0  0  0  0  0
    0.5935    1.6415   -0.1388 C   0  0  0  0  0  0  0  0  0  0  0  0
    1.1415    1.4790   -1.2211 O   0  0  0  0  0  0  0  0  0  0  0  0
   -0.3548   -0.7109   -0.6021 H   0  0  0  0  0  0  0  0  0  0  0  0
   -1.1528    1.3122    1.0926 H   0  0  0  0  0  0  0  0  0  0  0  0
   -1.4770    2.0019   -0.4982 H   0  0  0  0  0  0  0  0  0  0  0  0
    1.3646    1.9639    0.9610 N   0  0  0  0  0  0  0  0  0  0  0  0
    2.8256    2.1146    0.9455 C   0  0  2  0  0  0  0  0  0  0  0  0
    3.4401    1.7773    2.3208 C   0  0  0  0  0  0  0  0  0  0  0  0
    2.7133    1.6240    3.2968 O   0  0  0  0  0  0  0  0  0  0  0  0
    3.1610    3.5541    0.5424 C   0  0  0  0  0  0  0  0  0  0  0  0
    0.9240    1.9158    1.8801 H   0  0  0  0  0  0  0  0  0  0  0  0
    3.2613    1.4239    0.2156 H   0  0  0  0  0  0  0  0  0  0  0  0
    2.7432    4.2610    1.2664 H   0  0  0  0  0  0  0  0  0  0  0  0
    4.2444    3.6990    0.4986 H   0  0  0  0  0  0  0  0  0  0  0  0
    2.7447    3.7791   -0.4448 H   0  0  0  0  0  0  0  0  0  0  0  0
    4.8070    1.6241    2.4620 N   0  0  0  0  0  0  0  0  0  0  0  0
    5.4492    1.2948    3.7291 C   0  0  0  0  0  0  0  0  0  0  0  0
    5.3837    1.7497    1.6352 H   0  0  0  0  0  0  0  0  0  0  0  0
    5.2753    2.0875    4.4643 H   0  0  0  0  0  0  0  0  0  0  0  0
    5.0552    0.3533    4.1263 H   0  0  0  0  0  0  0  0  0  0  0  0
    6.5288    1.1843    3.5890 H   0  0  0  0  0  0  0  0  0  0  0  0
  1  2  2  0  0  0  0
  1  3  1  0  0  0  0
  1  7  1  0  0  0  0
  3  4  1  0  0  0  0
  3  5  1  0  0  0  0
  3  6  1  0  0  0  0
  7  8  1  0  0  0  0
  7 12  1  0  0  0  0
  8  9  1  0  0  0  0
  8 11  1  0  0  0  0
  8 13  1  0  0  0  0
  9 10  2  0  0  0  0
  9 17  1  0  0  0  0
 11 14  1  0  0  0  0
 11 15  1  0  0  0  0
 11 16  1  0  0  0  0
 17 18  1  0  0  0  0
 17 21  1  0  0  0  0
 18 19  1  0  0  0  0
 18 22  1  0  0  0  0
 18 23  1  0  0  0  0
 19 20  2  0  0  0  0
 19 24  1  0  0  0  0
 24 25  1  0  0  0  0
 24 29  1  0  0  0  0
 25 26  1  0  0  0  0
 25 28  1  0  0  0  0
 25 30  1  0  0  0  0
 26 27  2  0  0  0  0
 26 34  1  0  0  0  0
 28 31  1  0  0  0  0
 28 32  1  0  0  0  0
 28 33  1  0  0  0  0
 34 35  1  0  0  0  0
 34 36  1  0  0  0  0
 35 37  1  0  0  0  0
 35 38  1  0  0  0  0
 35 39  1  0  0  0  0
M  END
$$$$

  -OEChem-05262216283D

 39 38  0     1  0  0  0  0  0999 V2000
   -4.1919   -3.3268   -2.3964 C   0  0  0  0  0  0  0  0  0  0  0  0
   -3.4718   -4.2920   -2.1954 O   0  0  0  0  0  0  0  0  0  0  0  0
   -5.6629   -3.5254   -2.7094 C   0  0  0  0  0  0  0  0  0  0  0  0
   -5.8844   -3.1459   -3.7097 H   0  0  0  0  0  0  0  0  0  0  0  0
   -5.9163   -4.5884   -2.6709 H   0  0  0  0  0  0  0  0  0  0  0  0
   -6.2767   -2.9912   -1.9802 H   0  0  0  0  0  0  0  0  0  0  0  0
   -3.6709   -2.0521   -2.3335 N   0  0  0  0  0  0  0  0  0  0  0  0
   -2.3072   -1.7336   -1.8915 C   0  0  2  0  0  0  0  0  0  0  0  0
   -2.2501   -0.3797   -1.1531 C   0  0  0  0  0  0  0  0  0  0  0  0
   -3.2023    0.3918   -1.2063 O   0  0  0  0  0  0  0  0  0  0  0  0
   -1.3950   -1.7104   -3.1221 C   0  0  0  0  0  0  0  0  0  0  0  0
   -4.3283   -1.2743   -2.3811 H   0  0  0  0  0  0  0  0  0  0  0  0
   -1.9552   -2.5012   -1.1937 H   0  0  0  0  0  0  0  0  0  0  0  0
   -1.7209   -0.9359   -3.8240 H   0  0  0  0  0  0  0  0  0  0  0  0
   -0.3601   -1.5037   -2.8327 H   0  0  0  0  0  0  0  0  0  0  0  0
   -1.4229   -2.6782   -3.6328 H   0  0  0  0  0  0  0  0  0  0  0  0
   -1.1331   -0.0370   -0.4134 N   0  0  0  0  0  0  0  0  0  0  0  0
   -0.8558    1.3408    0.0270 C   0  0  0  0  0  0  0  0  0  0  0  0
    0.6078    1.7322   -0.2037 C   0  0  0  0  0  0  0  0  0  0  0  0
    1.0465    1.8204   -1.3418 O   0  0  0  0  0  0  0  0  0  0  0  0
   -0.3370   -0.6627   -0.5108 H   0  0  0  0  0  0  0  0  0  0  0  0
   -1.1002    1.4421    1.0879 H   0  0  0  0  0  0  0  0  0  0  0  0
   -1.4735    2.0605   -0.5204 H   0  0  0  0  0  0  0  0  0  0  0  0
    1.4828    1.8002    0.8623 N   0  0  0  0  0  0  0  0  0  0  0  0
    2.9421    1.9138    0.7383 C   0  0  2  0  0  0  0  0  0  0  0  0
    3.6615    1.2002    1.9023 C   0  0  0  0  0  0  0  0  0  0  0  0
    3.0184    0.8021    2.8679 O   0  0  0  0  0  0  0  0  0  0  0  0
    3.3089    3.4006    0.7031 C   0  0  0  0  0  0  0  0  0  0  0  0
    1.1264    1.5353    1.7810 H   0  0  0  0  0  0  0  0  0  0  0  0
    3.2757    1.4380   -0.1901 H   0  0  0  0  0  0  0  0  0  0  0  0
    3.0041    3.8928    1.6324 H   0  0  0  0  0  0  0  0  0  0  0  0
    4.3883    3.5282    0.5787 H   0  0  0  0  0  0  0  0  0  0  0  0
    2.8059    3.8948   -0.1344 H   0  0  0  0  0  0  0  0  0  0  0  0
    5.0267    0.9860    1.8605 N   0  0  0  0  0  0  0  0  0  0  0  0
    5.7621    0.3115    2.9232 C   0  0  0  0  0  0  0  0  0  0  0  0
    5.5311    1.3107    1.0404 H   0  0  0  0  0  0  0  0  0  0  0  0
    5.6398    0.8452    3.8716 H   0  0  0  0  0  0  0  0  0  0  0  0
    5.4011   -0.7148    3.0476 H   0  0  0  0  0  0  0  0  0  0  0  0
    6.8287    0.2759    2.6821 H   0  0  0  0  0  0  0  0  0  0  0  0
  1  2  2  0  0  0  0
  1  3  1  0  0  0  0
  1  7  1  0  0  0  0
  3  4  1  0  0  0  0
  3  5  1  0  0  0  0
  3  6  1  0  0  0  0
  7  8  1  0  0  0  0
  7 12  1  0  0  0  0
  8  9  1  0  0  0  0
  8 11  1  0  0  0  0
  8 13  1  0  0  0  0
  9 10  2  0  0  0  0
  9 17  1  0  0  0  0
 11 14  1  0  0  0  0
 11 15  1  0  0  0  0
 11 16  1  0  0  0  0
 17 18  1  0  0  0  0
 17 21  1  0  0  0  0
 18 19  1  0  0  0  0
 18 22  1  0  0  0  0
 18 23  1  0  0  0  0
 19 20  2  0  0  0  0
 19 24  1  0  0  0  0
 24 25  1  0  0  0  0
 24 29  1  0  0  0  0
 25 26  1  0  0  0  0
 25 28  1  0  0  0  0
 25 30  1  0  0  0  0
 26 27  2  0  0  0  0
 26 34  1  0  0  0  0
 28 31  1  0  0  0  0
 28 32  1  0  0  0  0
 28 33  1  0  0  0  0
 34 35  1  0  0  0  0
 34 36  1  0  0  0  0
 35 37  1  0  0  0  0
 35 38  1  0  0  0  0
 35 39  1  0  0  0  0
M  END
$$$$

  -OEChem-05262216283D

 39 38  0     1  0  0  0  0  0999 V2000
   -4.1365   -3.3331   -2.3288 C   0  0  0  0  0  0  0  0  0  0  0  0
   -3.4195   -4.2893   -2.0792 O   0  0  0  0  0  0  0  0  0  0  0  0
   -5.6135   -3.5408   -2.6066 C   0  0  0  0  0  0  0  0  0  0  0  0
   -5.8529   -3.2158   -3.6220 H   0  0  0  0  0  0  0  0  0  0  0  0
   -5.8712   -4.5987   -2.5049 H   0  0  0  0  0  0  0  0  0  0  0  0
   -6.2107   -2.9637   -1.8965 H   0  0  0  0  0  0  0  0  0  0  0  0
   -3.6093   -2.0593   -2.3394 N   0  0  0  0  0  0  0  0  0  0  0  0
   -2.2450   -1.7240   -1.9108 C   0  0  2  0  0  0  0  0  0  0  0  0
   -2.1873   -0.3383   -1.2333 C   0  0  0  0  0  0  0  0  0  0  0  0
   -3.1371    0.4315   -1.3296 O   0  0  0  0  0  0  0  0  0  0  0  0
   -1.3307   -1.7609   -3.1391 C   0  0  0  0  0  0  0  0  0  0  0  0
   -4.2653   -1.2827   -2.4197 H   0  0  0  0  0  0  0  0  0  0  0  0
   -1.8957   -2.4596   -1.1783 H   0  0  0  0  0  0  0  0  0  0  0  0
   -1.6507   -1.0171   -3.8758 H   0  0  0  0  0  0  0  0  0  0  0  0
   -0.2954   -1.5475   -2.8563 H   0  0  0  0  0  0  0  0  0  0  0  0
   -1.3638   -2.7504   -3.6063 H   0  0  0  0  0  0  0  0  0  0  0  0
   -1.0809    0.0322   -0.4894 N   0  0  0  0  0  0  0  0  0  0  0  0
   -0.8302    1.4157   -0.0466 C   0  0  0  0  0  0  0  0  0  0  0  0
    0.6248    1.8416   -0.2695 C   0  0  0  0  0  0  0  0  0  0  0  0
    0.9881    2.2619   -1.3581 O   0  0  0  0  0  0  0  0  0  0  0  0
   -0.2916   -0.6092   -0.5159 H   0  0  0  0  0  0  0  0  0  0  0  0
   -1.0802    1.5140    1.0134 H   0  0  0  0  0  0  0  0  0  0  0  0
   -1.4627    2.1215   -0.5958 H   0  0  0  0  0  0  0  0  0  0  0  0
    1.5612    1.6317    0.7232 N   0  0  0  0  0  0  0  0  0  0  0  0
    3.0128    1.7586    0.5382 C   0  0  2  0  0  0  0  0  0  0  0  0
    3.7738    0.6942    1.3564 C   0  0  0  0  0  0  0  0  0  0  0  0
    3.1712   -0.0018    2.1671 O   0  0  0  0  0  0  0  0  0  0  0  0
    3.4277    3.1722    0.9562 C   0  0  0  0  0  0  0  0  0  0  0  0
    1.2563    1.1159    1.5488 H   0  0  0  0  0  0  0  0  0  0  0  0
    3.2723    1.6044   -0.5147 H   0  0  0  0  0  0  0  0  0  0  0  0
    3.1990    3.3421    2.0131 H   0  0  0  0  0  0  0  0  0  0  0  0
    4.5008    3.3212    0.8028 H   0  0  0  0  0  0  0  0  0  0  0  0
    2.8890    3.9151    0.3594 H   0  0  0  0  0  0  0  0  0  0  0  0
    5.1289    0.4961    1.1667 N   0  0  0  0  0  0  0  0  0  0  0  0
    5.9013   -0.5030    1.8956 C   0  0  0  0  0  0  0  0  0  0  0  0
    5.6001    1.0786    0.4804 H   0  0  0  0  0  0  0  0  0  0  0  0
    5.8884   -0.2886    2.9696 H   0  0  0  0  0  0  0  0  0  0  0  0
    5.4871   -1.5035    1.7311 H   0  0  0  0  0  0  0  0  0  0  0  0
    6.9412   -0.5004    1.5544 H   0  0  0  0  0  0  0  0  0  0  0  0
  1  2  2  0  0  0  0
  1  3  1  0  0  0  0
  1  7  1  0  0  0  0
  3  4  1  0  0  0  0
  3  5  1  0  0  0  0
  3  6  1  0  0  0  0
  7  8  1  0  0  0  0
  7 12  1  0  0  0  0
  8  9  1  0  0  0  0
  8 11  1  0  0  0  0
  8 13  1  0  0  0  0
  9 10  2  0  0  0  0
  9 17  1  0  0  0  0
 11 14  1  0  0  0  0
 11 15  1  0  0  0  0
 11 16  1  0  0  0  0
 17 18  1  0  0  0  0
 17 21  1  0  0  0  0
 18 19  1  0  0  0  0
 18 22  1  0  0  0  0
 18 23  1  0  0  0  0
 19 20  2  0  0  0  0
 19 24  1  0  0  0  0
 24 25  1  0  0  0  0
 24 29  1  0  0  0  0
 25 26  1  0  0  0  0
 25 28  1  0  0  0  0
 25 30  1  0  0  0  0
 26 27  2  0  0  0  0
 26 34  1  0  0  0  0
 28 31  1  0  0  0  0
 28 32  1  0  0  0  0
 28 33  1  0  0  0  0
 34 35  1  0  0  0  0
 34 36  1  0  0  0  0
 35 37  1  0  0  0  0
 35 38  1  0  0  0  0
 35 39  1  0  0  0  0
M  END
$$$$

  -OEChem-05262216283D

 39 38  0     1  0  0  0  0  0999 V2000
   -3.1582   -3.4133   -1.9207 C   0  0  0  0  0  0  0  0  0  0  0  0
   -2.4882   -4.1834   -1.2509 O   0  0  0  0  0  0  0  0  0  0  0  0
   -4.4589   -3.8827   -2.5451 C   0  0  0  0  0  0  0  0  0  0  0  0
   -4.3937   -3.8189   -3.6340 H   0  0  0  0  0  0  0  0  0  0  0  0
   -4.6594   -4.9203   -2.2638 H   0  0  0  0  0  0  0  0  0  0  0  0
   -5.2859   -3.2581   -2.1992 H   0  0  0  0  0  0  0  0  0  0  0  0
   -2.7385   -2.1144   -2.1115 N   0  0  0  0  0  0  0  0  0  0  0  0
   -1.5719   -1.5097   -1.4556 C   0  0  2  0  0  0  0  0  0  0  0  0
   -1.7630    0.0079   -1.2462 C   0  0  0  0  0  0  0  0  0  0  0  0
   -2.6998    0.5949   -1.7787 O   0  0  0  0  0  0  0  0  0  0  0  0
   -0.3360   -1.7816   -2.3201 C   0  0  0  0  0  0  0  0  0  0  0  0
   -3.3842   -1.4748   -2.5732 H   0  0  0  0  0  0  0  0  0  0  0  0
   -1.4258   -1.9597   -0.4672 H   0  0  0  0  0  0  0  0  0  0  0  0
   -0.4584   -1.3385   -3.3136 H   0  0  0  0  0  0  0  0  0  0  0  0
    0.5595   -1.3564   -1.8574 H   0  0  0  0  0  0  0  0  0  0  0  0
   -0.1835   -2.8594   -2.4346 H   0  0  0  0  0  0  0  0  0  0  0  0
   -0.8852    0.7111   -0.4453 N   0  0  0  0  0  0  0  0  0  0  0  0
   -0.7835    2.1808   -0.4315 C   0  0  0  0  0  0  0  0  0  0  0  0
    0.6902    2.5893   -0.4557 C   0  0  0  0  0  0  0  0  0  0  0  0
    1.2714    2.7648   -1.5176 O   0  0  0  0  0  0  0  0  0  0  0  0
   -0.0652    0.1821   -0.1273 H   0  0  0  0  0  0  0  0  0  0  0  0
   -1.2698    2.5872    0.4592 H   0  0  0  0  0  0  0  0  0  0  0  0
   -1.2727    2.6202   -1.3075 H   0  0  0  0  0  0  0  0  0  0  0  0
    1.4229    2.4435    0.7079 N   0  0  0  0  0  0  0  0  0  0  0  0
    2.7808    1.8872    0.6235 C   0  0  2  0  0  0  0  0  0  0  0  0
    2.7510    0.3867    0.2406 C   0  0  0  0  0  0  0  0  0  0  0  0
    1.7364   -0.2808    0.4378 O   0  0  0  0  0  0  0  0  0  0  0  0
    3.4578    2.0793    1.9820 C   0  0  0  0  0  0  0  0  0  0  0  0
    0.8681    2.1131    1.4929 H   0  0  0  0  0  0  0  0  0  0  0  0
    3.3589    2.4287   -0.1336 H   0  0  0  0  0  0  0  0  0  0  0  0
    2.9137    1.5389    2.7636 H   0  0  0  0  0  0  0  0  0  0  0  0
    4.4856    1.7043    1.9525 H   0  0  0  0  0  0  0  0  0  0  0  0
    3.4851    3.1413    2.2455 H   0  0  0  0  0  0  0  0  0  0  0  0
    3.8509   -0.2146   -0.3408 N   0  0  0  0  0  0  0  0  0  0  0  0
    3.8441   -1.5915   -0.8219 C   0  0  0  0  0  0  0  0  0  0  0  0
    4.6309    0.3860   -0.5931 H   0  0  0  0  0  0  0  0  0  0  0  0
    3.5597   -2.2788   -0.0180 H   0  0  0  0  0  0  0  0  0  0  0  0
    3.1359   -1.7045   -1.6494 H   0  0  0  0  0  0  0  0  0  0  0  0
    4.8399   -1.8732   -1.1776 H   0  0  0  0  0  0  0  0  0  0  0  0
  1  2  2  0  0  0  0
  1  3  1  0  0  0  0
  1  7  1  0  0  0  0
  3  4  1  0  0  0  0
  3  5  1  0  0  0  0
  3  6  1  0  0  0  0
  7  8  1  0  0  0  0
  7 12  1  0  0  0  0
  8  9  1  0  0  0  0
  8 11  1  0  0  0  0
  8 13  1  0  0  0  0
  9 10  2  0  0  0  0
  9 17  1  0  0  0  0
 11 14  1  0  0  0  0
 11 15  1  0  0  0  0
 11 16  1  0  0  0  0
 17 18  1  0  0  0  0
 17 21  1  0  0  0  0
 18 19  1  0  0  0  0
 18 22  1  0  0  0  0
 18 23  1  0  0  0  0
 19 20  2  0  0  0  0
 19 24  1  0  0  0  0
 24 25  1  0  0  0  0
 24 29  1  0  0  0  0
 25 26  1  0  0  0  0
 25 28  1  0  0  0  0
 25 30  1  0  0  0  0
 26 27  2  0  0  0  0
 26 34  1  0  0  0  0
 28 31  1  0  0  0  0
 28 32  1  0  0  0  0
 28 33  1  0  0  0  0
 34 35  1  0  0  0  0
 34 36  1  0  0  0  0
 35 37  1  0  0  0  0
 35 38  1  0  0  0  0
 35 39  1  0  0  0  0
M  END
$$$$

  -OEChem-05262216283D

 39 38  0     1  0  0  0  0  0999 V2000
   -3.1298   -3.4383   -2.0879 C   0  0  0  0  0  0  0  0  0  0  0  0
   -2.3599   -4.2379   -1.5795 O   0  0  0  0  0  0  0  0  0  0  0  0
   -4.4811   -3.9019   -2.5987 C   0  0  0  0  0  0  0  0  0  0  0  0
   -4.5588   -3.7118   -3.6720 H   0  0  0  0  0  0  0  0  0  0  0  0
   -4.6048   -4.9738   -2.4205 H   0  0  0  0  0  0  0  0  0  0  0  0
   -5.2798   -3.3642   -2.0819 H   0  0  0  0  0  0  0  0  0  0  0  0
   -2.7791   -2.1100   -2.1974 N   0  0  0  0  0  0  0  0  0  0  0  0
   -1.5607   -1.5166   -1.6319 C   0  0  2  0  0  0  0  0  0  0  0  0
   -1.7840   -0.0381   -1.2472 C   0  0  0  0  0  0  0  0  0  0  0  0
   -2.7634    0.5663   -1.6731 O   0  0  0  0  0  0  0  0  0  0  0  0
   -0.4403   -1.6408   -2.6693 C   0  0  0  0  0  0  0  0  0  0  0  0
   -3.4933   -1.4602   -2.5241 H   0  0  0  0  0  0  0  0  0  0  0  0
   -1.2717   -2.0538   -0.7219 H   0  0  0  0  0  0  0  0  0  0  0  0
   -0.7122   -1.1180   -3.5917 H   0  0  0  0  0  0  0  0  0  0  0  0
    0.4888   -1.2096   -2.2868 H   0  0  0  0  0  0  0  0  0  0  0  0
   -0.2586   -2.6941   -2.9050 H   0  0  0  0  0  0  0  0  0  0  0  0
   -0.9008    0.6084   -0.4030 N   0  0  0  0  0  0  0  0  0  0  0  0
   -0.8360    2.0792   -0.2891 C   0  0  0  0  0  0  0  0  0  0  0  0
    0.6178    2.5562   -0.3020 C   0  0  0  0  0  0  0  0  0  0  0  0
    1.0937    3.0794   -1.2992 O   0  0  0  0  0  0  0  0  0  0  0  0
   -0.0397    0.0845   -0.2106 H   0  0  0  0  0  0  0  0  0  0  0  0
   -1.3176    2.4050    0.6367 H   0  0  0  0  0  0  0  0  0  0  0  0
   -1.3578    2.5640   -1.1214 H   0  0  0  0  0  0  0  0  0  0  0  0
    1.4550    2.0945    0.6964 N   0  0  0  0  0  0  0  0  0  0  0  0
    2.8145    1.6489    0.3649 C   0  0  2  0  0  0  0  0  0  0  0  0
    2.7911    0.2168   -0.2186 C   0  0  0  0  0  0  0  0  0  0  0  0
    1.8076   -0.5004   -0.0396 O   0  0  0  0  0  0  0  0  0  0  0  0
    3.6517    1.7025    1.6438 C   0  0  0  0  0  0  0  0  0  0  0  0
    0.9752    1.5283    1.3920 H   0  0  0  0  0  0  0  0  0  0  0  0
    3.2685    2.3186   -0.3739 H   0  0  0  0  0  0  0  0  0  0  0  0
    3.2332    1.0371    2.4058 H   0  0  0  0  0  0  0  0  0  0  0  0
    4.6816    1.3938    1.4401 H   0  0  0  0  0  0  0  0  0  0  0  0
    3.6691    2.7222    2.0416 H   0  0  0  0  0  0  0  0  0  0  0  0
    3.8568   -0.2654   -0.9541 N   0  0  0  0  0  0  0  0  0  0  0  0
    3.8588   -1.5753   -1.5954 C   0  0  0  0  0  0  0  0  0  0  0  0
    4.6143    0.3805   -1.1593 H   0  0  0  0  0  0  0  0  0  0  0  0
    3.6723   -2.3656   -0.8603 H   0  0  0  0  0  0  0  0  0  0  0  0
    3.0859   -1.6246   -2.3693 H   0  0  0  0  0  0  0  0  0  0  0  0
    4.8296   -1.7650   -2.0634 H   0  0  0  0  0  0  0  0  0  0  0  0
  1  2  2  0  0  0  0
  1  3  1  0  0  0  0
  1  7  1  0  0  0  0
  3  4  1  0  0  0  0
  3  5  1  0  0  0  0
  3  6  1  0  0  0  0
  7  8  1  0  0  0  0
  7 12  1  0  0  0  0
  8  9  1  0  0  0  0
  8 11  1  0  0  0  0
  8 13  1  0  0  0  0
  9 10  2  0  0  0  0
  9 17  1  0  0  0  0
 11 14  1  0  0  0  0
 11 15  1  0  0  0  0
 11 16  1  0  0  0  0
 17 18  1  0  0  0  0
 17 21  1  0  0  0  0
 18 19  1  0  0  0  0
 18 22  1  0  0  0  0
 18 23  1  0  0  0  0
 19 20  2  0  0  0  0
 19 24  1  0  0  0  0
 24 25  1  0  0  0  0
 24 29  1  0  0  0  0
 25 26  1  0  0  0  0
 25 28  1  0  0  0  0
 25 30  1  0  0  0  0
 26 27  2  0  0  0  0
 26 34  1  0  0  0  0
 28 31  1  0  0  0  0
 28 32  1  0  0  0  0
 28 33  1  0  0  0  0
 34 35  1  0  0  0  0
 34 36  1  0  0  0  0
 35 37  1  0  0  0  0
 35 38  1  0  0  0  0
 35 39  1  0  0  0  0
M  END
$$$$

  -OEChem-05262216283D

 39 38  0     1  0  0  0  0  0999 V2000
   -3.0800   -3.3566   -2.2207 C   0  0  0  0  0  0  0  0  0  0  0  0
   -2.2427   -4.1281   -1.7803 O   0  0  0  0  0  0  0  0  0  0  0  0
   -4.4658   -3.8612   -2.5766 C   0  0  0  0  0  0  0  0  0  0  0  0
   -4.6606   -3.6962   -3.6392 H   0  0  0  0  0  0  0  0  0  0  0  0
   -4.5430   -4.9315   -2.3658 H   0  0  0  0  0  0  0  0  0  0  0  0
   -5.2187   -3.3311   -1.9881 H   0  0  0  0  0  0  0  0  0  0  0  0
   -2.7761   -2.0233   -2.3923 N   0  0  0  0  0  0  0  0  0  0  0  0
   -1.5260   -1.3890   -1.9553 C   0  0  2  0  0  0  0  0  0  0  0  0
   -1.7812    0.0390   -1.4305 C   0  0  0  0  0  0  0  0  0  0  0  0
   -2.7461    0.6777   -1.8382 O   0  0  0  0  0  0  0  0  0  0  0  0
   -0.5661   -1.3597   -3.1476 C   0  0  0  0  0  0  0  0  0  0  0  0
   -3.5367   -1.3990   -2.6578 H   0  0  0  0  0  0  0  0  0  0  0  0
   -1.0718   -1.9652   -1.1415 H   0  0  0  0  0  0  0  0  0  0  0  0
   -1.0056   -0.8000   -3.9794 H   0  0  0  0  0  0  0  0  0  0  0  0
    0.3780   -0.8831   -2.8692 H   0  0  0  0  0  0  0  0  0  0  0  0
   -0.3526   -2.3789   -3.4848 H   0  0  0  0  0  0  0  0  0  0  0  0
   -0.9427    0.5992   -0.4852 N   0  0  0  0  0  0  0  0  0  0  0  0
   -0.8482    2.0621   -0.2928 C   0  0  0  0  0  0  0  0  0  0  0  0
    0.6102    2.5143   -0.1684 C   0  0  0  0  0  0  0  0  0  0  0  0
    1.0906    3.2865   -0.9847 O   0  0  0  0  0  0  0  0  0  0  0  0
   -0.0837    0.0572   -0.3443 H   0  0  0  0  0  0  0  0  0  0  0  0
   -1.3919    2.3526    0.6100 H   0  0  0  0  0  0  0  0  0  0  0  0
   -1.2963    2.6000   -1.1358 H   0  0  0  0  0  0  0  0  0  0  0  0
    1.4478    1.7784    0.6495 N   0  0  0  0  0  0  0  0  0  0  0  0
    2.7878    1.3860    0.1946 C   0  0  2  0  0  0  0  0  0  0  0  0
    2.7168    0.0736   -0.6187 C   0  0  0  0  0  0  0  0  0  0  0  0
    1.7228   -0.6453   -0.5258 O   0  0  0  0  0  0  0  0  0  0  0  0
    3.6736    1.2135    1.4303 C   0  0  0  0  0  0  0  0  0  0  0  0
    0.9593    1.0767    1.2005 H   0  0  0  0  0  0  0  0  0  0  0  0
    3.2252    2.1652   -0.4391 H   0  0  0  0  0  0  0  0  0  0  0  0
    3.2790    0.4258    2.0804 H   0  0  0  0  0  0  0  0  0  0  0  0
    4.6925    0.9434    1.1363 H   0  0  0  0  0  0  0  0  0  0  0  0
    3.7149    2.1477    1.9995 H   0  0  0  0  0  0  0  0  0  0  0  0
    3.7496   -0.2992   -1.4575 N   0  0  0  0  0  0  0  0  0  0  0  0
    3.7205   -1.5038   -2.2796 C   0  0  0  0  0  0  0  0  0  0  0  0
    4.5256    0.3486   -1.5643 H   0  0  0  0  0  0  0  0  0  0  0  0
    3.5737   -2.3922   -1.6560 H   0  0  0  0  0  0  0  0  0  0  0  0
    2.9088   -1.4498   -3.0126 H   0  0  0  0  0  0  0  0  0  0  0  0
    4.6663   -1.6157   -2.8186 H   0  0  0  0  0  0  0  0  0  0  0  0
  1  2  2  0  0  0  0
  1  3  1  0  0  0  0
  1  7  1  0  0  0  0
  3  4  1  0  0  0  0
  3  5  1  0  0  0  0
  3  6  1  0  0  0  0
  7  8  1  0  0  0  0
  7 12  1  0  0  0  0
  8  9  1  0  0  0  0
  8 11  1  0  0  0  0
  8 13  1  0  0  0  0
  9 10  2  0  0  0  0
  9 17  1  0  0  0  0
 11 14  1  0  0  0  0
 11 15  1  0  0  0  0
 11 16  1  0  0  0  0
 17 18  1  0  0  0  0
 17 21  1  0  0  0  0
 18 19  1  0  0  0  0
 18 22  1  0  0  0  0
 18 23  1  0  0  0  0
 19 20  2  0  0  0  0
 19 24  1  0  0  0  0
 24 25  1  0  0  0  0
 24 29  1  0  0  0  0
 25 26  1  0  0  0  0
 25 28  1  0  0  0  0
 25 30  1  0  0  0  0
 26 27  2  0  0  0  0
 26 34  1  0  0  0  0
 28 31  1  0  0  0  0
 28 32  1  0  0  0  0
 28 33  1  0  0  0  0
 34 35  1  0  0  0  0
 34 36  1  0  0  0  0
 35 37  1  0  0  0  0
 35 38  1  0  0  0  0
 35 39  1  0  0  0  0
M  END
$$$$

  -OEChem-05262216283D

 39 38  0     1  0  0  0  0  0999 V2000
   -4.3233   -3.1645   -2.2579 C   0  0  0  0  0  0  0  0  0  0  0  0
   -3.8780   -4.0711   -1.5722 O   0  0  0  0  0  0  0  0  0  0  0  0
   -5.7634   -3.2070   -2.7331 C   0  0  0  0  0  0  0  0  0  0  0  0
   -5.7970   -3.1830   -3.8249 H   0  0  0  0  0  0  0  0  0  0  0  0
   -6.2487   -4.1233   -2.3854 H   0  0  0  0  0  0  0  0  0  0  0  0
   -6.3116   -2.3475   -2.3397 H   0  0  0  0  0  0  0  0  0  0  0  0
   -3.5269   -2.0884   -2.5886 N   0  0  0  0  0  0  0  0  0  0  0  0
   -2.2087   -1.8249   -1.9947 C   0  0  2  0  0  0  0  0  0  0  0  0
   -2.0811   -0.3581   -1.5307 C   0  0  0  0  0  0  0  0  0  0  0  0
   -2.8822    0.4808   -1.9257 O   0  0  0  0  0  0  0  0  0  0  0  0
   -1.1404   -2.1563   -3.0399 C   0  0  0  0  0  0  0  0  0  0  0  0
   -3.9976   -1.2892   -3.0113 H   0  0  0  0  0  0  0  0  0  0  0  0
   -2.0540   -2.4588   -1.1153 H   0  0  0  0  0  0  0  0  0  0  0  0
   -1.2626   -1.5248   -3.9258 H   0  0  0  0  0  0  0  0  0  0  0  0
   -0.1376   -1.9944   -2.6323 H   0  0  0  0  0  0  0  0  0  0  0  0
   -1.2230   -3.2045   -3.3444 H   0  0  0  0  0  0  0  0  0  0  0  0
   -1.0675    0.0125   -0.6637 N   0  0  0  0  0  0  0  0  0  0  0  0
   -0.9086    1.3701   -0.0978 C   0  0  0  0  0  0  0  0  0  0  0  0
    0.5332    1.8956   -0.1413 C   0  0  0  0  0  0  0  0  0  0  0  0
    0.7468    3.0980   -0.1837 O   0  0  0  0  0  0  0  0  0  0  0  0
   -0.5027   -0.7449   -0.2897 H   0  0  0  0  0  0  0  0  0  0  0  0
   -1.2461    1.3699    0.9422 H   0  0  0  0  0  0  0  0  0  0  0  0
   -1.5308    2.0899   -0.6404 H   0  0  0  0  0  0  0  0  0  0  0  0
    1.6008    1.0213   -0.0696 N   0  0  0  0  0  0  0  0  0  0  0  0
    2.9867    1.3944   -0.3774 C   0  0  2  0  0  0  0  0  0  0  0  0
    3.6297    0.3478   -1.3114 C   0  0  0  0  0  0  0  0  0  0  0  0
    3.0771   -0.7354   -1.4851 O   0  0  0  0  0  0  0  0  0  0  0  0
    3.7579    1.5032    0.9398 C   0  0  0  0  0  0  0  0  0  0  0  0
    1.3793    0.0399   -0.2187 H   0  0  0  0  0  0  0  0  0  0  0  0
    3.0194    2.3596   -0.8941 H   0  0  0  0  0  0  0  0  0  0  0  0
    3.7499    0.5451    1.4694 H   0  0  0  0  0  0  0  0  0  0  0  0
    4.7972    1.7909    0.7549 H   0  0  0  0  0  0  0  0  0  0  0  0
    3.2991    2.2614    1.5824 H   0  0  0  0  0  0  0  0  0  0  0  0
    4.8114    0.6245   -1.9730 N   0  0  0  0  0  0  0  0  0  0  0  0
    5.4364   -0.2990   -2.9121 C   0  0  0  0  0  0  0  0  0  0  0  0
    5.2186    1.5467   -1.8447 H   0  0  0  0  0  0  0  0  0  0  0  0
    5.6640   -1.2507   -2.4203 H   0  0  0  0  0  0  0  0  0  0  0  0
    4.7709   -0.4907   -3.7604 H   0  0  0  0  0  0  0  0  0  0  0  0
    6.3708    0.1235   -3.2940 H   0  0  0  0  0  0  0  0  0  0  0  0
  1  2  2  0  0  0  0
  1  3  1  0  0  0  0
  1  7  1  0  0  0  0
  3  4  1  0  0  0  0
  3  5  1  0  0  0  0
  3  6  1  0  0  0  0
  7  8  1  0  0  0  0
  7 12  1  0  0  0  0
  8  9  1  0  0  0  0
  8 11  1  0  0  0  0
  8 13  1  0  0  0  0
  9 10  2  0  0  0  0
  9 17  1  0  0  0  0
 11 14  1  0  0  0  0
 11 15  1  0  0  0  0
 11 16  1  0  0  0  0
 17 18  1  0  0  0  0
 17 21  1  0  0  0  0
 18 19  1  0  0  0  0
 18 22  1  0  0  0  0
 18 23  1  0  0  0  0
 19 20  2  0  0  0  0
 19 24  1  0  0  0  0
 24 25  1  0  0  0  0
 24 29  1  0  0  0  0
 25 26  1  0  0  0  0
 25 28  1  0  0  0  0
 25 30  1  0  0  0  0
 26 27  2  0  0  0  0
 26 34  1  0  0  0  0
 28 31  1  0  0  0  0
 28 32  1  0  0  0  0
 28 33  1  0  0  0  0
 34 35  1  0  0  0  0
 34 36  1  0  0  0  0
 35 37  1  0  0  0  0
 35 38  1  0  0  0  0
 35 39  1  0  0  0  0
M  END
$$$$

  -OEChem-05262216283D

 39 38  0     1  0  0  0  0  0999 V2000
   -4.4100   -3.0845   -2.0570 C   0  0  0  0  0  0  0  0  0  0  0  0
   -3.9174   -3.8745   -1.2669 O   0  0  0  0  0  0  0  0  0  0  0  0
   -5.8940   -3.1466   -2.3670 C   0  0  0  0  0  0  0  0  0  0  0  0
   -6.0455   -3.2835   -3.4405 H   0  0  0  0  0  0  0  0  0  0  0  0
   -6.3561   -3.9840   -1.8366 H   0  0  0  0  0  0  0  0  0  0  0  0
   -6.3795   -2.2193   -2.0527 H   0  0  0  0  0  0  0  0  0  0  0  0
   -3.6299   -2.1191   -2.6593 N   0  0  0  0  0  0  0  0  0  0  0  0
   -2.2541   -1.8046   -2.2483 C   0  0  2  0  0  0  0  0  0  0  0  0
   -2.1528   -0.3940   -1.6316 C   0  0  0  0  0  0  0  0  0  0  0  0
   -2.9652    0.4696   -1.9401 O   0  0  0  0  0  0  0  0  0  0  0  0
   -1.3588   -1.9124   -3.4850 C   0  0  0  0  0  0  0  0  0  0  0  0
   -4.1378   -1.3741   -3.1327 H   0  0  0  0  0  0  0  0  0  0  0  0
   -1.8998   -2.5211   -1.5002 H   0  0  0  0  0  0  0  0  0  0  0  0
   -1.6737   -1.1963   -4.2509 H   0  0  0  0  0  0  0  0  0  0  0  0
   -0.3157   -1.7060   -3.2249 H   0  0  0  0  0  0  0  0  0  0  0  0
   -1.4164   -2.9212   -3.9056 H   0  0  0  0  0  0  0  0  0  0  0  0
   -1.1191   -0.0906   -0.7629 N   0  0  0  0  0  0  0  0  0  0  0  0
   -0.9650    1.2063   -0.0700 C   0  0  0  0  0  0  0  0  0  0  0  0
    0.4679    1.7541   -0.1098 C   0  0  0  0  0  0  0  0  0  0  0  0
    0.6970    2.9025    0.2394 O   0  0  0  0  0  0  0  0  0  0  0  0
   -0.5694   -0.8803   -0.4341 H   0  0  0  0  0  0  0  0  0  0  0  0
   -1.2651    1.0959    0.9756 H   0  0  0  0  0  0  0  0  0  0  0  0
   -1.6149    1.9655   -0.5173 H   0  0  0  0  0  0  0  0  0  0  0  0
    1.5195    0.9329   -0.4679 N   0  0  0  0  0  0  0  0  0  0  0  0
    2.8840    1.4042   -0.7279 C   0  0  2  0  0  0  0  0  0  0  0  0
    3.5282    0.5929   -1.8724 C   0  0  0  0  0  0  0  0  0  0  0  0
    2.9726   -0.4186   -2.2924 O   0  0  0  0  0  0  0  0  0  0  0  0
    3.6972    1.2723    0.5627 C   0  0  0  0  0  0  0  0  0  0  0  0
    1.2655    0.0613   -0.9295 H   0  0  0  0  0  0  0  0  0  0  0  0
    2.8648    2.4545   -1.0387 H   0  0  0  0  0  0  0  0  0  0  0  0
    3.7330    0.2276    0.8877 H   0  0  0  0  0  0  0  0  0  0  0  0
    4.7211    1.6262    0.4107 H   0  0  0  0  0  0  0  0  0  0  0  0
    3.2411    1.8699    1.3585 H   0  0  0  0  0  0  0  0  0  0  0  0
    4.7171    1.0036   -2.4459 N   0  0  0  0  0  0  0  0  0  0  0  0
    5.3609    0.2979   -3.5474 C   0  0  0  0  0  0  0  0  0  0  0  0
    5.1365    1.8613   -2.0979 H   0  0  0  0  0  0  0  0  0  0  0  0
    5.5949   -0.7323   -3.2588 H   0  0  0  0  0  0  0  0  0  0  0  0
    4.7060    0.2778   -4.4248 H   0  0  0  0  0  0  0  0  0  0  0  0
    6.2938    0.7987   -3.8235 H   0  0  0  0  0  0  0  0  0  0  0  0
  1  2  2  0  0  0  0
  1  3  1  0  0  0  0
  1  7  1  0  0  0  0
  3  4  1  0  0  0  0
  3  5  1  0  0  0  0
  3  6  1  0  0  0  0
  7  8  1  0  0  0  0
  7 12  1  0  0  0  0
  8  9  1  0  0  0  0
  8 11  1  0  0  0  0
  8 13  1  0  0  0  0
  9 10  2  0  0  0  0
  9 17  1  0  0  0  0
 11 14  1  0  0  0  0
 11 15  1  0  0  0  0
 11 16  1  0  0  0  0
 17 18  1  0  0  0  0
 17 21  1  0  0  0  0
 18 19  1  0  0  0  0
 18 22  1  0  0  0  0
 18 23  1  0  0  0  0
 19 20  2  0  0  0  0
 19 24  1  0  0  0  0
 24 25  1  0  0  0  0
 24 29  1  0  0  0  0
 25 26  1  0  0  0  0
 25 28  1  0  0  0  0
 25 30  1  0  0  0  0
 26 27  2  0  0  0  0
 26 34  1  0  0  0  0
 28 31  1  0  0  0  0
 28 32  1  0  0  0  0
 28 33  1  0  0  0  0
 34 35  1  0  0  0  0
 34 36  1  0  0  0  0
 35 37  1  0  0  0  0
 35 38  1  0  0  0  0
 35 39  1  0  0  0  0
M  END
$$$$

  -OEChem-05262216283D

 39 38  0     1  0  0  0  0  0999 V2000
   -4.4434   -3.1858   -2.1422 C   0  0  0  0  0  0  0  0  0  0  0  0
   -3.8760   -4.0933   -1.5548 O   0  0  0  0  0  0  0  0  0  0  0  0
   -5.9322   -3.2749   -2.4204 C   0  0  0  0  0  0  0  0  0  0  0  0
   -6.1116   -3.2475   -3.4979 H   0  0  0  0  0  0  0  0  0  0  0  0
   -6.3364   -4.2089   -2.0196 H   0  0  0  0  0  0  0  0  0  0  0  0
   -6.4516   -2.4364   -1.9496 H   0  0  0  0  0  0  0  0  0  0  0  0
   -3.7389   -2.0714   -2.5471 N   0  0  0  0  0  0  0  0  0  0  0  0
   -2.3572   -1.7757   -2.1437 C   0  0  2  0  0  0  0  0  0  0  0  0
   -2.2394   -0.3750   -1.5087 C   0  0  0  0  0  0  0  0  0  0  0  0
   -3.0757    0.4844   -1.7594 O   0  0  0  0  0  0  0  0  0  0  0  0
   -1.4713   -1.8730   -3.3884 C   0  0  0  0  0  0  0  0  0  0  0  0
   -4.2925   -1.2812   -2.8747 H   0  0  0  0  0  0  0  0  0  0  0  0
   -2.0083   -2.5032   -1.4034 H   0  0  0  0  0  0  0  0  0  0  0  0
   -1.7869   -1.1439   -4.1417 H   0  0  0  0  0  0  0  0  0  0  0  0
   -0.4247   -1.6778   -3.1337 H   0  0  0  0  0  0  0  0  0  0  0  0
   -1.5394   -2.8753   -3.8232 H   0  0  0  0  0  0  0  0  0  0  0  0
   -1.1704   -0.0736   -0.6833 N   0  0  0  0  0  0  0  0  0  0  0  0
   -0.9882    1.2193    0.0093 C   0  0  0  0  0  0  0  0  0  0  0  0
    0.4413    1.7669   -0.0896 C   0  0  0  0  0  0  0  0  0  0  0  0
    0.7413    2.8011    0.4879 O   0  0  0  0  0  0  0  0  0  0  0  0
   -0.5774   -0.8538   -0.4096 H   0  0  0  0  0  0  0  0  0  0  0  0
   -1.2456    1.1044    1.0661 H   0  0  0  0  0  0  0  0  0  0  0  0
   -1.6544    1.9814   -0.4077 H   0  0  0  0  0  0  0  0  0  0  0  0
    1.4133    1.0661   -0.7772 N   0  0  0  0  0  0  0  0  0  0  0  0
    2.7597    1.5752   -1.0603 C   0  0  2  0  0  0  0  0  0  0  0  0
    3.2972    0.9967   -2.3866 C   0  0  0  0  0  0  0  0  0  0  0  0
    2.7107    0.0651   -2.9300 O   0  0  0  0  0  0  0  0  0  0  0  0
    3.6796    1.2038    0.1069 C   0  0  0  0  0  0  0  0  0  0  0  0
    1.0825    0.3214   -1.3895 H   0  0  0  0  0  0  0  0  0  0  0  0
    2.7277    2.6652   -1.1634 H   0  0  0  0  0  0  0  0  0  0  0  0
    3.7391    0.1161    0.2162 H   0  0  0  0  0  0  0  0  0  0  0  0
    4.6883    1.5941   -0.0581 H   0  0  0  0  0  0  0  0  0  0  0  0
    3.2968    1.6279    1.0409 H   0  0  0  0  0  0  0  0  0  0  0  0
    4.4241    1.5313   -2.9830 N   0  0  0  0  0  0  0  0  0  0  0  0
    4.9696    1.0458   -4.2452 C   0  0  0  0  0  0  0  0  0  0  0  0
    4.8772    2.3134   -2.5190 H   0  0  0  0  0  0  0  0  0  0  0  0
    5.2970    0.0055   -4.1464 H   0  0  0  0  0  0  0  0  0  0  0  0
    4.2158    1.1040   -5.0377 H   0  0  0  0  0  0  0  0  0  0  0  0
    5.8305    1.6522   -4.5434 H   0  0  0  0  0  0  0  0  0  0  0  0
  1  2  2  0  0  0  0
  1  3  1  0  0  0  0
  1  7  1  0  0  0  0
  3  4  1  0  0  0  0
  3  5  1  0  0  0  0
  3  6  1  0  0  0  0
  7  8  1  0  0  0  0
  7 12  1  0  0  0  0
  8  9  1  0  0  0  0
  8 11  1  0  0  0  0
  8 13  1  0  0  0  0
  9 10  2  0  0  0  0
  9 17  1  0  0  0  0
 11 14  1  0  0  0  0
 11 15  1  0  0  0  0
 11 16  1  0  0  0  0
 17 18  1  0  0  0  0
 17 21  1  0  0  0  0
 18 19  1  0  0  0  0
 18 22  1  0  0  0  0
 18 23  1  0  0  0  0
 19 20  2  0  0  0  0
 19 24  1  0  0  0  0
 24 25  1  0  0  0  0
 24 29  1  0  0  0  0
 25 26  1  0  0  0  0
 25 28  1  0  0  0  0
 25 30  1  0  0  0  0
 26 27  2  0  0  0  0
 26 34  1  0  0  0  0
 28 31  1  0  0  0  0
 28 32  1  0  0  0  0
 28 33  1  0  0  0  0
 34 35  1  0  0  0  0
 34 36  1  0  0  0  0
 35 37  1  0  0  0  0
 35 38  1  0  0  0  0
 35 39  1  0  0  0  0
M  END
$$$$

  -OEChem-05262216283D

 39 38  0     1  0  0  0  0  0999 V2000
   -4.0924   -2.9234   -3.1420 C   0  0  0  0  0  0  0  0  0  0  0  0
   -3.3908   -3.3713   -4.0349 O   0  0  0  0  0  0  0  0  0  0  0  0
   -5.4442   -3.5479   -2.8507 C   0  0  0  0  0  0  0  0  0  0  0  0
   -6.2267   -2.7871   -2.9046 H   0  0  0  0  0  0  0  0  0  0  0  0
   -5.6638   -4.3305   -3.5825 H   0  0  0  0  0  0  0  0  0  0  0  0
   -5.4427   -3.9897   -1.8511 H   0  0  0  0  0  0  0  0  0  0  0  0
   -3.6534   -1.8577   -2.3855 N   0  0  0  0  0  0  0  0  0  0  0  0
   -2.2974   -1.2972   -2.4539 C   0  0  2  0  0  0  0  0  0  0  0  0
   -1.8565   -0.7189   -1.0921 C   0  0  0  0  0  0  0  0  0  0  0  0
   -2.6619   -0.6106   -0.1742 O   0  0  0  0  0  0  0  0  0  0  0  0
   -2.2689   -0.2153   -3.5384 C   0  0  0  0  0  0  0  0  0  0  0  0
   -4.2101   -1.6053   -1.5694 H   0  0  0  0  0  0  0  0  0  0  0  0
   -1.5849   -2.0868   -2.7174 H   0  0  0  0  0  0  0  0  0  0  0  0
   -2.9571    0.5978   -3.2867 H   0  0  0  0  0  0  0  0  0  0  0  0
   -1.2608    0.1971   -3.6442 H   0  0  0  0  0  0  0  0  0  0  0  0
   -2.5673   -0.6386   -4.5028 H   0  0  0  0  0  0  0  0  0  0  0  0
   -0.5516   -0.3099   -0.8985 N   0  0  0  0  0  0  0  0  0  0  0  0
    0.0250    0.1462    0.3823 C   0  0  0  0  0  0  0  0  0  0  0  0
    0.8724    1.4140    0.2137 C   0  0  0  0  0  0  0  0  0  0  0  0
    1.8622    1.5487    0.9161 O   0  0  0  0  0  0  0  0  0  0  0  0
    0.0972   -0.4430   -1.6832 H   0  0  0  0  0  0  0  0  0  0  0  0
    0.6493   -0.6475    0.8037 H   0  0  0  0  0  0  0  0  0  0  0  0
   -0.7619    0.3678    1.1100 H   0  0  0  0  0  0  0  0  0  0  0  0
    0.7389    2.1345   -0.9630 N   0  0  0  0  0  0  0  0  0  0  0  0
    1.8751    2.4225   -1.8563 C   0  0  2  0  0  0  0  0  0  0  0  0
    2.4333    1.1061   -2.4518 C   0  0  0  0  0  0  0  0  0  0  0  0
    1.6435    0.2163   -2.7656 O   0  0  0  0  0  0  0  0  0  0  0  0
    2.9468    3.3160   -1.2063 C   0  0  0  0  0  0  0  0  0  0  0  0
   -0.1113    1.8683   -1.4536 H   0  0  0  0  0  0  0  0  0  0  0  0
    1.4785    2.9931   -2.7015 H   0  0  0  0  0  0  0  0  0  0  0  0
    3.5479    2.7596   -0.4811 H   0  0  0  0  0  0  0  0  0  0  0  0
    3.6195    3.7173   -1.9703 H   0  0  0  0  0  0  0  0  0  0  0  0
    2.4728    4.1565   -0.6899 H   0  0  0  0  0  0  0  0  0  0  0  0
    3.7868    0.9062   -2.6489 N   0  0  0  0  0  0  0  0  0  0  0  0
    4.3469   -0.3595   -3.1070 C   0  0  0  0  0  0  0  0  0  0  0  0
    4.4155    1.6030   -2.2588 H   0  0  0  0  0  0  0  0  0  0  0  0
    4.1235   -1.1582   -2.3917 H   0  0  0  0  0  0  0  0  0  0  0  0
    3.9321   -0.6334   -4.0830 H   0  0  0  0  0  0  0  0  0  0  0  0
    5.4336   -0.2774   -3.2069 H   0  0  0  0  0  0  0  0  0  0  0  0
  1  2  2  0  0  0  0
  1  3  1  0  0  0  0
  1  7  1  0  0  0  0
  3  4  1  0  0  0  0
  3  5  1  0  0  0  0
  3  6  1  0  0  0  0
  7  8  1  0  0  0  0
  7 12  1  0  0  0  0
  8  9  1  0  0  0  0
  8 11  1  0  0  0  0
  8 13  1  0  0  0  0
  9 10  2  0  0  0  0
  9 17  1  0  0  0  0
 11 14  1  0  0  0  0
 11 15  1  0  0  0  0
 11 16  1  0  0  0  0
 17 18  1  0  0  0  0
 17 21  1  0  0  0  0
 18 19  1  0  0  0  0
 18 22  1  0  0  0  0
 18 23  1  0  0  0  0
 19 20  2  0  0  0  0
 19 24  1  0  0  0  0
 24 25  1  0  0  0  0
 24 29  1  0  0  0  0
 25 26  1  0  0  0  0
 25 28  1  0  0  0  0
 25 30  1  0  0  0  0
 26 27  2  0  0  0  0
 26 34  1  0  0  0  0
 28 31  1  0  0  0  0
 28 32  1  0  0  0  0
 28 33  1  0  0  0  0
 34 35  1  0  0  0  0
 34 36  1  0  0  0  0
 35 37  1  0  0  0  0
 35 38  1  0  0  0  0
 35 39  1  0  0  0  0
M  END
$$$$

  -OEChem-05262216283D

 39 38  0     1  0  0  0  0  0999 V2000
   -4.1513   -2.8111   -3.1658 C   0  0  0  0  0  0  0  0  0  0  0  0
   -3.4858   -3.1815   -4.1198 O   0  0  0  0  0  0  0  0  0  0  0  0
   -5.4944   -3.4553   -2.8785 C   0  0  0  0  0  0  0  0  0  0  0  0
   -6.2790   -2.6948   -2.8729 H   0  0  0  0  0  0  0  0  0  0  0  0
   -5.7287   -4.1979   -3.6466 H   0  0  0  0  0  0  0  0  0  0  0  0
   -5.4700   -3.9506   -1.9047 H   0  0  0  0  0  0  0  0  0  0  0  0
   -3.6820   -1.8110   -2.3411 N   0  0  0  0  0  0  0  0  0  0  0  0
   -2.3381   -1.2247   -2.4299 C   0  0  2  0  0  0  0  0  0  0  0  0
   -1.8369   -0.7513   -1.0488 C   0  0  0  0  0  0  0  0  0  0  0  0
   -2.6082   -0.6892   -0.0977 O   0  0  0  0  0  0  0  0  0  0  0  0
   -2.3816   -0.0569   -3.4211 C   0  0  0  0  0  0  0  0  0  0  0  0
   -4.2085   -1.6221   -1.4886 H   0  0  0  0  0  0  0  0  0  0  0  0
   -1.6291   -1.9775   -2.7923 H   0  0  0  0  0  0  0  0  0  0  0  0
   -3.0751    0.7155   -3.0740 H   0  0  0  0  0  0  0  0  0  0  0  0
   -1.3890    0.3887   -3.5359 H   0  0  0  0  0  0  0  0  0  0  0  0
   -2.7138   -0.4077   -4.4034 H   0  0  0  0  0  0  0  0  0  0  0  0
   -0.5212   -0.3692   -0.8752 N   0  0  0  0  0  0  0  0  0  0  0  0
    0.0854    0.0655    0.3987 C   0  0  0  0  0  0  0  0  0  0  0  0
    0.9475    1.3165    0.2002 C   0  0  0  0  0  0  0  0  0  0  0  0
    2.0709    1.3451    0.6789 O   0  0  0  0  0  0  0  0  0  0  0  0
    0.0843   -0.3947   -1.7041 H   0  0  0  0  0  0  0  0  0  0  0  0
    0.7049   -0.7400    0.8052 H   0  0  0  0  0  0  0  0  0  0  0  0
   -0.6820    0.2993    1.1426 H   0  0  0  0  0  0  0  0  0  0  0  0
    0.5829    2.1973   -0.8057 N   0  0  0  0  0  0  0  0  0  0  0  0
    1.5409    2.6772   -1.8168 C   0  0  2  0  0  0  0  0  0  0  0  0
    2.1257    1.4878   -2.6202 C   0  0  0  0  0  0  0  0  0  0  0  0
    1.3827    0.5563   -2.9265 O   0  0  0  0  0  0  0  0  0  0  0  0
    2.6054    3.6144   -1.2193 C   0  0  0  0  0  0  0  0  0  0  0  0
   -0.3417    1.9812   -1.1700 H   0  0  0  0  0  0  0  0  0  0  0  0
    0.9759    3.2776   -2.5361 H   0  0  0  0  0  0  0  0  0  0  0  0
    3.3406    3.0626   -0.6265 H   0  0  0  0  0  0  0  0  0  0  0  0
    3.1367    4.1419   -2.0172 H   0  0  0  0  0  0  0  0  0  0  0  0
    2.1297    4.3583   -0.5729 H   0  0  0  0  0  0  0  0  0  0  0  0
    3.4498    1.4539   -3.0162 N   0  0  0  0  0  0  0  0  0  0  0  0
    4.0514    0.3060   -3.6837 C   0  0  0  0  0  0  0  0  0  0  0  0
    4.0632    2.1599   -2.6188 H   0  0  0  0  0  0  0  0  0  0  0  0
    4.0253   -0.5738   -3.0321 H   0  0  0  0  0  0  0  0  0  0  0  0
    3.5142    0.0750   -4.6094 H   0  0  0  0  0  0  0  0  0  0  0  0
    5.0942    0.5207   -3.9369 H   0  0  0  0  0  0  0  0  0  0  0  0
  1  2  2  0  0  0  0
  1  3  1  0  0  0  0
  1  7  1  0  0  0  0
  3  4  1  0  0  0  0
  3  5  1  0  0  0  0
  3  6  1  0  0  0  0
  7  8  1  0  0  0  0
  7 12  1  0  0  0  0
  8  9  1  0  0  0  0
  8 11  1  0  0  0  0
  8 13  1  0  0  0  0
  9 10  2  0  0  0  0
  9 17  1  0  0  0  0
 11 14  1  0  0  0  0
 11 15  1  0  0  0  0
 11 16  1  0  0  0  0
 17 18  1  0  0  0  0
 17 21  1  0  0  0  0
 18 19  1  0  0  0  0
 18 22  1  0  0  0  0
 18 23  1  0  0  0  0
 19 20  2  0  0  0  0
 19 24  1  0  0  0  0
 24 25  1  0  0  0  0
 24 29  1  0  0  0  0
 25 26  1  0  0  0  0
 25 28  1  0  0  0  0
 25 30  1  0  0  0  0
 26 27  2  0  0  0  0
 26 34  1  0  0  0  0
 28 31  1  0  0  0  0
 28 32  1  0  0  0  0
 28 33  1  0  0  0  0
 34 35  1  0  0  0  0
 34 36  1  0  0  0  0
 35 37  1  0  0  0  0
 35 38  1  0  0  0  0
 35 39  1  0  0  0  0
M  END
$$$$

  -OEChem-05262216283D

 39 38  0     1  0  0  0  0  0999 V2000
   -4.0936   -2.7376   -3.2266 C   0  0  0  0  0  0  0  0  0  0  0  0
   -3.4408   -2.9790   -4.2292 O   0  0  0  0  0  0  0  0  0  0  0  0
   -5.3781   -3.4971   -2.9553 C   0  0  0  0  0  0  0  0  0  0  0  0
   -6.2228   -2.8043   -2.9372 H   0  0  0  0  0  0  0  0  0  0  0  0
   -5.5490   -4.2412   -3.7384 H   0  0  0  0  0  0  0  0  0  0  0  0
   -5.3134   -4.0086   -1.9920 H   0  0  0  0  0  0  0  0  0  0  0  0
   -3.6668   -1.7753   -2.3366 N   0  0  0  0  0  0  0  0  0  0  0  0
   -2.3815   -1.0701   -2.4259 C   0  0  2  0  0  0  0  0  0  0  0  0
   -1.8473   -0.6955   -1.0270 C   0  0  0  0  0  0  0  0  0  0  0  0
   -2.6019   -0.6889   -0.0601 O   0  0  0  0  0  0  0  0  0  0  0  0
   -2.5805    0.1828   -3.2843 C   0  0  0  0  0  0  0  0  0  0  0  0
   -4.1793   -1.6851   -1.4602 H   0  0  0  0  0  0  0  0  0  0  0  0
   -1.6344   -1.7166   -2.8997 H   0  0  0  0  0  0  0  0  0  0  0  0
   -3.3206    0.8476   -2.8278 H   0  0  0  0  0  0  0  0  0  0  0  0
   -1.6389    0.7285   -3.3927 H   0  0  0  0  0  0  0  0  0  0  0  0
   -2.9311   -0.0954   -4.2834 H   0  0  0  0  0  0  0  0  0  0  0  0
   -0.5229   -0.3462   -0.8490 N   0  0  0  0  0  0  0  0  0  0  0  0
    0.0811    0.0785    0.4290 C   0  0  0  0  0  0  0  0  0  0  0  0
    0.9706    1.3053    0.2166 C   0  0  0  0  0  0  0  0  0  0  0  0
    2.1631    1.2349    0.4746 O   0  0  0  0  0  0  0  0  0  0  0  0
    0.0486   -0.2578   -1.6973 H   0  0  0  0  0  0  0  0  0  0  0  0
    0.6806   -0.7370    0.8447 H   0  0  0  0  0  0  0  0  0  0  0  0
   -0.6841    0.3358    1.1676 H   0  0  0  0  0  0  0  0  0  0  0  0
    0.4732    2.3319   -0.5698 N   0  0  0  0  0  0  0  0  0  0  0  0
    1.2838    2.9620   -1.6272 C   0  0  2  0  0  0  0  0  0  0  0  0
    1.7954    1.9034   -2.6394 C   0  0  0  0  0  0  0  0  0  0  0  0
    1.0496    0.9811   -2.9654 O   0  0  0  0  0  0  0  0  0  0  0  0
    2.3911    3.8573   -1.0435 C   0  0  0  0  0  0  0  0  0  0  0  0
   -0.5051    2.1883   -0.8079 H   0  0  0  0  0  0  0  0  0  0  0  0
    0.6212    3.6232   -2.1938 H   0  0  0  0  0  0  0  0  0  0  0  0
    3.1888    3.2647   -0.5864 H   0  0  0  0  0  0  0  0  0  0  0  0
    2.8321    4.4765   -1.8305 H   0  0  0  0  0  0  0  0  0  0  0  0
    1.9739    4.5203   -0.2792 H   0  0  0  0  0  0  0  0  0  0  0  0
    3.0556    1.9783   -3.2031 N   0  0  0  0  0  0  0  0  0  0  0  0
    3.5971    0.9407   -4.0730 C   0  0  0  0  0  0  0  0  0  0  0  0
    3.6960    2.6561   -2.7996 H   0  0  0  0  0  0  0  0  0  0  0  0
    3.6517   -0.0151   -3.5409 H   0  0  0  0  0  0  0  0  0  0  0  0
    2.9663    0.8153   -4.9594 H   0  0  0  0  0  0  0  0  0  0  0  0
    4.6043    1.2113   -4.4041 H   0  0  0  0  0  0  0  0  0  0  0  0
  1  2  2  0  0  0  0
  1  3  1  0  0  0  0
  1  7  1  0  0  0  0
  3  4  1  0  0  0  0
  3  5  1  0  0  0  0
  3  6  1  0  0  0  0
  7  8  1  0  0  0  0
  7 12  1  0  0  0  0
  8  9  1  0  0  0  0
  8 11  1  0  0  0  0
  8 13  1  0  0  0  0
  9 10  2  0  0  0  0
  9 17  1  0  0  0  0
 11 14  1  0  0  0  0
 11 15  1  0  0  0  0
 11 16  1  0  0  0  0
 17 18  1  0  0  0  0
 17 21  1  0  0  0  0
 18 19  1  0  0  0  0
 18 22  1  0  0  0  0
 18 23  1  0  0  0  0
 19 20  2  0  0  0  0
 19 24  1  0  0  0  0
 24 25  1  0  0  0  0
 24 29  1  0  0  0  0
 25 26  1  0  0  0  0
 25 28  1  0  0  0  0
 25 30  1  0  0  0  0
 26 27  2  0  0  0  0
 26 34  1  0  0  0  0
 28 31  1  0  0  0  0
 28 32  1  0  0  0  0
 28 33  1  0  0  0  0
 34 35  1  0  0  0  0
 34 36  1  0  0  0  0
 35 37  1  0  0  0  0
 35 38  1  0  0  0  0
 35 39  1  0  0  0  0
M  END
$$$$

  -OEChem-05262216283D

 39 38  0     1  0  0  0  0  0999 V2000
   -4.0776   -2.6611   -3.2635 C   0  0  0  0  0  0  0  0  0  0  0  0
   -3.4329   -2.8370   -4.2850 O   0  0  0  0  0  0  0  0  0  0  0  0
   -5.3033   -3.5093   -2.9815 C   0  0  0  0  0  0  0  0  0  0  0  0
   -6.1884   -2.8726   -2.9094 H   0  0  0  0  0  0  0  0  0  0  0  0
   -5.4543   -4.2334   -3.7871 H   0  0  0  0  0  0  0  0  0  0  0  0
   -5.1740   -4.0501   -2.0406 H   0  0  0  0  0  0  0  0  0  0  0  0
   -3.6927   -1.6974   -2.3564 N   0  0  0  0  0  0  0  0  0  0  0  0
   -2.4448   -0.9272   -2.4404 C   0  0  2  0  0  0  0  0  0  0  0  0
   -1.8705   -0.6430   -1.0360 C   0  0  0  0  0  0  0  0  0  0  0  0
   -2.6043   -0.6901   -0.0537 O   0  0  0  0  0  0  0  0  0  0  0  0
   -2.7419    0.3772   -3.1850 C   0  0  0  0  0  0  0  0  0  0  0  0
   -4.1891   -1.6683   -1.4667 H   0  0  0  0  0  0  0  0  0  0  0  0
   -1.6898   -1.4947   -2.9956 H   0  0  0  0  0  0  0  0  0  0  0  0
   -3.4875    0.9672   -2.6430 H   0  0  0  0  0  0  0  0  0  0  0  0
   -1.8329    0.9751   -3.2914 H   0  0  0  0  0  0  0  0  0  0  0  0
   -3.1278    0.1609   -4.1863 H   0  0  0  0  0  0  0  0  0  0  0  0
   -0.5355   -0.3316   -0.8628 N   0  0  0  0  0  0  0  0  0  0  0  0
    0.0724    0.0525    0.4255 C   0  0  0  0  0  0  0  0  0  0  0  0
    0.9879    1.2598    0.2298 C   0  0  0  0  0  0  0  0  0  0  0  0
    2.2011    1.1126    0.2597 O   0  0  0  0  0  0  0  0  0  0  0  0
    0.0000   -0.1369   -1.7157 H   0  0  0  0  0  0  0  0  0  0  0  0
    0.6547   -0.7836    0.8245 H   0  0  0  0  0  0  0  0  0  0  0  0
   -0.6863    0.3125    1.1697 H   0  0  0  0  0  0  0  0  0  0  0  0
    0.4224    2.4248   -0.2607 N   0  0  0  0  0  0  0  0  0  0  0  0
    1.1044    3.2290   -1.2907 C   0  0  2  0  0  0  0  0  0  0  0  0
    1.5028    2.3621   -2.5157 C   0  0  0  0  0  0  0  0  0  0  0  0
    0.7409    1.4746   -2.8956 O   0  0  0  0  0  0  0  0  0  0  0  0
    2.2719    4.0294   -0.6883 C   0  0  0  0  0  0  0  0  0  0  0  0
   -0.5868    2.3524   -0.3635 H   0  0  0  0  0  0  0  0  0  0  0  0
    0.3839    3.9628   -1.6640 H   0  0  0  0  0  0  0  0  0  0  0  0
    3.1055    3.3767   -0.4132 H   0  0  0  0  0  0  0  0  0  0  0  0
    2.6368    4.7688   -1.4074 H   0  0  0  0  0  0  0  0  0  0  0  0
    1.9395    4.5600    0.2093 H   0  0  0  0  0  0  0  0  0  0  0  0
    2.6826    2.5718   -3.2059 N   0  0  0  0  0  0  0  0  0  0  0  0
    3.1393    1.6907   -4.2743 C   0  0  0  0  0  0  0  0  0  0  0  0
    3.3575    3.1949   -2.7720 H   0  0  0  0  0  0  0  0  0  0  0  0
    3.3076    0.6793   -3.8895 H   0  0  0  0  0  0  0  0  0  0  0  0
    2.3966    1.6433   -5.0778 H   0  0  0  0  0  0  0  0  0  0  0  0
    4.0780    2.0616   -4.6969 H   0  0  0  0  0  0  0  0  0  0  0  0
  1  2  2  0  0  0  0
  1  3  1  0  0  0  0
  1  7  1  0  0  0  0
  3  4  1  0  0  0  0
  3  5  1  0  0  0  0
  3  6  1  0  0  0  0
  7  8  1  0  0  0  0
  7 12  1  0  0  0  0
  8  9  1  0  0  0  0
  8 11  1  0  0  0  0
  8 13  1  0  0  0  0
  9 10  2  0  0  0  0
  9 17  1  0  0  0  0
 11 14  1  0  0  0  0
 11 15  1  0  0  0  0
 11 16  1  0  0  0  0
 17 18  1  0  0  0  0
 17 21  1  0  0  0  0
 18 19  1  0  0  0  0
 18 22  1  0  0  0  0
 18 23  1  0  0  0  0
 19 20  2  0  0  0  0
 19 24  1  0  0  0  0
 24 25  1  0  0  0  0
 24 29  1  0  0  0  0
 25 26  1  0  0  0  0
 25 28  1  0  0  0  0
 25 30  1  0  0  0  0
 26 27  2  0  0  0  0
 26 34  1  0  0  0  0
 28 31  1  0  0  0  0
 28 32  1  0  0  0  0
 28 33  1  0  0  0  0
 34 35  1  0  0  0  0
 34 36  1  0  0  0  0
 35 37  1  0  0  0  0
 35 38  1  0  0  0  0
 35 39  1  0  0  0  0
M  END
$$$$

  -OEChem-05262216283D

 39 38  0     1  0  0  0  0  0999 V2000
   -3.9969   -2.5592   -3.3322 C   0  0  0  0  0  0  0  0  0  0  0  0
   -3.3094   -2.6573   -4.3359 O   0  0  0  0  0  0  0  0  0  0  0  0
   -5.1760   -3.4909   -3.1255 C   0  0  0  0  0  0  0  0  0  0  0  0
   -6.1008   -2.9126   -3.0634 H   0  0  0  0  0  0  0  0  0  0  0  0
   -5.2534   -4.1918   -3.9614 H   0  0  0  0  0  0  0  0  0  0  0  0
   -5.0459   -4.0587   -2.2011 H   0  0  0  0  0  0  0  0  0  0  0  0
   -3.7040   -1.6061   -2.3801 N   0  0  0  0  0  0  0  0  0  0  0  0
   -2.5134   -0.7463   -2.4014 C   0  0  2  0  0  0  0  0  0  0  0  0
   -1.9649   -0.5179   -0.9770 C   0  0  0  0  0  0  0  0  0  0  0  0
   -2.7245   -0.5616   -0.0140 O   0  0  0  0  0  0  0  0  0  0  0  0
   -2.9038    0.5800   -3.0582 C   0  0  0  0  0  0  0  0  0  0  0  0
   -4.2396   -1.6279   -1.5137 H   0  0  0  0  0  0  0  0  0  0  0  0
   -1.7176   -1.2181   -2.9885 H   0  0  0  0  0  0  0  0  0  0  0  0
   -3.6982    1.0719   -2.4885 H   0  0  0  0  0  0  0  0  0  0  0  0
   -2.0440    1.2528   -3.1088 H   0  0  0  0  0  0  0  0  0  0  0  0
   -3.2618    0.4041   -4.0774 H   0  0  0  0  0  0  0  0  0  0  0  0
   -0.6211   -0.2756   -0.7658 N   0  0  0  0  0  0  0  0  0  0  0  0
   -0.0440    0.1055    0.5356 C   0  0  0  0  0  0  0  0  0  0  0  0
    0.9401    1.2568    0.3397 C   0  0  0  0  0  0  0  0  0  0  0  0
    2.1263    1.0148    0.1670 O   0  0  0  0  0  0  0  0  0  0  0  0
   -0.0704   -0.0603   -1.6015 H   0  0  0  0  0  0  0  0  0  0  0  0
    0.4814   -0.7484    0.9741 H   0  0  0  0  0  0  0  0  0  0  0  0
   -0.8141    0.4200    1.2461 H   0  0  0  0  0  0  0  0  0  0  0  0
    0.4293    2.5219    0.1036 N   0  0  0  0  0  0  0  0  0  0  0  0
    1.0652    3.4308   -0.8682 C   0  0  2  0  0  0  0  0  0  0  0  0
    1.2744    2.7489   -2.2487 C   0  0  0  0  0  0  0  0  0  0  0  0
    0.4468    1.9356   -2.6542 O   0  0  0  0  0  0  0  0  0  0  0  0
    2.3488    4.0459   -0.2846 C   0  0  0  0  0  0  0  0  0  0  0  0
   -0.5872    2.5471    0.1257 H   0  0  0  0  0  0  0  0  0  0  0  0
    0.3718    4.2587   -1.0432 H   0  0  0  0  0  0  0  0  0  0  0  0
    3.1526    3.3063   -0.2227 H   0  0  0  0  0  0  0  0  0  0  0  0
    2.6918    4.8757   -0.9097 H   0  0  0  0  0  0  0  0  0  0  0  0
    2.1575    4.4319    0.7214 H   0  0  0  0  0  0  0  0  0  0  0  0
    2.3529    3.0600   -3.0567 N   0  0  0  0  0  0  0  0  0  0  0  0
    2.6378    2.3544   -4.3007 C   0  0  0  0  0  0  0  0  0  0  0  0
    3.0932    3.6121   -2.6341 H   0  0  0  0  0  0  0  0  0  0  0  0
    2.8489    1.2984   -4.1012 H   0  0  0  0  0  0  0  0  0  0  0  0
    1.7853    2.4199   -4.9854 H   0  0  0  0  0  0  0  0  0  0  0  0
    3.5086    2.7957   -4.7950 H   0  0  0  0  0  0  0  0  0  0  0  0
  1  2  2  0  0  0  0
  1  3  1  0  0  0  0
  1  7  1  0  0  0  0
  3  4  1  0  0  0  0
  3  5  1  0  0  0  0
  3  6  1  0  0  0  0
  7  8  1  0  0  0  0
  7 12  1  0  0  0  0
  8  9  1  0  0  0  0
  8 11  1  0  0  0  0
  8 13  1  0  0  0  0
  9 10  2  0  0  0  0
  9 17  1  0  0  0  0
 11 14  1  0  0  0  0
 11 15  1  0  0  0  0
 11 16  1  0  0  0  0
 17 18  1  0  0  0  0
 17 21  1  0  0  0  0
 18 19  1  0  0  0  0
 18 22  1  0  0  0  0
 18 23  1  0  0  0  0
 19 20  2  0  0  0  0
 19 24  1  0  0  0  0
 24 25  1  0  0  0  0
 24 29  1  0  0  0  0
 25 26  1  0  0  0  0
 25 28  1  0  0  0  0
 25 30  1  0  0  0  0
 26 27  2  0  0  0  0
 26 34  1  0  0  0  0
 28 31  1  0  0  0  0
 28 32  1  0  0  0  0
 28 33  1  0  0  0  0
 34 35  1  0  0  0  0
 34 36  1  0  0  0  0
 35 37  1  0  0  0  0
 35 38  1  0  0  0  0
 35 39  1  0  0  0  0
M  END
$$$$

  -OEChem-05262216283D

 39 38  0     1  0  0  0  0  0999 V2000
   -4.2878   -3.5423   -2.3844 C   0  0  0  0  0  0  0  0  0  0  0  0
   -3.5620   -4.5100   -2.2189 O   0  0  0  0  0  0  0  0  0  0  0  0
   -5.7440   -3.7371   -2.7627 C   0  0  0  0  0  0  0  0  0  0  0  0
   -5.9492   -3.2491   -3.7185 H   0  0  0  0  0  0  0  0  0  0  0  0
   -5.9690   -4.8031   -2.8566 H   0  0  0  0  0  0  0  0  0  0  0  0
   -6.3913   -3.3058   -1.9952 H   0  0  0  0  0  0  0  0  0  0  0  0
   -3.7845   -2.2687   -2.2256 N   0  0  0  0  0  0  0  0  0  0  0  0
   -2.4300   -1.9636   -1.7463 C   0  0  2  0  0  0  0  0  0  0  0  0
   -2.3788   -0.6103   -1.0048 C   0  0  0  0  0  0  0  0  0  0  0  0
   -3.3357    0.1548   -1.0512 O   0  0  0  0  0  0  0  0  0  0  0  0
   -1.4800   -1.9540   -2.9491 C   0  0  0  0  0  0  0  0  0  0  0  0
   -4.4464   -1.4938   -2.2573 H   0  0  0  0  0  0  0  0  0  0  0  0
   -2.1087   -2.7357   -1.0388 H   0  0  0  0  0  0  0  0  0  0  0  0
   -1.7722   -1.1756   -3.6610 H   0  0  0  0  0  0  0  0  0  0  0  0
   -0.4518   -1.7643   -2.6270 H   0  0  0  0  0  0  0  0  0  0  0  0
   -1.5057   -2.9212   -3.4612 H   0  0  0  0  0  0  0  0  0  0  0  0
   -1.2517   -0.2433   -0.2927 N   0  0  0  0  0  0  0  0  0  0  0  0
   -1.0982    1.0192    0.4493 C   0  0  0  0  0  0  0  0  0  0  0  0
    0.2653    1.6630    0.1855 C   0  0  0  0  0  0  0  0  0  0  0  0
    1.2401    1.3033    0.8307 O   0  0  0  0  0  0  0  0  0  0  0  0
   -0.4817   -0.9088   -0.2626 H   0  0  0  0  0  0  0  0  0  0  0  0
   -1.1974    0.8285    1.5219 H   0  0  0  0  0  0  0  0  0  0  0  0
   -1.8756    1.7395    0.1760 H   0  0  0  0  0  0  0  0  0  0  0  0
    0.4274    2.5548   -0.8559 N   0  0  0  0  0  0  0  0  0  0  0  0
    1.6841    3.2387   -1.1849 C   0  0  2  0  0  0  0  0  0  0  0  0
    1.4280    4.6054   -1.8548 C   0  0  0  0  0  0  0  0  0  0  0  0
    0.3137    4.8788   -2.2872 O   0  0  0  0  0  0  0  0  0  0  0  0
    2.4995    2.3329   -2.1134 C   0  0  0  0  0  0  0  0  0  0  0  0
   -0.4118    2.8720   -1.3428 H   0  0  0  0  0  0  0  0  0  0  0  0
    2.2523    3.4233   -0.2669 H   0  0  0  0  0  0  0  0  0  0  0  0
    1.9547    2.1524   -3.0458 H   0  0  0  0  0  0  0  0  0  0  0  0
    3.4611    2.7952   -2.3550 H   0  0  0  0  0  0  0  0  0  0  0  0
    2.6935    1.3698   -1.6309 H   0  0  0  0  0  0  0  0  0  0  0  0
    2.4469    5.5327   -1.9742 N   0  0  0  0  0  0  0  0  0  0  0  0
    2.2724    6.8348   -2.6070 C   0  0  0  0  0  0  0  0  0  0  0  0
    3.3578    5.2849   -1.5987 H   0  0  0  0  0  0  0  0  0  0  0  0
    1.9703    6.7146   -3.6527 H   0  0  0  0  0  0  0  0  0  0  0  0
    1.5058    7.4163   -2.0842 H   0  0  0  0  0  0  0  0  0  0  0  0
    3.2103    7.3977   -2.5805 H   0  0  0  0  0  0  0  0  0  0  0  0
  1  2  2  0  0  0  0
  1  3  1  0  0  0  0
  1  7  1  0  0  0  0
  3  4  1  0  0  0  0
  3  5  1  0  0  0  0
  3  6  1  0  0  0  0
  7  8  1  0  0  0  0
  7 12  1  0  0  0  0
  8  9  1  0  0  0  0
  8 11  1  0  0  0  0
  8 13  1  0  0  0  0
  9 10  2  0  0  0  0
  9 17  1  0  0  0  0
 11 14  1  0  0  0  0
 11 15  1  0  0  0  0
 11 16  1  0  0  0  0
 17 18  1  0  0  0  0
 17 21  1  0  0  0  0
 18 19  1  0  0  0  0
 18 22  1  0  0  0  0
 18 23  1  0  0  0  0
 19 20  2  0  0  0  0
 19 24  1  0  0  0  0
 24 25  1  0  0  0  0
 24 29  1  0  0  0  0
 25 26  1  0  0  0  0
 25 28  1  0  0  0  0
 25 30  1  0  0  0  0
 26 27  2  0  0  0  0
 26 34  1  0  0  0  0
 28 31  1  0  0  0  0
 28 32  1  0  0  0  0
 28 33  1  0  0  0  0
 34 35  1  0  0  0  0
 34 36  1  0  0  0  0
 35 37  1  0  0  0  0
 35 38  1  0  0  0  0
 35 39  1  0  0  0  0
M  END
$$$$

  -OEChem-05262216283D

 39 38  0     1  0  0  0  0  0999 V2000
   -4.2193   -3.5935   -2.4605 C   0  0  0  0  0  0  0  0  0  0  0  0
   -3.4570   -4.5421   -2.3639 O   0  0  0  0  0  0  0  0  0  0  0  0
   -5.6803   -3.8207   -2.8003 C   0  0  0  0  0  0  0  0  0  0  0  0
   -5.9357   -3.2890   -3.7203 H   0  0  0  0  0  0  0  0  0  0  0  0
   -5.8732   -4.8877   -2.9450 H   0  0  0  0  0  0  0  0  0  0  0  0
   -6.3131   -3.4547   -1.9880 H   0  0  0  0  0  0  0  0  0  0  0  0
   -3.7550   -2.3116   -2.2562 N   0  0  0  0  0  0  0  0  0  0  0  0
   -2.3990   -1.9818   -1.7997 C   0  0  2  0  0  0  0  0  0  0  0  0
   -2.3767   -0.6703   -0.9858 C   0  0  0  0  0  0  0  0  0  0  0  0
   -3.3616    0.0601   -0.9652 O   0  0  0  0  0  0  0  0  0  0  0  0
   -1.4889   -1.8681   -3.0274 C   0  0  0  0  0  0  0  0  0  0  0  0
   -4.4453   -1.5620   -2.2226 H   0  0  0  0  0  0  0  0  0  0  0  0
   -2.0270   -2.7785   -1.1463 H   0  0  0  0  0  0  0  0  0  0  0  0
   -1.8343   -1.0657   -3.6872 H   0  0  0  0  0  0  0  0  0  0  0  0
   -0.4599   -1.6518   -2.7257 H   0  0  0  0  0  0  0  0  0  0  0  0
   -1.4915   -2.8076   -3.5897 H   0  0  0  0  0  0  0  0  0  0  0  0
   -1.2436   -0.2984   -0.2869 N   0  0  0  0  0  0  0  0  0  0  0  0
   -1.0959    0.9502    0.4774 C   0  0  0  0  0  0  0  0  0  0  0  0
    0.2548    1.6139    0.1960 C   0  0  0  0  0  0  0  0  0  0  0  0
    1.2827    1.0652    0.5700 O   0  0  0  0  0  0  0  0  0  0  0  0
   -0.4359   -0.9169   -0.3383 H   0  0  0  0  0  0  0  0  0  0  0  0
   -1.1700    0.7398    1.5483 H   0  0  0  0  0  0  0  0  0  0  0  0
   -1.8896    1.6621    0.2300 H   0  0  0  0  0  0  0  0  0  0  0  0
    0.3347    2.7344   -0.6066 N   0  0  0  0  0  0  0  0  0  0  0  0
    1.5795    3.4381   -0.9393 C   0  0  2  0  0  0  0  0  0  0  0  0
    1.3402    4.9482   -1.1489 C   0  0  0  0  0  0  0  0  0  0  0  0
    0.2005    5.3759   -1.2953 O   0  0  0  0  0  0  0  0  0  0  0  0
    2.1637    2.8062   -2.2064 C   0  0  0  0  0  0  0  0  0  0  0  0
   -0.5381    3.1943   -0.8675 H   0  0  0  0  0  0  0  0  0  0  0  0
    2.2949    3.3304   -0.1170 H   0  0  0  0  0  0  0  0  0  0  0  0
    1.4641    2.9115   -3.0421 H   0  0  0  0  0  0  0  0  0  0  0  0
    3.1074    3.2883   -2.4782 H   0  0  0  0  0  0  0  0  0  0  0  0
    2.3563    1.7408   -2.0448 H   0  0  0  0  0  0  0  0  0  0  0  0
    2.4039    5.8317   -1.1648 N   0  0  0  0  0  0  0  0  0  0  0  0
    2.2474    7.2704   -1.3432 C   0  0  0  0  0  0  0  0  0  0  0  0
    3.3358    5.4503   -1.0305 H   0  0  0  0  0  0  0  0  0  0  0  0
    1.7992    7.4893   -2.3181 H   0  0  0  0  0  0  0  0  0  0  0  0
    1.6066    7.6872   -0.5589 H   0  0  0  0  0  0  0  0  0  0  0  0
    3.2215    7.7662   -1.2918 H   0  0  0  0  0  0  0  0  0  0  0  0
  1  2  2  0  0  0  0
  1  3  1  0  0  0  0
  1  7  1  0  0  0  0
  3  4  1  0  0  0  0
  3  5  1  0  0  0  0
  3  6  1  0  0  0  0
  7  8  1  0  0  0  0
  7 12  1  0  0  0  0
  8  9  1  0  0  0  0
  8 11  1  0  0  0  0
  8 13  1  0  0  0  0
  9 10  2  0  0  0  0
  9 17  1  0  0  0  0
 11 14  1  0  0  0  0
 11 15  1  0  0  0  0
 11 16  1  0  0  0  0
 17 18  1  0  0  0  0
 17 21  1  0  0  0  0
 18 19  1  0  0  0  0
 18 22  1  0  0  0  0
 18 23  1  0  0  0  0
 19 20  2  0  0  0  0
 19 24  1  0  0  0  0
 24 25  1  0  0  0  0
 24 29  1  0  0  0  0
 25 26  1  0  0  0  0
 25 28  1  0  0  0  0
 25 30  1  0  0  0  0
 26 27  2  0  0  0  0
 26 34  1  0  0  0  0
 28 31  1  0  0  0  0
 28 32  1  0  0  0  0
 28 33  1  0  0  0  0
 34 35  1  0  0  0  0
 34 36  1  0  0  0  0
 35 37  1  0  0  0  0
 35 38  1  0  0  0  0
 35 39  1  0  0  0  0
M  END
$$$$

  -OEChem-05262216283D

 39 38  0     1  0  0  0  0  0999 V2000
   -4.2098   -3.6264   -2.5135 C   0  0  0  0  0  0  0  0  0  0  0  0
   -3.4488   -4.5762   -2.4178 O   0  0  0  0  0  0  0  0  0  0  0  0
   -5.6727   -3.8518   -2.8442 C   0  0  0  0  0  0  0  0  0  0  0  0
   -5.9326   -3.3216   -3.7635 H   0  0  0  0  0  0  0  0  0  0  0  0
   -5.8675   -4.9186   -2.9847 H   0  0  0  0  0  0  0  0  0  0  0  0
   -6.3003   -3.4834   -2.0294 H   0  0  0  0  0  0  0  0  0  0  0  0
   -3.7437   -2.3449   -2.3122 N   0  0  0  0  0  0  0  0  0  0  0  0
   -2.3911   -2.0182   -1.8419 C   0  0  2  0  0  0  0  0  0  0  0  0
   -2.3741   -0.7069   -1.0272 C   0  0  0  0  0  0  0  0  0  0  0  0
   -3.3697    0.0085   -0.9894 O   0  0  0  0  0  0  0  0  0  0  0  0
   -1.4669   -1.9106   -3.0595 C   0  0  0  0  0  0  0  0  0  0  0  0
   -4.4344   -1.5956   -2.2773 H   0  0  0  0  0  0  0  0  0  0  0  0
   -2.0285   -2.8149   -1.1831 H   0  0  0  0  0  0  0  0  0  0  0  0
   -1.8041   -1.1101   -3.7257 H   0  0  0  0  0  0  0  0  0  0  0  0
   -0.4401   -1.6965   -2.7477 H   0  0  0  0  0  0  0  0  0  0  0  0
   -1.4652   -2.8519   -3.6184 H   0  0  0  0  0  0  0  0  0  0  0  0
   -1.2413   -0.3276   -0.3319 N   0  0  0  0  0  0  0  0  0  0  0  0
   -1.0992    0.9199    0.4348 C   0  0  0  0  0  0  0  0  0  0  0  0
    0.2451    1.5983    0.1530 C   0  0  0  0  0  0  0  0  0  0  0  0
    1.2789    0.9548    0.2817 O   0  0  0  0  0  0  0  0  0  0  0  0
   -0.4145   -0.9163   -0.4224 H   0  0  0  0  0  0  0  0  0  0  0  0
   -1.1688    0.7057    1.5050 H   0  0  0  0  0  0  0  0  0  0  0  0
   -1.9003    1.6235    0.1893 H   0  0  0  0  0  0  0  0  0  0  0  0
    0.2994    2.8733   -0.3744 N   0  0  0  0  0  0  0  0  0  0  0  0
    1.5401    3.6131   -0.6382 C   0  0  2  0  0  0  0  0  0  0  0  0
    1.3591    5.1275   -0.4018 C   0  0  0  0  0  0  0  0  0  0  0  0
    0.2335    5.6047   -0.3072 O   0  0  0  0  0  0  0  0  0  0  0  0
    1.9631    3.3400   -2.0847 C   0  0  0  0  0  0  0  0  0  0  0  0
   -0.5691    3.4076   -0.4123 H   0  0  0  0  0  0  0  0  0  0  0  0
    2.3284    3.2687    0.0398 H   0  0  0  0  0  0  0  0  0  0  0  0
    1.1924    3.6876   -2.7802 H   0  0  0  0  0  0  0  0  0  0  0  0
    2.8996    3.8561   -2.3158 H   0  0  0  0  0  0  0  0  0  0  0  0
    2.1140    2.2668   -2.2397 H   0  0  0  0  0  0  0  0  0  0  0  0
    2.4602    5.9560   -0.2861 N   0  0  0  0  0  0  0  0  0  0  0  0
    2.3615    7.3915   -0.0511 C   0  0  0  0  0  0  0  0  0  0  0  0
    3.3801    5.5301   -0.3525 H   0  0  0  0  0  0  0  0  0  0  0  0
    1.8293    7.8791   -0.8745 H   0  0  0  0  0  0  0  0  0  0  0  0
    1.8254    7.5916    0.8827 H   0  0  0  0  0  0  0  0  0  0  0  0
    3.3601    7.8326    0.0230 H   0  0  0  0  0  0  0  0  0  0  0  0
  1  2  2  0  0  0  0
  1  3  1  0  0  0  0
  1  7  1  0  0  0  0
  3  4  1  0  0  0  0
  3  5  1  0  0  0  0
  3  6  1  0  0  0  0
  7  8  1  0  0  0  0
  7 12  1  0  0  0  0
  8  9  1  0  0  0  0
  8 11  1  0  0  0  0
  8 13  1  0  0  0  0
  9 10  2  0  0  0  0
  9 17  1  0  0  0  0
 11 14  1  0  0  0  0
 11 15  1  0  0  0  0
 11 16  1  0  0  0  0
 17 18  1  0  0  0  0
 17 21  1  0  0  0  0
 18 19  1  0  0  0  0
 18 22  1  0  0  0  0
 18 23  1  0  0  0  0
 19 20  2  0  0  0  0
 19 24  1  0  0  0  0
 24 25  1  0  0  0  0
 24 29  1  0  0  0  0
 25 26  1  0  0  0  0
 25 28  1  0  0  0  0
 25 30  1  0  0  0  0
 26 27  2  0  0  0  0
 26 34  1  0  0  0  0
 28 31  1  0  0  0  0
 28 32  1  0  0  0  0
 28 33  1  0  0  0  0
 34 35  1  0  0  0  0
 34 36  1  0  0  0  0
 35 37  1  0  0  0  0
 35 38  1  0  0  0  0
 35 39  1  0  0  0  0
M  END
$$$$

  -OEChem-05262216283D

 39 38  0     1  0  0  0  0  0999 V2000
   -4.1204   -3.6214   -2.6461 C   0  0  0  0  0  0  0  0  0  0  0  0
   -3.3060   -4.5305   -2.6168 O   0  0  0  0  0  0  0  0  0  0  0  0
   -5.5686   -3.9083   -2.9951 C   0  0  0  0  0  0  0  0  0  0  0  0
   -5.8576   -3.3400   -3.8823 H   0  0  0  0  0  0  0  0  0  0  0  0
   -5.7030   -4.9740   -3.2004 H   0  0  0  0  0  0  0  0  0  0  0  0
   -6.2165   -3.6257   -2.1619 H   0  0  0  0  0  0  0  0  0  0  0  0
   -3.7255   -2.3325   -2.3569 N   0  0  0  0  0  0  0  0  0  0  0  0
   -2.3870   -1.9634   -1.8778 C   0  0  2  0  0  0  0  0  0  0  0  0
   -2.4273   -0.7067   -0.9821 C   0  0  0  0  0  0  0  0  0  0  0  0
   -3.4456   -0.0260   -0.9156 O   0  0  0  0  0  0  0  0  0  0  0  0
   -1.4838   -1.7271   -3.0930 C   0  0  0  0  0  0  0  0  0  0  0  0
   -4.4541   -1.6241   -2.2742 H   0  0  0  0  0  0  0  0  0  0  0  0
   -1.9744   -2.7796   -1.2745 H   0  0  0  0  0  0  0  0  0  0  0  0
   -1.8698   -0.9033   -3.7017 H   0  0  0  0  0  0  0  0  0  0  0  0
   -0.4666   -1.4796   -2.7748 H   0  0  0  0  0  0  0  0  0  0  0  0
   -1.4391   -2.6276   -3.7136 H   0  0  0  0  0  0  0  0  0  0  0  0
   -1.3115   -0.3327   -0.2579 N   0  0  0  0  0  0  0  0  0  0  0  0
   -1.1785    0.9215    0.4994 C   0  0  0  0  0  0  0  0  0  0  0  0
    0.1833    1.5801    0.2482 C   0  0  0  0  0  0  0  0  0  0  0  0
    1.1827    0.8779    0.1487 O   0  0  0  0  0  0  0  0  0  0  0  0
   -0.4584   -0.8709   -0.4067 H   0  0  0  0  0  0  0  0  0  0  0  0
   -1.2851    0.7240    1.5696 H   0  0  0  0  0  0  0  0  0  0  0  0
   -1.9613    1.6310    0.2145 H   0  0  0  0  0  0  0  0  0  0  0  0
    0.2797    2.9357    0.0044 N   0  0  0  0  0  0  0  0  0  0  0  0
    1.5410    3.6536   -0.2205 C   0  0  2  0  0  0  0  0  0  0  0  0
    1.4811    5.0967    0.3238 C   0  0  0  0  0  0  0  0  0  0  0  0
    0.4050    5.5879    0.6467 O   0  0  0  0  0  0  0  0  0  0  0  0
    1.8276    3.6554   -1.7248 C   0  0  0  0  0  0  0  0  0  0  0  0
   -0.5496    3.5071    0.1678 H   0  0  0  0  0  0  0  0  0  0  0  0
    2.3565    3.1424    0.3023 H   0  0  0  0  0  0  0  0  0  0  0  0
    1.0307    4.1768   -2.2650 H   0  0  0  0  0  0  0  0  0  0  0  0
    2.7775    4.1554   -1.9354 H   0  0  0  0  0  0  0  0  0  0  0  0
    1.8890    2.6287   -2.0996 H   0  0  0  0  0  0  0  0  0  0  0  0
    2.6372    5.8426    0.4630 N   0  0  0  0  0  0  0  0  0  0  0  0
    2.6544    7.2070    0.9771 C   0  0  0  0  0  0  0  0  0  0  0  0
    3.5155    5.4043    0.2012 H   0  0  0  0  0  0  0  0  0  0  0  0
    2.0380    7.8610    0.3512 H   0  0  0  0  0  0  0  0  0  0  0  0
    2.2699    7.2356    2.0020 H   0  0  0  0  0  0  0  0  0  0  0  0
    3.6771    7.5965    0.9802 H   0  0  0  0  0  0  0  0  0  0  0  0
  1  2  2  0  0  0  0
  1  3  1  0  0  0  0
  1  7  1  0  0  0  0
  3  4  1  0  0  0  0
  3  5  1  0  0  0  0
  3  6  1  0  0  0  0
  7  8  1  0  0  0  0
  7 12  1  0  0  0  0
  8  9  1  0  0  0  0
  8 11  1  0  0  0  0
  8 13  1  0  0  0  0
  9 10  2  0  0  0  0
  9 17  1  0  0  0  0
 11 14  1  0  0  0  0
 11 15  1  0  0  0  0
 11 16  1  0  0  0  0
 17 18  1  0  0  0  0
 17 21  1  0  0  0  0
 18 19  1  0  0  0  0
 18 22  1  0  0  0  0
 18 23  1  0  0  0  0
 19 20  2  0  0  0  0
 19 24  1  0  0  0  0
 24 25  1  0  0  0  0
 24 29  1  0  0  0  0
 25 26  1  0  0  0  0
 25 28  1  0  0  0  0
 25 30  1  0  0  0  0
 26 27  2  0  0  0  0
 26 34  1  0  0  0  0
 28 31  1  0  0  0  0
 28 32  1  0  0  0  0
 28 33  1  0  0  0  0
 34 35  1  0  0  0  0
 34 36  1  0  0  0  0
 35 37  1  0  0  0  0
 35 38  1  0  0  0  0
 35 39  1  0  0  0  0
M  END
$$$$

  -OEChem-05262216283D

 39 38  0     1  0  0  0  0  0999 V2000
   -4.1380   -3.6125   -2.6252 C   0  0  0  0  0  0  0  0  0  0  0  0
   -3.3452   -4.5335   -2.5092 O   0  0  0  0  0  0  0  0  0  0  0  0
   -5.5918   -3.8974   -2.9526 C   0  0  0  0  0  0  0  0  0  0  0  0
   -5.8276   -3.5245   -3.9522 H   0  0  0  0  0  0  0  0  0  0  0  0
   -5.7808   -4.9742   -2.9232 H   0  0  0  0  0  0  0  0  0  0  0  0
   -6.2430   -3.4070   -2.2249 H   0  0  0  0  0  0  0  0  0  0  0  0
   -3.7169   -2.3109   -2.4537 N   0  0  0  0  0  0  0  0  0  0  0  0
   -2.3819   -1.9305   -1.9734 C   0  0  2  0  0  0  0  0  0  0  0  0
   -2.4348   -0.6676   -1.0880 C   0  0  0  0  0  0  0  0  0  0  0  0
   -3.4450    0.0279   -1.0620 O   0  0  0  0  0  0  0  0  0  0  0  0
   -1.4797   -1.7002   -3.1897 C   0  0  0  0  0  0  0  0  0  0  0  0
   -4.4361   -1.5891   -2.4230 H   0  0  0  0  0  0  0  0  0  0  0  0
   -1.9629   -2.7373   -1.3621 H   0  0  0  0  0  0  0  0  0  0  0  0
   -1.8757   -0.8916   -3.8124 H   0  0  0  0  0  0  0  0  0  0  0  0
   -0.4665   -1.4330   -2.8737 H   0  0  0  0  0  0  0  0  0  0  0  0
   -1.4223   -2.6107   -3.7949 H   0  0  0  0  0  0  0  0  0  0  0  0
   -1.3448   -0.3106   -0.3173 N   0  0  0  0  0  0  0  0  0  0  0  0
   -1.2151    0.9611    0.4116 C   0  0  0  0  0  0  0  0  0  0  0  0
    0.1752    1.5825    0.2219 C   0  0  0  0  0  0  0  0  0  0  0  0
    1.1353    0.8600   -0.0224 O   0  0  0  0  0  0  0  0  0  0  0  0
   -0.4863   -0.8435   -0.4570 H   0  0  0  0  0  0  0  0  0  0  0  0
   -1.3880    0.7953    1.4786 H   0  0  0  0  0  0  0  0  0  0  0  0
   -1.9598    1.6837    0.0629 H   0  0  0  0  0  0  0  0  0  0  0  0
    0.3478    2.9519    0.2569 N   0  0  0  0  0  0  0  0  0  0  0  0
    1.6488    3.6271    0.1712 C   0  0  2  0  0  0  0  0  0  0  0  0
    1.6643    4.9343    0.9905 C   0  0  0  0  0  0  0  0  0  0  0  0
    0.6144    5.4124    1.4069 O   0  0  0  0  0  0  0  0  0  0  0  0
    1.9489    3.9101   -1.3038 C   0  0  0  0  0  0  0  0  0  0  0  0
   -0.4438    3.5232    0.5540 H   0  0  0  0  0  0  0  0  0  0  0  0
    2.4303    2.9779    0.5807 H   0  0  0  0  0  0  0  0  0  0  0  0
    1.1832    4.5649   -1.7324 H   0  0  0  0  0  0  0  0  0  0  0  0
    2.9235    4.3955   -1.4118 H   0  0  0  0  0  0  0  0  0  0  0  0
    1.9652    2.9747   -1.8724 H   0  0  0  0  0  0  0  0  0  0  0  0
    2.8604    5.5660    1.2768 N   0  0  0  0  0  0  0  0  0  0  0  0
    2.9504    6.7891    2.0648 C   0  0  0  0  0  0  0  0  0  0  0  0
    3.7150    5.1372    0.9331 H   0  0  0  0  0  0  0  0  0  0  0  0
    2.3888    7.5970    1.5839 H   0  0  0  0  0  0  0  0  0  0  0  0
    2.5461    6.6279    3.0698 H   0  0  0  0  0  0  0  0  0  0  0  0
    3.9948    7.1024    2.1584 H   0  0  0  0  0  0  0  0  0  0  0  0
  1  2  2  0  0  0  0
  1  3  1  0  0  0  0
  1  7  1  0  0  0  0
  3  4  1  0  0  0  0
  3  5  1  0  0  0  0
  3  6  1  0  0  0  0
  7  8  1  0  0  0  0
  7 12  1  0  0  0  0
  8  9  1  0  0  0  0
  8 11  1  0  0  0  0
  8 13  1  0  0  0  0
  9 10  2  0  0  0  0
  9 17  1  0  0  0  0
 11 14  1  0  0  0  0
 11 15  1  0  0  0  0
 11 16  1  0  0  0  0
 17 18  1  0  0  0  0
 17 21  1  0  0  0  0
 18 19  1  0  0  0  0
 18 22  1  0  0  0  0
 18 23  1  0  0  0  0
 19 20  2  0  0  0  0
 19 24  1  0  0  0  0
 24 25  1  0  0  0  0
 24 29  1  0  0  0  0
 25 26  1  0  0  0  0
 25 28  1  0  0  0  0
 25 30  1  0  0  0  0
 26 27  2  0  0  0  0
 26 34  1  0  0  0  0
 28 31  1  0  0  0  0
 28 32  1  0  0  0  0
 28 33  1  0  0  0  0
 34 35  1  0  0  0  0
 34 36  1  0  0  0  0
 35 37  1  0  0  0  0
 35 38  1  0  0  0  0
 35 39  1  0  0  0  0
M  END
$$$$

  -OEChem-05262216283D

 39 38  0     1  0  0  0  0  0999 V2000
   -4.1597   -3.5759   -2.6473 C   0  0  0  0  0  0  0  0  0  0  0  0
   -3.3743   -4.5043   -2.5387 O   0  0  0  0  0  0  0  0  0  0  0  0
   -5.6162   -3.8477   -2.9753 C   0  0  0  0  0  0  0  0  0  0  0  0
   -5.8530   -3.4603   -3.9693 H   0  0  0  0  0  0  0  0  0  0  0  0
   -5.8113   -4.9239   -2.9600 H   0  0  0  0  0  0  0  0  0  0  0  0
   -6.2627   -3.3633   -2.2391 H   0  0  0  0  0  0  0  0  0  0  0  0
   -3.7272   -2.2797   -2.4625 N   0  0  0  0  0  0  0  0  0  0  0  0
   -2.3898   -1.9159   -1.9753 C   0  0  2  0  0  0  0  0  0  0  0  0
   -2.4264   -0.6359   -1.1135 C   0  0  0  0  0  0  0  0  0  0  0  0
   -3.4298    0.0701   -1.0975 O   0  0  0  0  0  0  0  0  0  0  0  0
   -1.4679   -1.7278   -3.1840 C   0  0  0  0  0  0  0  0  0  0  0  0
   -4.4382   -1.5497   -2.4329 H   0  0  0  0  0  0  0  0  0  0  0  0
   -1.9954   -2.7198   -1.3442 H   0  0  0  0  0  0  0  0  0  0  0  0
   -1.8335   -0.9172   -3.8226 H   0  0  0  0  0  0  0  0  0  0  0  0
   -0.4516   -1.4850   -2.8587 H   0  0  0  0  0  0  0  0  0  0  0  0
   -1.4285   -2.6477   -3.7763 H   0  0  0  0  0  0  0  0  0  0  0  0
   -1.3364   -0.2833   -0.3407 N   0  0  0  0  0  0  0  0  0  0  0  0
   -1.1879    1.0105    0.3450 C   0  0  0  0  0  0  0  0  0  0  0  0
    0.2170    1.6020    0.1612 C   0  0  0  0  0  0  0  0  0  0  0  0
    1.1303    0.8947   -0.2506 O   0  0  0  0  0  0  0  0  0  0  0  0
   -0.4768   -0.8098   -0.4981 H   0  0  0  0  0  0  0  0  0  0  0  0
   -1.3833    0.8834    1.4133 H   0  0  0  0  0  0  0  0  0  0  0  0
   -1.9093    1.7374   -0.0414 H   0  0  0  0  0  0  0  0  0  0  0  0
    0.4640    2.9281    0.4567 N   0  0  0  0  0  0  0  0  0  0  0  0
    1.7992    3.5402    0.4720 C   0  0  2  0  0  0  0  0  0  0  0  0
    1.9109    4.6251    1.5641 C   0  0  0  0  0  0  0  0  0  0  0  0
    0.8998    5.0505    2.1125 O   0  0  0  0  0  0  0  0  0  0  0  0
    2.0745    4.1364   -0.9115 C   0  0  0  0  0  0  0  0  0  0  0  0
   -0.2817    3.4564    0.9106 H   0  0  0  0  0  0  0  0  0  0  0  0
    2.5540    2.7782    0.6934 H   0  0  0  0  0  0  0  0  0  0  0  0
    1.3388    4.9120   -1.1475 H   0  0  0  0  0  0  0  0  0  0  0  0
    3.0737    4.5808   -0.9464 H   0  0  0  0  0  0  0  0  0  0  0  0
    2.0175    3.3572   -1.6782 H   0  0  0  0  0  0  0  0  0  0  0  0
    3.1474    5.1108    1.9480 N   0  0  0  0  0  0  0  0  0  0  0  0
    3.3250    6.1100    2.9950 C   0  0  0  0  0  0  0  0  0  0  0  0
    3.9689    4.7230    1.4930 H   0  0  0  0  0  0  0  0  0  0  0  0
    2.7928    7.0326    2.7396 H   0  0  0  0  0  0  0  0  0  0  0  0
    2.9430    5.7358    3.9509 H   0  0  0  0  0  0  0  0  0  0  0  0
    4.3866    6.3468    3.1160 H   0  0  0  0  0  0  0  0  0  0  0  0
  1  2  2  0  0  0  0
  1  3  1  0  0  0  0
  1  7  1  0  0  0  0
  3  4  1  0  0  0  0
  3  5  1  0  0  0  0
  3  6  1  0  0  0  0
  7  8  1  0  0  0  0
  7 12  1  0  0  0  0
  8  9  1  0  0  0  0
  8 11  1  0  0  0  0
  8 13  1  0  0  0  0
  9 10  2  0  0  0  0
  9 17  1  0  0  0  0
 11 14  1  0  0  0  0
 11 15  1  0  0  0  0
 11 16  1  0  0  0  0
 17 18  1  0  0  0  0
 17 21  1  0  0  0  0
 18 19  1  0  0  0  0
 18 22  1  0  0  0  0
 18 23  1  0  0  0  0
 19 20  2  0  0  0  0
 19 24  1  0  0  0  0
 24 25  1  0  0  0  0
 24 29  1  0  0  0  0
 25 26  1  0  0  0  0
 25 28  1  0  0  0  0
 25 30  1  0  0  0  0
 26 27  2  0  0  0  0
 26 34  1  0  0  0  0
 28 31  1  0  0  0  0
 28 32  1  0  0  0  0
 28 33  1  0  0  0  0
 34 35  1  0  0  0  0
 34 36  1  0  0  0  0
 35 37  1  0  0  0  0
 35 38  1  0  0  0  0
 35 39  1  0  0  0  0
M  END
$$$$

  -OEChem-05262216283D

 39 38  0     1  0  0  0  0  0999 V2000
   -3.9775   -3.5614   -2.8438 C   0  0  0  0  0  0  0  0  0  0  0  0
   -3.1216   -4.4306   -2.7930 O   0  0  0  0  0  0  0  0  0  0  0  0
   -5.4007   -3.9180   -3.2307 C   0  0  0  0  0  0  0  0  0  0  0  0
   -5.7001   -3.3506   -4.1153 H   0  0  0  0  0  0  0  0  0  0  0  0
   -5.4742   -4.9859   -3.4555 H   0  0  0  0  0  0  0  0  0  0  0  0
   -6.0810   -3.6837   -2.4081 H   0  0  0  0  0  0  0  0  0  0  0  0
   -3.6568   -2.2567   -2.5345 N   0  0  0  0  0  0  0  0  0  0  0  0
   -2.3623   -1.8305   -1.9863 C   0  0  2  0  0  0  0  0  0  0  0  0
   -2.5160   -0.6381   -1.0186 C   0  0  0  0  0  0  0  0  0  0  0  0
   -3.5641   -0.0010   -0.9889 O   0  0  0  0  0  0  0  0  0  0  0  0
   -1.4407   -1.4618   -3.1523 C   0  0  0  0  0  0  0  0  0  0  0  0
   -4.4239   -1.5883   -2.4700 H   0  0  0  0  0  0  0  0  0  0  0  0
   -1.9131   -2.6529   -1.4191 H   0  0  0  0  0  0  0  0  0  0  0  0
   -1.8644   -0.6335   -3.7289 H   0  0  0  0  0  0  0  0  0  0  0  0
   -0.4551   -1.1615   -2.7837 H   0  0  0  0  0  0  0  0  0  0  0  0
   -1.3122   -2.3208   -3.8184 H   0  0  0  0  0  0  0  0  0  0  0  0
   -1.4799   -0.2941   -0.1700 N   0  0  0  0  0  0  0  0  0  0  0  0
   -1.4067    0.9870    0.5538 C   0  0  0  0  0  0  0  0  0  0  0  0
   -0.1533    1.7960    0.1895 C   0  0  0  0  0  0  0  0  0  0  0  0
    0.6950    1.3207   -0.5577 O   0  0  0  0  0  0  0  0  0  0  0  0
   -0.5851   -0.7357   -0.3781 H   0  0  0  0  0  0  0  0  0  0  0  0
   -1.3986    0.7911    1.6294 H   0  0  0  0  0  0  0  0  0  0  0  0
   -2.2793    1.6124    0.3422 H   0  0  0  0  0  0  0  0  0  0  0  0
    0.0717    3.0246    0.7775 N   0  0  0  0  0  0  0  0  0  0  0  0
    1.3288    3.7779    0.6828 C   0  0  2  0  0  0  0  0  0  0  0  0
    1.5913    4.5925    1.9677 C   0  0  0  0  0  0  0  0  0  0  0  0
    0.7010    4.7292    2.8003 O   0  0  0  0  0  0  0  0  0  0  0  0
    1.2499    4.6995   -0.5378 C   0  0  0  0  0  0  0  0  0  0  0  0
   -0.5835    3.3283    1.4985 H   0  0  0  0  0  0  0  0  0  0  0  0
    2.1684    3.0856    0.5587 H   0  0  0  0  0  0  0  0  0  0  0  0
    0.4182    5.4036   -0.4332 H   0  0  0  0  0  0  0  0  0  0  0  0
    2.1769    5.2692   -0.6513 H   0  0  0  0  0  0  0  0  0  0  0  0
    1.0953    4.1099   -1.4471 H   0  0  0  0  0  0  0  0  0  0  0  0
    2.8314    5.1571    2.2033 N   0  0  0  0  0  0  0  0  0  0  0  0
    3.1449    5.9281    3.4009 C   0  0  0  0  0  0  0  0  0  0  0  0
    3.5568    5.0121    1.5069 H   0  0  0  0  0  0  0  0  0  0  0  0
    2.5284    6.8322    3.4462 H   0  0  0  0  0  0  0  0  0  0  0  0
    2.9613    5.3313    4.3007 H   0  0  0  0  0  0  0  0  0  0  0  0
    4.1977    6.2271    3.3948 H   0  0  0  0  0  0  0  0  0  0  0  0
  1  2  2  0  0  0  0
  1  3  1  0  0  0  0
  1  7  1  0  0  0  0
  3  4  1  0  0  0  0
  3  5  1  0  0  0  0
  3  6  1  0  0  0  0
  7  8  1  0  0  0  0
  7 12  1  0  0  0  0
  8  9  1  0  0  0  0
  8 11  1  0  0  0  0
  8 13  1  0  0  0  0
  9 10  2  0  0  0  0
  9 17  1  0  0  0  0
 11 14  1  0  0  0  0
 11 15  1  0  0  0  0
 11 16  1  0  0  0  0
 17 18  1  0  0  0  0
 17 21  1  0  0  0  0
 18 19  1  0  0  0  0
 18 22  1  0  0  0  0
 18 23  1  0  0  0  0
 19 20  2  0  0  0  0
 19 24  1  0  0  0  0
 24 25  1  0  0  0  0
 24 29  1  0  0  0  0
 25 26  1  0  0  0  0
 25 28  1  0  0  0  0
 25 30  1  0  0  0  0
 26 27  2  0  0  0  0
 26 34  1  0  0  0  0
 28 31  1  0  0  0  0
 28 32  1  0  0  0  0
 28 33  1  0  0  0  0
 34 35  1  0  0  0  0
 34 36  1  0  0  0  0
 35 37  1  0  0  0  0
 35 38  1  0  0  0  0
 35 39  1  0  0  0  0
M  END
$$$$

  -OEChem-05262216283D

 39 38  0     1  0  0  0  0  0999 V2000
   -4.0436   -3.5013   -2.5954 C   0  0  0  0  0  0  0  0  0  0  0  0
   -3.3050   -4.3999   -2.2248 O   0  0  0  0  0  0  0  0  0  0  0  0
   -5.4890   -3.8041   -2.9423 C   0  0  0  0  0  0  0  0  0  0  0  0
   -5.6753   -3.5774   -3.9948 H   0  0  0  0  0  0  0  0  0  0  0  0
   -5.7052   -4.8613   -2.7650 H   0  0  0  0  0  0  0  0  0  0  0  0
   -6.1560   -3.1999   -2.3227 H   0  0  0  0  0  0  0  0  0  0  0  0
   -3.5783   -2.2065   -2.6888 N   0  0  0  0  0  0  0  0  0  0  0  0
   -2.2884   -1.7558   -2.1472 C   0  0  2  0  0  0  0  0  0  0  0  0
   -2.4631   -0.5616   -1.1868 C   0  0  0  0  0  0  0  0  0  0  0  0
   -3.4783    0.1254   -1.2388 O   0  0  0  0  0  0  0  0  0  0  0  0
   -1.3903   -1.3693   -3.3243 C   0  0  0  0  0  0  0  0  0  0  0  0
   -4.2853   -1.4846   -2.8197 H   0  0  0  0  0  0  0  0  0  0  0  0
   -1.8053   -2.5595   -1.5817 H   0  0  0  0  0  0  0  0  0  0  0  0
   -1.8498   -0.5669   -3.9104 H   0  0  0  0  0  0  0  0  0  0  0  0
   -0.4152   -1.0232   -2.9669 H   0  0  0  0  0  0  0  0  0  0  0  0
   -1.2328   -2.2334   -3.9774 H   0  0  0  0  0  0  0  0  0  0  0  0
   -1.4703   -0.2580   -0.2738 N   0  0  0  0  0  0  0  0  0  0  0  0
   -1.3836    1.0336    0.4291 C   0  0  0  0  0  0  0  0  0  0  0  0
   -0.0677    1.7709    0.1399 C   0  0  0  0  0  0  0  0  0  0  0  0
    0.7025    1.3516   -0.7171 O   0  0  0  0  0  0  0  0  0  0  0  0
   -0.5866   -0.7420   -0.4246 H   0  0  0  0  0  0  0  0  0  0  0  0
   -1.4608    0.8568    1.5053 H   0  0  0  0  0  0  0  0  0  0  0  0
   -2.2061    1.6981    0.1478 H   0  0  0  0  0  0  0  0  0  0  0  0
    0.3220    2.8298    0.9355 N   0  0  0  0  0  0  0  0  0  0  0  0
    1.6350    3.4839    0.8737 C   0  0  2  0  0  0  0  0  0  0  0  0
    2.0220    4.0986    2.2356 C   0  0  0  0  0  0  0  0  0  0  0  0
    1.1903    4.1736    3.1340 O   0  0  0  0  0  0  0  0  0  0  0  0
    1.5892    4.5623   -0.2137 C   0  0  0  0  0  0  0  0  0  0  0  0
   -0.2686    3.0699    1.7321 H   0  0  0  0  0  0  0  0  0  0  0  0
    2.4023    2.7451    0.6194 H   0  0  0  0  0  0  0  0  0  0  0  0
    0.8324    5.3156    0.0274 H   0  0  0  0  0  0  0  0  0  0  0  0
    2.5593    5.0595   -0.3058 H   0  0  0  0  0  0  0  0  0  0  0  0
    1.3396    4.1152   -1.1813 H   0  0  0  0  0  0  0  0  0  0  0  0
    3.3082    4.5530    2.4620 N   0  0  0  0  0  0  0  0  0  0  0  0
    3.7408    5.1321    3.7285 C   0  0  0  0  0  0  0  0  0  0  0  0
    3.9803    4.4646    1.7052 H   0  0  0  0  0  0  0  0  0  0  0  0
    3.1600    6.0322    3.9568 H   0  0  0  0  0  0  0  0  0  0  0  0
    3.6100    4.4121    4.5436 H   0  0  0  0  0  0  0  0  0  0  0  0
    4.7987    5.4077    3.6775 H   0  0  0  0  0  0  0  0  0  0  0  0
  1  2  2  0  0  0  0
  1  3  1  0  0  0  0
  1  7  1  0  0  0  0
  3  4  1  0  0  0  0
  3  5  1  0  0  0  0
  3  6  1  0  0  0  0
  7  8  1  0  0  0  0
  7 12  1  0  0  0  0
  8  9  1  0  0  0  0
  8 11  1  0  0  0  0
  8 13  1  0  0  0  0
  9 10  2  0  0  0  0
  9 17  1  0  0  0  0
 11 14  1  0  0  0  0
 11 15  1  0  0  0  0
 11 16  1  0  0  0  0
 17 18  1  0  0  0  0
 17 21  1  0  0  0  0
 18 19  1  0  0  0  0
 18 22  1  0  0  0  0
 18 23  1  0  0  0  0
 19 20  2  0  0  0  0
 19 24  1  0  0  0  0
 24 25  1  0  0  0  0
 24 29  1  0  0  0  0
 25 26  1  0  0  0  0
 25 28  1  0  0  0  0
 25 30  1  0  0  0  0
 26 27  2  0  0  0  0
 26 34  1  0  0  0  0
 28 31  1  0  0  0  0
 28 32  1  0  0  0  0
 28 33  1  0  0  0  0
 34 35  1  0  0  0  0
 34 36  1  0  0  0  0
 35 37  1  0  0  0  0
 35 38  1  0  0  0  0
 35 39  1  0  0  0  0
M  END
$$$$

  -OEChem-05262216283D

 39 38  0     1  0  0  0  0  0999 V2000
   -3.9918   -3.4651   -2.7432 C   0  0  0  0  0  0  0  0  0  0  0  0
   -3.1650   -4.3537   -2.6127 O   0  0  0  0  0  0  0  0  0  0  0  0
   -5.3960   -3.7960   -3.2124 C   0  0  0  0  0  0  0  0  0  0  0  0
   -5.6030   -3.2870   -4.1568 H   0  0  0  0  0  0  0  0  0  0  0  0
   -5.4985   -4.8743   -3.3630 H   0  0  0  0  0  0  0  0  0  0  0  0
   -6.1252   -3.4740   -2.4652 H   0  0  0  0  0  0  0  0  0  0  0  0
   -3.6533   -2.1593   -2.4592 N   0  0  0  0  0  0  0  0  0  0  0  0
   -2.3702   -1.7406   -1.8798 C   0  0  2  0  0  0  0  0  0  0  0  0
   -2.5266   -0.4958   -0.9811 C   0  0  0  0  0  0  0  0  0  0  0  0
   -3.5525    0.1755   -1.0319 O   0  0  0  0  0  0  0  0  0  0  0  0
   -1.3938   -1.4506   -3.0242 C   0  0  0  0  0  0  0  0  0  0  0  0
   -4.4017   -1.4673   -2.4641 H   0  0  0  0  0  0  0  0  0  0  0  0
   -1.9663   -2.5454   -1.2560 H   0  0  0  0  0  0  0  0  0  0  0  0
   -1.7770   -0.6454   -3.6593 H   0  0  0  0  0  0  0  0  0  0  0  0
   -0.4181   -1.1480   -2.6311 H   0  0  0  0  0  0  0  0  0  0  0  0
   -1.2550   -2.3449   -3.6402 H   0  0  0  0  0  0  0  0  0  0  0  0
   -1.5111   -0.1369   -0.1134 N   0  0  0  0  0  0  0  0  0  0  0  0
   -1.3889    1.2154    0.4596 C   0  0  0  0  0  0  0  0  0  0  0  0
   -0.0597    1.8873    0.0821 C   0  0  0  0  0  0  0  0  0  0  0  0
    0.5777    1.4920   -0.8873 O   0  0  0  0  0  0  0  0  0  0  0  0
   -0.6342   -0.6323   -0.2646 H   0  0  0  0  0  0  0  0  0  0  0  0
   -1.4581    1.1457    1.5486 H   0  0  0  0  0  0  0  0  0  0  0  0
   -2.1988    1.8702    0.1230 H   0  0  0  0  0  0  0  0  0  0  0  0
    0.5209    2.8027    0.9377 N   0  0  0  0  0  0  0  0  0  0  0  0
    1.9005    3.2955    0.8267 C   0  0  2  0  0  0  0  0  0  0  0  0
    2.4933    3.6095    2.2168 C   0  0  0  0  0  0  0  0  0  0  0  0
    1.7582    3.6633    3.1972 O   0  0  0  0  0  0  0  0  0  0  0  0
    1.8986    4.5475   -0.0560 C   0  0  0  0  0  0  0  0  0  0  0  0
    0.0476    2.9866    1.8226 H   0  0  0  0  0  0  0  0  0  0  0  0
    2.5340    2.5292    0.3672 H   0  0  0  0  0  0  0  0  0  0  0  0
    1.2786    5.3303    0.3926 H   0  0  0  0  0  0  0  0  0  0  0  0
    2.9144    4.9352   -0.1781 H   0  0  0  0  0  0  0  0  0  0  0  0
    1.4990    4.3117   -1.0476 H   0  0  0  0  0  0  0  0  0  0  0  0
    3.8518    3.8124    2.3756 N   0  0  0  0  0  0  0  0  0  0  0  0
    4.4705    4.1043    3.6633 C   0  0  0  0  0  0  0  0  0  0  0  0
    4.4388    3.7535    1.5485 H   0  0  0  0  0  0  0  0  0  0  0  0
    4.0897    5.0492    4.0648 H   0  0  0  0  0  0  0  0  0  0  0  0
    4.2576    3.3056    4.3817 H   0  0  0  0  0  0  0  0  0  0  0  0
    5.5559    4.1871    3.5526 H   0  0  0  0  0  0  0  0  0  0  0  0
  1  2  2  0  0  0  0
  1  3  1  0  0  0  0
  1  7  1  0  0  0  0
  3  4  1  0  0  0  0
  3  5  1  0  0  0  0
  3  6  1  0  0  0  0
  7  8  1  0  0  0  0
  7 12  1  0  0  0  0
  8  9  1  0  0  0  0
  8 11  1  0  0  0  0
  8 13  1  0  0  0  0
  9 10  2  0  0  0  0
  9 17  1  0  0  0  0
 11 14  1  0  0  0  0
 11 15  1  0  0  0  0
 11 16  1  0  0  0  0
 17 18  1  0  0  0  0
 17 21  1  0  0  0  0
 18 19  1  0  0  0  0
 18 22  1  0  0  0  0
 18 23  1  0  0  0  0
 19 20  2  0  0  0  0
 19 24  1  0  0  0  0
 24 25  1  0  0  0  0
 24 29  1  0  0  0  0
 25 26  1  0  0  0  0
 25 28  1  0  0  0  0
 25 30  1  0  0  0  0
 26 27  2  0  0  0  0
 26 34  1  0  0  0  0
 28 31  1  0  0  0  0
 28 32  1  0  0  0  0
 28 33  1  0  0  0  0
 34 35  1  0  0  0  0
 34 36  1  0  0  0  0
 35 37  1  0  0  0  0
 35 38  1  0  0  0  0
 35 39  1  0  0  0  0
M  END
$$$$

  -OEChem-05262216283D

 39 38  0     1  0  0  0  0  0999 V2000
   -4.0396   -3.4321   -2.4378 C   0  0  0  0  0  0  0  0  0  0  0  0
   -3.3110   -4.3224   -2.0288 O   0  0  0  0  0  0  0  0  0  0  0  0
   -5.4886   -3.7323   -2.7720 C   0  0  0  0  0  0  0  0  0  0  0  0
   -5.6770   -3.5282   -3.8288 H   0  0  0  0  0  0  0  0  0  0  0  0
   -5.7116   -4.7839   -2.5703 H   0  0  0  0  0  0  0  0  0  0  0  0
   -6.1494   -3.1093   -2.1641 H   0  0  0  0  0  0  0  0  0  0  0  0
   -3.5577   -2.1491   -2.5908 N   0  0  0  0  0  0  0  0  0  0  0  0
   -2.2580   -1.6899   -2.0809 C   0  0  2  0  0  0  0  0  0  0  0  0
   -2.4087   -0.4317   -1.2009 C   0  0  0  0  0  0  0  0  0  0  0  0
   -3.4105    0.2695   -1.3017 O   0  0  0  0  0  0  0  0  0  0  0  0
   -1.3574   -1.3946   -3.2821 C   0  0  0  0  0  0  0  0  0  0  0  0
   -4.2528   -1.4241   -2.7625 H   0  0  0  0  0  0  0  0  0  0  0  0
   -1.7894   -2.4661   -1.4666 H   0  0  0  0  0  0  0  0  0  0  0  0
   -1.7923   -0.6039   -3.9020 H   0  0  0  0  0  0  0  0  0  0  0  0
   -0.3675   -1.0688   -2.9483 H   0  0  0  0  0  0  0  0  0  0  0  0
   -1.2381   -2.2934   -3.8948 H   0  0  0  0  0  0  0  0  0  0  0  0
   -1.4159   -0.0900   -0.3005 N   0  0  0  0  0  0  0  0  0  0  0  0
   -1.2910    1.2587    0.2807 C   0  0  0  0  0  0  0  0  0  0  0  0
    0.0578    1.9134   -0.0511 C   0  0  0  0  0  0  0  0  0  0  0  0
    0.5915    1.7088   -1.1344 O   0  0  0  0  0  0  0  0  0  0  0  0
   -0.5542   -0.6230   -0.3947 H   0  0  0  0  0  0  0  0  0  0  0  0
   -1.4013    1.1872    1.3663 H   0  0  0  0  0  0  0  0  0  0  0  0
   -2.0781    1.9277   -0.0808 H   0  0  0  0  0  0  0  0  0  0  0  0
    0.7730    2.5661    0.9336 N   0  0  0  0  0  0  0  0  0  0  0  0
    2.1642    3.0171    0.8001 C   0  0  2  0  0  0  0  0  0  0  0  0
    2.8876    3.0131    2.1633 C   0  0  0  0  0  0  0  0  0  0  0  0
    2.2471    2.8540    3.1973 O   0  0  0  0  0  0  0  0  0  0  0  0
    2.1606    4.4239    0.1938 C   0  0  0  0  0  0  0  0  0  0  0  0
    0.3847    2.5714    1.8769 H   0  0  0  0  0  0  0  0  0  0  0  0
    2.7126    2.3387    0.1378 H   0  0  0  0  0  0  0  0  0  0  0  0
    1.6250    5.1202    0.8472 H   0  0  0  0  0  0  0  0  0  0  0  0
    3.1831    4.7889    0.0590 H   0  0  0  0  0  0  0  0  0  0  0  0
    1.6678    4.4143   -0.7837 H   0  0  0  0  0  0  0  0  0  0  0  0
    4.2596    3.1706    2.2313 N   0  0  0  0  0  0  0  0  0  0  0  0
    5.0049    3.1657    3.4845 C   0  0  0  0  0  0  0  0  0  0  0  0
    4.7654    3.2895    1.3582 H   0  0  0  0  0  0  0  0  0  0  0  0
    4.6720    3.9841    4.1316 H   0  0  0  0  0  0  0  0  0  0  0  0
    4.8610    2.2174    4.0133 H   0  0  0  0  0  0  0  0  0  0  0  0
    6.0740    3.2930    3.2891 H   0  0  0  0  0  0  0  0  0  0  0  0
  1  2  2  0  0  0  0
  1  3  1  0  0  0  0
  1  7  1  0  0  0  0
  3  4  1  0  0  0  0
  3  5  1  0  0  0  0
  3  6  1  0  0  0  0
  7  8  1  0  0  0  0
  7 12  1  0  0  0  0
  8  9  1  0  0  0  0
  8 11  1  0  0  0  0
  8 13  1  0  0  0  0
  9 10  2  0  0  0  0
  9 17  1  0  0  0  0
 11 14  1  0  0  0  0
 11 15  1  0  0  0  0
 11 16  1  0  0  0  0
 17 18  1  0  0  0  0
 17 21  1  0  0  0  0
 18 19  1  0  0  0  0
 18 22  1  0  0  0  0
 18 23  1  0  0  0  0
 19 20  2  0  0  0  0
 19 24  1  0  0  0  0
 24 25  1  0  0  0  0
 24 29  1  0  0  0  0
 25 26  1  0  0  0  0
 25 28  1  0  0  0  0
 25 30  1  0  0  0  0
 26 27  2  0  0  0  0
 26 34  1  0  0  0  0
 28 31  1  0  0  0  0
 28 32  1  0  0  0  0
 28 33  1  0  0  0  0
 34 35  1  0  0  0  0
 34 36  1  0  0  0  0
 35 37  1  0  0  0  0
 35 38  1  0  0  0  0
 35 39  1  0  0  0  0
M  END
$$$$

  -OEChem-05262216283D

 39 38  0     1  0  0  0  0  0999 V2000
   -4.0289   -3.4097   -2.4219 C   0  0  0  0  0  0  0  0  0  0  0  0
   -3.2743   -4.3034   -2.0718 O   0  0  0  0  0  0  0  0  0  0  0  0
   -5.4831   -3.7189   -2.7231 C   0  0  0  0  0  0  0  0  0  0  0  0
   -5.7201   -3.4337   -3.7510 H   0  0  0  0  0  0  0  0  0  0  0  0
   -5.6744   -4.7887   -2.6008 H   0  0  0  0  0  0  0  0  0  0  0  0
   -6.1311   -3.1648   -2.0395 H   0  0  0  0  0  0  0  0  0  0  0  0
   -3.5697   -2.1145   -2.5328 N   0  0  0  0  0  0  0  0  0  0  0  0
   -2.2540   -1.6609   -2.0616 C   0  0  2  0  0  0  0  0  0  0  0  0
   -2.3709   -0.3817   -1.2072 C   0  0  0  0  0  0  0  0  0  0  0  0
   -3.3723    0.3218   -1.2939 O   0  0  0  0  0  0  0  0  0  0  0  0
   -1.3742   -1.4083   -3.2882 C   0  0  0  0  0  0  0  0  0  0  0  0
   -4.2753   -1.3904   -2.6620 H   0  0  0  0  0  0  0  0  0  0  0  0
   -1.7852   -2.4291   -1.4374 H   0  0  0  0  0  0  0  0  0  0  0  0
   -1.8178   -0.6364   -3.9254 H   0  0  0  0  0  0  0  0  0  0  0  0
   -0.3765   -1.0763   -2.9849 H   0  0  0  0  0  0  0  0  0  0  0  0
   -1.2703   -2.3274   -3.8737 H   0  0  0  0  0  0  0  0  0  0  0  0
   -1.3573   -0.0354   -0.3311 N   0  0  0  0  0  0  0  0  0  0  0  0
   -1.2191    1.3151    0.2436 C   0  0  0  0  0  0  0  0  0  0  0  0
    0.1200    1.9710   -0.1203 C   0  0  0  0  0  0  0  0  0  0  0  0
    0.4991    1.9906   -1.2835 O   0  0  0  0  0  0  0  0  0  0  0  0
   -0.5085   -0.5896   -0.4144 H   0  0  0  0  0  0  0  0  0  0  0  0
   -1.3063    1.2493    1.3317 H   0  0  0  0  0  0  0  0  0  0  0  0
   -2.0147    1.9820   -0.1034 H   0  0  0  0  0  0  0  0  0  0  0  0
    0.9995    2.3511    0.8749 N   0  0  0  0  0  0  0  0  0  0  0  0
    2.3916    2.7652    0.6536 C   0  0  2  0  0  0  0  0  0  0  0  0
    3.2672    2.4682    1.8899 C   0  0  0  0  0  0  0  0  0  0  0  0
    2.7430    2.1166    2.9415 O   0  0  0  0  0  0  0  0  0  0  0  0
    2.4096    4.2617    0.3253 C   0  0  0  0  0  0  0  0  0  0  0  0
    0.7294    2.1699    1.8420 H   0  0  0  0  0  0  0  0  0  0  0  0
    2.8145    2.2057   -0.1876 H   0  0  0  0  0  0  0  0  0  0  0  0
    1.9848    4.8398    1.1522 H   0  0  0  0  0  0  0  0  0  0  0  0
    3.4331    4.6054    0.1491 H   0  0  0  0  0  0  0  0  0  0  0  0
    1.8214    4.4594   -0.5765 H   0  0  0  0  0  0  0  0  0  0  0  0
    4.6442    2.5780    1.8227 N   0  0  0  0  0  0  0  0  0  0  0  0
    5.5250    2.3156    2.9551 C   0  0  0  0  0  0  0  0  0  0  0  0
    5.0521    2.8718    0.9398 H   0  0  0  0  0  0  0  0  0  0  0  0
    5.3018    2.9988    3.7815 H   0  0  0  0  0  0  0  0  0  0  0  0
    5.4017    1.2859    3.3068 H   0  0  0  0  0  0  0  0  0  0  0  0
    6.5701    2.4574    2.6628 H   0  0  0  0  0  0  0  0  0  0  0  0
  1  2  2  0  0  0  0
  1  3  1  0  0  0  0
  1  7  1  0  0  0  0
  3  4  1  0  0  0  0
  3  5  1  0  0  0  0
  3  6  1  0  0  0  0
  7  8  1  0  0  0  0
  7 12  1  0  0  0  0
  8  9  1  0  0  0  0
  8 11  1  0  0  0  0
  8 13  1  0  0  0  0
  9 10  2  0  0  0  0
  9 17  1  0  0  0  0
 11 14  1  0  0  0  0
 11 15  1  0  0  0  0
 11 16  1  0  0  0  0
 17 18  1  0  0  0  0
 17 21  1  0  0  0  0
 18 19  1  0  0  0  0
 18 22  1  0  0  0  0
 18 23  1  0  0  0  0
 19 20  2  0  0  0  0
 19 24  1  0  0  0  0
 24 25  1  0  0  0  0
 24 29  1  0  0  0  0
 25 26  1  0  0  0  0
 25 28  1  0  0  0  0
 25 30  1  0  0  0  0
 26 27  2  0  0  0  0
 26 34  1  0  0  0  0
 28 31  1  0  0  0  0
 28 32  1  0  0  0  0
 28 33  1  0  0  0  0
 34 35  1  0  0  0  0
 34 36  1  0  0  0  0
 35 37  1  0  0  0  0
 35 38  1  0  0  0  0
 35 39  1  0  0  0  0
M  END
$$$$

  -OEChem-05262216283D

 39 38  0     1  0  0  0  0  0999 V2000
   -3.9620   -3.3960   -2.4638 C   0  0  0  0  0  0  0  0  0  0  0  0
   -3.1849   -4.2943   -2.1811 O   0  0  0  0  0  0  0  0  0  0  0  0
   -5.3961   -3.7210   -2.8363 C   0  0  0  0  0  0  0  0  0  0  0  0
   -5.5867   -3.4316   -3.8726 H   0  0  0  0  0  0  0  0  0  0  0  0
   -5.5796   -4.7939   -2.7297 H   0  0  0  0  0  0  0  0  0  0  0  0
   -6.0832   -3.1802   -2.1809 H   0  0  0  0  0  0  0  0  0  0  0  0
   -3.5429   -2.0830   -2.4349 N   0  0  0  0  0  0  0  0  0  0  0  0
   -2.2431   -1.6423   -1.9123 C   0  0  2  0  0  0  0  0  0  0  0  0
   -2.3654   -0.3273   -1.1153 C   0  0  0  0  0  0  0  0  0  0  0  0
   -3.3773    0.3584   -1.2150 O   0  0  0  0  0  0  0  0  0  0  0  0
   -1.2865   -1.4661   -3.0951 C   0  0  0  0  0  0  0  0  0  0  0  0
   -4.2593   -1.3646   -2.5349 H   0  0  0  0  0  0  0  0  0  0  0  0
   -1.8378   -2.3975   -1.2307 H   0  0  0  0  0  0  0  0  0  0  0  0
   -1.6636   -0.7019   -3.7827 H   0  0  0  0  0  0  0  0  0  0  0  0
   -0.2950   -1.1606   -2.7470 H   0  0  0  0  0  0  0  0  0  0  0  0
   -1.1850   -2.4085   -3.6429 H   0  0  0  0  0  0  0  0  0  0  0  0
   -1.3434    0.0677   -0.2703 N   0  0  0  0  0  0  0  0  0  0  0  0
   -1.2118    1.4415    0.2475 C   0  0  0  0  0  0  0  0  0  0  0  0
    0.1153    2.0863   -0.1695 C   0  0  0  0  0  0  0  0  0  0  0  0
    0.3400    2.3269   -1.3471 O   0  0  0  0  0  0  0  0  0  0  0  0
   -0.4978   -0.4952   -0.3190 H   0  0  0  0  0  0  0  0  0  0  0  0
   -1.2849    1.4272    1.3384 H   0  0  0  0  0  0  0  0  0  0  0  0
   -2.0174    2.0861   -0.1191 H   0  0  0  0  0  0  0  0  0  0  0  0
    1.1354    2.2287    0.7506 N   0  0  0  0  0  0  0  0  0  0  0  0
    2.5182    2.5912    0.4134 C   0  0  2  0  0  0  0  0  0  0  0  0
    3.5210    1.9608    1.4031 C   0  0  0  0  0  0  0  0  0  0  0  0
    3.1134    1.3883    2.4086 O   0  0  0  0  0  0  0  0  0  0  0  0
    2.6339    4.1188    0.4191 C   0  0  0  0  0  0  0  0  0  0  0  0
    0.9813    1.8568    1.6880 H   0  0  0  0  0  0  0  0  0  0  0  0
    2.7674    2.2148   -0.5846 H   0  0  0  0  0  0  0  0  0  0  0  0
    2.4032    4.5173    1.4123 H   0  0  0  0  0  0  0  0  0  0  0  0
    3.6464    4.4288    0.1448 H   0  0  0  0  0  0  0  0  0  0  0  0
    1.9350    4.5547   -0.3020 H   0  0  0  0  0  0  0  0  0  0  0  0
    4.8800    2.0129    1.1548 N   0  0  0  0  0  0  0  0  0  0  0  0
    5.8792    1.4255    2.0392 C   0  0  0  0  0  0  0  0  0  0  0  0
    5.1867    2.4813    0.3069 H   0  0  0  0  0  0  0  0  0  0  0  0
    5.8101    1.8638    3.0406 H   0  0  0  0  0  0  0  0  0  0  0  0
    5.7331    0.3429    2.1172 H   0  0  0  0  0  0  0  0  0  0  0  0
    6.8850    1.6115    1.6500 H   0  0  0  0  0  0  0  0  0  0  0  0
  1  2  2  0  0  0  0
  1  3  1  0  0  0  0
  1  7  1  0  0  0  0
  3  4  1  0  0  0  0
  3  5  1  0  0  0  0
  3  6  1  0  0  0  0
  7  8  1  0  0  0  0
  7 12  1  0  0  0  0
  8  9  1  0  0  0  0
  8 11  1  0  0  0  0
  8 13  1  0  0  0  0
  9 10  2  0  0  0  0
  9 17  1  0  0  0  0
 11 14  1  0  0  0  0
 11 15  1  0  0  0  0
 11 16  1  0  0  0  0
 17 18  1  0  0  0  0
 17 21  1  0  0  0  0
 18 19  1  0  0  0  0
 18 22  1  0  0  0  0
 18 23  1  0  0  0  0
 19 20  2  0  0  0  0
 19 24  1  0  0  0  0
 24 25  1  0  0  0  0
 24 29  1  0  0  0  0
 25 26  1  0  0  0  0
 25 28  1  0  0  0  0
 25 30  1  0  0  0  0
 26 27  2  0  0  0  0
 26 34  1  0  0  0  0
 28 31  1  0  0  0  0
 28 32  1  0  0  0  0
 28 33  1  0  0  0  0
 34 35  1  0  0  0  0
 34 36  1  0  0  0  0
 35 37  1  0  0  0  0
 35 38  1  0  0  0  0
 35 39  1  0  0  0  0
M  END
$$$$

  -OEChem-05262216283D

 39 38  0     1  0  0  0  0  0999 V2000
   -3.9004   -3.3890   -2.4508 C   0  0  0  0  0  0  0  0  0  0  0  0
   -3.1441   -4.2934   -2.1330 O   0  0  0  0  0  0  0  0  0  0  0  0
   -5.3168   -3.7006   -2.8963 C   0  0  0  0  0  0  0  0  0  0  0  0
   -5.4548   -3.3985   -3.9374 H   0  0  0  0  0  0  0  0  0  0  0  0
   -5.5114   -4.7734   -2.8111 H   0  0  0  0  0  0  0  0  0  0  0  0
   -6.0325   -3.1626   -2.2700 H   0  0  0  0  0  0  0  0  0  0  0  0
   -3.4726   -2.0799   -2.3966 N   0  0  0  0  0  0  0  0  0  0  0  0
   -2.1887   -1.6492   -1.8285 C   0  0  2  0  0  0  0  0  0  0  0  0
   -2.3119   -0.2859   -1.1152 C   0  0  0  0  0  0  0  0  0  0  0  0
   -3.3172    0.3979   -1.2738 O   0  0  0  0  0  0  0  0  0  0  0  0
   -1.1655   -1.5719   -2.9655 C   0  0  0  0  0  0  0  0  0  0  0  0
   -4.1741   -1.3535   -2.5379 H   0  0  0  0  0  0  0  0  0  0  0  0
   -1.8474   -2.3771   -1.0845 H   0  0  0  0  0  0  0  0  0  0  0  0
   -1.4845   -0.8432   -3.7179 H   0  0  0  0  0  0  0  0  0  0  0  0
   -0.1852   -1.2712   -2.5838 H   0  0  0  0  0  0  0  0  0  0  0  0
   -1.0623   -2.5491   -3.4483 H   0  0  0  0  0  0  0  0  0  0  0  0
   -1.3002    0.1572   -0.2809 N   0  0  0  0  0  0  0  0  0  0  0  0
   -1.2019    1.5389    0.2253 C   0  0  0  0  0  0  0  0  0  0  0  0
    0.1025    2.2182   -0.2066 C   0  0  0  0  0  0  0  0  0  0  0  0
    0.1923    2.7587   -1.2991 O   0  0  0  0  0  0  0  0  0  0  0  0
   -0.4654   -0.4227   -0.2492 H   0  0  0  0  0  0  0  0  0  0  0  0
   -1.2628    1.5335    1.3170 H   0  0  0  0  0  0  0  0  0  0  0  0
   -2.0310    2.1561   -0.1360 H   0  0  0  0  0  0  0  0  0  0  0  0
    1.2241    2.1203    0.5931 N   0  0  0  0  0  0  0  0  0  0  0  0
    2.5803    2.4908    0.1682 C   0  0  2  0  0  0  0  0  0  0  0  0
    3.6324    1.5314    0.7643 C   0  0  0  0  0  0  0  0  0  0  0  0
    3.2954    0.6938    1.5952 O   0  0  0  0  0  0  0  0  0  0  0  0
    2.8400    3.9351    0.6053 C   0  0  0  0  0  0  0  0  0  0  0  0
    1.1599    1.5196    1.4148 H   0  0  0  0  0  0  0  0  0  0  0  0
    2.6638    2.4252   -0.9220 H   0  0  0  0  0  0  0  0  0  0  0  0
    2.7757    4.0237    1.6944 H   0  0  0  0  0  0  0  0  0  0  0  0
    3.8338    4.2628    0.2862 H   0  0  0  0  0  0  0  0  0  0  0  0
    2.0977    4.6032    0.1567 H   0  0  0  0  0  0  0  0  0  0  0  0
    4.9511    1.5859    0.3525 N   0  0  0  0  0  0  0  0  0  0  0  0
    5.9877    0.7010    0.8704 C   0  0  0  0  0  0  0  0  0  0  0  0
    5.1992    2.2789   -0.3480 H   0  0  0  0  0  0  0  0  0  0  0  0
    6.0806    0.8144    1.9558 H   0  0  0  0  0  0  0  0  0  0  0  0
    5.7486   -0.3435    0.6441 H   0  0  0  0  0  0  0  0  0  0  0  0
    6.9532    0.9411    0.4145 H   0  0  0  0  0  0  0  0  0  0  0  0
  1  2  2  0  0  0  0
  1  3  1  0  0  0  0
  1  7  1  0  0  0  0
  3  4  1  0  0  0  0
  3  5  1  0  0  0  0
  3  6  1  0  0  0  0
  7  8  1  0  0  0  0
  7 12  1  0  0  0  0
  8  9  1  0  0  0  0
  8 11  1  0  0  0  0
  8 13  1  0  0  0  0
  9 10  2  0  0  0  0
  9 17  1  0  0  0  0
 11 14  1  0  0  0  0
 11 15  1  0  0  0  0
 11 16  1  0  0  0  0
 17 18  1  0  0  0  0
 17 21  1  0  0  0  0
 18 19  1  0  0  0  0
 18 22  1  0  0  0  0
 18 23  1  0  0  0  0
 19 20  2  0  0  0  0
 19 24  1  0  0  0  0
 24 25  1  0  0  0  0
 24 29  1  0  0  0  0
 25 26  1  0  0  0  0
 25 28  1  0  0  0  0
 25 30  1  0  0  0  0
 26 27  2  0  0  0  0
 26 34  1  0  0  0  0
 28 31  1  0  0  0  0
 28 32  1  0  0  0  0
 28 33  1  0  0  0  0
 34 35  1  0  0  0  0
 34 36  1  0  0  0  0
 35 37  1  0  0  0  0
 35 38  1  0  0  0  0
 35 39  1  0  0  0  0
M  END
$$$$

  -OEChem-05262216283D

 39 38  0     1  0  0  0  0  0999 V2000
   -2.7049   -3.3766   -2.2087 C   0  0  0  0  0  0  0  0  0  0  0  0
   -1.8373   -4.0632   -1.6926 O   0  0  0  0  0  0  0  0  0  0  0  0
   -3.9726   -4.0228   -2.7352 C   0  0  0  0  0  0  0  0  0  0  0  0
   -4.0745   -3.8264   -3.8050 H   0  0  0  0  0  0  0  0  0  0  0  0
   -3.9397   -5.1044   -2.5767 H   0  0  0  0  0  0  0  0  0  0  0  0
   -4.8425   -3.6169   -2.2132 H   0  0  0  0  0  0  0  0  0  0  0  0
   -2.5463   -2.0107   -2.3027 N   0  0  0  0  0  0  0  0  0  0  0  0
   -1.4576   -1.2542   -1.6704 C   0  0  2  0  0  0  0  0  0  0  0  0
   -1.9428    0.1240   -1.1755 C   0  0  0  0  0  0  0  0  0  0  0  0
   -2.9880    0.5989   -1.6089 O   0  0  0  0  0  0  0  0  0  0  0  0
   -0.3309   -1.0873   -2.6935 C   0  0  0  0  0  0  0  0  0  0  0  0
   -3.3463   -1.4686   -2.6271 H   0  0  0  0  0  0  0  0  0  0  0  0
   -1.0769   -1.7989   -0.7993 H   0  0  0  0  0  0  0  0  0  0  0  0
   -0.6921   -0.5533   -3.5783 H   0  0  0  0  0  0  0  0  0  0  0  0
    0.4985   -0.5204   -2.2611 H   0  0  0  0  0  0  0  0  0  0  0  0
    0.0444   -2.0672   -3.0048 H   0  0  0  0  0  0  0  0  0  0  0  0
   -1.2127    0.8173   -0.2289 N   0  0  0  0  0  0  0  0  0  0  0  0
   -1.3539    2.2686   -0.0074 C   0  0  0  0  0  0  0  0  0  0  0  0
   -0.0119    2.9591   -0.2561 C   0  0  0  0  0  0  0  0  0  0  0  0
    0.2897    3.3533   -1.3737 O   0  0  0  0  0  0  0  0  0  0  0  0
   -0.2936    0.4088   -0.0252 H   0  0  0  0  0  0  0  0  0  0  0  0
   -1.6869    2.4622    1.0155 H   0  0  0  0  0  0  0  0  0  0  0  0
   -2.0949    2.7114   -0.6813 H   0  0  0  0  0  0  0  0  0  0  0  0
    0.9686    2.8217    0.7093 N   0  0  0  0  0  0  0  0  0  0  0  0
    2.3503    2.5426    0.2950 C   0  0  2  0  0  0  0  0  0  0  0  0
    2.5051    1.0777   -0.1810 C   0  0  0  0  0  0  0  0  0  0  0  0
    1.6612    0.2360    0.1251 O   0  0  0  0  0  0  0  0  0  0  0  0
    3.2680    2.8233    1.4868 C   0  0  0  0  0  0  0  0  0  0  0  0
    0.6545    2.3102    1.5299 H   0  0  0  0  0  0  0  0  0  0  0  0
    2.6387    3.2063   -0.5277 H   0  0  0  0  0  0  0  0  0  0  0  0
    3.0149    2.1721    2.3297 H   0  0  0  0  0  0  0  0  0  0  0  0
    4.3133    2.6477    1.2143 H   0  0  0  0  0  0  0  0  0  0  0  0
    3.1656    3.8651    1.8067 H   0  0  0  0  0  0  0  0  0  0  0  0
    3.5845    0.7026   -0.9580 N   0  0  0  0  0  0  0  0  0  0  0  0
    3.7546   -0.6411   -1.4985 C   0  0  0  0  0  0  0  0  0  0  0  0
    4.2139    1.4375   -1.2687 H   0  0  0  0  0  0  0  0  0  0  0  0
    3.7363   -1.3850   -0.6949 H   0  0  0  0  0  0  0  0  0  0  0  0
    2.9561   -0.8722   -2.2110 H   0  0  0  0  0  0  0  0  0  0  0  0
    4.7149   -0.7205   -2.0172 H   0  0  0  0  0  0  0  0  0  0  0  0
  1  2  2  0  0  0  0
  1  3  1  0  0  0  0
  1  7  1  0  0  0  0
  3  4  1  0  0  0  0
  3  5  1  0  0  0  0
  3  6  1  0  0  0  0
  7  8  1  0  0  0  0
  7 12  1  0  0  0  0
  8  9  1  0  0  0  0
  8 11  1  0  0  0  0
  8 13  1  0  0  0  0
  9 10  2  0  0  0  0
  9 17  1  0  0  0  0
 11 14  1  0  0  0  0
 11 15  1  0  0  0  0
 11 16  1  0  0  0  0
 17 18  1  0  0  0  0
 17 21  1  0  0  0  0
 18 19  1  0  0  0  0
 18 22  1  0  0  0  0
 18 23  1  0  0  0  0
 19 20  2  0  0  0  0
 19 24  1  0  0  0  0
 24 25  1  0  0  0  0
 24 29  1  0  0  0  0
 25 26  1  0  0  0  0
 25 28  1  0  0  0  0
 25 30  1  0  0  0  0
 26 27  2  0  0  0  0
 26 34  1  0  0  0  0
 28 31  1  0  0  0  0
 28 32  1  0  0  0  0
 28 33  1  0  0  0  0
 34 35  1  0  0  0  0
 34 36  1  0  0  0  0
 35 37  1  0  0  0  0
 35 38  1  0  0  0  0
 35 39  1  0  0  0  0
M  END
$$$$

  -OEChem-05262216283D

 39 38  0     1  0  0  0  0  0999 V2000
   -2.6881   -3.3065   -2.3540 C   0  0  0  0  0  0  0  0  0  0  0  0
   -1.7592   -3.9730   -1.9261 O   0  0  0  0  0  0  0  0  0  0  0  0
   -3.9745   -3.9862   -2.7839 C   0  0  0  0  0  0  0  0  0  0  0  0
   -4.1669   -3.7864   -3.8409 H   0  0  0  0  0  0  0  0  0  0  0  0
   -3.8969   -5.0672   -2.6377 H   0  0  0  0  0  0  0  0  0  0  0  0
   -4.8116   -3.6099   -2.1909 H   0  0  0  0  0  0  0  0  0  0  0  0
   -2.5761   -1.9359   -2.4471 N   0  0  0  0  0  0  0  0  0  0  0  0
   -1.4534   -1.1544   -1.9129 C   0  0  2  0  0  0  0  0  0  0  0  0
   -1.9443    0.1517   -1.2561 C   0  0  0  0  0  0  0  0  0  0  0  0
   -3.0026    0.6562   -1.6173 O   0  0  0  0  0  0  0  0  0  0  0  0
   -0.4989   -0.8452   -3.0687 C   0  0  0  0  0  0  0  0  0  0  0  0
   -3.4163   -1.4144   -2.6933 H   0  0  0  0  0  0  0  0  0  0  0  0
   -0.9182   -1.7270   -1.1474 H   0  0  0  0  0  0  0  0  0  0  0  0
   -1.0202   -0.2993   -3.8614 H   0  0  0  0  0  0  0  0  0  0  0  0
    0.3386   -0.2340   -2.7216 H   0  0  0  0  0  0  0  0  0  0  0  0
   -0.0997   -1.7743   -3.4869 H   0  0  0  0  0  0  0  0  0  0  0  0
   -1.2049    0.7485   -0.2518 N   0  0  0  0  0  0  0  0  0  0  0  0
   -1.3384    2.1806    0.0855 C   0  0  0  0  0  0  0  0  0  0  0  0
    0.0011    2.8981   -0.0975 C   0  0  0  0  0  0  0  0  0  0  0  0
    0.2009    3.6115   -1.0696 O   0  0  0  0  0  0  0  0  0  0  0  0
   -0.2772    0.3291   -0.1278 H   0  0  0  0  0  0  0  0  0  0  0  0
   -1.6710    2.2894    1.1212 H   0  0  0  0  0  0  0  0  0  0  0  0
   -2.0803    2.6780   -0.5482 H   0  0  0  0  0  0  0  0  0  0  0  0
    1.0691    2.4556    0.6604 N   0  0  0  0  0  0  0  0  0  0  0  0
    2.3886    2.2618    0.0459 C   0  0  2  0  0  0  0  0  0  0  0  0
    2.4818    0.8665   -0.6134 C   0  0  0  0  0  0  0  0  0  0  0  0
    1.6459    0.0053   -0.3426 O   0  0  0  0  0  0  0  0  0  0  0  0
    3.4425    2.4180    1.1435 C   0  0  0  0  0  0  0  0  0  0  0  0
    0.8104    1.7482    1.3439 H   0  0  0  0  0  0  0  0  0  0  0  0
    2.5735    3.0206   -0.7223 H   0  0  0  0  0  0  0  0  0  0  0  0
    3.3033    1.6610    1.9221 H   0  0  0  0  0  0  0  0  0  0  0  0
    4.4485    2.3081    0.7274 H   0  0  0  0  0  0  0  0  0  0  0  0
    3.3650    3.4088    1.6023 H   0  0  0  0  0  0  0  0  0  0  0  0
    3.4929    0.5734   -1.5084 N   0  0  0  0  0  0  0  0  0  0  0  0
    3.6237   -0.7159   -2.1776 C   0  0  0  0  0  0  0  0  0  0  0  0
    4.1284    1.3247   -1.7630 H   0  0  0  0  0  0  0  0  0  0  0  0
    3.6739   -1.5269   -1.4431 H   0  0  0  0  0  0  0  0  0  0  0  0
    2.7708   -0.8932   -2.8407 H   0  0  0  0  0  0  0  0  0  0  0  0
    4.5388   -0.7391   -2.7775 H   0  0  0  0  0  0  0  0  0  0  0  0
  1  2  2  0  0  0  0
  1  3  1  0  0  0  0
  1  7  1  0  0  0  0
  3  4  1  0  0  0  0
  3  5  1  0  0  0  0
  3  6  1  0  0  0  0
  7  8  1  0  0  0  0
  7 12  1  0  0  0  0
  8  9  1  0  0  0  0
  8 11  1  0  0  0  0
  8 13  1  0  0  0  0
  9 10  2  0  0  0  0
  9 17  1  0  0  0  0
 11 14  1  0  0  0  0
 11 15  1  0  0  0  0
 11 16  1  0  0  0  0
 17 18  1  0  0  0  0
 17 21  1  0  0  0  0
 18 19  1  0  0  0  0
 18 22  1  0  0  0  0
 18 23  1  0  0  0  0
 19 20  2  0  0  0  0
 19 24  1  0  0  0  0
 24 25  1  0  0  0  0
 24 29  1  0  0  0  0
 25 26  1  0  0  0  0
 25 28  1  0  0  0  0
 25 30  1  0  0  0  0
 26 27  2  0  0  0  0
 26 34  1  0  0  0  0
 28 31  1  0  0  0  0
 28 32  1  0  0  0  0
 28 33  1  0  0  0  0
 34 35  1  0  0  0  0
 34 36  1  0  0  0  0
 35 37  1  0  0  0  0
 35 38  1  0  0  0  0
 35 39  1  0  0  0  0
M  END
$$$$

  -OEChem-05262216283D

 39 38  0     1  0  0  0  0  0999 V2000
   -2.7790   -3.1678   -2.3211 C   0  0  0  0  0  0  0  0  0  0  0  0
   -1.9797   -3.7499   -1.6054 O   0  0  0  0  0  0  0  0  0  0  0  0
   -4.0859   -3.8415   -2.6949 C   0  0  0  0  0  0  0  0  0  0  0  0
   -4.1921   -3.8745   -3.7819 H   0  0  0  0  0  0  0  0  0  0  0  0
   -4.1064   -4.8644   -2.3083 H   0  0  0  0  0  0  0  0  0  0  0  0
   -4.9258   -3.2865   -2.2696 H   0  0  0  0  0  0  0  0  0  0  0  0
   -2.5144   -1.8947   -2.7814 N   0  0  0  0  0  0  0  0  0  0  0  0
   -1.4148   -1.0560   -2.2832 C   0  0  2  0  0  0  0  0  0  0  0  0
   -1.9434    0.1232   -1.4416 C   0  0  0  0  0  0  0  0  0  0  0  0
   -2.9858    0.6804   -1.7687 O   0  0  0  0  0  0  0  0  0  0  0  0
   -0.6454   -0.5353   -3.4993 C   0  0  0  0  0  0  0  0  0  0  0  0
   -3.3002   -1.4017   -3.2002 H   0  0  0  0  0  0  0  0  0  0  0  0
   -0.7275   -1.6369   -1.6585 H   0  0  0  0  0  0  0  0  0  0  0  0
   -1.3062    0.0418   -4.1543 H   0  0  0  0  0  0  0  0  0  0  0  0
    0.1775    0.1121   -3.1835 H   0  0  0  0  0  0  0  0  0  0  0  0
   -0.2298   -1.3718   -4.0690 H   0  0  0  0  0  0  0  0  0  0  0  0
   -1.2330    0.5754   -0.3440 N   0  0  0  0  0  0  0  0  0  0  0  0
   -1.3721    1.9579    0.1664 C   0  0  0  0  0  0  0  0  0  0  0  0
   -0.0352    2.7068    0.1336 C   0  0  0  0  0  0  0  0  0  0  0  0
    0.0964    3.7128   -0.5471 O   0  0  0  0  0  0  0  0  0  0  0  0
   -0.3081    0.1417   -0.2709 H   0  0  0  0  0  0  0  0  0  0  0  0
   -1.7398    1.9316    1.1953 H   0  0  0  0  0  0  0  0  0  0  0  0
   -2.0959    2.5327   -0.4215 H   0  0  0  0  0  0  0  0  0  0  0  0
    1.0866    2.0442    0.5954 N   0  0  0  0  0  0  0  0  0  0  0  0
    2.3351    2.0259   -0.1769 C   0  0  2  0  0  0  0  0  0  0  0  0
    2.4030    0.7493   -1.0451 C   0  0  0  0  0  0  0  0  0  0  0  0
    1.5931   -0.1573   -0.8571 O   0  0  0  0  0  0  0  0  0  0  0  0
    3.5016    2.0808    0.8112 C   0  0  0  0  0  0  0  0  0  0  0  0
    0.8713    1.1686    1.0660 H   0  0  0  0  0  0  0  0  0  0  0  0
    2.3993    2.8952   -0.8401 H   0  0  0  0  0  0  0  0  0  0  0  0
    3.4845    1.2114    1.4764 H   0  0  0  0  0  0  0  0  0  0  0  0
    4.4564    2.0920    0.2768 H   0  0  0  0  0  0  0  0  0  0  0  0
    3.4369    2.9877    1.4207 H   0  0  0  0  0  0  0  0  0  0  0  0
    3.3548    0.6139   -2.0376 N   0  0  0  0  0  0  0  0  0  0  0  0
    3.4681   -0.5669   -2.8864 C   0  0  0  0  0  0  0  0  0  0  0  0
    3.9874    1.3938   -2.1941 H   0  0  0  0  0  0  0  0  0  0  0  0
    3.5809   -1.4700   -2.2770 H   0  0  0  0  0  0  0  0  0  0  0  0
    2.5786   -0.6754   -3.5153 H   0  0  0  0  0  0  0  0  0  0  0  0
    4.3435   -0.4817   -3.5376 H   0  0  0  0  0  0  0  0  0  0  0  0
  1  2  2  0  0  0  0
  1  3  1  0  0  0  0
  1  7  1  0  0  0  0
  3  4  1  0  0  0  0
  3  5  1  0  0  0  0
  3  6  1  0  0  0  0
  7  8  1  0  0  0  0
  7 12  1  0  0  0  0
  8  9  1  0  0  0  0
  8 11  1  0  0  0  0
  8 13  1  0  0  0  0
  9 10  2  0  0  0  0
  9 17  1  0  0  0  0
 11 14  1  0  0  0  0
 11 15  1  0  0  0  0
 11 16  1  0  0  0  0
 17 18  1  0  0  0  0
 17 21  1  0  0  0  0
 18 19  1  0  0  0  0
 18 22  1  0  0  0  0
 18 23  1  0  0  0  0
 19 20  2  0  0  0  0
 19 24  1  0  0  0  0
 24 25  1  0  0  0  0
 24 29  1  0  0  0  0
 25 26  1  0  0  0  0
 25 28  1  0  0  0  0
 25 30  1  0  0  0  0
 26 27  2  0  0  0  0
 26 34  1  0  0  0  0
 28 31  1  0  0  0  0
 28 32  1  0  0  0  0
 28 33  1  0  0  0  0
 34 35  1  0  0  0  0
 34 36  1  0  0  0  0
 35 37  1  0  0  0  0
 35 38  1  0  0  0  0
 35 39  1  0  0  0  0
M  END
$$$$

  -OEChem-05262216283D

 39 38  0     1  0  0  0  0  0999 V2000
   -4.1052   -3.0504   -2.1114 C   0  0  0  0  0  0  0  0  0  0  0  0
   -3.7291   -3.6195   -1.0985 O   0  0  0  0  0  0  0  0  0  0  0  0
   -5.5267   -3.2401   -2.6060 C   0  0  0  0  0  0  0  0  0  0  0  0
   -5.5185   -3.6084   -3.6346 H   0  0  0  0  0  0  0  0  0  0  0  0
   -6.0521   -3.9641   -1.9771 H   0  0  0  0  0  0  0  0  0  0  0  0
   -6.0634   -2.2887   -2.5707 H   0  0  0  0  0  0  0  0  0  0  0  0
   -3.2515   -2.2103   -2.7962 N   0  0  0  0  0  0  0  0  0  0  0  0
   -1.9728   -1.7454   -2.2407 C   0  0  2  0  0  0  0  0  0  0  0  0
   -2.0972   -0.3473   -1.5998 C   0  0  0  0  0  0  0  0  0  0  0  0
   -2.9165    0.4545   -2.0311 O   0  0  0  0  0  0  0  0  0  0  0  0
   -0.9478   -1.7189   -3.3769 C   0  0  0  0  0  0  0  0  0  0  0  0
   -3.6943   -1.6023   -3.4812 H   0  0  0  0  0  0  0  0  0  0  0  0
   -1.6133   -2.4395   -1.4740 H   0  0  0  0  0  0  0  0  0  0  0  0
   -1.2618   -1.0237   -4.1625 H   0  0  0  0  0  0  0  0  0  0  0  0
    0.0309   -1.4002   -3.0032 H   0  0  0  0  0  0  0  0  0  0  0  0
   -0.8422   -2.7164   -3.8146 H   0  0  0  0  0  0  0  0  0  0  0  0
   -1.2282    0.0272   -0.5899 N   0  0  0  0  0  0  0  0  0  0  0  0
   -1.2646    1.3293    0.1093 C   0  0  0  0  0  0  0  0  0  0  0  0
    0.0370    2.1266   -0.0479 C   0  0  0  0  0  0  0  0  0  0  0  0
    0.0285    3.3468    0.0206 O   0  0  0  0  0  0  0  0  0  0  0  0
   -0.6531   -0.7158   -0.2018 H   0  0  0  0  0  0  0  0  0  0  0  0
   -1.4424    1.1620    1.1752 H   0  0  0  0  0  0  0  0  0  0  0  0
   -2.0867    1.9519   -0.2596 H   0  0  0  0  0  0  0  0  0  0  0  0
    1.2378    1.4616   -0.2037 N   0  0  0  0  0  0  0  0  0  0  0  0
    2.4693    2.1047   -0.6755 C   0  0  2  0  0  0  0  0  0  0  0  0
    3.1225    1.2637   -1.7927 C   0  0  0  0  0  0  0  0  0  0  0  0
    2.7351    0.1168   -2.0015 O   0  0  0  0  0  0  0  0  0  0  0  0
    3.4156    2.2628    0.5168 C   0  0  0  0  0  0  0  0  0  0  0  0
    1.1562    0.4741   -0.4367 H   0  0  0  0  0  0  0  0  0  0  0  0
    2.2496    3.0927   -1.0943 H   0  0  0  0  0  0  0  0  0  0  0  0
    3.6595    1.2852    0.9450 H   0  0  0  0  0  0  0  0  0  0  0  0
    4.3452    2.7504    0.2084 H   0  0  0  0  0  0  0  0  0  0  0  0
    2.9451    2.8763    1.2919 H   0  0  0  0  0  0  0  0  0  0  0  0
    4.1318    1.7943   -2.5740 N   0  0  0  0  0  0  0  0  0  0  0  0
    4.7702    1.0639   -3.6622 C   0  0  0  0  0  0  0  0  0  0  0  0
    4.4035    2.7582   -2.4014 H   0  0  0  0  0  0  0  0  0  0  0  0
    5.2411    0.1497   -3.2861 H   0  0  0  0  0  0  0  0  0  0  0  0
    4.0341    0.7922   -4.4260 H   0  0  0  0  0  0  0  0  0  0  0  0
    5.5424    1.6817   -4.1306 H   0  0  0  0  0  0  0  0  0  0  0  0
  1  2  2  0  0  0  0
  1  3  1  0  0  0  0
  1  7  1  0  0  0  0
  3  4  1  0  0  0  0
  3  5  1  0  0  0  0
  3  6  1  0  0  0  0
  7  8  1  0  0  0  0
  7 12  1  0  0  0  0
  8  9  1  0  0  0  0
  8 11  1  0  0  0  0
  8 13  1  0  0  0  0
  9 10  2  0  0  0  0
  9 17  1  0  0  0  0
 11 14  1  0  0  0  0
 11 15  1  0  0  0  0
 11 16  1  0  0  0  0
 17 18  1  0  0  0  0
 17 21  1  0  0  0  0
 18 19  1  0  0  0  0
 18 22  1  0  0  0  0
 18 23  1  0  0  0  0
 19 20  2  0  0  0  0
 19 24  1  0  0  0  0
 24 25  1  0  0  0  0
 24 29  1  0  0  0  0
 25 26  1  0  0  0  0
 25 28  1  0  0  0  0
 25 30  1  0  0  0  0
 26 27  2  0  0  0  0
 26 34  1  0  0  0  0
 28 31  1  0  0  0  0
 28 32  1  0  0  0  0
 28 33  1  0  0  0  0
 34 35  1  0  0  0  0
 34 36  1  0  0  0  0
 35 37  1  0  0  0  0
 35 38  1  0  0  0  0
 35 39  1  0  0  0  0
M  END
$$$$

  -OEChem-05262216283D

 39 38  0     1  0  0  0  0  0999 V2000
   -4.1795   -3.0690   -2.0713 C   0  0  0  0  0  0  0  0  0  0  0  0
   -3.7088   -3.6596   -1.1115 O   0  0  0  0  0  0  0  0  0  0  0  0
   -5.6331   -3.2739   -2.4532 C   0  0  0  0  0  0  0  0  0  0  0  0
   -5.7019   -3.6259   -3.4855 H   0  0  0  0  0  0  0  0  0  0  0  0
   -6.0953   -4.0158   -1.7959 H   0  0  0  0  0  0  0  0  0  0  0  0
   -6.1787   -2.3317   -2.3594 H   0  0  0  0  0  0  0  0  0  0  0  0
   -3.4028   -2.1896   -2.7965 N   0  0  0  0  0  0  0  0  0  0  0  0
   -2.0867   -1.7234   -2.3394 C   0  0  2  0  0  0  0  0  0  0  0  0
   -2.1825   -0.3720   -1.6012 C   0  0  0  0  0  0  0  0  0  0  0  0
   -3.0162    0.4554   -1.9485 O   0  0  0  0  0  0  0  0  0  0  0  0
   -1.1829   -1.5932   -3.5681 C   0  0  0  0  0  0  0  0  0  0  0  0
   -3.9123   -1.5689   -3.4209 H   0  0  0  0  0  0  0  0  0  0  0  0
   -1.6362   -2.4547   -1.6603 H   0  0  0  0  0  0  0  0  0  0  0  0
   -1.5927   -0.8598   -4.2703 H   0  0  0  0  0  0  0  0  0  0  0  0
   -0.1795   -1.2677   -3.2747 H   0  0  0  0  0  0  0  0  0  0  0  0
   -1.0972   -2.5567   -4.0800 H   0  0  0  0  0  0  0  0  0  0  0  0
   -1.2662   -0.0537   -0.6137 N   0  0  0  0  0  0  0  0  0  0  0  0
   -1.2679    1.2096    0.1556 C   0  0  0  0  0  0  0  0  0  0  0  0
    0.0259    2.0168   -0.0166 C   0  0  0  0  0  0  0  0  0  0  0  0
    0.0885    3.1759    0.3660 O   0  0  0  0  0  0  0  0  0  0  0  0
   -0.6819   -0.8180   -0.2837 H   0  0  0  0  0  0  0  0  0  0  0  0
   -1.3955    0.9851    1.2184 H   0  0  0  0  0  0  0  0  0  0  0  0
   -2.1046    1.8513   -0.1399 H   0  0  0  0  0  0  0  0  0  0  0  0
    1.1451    1.4181   -0.5609 N   0  0  0  0  0  0  0  0  0  0  0  0
    2.3314    2.1483   -1.0190 C   0  0  2  0  0  0  0  0  0  0  0  0
    2.9020    1.4987   -2.2987 C   0  0  0  0  0  0  0  0  0  0  0  0
    2.4765    0.4094   -2.6749 O   0  0  0  0  0  0  0  0  0  0  0  0
    3.3676    2.1503    0.1082 C   0  0  0  0  0  0  0  0  0  0  0  0
    0.9791    0.5261   -1.0245 H   0  0  0  0  0  0  0  0  0  0  0  0
    2.0631    3.1815   -1.2652 H   0  0  0  0  0  0  0  0  0  0  0  0
    3.6603    1.1264    0.3615 H   0  0  0  0  0  0  0  0  0  0  0  0
    4.2613    2.7059   -0.1912 H   0  0  0  0  0  0  0  0  0  0  0  0
    2.9504    2.6251    1.0022 H   0  0  0  0  0  0  0  0  0  0  0  0
    3.8725    2.1410   -3.0450 N   0  0  0  0  0  0  0  0  0  0  0  0
    4.4211    1.5972   -4.2818 C   0  0  0  0  0  0  0  0  0  0  0  0
    4.1859    3.0535   -2.7261 H   0  0  0  0  0  0  0  0  0  0  0  0
    4.9087    0.6346   -4.0941 H   0  0  0  0  0  0  0  0  0  0  0  0
    3.6272    1.4517   -5.0221 H   0  0  0  0  0  0  0  0  0  0  0  0
    5.1625    2.2839   -4.7019 H   0  0  0  0  0  0  0  0  0  0  0  0
  1  2  2  0  0  0  0
  1  3  1  0  0  0  0
  1  7  1  0  0  0  0
  3  4  1  0  0  0  0
  3  5  1  0  0  0  0
  3  6  1  0  0  0  0
  7  8  1  0  0  0  0
  7 12  1  0  0  0  0
  8  9  1  0  0  0  0
  8 11  1  0  0  0  0
  8 13  1  0  0  0  0
  9 10  2  0  0  0  0
  9 17  1  0  0  0  0
 11 14  1  0  0  0  0
 11 15  1  0  0  0  0
 11 16  1  0  0  0  0
 17 18  1  0  0  0  0
 17 21  1  0  0  0  0
 18 19  1  0  0  0  0
 18 22  1  0  0  0  0
 18 23  1  0  0  0  0
 19 20  2  0  0  0  0
 19 24  1  0  0  0  0
 24 25  1  0  0  0  0
 24 29  1  0  0  0  0
 25 26  1  0  0  0  0
 25 28  1  0  0  0  0
 25 30  1  0  0  0  0
 26 27  2  0  0  0  0
 26 34  1  0  0  0  0
 28 31  1  0  0  0  0
 28 32  1  0  0  0  0
 28 33  1  0  0  0  0
 34 35  1  0  0  0  0
 34 36  1  0  0  0  0
 35 37  1  0  0  0  0
 35 38  1  0  0  0  0
 35 39  1  0  0  0  0
M  END
$$$$

  -OEChem-05262216283D

 39 38  0     1  0  0  0  0  0999 V2000
   -4.2077   -3.1497   -2.0829 C   0  0  0  0  0  0  0  0  0  0  0  0
   -3.6909   -3.8125   -1.1970 O   0  0  0  0  0  0  0  0  0  0  0  0
   -5.6656   -3.3670   -2.4422 C   0  0  0  0  0  0  0  0  0  0  0  0
   -5.7578   -3.5993   -3.5059 H   0  0  0  0  0  0  0  0  0  0  0  0
   -6.0768   -4.1988   -1.8635 H   0  0  0  0  0  0  0  0  0  0  0  0
   -6.2418   -2.4651   -2.2216 H   0  0  0  0  0  0  0  0  0  0  0  0
   -3.4798   -2.1822   -2.7442 N   0  0  0  0  0  0  0  0  0  0  0  0
   -2.1634   -1.7151   -2.2874 C   0  0  2  0  0  0  0  0  0  0  0  0
   -2.2665   -0.3864   -1.5105 C   0  0  0  0  0  0  0  0  0  0  0  0
   -3.1308    0.4299   -1.8054 O   0  0  0  0  0  0  0  0  0  0  0  0
   -1.2736   -1.5389   -3.5207 C   0  0  0  0  0  0  0  0  0  0  0  0
   -4.0261   -1.5251   -3.2969 H   0  0  0  0  0  0  0  0  0  0  0  0
   -1.6973   -2.4583   -1.6318 H   0  0  0  0  0  0  0  0  0  0  0  0
   -1.6960   -0.7870   -4.1952 H   0  0  0  0  0  0  0  0  0  0  0  0
   -0.2697   -1.2150   -3.2280 H   0  0  0  0  0  0  0  0  0  0  0  0
   -1.1859   -2.4851   -4.0634 H   0  0  0  0  0  0  0  0  0  0  0  0
   -1.3209   -0.0695   -0.5510 N   0  0  0  0  0  0  0  0  0  0  0  0
   -1.2936    1.1919    0.2199 C   0  0  0  0  0  0  0  0  0  0  0  0
   -0.0020    1.9923    0.0078 C   0  0  0  0  0  0  0  0  0  0  0  0
    0.1778    3.0463    0.5994 O   0  0  0  0  0  0  0  0  0  0  0  0
   -0.6833   -0.8145   -0.2801 H   0  0  0  0  0  0  0  0  0  0  0  0
   -1.3914    0.9663    1.2855 H   0  0  0  0  0  0  0  0  0  0  0  0
   -2.1338    1.8390   -0.0510 H   0  0  0  0  0  0  0  0  0  0  0  0
    0.9777    1.5063   -0.8353 N   0  0  0  0  0  0  0  0  0  0  0  0
    2.1325    2.2789   -1.3030 C   0  0  2  0  0  0  0  0  0  0  0  0
    2.5237    1.8554   -2.7355 C   0  0  0  0  0  0  0  0  0  0  0  0
    2.0226    0.8529   -3.2378 O   0  0  0  0  0  0  0  0  0  0  0  0
    3.2951    2.0601   -0.3302 C   0  0  0  0  0  0  0  0  0  0  0  0
    0.6980    0.7275   -1.4306 H   0  0  0  0  0  0  0  0  0  0  0  0
    1.8796    3.3442   -1.3312 H   0  0  0  0  0  0  0  0  0  0  0  0
    3.5661    1.0004   -0.2884 H   0  0  0  0  0  0  0  0  0  0  0  0
    4.1727    2.6333   -0.6436 H   0  0  0  0  0  0  0  0  0  0  0  0
    3.0126    2.3874    0.6755 H   0  0  0  0  0  0  0  0  0  0  0  0
    3.4195    2.6082   -3.4718 N   0  0  0  0  0  0  0  0  0  0  0  0
    3.7993    2.2870   -4.8423 C   0  0  0  0  0  0  0  0  0  0  0  0
    3.7933    3.4494   -3.0416 H   0  0  0  0  0  0  0  0  0  0  0  0
    4.2389    1.2853   -4.8938 H   0  0  0  0  0  0  0  0  0  0  0  0
    2.9252    2.3224   -5.5008 H   0  0  0  0  0  0  0  0  0  0  0  0
    4.5374    3.0066   -5.2092 H   0  0  0  0  0  0  0  0  0  0  0  0
  1  2  2  0  0  0  0
  1  3  1  0  0  0  0
  1  7  1  0  0  0  0
  3  4  1  0  0  0  0
  3  5  1  0  0  0  0
  3  6  1  0  0  0  0
  7  8  1  0  0  0  0
  7 12  1  0  0  0  0
  8  9  1  0  0  0  0
  8 11  1  0  0  0  0
  8 13  1  0  0  0  0
  9 10  2  0  0  0  0
  9 17  1  0  0  0  0
 11 14  1  0  0  0  0
 11 15  1  0  0  0  0
 11 16  1  0  0  0  0
 17 18  1  0  0  0  0
 17 21  1  0  0  0  0
 18 19  1  0  0  0  0
 18 22  1  0  0  0  0
 18 23  1  0  0  0  0
 19 20  2  0  0  0  0
 19 24  1  0  0  0  0
 24 25  1  0  0  0  0
 24 29  1  0  0  0  0
 25 26  1  0  0  0  0
 25 28  1  0  0  0  0
 25 30  1  0  0  0  0
 26 27  2  0  0  0  0
 26 34  1  0  0  0  0
 28 31  1  0  0  0  0
 28 32  1  0  0  0  0
 28 33  1  0  0  0  0
 34 35  1  0  0  0  0
 34 36  1  0  0  0  0
 35 37  1  0  0  0  0
 35 38  1  0  0  0  0
 35 39  1  0  0  0  0
M  END
$$$$

  -OEChem-05262216283D

 39 38  0     1  0  0  0  0  0999 V2000
   -4.2293   -3.3013   -2.2452 C   0  0  0  0  0  0  0  0  0  0  0  0
   -3.6108   -4.1776   -1.6620 O   0  0  0  0  0  0  0  0  0  0  0  0
   -5.6952   -3.5029   -2.5799 C   0  0  0  0  0  0  0  0  0  0  0  0
   -5.8408   -3.4498   -3.6614 H   0  0  0  0  0  0  0  0  0  0  0  0
   -6.0315   -4.4819   -2.2272 H   0  0  0  0  0  0  0  0  0  0  0  0
   -6.2988   -2.7292   -2.0990 H   0  0  0  0  0  0  0  0  0  0  0  0
   -3.6067   -2.1202   -2.5911 N   0  0  0  0  0  0  0  0  0  0  0  0
   -2.2765   -1.7204   -2.1104 C   0  0  2  0  0  0  0  0  0  0  0  0
   -2.3358   -0.4022   -1.3122 C   0  0  0  0  0  0  0  0  0  0  0  0
   -3.2477    0.3922   -1.5073 O   0  0  0  0  0  0  0  0  0  0  0  0
   -1.3627   -1.5640   -3.3290 C   0  0  0  0  0  0  0  0  0  0  0  0
   -4.2189   -1.3661   -2.8985 H   0  0  0  0  0  0  0  0  0  0  0  0
   -1.8564   -2.4869   -1.4509 H   0  0  0  0  0  0  0  0  0  0  0  0
   -1.7440   -0.7855   -3.9979 H   0  0  0  0  0  0  0  0  0  0  0  0
   -0.3495   -1.2883   -3.0197 H   0  0  0  0  0  0  0  0  0  0  0  0
   -1.3095   -2.5055   -3.8848 H   0  0  0  0  0  0  0  0  0  0  0  0
   -1.3240   -0.0780   -0.4254 N   0  0  0  0  0  0  0  0  0  0  0  0
   -1.2586    1.1760    0.3544 C   0  0  0  0  0  0  0  0  0  0  0  0
   -0.0015    2.0015    0.0532 C   0  0  0  0  0  0  0  0  0  0  0  0
    0.3428    2.8984    0.8082 O   0  0  0  0  0  0  0  0  0  0  0  0
   -0.6090   -0.7844   -0.2666 H   0  0  0  0  0  0  0  0  0  0  0  0
   -1.2730    0.9382    1.4220 H   0  0  0  0  0  0  0  0  0  0  0  0
   -2.1270    1.8115    0.1542 H   0  0  0  0  0  0  0  0  0  0  0  0
    0.7575    1.7202   -1.0654 N   0  0  0  0  0  0  0  0  0  0  0  0
    1.8825    2.5282   -1.5470 C   0  0  2  0  0  0  0  0  0  0  0  0
    2.0864    2.3287   -3.0643 C   0  0  0  0  0  0  0  0  0  0  0  0
    1.5190    1.4073   -3.6444 O   0  0  0  0  0  0  0  0  0  0  0  0
    3.1487    2.1315   -0.7801 C   0  0  0  0  0  0  0  0  0  0  0  0
    0.3470    1.0724   -1.7377 H   0  0  0  0  0  0  0  0  0  0  0  0
    1.6702    3.5888   -1.3741 H   0  0  0  0  0  0  0  0  0  0  0  0
    3.3822    1.0753   -0.9469 H   0  0  0  0  0  0  0  0  0  0  0  0
    4.0009    2.7332   -1.1091 H   0  0  0  0  0  0  0  0  0  0  0  0
    3.0106    2.2921    0.2936 H   0  0  0  0  0  0  0  0  0  0  0  0
    2.8989    3.1860   -3.7828 N   0  0  0  0  0  0  0  0  0  0  0  0
    3.1307    3.0587   -5.2166 C   0  0  0  0  0  0  0  0  0  0  0  0
    3.3465    3.9452   -3.2774 H   0  0  0  0  0  0  0  0  0  0  0  0
    3.6190    2.1050   -5.4427 H   0  0  0  0  0  0  0  0  0  0  0  0
    2.1840    3.1090   -5.7651 H   0  0  0  0  0  0  0  0  0  0  0  0
    3.7761    3.8693   -5.5687 H   0  0  0  0  0  0  0  0  0  0  0  0
  1  2  2  0  0  0  0
  1  3  1  0  0  0  0
  1  7  1  0  0  0  0
  3  4  1  0  0  0  0
  3  5  1  0  0  0  0
  3  6  1  0  0  0  0
  7  8  1  0  0  0  0
  7 12  1  0  0  0  0
  8  9  1  0  0  0  0
  8 11  1  0  0  0  0
  8 13  1  0  0  0  0
  9 10  2  0  0  0  0
  9 17  1  0  0  0  0
 11 14  1  0  0  0  0
 11 15  1  0  0  0  0
 11 16  1  0  0  0  0
 17 18  1  0  0  0  0
 17 21  1  0  0  0  0
 18 19  1  0  0  0  0
 18 22  1  0  0  0  0
 18 23  1  0  0  0  0
 19 20  2  0  0  0  0
 19 24  1  0  0  0  0
 24 25  1  0  0  0  0
 24 29  1  0  0  0  0
 25 26  1  0  0  0  0
 25 28  1  0  0  0  0
 25 30  1  0  0  0  0
 26 27  2  0  0  0  0
 26 34  1  0  0  0  0
 28 31  1  0  0  0  0
 28 32  1  0  0  0  0
 28 33  1  0  0  0  0
 34 35  1  0  0  0  0
 34 36  1  0  0  0  0
 35 37  1  0  0  0  0
 35 38  1  0  0  0  0
 35 39  1  0  0  0  0
M  END
$$$$

  -OEChem-05262216283D

 39 38  0     1  0  0  0  0  0999 V2000
   -4.1672   -2.8837   -3.0906 C   0  0  0  0  0  0  0  0  0  0  0  0
   -3.5463   -3.1628   -4.1038 O   0  0  0  0  0  0  0  0  0  0  0  0
   -5.4185   -3.6610   -2.7281 C   0  0  0  0  0  0  0  0  0  0  0  0
   -6.2864   -2.9976   -2.7430 H   0  0  0  0  0  0  0  0  0  0  0  0
   -5.5805   -4.4698   -3.4462 H   0  0  0  0  0  0  0  0  0  0  0  0
   -5.3151   -4.0925   -1.7295 H   0  0  0  0  0  0  0  0  0  0  0  0
   -3.7307   -1.8649   -2.2705 N   0  0  0  0  0  0  0  0  0  0  0  0
   -2.4615   -1.1456   -2.4434 C   0  0  2  0  0  0  0  0  0  0  0  0
   -1.8744   -0.7013   -1.0872 C   0  0  0  0  0  0  0  0  0  0  0  0
   -2.5891   -0.6574   -0.0923 O   0  0  0  0  0  0  0  0  0  0  0  0
   -2.7141    0.0660   -3.3458 C   0  0  0  0  0  0  0  0  0  0  0  0
   -4.2093   -1.7429   -1.3788 H   0  0  0  0  0  0  0  0  0  0  0  0
   -1.7247   -1.8021   -2.9192 H   0  0  0  0  0  0  0  0  0  0  0  0
   -3.4349    0.7460   -2.8811 H   0  0  0  0  0  0  0  0  0  0  0  0
   -1.7836    0.6118   -3.5273 H   0  0  0  0  0  0  0  0  0  0  0  0
   -3.1141   -0.2589   -4.3117 H   0  0  0  0  0  0  0  0  0  0  0  0
   -0.5525   -0.3124   -0.9868 N   0  0  0  0  0  0  0  0  0  0  0  0
    0.1046    0.1816    0.2405 C   0  0  0  0  0  0  0  0  0  0  0  0
    0.6473    1.6024    0.0519 C   0  0  0  0  0  0  0  0  0  0  0  0
    1.7880    1.8519    0.4115 O   0  0  0  0  0  0  0  0  0  0  0  0
   -0.0281   -0.2321   -1.8653 H   0  0  0  0  0  0  0  0  0  0  0  0
    0.9310   -0.4855    0.5031 H   0  0  0  0  0  0  0  0  0  0  0  0
   -0.5868    0.1916    1.0882 H   0  0  0  0  0  0  0  0  0  0  0  0
   -0.0165    2.4399   -0.8304 N   0  0  0  0  0  0  0  0  0  0  0  0
    0.6887    3.1783   -1.8935 C   0  0  2  0  0  0  0  0  0  0  0  0
    1.4193    2.1999   -2.8492 C   0  0  0  0  0  0  0  0  0  0  0  0
    0.8845    1.1274   -3.1275 O   0  0  0  0  0  0  0  0  0  0  0  0
    1.5909    4.2925   -1.3335 C   0  0  0  0  0  0  0  0  0  0  0  0
   -0.9125    2.0482   -1.1097 H   0  0  0  0  0  0  0  0  0  0  0  0
   -0.0741    3.6785   -2.4979 H   0  0  0  0  0  0  0  0  0  0  0  0
    2.4941    3.8837   -0.8713 H   0  0  0  0  0  0  0  0  0  0  0  0
    1.8952    4.9724   -2.1348 H   0  0  0  0  0  0  0  0  0  0  0  0
    1.0490    4.8718   -0.5794 H   0  0  0  0  0  0  0  0  0  0  0  0
    2.6415    2.5080   -3.4176 N   0  0  0  0  0  0  0  0  0  0  0  0
    3.4029    1.5599   -4.2221 C   0  0  0  0  0  0  0  0  0  0  0  0
    3.1136    3.3367   -3.0669 H   0  0  0  0  0  0  0  0  0  0  0  0
    3.6605    0.6759   -3.6291 H   0  0  0  0  0  0  0  0  0  0  0  0
    2.8222    1.2423   -5.0947 H   0  0  0  0  0  0  0  0  0  0  0  0
    4.3294    2.0223   -4.5756 H   0  0  0  0  0  0  0  0  0  0  0  0
  1  2  2  0  0  0  0
  1  3  1  0  0  0  0
  1  7  1  0  0  0  0
  3  4  1  0  0  0  0
  3  5  1  0  0  0  0
  3  6  1  0  0  0  0
  7  8  1  0  0  0  0
  7 12  1  0  0  0  0
  8  9  1  0  0  0  0
  8 11  1  0  0  0  0
  8 13  1  0  0  0  0
  9 10  2  0  0  0  0
  9 17  1  0  0  0  0
 11 14  1  0  0  0  0
 11 15  1  0  0  0  0
 11 16  1  0  0  0  0
 17 18  1  0  0  0  0
 17 21  1  0  0  0  0
 18 19  1  0  0  0  0
 18 22  1  0  0  0  0
 18 23  1  0  0  0  0
 19 20  2  0  0  0  0
 19 24  1  0  0  0  0
 24 25  1  0  0  0  0
 24 29  1  0  0  0  0
 25 26  1  0  0  0  0
 25 28  1  0  0  0  0
 25 30  1  0  0  0  0
 26 27  2  0  0  0  0
 26 34  1  0  0  0  0
 28 31  1  0  0  0  0
 28 32  1  0  0  0  0
 28 33  1  0  0  0  0
 34 35  1  0  0  0  0
 34 36  1  0  0  0  0
 35 37  1  0  0  0  0
 35 38  1  0  0  0  0
 35 39  1  0  0  0  0
M  END
$$$$

  -OEChem-05262216283D

 39 38  0     1  0  0  0  0  0999 V2000
   -4.2954   -2.8450   -3.0149 C   0  0  0  0  0  0  0  0  0  0  0  0
   -3.7333   -3.1460   -4.0556 O   0  0  0  0  0  0  0  0  0  0  0  0
   -5.5587   -3.5720   -2.5940 C   0  0  0  0  0  0  0  0  0  0  0  0
   -6.3915   -2.8675   -2.5336 H   0  0  0  0  0  0  0  0  0  0  0  0
   -5.8069   -4.3492   -3.3219 H   0  0  0  0  0  0  0  0  0  0  0  0
   -5.4136   -4.0387   -1.6169 H   0  0  0  0  0  0  0  0  0  0  0  0
   -3.7835   -1.8448   -2.2163 N   0  0  0  0  0  0  0  0  0  0  0  0
   -2.5020   -1.1646   -2.4487 C   0  0  2  0  0  0  0  0  0  0  0  0
   -1.8527   -0.7246   -1.1182 C   0  0  0  0  0  0  0  0  0  0  0  0
   -2.5265   -0.6806   -0.0942 O   0  0  0  0  0  0  0  0  0  0  0  0
   -2.7592    0.0392   -3.3596 C   0  0  0  0  0  0  0  0  0  0  0  0
   -4.2196   -1.7020   -1.3062 H   0  0  0  0  0  0  0  0  0  0  0  0
   -1.8032   -1.8478   -2.9437 H   0  0  0  0  0  0  0  0  0  0  0  0
   -3.4399    0.7478   -2.8779 H   0  0  0  0  0  0  0  0  0  0  0  0
   -1.8234    0.5542   -3.5907 H   0  0  0  0  0  0  0  0  0  0  0  0
   -3.2077   -0.2898   -4.3024 H   0  0  0  0  0  0  0  0  0  0  0  0
   -0.5215   -0.3555   -1.0602 N   0  0  0  0  0  0  0  0  0  0  0  0
    0.1757    0.1019    0.1595 C   0  0  0  0  0  0  0  0  0  0  0  0
    0.7214    1.5185   -0.0282 C   0  0  0  0  0  0  0  0  0  0  0  0
    1.9215    1.7233    0.0836 O   0  0  0  0  0  0  0  0  0  0  0  0
   -0.0455   -0.2153   -1.9566 H   0  0  0  0  0  0  0  0  0  0  0  0
    1.0055   -0.5762    0.3814 H   0  0  0  0  0  0  0  0  0  0  0  0
   -0.4853    0.1006    1.0313 H   0  0  0  0  0  0  0  0  0  0  0  0
   -0.1109    2.4604   -0.6096 N   0  0  0  0  0  0  0  0  0  0  0  0
    0.3775    3.3892   -1.6435 C   0  0  2  0  0  0  0  0  0  0  0  0
    1.0506    2.6265   -2.8155 C   0  0  0  0  0  0  0  0  0  0  0  0
    0.5721    1.5570   -3.1893 O   0  0  0  0  0  0  0  0  0  0  0  0
    1.2584    4.4920   -1.0312 C   0  0  0  0  0  0  0  0  0  0  0  0
   -1.0538    2.1055   -0.7503 H   0  0  0  0  0  0  0  0  0  0  0  0
   -0.4961    3.8894   -2.0722 H   0  0  0  0  0  0  0  0  0  0  0  0
    2.2298    4.0992   -0.7170 H   0  0  0  0  0  0  0  0  0  0  0  0
    1.4294    5.2905   -1.7591 H   0  0  0  0  0  0  0  0  0  0  0  0
    0.7633    4.9260   -0.1571 H   0  0  0  0  0  0  0  0  0  0  0  0
    2.1563    3.1341   -3.4730 N   0  0  0  0  0  0  0  0  0  0  0  0
    2.8811    2.3916   -4.4973 C   0  0  0  0  0  0  0  0  0  0  0  0
    2.6112    3.9347   -3.0439 H   0  0  0  0  0  0  0  0  0  0  0  0
    3.3349    1.4921   -4.0682 H   0  0  0  0  0  0  0  0  0  0  0  0
    2.2076    2.0947   -5.3083 H   0  0  0  0  0  0  0  0  0  0  0  0
    3.6757    3.0126   -4.9223 H   0  0  0  0  0  0  0  0  0  0  0  0
  1  2  2  0  0  0  0
  1  3  1  0  0  0  0
  1  7  1  0  0  0  0
  3  4  1  0  0  0  0
  3  5  1  0  0  0  0
  3  6  1  0  0  0  0
  7  8  1  0  0  0  0
  7 12  1  0  0  0  0
  8  9  1  0  0  0  0
  8 11  1  0  0  0  0
  8 13  1  0  0  0  0
  9 10  2  0  0  0  0
  9 17  1  0  0  0  0
 11 14  1  0  0  0  0
 11 15  1  0  0  0  0
 11 16  1  0  0  0  0
 17 18  1  0  0  0  0
 17 21  1  0  0  0  0
 18 19  1  0  0  0  0
 18 22  1  0  0  0  0
 18 23  1  0  0  0  0
 19 20  2  0  0  0  0
 19 24  1  0  0  0  0
 24 25  1  0  0  0  0
 24 29  1  0  0  0  0
 25 26  1  0  0  0  0
 25 28  1  0  0  0  0
 25 30  1  0  0  0  0
 26 27  2  0  0  0  0
 26 34  1  0  0  0  0
 28 31  1  0  0  0  0
 28 32  1  0  0  0  0
 28 33  1  0  0  0  0
 34 35  1  0  0  0  0
 34 36  1  0  0  0  0
 35 37  1  0  0  0  0
 35 38  1  0  0  0  0
 35 39  1  0  0  0  0
M  END
$$$$

  -OEChem-05262216283D

 39 38  0     1  0  0  0  0  0999 V2000
   -4.4149   -2.8193   -2.9441 C   0  0  0  0  0  0  0  0  0  0  0  0
   -3.8509   -3.2270   -3.9470 O   0  0  0  0  0  0  0  0  0  0  0  0
   -5.7159   -3.4550   -2.4910 C   0  0  0  0  0  0  0  0  0  0  0  0
   -6.4998   -2.6962   -2.4276 H   0  0  0  0  0  0  0  0  0  0  0  0
   -6.0273   -4.2247   -3.2029 H   0  0  0  0  0  0  0  0  0  0  0  0
   -5.5841   -3.9159   -1.5090 H   0  0  0  0  0  0  0  0  0  0  0  0
   -3.8680   -1.7858   -2.2136 N   0  0  0  0  0  0  0  0  0  0  0  0
   -2.5473   -1.1955   -2.4703 C   0  0  2  0  0  0  0  0  0  0  0  0
   -1.8782   -0.7208   -1.1616 C   0  0  0  0  0  0  0  0  0  0  0  0
   -2.5335   -0.6446   -0.1272 O   0  0  0  0  0  0  0  0  0  0  0  0
   -2.7217   -0.0338   -3.4531 C   0  0  0  0  0  0  0  0  0  0  0  0
   -4.2990   -1.5704   -1.3154 H   0  0  0  0  0  0  0  0  0  0  0  0
   -1.8873   -1.9470   -2.9175 H   0  0  0  0  0  0  0  0  0  0  0  0
   -3.3384    0.7550   -3.0116 H   0  0  0  0  0  0  0  0  0  0  0  0
   -1.7506    0.3906   -3.7217 H   0  0  0  0  0  0  0  0  0  0  0  0
   -3.2059   -0.3821   -4.3709 H   0  0  0  0  0  0  0  0  0  0  0  0
   -0.5425   -0.3652   -1.1348 N   0  0  0  0  0  0  0  0  0  0  0  0
    0.1901    0.0740    0.0682 C   0  0  0  0  0  0  0  0  0  0  0  0
    0.7398    1.4856   -0.1290 C   0  0  0  0  0  0  0  0  0  0  0  0
    1.9428    1.6564   -0.2678 O   0  0  0  0  0  0  0  0  0  0  0  0
   -0.0743   -0.2767   -2.0373 H   0  0  0  0  0  0  0  0  0  0  0  0
    1.0214   -0.6106    0.2612 H   0  0  0  0  0  0  0  0  0  0  0  0
   -0.4449    0.0689    0.9591 H   0  0  0  0  0  0  0  0  0  0  0  0
   -0.1617    2.5058   -0.3773 N   0  0  0  0  0  0  0  0  0  0  0  0
    0.1617    3.6463   -1.2510 C   0  0  2  0  0  0  0  0  0  0  0  0
    0.6456    3.1712   -2.6455 C   0  0  0  0  0  0  0  0  0  0  0  0
    0.0238    2.2816   -3.2194 O   0  0  0  0  0  0  0  0  0  0  0  0
    1.1274    4.6197   -0.5536 C   0  0  0  0  0  0  0  0  0  0  0  0
   -1.1277    2.1859   -0.3990 H   0  0  0  0  0  0  0  0  0  0  0  0
   -0.7660    4.1989   -1.4275 H   0  0  0  0  0  0  0  0  0  0  0  0
    2.1242    4.1832   -0.4413 H   0  0  0  0  0  0  0  0  0  0  0  0
    1.2190    5.5436   -1.1327 H   0  0  0  0  0  0  0  0  0  0  0  0
    0.7495    4.8753    0.4411 H   0  0  0  0  0  0  0  0  0  0  0  0
    1.7591    3.7173   -3.2585 N   0  0  0  0  0  0  0  0  0  0  0  0
    2.3244    3.1807   -4.4907 C   0  0  0  0  0  0  0  0  0  0  0  0
    2.3486    4.3039   -2.6750 H   0  0  0  0  0  0  0  0  0  0  0  0
    2.6852    2.1590   -4.3324 H   0  0  0  0  0  0  0  0  0  0  0  0
    1.5725    3.1695   -5.2868 H   0  0  0  0  0  0  0  0  0  0  0  0
    3.1645    3.7991   -4.8214 H   0  0  0  0  0  0  0  0  0  0  0  0
  1  2  2  0  0  0  0
  1  3  1  0  0  0  0
  1  7  1  0  0  0  0
  3  4  1  0  0  0  0
  3  5  1  0  0  0  0
  3  6  1  0  0  0  0
  7  8  1  0  0  0  0
  7 12  1  0  0  0  0
  8  9  1  0  0  0  0
  8 11  1  0  0  0  0
  8 13  1  0  0  0  0
  9 10  2  0  0  0  0
  9 17  1  0  0  0  0
 11 14  1  0  0  0  0
 11 15  1  0  0  0  0
 11 16  1  0  0  0  0
 17 18  1  0  0  0  0
 17 21  1  0  0  0  0
 18 19  1  0  0  0  0
 18 22  1  0  0  0  0
 18 23  1  0  0  0  0
 19 20  2  0  0  0  0
 19 24  1  0  0  0  0
 24 25  1  0  0  0  0
 24 29  1  0  0  0  0
 25 26  1  0  0  0  0
 25 28  1  0  0  0  0
 25 30  1  0  0  0  0
 26 27  2  0  0  0  0
 26 34  1  0  0  0  0
 28 31  1  0  0  0  0
 28 32  1  0  0  0  0
 28 33  1  0  0  0  0
 34 35  1  0  0  0  0
 34 36  1  0  0  0  0
 35 37  1  0  0  0  0
 35 38  1  0  0  0  0
 35 39  1  0  0  0  0
M  END
$$$$

  -OEChem-05262216283D

 39 38  0     1  0  0  0  0  0999 V2000
   -4.3947   -2.8883   -2.8865 C   0  0  0  0  0  0  0  0  0  0  0  0
   -3.7978   -3.3752   -3.8336 O   0  0  0  0  0  0  0  0  0  0  0  0
   -5.7297   -3.4617   -2.4497 C   0  0  0  0  0  0  0  0  0  0  0  0
   -6.5078   -2.6989   -2.5316 H   0  0  0  0  0  0  0  0  0  0  0  0
   -6.0008   -4.3110   -3.0834 H   0  0  0  0  0  0  0  0  0  0  0  0
   -5.6696   -3.8010   -1.4128 H   0  0  0  0  0  0  0  0  0  0  0  0
   -3.8512   -1.8174   -2.2086 N   0  0  0  0  0  0  0  0  0  0  0  0
   -2.5202   -1.2566   -2.4751 C   0  0  2  0  0  0  0  0  0  0  0  0
   -1.8762   -0.6716   -1.2008 C   0  0  0  0  0  0  0  0  0  0  0  0
   -2.5481   -0.4826   -0.1928 O   0  0  0  0  0  0  0  0  0  0  0  0
   -2.6609   -0.1745   -3.5515 C   0  0  0  0  0  0  0  0  0  0  0  0
   -4.3229   -1.5091   -1.3593 H   0  0  0  0  0  0  0  0  0  0  0  0
   -1.8549   -2.0461   -2.8414 H   0  0  0  0  0  0  0  0  0  0  0  0
   -3.3198    0.6278   -3.2040 H   0  0  0  0  0  0  0  0  0  0  0  0
   -1.6860    0.2572   -3.7973 H   0  0  0  0  0  0  0  0  0  0  0  0
   -3.0853   -0.6027   -4.4653 H   0  0  0  0  0  0  0  0  0  0  0  0
   -0.5492   -0.2842   -1.2048 N   0  0  0  0  0  0  0  0  0  0  0  0
    0.1777    0.2403   -0.0366 C   0  0  0  0  0  0  0  0  0  0  0  0
    0.6941    1.6522   -0.3129 C   0  0  0  0  0  0  0  0  0  0  0  0
    1.8473    1.8125   -0.6886 O   0  0  0  0  0  0  0  0  0  0  0  0
   -0.0267   -0.4349   -2.0655 H   0  0  0  0  0  0  0  0  0  0  0  0
    1.0265   -0.4118    0.1907 H   0  0  0  0  0  0  0  0  0  0  0  0
   -0.4516    0.2661    0.8584 H   0  0  0  0  0  0  0  0  0  0  0  0
   -0.2088    2.7013   -0.2995 N   0  0  0  0  0  0  0  0  0  0  0  0
    0.0378    4.0941   -0.7238 C   0  0  2  0  0  0  0  0  0  0  0  0
    0.3005    4.2537   -2.2386 C   0  0  0  0  0  0  0  0  0  0  0  0
   -0.4354    4.9668   -2.9074 O   0  0  0  0  0  0  0  0  0  0  0  0
    1.1567    4.7425    0.1037 C   0  0  0  0  0  0  0  0  0  0  0  0
   -1.1723    2.4387   -0.0986 H   0  0  0  0  0  0  0  0  0  0  0  0
   -0.8768    4.6578   -0.5124 H   0  0  0  0  0  0  0  0  0  0  0  0
    2.1323    4.3083   -0.1337 H   0  0  0  0  0  0  0  0  0  0  0  0
    1.2020    5.8156   -0.1069 H   0  0  0  0  0  0  0  0  0  0  0  0
    0.9659    4.6079    1.1727 H   0  0  0  0  0  0  0  0  0  0  0  0
    1.3296    3.5743   -2.8595 N   0  0  0  0  0  0  0  0  0  0  0  0
    1.5972    3.6285   -4.2897 C   0  0  0  0  0  0  0  0  0  0  0  0
    1.8735    2.9413   -2.2666 H   0  0  0  0  0  0  0  0  0  0  0  0
    0.7495    3.2249   -4.8531 H   0  0  0  0  0  0  0  0  0  0  0  0
    1.7727    4.6616   -4.6078 H   0  0  0  0  0  0  0  0  0  0  0  0
    2.4867    3.0379   -4.5291 H   0  0  0  0  0  0  0  0  0  0  0  0
  1  2  2  0  0  0  0
  1  3  1  0  0  0  0
  1  7  1  0  0  0  0
  3  4  1  0  0  0  0
  3  5  1  0  0  0  0
  3  6  1  0  0  0  0
  7  8  1  0  0  0  0
  7 12  1  0  0  0  0
  8  9  1  0  0  0  0
  8 11  1  0  0  0  0
  8 13  1  0  0  0  0
  9 10  2  0  0  0  0
  9 17  1  0  0  0  0
 11 14  1  0  0  0  0
 11 15  1  0  0  0  0
 11 16  1  0  0  0  0
 17 18  1  0  0  0  0
 17 21  1  0  0  0  0
 18 19  1  0  0  0  0
 18 22  1  0  0  0  0
 18 23  1  0  0  0  0
 19 20  2  0  0  0  0
 19 24  1  0  0  0  0
 24 25  1  0  0  0  0
 24 29  1  0  0  0  0
 25 26  1  0  0  0  0
 25 28  1  0  0  0  0
 25 30  1  0  0  0  0
 26 27  2  0  0  0  0
 26 34  1  0  0  0  0
 28 31  1  0  0  0  0
 28 32  1  0  0  0  0
 28 33  1  0  0  0  0
 34 35  1  0  0  0  0
 34 36  1  0  0  0  0
 35 37  1  0  0  0  0
 35 38  1  0  0  0  0
 35 39  1  0  0  0  0
M  END
$$$$

  -OEChem-05262216283D

 39 38  0     1  0  0  0  0  0999 V2000
   -4.0852   -3.5780   -2.5238 C   0  0  0  0  0  0  0  0  0  0  0  0
   -3.3340   -4.5300   -2.3825 O   0  0  0  0  0  0  0  0  0  0  0  0
   -5.5171   -3.7959   -2.9756 C   0  0  0  0  0  0  0  0  0  0  0  0
   -5.7004   -3.2559   -3.9077 H   0  0  0  0  0  0  0  0  0  0  0  0
   -5.7021   -4.8607   -3.1432 H   0  0  0  0  0  0  0  0  0  0  0  0
   -6.2092   -3.4343   -2.2112 H   0  0  0  0  0  0  0  0  0  0  0  0
   -3.6343   -2.3008   -2.2675 N   0  0  0  0  0  0  0  0  0  0  0  0
   -2.3182   -1.9823   -1.6988 C   0  0  2  0  0  0  0  0  0  0  0  0
   -2.3598   -0.6802   -0.8702 C   0  0  0  0  0  0  0  0  0  0  0  0
   -3.3547    0.0359   -0.8977 O   0  0  0  0  0  0  0  0  0  0  0  0
   -1.3104   -1.8590   -2.8473 C   0  0  0  0  0  0  0  0  0  0  0  0
   -4.3239   -1.5496   -2.2751 H   0  0  0  0  0  0  0  0  0  0  0  0
   -2.0032   -2.7876   -1.0262 H   0  0  0  0  0  0  0  0  0  0  0  0
   -1.5952   -1.0433   -3.5196 H   0  0  0  0  0  0  0  0  0  0  0  0
   -0.3067   -1.6590   -2.4611 H   0  0  0  0  0  0  0  0  0  0  0  0
   -1.2752   -2.7889   -3.4238 H   0  0  0  0  0  0  0  0  0  0  0  0
   -1.2671   -0.2908   -0.1172 N   0  0  0  0  0  0  0  0  0  0  0  0
   -1.1895    0.9490    0.6735 C   0  0  0  0  0  0  0  0  0  0  0  0
   -0.0394    1.8406    0.1993 C   0  0  0  0  0  0  0  0  0  0  0  0
    1.0911    1.6538    0.6280 O   0  0  0  0  0  0  0  0  0  0  0  0
   -0.4428   -0.8872   -0.1482 H   0  0  0  0  0  0  0  0  0  0  0  0
   -1.0307    0.7005    1.7271 H   0  0  0  0  0  0  0  0  0  0  0  0
   -2.1199    1.5226    0.6197 H   0  0  0  0  0  0  0  0  0  0  0  0
   -0.2514    2.7833   -0.7866 N   0  0  0  0  0  0  0  0  0  0  0  0
    0.7685    3.7116   -1.2905 C   0  0  2  0  0  0  0  0  0  0  0  0
    0.1463    5.0442   -1.7584 C   0  0  0  0  0  0  0  0  0  0  0  0
   -1.0633    5.1300   -1.9389 O   0  0  0  0  0  0  0  0  0  0  0  0
    1.5120    3.0332   -2.4454 C   0  0  0  0  0  0  0  0  0  0  0  0
   -1.2136    2.9420   -1.0894 H   0  0  0  0  0  0  0  0  0  0  0  0
    1.4789    3.9452   -0.4903 H   0  0  0  0  0  0  0  0  0  0  0  0
    0.8200    2.8027   -3.2618 H   0  0  0  0  0  0  0  0  0  0  0  0
    2.3015    3.6854   -2.8304 H   0  0  0  0  0  0  0  0  0  0  0  0
    1.9727    2.1006   -2.1049 H   0  0  0  0  0  0  0  0  0  0  0  0
    0.9433    6.1533   -1.9751 N   0  0  0  0  0  0  0  0  0  0  0  0
    0.4185    7.4418   -2.4119 C   0  0  0  0  0  0  0  0  0  0  0  0
    1.9412    6.0574   -1.8103 H   0  0  0  0  0  0  0  0  0  0  0  0
   -0.0618    7.3474   -3.3917 H   0  0  0  0  0  0  0  0  0  0  0  0
   -0.3176    7.8190   -1.6941 H   0  0  0  0  0  0  0  0  0  0  0  0
    1.2286    8.1733   -2.4926 H   0  0  0  0  0  0  0  0  0  0  0  0
  1  2  2  0  0  0  0
  1  3  1  0  0  0  0
  1  7  1  0  0  0  0
  3  4  1  0  0  0  0
  3  5  1  0  0  0  0
  3  6  1  0  0  0  0
  7  8  1  0  0  0  0
  7 12  1  0  0  0  0
  8  9  1  0  0  0  0
  8 11  1  0  0  0  0
  8 13  1  0  0  0  0
  9 10  2  0  0  0  0
  9 17  1  0  0  0  0
 11 14  1  0  0  0  0
 11 15  1  0  0  0  0
 11 16  1  0  0  0  0
 17 18  1  0  0  0  0
 17 21  1  0  0  0  0
 18 19  1  0  0  0  0
 18 22  1  0  0  0  0
 18 23  1  0  0  0  0
 19 20  2  0  0  0  0
 19 24  1  0  0  0  0
 24 25  1  0  0  0  0
 24 29  1  0  0  0  0
 25 26  1  0  0  0  0
 25 28  1  0  0  0  0
 25 30  1  0  0  0  0
 26 27  2  0  0  0  0
 26 34  1  0  0  0  0
 28 31  1  0  0  0  0
 28 32  1  0  0  0  0
 28 33  1  0  0  0  0
 34 35  1  0  0  0  0
 34 36  1  0  0  0  0
 35 37  1  0  0  0  0
 35 38  1  0  0  0  0
 35 39  1  0  0  0  0
M  END
$$$$

  -OEChem-05262216283D

 39 38  0     1  0  0  0  0  0999 V2000
   -4.0101   -3.6030   -2.6594 C   0  0  0  0  0  0  0  0  0  0  0  0
   -3.1844   -4.5022   -2.6602 O   0  0  0  0  0  0  0  0  0  0  0  0
   -5.4583   -3.8964   -3.0038 C   0  0  0  0  0  0  0  0  0  0  0  0
   -5.7874   -3.2477   -3.8193 H   0  0  0  0  0  0  0  0  0  0  0  0
   -5.5676   -4.9385   -3.3172 H   0  0  0  0  0  0  0  0  0  0  0  0
   -6.0918   -3.7223   -2.1306 H   0  0  0  0  0  0  0  0  0  0  0  0
   -3.6302   -2.3187   -2.3337 N   0  0  0  0  0  0  0  0  0  0  0  0
   -2.2972   -1.9462   -1.8425 C   0  0  2  0  0  0  0  0  0  0  0  0
   -2.3649   -0.7341   -0.8891 C   0  0  0  0  0  0  0  0  0  0  0  0
   -3.3940   -0.0721   -0.8074 O   0  0  0  0  0  0  0  0  0  0  0  0
   -1.4051   -1.6349   -3.0494 C   0  0  0  0  0  0  0  0  0  0  0  0
   -4.3692   -1.6246   -2.2247 H   0  0  0  0  0  0  0  0  0  0  0  0
   -1.8648   -2.7808   -1.2798 H   0  0  0  0  0  0  0  0  0  0  0  0
   -1.8131   -0.7954   -3.6215 H   0  0  0  0  0  0  0  0  0  0  0  0
   -0.3929   -1.3765   -2.7245 H   0  0  0  0  0  0  0  0  0  0  0  0
   -1.3410   -2.5067   -3.7086 H   0  0  0  0  0  0  0  0  0  0  0  0
   -1.2626   -0.3702   -0.1382 N   0  0  0  0  0  0  0  0  0  0  0  0
   -1.1876    0.8242    0.7188 C   0  0  0  0  0  0  0  0  0  0  0  0
   -0.0599    1.7563    0.2687 C   0  0  0  0  0  0  0  0  0  0  0  0
    1.1029    1.3992    0.4025 O   0  0  0  0  0  0  0  0  0  0  0  0
   -0.4032   -0.8955   -0.2891 H   0  0  0  0  0  0  0  0  0  0  0  0
   -1.0009    0.5226    1.7534 H   0  0  0  0  0  0  0  0  0  0  0  0
   -2.1285    1.3829    0.7139 H   0  0  0  0  0  0  0  0  0  0  0  0
   -0.3409    2.9265   -0.4078 N   0  0  0  0  0  0  0  0  0  0  0  0
    0.6679    3.8728   -0.9008 C   0  0  2  0  0  0  0  0  0  0  0  0
    0.1167    5.3132   -0.9674 C   0  0  0  0  0  0  0  0  0  0  0  0
   -1.0865    5.5193   -0.8539 O   0  0  0  0  0  0  0  0  0  0  0  0
    1.1246    3.4107   -2.2885 C   0  0  0  0  0  0  0  0  0  0  0  0
   -1.3180    3.2134   -0.4773 H   0  0  0  0  0  0  0  0  0  0  0  0
    1.5260    3.8817   -0.2199 H   0  0  0  0  0  0  0  0  0  0  0  0
    0.2788    3.3966   -2.9834 H   0  0  0  0  0  0  0  0  0  0  0  0
    1.8916    4.0819   -2.6858 H   0  0  0  0  0  0  0  0  0  0  0  0
    1.5462    2.4023   -2.2332 H   0  0  0  0  0  0  0  0  0  0  0  0
    0.9728    6.3830   -1.1538 N   0  0  0  0  0  0  0  0  0  0  0  0
    0.5190    7.7659   -1.2388 C   0  0  0  0  0  0  0  0  0  0  0  0
    1.9640    6.1824   -1.2500 H   0  0  0  0  0  0  0  0  0  0  0  0
   -0.1244    7.9041   -2.1140 H   0  0  0  0  0  0  0  0  0  0  0  0
   -0.0440    8.0413   -0.3408 H   0  0  0  0  0  0  0  0  0  0  0  0
    1.3756    8.4410   -1.3282 H   0  0  0  0  0  0  0  0  0  0  0  0
  1  2  2  0  0  0  0
  1  3  1  0  0  0  0
  1  7  1  0  0  0  0
  3  4  1  0  0  0  0
  3  5  1  0  0  0  0
  3  6  1  0  0  0  0
  7  8  1  0  0  0  0
  7 12  1  0  0  0  0
  8  9  1  0  0  0  0
  8 11  1  0  0  0  0
  8 13  1  0  0  0  0
  9 10  2  0  0  0  0
  9 17  1  0  0  0  0
 11 14  1  0  0  0  0
 11 15  1  0  0  0  0
 11 16  1  0  0  0  0
 17 18  1  0  0  0  0
 17 21  1  0  0  0  0
 18 19  1  0  0  0  0
 18 22  1  0  0  0  0
 18 23  1  0  0  0  0
 19 20  2  0  0  0  0
 19 24  1  0  0  0  0
 24 25  1  0  0  0  0
 24 29  1  0  0  0  0
 25 26  1  0  0  0  0
 25 28  1  0  0  0  0
 25 30  1  0  0  0  0
 26 27  2  0  0  0  0
 26 34  1  0  0  0  0
 28 31  1  0  0  0  0
 28 32  1  0  0  0  0
 28 33  1  0  0  0  0
 34 35  1  0  0  0  0
 34 36  1  0  0  0  0
 35 37  1  0  0  0  0
 35 38  1  0  0  0  0
 35 39  1  0  0  0  0
M  END
$$$$

  -OEChem-05262216283D

 39 38  0     1  0  0  0  0  0999 V2000
   -3.9366   -3.6534   -2.7455 C   0  0  0  0  0  0  0  0  0  0  0  0
   -3.0662   -4.5085   -2.7848 O   0  0  0  0  0  0  0  0  0  0  0  0
   -5.3672   -4.0062   -3.1060 C   0  0  0  0  0  0  0  0  0  0  0  0
   -5.6848   -3.4285   -3.9774 H   0  0  0  0  0  0  0  0  0  0  0  0
   -5.4444   -5.0714   -3.3417 H   0  0  0  0  0  0  0  0  0  0  0  0
   -6.0303   -3.7821   -2.2668 H   0  0  0  0  0  0  0  0  0  0  0  0
   -3.6215   -2.3656   -2.3673 N   0  0  0  0  0  0  0  0  0  0  0  0
   -2.3058   -1.9477   -1.8657 C   0  0  2  0  0  0  0  0  0  0  0  0
   -2.4203   -0.7763   -0.8673 C   0  0  0  0  0  0  0  0  0  0  0  0
   -3.4773   -0.1651   -0.7522 O   0  0  0  0  0  0  0  0  0  0  0  0
   -1.4363   -1.5478   -3.0622 C   0  0  0  0  0  0  0  0  0  0  0  0
   -4.3932   -1.7133   -2.2320 H   0  0  0  0  0  0  0  0  0  0  0  0
   -1.8317   -2.7819   -1.3371 H   0  0  0  0  0  0  0  0  0  0  0  0
   -1.8865   -0.7054   -3.5970 H   0  0  0  0  0  0  0  0  0  0  0  0
   -0.4351   -1.2561   -2.7309 H   0  0  0  0  0  0  0  0  0  0  0  0
   -1.3365   -2.3884   -3.7563 H   0  0  0  0  0  0  0  0  0  0  0  0
   -1.3251   -0.3924   -0.1160 N   0  0  0  0  0  0  0  0  0  0  0  0
   -1.2619    0.8175    0.7193 C   0  0  0  0  0  0  0  0  0  0  0  0
   -0.1335    1.7456    0.2562 C   0  0  0  0  0  0  0  0  0  0  0  0
    1.0001    1.2964    0.1414 O   0  0  0  0  0  0  0  0  0  0  0  0
   -0.4409   -0.8545   -0.3231 H   0  0  0  0  0  0  0  0  0  0  0  0
   -1.0818    0.5369    1.7609 H   0  0  0  0  0  0  0  0  0  0  0  0
   -2.2060    1.3699    0.6935 H   0  0  0  0  0  0  0  0  0  0  0  0
   -0.3987    3.0337   -0.1649 N   0  0  0  0  0  0  0  0  0  0  0  0
    0.6220    3.9939   -0.6054 C   0  0  2  0  0  0  0  0  0  0  0  0
    0.2386    5.4437   -0.2404 C   0  0  0  0  0  0  0  0  0  0  0  0
   -0.9053    5.7078    0.1130 O   0  0  0  0  0  0  0  0  0  0  0  0
    0.7947    3.8511   -2.1207 C   0  0  0  0  0  0  0  0  0  0  0  0
   -1.3392    3.3989   -0.0122 H   0  0  0  0  0  0  0  0  0  0  0  0
    1.5738    3.7740   -0.1101 H   0  0  0  0  0  0  0  0  0  0  0  0
   -0.1431    4.0849   -2.6349 H   0  0  0  0  0  0  0  0  0  0  0  0
    1.5710    4.5301   -2.4853 H   0  0  0  0  0  0  0  0  0  0  0  0
    1.0861    2.8272   -2.3753 H   0  0  0  0  0  0  0  0  0  0  0  0
    1.1789    6.4554   -0.3075 N   0  0  0  0  0  0  0  0  0  0  0  0
    0.8830    7.8459    0.0158 C   0  0  0  0  0  0  0  0  0  0  0  0
    2.1218    6.2050   -0.5910 H   0  0  0  0  0  0  0  0  0  0  0  0
    0.1053    8.2367   -0.6488 H   0  0  0  0  0  0  0  0  0  0  0  0
    0.5385    7.9338    1.0515 H   0  0  0  0  0  0  0  0  0  0  0  0
    1.7797    8.4615   -0.1034 H   0  0  0  0  0  0  0  0  0  0  0  0
  1  2  2  0  0  0  0
  1  3  1  0  0  0  0
  1  7  1  0  0  0  0
  3  4  1  0  0  0  0
  3  5  1  0  0  0  0
  3  6  1  0  0  0  0
  7  8  1  0  0  0  0
  7 12  1  0  0  0  0
  8  9  1  0  0  0  0
  8 11  1  0  0  0  0
  8 13  1  0  0  0  0
  9 10  2  0  0  0  0
  9 17  1  0  0  0  0
 11 14  1  0  0  0  0
 11 15  1  0  0  0  0
 11 16  1  0  0  0  0
 17 18  1  0  0  0  0
 17 21  1  0  0  0  0
 18 19  1  0  0  0  0
 18 22  1  0  0  0  0
 18 23  1  0  0  0  0
 19 20  2  0  0  0  0
 19 24  1  0  0  0  0
 24 25  1  0  0  0  0
 24 29  1  0  0  0  0
 25 26  1  0  0  0  0
 25 28  1  0  0  0  0
 25 30  1  0  0  0  0
 26 27  2  0  0  0  0
 26 34  1  0  0  0  0
 28 31  1  0  0  0  0
 28 32  1  0  0  0  0
 28 33  1  0  0  0  0
 34 35  1  0  0  0  0
 34 36  1  0  0  0  0
 35 37  1  0  0  0  0
 35 38  1  0  0  0  0
 35 39  1  0  0  0  0
M  END
$$$$

  -OEChem-05262216283D

 39 38  0     1  0  0  0  0  0999 V2000
   -3.9220   -3.6912   -2.7780 C   0  0  0  0  0  0  0  0  0  0  0  0
   -3.0585   -4.5541   -2.7797 O   0  0  0  0  0  0  0  0  0  0  0  0
   -5.3480   -4.0392   -3.1627 C   0  0  0  0  0  0  0  0  0  0  0  0
   -5.6809   -3.3983   -3.9826 H   0  0  0  0  0  0  0  0  0  0  0  0
   -5.4077   -5.0824   -3.4852 H   0  0  0  0  0  0  0  0  0  0  0  0
   -6.0113   -3.8969   -2.3061 H   0  0  0  0  0  0  0  0  0  0  0  0
   -3.6057   -2.3989   -2.4164 N   0  0  0  0  0  0  0  0  0  0  0  0
   -2.3014   -1.9803   -1.8850 C   0  0  2  0  0  0  0  0  0  0  0  0
   -2.4386   -0.7882   -0.9135 C   0  0  0  0  0  0  0  0  0  0  0  0
   -3.5067   -0.1930   -0.8144 O   0  0  0  0  0  0  0  0  0  0  0  0
   -1.3893   -1.6145   -3.0612 C   0  0  0  0  0  0  0  0  0  0  0  0
   -4.3778   -1.7430   -2.3023 H   0  0  0  0  0  0  0  0  0  0  0  0
   -1.8501   -2.8057   -1.3237 H   0  0  0  0  0  0  0  0  0  0  0  0
   -1.8142   -0.7826   -3.6318 H   0  0  0  0  0  0  0  0  0  0  0  0
   -0.3975   -1.3214   -2.7034 H   0  0  0  0  0  0  0  0  0  0  0  0
   -1.2720   -2.4726   -3.7308 H   0  0  0  0  0  0  0  0  0  0  0  0
   -1.3573   -0.3806   -0.1547 N   0  0  0  0  0  0  0  0  0  0  0  0
   -1.3148    0.8520    0.6490 C   0  0  0  0  0  0  0  0  0  0  0  0
   -0.1846    1.7807    0.1880 C   0  0  0  0  0  0  0  0  0  0  0  0
    0.8990    1.3005   -0.1232 O   0  0  0  0  0  0  0  0  0  0  0  0
   -0.4595   -0.8095   -0.3762 H   0  0  0  0  0  0  0  0  0  0  0  0
   -1.1567    0.6003    1.7013 H   0  0  0  0  0  0  0  0  0  0  0  0
   -2.2612    1.3977    0.5862 H   0  0  0  0  0  0  0  0  0  0  0  0
   -0.4014    3.1348    0.0267 N   0  0  0  0  0  0  0  0  0  0  0  0
    0.6420    4.1093   -0.3199 C   0  0  2  0  0  0  0  0  0  0  0  0
    0.4580    5.4342    0.4502 C   0  0  0  0  0  0  0  0  0  0  0  0
   -0.6009    5.6699    1.0218 O   0  0  0  0  0  0  0  0  0  0  0  0
    0.5852    4.3499   -1.8307 C   0  0  0  0  0  0  0  0  0  0  0  0
   -1.2786    3.5147    0.3830 H   0  0  0  0  0  0  0  0  0  0  0  0
    1.6283    3.7132   -0.0553 H   0  0  0  0  0  0  0  0  0  0  0  0
   -0.3870    4.7650   -2.1158 H   0  0  0  0  0  0  0  0  0  0  0  0
    1.3673    5.0504   -2.1386 H   0  0  0  0  0  0  0  0  0  0  0  0
    0.7339    3.4084   -2.3690 H   0  0  0  0  0  0  0  0  0  0  0  0
    1.4846    6.3586    0.5144 N   0  0  0  0  0  0  0  0  0  0  0  0
    1.3867    7.6151    1.2480 C   0  0  0  0  0  0  0  0  0  0  0  0
    2.3566    6.1279    0.0472 H   0  0  0  0  0  0  0  0  0  0  0  0
    0.5845    8.2372    0.8374 H   0  0  0  0  0  0  0  0  0  0  0  0
    1.1801    7.4270    2.3069 H   0  0  0  0  0  0  0  0  0  0  0  0
    2.3265    8.1707    1.1743 H   0  0  0  0  0  0  0  0  0  0  0  0
  1  2  2  0  0  0  0
  1  3  1  0  0  0  0
  1  7  1  0  0  0  0
  3  4  1  0  0  0  0
  3  5  1  0  0  0  0
  3  6  1  0  0  0  0
  7  8  1  0  0  0  0
  7 12  1  0  0  0  0
  8  9  1  0  0  0  0
  8 11  1  0  0  0  0
  8 13  1  0  0  0  0
  9 10  2  0  0  0  0
  9 17  1  0  0  0  0
 11 14  1  0  0  0  0
 11 15  1  0  0  0  0
 11 16  1  0  0  0  0
 17 18  1  0  0  0  0
 17 21  1  0  0  0  0
 18 19  1  0  0  0  0
 18 22  1  0  0  0  0
 18 23  1  0  0  0  0
 19 20  2  0  0  0  0
 19 24  1  0  0  0  0
 24 25  1  0  0  0  0
 24 29  1  0  0  0  0
 25 26  1  0  0  0  0
 25 28  1  0  0  0  0
 25 30  1  0  0  0  0
 26 27  2  0  0  0  0
 26 34  1  0  0  0  0
 28 31  1  0  0  0  0
 28 32  1  0  0  0  0
 28 33  1  0  0  0  0
 34 35  1  0  0  0  0
 34 36  1  0  0  0  0
 35 37  1  0  0  0  0
 35 38  1  0  0  0  0
 35 39  1  0  0  0  0
M  END
$$$$

  -OEChem-05262216283D

 39 38  0     1  0  0  0  0  0999 V2000
   -3.9454   -3.6592   -2.8244 C   0  0  0  0  0  0  0  0  0  0  0  0
   -3.0787   -4.5189   -2.8185 O   0  0  0  0  0  0  0  0  0  0  0  0
   -5.3696   -4.0177   -3.2070 C   0  0  0  0  0  0  0  0  0  0  0  0
   -5.6692   -3.4583   -4.0966 H   0  0  0  0  0  0  0  0  0  0  0  0
   -5.4436   -5.0875   -3.4219 H   0  0  0  0  0  0  0  0  0  0  0  0
   -6.0497   -3.7761   -2.3865 H   0  0  0  0  0  0  0  0  0  0  0  0
   -3.6333   -2.3617   -2.4784 N   0  0  0  0  0  0  0  0  0  0  0  0
   -2.3295   -1.9345   -1.9526 C   0  0  2  0  0  0  0  0  0  0  0  0
   -2.4708   -0.7595   -0.9613 C   0  0  0  0  0  0  0  0  0  0  0  0
   -3.5364   -0.1592   -0.8656 O   0  0  0  0  0  0  0  0  0  0  0  0
   -1.4383   -1.5377   -3.1337 C   0  0  0  0  0  0  0  0  0  0  0  0
   -4.4064   -1.7052   -2.3751 H   0  0  0  0  0  0  0  0  0  0  0  0
   -1.8606   -2.7626   -1.4101 H   0  0  0  0  0  0  0  0  0  0  0  0
   -1.8795   -0.6983   -3.6803 H   0  0  0  0  0  0  0  0  0  0  0  0
   -0.4441   -1.2428   -2.7845 H   0  0  0  0  0  0  0  0  0  0  0  0
   -1.3240   -2.3806   -3.8227 H   0  0  0  0  0  0  0  0  0  0  0  0
   -1.3988   -0.3783   -0.1757 N   0  0  0  0  0  0  0  0  0  0  0  0
   -1.3493    0.8576    0.6236 C   0  0  0  0  0  0  0  0  0  0  0  0
   -0.1874    1.7666    0.2007 C   0  0  0  0  0  0  0  0  0  0  0  0
    0.8271    1.2724   -0.2786 O   0  0  0  0  0  0  0  0  0  0  0  0
   -0.4989   -0.7934   -0.4148 H   0  0  0  0  0  0  0  0  0  0  0  0
   -1.2307    0.6054    1.6808 H   0  0  0  0  0  0  0  0  0  0  0  0
   -2.2797    1.4256    0.5273 H   0  0  0  0  0  0  0  0  0  0  0  0
   -0.2824    3.1382    0.3291 N   0  0  0  0  0  0  0  0  0  0  0  0
    0.8299    4.0712    0.1069 C   0  0  2  0  0  0  0  0  0  0  0  0
    0.7663    5.2664    1.0818 C   0  0  0  0  0  0  0  0  0  0  0  0
   -0.2425    5.4588    1.7523 O   0  0  0  0  0  0  0  0  0  0  0  0
    0.7731    4.5506   -1.3464 C   0  0  0  0  0  0  0  0  0  0  0  0
   -1.0897    3.5080    0.8318 H   0  0  0  0  0  0  0  0  0  0  0  0
    1.7834    3.5611    0.2809 H   0  0  0  0  0  0  0  0  0  0  0  0
   -0.1667    5.0781   -1.5397 H   0  0  0  0  0  0  0  0  0  0  0  0
    1.6048    5.2282   -1.5612 H   0  0  0  0  0  0  0  0  0  0  0  0
    0.8404    3.6966   -2.0281 H   0  0  0  0  0  0  0  0  0  0  0  0
    1.8481    6.1156    1.2253 N   0  0  0  0  0  0  0  0  0  0  0  0
    1.8588    7.2488    2.1428 C   0  0  0  0  0  0  0  0  0  0  0  0
    2.6778    5.9211    0.6722 H   0  0  0  0  0  0  0  0  0  0  0  0
    1.0962    7.9804    1.8564 H   0  0  0  0  0  0  0  0  0  0  0  0
    1.6602    6.9157    3.1669 H   0  0  0  0  0  0  0  0  0  0  0  0
    2.8353    7.7419    2.1249 H   0  0  0  0  0  0  0  0  0  0  0  0
  1  2  2  0  0  0  0
  1  3  1  0  0  0  0
  1  7  1  0  0  0  0
  3  4  1  0  0  0  0
  3  5  1  0  0  0  0
  3  6  1  0  0  0  0
  7  8  1  0  0  0  0
  7 12  1  0  0  0  0
  8  9  1  0  0  0  0
  8 11  1  0  0  0  0
  8 13  1  0  0  0  0
  9 10  2  0  0  0  0
  9 17  1  0  0  0  0
 11 14  1  0  0  0  0
 11 15  1  0  0  0  0
 11 16  1  0  0  0  0
 17 18  1  0  0  0  0
 17 21  1  0  0  0  0
 18 19  1  0  0  0  0
 18 22  1  0  0  0  0
 18 23  1  0  0  0  0
 19 20  2  0  0  0  0
 19 24  1  0  0  0  0
 24 25  1  0  0  0  0
 24 29  1  0  0  0  0
 25 26  1  0  0  0  0
 25 28  1  0  0  0  0
 25 30  1  0  0  0  0
 26 27  2  0  0  0  0
 26 34  1  0  0  0  0
 28 31  1  0  0  0  0
 28 32  1  0  0  0  0
 28 33  1  0  0  0  0
 34 35  1  0  0  0  0
 34 36  1  0  0  0  0
 35 37  1  0  0  0  0
 35 38  1  0  0  0  0
 35 39  1  0  0  0  0
M  END
$$$$

  -OEChem-05262216283D

 39 38  0     1  0  0  0  0  0999 V2000
   -3.9510   -3.6046   -2.8657 C   0  0  0  0  0  0  0  0  0  0  0  0
   -3.0865   -4.4666   -2.8557 O   0  0  0  0  0  0  0  0  0  0  0  0
   -5.3769   -3.9600   -3.2426 C   0  0  0  0  0  0  0  0  0  0  0  0
   -5.6905   -3.3751   -4.1107 H   0  0  0  0  0  0  0  0  0  0  0  0
   -5.4476   -5.0229   -3.4895 H   0  0  0  0  0  0  0  0  0  0  0  0
   -6.0477   -3.7474   -2.4068 H   0  0  0  0  0  0  0  0  0  0  0  0
   -3.6372   -2.3074   -2.5208 N   0  0  0  0  0  0  0  0  0  0  0  0
   -2.3383   -1.8852   -1.9809 C   0  0  2  0  0  0  0  0  0  0  0  0
   -2.4917   -0.7179   -0.9831 C   0  0  0  0  0  0  0  0  0  0  0  0
   -3.5547   -0.1097   -0.9056 O   0  0  0  0  0  0  0  0  0  0  0  0
   -1.4341   -1.4817   -3.1501 C   0  0  0  0  0  0  0  0  0  0  0  0
   -4.4104   -1.6517   -2.4133 H   0  0  0  0  0  0  0  0  0  0  0  0
   -1.8754   -2.7167   -1.4383 H   0  0  0  0  0  0  0  0  0  0  0  0
   -1.8724   -0.6449   -3.7034 H   0  0  0  0  0  0  0  0  0  0  0  0
   -0.4464   -1.1804   -2.7875 H   0  0  0  0  0  0  0  0  0  0  0  0
   -1.3058   -2.3244   -3.8370 H   0  0  0  0  0  0  0  0  0  0  0  0
   -1.4351   -0.3589   -0.1672 N   0  0  0  0  0  0  0  0  0  0  0  0
   -1.3815    0.8908    0.6102 C   0  0  0  0  0  0  0  0  0  0  0  0
   -0.1808    1.7634    0.2179 C   0  0  0  0  0  0  0  0  0  0  0  0
    0.7503    1.2780   -0.4156 O   0  0  0  0  0  0  0  0  0  0  0  0
   -0.5343   -0.7708   -0.4086 H   0  0  0  0  0  0  0  0  0  0  0  0
   -1.3106    0.6535    1.6753 H   0  0  0  0  0  0  0  0  0  0  0  0
   -2.2905    1.4830    0.4677 H   0  0  0  0  0  0  0  0  0  0  0  0
   -0.1260    3.0887    0.6004 N   0  0  0  0  0  0  0  0  0  0  0  0
    1.0497    3.9539    0.4407 C   0  0  2  0  0  0  0  0  0  0  0  0
    1.1523    4.9769    1.5922 C   0  0  0  0  0  0  0  0  0  0  0  0
    0.2105    5.1282    2.3632 O   0  0  0  0  0  0  0  0  0  0  0  0
    0.9457    4.6657   -0.9117 C   0  0  0  0  0  0  0  0  0  0  0  0
   -0.8532    3.4273    1.2311 H   0  0  0  0  0  0  0  0  0  0  0  0
    1.9615    3.3475    0.4614 H   0  0  0  0  0  0  0  0  0  0  0  0
    0.0448    5.2867   -0.9491 H   0  0  0  0  0  0  0  0  0  0  0  0
    1.8173    5.3054   -1.0797 H   0  0  0  0  0  0  0  0  0  0  0  0
    0.8964    3.9315   -1.7222 H   0  0  0  0  0  0  0  0  0  0  0  0
    2.3073    5.7135    1.7810 N   0  0  0  0  0  0  0  0  0  0  0  0
    2.4716    6.6787    2.8618 C   0  0  0  0  0  0  0  0  0  0  0  0
    3.0784    5.5567    1.1384 H   0  0  0  0  0  0  0  0  0  0  0  0
    1.7250    7.4757    2.7806 H   0  0  0  0  0  0  0  0  0  0  0  0
    2.3585    6.1878    3.8343 H   0  0  0  0  0  0  0  0  0  0  0  0
    3.4663    7.1326    2.8175 H   0  0  0  0  0  0  0  0  0  0  0  0
  1  2  2  0  0  0  0
  1  3  1  0  0  0  0
  1  7  1  0  0  0  0
  3  4  1  0  0  0  0
  3  5  1  0  0  0  0
  3  6  1  0  0  0  0
  7  8  1  0  0  0  0
  7 12  1  0  0  0  0
  8  9  1  0  0  0  0
  8 11  1  0  0  0  0
  8 13  1  0  0  0  0
  9 10  2  0  0  0  0
  9 17  1  0  0  0  0
 11 14  1  0  0  0  0
 11 15  1  0  0  0  0
 11 16  1  0  0  0  0
 17 18  1  0  0  0  0
 17 21  1  0  0  0  0
 18 19  1  0  0  0  0
 18 22  1  0  0  0  0
 18 23  1  0  0  0  0
 19 20  2  0  0  0  0
 19 24  1  0  0  0  0
 24 25  1  0  0  0  0
 24 29  1  0  0  0  0
 25 26  1  0  0  0  0
 25 28  1  0  0  0  0
 25 30  1  0  0  0  0
 26 27  2  0  0  0  0
 26 34  1  0  0  0  0
 28 31  1  0  0  0  0
 28 32  1  0  0  0  0
 28 33  1  0  0  0  0
 34 35  1  0  0  0  0
 34 36  1  0  0  0  0
 35 37  1  0  0  0  0
 35 38  1  0  0  0  0
 35 39  1  0  0  0  0
M  END
$$$$

  -OEChem-05262216283D

 39 38  0     1  0  0  0  0  0999 V2000
   -3.7565   -3.5585   -3.0378 C   0  0  0  0  0  0  0  0  0  0  0  0
   -2.8232   -4.3456   -3.0430 O   0  0  0  0  0  0  0  0  0  0  0  0
   -5.1391   -4.0182   -3.4611 C   0  0  0  0  0  0  0  0  0  0  0  0
   -5.5205   -3.3735   -4.2566 H   0  0  0  0  0  0  0  0  0  0  0  0
   -5.0971   -5.0466   -3.8312 H   0  0  0  0  0  0  0  0  0  0  0  0
   -5.8221   -3.9780   -2.6089 H   0  0  0  0  0  0  0  0  0  0  0  0
   -3.5619   -2.2570   -2.6265 N   0  0  0  0  0  0  0  0  0  0  0  0
   -2.3201   -1.7590   -2.0206 C   0  0  2  0  0  0  0  0  0  0  0  0
   -2.6005   -0.7020   -0.9328 C   0  0  0  0  0  0  0  0  0  0  0  0
   -3.6903   -0.1401   -0.8856 O   0  0  0  0  0  0  0  0  0  0  0  0
   -1.4429   -1.1666   -3.1272 C   0  0  0  0  0  0  0  0  0  0  0  0
   -4.3888   -1.6702   -2.5220 H   0  0  0  0  0  0  0  0  0  0  0  0
   -1.7845   -2.5848   -1.5401 H   0  0  0  0  0  0  0  0  0  0  0  0
   -1.9559   -0.3325   -3.6164 H   0  0  0  0  0  0  0  0  0  0  0  0
   -0.4978   -0.7994   -2.7150 H   0  0  0  0  0  0  0  0  0  0  0  0
   -1.2177   -1.9285   -3.8801 H   0  0  0  0  0  0  0  0  0  0  0  0
   -1.6198   -0.3859   -0.0108 N   0  0  0  0  0  0  0  0  0  0  0  0
   -1.6471    0.8430    0.8016 C   0  0  0  0  0  0  0  0  0  0  0  0
   -0.6380    1.8925    0.3105 C   0  0  0  0  0  0  0  0  0  0  0  0
    0.1445    1.6236   -0.5946 O   0  0  0  0  0  0  0  0  0  0  0  0
   -0.6941   -0.7427   -0.2414 H   0  0  0  0  0  0  0  0  0  0  0  0
   -1.4105    0.5903    1.8388 H   0  0  0  0  0  0  0  0  0  0  0  0
   -2.6425    1.2981    0.8011 H   0  0  0  0  0  0  0  0  0  0  0  0
   -0.5302    3.1072    0.9576 N   0  0  0  0  0  0  0  0  0  0  0  0
    0.5417    4.0832    0.7233 C   0  0  2  0  0  0  0  0  0  0  0  0
    0.9081    4.8374    2.0187 C   0  0  0  0  0  0  0  0  0  0  0  0
    0.1877    4.7446    3.0070 O   0  0  0  0  0  0  0  0  0  0  0  0
    0.0727    5.0599   -0.3587 C   0  0  0  0  0  0  0  0  0  0  0  0
   -1.0922    3.2458    1.7977 H   0  0  0  0  0  0  0  0  0  0  0  0
    1.4460    3.5698    0.3793 H   0  0  0  0  0  0  0  0  0  0  0  0
   -0.8308    5.5859   -0.0333 H   0  0  0  0  0  0  0  0  0  0  0  0
    0.8495    5.8001   -0.5728 H   0  0  0  0  0  0  0  0  0  0  0  0
   -0.1527    4.5197   -1.2840 H   0  0  0  0  0  0  0  0  0  0  0  0
    2.0539    5.6084    2.0836 N   0  0  0  0  0  0  0  0  0  0  0  0
    2.4591    6.3400    3.2777 C   0  0  0  0  0  0  0  0  0  0  0  0
    2.6390    5.6555    1.2544 H   0  0  0  0  0  0  0  0  0  0  0  0
    1.6933    7.0713    3.5569 H   0  0  0  0  0  0  0  0  0  0  0  0
    2.6115    5.6518    4.1158 H   0  0  0  0  0  0  0  0  0  0  0  0
    3.3962    6.8744    3.0949 H   0  0  0  0  0  0  0  0  0  0  0  0
  1  2  2  0  0  0  0
  1  3  1  0  0  0  0
  1  7  1  0  0  0  0
  3  4  1  0  0  0  0
  3  5  1  0  0  0  0
  3  6  1  0  0  0  0
  7  8  1  0  0  0  0
  7 12  1  0  0  0  0
  8  9  1  0  0  0  0
  8 11  1  0  0  0  0
  8 13  1  0  0  0  0
  9 10  2  0  0  0  0
  9 17  1  0  0  0  0
 11 14  1  0  0  0  0
 11 15  1  0  0  0  0
 11 16  1  0  0  0  0
 17 18  1  0  0  0  0
 17 21  1  0  0  0  0
 18 19  1  0  0  0  0
 18 22  1  0  0  0  0
 18 23  1  0  0  0  0
 19 20  2  0  0  0  0
 19 24  1  0  0  0  0
 24 25  1  0  0  0  0
 24 29  1  0  0  0  0
 25 26  1  0  0  0  0
 25 28  1  0  0  0  0
 25 30  1  0  0  0  0
 26 27  2  0  0  0  0
 26 34  1  0  0  0  0
 28 31  1  0  0  0  0
 28 32  1  0  0  0  0
 28 33  1  0  0  0  0
 34 35  1  0  0  0  0
 34 36  1  0  0  0  0
 35 37  1  0  0  0  0
 35 38  1  0  0  0  0
 35 39  1  0  0  0  0
M  END
$$$$

  -OEChem-05262216283D

 39 38  0     1  0  0  0  0  0999 V2000
   -3.8856   -3.5159   -2.7132 C   0  0  0  0  0  0  0  0  0  0  0  0
   -3.1395   -4.3872   -2.2949 O   0  0  0  0  0  0  0  0  0  0  0  0
   -5.3074   -3.8650   -3.1127 C   0  0  0  0  0  0  0  0  0  0  0  0
   -5.4567   -3.6622   -4.1760 H   0  0  0  0  0  0  0  0  0  0  0  0
   -5.5037   -4.9246   -2.9251 H   0  0  0  0  0  0  0  0  0  0  0  0
   -6.0151   -3.2684   -2.5317 H   0  0  0  0  0  0  0  0  0  0  0  0
   -3.4532   -2.2096   -2.8120 N   0  0  0  0  0  0  0  0  0  0  0  0
   -2.2129   -1.7083   -2.2012 C   0  0  2  0  0  0  0  0  0  0  0  0
   -2.5030   -0.6504   -1.1162 C   0  0  0  0  0  0  0  0  0  0  0  0
   -3.5693   -0.0432   -1.1234 O   0  0  0  0  0  0  0  0  0  0  0  0
   -1.3520   -1.1058   -3.3140 C   0  0  0  0  0  0  0  0  0  0  0  0
   -4.1815   -1.5156   -2.9707 H   0  0  0  0  0  0  0  0  0  0  0  0
   -1.6556   -2.5233   -1.7274 H   0  0  0  0  0  0  0  0  0  0  0  0
   -1.8756   -0.2735   -3.7954 H   0  0  0  0  0  0  0  0  0  0  0  0
   -0.4060   -0.7319   -2.9093 H   0  0  0  0  0  0  0  0  0  0  0  0
   -1.1287   -1.8636   -4.0716 H   0  0  0  0  0  0  0  0  0  0  0  0
   -1.5513   -0.3631   -0.1542 N   0  0  0  0  0  0  0  0  0  0  0  0
   -1.5825    0.8684    0.6551 C   0  0  0  0  0  0  0  0  0  0  0  0
   -0.5308    1.8998    0.2160 C   0  0  0  0  0  0  0  0  0  0  0  0
    0.1360    1.7193   -0.7969 O   0  0  0  0  0  0  0  0  0  0  0  0
   -0.6314   -0.7578   -0.3372 H   0  0  0  0  0  0  0  0  0  0  0  0
   -1.3980    0.6050    1.7002 H   0  0  0  0  0  0  0  0  0  0  0  0
   -2.5650    1.3483    0.6154 H   0  0  0  0  0  0  0  0  0  0  0  0
   -0.2178    2.9596    1.0444 N   0  0  0  0  0  0  0  0  0  0  0  0
    0.9070    3.8820    0.8398 C   0  0  2  0  0  0  0  0  0  0  0  0
    1.4313    4.4347    2.1823 C   0  0  0  0  0  0  0  0  0  0  0  0
    0.7945    4.2473    3.2137 O   0  0  0  0  0  0  0  0  0  0  0  0
    0.4405    5.0244   -0.0683 C   0  0  0  0  0  0  0  0  0  0  0  0
   -0.6821    3.0054    1.9517 H   0  0  0  0  0  0  0  0  0  0  0  0
    1.7364    3.3528    0.3586 H   0  0  0  0  0  0  0  0  0  0  0  0
   -0.3872    5.5692    0.3971 H   0  0  0  0  0  0  0  0  0  0  0  0
    1.2583    5.7266   -0.2555 H   0  0  0  0  0  0  0  0  0  0  0  0
    0.1002    4.6292   -1.0307 H   0  0  0  0  0  0  0  0  0  0  0  0
    2.6258    5.1289    2.2385 N   0  0  0  0  0  0  0  0  0  0  0  0
    3.1838    5.6639    3.4747 C   0  0  0  0  0  0  0  0  0  0  0  0
    3.1348    5.2627    1.3696 H   0  0  0  0  0  0  0  0  0  0  0  0
    2.4795    6.3583    3.9446 H   0  0  0  0  0  0  0  0  0  0  0  0
    3.4026    4.8541    4.1786 H   0  0  0  0  0  0  0  0  0  0  0  0
    4.1132    6.2032    3.2684 H   0  0  0  0  0  0  0  0  0  0  0  0
  1  2  2  0  0  0  0
  1  3  1  0  0  0  0
  1  7  1  0  0  0  0
  3  4  1  0  0  0  0
  3  5  1  0  0  0  0
  3  6  1  0  0  0  0
  7  8  1  0  0  0  0
  7 12  1  0  0  0  0
  8  9  1  0  0  0  0
  8 11  1  0  0  0  0
  8 13  1  0  0  0  0
  9 10  2  0  0  0  0
  9 17  1  0  0  0  0
 11 14  1  0  0  0  0
 11 15  1  0  0  0  0
 11 16  1  0  0  0  0
 17 18  1  0  0  0  0
 17 21  1  0  0  0  0
 18 19  1  0  0  0  0
 18 22  1  0  0  0  0
 18 23  1  0  0  0  0
 19 20  2  0  0  0  0
 19 24  1  0  0  0  0
 24 25  1  0  0  0  0
 24 29  1  0  0  0  0
 25 26  1  0  0  0  0
 25 28  1  0  0  0  0
 25 30  1  0  0  0  0
 26 27  2  0  0  0  0
 26 34  1  0  0  0  0
 28 31  1  0  0  0  0
 28 32  1  0  0  0  0
 28 33  1  0  0  0  0
 34 35  1  0  0  0  0
 34 36  1  0  0  0  0
 35 37  1  0  0  0  0
 35 38  1  0  0  0  0
 35 39  1  0  0  0  0
M  END
$$$$

  -OEChem-05262216283D

 39 38  0     1  0  0  0  0  0999 V2000
   -3.8792   -3.4790   -2.6330 C   0  0  0  0  0  0  0  0  0  0  0  0
   -3.1412   -4.3382   -2.1770 O   0  0  0  0  0  0  0  0  0  0  0  0
   -5.2970   -3.8351   -3.0382 C   0  0  0  0  0  0  0  0  0  0  0  0
   -5.4399   -3.6418   -4.1041 H   0  0  0  0  0  0  0  0  0  0  0  0
   -5.4913   -4.8932   -2.8418 H   0  0  0  0  0  0  0  0  0  0  0  0
   -6.0094   -3.2344   -2.4675 H   0  0  0  0  0  0  0  0  0  0  0  0
   -3.4420   -2.1782   -2.7692 N   0  0  0  0  0  0  0  0  0  0  0  0
   -2.2070   -1.6618   -2.1622 C   0  0  2  0  0  0  0  0  0  0  0  0
   -2.5053   -0.5566   -1.1277 C   0  0  0  0  0  0  0  0  0  0  0  0
   -3.5619    0.0648   -1.1851 O   0  0  0  0  0  0  0  0  0  0  0  0
   -1.3237   -1.1168   -3.2869 C   0  0  0  0  0  0  0  0  0  0  0  0
   -4.1655   -1.4870   -2.9594 H   0  0  0  0  0  0  0  0  0  0  0  0
   -1.6645   -2.4603   -1.6456 H   0  0  0  0  0  0  0  0  0  0  0  0
   -1.8299   -0.3000   -3.8117 H   0  0  0  0  0  0  0  0  0  0  0  0
   -0.3798   -0.7364   -2.8840 H   0  0  0  0  0  0  0  0  0  0  0  0
   -1.0983   -1.9089   -4.0079 H   0  0  0  0  0  0  0  0  0  0  0  0
   -1.5772   -0.2521   -0.1477 N   0  0  0  0  0  0  0  0  0  0  0  0
   -1.6007    1.0181    0.6001 C   0  0  0  0  0  0  0  0  0  0  0  0
   -0.5043    1.9953    0.1475 C   0  0  0  0  0  0  0  0  0  0  0  0
    0.0224    1.8743   -0.9524 O   0  0  0  0  0  0  0  0  0  0  0  0
   -0.6660   -0.6851   -0.2773 H   0  0  0  0  0  0  0  0  0  0  0  0
   -1.4609    0.7993    1.6622 H   0  0  0  0  0  0  0  0  0  0  0  0
   -2.5662    1.5243    0.5042 H   0  0  0  0  0  0  0  0  0  0  0  0
    0.0313    2.8954    1.0476 N   0  0  0  0  0  0  0  0  0  0  0  0
    1.2296    3.7090    0.8060 C   0  0  2  0  0  0  0  0  0  0  0  0
    1.9779    4.0071    2.1226 C   0  0  0  0  0  0  0  0  0  0  0  0
    1.4562    3.7378    3.1996 O   0  0  0  0  0  0  0  0  0  0  0  0
    0.8017    5.0093    0.1179 C   0  0  0  0  0  0  0  0  0  0  0  0
   -0.3077    2.8632    2.0092 H   0  0  0  0  0  0  0  0  0  0  0  0
    1.9212    3.1653    0.1536 H   0  0  0  0  0  0  0  0  0  0  0  0
    0.1154    5.5729    0.7580 H   0  0  0  0  0  0  0  0  0  0  0  0
    1.6718    5.6364   -0.0978 H   0  0  0  0  0  0  0  0  0  0  0  0
    0.2948    4.7889   -0.8271 H   0  0  0  0  0  0  0  0  0  0  0  0
    3.2452    4.5599    2.1031 N   0  0  0  0  0  0  0  0  0  0  0  0
    4.0125    4.8464    3.3098 C   0  0  0  0  0  0  0  0  0  0  0  0
    3.6599    4.7583    1.1971 H   0  0  0  0  0  0  0  0  0  0  0  0
    3.4649    5.5385    3.9586 H   0  0  0  0  0  0  0  0  0  0  0  0
    4.2101    3.9239    3.8663 H   0  0  0  0  0  0  0  0  0  0  0  0
    4.9714    5.3049    3.0485 H   0  0  0  0  0  0  0  0  0  0  0  0
  1  2  2  0  0  0  0
  1  3  1  0  0  0  0
  1  7  1  0  0  0  0
  3  4  1  0  0  0  0
  3  5  1  0  0  0  0
  3  6  1  0  0  0  0
  7  8  1  0  0  0  0
  7 12  1  0  0  0  0
  8  9  1  0  0  0  0
  8 11  1  0  0  0  0
  8 13  1  0  0  0  0
  9 10  2  0  0  0  0
  9 17  1  0  0  0  0
 11 14  1  0  0  0  0
 11 15  1  0  0  0  0
 11 16  1  0  0  0  0
 17 18  1  0  0  0  0
 17 21  1  0  0  0  0
 18 19  1  0  0  0  0
 18 22  1  0  0  0  0
 18 23  1  0  0  0  0
 19 20  2  0  0  0  0
 19 24  1  0  0  0  0
 24 25  1  0  0  0  0
 24 29  1  0  0  0  0
 25 26  1  0  0  0  0
 25 28  1  0  0  0  0
 25 30  1  0  0  0  0
 26 27  2  0  0  0  0
 26 34  1  0  0  0  0
 28 31  1  0  0  0  0
 28 32  1  0  0  0  0
 28 33  1  0  0  0  0
 34 35  1  0  0  0  0
 34 36  1  0  0  0  0
 35 37  1  0  0  0  0
 35 38  1  0  0  0  0
 35 39  1  0  0  0  0
M  END
$$$$

  -OEChem-05262216283D

 39 38  0     1  0  0  0  0  0999 V2000
   -3.8855   -3.4396   -2.5322 C   0  0  0  0  0  0  0  0  0  0  0  0
   -3.1553   -4.2797   -2.0303 O   0  0  0  0  0  0  0  0  0  0  0  0
   -5.3063   -3.8057   -2.9187 C   0  0  0  0  0  0  0  0  0  0  0  0
   -5.4376   -3.6989   -3.9981 H   0  0  0  0  0  0  0  0  0  0  0  0
   -5.5191   -4.8408   -2.6375 H   0  0  0  0  0  0  0  0  0  0  0  0
   -6.0141   -3.1498   -2.4058 H   0  0  0  0  0  0  0  0  0  0  0  0
   -3.4348   -2.1529   -2.7421 N   0  0  0  0  0  0  0  0  0  0  0  0
   -2.1928   -1.6171   -2.1661 C   0  0  2  0  0  0  0  0  0  0  0  0
   -2.4775   -0.4921   -1.1496 C   0  0  0  0  0  0  0  0  0  0  0  0
   -3.5288    0.1372   -1.2142 O   0  0  0  0  0  0  0  0  0  0  0  0
   -1.3329   -1.0871   -3.3158 C   0  0  0  0  0  0  0  0  0  0  0  0
   -4.1523   -1.4661   -2.9666 H   0  0  0  0  0  0  0  0  0  0  0  0
   -1.6358   -2.4024   -1.6450 H   0  0  0  0  0  0  0  0  0  0  0  0
   -1.8542   -0.2836   -3.8462 H   0  0  0  0  0  0  0  0  0  0  0  0
   -0.3852   -0.6924   -2.9361 H   0  0  0  0  0  0  0  0  0  0  0  0
   -1.1144   -1.8905   -4.0262 H   0  0  0  0  0  0  0  0  0  0  0  0
   -1.5434   -0.1817   -0.1767 N   0  0  0  0  0  0  0  0  0  0  0  0
   -1.5452    1.1050    0.5424 C   0  0  0  0  0  0  0  0  0  0  0  0
   -0.4337    2.0545    0.0698 C   0  0  0  0  0  0  0  0  0  0  0  0
   -0.0836    2.0696   -1.1038 O   0  0  0  0  0  0  0  0  0  0  0  0
   -0.6449   -0.6451   -0.2856 H   0  0  0  0  0  0  0  0  0  0  0  0
   -1.4130    0.9073    1.6095 H   0  0  0  0  0  0  0  0  0  0  0  0
   -2.5011    1.6263    0.4327 H   0  0  0  0  0  0  0  0  0  0  0  0
    0.3258    2.7390    0.9988 N   0  0  0  0  0  0  0  0  0  0  0  0
    1.5464    3.4968    0.6944 C   0  0  2  0  0  0  0  0  0  0  0  0
    2.4794    3.5723    1.9221 C   0  0  0  0  0  0  0  0  0  0  0  0
    2.0711    3.2239    3.0252 O   0  0  0  0  0  0  0  0  0  0  0  0
    1.1455    4.9023    0.2328 C   0  0  0  0  0  0  0  0  0  0  0  0
    0.1194    2.5893    1.9867 H   0  0  0  0  0  0  0  0  0  0  0  0
    2.1000    2.9967   -0.1076 H   0  0  0  0  0  0  0  0  0  0  0  0
    0.5930    5.4215    1.0228 H   0  0  0  0  0  0  0  0  0  0  0  0
    2.0316    5.4927   -0.0192 H   0  0  0  0  0  0  0  0  0  0  0  0
    0.5087    4.8430   -0.6560 H   0  0  0  0  0  0  0  0  0  0  0  0
    3.7834    4.0124    1.7885 N   0  0  0  0  0  0  0  0  0  0  0  0
    4.7131    4.1140    2.9073 C   0  0  0  0  0  0  0  0  0  0  0  0
    4.0956    4.2869    0.8613 H   0  0  0  0  0  0  0  0  0  0  0  0
    4.3654    4.8622    3.6275 H   0  0  0  0  0  0  0  0  0  0  0  0
    4.8068    3.1499    3.4186 H   0  0  0  0  0  0  0  0  0  0  0  0
    5.7038    4.4112    2.5501 H   0  0  0  0  0  0  0  0  0  0  0  0
  1  2  2  0  0  0  0
  1  3  1  0  0  0  0
  1  7  1  0  0  0  0
  3  4  1  0  0  0  0
  3  5  1  0  0  0  0
  3  6  1  0  0  0  0
  7  8  1  0  0  0  0
  7 12  1  0  0  0  0
  8  9  1  0  0  0  0
  8 11  1  0  0  0  0
  8 13  1  0  0  0  0
  9 10  2  0  0  0  0
  9 17  1  0  0  0  0
 11 14  1  0  0  0  0
 11 15  1  0  0  0  0
 11 16  1  0  0  0  0
 17 18  1  0  0  0  0
 17 21  1  0  0  0  0
 18 19  1  0  0  0  0
 18 22  1  0  0  0  0
 18 23  1  0  0  0  0
 19 20  2  0  0  0  0
 19 24  1  0  0  0  0
 24 25  1  0  0  0  0
 24 29  1  0  0  0  0
 25 26  1  0  0  0  0
 25 28  1  0  0  0  0
 25 30  1  0  0  0  0
 26 27  2  0  0  0  0
 26 34  1  0  0  0  0
 28 31  1  0  0  0  0
 28 32  1  0  0  0  0
 28 33  1  0  0  0  0
 34 35  1  0  0  0  0
 34 36  1  0  0  0  0
 35 37  1  0  0  0  0
 35 38  1  0  0  0  0
 35 39  1  0  0  0  0
M  END
$$$$

  -OEChem-05262216283D

 39 38  0     1  0  0  0  0  0999 V2000
   -3.8338   -3.4322   -2.5057 C   0  0  0  0  0  0  0  0  0  0  0  0
   -3.0733   -4.2722   -2.0507 O   0  0  0  0  0  0  0  0  0  0  0  0
   -5.2470   -3.8235   -2.8953 C   0  0  0  0  0  0  0  0  0  0  0  0
   -5.4040   -3.6392   -3.9608 H   0  0  0  0  0  0  0  0  0  0  0  0
   -5.4144   -4.8853   -2.6921 H   0  0  0  0  0  0  0  0  0  0  0  0
   -5.9686   -3.2370   -2.3210 H   0  0  0  0  0  0  0  0  0  0  0  0
   -3.4211   -2.1251   -2.6594 N   0  0  0  0  0  0  0  0  0  0  0  0
   -2.1816   -1.5813   -2.0854 C   0  0  2  0  0  0  0  0  0  0  0  0
   -2.4664   -0.4014   -1.1332 C   0  0  0  0  0  0  0  0  0  0  0  0
   -3.5172    0.2236   -1.2323 O   0  0  0  0  0  0  0  0  0  0  0  0
   -1.2871   -1.1266   -3.2408 C   0  0  0  0  0  0  0  0  0  0  0  0
   -4.1537   -1.4468   -2.8627 H   0  0  0  0  0  0  0  0  0  0  0  0
   -1.6531   -2.3483   -1.5096 H   0  0  0  0  0  0  0  0  0  0  0  0
   -1.7859   -0.3498   -3.8295 H   0  0  0  0  0  0  0  0  0  0  0  0
   -0.3449   -0.7203   -2.8604 H   0  0  0  0  0  0  0  0  0  0  0  0
   -1.0600   -1.9717   -3.8980 H   0  0  0  0  0  0  0  0  0  0  0  0
   -1.5400   -0.0506   -0.1664 N   0  0  0  0  0  0  0  0  0  0  0  0
   -1.5419    1.2643    0.5001 C   0  0  0  0  0  0  0  0  0  0  0  0
   -0.4219    2.1850   -0.0062 C   0  0  0  0  0  0  0  0  0  0  0  0
   -0.2520    2.3558   -1.2059 O   0  0  0  0  0  0  0  0  0  0  0  0
   -0.6510   -0.5397   -0.2251 H   0  0  0  0  0  0  0  0  0  0  0  0
   -1.4227    1.1138    1.5764 H   0  0  0  0  0  0  0  0  0  0  0  0
   -2.4938    1.7855    0.3582 H   0  0  0  0  0  0  0  0  0  0  0  0
    0.5312    2.6593    0.8744 N   0  0  0  0  0  0  0  0  0  0  0  0
    1.7671    3.3501    0.4833 C   0  0  2  0  0  0  0  0  0  0  0  0
    2.8876    3.1219    1.5204 C   0  0  0  0  0  0  0  0  0  0  0  0
    2.6258    2.6012    2.5998 O   0  0  0  0  0  0  0  0  0  0  0  0
    1.4619    4.8443    0.3366 C   0  0  0  0  0  0  0  0  0  0  0  0
    0.4694    2.3594    1.8475 H   0  0  0  0  0  0  0  0  0  0  0  0
    2.1235    2.9575   -0.4751 H   0  0  0  0  0  0  0  0  0  0  0  0
    1.1080    5.2577    1.2865 H   0  0  0  0  0  0  0  0  0  0  0  0
    2.3575    5.3925    0.0298 H   0  0  0  0  0  0  0  0  0  0  0  0
    0.6875    5.0003   -0.4213 H   0  0  0  0  0  0  0  0  0  0  0  0
    4.1931    3.4815    1.2403 N   0  0  0  0  0  0  0  0  0  0  0  0
    5.2948    3.2842    2.1750 C   0  0  0  0  0  0  0  0  0  0  0  0
    4.3835    3.9026    0.3354 H   0  0  0  0  0  0  0  0  0  0  0  0
    5.1217    3.8509    3.0959 H   0  0  0  0  0  0  0  0  0  0  0  0
    5.3969    2.2238    2.4287 H   0  0  0  0  0  0  0  0  0  0  0  0
    6.2351    3.6251    1.7309 H   0  0  0  0  0  0  0  0  0  0  0  0
  1  2  2  0  0  0  0
  1  3  1  0  0  0  0
  1  7  1  0  0  0  0
  3  4  1  0  0  0  0
  3  5  1  0  0  0  0
  3  6  1  0  0  0  0
  7  8  1  0  0  0  0
  7 12  1  0  0  0  0
  8  9  1  0  0  0  0
  8 11  1  0  0  0  0
  8 13  1  0  0  0  0
  9 10  2  0  0  0  0
  9 17  1  0  0  0  0
 11 14  1  0  0  0  0
 11 15  1  0  0  0  0
 11 16  1  0  0  0  0
 17 18  1  0  0  0  0
 17 21  1  0  0  0  0
 18 19  1  0  0  0  0
 18 22  1  0  0  0  0
 18 23  1  0  0  0  0
 19 20  2  0  0  0  0
 19 24  1  0  0  0  0
 24 25  1  0  0  0  0
 24 29  1  0  0  0  0
 25 26  1  0  0  0  0
 25 28  1  0  0  0  0
 25 30  1  0  0  0  0
 26 27  2  0  0  0  0
 26 34  1  0  0  0  0
 28 31  1  0  0  0  0
 28 32  1  0  0  0  0
 28 33  1  0  0  0  0
 34 35  1  0  0  0  0
 34 36  1  0  0  0  0
 35 37  1  0  0  0  0
 35 38  1  0  0  0  0
 35 39  1  0  0  0  0
M  END
$$$$

  -OEChem-05262216283D

 39 38  0     1  0  0  0  0  0999 V2000
   -3.6889   -3.3976   -2.6882 C   0  0  0  0  0  0  0  0  0  0  0  0
   -2.8465   -4.2500   -2.4538 O   0  0  0  0  0  0  0  0  0  0  0  0
   -5.0428   -3.7963   -3.2453 C   0  0  0  0  0  0  0  0  0  0  0  0
   -5.1912   -3.3392   -4.2269 H   0  0  0  0  0  0  0  0  0  0  0  0
   -5.1028   -4.8834   -3.3498 H   0  0  0  0  0  0  0  0  0  0  0  0
   -5.8363   -3.4627   -2.5717 H   0  0  0  0  0  0  0  0  0  0  0  0
   -3.4174   -2.0703   -2.4345 N   0  0  0  0  0  0  0  0  0  0  0  0
   -2.2092   -1.5839   -1.7566 C   0  0  2  0  0  0  0  0  0  0  0  0
   -2.4961   -0.3185   -0.9206 C   0  0  0  0  0  0  0  0  0  0  0  0
   -3.5561    0.2818   -1.0623 O   0  0  0  0  0  0  0  0  0  0  0  0
   -1.1443   -1.2926   -2.8184 C   0  0  0  0  0  0  0  0  0  0  0  0
   -4.1877   -1.4081   -2.5247 H   0  0  0  0  0  0  0  0  0  0  0  0
   -1.8358   -2.3518   -1.0705 H   0  0  0  0  0  0  0  0  0  0  0  0
   -1.4945   -0.5177   -3.5079 H   0  0  0  0  0  0  0  0  0  0  0  0
   -0.2171   -0.9479   -2.3513 H   0  0  0  0  0  0  0  0  0  0  0  0
   -0.9247   -2.1978   -3.3934 H   0  0  0  0  0  0  0  0  0  0  0  0
   -1.5689    0.1232    0.0076 N   0  0  0  0  0  0  0  0  0  0  0  0
   -1.5823    1.4850    0.5724 C   0  0  0  0  0  0  0  0  0  0  0  0
   -0.4768    2.3697   -0.0197 C   0  0  0  0  0  0  0  0  0  0  0  0
   -0.5083    2.7022   -1.1958 O   0  0  0  0  0  0  0  0  0  0  0  0
   -0.6825   -0.3744    0.0052 H   0  0  0  0  0  0  0  0  0  0  0  0
   -1.4561    1.4265    1.6568 H   0  0  0  0  0  0  0  0  0  0  0  0
   -2.5413    1.9822    0.3943 H   0  0  0  0  0  0  0  0  0  0  0  0
    0.6456    2.6633    0.7305 N   0  0  0  0  0  0  0  0  0  0  0  0
    1.8742    3.2625    0.1920 C   0  0  2  0  0  0  0  0  0  0  0  0
    3.1251    2.7007    0.9006 C   0  0  0  0  0  0  0  0  0  0  0  0
    3.0001    1.9940    1.8958 O   0  0  0  0  0  0  0  0  0  0  0  0
    1.7825    4.7817    0.3641 C   0  0  0  0  0  0  0  0  0  0  0  0
    0.7280    2.2165    1.6436 H   0  0  0  0  0  0  0  0  0  0  0  0
    1.9718    3.0254   -0.8731 H   0  0  0  0  0  0  0  0  0  0  0  0
    1.6999    5.0426    1.4242 H   0  0  0  0  0  0  0  0  0  0  0  0
    2.6700    5.2712   -0.0481 H   0  0  0  0  0  0  0  0  0  0  0  0
    0.9026    5.1687   -0.1600 H   0  0  0  0  0  0  0  0  0  0  0  0
    4.3905    2.9634    0.4092 N   0  0  0  0  0  0  0  0  0  0  0  0
    5.6095    2.4438    1.0176 C   0  0  0  0  0  0  0  0  0  0  0  0
    4.4627    3.5328   -0.4292 H   0  0  0  0  0  0  0  0  0  0  0  0
    5.6893    2.7735    2.0589 H   0  0  0  0  0  0  0  0  0  0  0  0
    5.6137    1.3490    0.9934 H   0  0  0  0  0  0  0  0  0  0  0  0
    6.4875    2.8049    0.4734 H   0  0  0  0  0  0  0  0  0  0  0  0
  1  2  2  0  0  0  0
  1  3  1  0  0  0  0
  1  7  1  0  0  0  0
  3  4  1  0  0  0  0
  3  5  1  0  0  0  0
  3  6  1  0  0  0  0
  7  8  1  0  0  0  0
  7 12  1  0  0  0  0
  8  9  1  0  0  0  0
  8 11  1  0  0  0  0
  8 13  1  0  0  0  0
  9 10  2  0  0  0  0
  9 17  1  0  0  0  0
 11 14  1  0  0  0  0
 11 15  1  0  0  0  0
 11 16  1  0  0  0  0
 17 18  1  0  0  0  0
 17 21  1  0  0  0  0
 18 19  1  0  0  0  0
 18 22  1  0  0  0  0
 18 23  1  0  0  0  0
 19 20  2  0  0  0  0
 19 24  1  0  0  0  0
 24 25  1  0  0  0  0
 24 29  1  0  0  0  0
 25 26  1  0  0  0  0
 25 28  1  0  0  0  0
 25 30  1  0  0  0  0
 26 27  2  0  0  0  0
 26 34  1  0  0  0  0
 28 31  1  0  0  0  0
 28 32  1  0  0  0  0
 28 33  1  0  0  0  0
 34 35  1  0  0  0  0
 34 36  1  0  0  0  0
 35 37  1  0  0  0  0
 35 38  1  0  0  0  0
 35 39  1  0  0  0  0
M  END
$$$$

  -OEChem-05262216283D

 39 38  0     1  0  0  0  0  0999 V2000
   -3.6416   -3.3713   -2.6656 C   0  0  0  0  0  0  0  0  0  0  0  0
   -2.8305   -4.2359   -2.3728 O   0  0  0  0  0  0  0  0  0  0  0  0
   -4.9778   -3.7553   -3.2722 C   0  0  0  0  0  0  0  0  0  0  0  0
   -5.0873   -3.2914   -4.2553 H   0  0  0  0  0  0  0  0  0  0  0  0
   -5.0421   -4.8412   -3.3854 H   0  0  0  0  0  0  0  0  0  0  0  0
   -5.7921   -3.4198   -2.6253 H   0  0  0  0  0  0  0  0  0  0  0  0
   -3.3482   -2.0441   -2.4362 N   0  0  0  0  0  0  0  0  0  0  0  0
   -2.1577   -1.5700   -1.7194 C   0  0  2  0  0  0  0  0  0  0  0  0
   -2.4383   -0.2635   -0.9464 C   0  0  0  0  0  0  0  0  0  0  0  0
   -3.4846    0.3464   -1.1359 O   0  0  0  0  0  0  0  0  0  0  0  0
   -1.0330   -1.3610   -2.7389 C   0  0  0  0  0  0  0  0  0  0  0  0
   -4.0972   -1.3662   -2.5757 H   0  0  0  0  0  0  0  0  0  0  0  0
   -1.8460   -2.3218   -0.9865 H   0  0  0  0  0  0  0  0  0  0  0  0
   -1.3187   -0.6008   -3.4735 H   0  0  0  0  0  0  0  0  0  0  0  0
   -0.1148   -1.0360   -2.2407 H   0  0  0  0  0  0  0  0  0  0  0  0
   -0.8238   -2.2961   -3.2685 H   0  0  0  0  0  0  0  0  0  0  0  0
   -1.5205    0.2053   -0.0216 N   0  0  0  0  0  0  0  0  0  0  0  0
   -1.5586    1.5641    0.5500 C   0  0  0  0  0  0  0  0  0  0  0  0
   -0.4767    2.4730   -0.0456 C   0  0  0  0  0  0  0  0  0  0  0  0
   -0.6737    3.0884   -1.0826 O   0  0  0  0  0  0  0  0  0  0  0  0
   -0.6451   -0.3094    0.0310 H   0  0  0  0  0  0  0  0  0  0  0  0
   -1.4229    1.5082    1.6334 H   0  0  0  0  0  0  0  0  0  0  0  0
   -2.5304    2.0390    0.3794 H   0  0  0  0  0  0  0  0  0  0  0  0
    0.7670    2.5358    0.5520 N   0  0  0  0  0  0  0  0  0  0  0  0
    1.9497    3.1537   -0.0623 C   0  0  2  0  0  0  0  0  0  0  0  0
    3.2236    2.3321    0.2300 C   0  0  0  0  0  0  0  0  0  0  0  0
    3.1733    1.3796    1.0021 O   0  0  0  0  0  0  0  0  0  0  0  0
    2.0749    4.5799    0.4799 C   0  0  0  0  0  0  0  0  0  0  0  0
    0.9494    1.8799    1.3111 H   0  0  0  0  0  0  0  0  0  0  0  0
    1.8335    3.1923   -1.1509 H   0  0  0  0  0  0  0  0  0  0  0  0
    2.2109    4.5666    1.5661 H   0  0  0  0  0  0  0  0  0  0  0  0
    2.9287    5.0921    0.0267 H   0  0  0  0  0  0  0  0  0  0  0  0
    1.1696    5.1506    0.2489 H   0  0  0  0  0  0  0  0  0  0  0  0
    4.4216    2.6424   -0.3870 N   0  0  0  0  0  0  0  0  0  0  0  0
    5.6536    1.8937   -0.1672 C   0  0  0  0  0  0  0  0  0  0  0  0
    4.4288    3.4217   -1.0391 H   0  0  0  0  0  0  0  0  0  0  0  0
    5.9184    1.8912    0.8956 H   0  0  0  0  0  0  0  0  0  0  0  0
    5.5372    0.8580   -0.5034 H   0  0  0  0  0  0  0  0  0  0  0  0
    6.4774    2.3487   -0.7255 H   0  0  0  0  0  0  0  0  0  0  0  0
  1  2  2  0  0  0  0
  1  3  1  0  0  0  0
  1  7  1  0  0  0  0
  3  4  1  0  0  0  0
  3  5  1  0  0  0  0
  3  6  1  0  0  0  0
  7  8  1  0  0  0  0
  7 12  1  0  0  0  0
  8  9  1  0  0  0  0
  8 11  1  0  0  0  0
  8 13  1  0  0  0  0
  9 10  2  0  0  0  0
  9 17  1  0  0  0  0
 11 14  1  0  0  0  0
 11 15  1  0  0  0  0
 11 16  1  0  0  0  0
 17 18  1  0  0  0  0
 17 21  1  0  0  0  0
 18 19  1  0  0  0  0
 18 22  1  0  0  0  0
 18 23  1  0  0  0  0
 19 20  2  0  0  0  0
 19 24  1  0  0  0  0
 24 25  1  0  0  0  0
 24 29  1  0  0  0  0
 25 26  1  0  0  0  0
 25 28  1  0  0  0  0
 25 30  1  0  0  0  0
 26 27  2  0  0  0  0
 26 34  1  0  0  0  0
 28 31  1  0  0  0  0
 28 32  1  0  0  0  0
 28 33  1  0  0  0  0
 34 35  1  0  0  0  0
 34 36  1  0  0  0  0
 35 37  1  0  0  0  0
 35 38  1  0  0  0  0
 35 39  1  0  0  0  0
M  END
$$$$

  -OEChem-05262216283D

 39 38  0     1  0  0  0  0  0999 V2000
   -2.3049   -3.1386   -2.5972 C   0  0  0  0  0  0  0  0  0  0  0  0
   -1.2594   -3.6830   -2.2789 O   0  0  0  0  0  0  0  0  0  0  0  0
   -3.4718   -3.9698   -3.0965 C   0  0  0  0  0  0  0  0  0  0  0  0
   -3.7020   -3.7059   -4.1315 H   0  0  0  0  0  0  0  0  0  0  0  0
   -3.2232   -5.0338   -3.0500 H   0  0  0  0  0  0  0  0  0  0  0  0
   -4.3529   -3.7869   -2.4764 H   0  0  0  0  0  0  0  0  0  0  0  0
   -2.4356   -1.7702   -2.4976 N   0  0  0  0  0  0  0  0  0  0  0  0
   -1.4514   -0.8820   -1.8658 C   0  0  2  0  0  0  0  0  0  0  0  0
   -2.1428    0.2061   -1.0198 C   0  0  0  0  0  0  0  0  0  0  0  0
   -3.2807    0.5658   -1.3044 O   0  0  0  0  0  0  0  0  0  0  0  0
   -0.6171   -0.2370   -2.9748 C   0  0  0  0  0  0  0  0  0  0  0  0
   -3.3613   -1.3768   -2.6619 H   0  0  0  0  0  0  0  0  0  0  0  0
   -0.7922   -1.4506   -1.2006 H   0  0  0  0  0  0  0  0  0  0  0  0
   -1.2600    0.3231   -3.6616 H   0  0  0  0  0  0  0  0  0  0  0  0
    0.1167    0.4535   -2.5501 H   0  0  0  0  0  0  0  0  0  0  0  0
   -0.0839   -1.0060   -3.5423 H   0  0  0  0  0  0  0  0  0  0  0  0
   -1.4889    0.7745    0.0578 N   0  0  0  0  0  0  0  0  0  0  0  0
   -1.8102    2.1315    0.5393 C   0  0  0  0  0  0  0  0  0  0  0  0
   -0.7072    3.1052    0.1168 C   0  0  0  0  0  0  0  0  0  0  0  0
   -0.7467    3.6631   -0.9704 O   0  0  0  0  0  0  0  0  0  0  0  0
   -0.5061    0.4903    0.1312 H   0  0  0  0  0  0  0  0  0  0  0  0
   -1.9008    2.1280    1.6286 H   0  0  0  0  0  0  0  0  0  0  0  0
   -2.7633    2.4920    0.1386 H   0  0  0  0  0  0  0  0  0  0  0  0
    0.4868    3.0483    0.8120 N   0  0  0  0  0  0  0  0  0  0  0  0
    1.7594    3.0537    0.0782 C   0  0  2  0  0  0  0  0  0  0  0  0
    2.0649    1.6553   -0.5105 C   0  0  0  0  0  0  0  0  0  0  0  0
    1.4485    0.6687   -0.1094 O   0  0  0  0  0  0  0  0  0  0  0  0
    2.8585    3.4843    1.0516 C   0  0  0  0  0  0  0  0  0  0  0  0
    0.4571    2.4144    1.6063 H   0  0  0  0  0  0  0  0  0  0  0  0
    1.7229    3.7761   -0.7448 H   0  0  0  0  0  0  0  0  0  0  0  0
    2.9458    2.7683    1.8751 H   0  0  0  0  0  0  0  0  0  0  0  0
    3.8234    3.5432    0.5390 H   0  0  0  0  0  0  0  0  0  0  0  0
    2.6290    4.4699    1.4686 H   0  0  0  0  0  0  0  0  0  0  0  0
    3.0295    1.4969   -1.4872 N   0  0  0  0  0  0  0  0  0  0  0  0
    3.3701    0.2082   -2.0793 C   0  0  0  0  0  0  0  0  0  0  0  0
    3.4845    2.3343   -1.8400 H   0  0  0  0  0  0  0  0  0  0  0  0
    3.7112   -0.4903   -1.3079 H   0  0  0  0  0  0  0  0  0  0  0  0
    2.5028   -0.2253   -2.5876 H   0  0  0  0  0  0  0  0  0  0  0  0
    4.1732    0.3306   -2.8123 H   0  0  0  0  0  0  0  0  0  0  0  0
  1  2  2  0  0  0  0
  1  3  1  0  0  0  0
  1  7  1  0  0  0  0
  3  4  1  0  0  0  0
  3  5  1  0  0  0  0
  3  6  1  0  0  0  0
  7  8  1  0  0  0  0
  7 12  1  0  0  0  0
  8  9  1  0  0  0  0
  8 11  1  0  0  0  0
  8 13  1  0  0  0  0
  9 10  2  0  0  0  0
  9 17  1  0  0  0  0
 11 14  1  0  0  0  0
 11 15  1  0  0  0  0
 11 16  1  0  0  0  0
 17 18  1  0  0  0  0
 17 21  1  0  0  0  0
 18 19  1  0  0  0  0
 18 22  1  0  0  0  0
 18 23  1  0  0  0  0
 19 20  2  0  0  0  0
 19 24  1  0  0  0  0
 24 25  1  0  0  0  0
 24 29  1  0  0  0  0
 25 26  1  0  0  0  0
 25 28  1  0  0  0  0
 25 30  1  0  0  0  0
 26 27  2  0  0  0  0
 26 34  1  0  0  0  0
 28 31  1  0  0  0  0
 28 32  1  0  0  0  0
 28 33  1  0  0  0  0
 34 35  1  0  0  0  0
 34 36  1  0  0  0  0
 35 37  1  0  0  0  0
 35 38  1  0  0  0  0
 35 39  1  0  0  0  0
M  END
$$$$

  -OEChem-05262216283D

 39 38  0     1  0  0  0  0  0999 V2000
   -2.2763   -2.9981   -2.8483 C   0  0  0  0  0  0  0  0  0  0  0  0
   -1.1483   -3.4563   -2.7592 O   0  0  0  0  0  0  0  0  0  0  0  0
   -3.4201   -3.8807   -3.3109 C   0  0  0  0  0  0  0  0  0  0  0  0
   -3.8292   -3.4986   -4.2493 H   0  0  0  0  0  0  0  0  0  0  0  0
   -3.0658   -4.9030   -3.4703 H   0  0  0  0  0  0  0  0  0  0  0  0
   -4.2100   -3.8957   -2.5559 H   0  0  0  0  0  0  0  0  0  0  0  0
   -2.5157   -1.6785   -2.5308 N   0  0  0  0  0  0  0  0  0  0  0  0
   -1.5125   -0.7521   -1.9918 C   0  0  2  0  0  0  0  0  0  0  0  0
   -2.1535    0.2676   -1.0291 C   0  0  0  0  0  0  0  0  0  0  0  0
   -3.2933    0.6660   -1.2435 O   0  0  0  0  0  0  0  0  0  0  0  0
   -0.8601   -0.0255   -3.1709 C   0  0  0  0  0  0  0  0  0  0  0  0
   -3.4788   -1.3476   -2.5647 H   0  0  0  0  0  0  0  0  0  0  0  0
   -0.7464   -1.3033   -1.4352 H   0  0  0  0  0  0  0  0  0  0  0  0
   -1.6167    0.4987   -3.7634 H   0  0  0  0  0  0  0  0  0  0  0  0
   -0.1330    0.7087   -2.8141 H   0  0  0  0  0  0  0  0  0  0  0  0
   -0.3437   -0.7416   -3.8174 H   0  0  0  0  0  0  0  0  0  0  0  0
   -1.4552    0.7345    0.0705 N   0  0  0  0  0  0  0  0  0  0  0  0
   -1.7245    2.0671    0.6503 C   0  0  0  0  0  0  0  0  0  0  0  0
   -0.6080    3.0487    0.2799 C   0  0  0  0  0  0  0  0  0  0  0  0
   -0.7704    3.8764   -0.6039 O   0  0  0  0  0  0  0  0  0  0  0  0
   -0.4798    0.4197    0.0820 H   0  0  0  0  0  0  0  0  0  0  0  0
   -1.7889    1.9889    1.7386 H   0  0  0  0  0  0  0  0  0  0  0  0
   -2.6783    2.4777    0.3019 H   0  0  0  0  0  0  0  0  0  0  0  0
    0.6725    2.7349    0.6962 N   0  0  0  0  0  0  0  0  0  0  0  0
    1.8054    2.7925   -0.2369 C   0  0  2  0  0  0  0  0  0  0  0  0
    2.0065    1.4185   -0.9165 C   0  0  0  0  0  0  0  0  0  0  0  0
    1.4187    0.4303   -0.4787 O   0  0  0  0  0  0  0  0  0  0  0  0
    3.0482    3.1985    0.5576 C   0  0  0  0  0  0  0  0  0  0  0  0
    0.7009    1.9447    1.3362 H   0  0  0  0  0  0  0  0  0  0  0  0
    1.6325    3.5405   -1.0182 H   0  0  0  0  0  0  0  0  0  0  0  0
    3.2612    2.4637    1.3407 H   0  0  0  0  0  0  0  0  0  0  0  0
    3.9196    3.2679   -0.1007 H   0  0  0  0  0  0  0  0  0  0  0  0
    2.8926    4.1748    1.0277 H   0  0  0  0  0  0  0  0  0  0  0  0
    2.8204    1.2851   -2.0248 N   0  0  0  0  0  0  0  0  0  0  0  0
    3.0600    0.0131   -2.6983 C   0  0  0  0  0  0  0  0  0  0  0  0
    3.2662    2.1237   -2.3866 H   0  0  0  0  0  0  0  0  0  0  0  0
    3.5714   -0.6854   -2.0276 H   0  0  0  0  0  0  0  0  0  0  0  0
    2.1167   -0.4387   -3.0216 H   0  0  0  0  0  0  0  0  0  0  0  0
    3.6870    0.1661   -3.5820 H   0  0  0  0  0  0  0  0  0  0  0  0
  1  2  2  0  0  0  0
  1  3  1  0  0  0  0
  1  7  1  0  0  0  0
  3  4  1  0  0  0  0
  3  5  1  0  0  0  0
  3  6  1  0  0  0  0
  7  8  1  0  0  0  0
  7 12  1  0  0  0  0
  8  9  1  0  0  0  0
  8 11  1  0  0  0  0
  8 13  1  0  0  0  0
  9 10  2  0  0  0  0
  9 17  1  0  0  0  0
 11 14  1  0  0  0  0
 11 15  1  0  0  0  0
 11 16  1  0  0  0  0
 17 18  1  0  0  0  0
 17 21  1  0  0  0  0
 18 19  1  0  0  0  0
 18 22  1  0  0  0  0
 18 23  1  0  0  0  0
 19 20  2  0  0  0  0
 19 24  1  0  0  0  0
 24 25  1  0  0  0  0
 24 29  1  0  0  0  0
 25 26  1  0  0  0  0
 25 28  1  0  0  0  0
 25 30  1  0  0  0  0
 26 27  2  0  0  0  0
 26 34  1  0  0  0  0
 28 31  1  0  0  0  0
 28 32  1  0  0  0  0
 28 33  1  0  0  0  0
 34 35  1  0  0  0  0
 34 36  1  0  0  0  0
 35 37  1  0  0  0  0
 35 38  1  0  0  0  0
 35 39  1  0  0  0  0
M  END
$$$$

  -OEChem-05262216283D

 39 38  0     1  0  0  0  0  0999 V2000
   -3.5674   -3.0603   -2.2502 C   0  0  0  0  0  0  0  0  0  0  0  0
   -3.1708   -3.5627   -1.2100 O   0  0  0  0  0  0  0  0  0  0  0  0
   -4.8912   -3.4979   -2.8484 C   0  0  0  0  0  0  0  0  0  0  0  0
   -4.7352   -3.8782   -3.8609 H   0  0  0  0  0  0  0  0  0  0  0  0
   -5.3374   -4.2895   -2.2397 H   0  0  0  0  0  0  0  0  0  0  0  0
   -5.5815   -2.6515   -2.8866 H   0  0  0  0  0  0  0  0  0  0  0  0
   -2.8257   -2.0806   -2.8773 N   0  0  0  0  0  0  0  0  0  0  0  0
   -1.6709   -1.4251   -2.2483 C   0  0  2  0  0  0  0  0  0  0  0  0
   -2.0646   -0.0908   -1.5816 C   0  0  0  0  0  0  0  0  0  0  0  0
   -2.8887    0.6391   -2.1186 O   0  0  0  0  0  0  0  0  0  0  0  0
   -0.6163   -1.1908   -3.3320 C   0  0  0  0  0  0  0  0  0  0  0  0
   -3.3130   -1.5516   -3.5968 H   0  0  0  0  0  0  0  0  0  0  0  0
   -1.2322   -2.0741   -1.4833 H   0  0  0  0  0  0  0  0  0  0  0  0
   -1.0033   -0.5235   -4.1088 H   0  0  0  0  0  0  0  0  0  0  0  0
    0.2802   -0.7357   -2.8998 H   0  0  0  0  0  0  0  0  0  0  0  0
   -0.3318   -2.1403   -3.7956 H   0  0  0  0  0  0  0  0  0  0  0  0
   -1.4502    0.3085   -0.4077 N   0  0  0  0  0  0  0  0  0  0  0  0
   -1.6809    1.6072    0.2580 C   0  0  0  0  0  0  0  0  0  0  0  0
   -0.5116    2.5799    0.0599 C   0  0  0  0  0  0  0  0  0  0  0  0
   -0.7121    3.7507   -0.2278 O   0  0  0  0  0  0  0  0  0  0  0  0
   -0.8098   -0.3585    0.0140 H   0  0  0  0  0  0  0  0  0  0  0  0
   -1.8215    1.4470    1.3302 H   0  0  0  0  0  0  0  0  0  0  0  0
   -2.5944    2.0822   -0.1160 H   0  0  0  0  0  0  0  0  0  0  0  0
    0.7829    2.1229    0.2194 N   0  0  0  0  0  0  0  0  0  0  0  0
    1.9373    2.7754   -0.4104 C   0  0  2  0  0  0  0  0  0  0  0  0
    2.4884    1.8958   -1.5525 C   0  0  0  0  0  0  0  0  0  0  0  0
    2.2315    0.6946   -1.5774 O   0  0  0  0  0  0  0  0  0  0  0  0
    3.0030    2.9984    0.6645 C   0  0  0  0  0  0  0  0  0  0  0  0
    0.8590    1.1114    0.2877 H   0  0  0  0  0  0  0  0  0  0  0  0
    1.6588    3.7449   -0.8367 H   0  0  0  0  0  0  0  0  0  0  0  0
    3.3106    2.0441    1.1042 H   0  0  0  0  0  0  0  0  0  0  0  0
    3.8848    3.4845    0.2356 H   0  0  0  0  0  0  0  0  0  0  0  0
    2.6084    3.6384    1.4600 H   0  0  0  0  0  0  0  0  0  0  0  0
    3.2756    2.4451   -2.5468 N   0  0  0  0  0  0  0  0  0  0  0  0
    3.7873    1.6779   -3.6761 C   0  0  0  0  0  0  0  0  0  0  0  0
    3.4142    3.4519   -2.5332 H   0  0  0  0  0  0  0  0  0  0  0  0
    4.3686    0.8185   -3.3246 H   0  0  0  0  0  0  0  0  0  0  0  0
    2.9622    1.3153   -4.2984 H   0  0  0  0  0  0  0  0  0  0  0  0
    4.4385    2.3037   -4.2940 H   0  0  0  0  0  0  0  0  0  0  0  0
  1  2  2  0  0  0  0
  1  3  1  0  0  0  0
  1  7  1  0  0  0  0
  3  4  1  0  0  0  0
  3  5  1  0  0  0  0
  3  6  1  0  0  0  0
  7  8  1  0  0  0  0
  7 12  1  0  0  0  0
  8  9  1  0  0  0  0
  8 11  1  0  0  0  0
  8 13  1  0  0  0  0
  9 10  2  0  0  0  0
  9 17  1  0  0  0  0
 11 14  1  0  0  0  0
 11 15  1  0  0  0  0
 11 16  1  0  0  0  0
 17 18  1  0  0  0  0
 17 21  1  0  0  0  0
 18 19  1  0  0  0  0
 18 22  1  0  0  0  0
 18 23  1  0  0  0  0
 19 20  2  0  0  0  0
 19 24  1  0  0  0  0
 24 25  1  0  0  0  0
 24 29  1  0  0  0  0
 25 26  1  0  0  0  0
 25 28  1  0  0  0  0
 25 30  1  0  0  0  0
 26 27  2  0  0  0  0
 26 34  1  0  0  0  0
 28 31  1  0  0  0  0
 28 32  1  0  0  0  0
 28 33  1  0  0  0  0
 34 35  1  0  0  0  0
 34 36  1  0  0  0  0
 35 37  1  0  0  0  0
 35 38  1  0  0  0  0
 35 39  1  0  0  0  0
M  END
$$$$

  -OEChem-05262216283D

 39 38  0     1  0  0  0  0  0999 V2000
   -3.8889   -3.0039   -2.1215 C   0  0  0  0  0  0  0  0  0  0  0  0
   -3.4216   -3.4271   -1.0750 O   0  0  0  0  0  0  0  0  0  0  0  0
   -5.3058   -3.3658   -2.5251 C   0  0  0  0  0  0  0  0  0  0  0  0
   -5.2999   -3.8809   -3.4887 H   0  0  0  0  0  0  0  0  0  0  0  0
   -5.7546   -4.0245   -1.7763 H   0  0  0  0  0  0  0  0  0  0  0  0
   -5.9129   -2.4607   -2.6066 H   0  0  0  0  0  0  0  0  0  0  0  0
   -3.1410   -2.1642   -2.9209 N   0  0  0  0  0  0  0  0  0  0  0  0
   -1.8849   -1.5592   -2.4597 C   0  0  2  0  0  0  0  0  0  0  0  0
   -2.1346   -0.2519   -1.6796 C   0  0  0  0  0  0  0  0  0  0  0  0
   -2.9347    0.5706   -2.1074 O   0  0  0  0  0  0  0  0  0  0  0  0
   -1.0064   -1.2902   -3.6838 C   0  0  0  0  0  0  0  0  0  0  0  0
   -3.6567   -1.6635   -3.6402 H   0  0  0  0  0  0  0  0  0  0  0  0
   -1.3492   -2.2566   -1.8069 H   0  0  0  0  0  0  0  0  0  0  0  0
   -1.4975   -0.5854   -4.3627 H   0  0  0  0  0  0  0  0  0  0  0  0
   -0.0459   -0.8627   -3.3770 H   0  0  0  0  0  0  0  0  0  0  0  0
   -0.8132   -2.2213   -4.2255 H   0  0  0  0  0  0  0  0  0  0  0  0
   -1.3965    0.0332   -0.5448 N   0  0  0  0  0  0  0  0  0  0  0  0
   -1.5761    1.2478    0.2771 C   0  0  0  0  0  0  0  0  0  0  0  0
   -0.4580    2.2751    0.0614 C   0  0  0  0  0  0  0  0  0  0  0  0
   -0.6596    3.4653    0.2545 O   0  0  0  0  0  0  0  0  0  0  0  0
   -0.8517   -0.7358   -0.1623 H   0  0  0  0  0  0  0  0  0  0  0  0
   -1.5906    0.9705    1.3344 H   0  0  0  0  0  0  0  0  0  0  0  0
   -2.5349    1.7303    0.0595 H   0  0  0  0  0  0  0  0  0  0  0  0
    0.8082    1.8432   -0.2812 N   0  0  0  0  0  0  0  0  0  0  0  0
    1.8392    2.7234   -0.8415 C   0  0  2  0  0  0  0  0  0  0  0  0
    2.4697    2.0855   -2.0980 C   0  0  0  0  0  0  0  0  0  0  0  0
    2.2771    0.8979   -2.3464 O   0  0  0  0  0  0  0  0  0  0  0  0
    2.8941    2.9754    0.2379 C   0  0  0  0  0  0  0  0  0  0  0  0
    0.8564    0.8743   -0.5920 H   0  0  0  0  0  0  0  0  0  0  0  0
    1.4011    3.6804   -1.1449 H   0  0  0  0  0  0  0  0  0  0  0  0
    3.3647    2.0348    0.5421 H   0  0  0  0  0  0  0  0  0  0  0  0
    3.6705    3.6510   -0.1339 H   0  0  0  0  0  0  0  0  0  0  0  0
    2.4296    3.4338    1.1170 H   0  0  0  0  0  0  0  0  0  0  0  0
    3.2385    2.8440   -2.9609 N   0  0  0  0  0  0  0  0  0  0  0  0
    3.8324    2.3130   -4.1819 C   0  0  0  0  0  0  0  0  0  0  0  0
    3.3442    3.8326   -2.7514 H   0  0  0  0  0  0  0  0  0  0  0  0
    4.5340    1.5056   -3.9468 H   0  0  0  0  0  0  0  0  0  0  0  0
    3.0555    1.9229   -4.8480 H   0  0  0  0  0  0  0  0  0  0  0  0
    4.3773    3.1008   -4.7111 H   0  0  0  0  0  0  0  0  0  0  0  0
  1  2  2  0  0  0  0
  1  3  1  0  0  0  0
  1  7  1  0  0  0  0
  3  4  1  0  0  0  0
  3  5  1  0  0  0  0
  3  6  1  0  0  0  0
  7  8  1  0  0  0  0
  7 12  1  0  0  0  0
  8  9  1  0  0  0  0
  8 11  1  0  0  0  0
  8 13  1  0  0  0  0
  9 10  2  0  0  0  0
  9 17  1  0  0  0  0
 11 14  1  0  0  0  0
 11 15  1  0  0  0  0
 11 16  1  0  0  0  0
 17 18  1  0  0  0  0
 17 21  1  0  0  0  0
 18 19  1  0  0  0  0
 18 22  1  0  0  0  0
 18 23  1  0  0  0  0
 19 20  2  0  0  0  0
 19 24  1  0  0  0  0
 24 25  1  0  0  0  0
 24 29  1  0  0  0  0
 25 26  1  0  0  0  0
 25 28  1  0  0  0  0
 25 30  1  0  0  0  0
 26 27  2  0  0  0  0
 26 34  1  0  0  0  0
 28 31  1  0  0  0  0
 28 32  1  0  0  0  0
 28 33  1  0  0  0  0
 34 35  1  0  0  0  0
 34 36  1  0  0  0  0
 35 37  1  0  0  0  0
 35 38  1  0  0  0  0
 35 39  1  0  0  0  0
M  END
$$$$

  -OEChem-05262216283D

 39 38  0     1  0  0  0  0  0999 V2000
   -3.9704   -3.0858   -2.0886 C   0  0  0  0  0  0  0  0  0  0  0  0
   -3.4101   -3.5609   -1.1126 O   0  0  0  0  0  0  0  0  0  0  0  0
   -5.4026   -3.4712   -2.4068 C   0  0  0  0  0  0  0  0  0  0  0  0
   -5.4678   -3.8632   -3.4247 H   0  0  0  0  0  0  0  0  0  0  0  0
   -5.7490   -4.2402   -1.7109 H   0  0  0  0  0  0  0  0  0  0  0  0
   -6.0522   -2.5971   -2.3174 H   0  0  0  0  0  0  0  0  0  0  0  0
   -3.3130   -2.1695   -2.8831 N   0  0  0  0  0  0  0  0  0  0  0  0
   -2.0372   -1.5588   -2.4888 C   0  0  2  0  0  0  0  0  0  0  0  0
   -2.2506   -0.2851   -1.6456 C   0  0  0  0  0  0  0  0  0  0  0  0
   -3.0775    0.5479   -1.9946 O   0  0  0  0  0  0  0  0  0  0  0  0
   -1.2501   -1.2325   -3.7605 C   0  0  0  0  0  0  0  0  0  0  0  0
   -3.8952   -1.6448   -3.5310 H   0  0  0  0  0  0  0  0  0  0  0  0
   -1.4463   -2.2683   -1.9003 H   0  0  0  0  0  0  0  0  0  0  0  0
   -1.7974   -0.5141   -4.3794 H   0  0  0  0  0  0  0  0  0  0  0  0
   -0.2770   -0.7992   -3.5071 H   0  0  0  0  0  0  0  0  0  0  0  0
   -1.0808   -2.1415   -4.3457 H   0  0  0  0  0  0  0  0  0  0  0  0
   -1.4453   -0.0332   -0.5492 N   0  0  0  0  0  0  0  0  0  0  0  0
   -1.5647    1.1622    0.3117 C   0  0  0  0  0  0  0  0  0  0  0  0
   -0.4534    2.1897    0.0606 C   0  0  0  0  0  0  0  0  0  0  0  0
   -0.5297    3.3149    0.5320 O   0  0  0  0  0  0  0  0  0  0  0  0
   -0.8639   -0.8048   -0.2303 H   0  0  0  0  0  0  0  0  0  0  0  0
   -1.5195    0.8570    1.3607 H   0  0  0  0  0  0  0  0  0  0  0  0
   -2.5302    1.6570    0.1633 H   0  0  0  0  0  0  0  0  0  0  0  0
    0.6723    1.8211   -0.6487 N   0  0  0  0  0  0  0  0  0  0  0  0
    1.6609    2.7649   -1.1785 C   0  0  2  0  0  0  0  0  0  0  0  0
    2.1417    2.3157   -2.5753 C   0  0  0  0  0  0  0  0  0  0  0  0
    1.8640    1.1928   -2.9884 O   0  0  0  0  0  0  0  0  0  0  0  0
    2.8307    2.8417   -0.1941 C   0  0  0  0  0  0  0  0  0  0  0  0
    0.5946    0.9394   -1.1537 H   0  0  0  0  0  0  0  0  0  0  0  0
    1.2117    3.7581   -1.2866 H   0  0  0  0  0  0  0  0  0  0  0  0
    3.3007    1.8597   -0.0796 H   0  0  0  0  0  0  0  0  0  0  0  0
    3.5850    3.5510   -0.5468 H   0  0  0  0  0  0  0  0  0  0  0  0
    2.4767    3.1751    0.7866 H   0  0  0  0  0  0  0  0  0  0  0  0
    2.8721    3.1713   -3.3788 N   0  0  0  0  0  0  0  0  0  0  0  0
    3.3204    2.8198   -4.7206 C   0  0  0  0  0  0  0  0  0  0  0  0
    3.0484    4.1093   -3.0306 H   0  0  0  0  0  0  0  0  0  0  0  0
    3.9538    1.9270   -4.6917 H   0  0  0  0  0  0  0  0  0  0  0  0
    2.4623    2.6225   -5.3717 H   0  0  0  0  0  0  0  0  0  0  0  0
    3.9020    3.6398   -5.1527 H   0  0  0  0  0  0  0  0  0  0  0  0
  1  2  2  0  0  0  0
  1  3  1  0  0  0  0
  1  7  1  0  0  0  0
  3  4  1  0  0  0  0
  3  5  1  0  0  0  0
  3  6  1  0  0  0  0
  7  8  1  0  0  0  0
  7 12  1  0  0  0  0
  8  9  1  0  0  0  0
  8 11  1  0  0  0  0
  8 13  1  0  0  0  0
  9 10  2  0  0  0  0
  9 17  1  0  0  0  0
 11 14  1  0  0  0  0
 11 15  1  0  0  0  0
 11 16  1  0  0  0  0
 17 18  1  0  0  0  0
 17 21  1  0  0  0  0
 18 19  1  0  0  0  0
 18 22  1  0  0  0  0
 18 23  1  0  0  0  0
 19 20  2  0  0  0  0
 19 24  1  0  0  0  0
 24 25  1  0  0  0  0
 24 29  1  0  0  0  0
 25 26  1  0  0  0  0
 25 28  1  0  0  0  0
 25 30  1  0  0  0  0
 26 27  2  0  0  0  0
 26 34  1  0  0  0  0
 28 31  1  0  0  0  0
 28 32  1  0  0  0  0
 28 33  1  0  0  0  0
 34 35  1  0  0  0  0
 34 36  1  0  0  0  0
 35 37  1  0  0  0  0
 35 38  1  0  0  0  0
 35 39  1  0  0  0  0
M  END
$$$$

  -OEChem-05262216283D

 39 38  0     1  0  0  0  0  0999 V2000
   -4.0599   -3.1701   -2.1061 C   0  0  0  0  0  0  0  0  0  0  0  0
   -3.4690   -3.7408   -1.2022 O   0  0  0  0  0  0  0  0  0  0  0  0
   -5.4989   -3.5323   -2.4223 C   0  0  0  0  0  0  0  0  0  0  0  0
   -5.5782   -3.8753   -3.4567 H   0  0  0  0  0  0  0  0  0  0  0  0
   -5.8411   -4.3316   -1.7586 H   0  0  0  0  0  0  0  0  0  0  0  0
   -6.1429   -2.6603   -2.2841 H   0  0  0  0  0  0  0  0  0  0  0  0
   -3.4281   -2.1777   -2.8271 N   0  0  0  0  0  0  0  0  0  0  0  0
   -2.1343   -1.6083   -2.4272 C   0  0  2  0  0  0  0  0  0  0  0  0
   -2.3090   -0.3708   -1.5239 C   0  0  0  0  0  0  0  0  0  0  0  0
   -3.1685    0.4610   -1.7870 O   0  0  0  0  0  0  0  0  0  0  0  0
   -1.3672   -1.2343   -3.6985 C   0  0  0  0  0  0  0  0  0  0  0  0
   -4.0322   -1.5904   -3.3970 H   0  0  0  0  0  0  0  0  0  0  0  0
   -1.5445   -2.3529   -1.8824 H   0  0  0  0  0  0  0  0  0  0  0  0
   -1.9056   -0.4651   -4.2621 H   0  0  0  0  0  0  0  0  0  0  0  0
   -0.3752   -0.8457   -3.4462 H   0  0  0  0  0  0  0  0  0  0  0  0
   -1.2413   -2.1130   -4.3386 H   0  0  0  0  0  0  0  0  0  0  0  0
   -1.4296   -0.1362   -0.4816 N   0  0  0  0  0  0  0  0  0  0  0  0
   -1.4993    1.0372    0.4140 C   0  0  0  0  0  0  0  0  0  0  0  0
   -0.4210    2.0868    0.1148 C   0  0  0  0  0  0  0  0  0  0  0  0
   -0.3464    3.1048    0.7871 O   0  0  0  0  0  0  0  0  0  0  0  0
   -0.7873   -0.8898   -0.2479 H   0  0  0  0  0  0  0  0  0  0  0  0
   -1.3780    0.7057    1.4491 H   0  0  0  0  0  0  0  0  0  0  0  0
   -2.4776    1.5239    0.3460 H   0  0  0  0  0  0  0  0  0  0  0  0
    0.4828    1.8751   -0.9072 N   0  0  0  0  0  0  0  0  0  0  0  0
    1.3896    2.8924   -1.4470 C   0  0  2  0  0  0  0  0  0  0  0  0
    1.6768    2.6248   -2.9406 C   0  0  0  0  0  0  0  0  0  0  0  0
    1.3327    1.5630   -3.4531 O   0  0  0  0  0  0  0  0  0  0  0  0
    2.6868    2.8830   -0.6318 C   0  0  0  0  0  0  0  0  0  0  0  0
    0.2724    1.0931   -1.5262 H   0  0  0  0  0  0  0  0  0  0  0  0
    0.9214    3.8795   -1.3705 H   0  0  0  0  0  0  0  0  0  0  0  0
    3.1767    1.9068   -0.7027 H   0  0  0  0  0  0  0  0  0  0  0  0
    3.3777    3.6479   -0.9986 H   0  0  0  0  0  0  0  0  0  0  0  0
    2.4741    3.0902    0.4219 H   0  0  0  0  0  0  0  0  0  0  0  0
    2.3044    3.5801   -3.7183 N   0  0  0  0  0  0  0  0  0  0  0  0
    2.5610    3.4106   -5.1434 C   0  0  0  0  0  0  0  0  0  0  0  0
    2.5403    4.4645   -3.2775 H   0  0  0  0  0  0  0  0  0  0  0  0
    3.1505    2.5054   -5.3233 H   0  0  0  0  0  0  0  0  0  0  0  0
    1.6184    3.3324   -5.6951 H   0  0  0  0  0  0  0  0  0  0  0  0
    3.1200    4.2674   -5.5317 H   0  0  0  0  0  0  0  0  0  0  0  0
  1  2  2  0  0  0  0
  1  3  1  0  0  0  0
  1  7  1  0  0  0  0
  3  4  1  0  0  0  0
  3  5  1  0  0  0  0
  3  6  1  0  0  0  0
  7  8  1  0  0  0  0
  7 12  1  0  0  0  0
  8  9  1  0  0  0  0
  8 11  1  0  0  0  0
  8 13  1  0  0  0  0
  9 10  2  0  0  0  0
  9 17  1  0  0  0  0
 11 14  1  0  0  0  0
 11 15  1  0  0  0  0
 11 16  1  0  0  0  0
 17 18  1  0  0  0  0
 17 21  1  0  0  0  0
 18 19  1  0  0  0  0
 18 22  1  0  0  0  0
 18 23  1  0  0  0  0
 19 20  2  0  0  0  0
 19 24  1  0  0  0  0
 24 25  1  0  0  0  0
 24 29  1  0  0  0  0
 25 26  1  0  0  0  0
 25 28  1  0  0  0  0
 25 30  1  0  0  0  0
 26 27  2  0  0  0  0
 26 34  1  0  0  0  0
 28 31  1  0  0  0  0
 28 32  1  0  0  0  0
 28 33  1  0  0  0  0
 34 35  1  0  0  0  0
 34 36  1  0  0  0  0
 35 37  1  0  0  0  0
 35 38  1  0  0  0  0
 35 39  1  0  0  0  0
M  END
$$$$

  -OEChem-05262216283D

 39 38  0     1  0  0  0  0  0999 V2000
   -4.0935   -3.2095   -2.1107 C   0  0  0  0  0  0  0  0  0  0  0  0
   -3.5266   -3.8139   -1.2135 O   0  0  0  0  0  0  0  0  0  0  0  0
   -5.5309   -3.5437   -2.4632 C   0  0  0  0  0  0  0  0  0  0  0  0
   -5.5879   -3.9040   -3.4931 H   0  0  0  0  0  0  0  0  0  0  0  0
   -5.9117   -4.3219   -1.7959 H   0  0  0  0  0  0  0  0  0  0  0  0
   -6.1579   -2.6547   -2.3598 H   0  0  0  0  0  0  0  0  0  0  0  0
   -3.4366   -2.2048   -2.7908 N   0  0  0  0  0  0  0  0  0  0  0  0
   -2.1536   -1.6502   -2.3385 C   0  0  2  0  0  0  0  0  0  0  0  0
   -2.3495   -0.4484   -1.3914 C   0  0  0  0  0  0  0  0  0  0  0  0
   -3.2456    0.3591   -1.6033 O   0  0  0  0  0  0  0  0  0  0  0  0
   -1.3598   -1.2223   -3.5764 C   0  0  0  0  0  0  0  0  0  0  0  0
   -4.0254   -1.5970   -3.3550 H   0  0  0  0  0  0  0  0  0  0  0  0
   -1.5757   -2.4158   -1.8101 H   0  0  0  0  0  0  0  0  0  0  0  0
   -1.8943   -0.4408   -4.1264 H   0  0  0  0  0  0  0  0  0  0  0  0
   -0.3797   -0.8298   -3.2873 H   0  0  0  0  0  0  0  0  0  0  0  0
   -1.2059   -2.0760   -4.2435 H   0  0  0  0  0  0  0  0  0  0  0  0
   -1.4323   -0.1927   -0.3871 N   0  0  0  0  0  0  0  0  0  0  0  0
   -1.4814    0.9817    0.5084 C   0  0  0  0  0  0  0  0  0  0  0  0
   -0.4307    2.0411    0.1534 C   0  0  0  0  0  0  0  0  0  0  0  0
   -0.1454    2.9228    0.9505 O   0  0  0  0  0  0  0  0  0  0  0  0
   -0.7199   -0.9000   -0.2224 H   0  0  0  0  0  0  0  0  0  0  0  0
   -1.3125    0.6581    1.5395 H   0  0  0  0  0  0  0  0  0  0  0  0
   -2.4675    1.4561    0.4798 H   0  0  0  0  0  0  0  0  0  0  0  0
    0.2088    1.9879   -1.0688 N   0  0  0  0  0  0  0  0  0  0  0  0
    1.0932    3.0250   -1.6069 C   0  0  2  0  0  0  0  0  0  0  0  0
    1.1078    2.9793   -3.1501 C   0  0  0  0  0  0  0  0  0  0  0  0
    0.6791    1.9916   -3.7403 O   0  0  0  0  0  0  0  0  0  0  0  0
    2.5051    2.8121   -1.0510 C   0  0  0  0  0  0  0  0  0  0  0  0
   -0.1715    1.3237   -1.7428 H   0  0  0  0  0  0  0  0  0  0  0  0
    0.7262    4.0113   -1.3030 H   0  0  0  0  0  0  0  0  0  0  0  0
    2.8888    1.8311   -1.3489 H   0  0  0  0  0  0  0  0  0  0  0  0
    3.1858    3.5818   -1.4262 H   0  0  0  0  0  0  0  0  0  0  0  0
    2.4967    2.8656    0.0423 H   0  0  0  0  0  0  0  0  0  0  0  0
    1.5907    4.0495   -3.8804 N   0  0  0  0  0  0  0  0  0  0  0  0
    1.6032    4.0828   -5.3380 C   0  0  0  0  0  0  0  0  0  0  0  0
    1.9120    4.8647   -3.3660 H   0  0  0  0  0  0  0  0  0  0  0  0
    2.2180    3.2681   -5.7348 H   0  0  0  0  0  0  0  0  0  0  0  0
    0.5867    3.9818   -5.7329 H   0  0  0  0  0  0  0  0  0  0  0  0
    2.0180    5.0317   -5.6915 H   0  0  0  0  0  0  0  0  0  0  0  0
  1  2  2  0  0  0  0
  1  3  1  0  0  0  0
  1  7  1  0  0  0  0
  3  4  1  0  0  0  0
  3  5  1  0  0  0  0
  3  6  1  0  0  0  0
  7  8  1  0  0  0  0
  7 12  1  0  0  0  0
  8  9  1  0  0  0  0
  8 11  1  0  0  0  0
  8 13  1  0  0  0  0
  9 10  2  0  0  0  0
  9 17  1  0  0  0  0
 11 14  1  0  0  0  0
 11 15  1  0  0  0  0
 11 16  1  0  0  0  0
 17 18  1  0  0  0  0
 17 21  1  0  0  0  0
 18 19  1  0  0  0  0
 18 22  1  0  0  0  0
 18 23  1  0  0  0  0
 19 20  2  0  0  0  0
 19 24  1  0  0  0  0
 24 25  1  0  0  0  0
 24 29  1  0  0  0  0
 25 26  1  0  0  0  0
 25 28  1  0  0  0  0
 25 30  1  0  0  0  0
 26 27  2  0  0  0  0
 26 34  1  0  0  0  0
 28 31  1  0  0  0  0
 28 32  1  0  0  0  0
 28 33  1  0  0  0  0
 34 35  1  0  0  0  0
 34 36  1  0  0  0  0
 35 37  1  0  0  0  0
 35 38  1  0  0  0  0
 35 39  1  0  0  0  0
M  END
$$$$

  -OEChem-05262216283D

 39 38  0     1  0  0  0  0  0999 V2000
   -4.0379   -3.3152   -2.2262 C   0  0  0  0  0  0  0  0  0  0  0  0
   -3.3884   -4.0603   -1.5091 O   0  0  0  0  0  0  0  0  0  0  0  0
   -5.4763   -3.6546   -2.5691 C   0  0  0  0  0  0  0  0  0  0  0  0
   -5.5910   -3.7400   -3.6525 H   0  0  0  0  0  0  0  0  0  0  0  0
   -5.7599   -4.6054   -2.1089 H   0  0  0  0  0  0  0  0  0  0  0  0
   -6.1428   -2.8717   -2.1987 H   0  0  0  0  0  0  0  0  0  0  0  0
   -3.4760   -2.1531   -2.7130 N   0  0  0  0  0  0  0  0  0  0  0  0
   -2.1891   -1.6206   -2.2438 C   0  0  2  0  0  0  0  0  0  0  0  0
   -2.3784   -0.4844   -1.2186 C   0  0  0  0  0  0  0  0  0  0  0  0
   -3.3248    0.2855   -1.3257 O   0  0  0  0  0  0  0  0  0  0  0  0
   -1.4237   -1.1055   -3.4664 C   0  0  0  0  0  0  0  0  0  0  0  0
   -4.1272   -1.4822   -3.1148 H   0  0  0  0  0  0  0  0  0  0  0  0
   -1.5946   -2.4104   -1.7729 H   0  0  0  0  0  0  0  0  0  0  0  0
   -1.9701   -0.2872   -3.9472 H   0  0  0  0  0  0  0  0  0  0  0  0
   -0.4364   -0.7345   -3.1740 H   0  0  0  0  0  0  0  0  0  0  0  0
   -1.2878   -1.9099   -4.1960 H   0  0  0  0  0  0  0  0  0  0  0  0
   -1.4036   -0.2251   -0.2717 N   0  0  0  0  0  0  0  0  0  0  0  0
   -1.4261    0.9258    0.6537 C   0  0  0  0  0  0  0  0  0  0  0  0
   -0.4275    2.0135    0.2419 C   0  0  0  0  0  0  0  0  0  0  0  0
    0.1012    2.7260    1.0826 O   0  0  0  0  0  0  0  0  0  0  0  0
   -0.6202   -0.8723   -0.2241 H   0  0  0  0  0  0  0  0  0  0  0  0
   -1.1772    0.5856    1.6633 H   0  0  0  0  0  0  0  0  0  0  0  0
   -2.4230    1.3746    0.7042 H   0  0  0  0  0  0  0  0  0  0  0  0
   -0.1210    2.1765   -1.0940 N   0  0  0  0  0  0  0  0  0  0  0  0
    0.7452    3.2155   -1.6584 C   0  0  2  0  0  0  0  0  0  0  0  0
    0.4892    3.3699   -3.1730 C   0  0  0  0  0  0  0  0  0  0  0  0
   -0.1005    2.4877   -3.7903 O   0  0  0  0  0  0  0  0  0  0  0  0
    2.2120    2.8442   -1.4104 C   0  0  0  0  0  0  0  0  0  0  0  0
   -0.6811    1.6383   -1.7562 H   0  0  0  0  0  0  0  0  0  0  0  0
    0.5240    4.1734   -1.1762 H   0  0  0  0  0  0  0  0  0  0  0  0
    2.4468    1.8843   -1.8812 H   0  0  0  0  0  0  0  0  0  0  0  0
    2.8765    3.6081   -1.8248 H   0  0  0  0  0  0  0  0  0  0  0  0
    2.4117    2.7634   -0.3374 H   0  0  0  0  0  0  0  0  0  0  0  0
    0.9242    4.4945   -3.8492 N   0  0  0  0  0  0  0  0  0  0  0  0
    0.7084    4.7018   -5.2760 C   0  0  0  0  0  0  0  0  0  0  0  0
    1.3958    5.2161   -3.3115 H   0  0  0  0  0  0  0  0  0  0  0  0
    1.1871    3.9052   -5.8555 H   0  0  0  0  0  0  0  0  0  0  0  0
   -0.3627    4.7089   -5.5044 H   0  0  0  0  0  0  0  0  0  0  0  0
    1.1347    5.6600   -5.5883 H   0  0  0  0  0  0  0  0  0  0  0  0
  1  2  2  0  0  0  0
  1  3  1  0  0  0  0
  1  7  1  0  0  0  0
  3  4  1  0  0  0  0
  3  5  1  0  0  0  0
  3  6  1  0  0  0  0
  7  8  1  0  0  0  0
  7 12  1  0  0  0  0
  8  9  1  0  0  0  0
  8 11  1  0  0  0  0
  8 13  1  0  0  0  0
  9 10  2  0  0  0  0
  9 17  1  0  0  0  0
 11 14  1  0  0  0  0
 11 15  1  0  0  0  0
 11 16  1  0  0  0  0
 17 18  1  0  0  0  0
 17 21  1  0  0  0  0
 18 19  1  0  0  0  0
 18 22  1  0  0  0  0
 18 23  1  0  0  0  0
 19 20  2  0  0  0  0
 19 24  1  0  0  0  0
 24 25  1  0  0  0  0
 24 29  1  0  0  0  0
 25 26  1  0  0  0  0
 25 28  1  0  0  0  0
 25 30  1  0  0  0  0
 26 27  2  0  0  0  0
 26 34  1  0  0  0  0
 28 31  1  0  0  0  0
 28 32  1  0  0  0  0
 28 33  1  0  0  0  0
 34 35  1  0  0  0  0
 34 36  1  0  0  0  0
 35 37  1  0  0  0  0
 35 38  1  0  0  0  0
 35 39  1  0  0  0  0
M  END
$$$$

  -OEChem-05262216283D

 39 38  0     1  0  0  0  0  0999 V2000
   -4.1234   -3.1277   -2.3962 C   0  0  0  0  0  0  0  0  0  0  0  0
   -3.3267   -4.0051   -2.1024 O   0  0  0  0  0  0  0  0  0  0  0  0
   -5.6138   -3.4025   -2.3243 C   0  0  0  0  0  0  0  0  0  0  0  0
   -6.0686   -3.2534   -3.3066 H   0  0  0  0  0  0  0  0  0  0  0  0
   -5.7928   -4.4336   -2.0063 H   0  0  0  0  0  0  0  0  0  0  0  0
   -6.0837   -2.7262   -1.6057 H   0  0  0  0  0  0  0  0  0  0  0  0
   -3.6793   -1.8777   -2.7752 N   0  0  0  0  0  0  0  0  0  0  0  0
   -2.2867   -1.4358   -2.6104 C   0  0  2  0  0  0  0  0  0  0  0  0
   -2.0991   -0.5831   -1.3371 C   0  0  0  0  0  0  0  0  0  0  0  0
   -3.0400    0.0400   -0.8573 O   0  0  0  0  0  0  0  0  0  0  0  0
   -1.9006   -0.6372   -3.8570 C   0  0  0  0  0  0  0  0  0  0  0  0
   -4.3877   -1.1481   -2.7872 H   0  0  0  0  0  0  0  0  0  0  0  0
   -1.6171   -2.2993   -2.5378 H   0  0  0  0  0  0  0  0  0  0  0  0
   -2.5187    0.2622   -3.9466 H   0  0  0  0  0  0  0  0  0  0  0  0
   -0.8513   -0.3307   -3.8048 H   0  0  0  0  0  0  0  0  0  0  0  0
   -2.0367   -1.2462   -4.7559 H   0  0  0  0  0  0  0  0  0  0  0  0
   -0.8479   -0.4163   -0.7742 N   0  0  0  0  0  0  0  0  0  0  0  0
   -0.6020    0.2396    0.5250 C   0  0  0  0  0  0  0  0  0  0  0  0
   -0.0262    1.6476    0.3509 C   0  0  0  0  0  0  0  0  0  0  0  0
    0.9578    1.9732    0.9976 O   0  0  0  0  0  0  0  0  0  0  0  0
   -0.0746   -0.9018   -1.2229 H   0  0  0  0  0  0  0  0  0  0  0  0
    0.1027   -0.3608    1.1082 H   0  0  0  0  0  0  0  0  0  0  0  0
   -1.5226    0.3103    1.1128 H   0  0  0  0  0  0  0  0  0  0  0  0
   -0.6207    2.4624   -0.5985 N   0  0  0  0  0  0  0  0  0  0  0  0
   -0.0990    3.6597   -1.2938 C   0  0  2  0  0  0  0  0  0  0  0  0
   -0.0541    3.4096   -2.8226 C   0  0  0  0  0  0  0  0  0  0  0  0
   -0.4862    2.3630   -3.2966 O   0  0  0  0  0  0  0  0  0  0  0  0
    1.2707    4.1648   -0.8074 C   0  0  0  0  0  0  0  0  0  0  0  0
   -1.3738    1.9818   -1.0944 H   0  0  0  0  0  0  0  0  0  0  0  0
   -0.8156    4.4682   -1.1209 H   0  0  0  0  0  0  0  0  0  0  0  0
    2.0412    3.4045   -0.9716 H   0  0  0  0  0  0  0  0  0  0  0  0
    1.5639    5.0739   -1.3394 H   0  0  0  0  0  0  0  0  0  0  0  0
    1.2317    4.4048    0.2597 H   0  0  0  0  0  0  0  0  0  0  0  0
    0.3839    4.3945   -3.6908 N   0  0  0  0  0  0  0  0  0  0  0  0
    0.4060    4.2376   -5.1406 C   0  0  0  0  0  0  0  0  0  0  0  0
    0.7319    5.2580   -3.2846 H   0  0  0  0  0  0  0  0  0  0  0  0
    1.0363    3.3885   -5.4253 H   0  0  0  0  0  0  0  0  0  0  0  0
   -0.6061    4.0694   -5.5235 H   0  0  0  0  0  0  0  0  0  0  0  0
    0.8082    5.1391   -5.6125 H   0  0  0  0  0  0  0  0  0  0  0  0
  1  2  2  0  0  0  0
  1  3  1  0  0  0  0
  1  7  1  0  0  0  0
  3  4  1  0  0  0  0
  3  5  1  0  0  0  0
  3  6  1  0  0  0  0
  7  8  1  0  0  0  0
  7 12  1  0  0  0  0
  8  9  1  0  0  0  0
  8 11  1  0  0  0  0
  8 13  1  0  0  0  0
  9 10  2  0  0  0  0
  9 17  1  0  0  0  0
 11 14  1  0  0  0  0
 11 15  1  0  0  0  0
 11 16  1  0  0  0  0
 17 18  1  0  0  0  0
 17 21  1  0  0  0  0
 18 19  1  0  0  0  0
 18 22  1  0  0  0  0
 18 23  1  0  0  0  0
 19 20  2  0  0  0  0
 19 24  1  0  0  0  0
 24 25  1  0  0  0  0
 24 29  1  0  0  0  0
 25 26  1  0  0  0  0
 25 28  1  0  0  0  0
 25 30  1  0  0  0  0
 26 27  2  0  0  0  0
 26 34  1  0  0  0  0
 28 31  1  0  0  0  0
 28 32  1  0  0  0  0
 28 33  1  0  0  0  0
 34 35  1  0  0  0  0
 34 36  1  0  0  0  0
 35 37  1  0  0  0  0
 35 38  1  0  0  0  0
 35 39  1  0  0  0  0
M  END
$$$$

  -OEChem-05262216283D

 39 38  0     1  0  0  0  0  0999 V2000
   -4.4191   -3.2752   -2.4474 C   0  0  0  0  0  0  0  0  0  0  0  0
   -3.8114   -3.9572   -3.2569 O   0  0  0  0  0  0  0  0  0  0  0  0
   -5.7136   -3.7826   -1.8405 C   0  0  0  0  0  0  0  0  0  0  0  0
   -6.5199   -3.0706   -2.0326 H   0  0  0  0  0  0  0  0  0  0  0  0
   -5.9834   -4.7466   -2.2808 H   0  0  0  0  0  0  0  0  0  0  0  0
   -5.5968   -3.9081   -0.7614 H   0  0  0  0  0  0  0  0  0  0  0  0
   -3.9226   -2.0433   -2.0766 N   0  0  0  0  0  0  0  0  0  0  0  0
   -2.6255   -1.5079   -2.5099 C   0  0  2  0  0  0  0  0  0  0  0  0
   -1.9653   -0.6529   -1.4092 C   0  0  0  0  0  0  0  0  0  0  0  0
   -2.6311   -0.2077   -0.4800 O   0  0  0  0  0  0  0  0  0  0  0  0
   -2.8514   -0.6751   -3.7756 C   0  0  0  0  0  0  0  0  0  0  0  0
   -4.3979   -1.5544   -1.3192 H   0  0  0  0  0  0  0  0  0  0  0  0
   -1.9408   -2.3322   -2.7375 H   0  0  0  0  0  0  0  0  0  0  0  0
   -3.5232    0.1641   -3.5675 H   0  0  0  0  0  0  0  0  0  0  0  0
   -1.9038   -0.2775   -4.1517 H   0  0  0  0  0  0  0  0  0  0  0  0
   -3.2997   -1.2937   -4.5598 H   0  0  0  0  0  0  0  0  0  0  0  0
   -0.6393   -0.2748   -1.5017 N   0  0  0  0  0  0  0  0  0  0  0  0
    0.0993    0.3798   -0.4073 C   0  0  0  0  0  0  0  0  0  0  0  0
    0.2859    1.8710   -0.6875 C   0  0  0  0  0  0  0  0  0  0  0  0
    1.4064    2.3329   -0.8539 O   0  0  0  0  0  0  0  0  0  0  0  0
   -0.1108   -0.6322   -2.2947 H   0  0  0  0  0  0  0  0  0  0  0  0
    1.0832   -0.0865   -0.2993 H   0  0  0  0  0  0  0  0  0  0  0  0
   -0.4137    0.2616    0.5525 H   0  0  0  0  0  0  0  0  0  0  0  0
   -0.8495    2.6465   -0.8422 N   0  0  0  0  0  0  0  0  0  0  0  0
   -0.9218    4.0837   -1.1721 C   0  0  2  0  0  0  0  0  0  0  0  0
   -0.4297    4.4472   -2.5920 C   0  0  0  0  0  0  0  0  0  0  0  0
   -1.1364    5.1345   -3.3174 O   0  0  0  0  0  0  0  0  0  0  0  0
   -0.2027    4.9269   -0.1107 C   0  0  0  0  0  0  0  0  0  0  0  0
   -1.7292    2.1404   -0.7330 H   0  0  0  0  0  0  0  0  0  0  0  0
   -1.9798    4.3639   -1.1382 H   0  0  0  0  0  0  0  0  0  0  0  0
    0.8786    4.7645   -0.1395 H   0  0  0  0  0  0  0  0  0  0  0  0
   -0.3922    5.9906   -0.2855 H   0  0  0  0  0  0  0  0  0  0  0  0
   -0.5670    4.6708    0.8887 H   0  0  0  0  0  0  0  0  0  0  0  0
    0.7961    4.0163   -3.0587 N   0  0  0  0  0  0  0  0  0  0  0  0
    1.3488    4.3759   -4.3569 C   0  0  0  0  0  0  0  0  0  0  0  0
    1.3602    3.4682   -2.4036 H   0  0  0  0  0  0  0  0  0  0  0  0
    0.6674    4.0776   -5.1606 H   0  0  0  0  0  0  0  0  0  0  0  0
    1.5122    5.4569   -4.4159 H   0  0  0  0  0  0  0  0  0  0  0  0
    2.3071    3.8707   -4.5113 H   0  0  0  0  0  0  0  0  0  0  0  0
  1  2  2  0  0  0  0
  1  3  1  0  0  0  0
  1  7  1  0  0  0  0
  3  4  1  0  0  0  0
  3  5  1  0  0  0  0
  3  6  1  0  0  0  0
  7  8  1  0  0  0  0
  7 12  1  0  0  0  0
  8  9  1  0  0  0  0
  8 11  1  0  0  0  0
  8 13  1  0  0  0  0
  9 10  2  0  0  0  0
  9 17  1  0  0  0  0
 11 14  1  0  0  0  0
 11 15  1  0  0  0  0
 11 16  1  0  0  0  0
 17 18  1  0  0  0  0
 17 21  1  0  0  0  0
 18 19  1  0  0  0  0
 18 22  1  0  0  0  0
 18 23  1  0  0  0  0
 19 20  2  0  0  0  0
 19 24  1  0  0  0  0
 24 25  1  0  0  0  0
 24 29  1  0  0  0  0
 25 26  1  0  0  0  0
 25 28  1  0  0  0  0
 25 30  1  0  0  0  0
 26 27  2  0  0  0  0
 26 34  1  0  0  0  0
 28 31  1  0  0  0  0
 28 32  1  0  0  0  0
 28 33  1  0  0  0  0
 34 35  1  0  0  0  0
 34 36  1  0  0  0  0
 35 37  1  0  0  0  0
 35 38  1  0  0  0  0
 35 39  1  0  0  0  0
M  END
$$$$

  -OEChem-05262216283D

 39 38  0     1  0  0  0  0  0999 V2000
   -4.3695   -2.9222   -2.7876 C   0  0  0  0  0  0  0  0  0  0  0  0
   -3.7718   -3.4283   -3.7240 O   0  0  0  0  0  0  0  0  0  0  0  0
   -5.6739   -3.5242   -2.3007 C   0  0  0  0  0  0  0  0  0  0  0  0
   -6.4572   -2.7622   -2.2914 H   0  0  0  0  0  0  0  0  0  0  0  0
   -5.9831   -4.3379   -2.9627 H   0  0  0  0  0  0  0  0  0  0  0  0
   -5.5476   -3.9200   -1.2901 H   0  0  0  0  0  0  0  0  0  0  0  0
   -3.8512   -1.8078   -2.1624 N   0  0  0  0  0  0  0  0  0  0  0  0
   -2.5449   -1.2140   -2.4752 C   0  0  2  0  0  0  0  0  0  0  0  0
   -1.8820   -0.5955   -1.2273 C   0  0  0  0  0  0  0  0  0  0  0  0
   -2.5412   -0.3630   -0.2190 O   0  0  0  0  0  0  0  0  0  0  0  0
   -2.7487   -0.1477   -3.5575 C   0  0  0  0  0  0  0  0  0  0  0  0
   -4.3194   -1.4820   -1.3178 H   0  0  0  0  0  0  0  0  0  0  0  0
   -1.8680   -1.9879   -2.8533 H   0  0  0  0  0  0  0  0  0  0  0  0
   -3.4155    0.6425   -3.1969 H   0  0  0  0  0  0  0  0  0  0  0  0
   -1.7934    0.3057   -3.8390 H   0  0  0  0  0  0  0  0  0  0  0  0
   -3.1926   -0.5959   -4.4523 H   0  0  0  0  0  0  0  0  0  0  0  0
   -0.5634   -0.1832   -1.2630 N   0  0  0  0  0  0  0  0  0  0  0  0
    0.1470    0.4072   -0.1171 C   0  0  0  0  0  0  0  0  0  0  0  0
    0.2955    1.9151   -0.3139 C   0  0  0  0  0  0  0  0  0  0  0  0
    1.3279    2.3696   -0.7878 O   0  0  0  0  0  0  0  0  0  0  0  0
   -0.0517   -0.3264   -2.1311 H   0  0  0  0  0  0  0  0  0  0  0  0
    1.1418   -0.0401   -0.0300 H   0  0  0  0  0  0  0  0  0  0  0  0
   -0.3703    0.2140    0.8280 H   0  0  0  0  0  0  0  0  0  0  0  0
   -0.8245    2.7058   -0.1249 N   0  0  0  0  0  0  0  0  0  0  0  0
   -0.9837    4.1265   -0.4953 C   0  0  2  0  0  0  0  0  0  0  0  0
   -0.9691    4.3844   -2.0194 C   0  0  0  0  0  0  0  0  0  0  0  0
   -1.9110    4.9630   -2.5440 O   0  0  0  0  0  0  0  0  0  0  0  0
    0.0417    5.0144    0.2232 C   0  0  0  0  0  0  0  0  0  0  0  0
   -1.6708    2.1904    0.1184 H   0  0  0  0  0  0  0  0  0  0  0  0
   -1.9725    4.4380   -0.1428 H   0  0  0  0  0  0  0  0  0  0  0  0
    1.0536    4.8410   -0.1540 H   0  0  0  0  0  0  0  0  0  0  0  0
   -0.2033    6.0696    0.0661 H   0  0  0  0  0  0  0  0  0  0  0  0
    0.0309    4.8134    1.2986 H   0  0  0  0  0  0  0  0  0  0  0  0
    0.0758    3.9455   -2.8081 N   0  0  0  0  0  0  0  0  0  0  0  0
    0.1501    4.1424   -4.2487 C   0  0  0  0  0  0  0  0  0  0  0  0
    0.8321    3.4546   -2.3236 H   0  0  0  0  0  0  0  0  0  0  0  0
   -0.7042    3.6698   -4.7440 H   0  0  0  0  0  0  0  0  0  0  0  0
    0.1516    5.2106   -4.4892 H   0  0  0  0  0  0  0  0  0  0  0  0
    1.0681    3.6970   -4.6434 H   0  0  0  0  0  0  0  0  0  0  0  0
  1  2  2  0  0  0  0
  1  3  1  0  0  0  0
  1  7  1  0  0  0  0
  3  4  1  0  0  0  0
  3  5  1  0  0  0  0
  3  6  1  0  0  0  0
  7  8  1  0  0  0  0
  7 12  1  0  0  0  0
  8  9  1  0  0  0  0
  8 11  1  0  0  0  0
  8 13  1  0  0  0  0
  9 10  2  0  0  0  0
  9 17  1  0  0  0  0
 11 14  1  0  0  0  0
 11 15  1  0  0  0  0
 11 16  1  0  0  0  0
 17 18  1  0  0  0  0
 17 21  1  0  0  0  0
 18 19  1  0  0  0  0
 18 22  1  0  0  0  0
 18 23  1  0  0  0  0
 19 20  2  0  0  0  0
 19 24  1  0  0  0  0
 24 25  1  0  0  0  0
 24 29  1  0  0  0  0
 25 26  1  0  0  0  0
 25 28  1  0  0  0  0
 25 30  1  0  0  0  0
 26 27  2  0  0  0  0
 26 34  1  0  0  0  0
 28 31  1  0  0  0  0
 28 32  1  0  0  0  0
 28 33  1  0  0  0  0
 34 35  1  0  0  0  0
 34 36  1  0  0  0  0
 35 37  1  0  0  0  0
 35 38  1  0  0  0  0
 35 39  1  0  0  0  0
M  END
$$$$

  -OEChem-05262216283D

 39 38  0     1  0  0  0  0  0999 V2000
   -3.8930   -3.5350   -2.7121 C   0  0  0  0  0  0  0  0  0  0  0  0
   -3.0957   -4.4589   -2.6799 O   0  0  0  0  0  0  0  0  0  0  0  0
   -5.3186   -3.7726   -3.1742 C   0  0  0  0  0  0  0  0  0  0  0  0
   -5.5537   -3.1135   -4.0134 H   0  0  0  0  0  0  0  0  0  0  0  0
   -5.4434   -4.8102   -3.4966 H   0  0  0  0  0  0  0  0  0  0  0  0
   -6.0143   -3.5717   -2.3558 H   0  0  0  0  0  0  0  0  0  0  0  0
   -3.5005   -2.2731   -2.3200 N   0  0  0  0  0  0  0  0  0  0  0  0
   -2.1932   -1.9545   -1.7311 C   0  0  2  0  0  0  0  0  0  0  0  0
   -2.2844   -0.7540   -0.7646 C   0  0  0  0  0  0  0  0  0  0  0  0
   -3.3089   -0.0819   -0.7117 O   0  0  0  0  0  0  0  0  0  0  0  0
   -1.2114   -1.6567   -2.8695 C   0  0  0  0  0  0  0  0  0  0  0  0
   -4.2244   -1.5589   -2.2438 H   0  0  0  0  0  0  0  0  0  0  0  0
   -1.8299   -2.8121   -1.1543 H   0  0  0  0  0  0  0  0  0  0  0  0
   -1.5507   -0.7933   -3.4507 H   0  0  0  0  0  0  0  0  0  0  0  0
   -0.2142   -1.4416   -2.4744 H   0  0  0  0  0  0  0  0  0  0  0  0
   -1.1354   -2.5192   -3.5393 H   0  0  0  0  0  0  0  0  0  0  0  0
   -1.1991   -0.3862    0.0095 N   0  0  0  0  0  0  0  0  0  0  0  0
   -1.1737    0.7939    0.8890 C   0  0  0  0  0  0  0  0  0  0  0  0
   -0.3386    1.9225    0.2808 C   0  0  0  0  0  0  0  0  0  0  0  0
    0.8714    1.9503    0.4597 O   0  0  0  0  0  0  0  0  0  0  0  0
   -0.3313   -0.8995   -0.1287 H   0  0  0  0  0  0  0  0  0  0  0  0
   -0.7389    0.5182    1.8543 H   0  0  0  0  0  0  0  0  0  0  0  0
   -2.1819    1.1674    1.0936 H   0  0  0  0  0  0  0  0  0  0  0  0
   -0.9342    2.8593   -0.5389 N   0  0  0  0  0  0  0  0  0  0  0  0
   -0.2370    3.9841   -1.1737 C   0  0  2  0  0  0  0  0  0  0  0  0
   -1.1839    5.1766   -1.4278 C   0  0  0  0  0  0  0  0  0  0  0  0
   -2.3981    5.0324   -1.3405 O   0  0  0  0  0  0  0  0  0  0  0  0
    0.3722    3.4917   -2.4903 C   0  0  0  0  0  0  0  0  0  0  0  0
   -1.9489    2.8149   -0.6490 H   0  0  0  0  0  0  0  0  0  0  0  0
    0.5636    4.3366   -0.5148 H   0  0  0  0  0  0  0  0  0  0  0  0
   -0.4134    3.1371   -3.1652 H   0  0  0  0  0  0  0  0  0  0  0  0
    0.9211    4.2978   -2.9862 H   0  0  0  0  0  0  0  0  0  0  0  0
    1.0680    2.6679   -2.3019 H   0  0  0  0  0  0  0  0  0  0  0  0
   -0.6735    6.4209   -1.7508 N   0  0  0  0  0  0  0  0  0  0  0  0
   -1.5092    7.5932   -1.9836 C   0  0  0  0  0  0  0  0  0  0  0  0
    0.3366    6.5191   -1.7956 H   0  0  0  0  0  0  0  0  0  0  0  0
   -2.2268    7.4001   -2.7882 H   0  0  0  0  0  0  0  0  0  0  0  0
   -2.0612    7.8565   -1.0751 H   0  0  0  0  0  0  0  0  0  0  0  0
   -0.8906    8.4483   -2.2730 H   0  0  0  0  0  0  0  0  0  0  0  0
  1  2  2  0  0  0  0
  1  3  1  0  0  0  0
  1  7  1  0  0  0  0
  3  4  1  0  0  0  0
  3  5  1  0  0  0  0
  3  6  1  0  0  0  0
  7  8  1  0  0  0  0
  7 12  1  0  0  0  0
  8  9  1  0  0  0  0
  8 11  1  0  0  0  0
  8 13  1  0  0  0  0
  9 10  2  0  0  0  0
  9 17  1  0  0  0  0
 11 14  1  0  0  0  0
 11 15  1  0  0  0  0
 11 16  1  0  0  0  0
 17 18  1  0  0  0  0
 17 21  1  0  0  0  0
 18 19  1  0  0  0  0
 18 22  1  0  0  0  0
 18 23  1  0  0  0  0
 19 20  2  0  0  0  0
 19 24  1  0  0  0  0
 24 25  1  0  0  0  0
 24 29  1  0  0  0  0
 25 26  1  0  0  0  0
 25 28  1  0  0  0  0
 25 30  1  0  0  0  0
 26 27  2  0  0  0  0
 26 34  1  0  0  0  0
 28 31  1  0  0  0  0
 28 32  1  0  0  0  0
 28 33  1  0  0  0  0
 34 35  1  0  0  0  0
 34 36  1  0  0  0  0
 35 37  1  0  0  0  0
 35 38  1  0  0  0  0
 35 39  1  0  0  0  0
M  END
$$$$

  -OEChem-05262216283D

 39 38  0     1  0  0  0  0  0999 V2000
   -3.8439   -3.6288   -2.7828 C   0  0  0  0  0  0  0  0  0  0  0  0
   -2.9838   -4.4933   -2.8388 O   0  0  0  0  0  0  0  0  0  0  0  0
   -5.2791   -3.9557   -3.1498 C   0  0  0  0  0  0  0  0  0  0  0  0
   -5.6249   -3.2843   -3.9394 H   0  0  0  0  0  0  0  0  0  0  0  0
   -5.3507   -4.9865   -3.5080 H   0  0  0  0  0  0  0  0  0  0  0  0
   -5.9237   -3.8405   -2.2749 H   0  0  0  0  0  0  0  0  0  0  0  0
   -3.5143   -2.3538   -2.3757 N   0  0  0  0  0  0  0  0  0  0  0  0
   -2.1968   -1.9626   -1.8582 C   0  0  2  0  0  0  0  0  0  0  0  0
   -2.3106   -0.8224   -0.8247 C   0  0  0  0  0  0  0  0  0  0  0  0
   -3.3683   -0.2160   -0.6896 O   0  0  0  0  0  0  0  0  0  0  0  0
   -1.3206   -1.5325   -3.0399 C   0  0  0  0  0  0  0  0  0  0  0  0
   -4.2798   -1.6979   -2.2226 H   0  0  0  0  0  0  0  0  0  0  0  0
   -1.7301   -2.8151   -1.3526 H   0  0  0  0  0  0  0  0  0  0  0  0
   -1.7652   -0.6738   -3.5531 H   0  0  0  0  0  0  0  0  0  0  0  0
   -0.3191   -1.2538   -2.6982 H   0  0  0  0  0  0  0  0  0  0  0  0
   -1.2219   -2.3542   -3.7565 H   0  0  0  0  0  0  0  0  0  0  0  0
   -1.2149   -0.4516   -0.0674 N   0  0  0  0  0  0  0  0  0  0  0  0
   -1.1880    0.7124    0.8321 C   0  0  0  0  0  0  0  0  0  0  0  0
   -0.3816    1.8626    0.2246 C   0  0  0  0  0  0  0  0  0  0  0  0
    0.8334    1.7562    0.1222 O   0  0  0  0  0  0  0  0  0  0  0  0
   -0.3250   -0.8879   -0.3001 H   0  0  0  0  0  0  0  0  0  0  0  0
   -0.7267    0.4284    1.7821 H   0  0  0  0  0  0  0  0  0  0  0  0
   -2.1977    1.0637    1.0654 H   0  0  0  0  0  0  0  0  0  0  0  0
   -1.0188    2.9681   -0.3015 N   0  0  0  0  0  0  0  0  0  0  0  0
   -0.3349    4.1301   -0.8821 C   0  0  2  0  0  0  0  0  0  0  0  0
   -1.1212    5.4363   -0.6413 C   0  0  0  0  0  0  0  0  0  0  0  0
   -2.2962    5.3950   -0.2942 O   0  0  0  0  0  0  0  0  0  0  0  0
   -0.1527    3.8784   -2.3819 C   0  0  0  0  0  0  0  0  0  0  0  0
   -2.0294    3.0380   -0.1762 H   0  0  0  0  0  0  0  0  0  0  0  0
    0.6483    4.2504   -0.4148 H   0  0  0  0  0  0  0  0  0  0  0  0
   -1.1256    3.7670   -2.8714 H   0  0  0  0  0  0  0  0  0  0  0  0
    0.3805    4.7109   -2.8503 H   0  0  0  0  0  0  0  0  0  0  0  0
    0.4264    2.9638   -2.5444 H   0  0  0  0  0  0  0  0  0  0  0  0
   -0.5061    6.6643   -0.8033 N   0  0  0  0  0  0  0  0  0  0  0  0
   -1.1828    7.9349   -0.5723 C   0  0  0  0  0  0  0  0  0  0  0  0
    0.4734    6.6691   -1.0726 H   0  0  0  0  0  0  0  0  0  0  0  0
   -2.0291    8.0483   -1.2580 H   0  0  0  0  0  0  0  0  0  0  0  0
   -1.5530    7.9916    0.4568 H   0  0  0  0  0  0  0  0  0  0  0  0
   -0.4909    8.7665   -0.7361 H   0  0  0  0  0  0  0  0  0  0  0  0
  1  2  2  0  0  0  0
  1  3  1  0  0  0  0
  1  7  1  0  0  0  0
  3  4  1  0  0  0  0
  3  5  1  0  0  0  0
  3  6  1  0  0  0  0
  7  8  1  0  0  0  0
  7 12  1  0  0  0  0
  8  9  1  0  0  0  0
  8 11  1  0  0  0  0
  8 13  1  0  0  0  0
  9 10  2  0  0  0  0
  9 17  1  0  0  0  0
 11 14  1  0  0  0  0
 11 15  1  0  0  0  0
 11 16  1  0  0  0  0
 17 18  1  0  0  0  0
 17 21  1  0  0  0  0
 18 19  1  0  0  0  0
 18 22  1  0  0  0  0
 18 23  1  0  0  0  0
 19 20  2  0  0  0  0
 19 24  1  0  0  0  0
 24 25  1  0  0  0  0
 24 29  1  0  0  0  0
 25 26  1  0  0  0  0
 25 28  1  0  0  0  0
 25 30  1  0  0  0  0
 26 27  2  0  0  0  0
 26 34  1  0  0  0  0
 28 31  1  0  0  0  0
 28 32  1  0  0  0  0
 28 33  1  0  0  0  0
 34 35  1  0  0  0  0
 34 36  1  0  0  0  0
 35 37  1  0  0  0  0
 35 38  1  0  0  0  0
 35 39  1  0  0  0  0
M  END
$$$$

  -OEChem-05262216283D

 39 38  0     1  0  0  0  0  0999 V2000
   -3.7954   -3.6531   -2.8931 C   0  0  0  0  0  0  0  0  0  0  0  0
   -2.8961   -4.4731   -2.9890 O   0  0  0  0  0  0  0  0  0  0  0  0
   -5.2199   -4.0408   -3.2421 C   0  0  0  0  0  0  0  0  0  0  0  0
   -5.5807   -3.4265   -4.0706 H   0  0  0  0  0  0  0  0  0  0  0  0
   -5.2630   -5.0928   -3.5381 H   0  0  0  0  0  0  0  0  0  0  0  0
   -5.8700   -3.8921   -2.3765 H   0  0  0  0  0  0  0  0  0  0  0  0
   -3.5208   -2.3740   -2.4585 N   0  0  0  0  0  0  0  0  0  0  0  0
   -2.2155   -1.9340   -1.9497 C   0  0  2  0  0  0  0  0  0  0  0  0
   -2.3662   -0.8543   -0.8572 C   0  0  0  0  0  0  0  0  0  0  0  0
   -3.4434   -0.2918   -0.6899 O   0  0  0  0  0  0  0  0  0  0  0  0
   -1.3947   -1.3986   -3.1275 C   0  0  0  0  0  0  0  0  0  0  0  0
   -4.3148   -1.7619   -2.2731 H   0  0  0  0  0  0  0  0  0  0  0  0
   -1.6892   -2.7821   -1.4981 H   0  0  0  0  0  0  0  0  0  0  0  0
   -1.9050   -0.5511   -3.5962 H   0  0  0  0  0  0  0  0  0  0  0  0
   -0.4071   -1.0681   -2.7916 H   0  0  0  0  0  0  0  0  0  0  0  0
   -1.2575   -2.1820   -3.8798 H   0  0  0  0  0  0  0  0  0  0  0  0
   -1.2819   -0.4946   -0.0785 N   0  0  0  0  0  0  0  0  0  0  0  0
   -1.2701    0.6549    0.8402 C   0  0  0  0  0  0  0  0  0  0  0  0
   -0.4560    1.8183    0.2647 C   0  0  0  0  0  0  0  0  0  0  0  0
    0.7059    1.6275   -0.0719 O   0  0  0  0  0  0  0  0  0  0  0  0
   -0.3783   -0.8734   -0.3561 H   0  0  0  0  0  0  0  0  0  0  0  0
   -0.8231    0.3564    1.7926 H   0  0  0  0  0  0  0  0  0  0  0  0
   -2.2850    0.9998    1.0610 H   0  0  0  0  0  0  0  0  0  0  0  0
   -1.0406    3.0468    0.0324 N   0  0  0  0  0  0  0  0  0  0  0  0
   -0.3257    4.2309   -0.4600 C   0  0  2  0  0  0  0  0  0  0  0  0
   -0.9265    5.5353    0.1051 C   0  0  0  0  0  0  0  0  0  0  0  0
   -2.0118    5.5190    0.6755 O   0  0  0  0  0  0  0  0  0  0  0  0
   -0.3837    4.2295   -1.9908 C   0  0  0  0  0  0  0  0  0  0  0  0
   -1.9922    3.1905    0.3714 H   0  0  0  0  0  0  0  0  0  0  0  0
    0.7204    4.1889   -0.1386 H   0  0  0  0  0  0  0  0  0  0  0  0
   -1.4219    4.2842   -2.3343 H   0  0  0  0  0  0  0  0  0  0  0  0
    0.1639    5.0850   -2.3975 H   0  0  0  0  0  0  0  0  0  0  0  0
    0.0664    3.3134   -2.3867 H   0  0  0  0  0  0  0  0  0  0  0  0
   -0.2404    6.7302   -0.0106 N   0  0  0  0  0  0  0  0  0  0  0  0
   -0.7384    7.9941    0.5191 C   0  0  0  0  0  0  0  0  0  0  0  0
    0.6637    6.7123   -0.4735 H   0  0  0  0  0  0  0  0  0  0  0  0
   -1.6887    8.2610    0.0447 H   0  0  0  0  0  0  0  0  0  0  0  0
   -0.8923    7.9224    1.6010 H   0  0  0  0  0  0  0  0  0  0  0  0
   -0.0186    8.7954    0.3258 H   0  0  0  0  0  0  0  0  0  0  0  0
  1  2  2  0  0  0  0
  1  3  1  0  0  0  0
  1  7  1  0  0  0  0
  3  4  1  0  0  0  0
  3  5  1  0  0  0  0
  3  6  1  0  0  0  0
  7  8  1  0  0  0  0
  7 12  1  0  0  0  0
  8  9  1  0  0  0  0
  8 11  1  0  0  0  0
  8 13  1  0  0  0  0
  9 10  2  0  0  0  0
  9 17  1  0  0  0  0
 11 14  1  0  0  0  0
 11 15  1  0  0  0  0
 11 16  1  0  0  0  0
 17 18  1  0  0  0  0
 17 21  1  0  0  0  0
 18 19  1  0  0  0  0
 18 22  1  0  0  0  0
 18 23  1  0  0  0  0
 19 20  2  0  0  0  0
 19 24  1  0  0  0  0
 24 25  1  0  0  0  0
 24 29  1  0  0  0  0
 25 26  1  0  0  0  0
 25 28  1  0  0  0  0
 25 30  1  0  0  0  0
 26 27  2  0  0  0  0
 26 34  1  0  0  0  0
 28 31  1  0  0  0  0
 28 32  1  0  0  0  0
 28 33  1  0  0  0  0
 34 35  1  0  0  0  0
 34 36  1  0  0  0  0
 35 37  1  0  0  0  0
 35 38  1  0  0  0  0
 35 39  1  0  0  0  0
M  END
$$$$

  -OEChem-05262216283D

 39 38  0     1  0  0  0  0  0999 V2000
   -3.7592   -3.6808   -2.9595 C   0  0  0  0  0  0  0  0  0  0  0  0
   -2.8399   -4.4788   -3.0519 O   0  0  0  0  0  0  0  0  0  0  0  0
   -5.1681   -4.0956   -3.3386 C   0  0  0  0  0  0  0  0  0  0  0  0
   -5.5297   -3.4762   -4.1630 H   0  0  0  0  0  0  0  0  0  0  0  0
   -5.1806   -5.1432   -3.6523 H   0  0  0  0  0  0  0  0  0  0  0  0
   -5.8361   -3.9766   -2.4822 H   0  0  0  0  0  0  0  0  0  0  0  0
   -3.5203   -2.4014   -2.5052 N   0  0  0  0  0  0  0  0  0  0  0  0
   -2.2309   -1.9364   -1.9780 C   0  0  2  0  0  0  0  0  0  0  0  0
   -2.4151   -0.8675   -0.8800 C   0  0  0  0  0  0  0  0  0  0  0  0
   -3.5084   -0.3364   -0.7129 O   0  0  0  0  0  0  0  0  0  0  0  0
   -1.4068   -1.3749   -3.1411 C   0  0  0  0  0  0  0  0  0  0  0  0
   -4.3299   -1.8092   -2.3234 H   0  0  0  0  0  0  0  0  0  0  0  0
   -1.6920   -2.7767   -1.5270 H   0  0  0  0  0  0  0  0  0  0  0  0
   -1.9226   -0.5257   -3.6006 H   0  0  0  0  0  0  0  0  0  0  0  0
   -0.4254   -1.0393   -2.7922 H   0  0  0  0  0  0  0  0  0  0  0  0
   -1.2546   -2.1450   -3.9041 H   0  0  0  0  0  0  0  0  0  0  0  0
   -1.3440   -0.4931   -0.0901 N   0  0  0  0  0  0  0  0  0  0  0  0
   -1.3521    0.6709    0.8106 C   0  0  0  0  0  0  0  0  0  0  0  0
   -0.5348    1.8364    0.2407 C   0  0  0  0  0  0  0  0  0  0  0  0
    0.5476    1.6128   -0.2882 O   0  0  0  0  0  0  0  0  0  0  0  0
   -0.4307   -0.8289   -0.3908 H   0  0  0  0  0  0  0  0  0  0  0  0
   -0.9246    0.3876    1.7762 H   0  0  0  0  0  0  0  0  0  0  0  0
   -2.3728    1.0146    1.0030 H   0  0  0  0  0  0  0  0  0  0  0  0
   -1.0266    3.1259    0.2718 N   0  0  0  0  0  0  0  0  0  0  0  0
   -0.2668    4.3166   -0.1291 C   0  0  2  0  0  0  0  0  0  0  0  0
   -0.5991    5.5285    0.7669 C   0  0  0  0  0  0  0  0  0  0  0  0
   -1.5675    5.4919    1.5184 O   0  0  0  0  0  0  0  0  0  0  0  0
   -0.5887    4.6191   -1.5953 C   0  0  0  0  0  0  0  0  0  0  0  0
   -1.8866    3.2888    0.7958 H   0  0  0  0  0  0  0  0  0  0  0  0
    0.8067    4.1243   -0.0287 H   0  0  0  0  0  0  0  0  0  0  0  0
   -1.6568    4.8255   -1.7184 H   0  0  0  0  0  0  0  0  0  0  0  0
   -0.0228    5.4887   -1.9425 H   0  0  0  0  0  0  0  0  0  0  0  0
   -0.3244    3.7627   -2.2239 H   0  0  0  0  0  0  0  0  0  0  0  0
    0.2015    6.6556    0.7473 N   0  0  0  0  0  0  0  0  0  0  0  0
   -0.0413    7.8233    1.5858 C   0  0  0  0  0  0  0  0  0  0  0  0
    1.0077    6.6510    0.1293 H   0  0  0  0  0  0  0  0  0  0  0  0
   -1.0121    8.2707    1.3477 H   0  0  0  0  0  0  0  0  0  0  0  0
   -0.0327    7.5438    2.6447 H   0  0  0  0  0  0  0  0  0  0  0  0
    0.7359    8.5758    1.4213 H   0  0  0  0  0  0  0  0  0  0  0  0
  1  2  2  0  0  0  0
  1  3  1  0  0  0  0
  1  7  1  0  0  0  0
  3  4  1  0  0  0  0
  3  5  1  0  0  0  0
  3  6  1  0  0  0  0
  7  8  1  0  0  0  0
  7 12  1  0  0  0  0
  8  9  1  0  0  0  0
  8 11  1  0  0  0  0
  8 13  1  0  0  0  0
  9 10  2  0  0  0  0
  9 17  1  0  0  0  0
 11 14  1  0  0  0  0
 11 15  1  0  0  0  0
 11 16  1  0  0  0  0
 17 18  1  0  0  0  0
 17 21  1  0  0  0  0
 18 19  1  0  0  0  0
 18 22  1  0  0  0  0
 18 23  1  0  0  0  0
 19 20  2  0  0  0  0
 19 24  1  0  0  0  0
 24 25  1  0  0  0  0
 24 29  1  0  0  0  0
 25 26  1  0  0  0  0
 25 28  1  0  0  0  0
 25 30  1  0  0  0  0
 26 27  2  0  0  0  0
 26 34  1  0  0  0  0
 28 31  1  0  0  0  0
 28 32  1  0  0  0  0
 28 33  1  0  0  0  0
 34 35  1  0  0  0  0
 34 36  1  0  0  0  0
 35 37  1  0  0  0  0
 35 38  1  0  0  0  0
 35 39  1  0  0  0  0
M  END
$$$$

  -OEChem-05262216283D

 39 38  0     1  0  0  0  0  0999 V2000
   -3.7746   -3.6457   -3.0108 C   0  0  0  0  0  0  0  0  0  0  0  0
   -2.8508   -4.4398   -3.0935 O   0  0  0  0  0  0  0  0  0  0  0  0
   -5.1829   -4.0736   -3.3790 C   0  0  0  0  0  0  0  0  0  0  0  0
   -5.5476   -3.4737   -4.2164 H   0  0  0  0  0  0  0  0  0  0  0  0
   -5.1931   -5.1279   -3.6693 H   0  0  0  0  0  0  0  0  0  0  0  0
   -5.8505   -3.9375   -2.5247 H   0  0  0  0  0  0  0  0  0  0  0  0
   -3.5440   -2.3595   -2.5714 N   0  0  0  0  0  0  0  0  0  0  0  0
   -2.2615   -1.8842   -2.0363 C   0  0  2  0  0  0  0  0  0  0  0  0
   -2.4631   -0.8355   -0.9227 C   0  0  0  0  0  0  0  0  0  0  0  0
   -3.5568   -0.3005   -0.7713 O   0  0  0  0  0  0  0  0  0  0  0  0
   -1.4460   -1.2919   -3.1896 C   0  0  0  0  0  0  0  0  0  0  0  0
   -4.3586   -1.7725   -2.3951 H   0  0  0  0  0  0  0  0  0  0  0  0
   -1.7094   -2.7221   -1.5969 H   0  0  0  0  0  0  0  0  0  0  0  0
   -1.9710   -0.4386   -3.6309 H   0  0  0  0  0  0  0  0  0  0  0  0
   -0.4672   -0.9534   -2.8358 H   0  0  0  0  0  0  0  0  0  0  0  0
   -1.2887   -2.0453   -3.9680 H   0  0  0  0  0  0  0  0  0  0  0  0
   -1.4093   -0.4898   -0.0972 N   0  0  0  0  0  0  0  0  0  0  0  0
   -1.4243    0.6751    0.8029 C   0  0  0  0  0  0  0  0  0  0  0  0
   -0.5632    1.8281    0.2705 C   0  0  0  0  0  0  0  0  0  0  0  0
    0.4251    1.5863   -0.4133 O   0  0  0  0  0  0  0  0  0  0  0  0
   -0.4917   -0.8151   -0.3970 H   0  0  0  0  0  0  0  0  0  0  0  0
   -1.0406    0.3805    1.7833 H   0  0  0  0  0  0  0  0  0  0  0  0
   -2.4440    1.0413    0.9560 H   0  0  0  0  0  0  0  0  0  0  0  0
   -0.8866    3.1377    0.5628 N   0  0  0  0  0  0  0  0  0  0  0  0
   -0.0410    4.2961    0.2492 C   0  0  2  0  0  0  0  0  0  0  0  0
   -0.1779    5.3966    1.3227 C   0  0  0  0  0  0  0  0  0  0  0  0
   -1.0821    5.3400    2.1495 O   0  0  0  0  0  0  0  0  0  0  0  0
   -0.4442    4.8294   -1.1283 C   0  0  0  0  0  0  0  0  0  0  0  0
   -1.6538    3.2992    1.2158 H   0  0  0  0  0  0  0  0  0  0  0  0
    1.0111    3.9925    0.2251 H   0  0  0  0  0  0  0  0  0  0  0  0
   -1.4943    5.1391   -1.1263 H   0  0  0  0  0  0  0  0  0  0  0  0
    0.1731    5.6894   -1.4043 H   0  0  0  0  0  0  0  0  0  0  0  0
   -0.3114    4.0525   -1.8879 H   0  0  0  0  0  0  0  0  0  0  0  0
    0.7261    6.4411    1.3788 N   0  0  0  0  0  0  0  0  0  0  0  0
    0.6647    7.4985    2.3805 C   0  0  0  0  0  0  0  0  0  0  0  0
    1.4779    6.4521    0.6957 H   0  0  0  0  0  0  0  0  0  0  0  0
   -0.2689    8.0629    2.2855 H   0  0  0  0  0  0  0  0  0  0  0  0
    0.7187    7.0747    3.3888 H   0  0  0  0  0  0  0  0  0  0  0  0
    1.5022    8.1908    2.2519 H   0  0  0  0  0  0  0  0  0  0  0  0
  1  2  2  0  0  0  0
  1  3  1  0  0  0  0
  1  7  1  0  0  0  0
  3  4  1  0  0  0  0
  3  5  1  0  0  0  0
  3  6  1  0  0  0  0
  7  8  1  0  0  0  0
  7 12  1  0  0  0  0
  8  9  1  0  0  0  0
  8 11  1  0  0  0  0
  8 13  1  0  0  0  0
  9 10  2  0  0  0  0
  9 17  1  0  0  0  0
 11 14  1  0  0  0  0
 11 15  1  0  0  0  0
 11 16  1  0  0  0  0
 17 18  1  0  0  0  0
 17 21  1  0  0  0  0
 18 19  1  0  0  0  0
 18 22  1  0  0  0  0
 18 23  1  0  0  0  0
 19 20  2  0  0  0  0
 19 24  1  0  0  0  0
 24 25  1  0  0  0  0
 24 29  1  0  0  0  0
 25 26  1  0  0  0  0
 25 28  1  0  0  0  0
 25 30  1  0  0  0  0
 26 27  2  0  0  0  0
 26 34  1  0  0  0  0
 28 31  1  0  0  0  0
 28 32  1  0  0  0  0
 28 33  1  0  0  0  0
 34 35  1  0  0  0  0
 34 36  1  0  0  0  0
 35 37  1  0  0  0  0
 35 38  1  0  0  0  0
 35 39  1  0  0  0  0
M  END
$$$$

  -OEChem-05262216283D

 39 38  0     1  0  0  0  0  0999 V2000
   -3.7768   -3.6096   -3.0342 C   0  0  0  0  0  0  0  0  0  0  0  0
   -2.8544   -4.4082   -3.0776 O   0  0  0  0  0  0  0  0  0  0  0  0
   -5.1800   -4.0483   -3.4080 C   0  0  0  0  0  0  0  0  0  0  0  0
   -5.5479   -3.4485   -4.2438 H   0  0  0  0  0  0  0  0  0  0  0  0
   -5.1801   -5.1016   -3.7024 H   0  0  0  0  0  0  0  0  0  0  0  0
   -5.8504   -3.9221   -2.5545 H   0  0  0  0  0  0  0  0  0  0  0  0
   -3.5506   -2.3118   -2.6282 N   0  0  0  0  0  0  0  0  0  0  0  0
   -2.2820   -1.8306   -2.0657 C   0  0  2  0  0  0  0  0  0  0  0  0
   -2.5142   -0.7855   -0.9544 C   0  0  0  0  0  0  0  0  0  0  0  0
   -3.6095   -0.2448   -0.8377 O   0  0  0  0  0  0  0  0  0  0  0  0
   -1.4466   -1.2310   -3.2003 C   0  0  0  0  0  0  0  0  0  0  0  0
   -4.3677   -1.7203   -2.4806 H   0  0  0  0  0  0  0  0  0  0  0  0
   -1.7331   -2.6657   -1.6171 H   0  0  0  0  0  0  0  0  0  0  0  0
   -1.9677   -0.3802   -3.6508 H   0  0  0  0  0  0  0  0  0  0  0  0
   -0.4779   -0.8865   -2.8248 H   0  0  0  0  0  0  0  0  0  0  0  0
   -1.2682   -1.9822   -3.9764 H   0  0  0  0  0  0  0  0  0  0  0  0
   -1.4889   -0.4573   -0.0864 N   0  0  0  0  0  0  0  0  0  0  0  0
   -1.5175    0.7236    0.7941 C   0  0  0  0  0  0  0  0  0  0  0  0
   -0.6039    1.8517    0.2921 C   0  0  0  0  0  0  0  0  0  0  0  0
    0.2797    1.6107   -0.5234 O   0  0  0  0  0  0  0  0  0  0  0  0
   -0.5653   -0.7807   -0.3692 H   0  0  0  0  0  0  0  0  0  0  0  0
   -1.1905    0.4323    1.7960 H   0  0  0  0  0  0  0  0  0  0  0  0
   -2.5335    1.1183    0.8915 H   0  0  0  0  0  0  0  0  0  0  0  0
   -0.7293    3.1297    0.7997 N   0  0  0  0  0  0  0  0  0  0  0  0
    0.2145    4.2252    0.5414 C   0  0  2  0  0  0  0  0  0  0  0  0
    0.3431    5.1593    1.7639 C   0  0  0  0  0  0  0  0  0  0  0  0
   -0.4501    5.0664    2.6947 O   0  0  0  0  0  0  0  0  0  0  0  0
   -0.2701    5.0012   -0.6873 C   0  0  0  0  0  0  0  0  0  0  0  0
   -1.3884    3.2703    1.5657 H   0  0  0  0  0  0  0  0  0  0  0  0
    1.2106    3.8169    0.3397 H   0  0  0  0  0  0  0  0  0  0  0  0
   -1.2659    5.4195   -0.5082 H   0  0  0  0  0  0  0  0  0  0  0  0
    0.4157    5.8211   -0.9208 H   0  0  0  0  0  0  0  0  0  0  0  0
   -0.3221    4.3381   -1.5569 H   0  0  0  0  0  0  0  0  0  0  0  0
    1.3628    6.0914    1.8327 N   0  0  0  0  0  0  0  0  0  0  0  0
    1.5502    6.9942    2.9629 C   0  0  0  0  0  0  0  0  0  0  0  0
    2.0149    6.1355    1.0548 H   0  0  0  0  0  0  0  0  0  0  0  0
    0.6862    7.6586    3.0707 H   0  0  0  0  0  0  0  0  0  0  0  0
    1.6767    6.4272    3.8915 H   0  0  0  0  0  0  0  0  0  0  0  0
    2.4422    7.6100    2.8114 H   0  0  0  0  0  0  0  0  0  0  0  0
  1  2  2  0  0  0  0
  1  3  1  0  0  0  0
  1  7  1  0  0  0  0
  3  4  1  0  0  0  0
  3  5  1  0  0  0  0
  3  6  1  0  0  0  0
  7  8  1  0  0  0  0
  7 12  1  0  0  0  0
  8  9  1  0  0  0  0
  8 11  1  0  0  0  0
  8 13  1  0  0  0  0
  9 10  2  0  0  0  0
  9 17  1  0  0  0  0
 11 14  1  0  0  0  0
 11 15  1  0  0  0  0
 11 16  1  0  0  0  0
 17 18  1  0  0  0  0
 17 21  1  0  0  0  0
 18 19  1  0  0  0  0
 18 22  1  0  0  0  0
 18 23  1  0  0  0  0
 19 20  2  0  0  0  0
 19 24  1  0  0  0  0
 24 25  1  0  0  0  0
 24 29  1  0  0  0  0
 25 26  1  0  0  0  0
 25 28  1  0  0  0  0
 25 30  1  0  0  0  0
 26 27  2  0  0  0  0
 26 34  1  0  0  0  0
 28 31  1  0  0  0  0
 28 32  1  0  0  0  0
 28 33  1  0  0  0  0
 34 35  1  0  0  0  0
 34 36  1  0  0  0  0
 35 37  1  0  0  0  0
 35 38  1  0  0  0  0
 35 39  1  0  0  0  0
M  END
$$$$

  -OEChem-05262216283D

 39 38  0     1  0  0  0  0  0999 V2000
   -3.6864   -3.5177   -3.0806 C   0  0  0  0  0  0  0  0  0  0  0  0
   -2.8109   -4.3589   -2.9523 O   0  0  0  0  0  0  0  0  0  0  0  0
   -5.0886   -3.9403   -3.4779 C   0  0  0  0  0  0  0  0  0  0  0  0
   -5.3107   -3.5902   -4.4891 H   0  0  0  0  0  0  0  0  0  0  0  0
   -5.1749   -5.0304   -3.4536 H   0  0  0  0  0  0  0  0  0  0  0  0
   -5.8180   -3.5155   -2.7836 H   0  0  0  0  0  0  0  0  0  0  0  0
   -3.4146   -2.1844   -2.8554 N   0  0  0  0  0  0  0  0  0  0  0  0
   -2.1843   -1.6921   -2.2189 C   0  0  2  0  0  0  0  0  0  0  0  0
   -2.4940   -0.8262   -0.9799 C   0  0  0  0  0  0  0  0  0  0  0  0
   -3.6128   -0.3446   -0.8287 O   0  0  0  0  0  0  0  0  0  0  0  0
   -1.4077   -0.8798   -3.2581 C   0  0  0  0  0  0  0  0  0  0  0  0
   -4.2229   -1.5668   -2.7997 H   0  0  0  0  0  0  0  0  0  0  0  0
   -1.5615   -2.5284   -1.8839 H   0  0  0  0  0  0  0  0  0  0  0  0
   -2.0005   -0.0239   -3.5966 H   0  0  0  0  0  0  0  0  0  0  0  0
   -0.4713   -0.5052   -2.8329 H   0  0  0  0  0  0  0  0  0  0  0  0
   -1.1687   -1.5044   -4.1245 H   0  0  0  0  0  0  0  0  0  0  0  0
   -1.5051   -0.5728   -0.0464 N   0  0  0  0  0  0  0  0  0  0  0  0
   -1.6089    0.5298    0.9251 C   0  0  0  0  0  0  0  0  0  0  0  0
   -1.0093    1.8483    0.4090 C   0  0  0  0  0  0  0  0  0  0  0  0
   -0.4111    1.8867   -0.6609 O   0  0  0  0  0  0  0  0  0  0  0  0
   -0.5664   -0.8257   -0.3456 H   0  0  0  0  0  0  0  0  0  0  0  0
   -1.0826    0.2465    1.8405 H   0  0  0  0  0  0  0  0  0  0  0  0
   -2.6532    0.7074    1.2007 H   0  0  0  0  0  0  0  0  0  0  0  0
   -1.0330    2.9745    1.2078 N   0  0  0  0  0  0  0  0  0  0  0  0
   -0.3151    4.2220    0.9156 C   0  0  2  0  0  0  0  0  0  0  0  0
    0.1636    4.9120    2.2107 C   0  0  0  0  0  0  0  0  0  0  0  0
   -0.2583    4.5361    3.2994 O   0  0  0  0  0  0  0  0  0  0  0  0
   -1.2509    5.1403    0.1235 C   0  0  0  0  0  0  0  0  0  0  0  0
   -1.4048    2.8757    2.1526 H   0  0  0  0  0  0  0  0  0  0  0  0
    0.5744    4.0075    0.3136 H   0  0  0  0  0  0  0  0  0  0  0  0
   -2.1456    5.3740    0.7096 H   0  0  0  0  0  0  0  0  0  0  0  0
   -0.7467    6.0771   -0.1317 H   0  0  0  0  0  0  0  0  0  0  0  0
   -1.5613    4.6521   -0.8060 H   0  0  0  0  0  0  0  0  0  0  0  0
    1.0835    5.9430    2.1597 N   0  0  0  0  0  0  0  0  0  0  0  0
    1.5814    6.6303    3.3453 C   0  0  0  0  0  0  0  0  0  0  0  0
    1.4247    6.2268    1.2459 H   0  0  0  0  0  0  0  0  0  0  0  0
    0.7651    7.1519    3.8561 H   0  0  0  0  0  0  0  0  0  0  0  0
    2.0342    5.9164    4.0417 H   0  0  0  0  0  0  0  0  0  0  0  0
    2.3410    7.3662    3.0646 H   0  0  0  0  0  0  0  0  0  0  0  0
  1  2  2  0  0  0  0
  1  3  1  0  0  0  0
  1  7  1  0  0  0  0
  3  4  1  0  0  0  0
  3  5  1  0  0  0  0
  3  6  1  0  0  0  0
  7  8  1  0  0  0  0
  7 12  1  0  0  0  0
  8  9  1  0  0  0  0
  8 11  1  0  0  0  0
  8 13  1  0  0  0  0
  9 10  2  0  0  0  0
  9 17  1  0  0  0  0
 11 14  1  0  0  0  0
 11 15  1  0  0  0  0
 11 16  1  0  0  0  0
 17 18  1  0  0  0  0
 17 21  1  0  0  0  0
 18 19  1  0  0  0  0
 18 22  1  0  0  0  0
 18 23  1  0  0  0  0
 19 20  2  0  0  0  0
 19 24  1  0  0  0  0
 24 25  1  0  0  0  0
 24 29  1  0  0  0  0
 25 26  1  0  0  0  0
 25 28  1  0  0  0  0
 25 30  1  0  0  0  0
 26 27  2  0  0  0  0
 26 34  1  0  0  0  0
 28 31  1  0  0  0  0
 28 32  1  0  0  0  0
 28 33  1  0  0  0  0
 34 35  1  0  0  0  0
 34 36  1  0  0  0  0
 35 37  1  0  0  0  0
 35 38  1  0  0  0  0
 35 39  1  0  0  0  0
M  END
$$$$

  -OEChem-05262216283D

 39 38  0     1  0  0  0  0  0999 V2000
   -3.7123   -3.4885   -2.9348 C   0  0  0  0  0  0  0  0  0  0  0  0
   -2.8999   -4.3407   -2.6116 O   0  0  0  0  0  0  0  0  0  0  0  0
   -5.1012   -3.9006   -3.3859 C   0  0  0  0  0  0  0  0  0  0  0  0
   -5.2633   -3.5941   -4.4223 H   0  0  0  0  0  0  0  0  0  0  0  0
   -5.2134   -4.9865   -3.3173 H   0  0  0  0  0  0  0  0  0  0  0  0
   -5.8552   -3.4286   -2.7511 H   0  0  0  0  0  0  0  0  0  0  0  0
   -3.3838   -2.1499   -2.8813 N   0  0  0  0  0  0  0  0  0  0  0  0
   -2.1824   -1.6270   -2.2148 C   0  0  2  0  0  0  0  0  0  0  0  0
   -2.5437   -0.7279   -1.0145 C   0  0  0  0  0  0  0  0  0  0  0  0
   -3.6472   -0.1935   -0.9578 O   0  0  0  0  0  0  0  0  0  0  0  0
   -1.3797   -0.8344   -3.2491 C   0  0  0  0  0  0  0  0  0  0  0  0
   -4.1628   -1.4997   -2.9676 H   0  0  0  0  0  0  0  0  0  0  0  0
   -1.5596   -2.4451   -1.8383 H   0  0  0  0  0  0  0  0  0  0  0  0
   -1.9716    0.0015   -3.6364 H   0  0  0  0  0  0  0  0  0  0  0  0
   -0.4661   -0.4320   -2.8002 H   0  0  0  0  0  0  0  0  0  0  0  0
   -1.0980   -1.4814   -4.0857 H   0  0  0  0  0  0  0  0  0  0  0  0
   -1.6136   -0.4944   -0.0171 N   0  0  0  0  0  0  0  0  0  0  0  0
   -1.7258    0.6554    0.8974 C   0  0  0  0  0  0  0  0  0  0  0  0
   -1.0103    1.9158    0.3824 C   0  0  0  0  0  0  0  0  0  0  0  0
   -0.5251    1.9487   -0.7431 O   0  0  0  0  0  0  0  0  0  0  0  0
   -0.6741   -0.8209   -0.2285 H   0  0  0  0  0  0  0  0  0  0  0  0
   -1.2884    0.3798    1.8608 H   0  0  0  0  0  0  0  0  0  0  0  0
   -2.7750    0.9055    1.0838 H   0  0  0  0  0  0  0  0  0  0  0  0
   -0.7623    2.9635    1.2476 N   0  0  0  0  0  0  0  0  0  0  0  0
    0.0909    4.1195    0.9438 C   0  0  2  0  0  0  0  0  0  0  0  0
    0.7968    4.6449    2.2119 C   0  0  0  0  0  0  0  0  0  0  0  0
    0.4535    4.2404    3.3179 O   0  0  0  0  0  0  0  0  0  0  0  0
   -0.7844    5.2099    0.3189 C   0  0  0  0  0  0  0  0  0  0  0  0
   -1.0381    2.8482    2.2227 H   0  0  0  0  0  0  0  0  0  0  0  0
    0.8714    3.8305    0.2319 H   0  0  0  0  0  0  0  0  0  0  0  0
   -1.5673    5.5189    1.0191 H   0  0  0  0  0  0  0  0  0  0  0  0
   -0.1831    6.0860    0.0584 H   0  0  0  0  0  0  0  0  0  0  0  0
   -1.2604    4.8363   -0.5935 H   0  0  0  0  0  0  0  0  0  0  0  0
    1.8310    5.5577    2.1145 N   0  0  0  0  0  0  0  0  0  0  0  0
    2.5526    6.0749    3.2712 C   0  0  0  0  0  0  0  0  0  0  0  0
    2.1018    5.8676    1.1856 H   0  0  0  0  0  0  0  0  0  0  0  0
    1.8724    6.6183    3.9358 H   0  0  0  0  0  0  0  0  0  0  0  0
    3.0145    5.2559    3.8330 H   0  0  0  0  0  0  0  0  0  0  0  0
    3.3427    6.7603    2.9494 H   0  0  0  0  0  0  0  0  0  0  0  0
  1  2  2  0  0  0  0
  1  3  1  0  0  0  0
  1  7  1  0  0  0  0
  3  4  1  0  0  0  0
  3  5  1  0  0  0  0
  3  6  1  0  0  0  0
  7  8  1  0  0  0  0
  7 12  1  0  0  0  0
  8  9  1  0  0  0  0
  8 11  1  0  0  0  0
  8 13  1  0  0  0  0
  9 10  2  0  0  0  0
  9 17  1  0  0  0  0
 11 14  1  0  0  0  0
 11 15  1  0  0  0  0
 11 16  1  0  0  0  0
 17 18  1  0  0  0  0
 17 21  1  0  0  0  0
 18 19  1  0  0  0  0
 18 22  1  0  0  0  0
 18 23  1  0  0  0  0
 19 20  2  0  0  0  0
 19 24  1  0  0  0  0
 24 25  1  0  0  0  0
 24 29  1  0  0  0  0
 25 26  1  0  0  0  0
 25 28  1  0  0  0  0
 25 30  1  0  0  0  0
 26 27  2  0  0  0  0
 26 34  1  0  0  0  0
 28 31  1  0  0  0  0
 28 32  1  0  0  0  0
 28 33  1  0  0  0  0
 34 35  1  0  0  0  0
 34 36  1  0  0  0  0
 35 37  1  0  0  0  0
 35 38  1  0  0  0  0
 35 39  1  0  0  0  0
M  END
$$$$

  -OEChem-05262216283D

 39 38  0     1  0  0  0  0  0999 V2000
   -3.6827   -3.4691   -2.8228 C   0  0  0  0  0  0  0  0  0  0  0  0
   -2.8961   -4.3066   -2.4096 O   0  0  0  0  0  0  0  0  0  0  0  0
   -5.0563   -3.8952   -3.3065 C   0  0  0  0  0  0  0  0  0  0  0  0
   -5.1628   -3.6719   -4.3707 H   0  0  0  0  0  0  0  0  0  0  0  0
   -5.1930   -4.9698   -3.1559 H   0  0  0  0  0  0  0  0  0  0  0  0
   -5.8303   -3.3615   -2.7496 H   0  0  0  0  0  0  0  0  0  0  0  0
   -3.3396   -2.1332   -2.8401 N   0  0  0  0  0  0  0  0  0  0  0  0
   -2.1648   -1.5804   -2.1503 C   0  0  2  0  0  0  0  0  0  0  0  0
   -2.5718   -0.6221   -1.0124 C   0  0  0  0  0  0  0  0  0  0  0  0
   -3.6728   -0.0804   -1.0303 O   0  0  0  0  0  0  0  0  0  0  0  0
   -1.3175   -0.8377   -3.1857 C   0  0  0  0  0  0  0  0  0  0  0  0
   -4.1057   -1.4825   -3.0032 H   0  0  0  0  0  0  0  0  0  0  0  0
   -1.5607   -2.3802   -1.7096 H   0  0  0  0  0  0  0  0  0  0  0  0
   -1.8902   -0.0195   -3.6344 H   0  0  0  0  0  0  0  0  0  0  0  0
   -0.4230   -0.4152   -2.7174 H   0  0  0  0  0  0  0  0  0  0  0  0
   -1.0035   -1.5222   -3.9797 H   0  0  0  0  0  0  0  0  0  0  0  0
   -1.6886   -0.3541    0.0191 N   0  0  0  0  0  0  0  0  0  0  0  0
   -1.8215    0.8485    0.8601 C   0  0  0  0  0  0  0  0  0  0  0  0
   -1.0495    2.0638    0.3171 C   0  0  0  0  0  0  0  0  0  0  0  0
   -0.7102    2.1202   -0.8591 O   0  0  0  0  0  0  0  0  0  0  0  0
   -0.7489   -0.7150   -0.1223 H   0  0  0  0  0  0  0  0  0  0  0  0
   -1.4460    0.6157    1.8601 H   0  0  0  0  0  0  0  0  0  0  0  0
   -2.8725    1.1321    0.9747 H   0  0  0  0  0  0  0  0  0  0  0  0
   -0.5548    3.0060    1.1980 N   0  0  0  0  0  0  0  0  0  0  0  0
    0.4131    4.0546    0.8495 C   0  0  2  0  0  0  0  0  0  0  0  0
    1.3726    4.3400    2.0239 C   0  0  0  0  0  0  0  0  0  0  0  0
    1.1276    3.8918    3.1393 O   0  0  0  0  0  0  0  0  0  0  0  0
   -0.3634    5.3171    0.4634 C   0  0  0  0  0  0  0  0  0  0  0  0
   -0.6967    2.8380    2.1940 H   0  0  0  0  0  0  0  0  0  0  0  0
    1.0255    3.7331    0.0003 H   0  0  0  0  0  0  0  0  0  0  0  0
   -0.9758    5.6616    1.3029 H   0  0  0  0  0  0  0  0  0  0  0  0
    0.3226    6.1208    0.1797 H   0  0  0  0  0  0  0  0  0  0  0  0
   -1.0218    5.1105   -0.3865 H   0  0  0  0  0  0  0  0  0  0  0  0
    2.5231    5.0811    1.8283 N   0  0  0  0  0  0  0  0  0  0  0  0
    3.4855    5.3593    2.8879 C   0  0  0  0  0  0  0  0  0  0  0  0
    2.7102    5.4235    0.8902 H   0  0  0  0  0  0  0  0  0  0  0  0
    3.0177    5.9429    3.6880 H   0  0  0  0  0  0  0  0  0  0  0  0
    3.8695    4.4253    3.3117 H   0  0  0  0  0  0  0  0  0  0  0  0
    4.3306    5.9308    2.4916 H   0  0  0  0  0  0  0  0  0  0  0  0
  1  2  2  0  0  0  0
  1  3  1  0  0  0  0
  1  7  1  0  0  0  0
  3  4  1  0  0  0  0
  3  5  1  0  0  0  0
  3  6  1  0  0  0  0
  7  8  1  0  0  0  0
  7 12  1  0  0  0  0
  8  9  1  0  0  0  0
  8 11  1  0  0  0  0
  8 13  1  0  0  0  0
  9 10  2  0  0  0  0
  9 17  1  0  0  0  0
 11 14  1  0  0  0  0
 11 15  1  0  0  0  0
 11 16  1  0  0  0  0
 17 18  1  0  0  0  0
 17 21  1  0  0  0  0
 18 19  1  0  0  0  0
 18 22  1  0  0  0  0
 18 23  1  0  0  0  0
 19 20  2  0  0  0  0
 19 24  1  0  0  0  0
 24 25  1  0  0  0  0
 24 29  1  0  0  0  0
 25 26  1  0  0  0  0
 25 28  1  0  0  0  0
 25 30  1  0  0  0  0
 26 27  2  0  0  0  0
 26 34  1  0  0  0  0
 28 31  1  0  0  0  0
 28 32  1  0  0  0  0
 28 33  1  0  0  0  0
 34 35  1  0  0  0  0
 34 36  1  0  0  0  0
 35 37  1  0  0  0  0
 35 38  1  0  0  0  0
 35 39  1  0  0  0  0
M  END
$$$$

  -OEChem-05262216283D

 39 38  0     1  0  0  0  0  0999 V2000
   -3.6468   -3.4360   -2.7152 C   0  0  0  0  0  0  0  0  0  0  0  0
   -2.8744   -4.2485   -2.2311 O   0  0  0  0  0  0  0  0  0  0  0  0
   -5.0096   -3.8864   -3.2063 C   0  0  0  0  0  0  0  0  0  0  0  0
   -5.1034   -3.6898   -4.2770 H   0  0  0  0  0  0  0  0  0  0  0  0
   -5.1390   -4.9582   -3.0320 H   0  0  0  0  0  0  0  0  0  0  0  0
   -5.7952   -3.3456   -2.6729 H   0  0  0  0  0  0  0  0  0  0  0  0
   -3.2989   -2.1044   -2.8061 N   0  0  0  0  0  0  0  0  0  0  0  0
   -2.1417   -1.5138   -2.1186 C   0  0  2  0  0  0  0  0  0  0  0  0
   -2.5773   -0.5285   -1.0144 C   0  0  0  0  0  0  0  0  0  0  0  0
   -3.6744    0.0172   -1.0787 O   0  0  0  0  0  0  0  0  0  0  0  0
   -1.2942   -0.7901   -3.1670 C   0  0  0  0  0  0  0  0  0  0  0  0
   -4.0604   -1.4640   -3.0227 H   0  0  0  0  0  0  0  0  0  0  0  0
   -1.5301   -2.2912   -1.6495 H   0  0  0  0  0  0  0  0  0  0  0  0
   -1.8740    0.0056   -3.6462 H   0  0  0  0  0  0  0  0  0  0  0  0
   -0.4107   -0.3408   -2.7028 H   0  0  0  0  0  0  0  0  0  0  0  0
   -0.9623   -1.4935   -3.9368 H   0  0  0  0  0  0  0  0  0  0  0  0
   -1.7254   -0.2430    0.0390 N   0  0  0  0  0  0  0  0  0  0  0  0
   -1.8556    0.9953    0.8273 C   0  0  0  0  0  0  0  0  0  0  0  0
   -1.0277    2.1617    0.2613 C   0  0  0  0  0  0  0  0  0  0  0  0
   -0.8695    2.2919   -0.9463 O   0  0  0  0  0  0  0  0  0  0  0  0
   -0.7933   -0.6376   -0.0499 H   0  0  0  0  0  0  0  0  0  0  0  0
   -1.5288    0.7935    1.8511 H   0  0  0  0  0  0  0  0  0  0  0  0
   -2.9004    1.3159    0.8872 H   0  0  0  0  0  0  0  0  0  0  0  0
   -0.2779    2.9480    1.1153 N   0  0  0  0  0  0  0  0  0  0  0  0
    0.7384    3.9181    0.6861 C   0  0  2  0  0  0  0  0  0  0  0  0
    1.9012    3.9995    1.6974 C   0  0  0  0  0  0  0  0  0  0  0  0
    1.7900    3.4806    2.8033 O   0  0  0  0  0  0  0  0  0  0  0  0
    0.0612    5.2823    0.5270 C   0  0  0  0  0  0  0  0  0  0  0  0
   -0.2802    2.7048    2.1058 H   0  0  0  0  0  0  0  0  0  0  0  0
    1.1650    3.6130   -0.2753 H   0  0  0  0  0  0  0  0  0  0  0  0
   -0.3655    5.6123    1.4798 H   0  0  0  0  0  0  0  0  0  0  0  0
    0.7821    6.0325    0.1892 H   0  0  0  0  0  0  0  0  0  0  0  0
   -0.7438    5.2211   -0.2124 H   0  0  0  0  0  0  0  0  0  0  0  0
    3.0801    4.6405    1.3635 N   0  0  0  0  0  0  0  0  0  0  0  0
    4.2153    4.7511    2.2716 C   0  0  0  0  0  0  0  0  0  0  0  0
    3.1467    5.0548    0.4381 H   0  0  0  0  0  0  0  0  0  0  0  0
    3.9418    5.3350    3.1567 H   0  0  0  0  0  0  0  0  0  0  0  0
    4.5476    3.7584    2.5933 H   0  0  0  0  0  0  0  0  0  0  0  0
    5.0525    5.2493    1.7735 H   0  0  0  0  0  0  0  0  0  0  0  0
  1  2  2  0  0  0  0
  1  3  1  0  0  0  0
  1  7  1  0  0  0  0
  3  4  1  0  0  0  0
  3  5  1  0  0  0  0
  3  6  1  0  0  0  0
  7  8  1  0  0  0  0
  7 12  1  0  0  0  0
  8  9  1  0  0  0  0
  8 11  1  0  0  0  0
  8 13  1  0  0  0  0
  9 10  2  0  0  0  0
  9 17  1  0  0  0  0
 11 14  1  0  0  0  0
 11 15  1  0  0  0  0
 11 16  1  0  0  0  0
 17 18  1  0  0  0  0
 17 21  1  0  0  0  0
 18 19  1  0  0  0  0
 18 22  1  0  0  0  0
 18 23  1  0  0  0  0
 19 20  2  0  0  0  0
 19 24  1  0  0  0  0
 24 25  1  0  0  0  0
 24 29  1  0  0  0  0
 25 26  1  0  0  0  0
 25 28  1  0  0  0  0
 25 30  1  0  0  0  0
 26 27  2  0  0  0  0
 26 34  1  0  0  0  0
 28 31  1  0  0  0  0
 28 32  1  0  0  0  0
 28 33  1  0  0  0  0
 34 35  1  0  0  0  0
 34 36  1  0  0  0  0
 35 37  1  0  0  0  0
 35 38  1  0  0  0  0
 35 39  1  0  0  0  0
M  END
$$$$

  -OEChem-05262216283D

 39 38  0     1  0  0  0  0  0999 V2000
   -3.6516   -3.3844   -2.6509 C   0  0  0  0  0  0  0  0  0  0  0  0
   -2.8816   -4.1909   -2.1528 O   0  0  0  0  0  0  0  0  0  0  0  0
   -5.0272   -3.8321   -3.1066 C   0  0  0  0  0  0  0  0  0  0  0  0
   -5.1452   -3.6422   -4.1759 H   0  0  0  0  0  0  0  0  0  0  0  0
   -5.1564   -4.9021   -2.9214 H   0  0  0  0  0  0  0  0  0  0  0  0
   -5.7975   -3.2835   -2.5588 H   0  0  0  0  0  0  0  0  0  0  0  0
   -3.2898   -2.0605   -2.7869 N   0  0  0  0  0  0  0  0  0  0  0  0
   -2.1259   -1.4635   -2.1165 C   0  0  2  0  0  0  0  0  0  0  0  0
   -2.5513   -0.4876   -1.0002 C   0  0  0  0  0  0  0  0  0  0  0  0
   -3.6519    0.0522   -1.0460 O   0  0  0  0  0  0  0  0  0  0  0  0
   -1.3021   -0.7254   -3.1743 C   0  0  0  0  0  0  0  0  0  0  0  0
   -4.0486   -1.4197   -3.0117 H   0  0  0  0  0  0  0  0  0  0  0  0
   -1.4984   -2.2375   -1.6630 H   0  0  0  0  0  0  0  0  0  0  0  0
   -1.8954    0.0714   -3.6348 H   0  0  0  0  0  0  0  0  0  0  0  0
   -0.4125   -0.2752   -2.7226 H   0  0  0  0  0  0  0  0  0  0  0  0
   -0.9808   -1.4192   -3.9573 H   0  0  0  0  0  0  0  0  0  0  0  0
   -1.6819   -0.1978    0.0378 N   0  0  0  0  0  0  0  0  0  0  0  0
   -1.7928    1.0486    0.8153 C   0  0  0  0  0  0  0  0  0  0  0  0
   -0.9624    2.1948    0.2161 C   0  0  0  0  0  0  0  0  0  0  0  0
   -1.0378    2.4662   -0.9748 O   0  0  0  0  0  0  0  0  0  0  0  0
   -0.7576   -0.6105   -0.0505 H   0  0  0  0  0  0  0  0  0  0  0  0
   -1.4560    0.8591    1.8380 H   0  0  0  0  0  0  0  0  0  0  0  0
   -2.8338    1.3801    0.8840 H   0  0  0  0  0  0  0  0  0  0  0  0
    0.0375    2.7861    0.9642 N   0  0  0  0  0  0  0  0  0  0  0  0
    1.0394    3.7185    0.4309 C   0  0  2  0  0  0  0  0  0  0  0  0
    2.3455    3.6720    1.2517 C   0  0  0  0  0  0  0  0  0  0  0  0
    2.3858    3.0469    2.3064 O   0  0  0  0  0  0  0  0  0  0  0  0
    0.4433    5.1301    0.4400 C   0  0  0  0  0  0  0  0  0  0  0  0
    0.2058    2.4275    1.9041 H   0  0  0  0  0  0  0  0  0  0  0  0
    1.2912    3.4397   -0.5979 H   0  0  0  0  0  0  0  0  0  0  0  0
    0.1904    5.4318    1.4614 H   0  0  0  0  0  0  0  0  0  0  0  0
    1.1547    5.8519    0.0282 H   0  0  0  0  0  0  0  0  0  0  0  0
   -0.4667    5.1615   -0.1679 H   0  0  0  0  0  0  0  0  0  0  0  0
    3.4822    4.3162    0.7997 N   0  0  0  0  0  0  0  0  0  0  0  0
    4.7453    4.3192    1.5273 C   0  0  0  0  0  0  0  0  0  0  0  0
    3.4190    4.8225   -0.0789 H   0  0  0  0  0  0  0  0  0  0  0  0
    4.6171    4.7715    2.5163 H   0  0  0  0  0  0  0  0  0  0  0  0
    5.1191    3.2977    1.6528 H   0  0  0  0  0  0  0  0  0  0  0  0
    5.4957    4.8961    0.9784 H   0  0  0  0  0  0  0  0  0  0  0  0
  1  2  2  0  0  0  0
  1  3  1  0  0  0  0
  1  7  1  0  0  0  0
  3  4  1  0  0  0  0
  3  5  1  0  0  0  0
  3  6  1  0  0  0  0
  7  8  1  0  0  0  0
  7 12  1  0  0  0  0
  8  9  1  0  0  0  0
  8 11  1  0  0  0  0
  8 13  1  0  0  0  0
  9 10  2  0  0  0  0
  9 17  1  0  0  0  0
 11 14  1  0  0  0  0
 11 15  1  0  0  0  0
 11 16  1  0  0  0  0
 17 18  1  0  0  0  0
 17 21  1  0  0  0  0
 18 19  1  0  0  0  0
 18 22  1  0  0  0  0
 18 23  1  0  0  0  0
 19 20  2  0  0  0  0
 19 24  1  0  0  0  0
 24 25  1  0  0  0  0
 24 29  1  0  0  0  0
 25 26  1  0  0  0  0
 25 28  1  0  0  0  0
 25 30  1  0  0  0  0
 26 27  2  0  0  0  0
 26 34  1  0  0  0  0
 28 31  1  0  0  0  0
 28 32  1  0  0  0  0
 28 33  1  0  0  0  0
 34 35  1  0  0  0  0
 34 36  1  0  0  0  0
 35 37  1  0  0  0  0
 35 38  1  0  0  0  0
 35 39  1  0  0  0  0
M  END
$$$$

  -OEChem-05262216283D

 39 38  0     1  0  0  0  0  0999 V2000
   -3.5433   -3.3643   -2.6830 C   0  0  0  0  0  0  0  0  0  0  0  0
   -2.7413   -4.1782   -2.2523 O   0  0  0  0  0  0  0  0  0  0  0  0
   -4.9008   -3.8278   -3.1769 C   0  0  0  0  0  0  0  0  0  0  0  0
   -5.0143   -3.5865   -4.2365 H   0  0  0  0  0  0  0  0  0  0  0  0
   -4.9999   -4.9094   -3.0490 H   0  0  0  0  0  0  0  0  0  0  0  0
   -5.6932   -3.3327   -2.6099 H   0  0  0  0  0  0  0  0  0  0  0  0
   -3.2297   -2.0216   -2.7112 N   0  0  0  0  0  0  0  0  0  0  0  0
   -2.0774   -1.4354   -2.0118 C   0  0  2  0  0  0  0  0  0  0  0  0
   -2.5197   -0.3937   -0.9638 C   0  0  0  0  0  0  0  0  0  0  0  0
   -3.6258    0.1279   -1.0501 O   0  0  0  0  0  0  0  0  0  0  0  0
   -1.1747   -0.7812   -3.0603 C   0  0  0  0  0  0  0  0  0  0  0  0
   -4.0060   -1.3879   -2.8959 H   0  0  0  0  0  0  0  0  0  0  0  0
   -1.5069   -2.2088   -1.4874 H   0  0  0  0  0  0  0  0  0  0  0  0
   -1.7122    0.0153   -3.5855 H   0  0  0  0  0  0  0  0  0  0  0  0
   -0.2887   -0.3469   -2.5871 H   0  0  0  0  0  0  0  0  0  0  0  0
   -0.8467   -1.5245   -3.7938 H   0  0  0  0  0  0  0  0  0  0  0  0
   -1.6695   -0.0468    0.0727 N   0  0  0  0  0  0  0  0  0  0  0  0
   -1.8167    1.2131    0.8225 C   0  0  0  0  0  0  0  0  0  0  0  0
   -1.0138    2.3651    0.2002 C   0  0  0  0  0  0  0  0  0  0  0  0
   -1.3099    2.8200   -0.8951 O   0  0  0  0  0  0  0  0  0  0  0  0
   -0.7436   -0.4638    0.0314 H   0  0  0  0  0  0  0  0  0  0  0  0
   -1.4849    1.0600    1.8526 H   0  0  0  0  0  0  0  0  0  0  0  0
   -2.8674    1.5175    0.8742 H   0  0  0  0  0  0  0  0  0  0  0  0
    0.1561    2.7870    0.8022 N   0  0  0  0  0  0  0  0  0  0  0  0
    1.1336    3.6901    0.1806 C   0  0  2  0  0  0  0  0  0  0  0  0
    2.5732    3.3434    0.6166 C   0  0  0  0  0  0  0  0  0  0  0  0
    2.7622    2.5260    1.5117 O   0  0  0  0  0  0  0  0  0  0  0  0
    0.7743    5.1274    0.5685 C   0  0  0  0  0  0  0  0  0  0  0  0
    0.4776    2.2705    1.6207 H   0  0  0  0  0  0  0  0  0  0  0  0
    1.0931    3.5907   -0.9094 H   0  0  0  0  0  0  0  0  0  0  0  0
    0.8185    5.2542    1.6548 H   0  0  0  0  0  0  0  0  0  0  0  0
    1.4677    5.8355    0.1058 H   0  0  0  0  0  0  0  0  0  0  0  0
   -0.2390    5.3675    0.2306 H   0  0  0  0  0  0  0  0  0  0  0  0
    3.6590    3.9242   -0.0124 N   0  0  0  0  0  0  0  0  0  0  0  0
    5.0426    3.6234    0.3359 C   0  0  0  0  0  0  0  0  0  0  0  0
    3.4726    4.5855   -0.7608 H   0  0  0  0  0  0  0  0  0  0  0  0
    5.2439    3.8959    1.3772 H   0  0  0  0  0  0  0  0  0  0  0  0
    5.2484    2.5558    0.2048 H   0  0  0  0  0  0  0  0  0  0  0  0
    5.7254    4.1875   -0.3067 H   0  0  0  0  0  0  0  0  0  0  0  0
  1  2  2  0  0  0  0
  1  3  1  0  0  0  0
  1  7  1  0  0  0  0
  3  4  1  0  0  0  0
  3  5  1  0  0  0  0
  3  6  1  0  0  0  0
  7  8  1  0  0  0  0
  7 12  1  0  0  0  0
  8  9  1  0  0  0  0
  8 11  1  0  0  0  0
  8 13  1  0  0  0  0
  9 10  2  0  0  0  0
  9 17  1  0  0  0  0
 11 14  1  0  0  0  0
 11 15  1  0  0  0  0
 11 16  1  0  0  0  0
 17 18  1  0  0  0  0
 17 21  1  0  0  0  0
 18 19  1  0  0  0  0
 18 22  1  0  0  0  0
 18 23  1  0  0  0  0
 19 20  2  0  0  0  0
 19 24  1  0  0  0  0
 24 25  1  0  0  0  0
 24 29  1  0  0  0  0
 25 26  1  0  0  0  0
 25 28  1  0  0  0  0
 25 30  1  0  0  0  0
 26 27  2  0  0  0  0
 26 34  1  0  0  0  0
 28 31  1  0  0  0  0
 28 32  1  0  0  0  0
 28 33  1  0  0  0  0
 34 35  1  0  0  0  0
 34 36  1  0  0  0  0
 35 37  1  0  0  0  0
 35 38  1  0  0  0  0
 35 39  1  0  0  0  0
M  END
$$$$

  -OEChem-05262216283D

 39 38  0     1  0  0  0  0  0999 V2000
   -3.4149   -3.2996   -2.8627 C   0  0  0  0  0  0  0  0  0  0  0  0
   -2.5455   -4.1211   -2.6165 O   0  0  0  0  0  0  0  0  0  0  0  0
   -4.7132   -3.7366   -3.5149 C   0  0  0  0  0  0  0  0  0  0  0  0
   -4.8496   -3.2098   -4.4626 H   0  0  0  0  0  0  0  0  0  0  0  0
   -4.6948   -4.8128   -3.7094 H   0  0  0  0  0  0  0  0  0  0  0  0
   -5.5557   -3.5116   -2.8562 H   0  0  0  0  0  0  0  0  0  0  0  0
   -3.2240   -1.9733   -2.5393 N   0  0  0  0  0  0  0  0  0  0  0  0
   -2.0856   -1.4633   -1.7646 C   0  0  2  0  0  0  0  0  0  0  0  0
   -2.4985   -0.2858   -0.8564 C   0  0  0  0  0  0  0  0  0  0  0  0
   -3.5801    0.2650   -1.0246 O   0  0  0  0  0  0  0  0  0  0  0  0
   -0.9947   -1.0257   -2.7458 C   0  0  0  0  0  0  0  0  0  0  0  0
   -4.0240   -1.3484   -2.6379 H   0  0  0  0  0  0  0  0  0  0  0  0
   -1.6938   -2.2544   -1.1164 H   0  0  0  0  0  0  0  0  0  0  0  0
   -1.3641   -0.2244   -3.3941 H   0  0  0  0  0  0  0  0  0  0  0  0
   -0.1150   -0.6608   -2.2075 H   0  0  0  0  0  0  0  0  0  0  0  0
   -0.6896   -1.8696   -3.3728 H   0  0  0  0  0  0  0  0  0  0  0  0
   -1.6690    0.1238    0.1739 N   0  0  0  0  0  0  0  0  0  0  0  0
   -1.8398    1.4055    0.8829 C   0  0  0  0  0  0  0  0  0  0  0  0
   -1.0554    2.5541    0.2336 C   0  0  0  0  0  0  0  0  0  0  0  0
   -1.5380    3.2253   -0.6659 O   0  0  0  0  0  0  0  0  0  0  0  0
   -0.7584   -0.3268    0.2125 H   0  0  0  0  0  0  0  0  0  0  0  0
   -1.5133    1.2936    1.9203 H   0  0  0  0  0  0  0  0  0  0  0  0
   -2.8968    1.6906    0.9167 H   0  0  0  0  0  0  0  0  0  0  0  0
    0.2410    2.8028    0.6412 N   0  0  0  0  0  0  0  0  0  0  0  0
    1.1765    3.6845   -0.0696 C   0  0  2  0  0  0  0  0  0  0  0  0
    2.5797    3.0487   -0.1624 C   0  0  0  0  0  0  0  0  0  0  0  0
    2.8303    2.0243    0.4652 O   0  0  0  0  0  0  0  0  0  0  0  0
    1.2280    5.0211    0.6749 C   0  0  0  0  0  0  0  0  0  0  0  0
    0.6640    2.1191    1.2675 H   0  0  0  0  0  0  0  0  0  0  0  0
    0.8315    3.8581   -1.0945 H   0  0  0  0  0  0  0  0  0  0  0  0
    1.5911    4.8769    1.6976 H   0  0  0  0  0  0  0  0  0  0  0  0
    1.8944    5.7221    0.1634 H   0  0  0  0  0  0  0  0  0  0  0  0
    0.2286    5.4658    0.7190 H   0  0  0  0  0  0  0  0  0  0  0  0
    3.5580    3.6158   -0.9578 N   0  0  0  0  0  0  0  0  0  0  0  0
    4.9015    3.0654   -1.0915 C   0  0  0  0  0  0  0  0  0  0  0  0
    3.3126    4.4496   -1.4842 H   0  0  0  0  0  0  0  0  0  0  0  0
    5.3852    2.9904   -0.1117 H   0  0  0  0  0  0  0  0  0  0  0  0
    4.8641    2.0691   -1.5439 H   0  0  0  0  0  0  0  0  0  0  0  0
    5.5134    3.7111   -1.7285 H   0  0  0  0  0  0  0  0  0  0  0  0
  1  2  2  0  0  0  0
  1  3  1  0  0  0  0
  1  7  1  0  0  0  0
  3  4  1  0  0  0  0
  3  5  1  0  0  0  0
  3  6  1  0  0  0  0
  7  8  1  0  0  0  0
  7 12  1  0  0  0  0
  8  9  1  0  0  0  0
  8 11  1  0  0  0  0
  8 13  1  0  0  0  0
  9 10  2  0  0  0  0
  9 17  1  0  0  0  0
 11 14  1  0  0  0  0
 11 15  1  0  0  0  0
 11 16  1  0  0  0  0
 17 18  1  0  0  0  0
 17 21  1  0  0  0  0
 18 19  1  0  0  0  0
 18 22  1  0  0  0  0
 18 23  1  0  0  0  0
 19 20  2  0  0  0  0
 19 24  1  0  0  0  0
 24 25  1  0  0  0  0
 24 29  1  0  0  0  0
 25 26  1  0  0  0  0
 25 28  1  0  0  0  0
 25 30  1  0  0  0  0
 26 27  2  0  0  0  0
 26 34  1  0  0  0  0
 28 31  1  0  0  0  0
 28 32  1  0  0  0  0
 28 33  1  0  0  0  0
 34 35  1  0  0  0  0
 34 36  1  0  0  0  0
 35 37  1  0  0  0  0
 35 38  1  0  0  0  0
 35 39  1  0  0  0  0
M  END
$$$$

  -OEChem-05262216283D

 39 38  0     1  0  0  0  0  0999 V2000
   -2.6412   -2.9229   -3.0721 C   0  0  0  0  0  0  0  0  0  0  0  0
   -1.9379   -3.7976   -2.5910 O   0  0  0  0  0  0  0  0  0  0  0  0
   -3.6728   -3.2701   -4.1286 C   0  0  0  0  0  0  0  0  0  0  0  0
   -3.4704   -2.7107   -5.0451 H   0  0  0  0  0  0  0  0  0  0  0  0
   -3.6379   -4.3398   -4.3530 H   0  0  0  0  0  0  0  0  0  0  0  0
   -4.6736   -3.0177   -3.7695 H   0  0  0  0  0  0  0  0  0  0  0  0
   -2.5085   -1.6176   -2.6507 N   0  0  0  0  0  0  0  0  0  0  0  0
   -1.6795   -1.1949   -1.5143 C   0  0  2  0  0  0  0  0  0  0  0  0
   -2.2786    0.0430   -0.8093 C   0  0  0  0  0  0  0  0  0  0  0  0
   -3.2985    0.5590   -1.2524 O   0  0  0  0  0  0  0  0  0  0  0  0
   -0.2658   -0.9069   -2.0276 C   0  0  0  0  0  0  0  0  0  0  0  0
   -3.2156   -0.9536   -2.9660 H   0  0  0  0  0  0  0  0  0  0  0  0
   -1.6346   -2.0002   -0.7731 H   0  0  0  0  0  0  0  0  0  0  0  0
   -0.2719   -0.0484   -2.7064 H   0  0  0  0  0  0  0  0  0  0  0  0
    0.4069   -0.6912   -1.1937 H   0  0  0  0  0  0  0  0  0  0  0  0
    0.1296   -1.7747   -2.5647 H   0  0  0  0  0  0  0  0  0  0  0  0
   -1.7094    0.5398    0.3519 N   0  0  0  0  0  0  0  0  0  0  0  0
   -2.0860    1.8445    0.9325 C   0  0  0  0  0  0  0  0  0  0  0  0
   -1.2192    2.9885    0.3935 C   0  0  0  0  0  0  0  0  0  0  0  0
   -1.6012    3.6938   -0.5285 O   0  0  0  0  0  0  0  0  0  0  0  0
   -0.7903    0.1631    0.5753 H   0  0  0  0  0  0  0  0  0  0  0  0
   -1.9836    1.8042    2.0200 H   0  0  0  0  0  0  0  0  0  0  0  0
   -3.1364    2.0757    0.7244 H   0  0  0  0  0  0  0  0  0  0  0  0
    0.0784    3.1119    0.8545 N   0  0  0  0  0  0  0  0  0  0  0  0
    1.1364    3.6591   -0.0034 C   0  0  2  0  0  0  0  0  0  0  0  0
    1.7455    2.5406   -0.8745 C   0  0  0  0  0  0  0  0  0  0  0  0
    1.7921    1.3931   -0.4391 O   0  0  0  0  0  0  0  0  0  0  0  0
    2.2034    4.2871    0.8950 C   0  0  0  0  0  0  0  0  0  0  0  0
    0.3725    2.3669    1.4802 H   0  0  0  0  0  0  0  0  0  0  0  0
    0.7384    4.4391   -0.6614 H   0  0  0  0  0  0  0  0  0  0  0  0
    2.6411    3.5339    1.5582 H   0  0  0  0  0  0  0  0  0  0  0  0
    3.0037    4.7226    0.2886 H   0  0  0  0  0  0  0  0  0  0  0  0
    1.7632    5.0797    1.5082 H   0  0  0  0  0  0  0  0  0  0  0  0
    2.2322    2.8126   -2.1387 N   0  0  0  0  0  0  0  0  0  0  0  0
    2.7381    1.7818   -3.0373 C   0  0  0  0  0  0  0  0  0  0  0  0
    2.0754    3.7473   -2.5062 H   0  0  0  0  0  0  0  0  0  0  0  0
    3.5596    1.2310   -2.5670 H   0  0  0  0  0  0  0  0  0  0  0  0
    1.9435    1.0750   -3.2974 H   0  0  0  0  0  0  0  0  0  0  0  0
    3.1132    2.2359   -3.9595 H   0  0  0  0  0  0  0  0  0  0  0  0
  1  2  2  0  0  0  0
  1  3  1  0  0  0  0
  1  7  1  0  0  0  0
  3  4  1  0  0  0  0
  3  5  1  0  0  0  0
  3  6  1  0  0  0  0
  7  8  1  0  0  0  0
  7 12  1  0  0  0  0
  8  9  1  0  0  0  0
  8 11  1  0  0  0  0
  8 13  1  0  0  0  0
  9 10  2  0  0  0  0
  9 17  1  0  0  0  0
 11 14  1  0  0  0  0
 11 15  1  0  0  0  0
 11 16  1  0  0  0  0
 17 18  1  0  0  0  0
 17 21  1  0  0  0  0
 18 19  1  0  0  0  0
 18 22  1  0  0  0  0
 18 23  1  0  0  0  0
 19 20  2  0  0  0  0
 19 24  1  0  0  0  0
 24 25  1  0  0  0  0
 24 29  1  0  0  0  0
 25 26  1  0  0  0  0
 25 28  1  0  0  0  0
 25 30  1  0  0  0  0
 26 27  2  0  0  0  0
 26 34  1  0  0  0  0
 28 31  1  0  0  0  0
 28 32  1  0  0  0  0
 28 33  1  0  0  0  0
 34 35  1  0  0  0  0
 34 36  1  0  0  0  0
 35 37  1  0  0  0  0
 35 38  1  0  0  0  0
 35 39  1  0  0  0  0
M  END
$$$$

  -OEChem-05262216283D

 39 38  0     1  0  0  0  0  0999 V2000
   -3.3059   -3.0429   -2.5286 C   0  0  0  0  0  0  0  0  0  0  0  0
   -2.9137   -3.6881   -1.5687 O   0  0  0  0  0  0  0  0  0  0  0  0
   -4.5498   -3.4801   -3.2793 C   0  0  0  0  0  0  0  0  0  0  0  0
   -4.3048   -3.6736   -4.3265 H   0  0  0  0  0  0  0  0  0  0  0  0
   -4.9561   -4.3945   -2.8377 H   0  0  0  0  0  0  0  0  0  0  0  0
   -5.3103   -2.6969   -3.2285 H   0  0  0  0  0  0  0  0  0  0  0  0
   -2.6361   -1.9043   -2.9263 N   0  0  0  0  0  0  0  0  0  0  0  0
   -1.6004   -1.2545   -2.1108 C   0  0  2  0  0  0  0  0  0  0  0  0
   -2.1610   -0.0379   -1.3458 C   0  0  0  0  0  0  0  0  0  0  0  0
   -3.0466    0.6426   -1.8486 O   0  0  0  0  0  0  0  0  0  0  0  0
   -0.4714   -0.8227   -3.0480 C   0  0  0  0  0  0  0  0  0  0  0  0
   -3.1418   -1.3033   -3.5733 H   0  0  0  0  0  0  0  0  0  0  0  0
   -1.1876   -1.9570   -1.3795 H   0  0  0  0  0  0  0  0  0  0  0  0
   -0.8344   -0.0903   -3.7761 H   0  0  0  0  0  0  0  0  0  0  0  0
    0.3451   -0.3698   -2.4778 H   0  0  0  0  0  0  0  0  0  0  0  0
   -0.0759   -1.6881   -3.5885 H   0  0  0  0  0  0  0  0  0  0  0  0
   -1.6439    0.3131   -0.1112 N   0  0  0  0  0  0  0  0  0  0  0  0
   -2.0131    1.5434    0.6155 C   0  0  0  0  0  0  0  0  0  0  0  0
   -1.0999    2.7228    0.2595 C   0  0  0  0  0  0  0  0  0  0  0  0
   -1.5545    3.7528   -0.2161 O   0  0  0  0  0  0  0  0  0  0  0  0
   -0.8911   -0.2686    0.2465 H   0  0  0  0  0  0  0  0  0  0  0  0
   -1.9543    1.3662    1.6927 H   0  0  0  0  0  0  0  0  0  0  0  0
   -3.0491    1.8233    0.3951 H   0  0  0  0  0  0  0  0  0  0  0  0
    0.2569    2.6184    0.5018 N   0  0  0  0  0  0  0  0  0  0  0  0
    1.2469    3.4374   -0.2093 C   0  0  2  0  0  0  0  0  0  0  0  0
    1.9359    2.6123   -1.3166 C   0  0  0  0  0  0  0  0  0  0  0  0
    1.9950    1.3894   -1.2190 O   0  0  0  0  0  0  0  0  0  0  0  0
    2.2704    3.9359    0.8124 C   0  0  0  0  0  0  0  0  0  0  0  0
    0.5688    1.6795    0.7362 H   0  0  0  0  0  0  0  0  0  0  0  0
    0.7739    4.3064   -0.6787 H   0  0  0  0  0  0  0  0  0  0  0  0
    2.7791    3.0926    1.2908 H   0  0  0  0  0  0  0  0  0  0  0  0
    3.0216    4.5649    0.3251 H   0  0  0  0  0  0  0  0  0  0  0  0
    1.7730    4.5286    1.5866 H   0  0  0  0  0  0  0  0  0  0  0  0
    2.4942    3.2364   -2.4162 N   0  0  0  0  0  0  0  0  0  0  0  0
    3.1031    2.5108   -3.5246 C   0  0  0  0  0  0  0  0  0  0  0  0
    2.3610    4.2403   -2.5021 H   0  0  0  0  0  0  0  0  0  0  0  0
    3.9216    1.8774   -3.1664 H   0  0  0  0  0  0  0  0  0  0  0  0
    2.3605    1.8790   -4.0233 H   0  0  0  0  0  0  0  0  0  0  0  0
    3.5085    3.2140   -4.2586 H   0  0  0  0  0  0  0  0  0  0  0  0
  1  2  2  0  0  0  0
  1  3  1  0  0  0  0
  1  7  1  0  0  0  0
  3  4  1  0  0  0  0
  3  5  1  0  0  0  0
  3  6  1  0  0  0  0
  7  8  1  0  0  0  0
  7 12  1  0  0  0  0
  8  9  1  0  0  0  0
  8 11  1  0  0  0  0
  8 13  1  0  0  0  0
  9 10  2  0  0  0  0
  9 17  1  0  0  0  0
 11 14  1  0  0  0  0
 11 15  1  0  0  0  0
 11 16  1  0  0  0  0
 17 18  1  0  0  0  0
 17 21  1  0  0  0  0
 18 19  1  0  0  0  0
 18 22  1  0  0  0  0
 18 23  1  0  0  0  0
 19 20  2  0  0  0  0
 19 24  1  0  0  0  0
 24 25  1  0  0  0  0
 24 29  1  0  0  0  0
 25 26  1  0  0  0  0
 25 28  1  0  0  0  0
 25 30  1  0  0  0  0
 26 27  2  0  0  0  0
 26 34  1  0  0  0  0
 28 31  1  0  0  0  0
 28 32  1  0  0  0  0
 28 33  1  0  0  0  0
 34 35  1  0  0  0  0
 34 36  1  0  0  0  0
 35 37  1  0  0  0  0
 35 38  1  0  0  0  0
 35 39  1  0  0  0  0
M  END
$$$$

  -OEChem-05262216283D

 39 38  0     1  0  0  0  0  0999 V2000
   -3.6581   -2.9974   -2.2345 C   0  0  0  0  0  0  0  0  0  0  0  0
   -3.1507   -3.4123   -1.2033 O   0  0  0  0  0  0  0  0  0  0  0  0
   -5.0416   -3.4654   -2.6457 C   0  0  0  0  0  0  0  0  0  0  0  0
   -4.9962   -3.9521   -3.6229 H   0  0  0  0  0  0  0  0  0  0  0  0
   -5.4309   -4.1792   -1.9143 H   0  0  0  0  0  0  0  0  0  0  0  0
   -5.7230   -2.6127   -2.7014 H   0  0  0  0  0  0  0  0  0  0  0  0
   -2.9893   -2.0679   -3.0040 N   0  0  0  0  0  0  0  0  0  0  0  0
   -1.7908   -1.3725   -2.5176 C   0  0  2  0  0  0  0  0  0  0  0  0
   -2.1606   -0.1569   -1.6436 C   0  0  0  0  0  0  0  0  0  0  0  0
   -2.9744    0.6629   -2.0494 O   0  0  0  0  0  0  0  0  0  0  0  0
   -0.9625   -0.9322   -3.7269 C   0  0  0  0  0  0  0  0  0  0  0  0
   -3.5489   -1.5889   -3.7050 H   0  0  0  0  0  0  0  0  0  0  0  0
   -1.1765   -2.0554   -1.9213 H   0  0  0  0  0  0  0  0  0  0  0  0
   -1.5326   -0.2388   -4.3537 H   0  0  0  0  0  0  0  0  0  0  0  0
   -0.0481   -0.4279   -3.3971 H   0  0  0  0  0  0  0  0  0  0  0  0
   -0.6808   -1.7999   -4.3311 H   0  0  0  0  0  0  0  0  0  0  0  0
   -1.5325    0.0475   -0.4286 N   0  0  0  0  0  0  0  0  0  0  0  0
   -1.8517    1.1674    0.4773 C   0  0  0  0  0  0  0  0  0  0  0  0
   -0.9977    2.4082    0.1913 C   0  0  0  0  0  0  0  0  0  0  0  0
   -1.4802    3.5298    0.2577 O   0  0  0  0  0  0  0  0  0  0  0  0
   -0.9818   -0.7298   -0.0719 H   0  0  0  0  0  0  0  0  0  0  0  0
   -1.6799    0.8617    1.5127 H   0  0  0  0  0  0  0  0  0  0  0  0
   -2.9093    1.4401    0.3920 H   0  0  0  0  0  0  0  0  0  0  0  0
    0.3592    2.2586   -0.0174 N   0  0  0  0  0  0  0  0  0  0  0  0
    1.1966    3.3007   -0.6221 C   0  0  2  0  0  0  0  0  0  0  0  0
    1.9779    2.7405   -1.8303 C   0  0  0  0  0  0  0  0  0  0  0  0
    2.0386    1.5277   -2.0153 O   0  0  0  0  0  0  0  0  0  0  0  0
    2.1482    3.8289    0.4530 C   0  0  0  0  0  0  0  0  0  0  0  0
    0.6517    1.3038   -0.2186 H   0  0  0  0  0  0  0  0  0  0  0  0
    0.5778    4.1269   -0.9882 H   0  0  0  0  0  0  0  0  0  0  0  0
    2.7902    3.0244    0.8258 H   0  0  0  0  0  0  0  0  0  0  0  0
    2.7822    4.6232    0.0476 H   0  0  0  0  0  0  0  0  0  0  0  0
    1.5773    4.2376    1.2931 H   0  0  0  0  0  0  0  0  0  0  0  0
    2.6072    3.5948   -2.7168 N   0  0  0  0  0  0  0  0  0  0  0  0
    3.3274    3.1363   -3.8987 C   0  0  0  0  0  0  0  0  0  0  0  0
    2.4910    4.5933   -2.5690 H   0  0  0  0  0  0  0  0  0  0  0  0
    4.1049    2.4168   -3.6203 H   0  0  0  0  0  0  0  0  0  0  0  0
    2.6399    2.6579   -4.6041 H   0  0  0  0  0  0  0  0  0  0  0  0
    3.8070    3.9822   -4.4008 H   0  0  0  0  0  0  0  0  0  0  0  0
  1  2  2  0  0  0  0
  1  3  1  0  0  0  0
  1  7  1  0  0  0  0
  3  4  1  0  0  0  0
  3  5  1  0  0  0  0
  3  6  1  0  0  0  0
  7  8  1  0  0  0  0
  7 12  1  0  0  0  0
  8  9  1  0  0  0  0
  8 11  1  0  0  0  0
  8 13  1  0  0  0  0
  9 10  2  0  0  0  0
  9 17  1  0  0  0  0
 11 14  1  0  0  0  0
 11 15  1  0  0  0  0
 11 16  1  0  0  0  0
 17 18  1  0  0  0  0
 17 21  1  0  0  0  0
 18 19  1  0  0  0  0
 18 22  1  0  0  0  0
 18 23  1  0  0  0  0
 19 20  2  0  0  0  0
 19 24  1  0  0  0  0
 24 25  1  0  0  0  0
 24 29  1  0  0  0  0
 25 26  1  0  0  0  0
 25 28  1  0  0  0  0
 25 30  1  0  0  0  0
 26 27  2  0  0  0  0
 26 34  1  0  0  0  0
 28 31  1  0  0  0  0
 28 32  1  0  0  0  0
 28 33  1  0  0  0  0
 34 35  1  0  0  0  0
 34 36  1  0  0  0  0
 35 37  1  0  0  0  0
 35 38  1  0  0  0  0
 35 39  1  0  0  0  0
M  END
$$$$

  -OEChem-05262216283D

 39 38  0     1  0  0  0  0  0999 V2000
   -1.8186   -1.7439   -1.4550 C   0  0  0  0  0  0  0  0  0  0  0  0
   -1.3304   -0.9099   -0.7039 O   0  0  0  0  0  0  0  0  0  0  0  0
   -2.1238   -3.1388   -0.9441 C   0  0  0  0  0  0  0  0  0  0  0  0
   -1.6022   -3.8813   -1.5532 H   0  0  0  0  0  0  0  0  0  0  0  0
   -1.7929   -3.2422    0.0934 H   0  0  0  0  0  0  0  0  0  0  0  0
   -3.1988   -3.3295   -0.9908 H   0  0  0  0  0  0  0  0  0  0  0  0
   -2.1744   -1.3866   -2.7416 N   0  0  0  0  0  0  0  0  0  0  0  0
   -1.6811   -0.1816   -3.4372 C   0  0  2  0  0  0  0  0  0  0  0  0
   -2.3581    1.1486   -3.0135 C   0  0  0  0  0  0  0  0  0  0  0  0
   -2.4318    2.0948   -3.7854 O   0  0  0  0  0  0  0  0  0  0  0  0
   -1.8274   -0.4430   -4.9414 C   0  0  0  0  0  0  0  0  0  0  0  0
   -2.5627   -2.1287   -3.3174 H   0  0  0  0  0  0  0  0  0  0  0  0
   -0.6123   -0.0673   -3.2203 H   0  0  0  0  0  0  0  0  0  0  0  0
   -2.8839   -0.5155   -5.2185 H   0  0  0  0  0  0  0  0  0  0  0  0
   -1.3750    0.3725   -5.5154 H   0  0  0  0  0  0  0  0  0  0  0  0
   -1.3237   -1.3735   -5.2203 H   0  0  0  0  0  0  0  0  0  0  0  0
   -2.6527    1.3417   -1.6784 N   0  0  0  0  0  0  0  0  0  0  0  0
   -2.6163    2.6603   -1.0276 C   0  0  0  0  0  0  0  0  0  0  0  0
   -1.2135    2.9290   -0.4641 C   0  0  0  0  0  0  0  0  0  0  0  0
   -0.7164    4.0419   -0.5796 O   0  0  0  0  0  0  0  0  0  0  0  0
   -2.4412    0.5288   -1.0984 H   0  0  0  0  0  0  0  0  0  0  0  0
   -3.3390    2.6888   -0.2080 H   0  0  0  0  0  0  0  0  0  0  0  0
   -2.8853    3.4583   -1.7280 H   0  0  0  0  0  0  0  0  0  0  0  0
   -0.4161    1.8766   -0.0396 N   0  0  0  0  0  0  0  0  0  0  0  0
    1.0460    1.9283   -0.1687 C   0  0  2  0  0  0  0  0  0  0  0  0
    1.4578    1.8155   -1.6581 C   0  0  0  0  0  0  0  0  0  0  0  0
    1.8904    0.7712   -2.1335 O   0  0  0  0  0  0  0  0  0  0  0  0
    1.6297    0.8070    0.6977 C   0  0  0  0  0  0  0  0  0  0  0  0
   -0.8299    0.9460   -0.1309 H   0  0  0  0  0  0  0  0  0  0  0  0
    1.4257    2.8813    0.2150 H   0  0  0  0  0  0  0  0  0  0  0  0
    1.2665   -0.1700    0.3625 H   0  0  0  0  0  0  0  0  0  0  0  0
    2.7223    0.8104    0.6347 H   0  0  0  0  0  0  0  0  0  0  0  0
    1.3412    0.9464    1.7439 H   0  0  0  0  0  0  0  0  0  0  0  0
    1.1966    2.8782   -2.5014 N   0  0  0  0  0  0  0  0  0  0  0  0
    1.2661    2.7901   -3.9536 C   0  0  0  0  0  0  0  0  0  0  0  0
    0.6596    3.6443   -2.0863 H   0  0  0  0  0  0  0  0  0  0  0  0
    2.2582    2.4535   -4.2724 H   0  0  0  0  0  0  0  0  0  0  0  0
    0.5156    2.0881   -4.3308 H   0  0  0  0  0  0  0  0  0  0  0  0
    1.0765    3.7718   -4.3983 H   0  0  0  0  0  0  0  0  0  0  0  0
  1  2  2  0  0  0  0
  1  3  1  0  0  0  0
  1  7  1  0  0  0  0
  3  4  1  0  0  0  0
  3  5  1  0  0  0  0
  3  6  1  0  0  0  0
  7  8  1  0  0  0  0
  7 12  1  0  0  0  0
  8  9  1  0  0  0  0
  8 11  1  0  0  0  0
  8 13  1  0  0  0  0
  9 10  2  0  0  0  0
  9 17  1  0  0  0  0
 11 14  1  0  0  0  0
 11 15  1  0  0  0  0
 11 16  1  0  0  0  0
 17 18  1  0  0  0  0
 17 21  1  0  0  0  0
 18 19  1  0  0  0  0
 18 22  1  0  0  0  0
 18 23  1  0  0  0  0
 19 20  2  0  0  0  0
 19 24  1  0  0  0  0
 24 25  1  0  0  0  0
 24 29  1  0  0  0  0
 25 26  1  0  0  0  0
 25 28  1  0  0  0  0
 25 30  1  0  0  0  0
 26 27  2  0  0  0  0
 26 34  1  0  0  0  0
 28 31  1  0  0  0  0
 28 32  1  0  0  0  0
 28 33  1  0  0  0  0
 34 35  1  0  0  0  0
 34 36  1  0  0  0  0
 35 37  1  0  0  0  0
 35 38  1  0  0  0  0
 35 39  1  0  0  0  0
M  END
$$$$

  -OEChem-05262216283D

 39 38  0     1  0  0  0  0  0999 V2000
   -2.6630   -2.5243   -1.6918 C   0  0  0  0  0  0  0  0  0  0  0  0
   -1.9480   -2.0796   -0.8051 O   0  0  0  0  0  0  0  0  0  0  0  0
   -3.4344   -3.8129   -1.4784 C   0  0  0  0  0  0  0  0  0  0  0  0
   -3.1294   -4.5578   -2.2176 H   0  0  0  0  0  0  0  0  0  0  0  0
   -3.2378   -4.2090   -0.4780 H   0  0  0  0  0  0  0  0  0  0  0  0
   -4.5067   -3.6284   -1.5788 H   0  0  0  0  0  0  0  0  0  0  0  0
   -2.8037   -1.8223   -2.8717 N   0  0  0  0  0  0  0  0  0  0  0  0
   -2.0337   -0.6145   -3.2119 C   0  0  2  0  0  0  0  0  0  0  0  0
   -2.5443    0.6570   -2.4898 C   0  0  0  0  0  0  0  0  0  0  0  0
   -2.8869    1.6593   -3.1045 O   0  0  0  0  0  0  0  0  0  0  0  0
   -2.0448   -0.4731   -4.7386 C   0  0  0  0  0  0  0  0  0  0  0  0
   -3.4317   -2.2066   -3.5716 H   0  0  0  0  0  0  0  0  0  0  0  0
   -0.9909   -0.7536   -2.9050 H   0  0  0  0  0  0  0  0  0  0  0  0
   -3.0625   -0.3031   -5.1038 H   0  0  0  0  0  0  0  0  0  0  0  0
   -1.4219    0.3753   -5.0413 H   0  0  0  0  0  0  0  0  0  0  0  0
   -1.6463   -1.3765   -5.2101 H   0  0  0  0  0  0  0  0  0  0  0  0
   -2.5225    0.6963   -1.1074 N   0  0  0  0  0  0  0  0  0  0  0  0
   -2.7384    1.9174   -0.3090 C   0  0  0  0  0  0  0  0  0  0  0  0
   -1.4234    2.6579   -0.0325 C   0  0  0  0  0  0  0  0  0  0  0  0
   -1.4320    3.8471    0.2523 O   0  0  0  0  0  0  0  0  0  0  0  0
   -2.2479   -0.1748   -0.6422 H   0  0  0  0  0  0  0  0  0  0  0  0
   -3.1948    1.6505    0.6478 H   0  0  0  0  0  0  0  0  0  0  0  0
   -3.4274    2.5983   -0.8195 H   0  0  0  0  0  0  0  0  0  0  0  0
   -0.2238    2.0042   -0.2437 N   0  0  0  0  0  0  0  0  0  0  0  0
    0.9592    2.7023   -0.7546 C   0  0  2  0  0  0  0  0  0  0  0  0
    1.1272    2.4016   -2.2596 C   0  0  0  0  0  0  0  0  0  0  0  0
    0.8400    1.2893   -2.6955 O   0  0  0  0  0  0  0  0  0  0  0  0
    2.1764    2.2240    0.0378 C   0  0  0  0  0  0  0  0  0  0  0  0
   -0.3454    1.0637   -0.6156 H   0  0  0  0  0  0  0  0  0  0  0  0
    0.8634    3.7854   -0.6260 H   0  0  0  0  0  0  0  0  0  0  0  0
    2.3088    1.1432   -0.0762 H   0  0  0  0  0  0  0  0  0  0  0  0
    3.0826    2.7254   -0.3155 H   0  0  0  0  0  0  0  0  0  0  0  0
    2.0465    2.4495    1.1009 H   0  0  0  0  0  0  0  0  0  0  0  0
    1.5820    3.3773   -3.1263 N   0  0  0  0  0  0  0  0  0  0  0  0
    1.5981    3.2007   -4.5736 C   0  0  0  0  0  0  0  0  0  0  0  0
    1.6812    4.3161   -2.7503 H   0  0  0  0  0  0  0  0  0  0  0  0
    2.1742    2.3105   -4.8474 H   0  0  0  0  0  0  0  0  0  0  0  0
    0.5778    3.0909   -4.9565 H   0  0  0  0  0  0  0  0  0  0  0  0
    2.0593    4.0686   -5.0548 H   0  0  0  0  0  0  0  0  0  0  0  0
  1  2  2  0  0  0  0
  1  3  1  0  0  0  0
  1  7  1  0  0  0  0
  3  4  1  0  0  0  0
  3  5  1  0  0  0  0
  3  6  1  0  0  0  0
  7  8  1  0  0  0  0
  7 12  1  0  0  0  0
  8  9  1  0  0  0  0
  8 11  1  0  0  0  0
  8 13  1  0  0  0  0
  9 10  2  0  0  0  0
  9 17  1  0  0  0  0
 11 14  1  0  0  0  0
 11 15  1  0  0  0  0
 11 16  1  0  0  0  0
 17 18  1  0  0  0  0
 17 21  1  0  0  0  0
 18 19  1  0  0  0  0
 18 22  1  0  0  0  0
 18 23  1  0  0  0  0
 19 20  2  0  0  0  0
 19 24  1  0  0  0  0
 24 25  1  0  0  0  0
 24 29  1  0  0  0  0
 25 26  1  0  0  0  0
 25 28  1  0  0  0  0
 25 30  1  0  0  0  0
 26 27  2  0  0  0  0
 26 34  1  0  0  0  0
 28 31  1  0  0  0  0
 28 32  1  0  0  0  0
 28 33  1  0  0  0  0
 34 35  1  0  0  0  0
 34 36  1  0  0  0  0
 35 37  1  0  0  0  0
 35 38  1  0  0  0  0
 35 39  1  0  0  0  0
M  END
$$$$

  -OEChem-05262216283D

 39 38  0     1  0  0  0  0  0999 V2000
   -3.9519   -3.1942   -2.1830 C   0  0  0  0  0  0  0  0  0  0  0  0
   -3.3336   -3.7345   -1.2785 O   0  0  0  0  0  0  0  0  0  0  0  0
   -5.3656   -3.6366   -2.5103 C   0  0  0  0  0  0  0  0  0  0  0  0
   -5.4210   -3.9734   -3.5484 H   0  0  0  0  0  0  0  0  0  0  0  0
   -5.6639   -4.4608   -1.8561 H   0  0  0  0  0  0  0  0  0  0  0  0
   -6.0595   -2.8050   -2.3662 H   0  0  0  0  0  0  0  0  0  0  0  0
   -3.3728   -2.1616   -2.8915 N   0  0  0  0  0  0  0  0  0  0  0  0
   -2.1127   -1.5304   -2.4787 C   0  0  2  0  0  0  0  0  0  0  0  0
   -2.3497   -0.3787   -1.4807 C   0  0  0  0  0  0  0  0  0  0  0  0
   -3.2033    0.4682   -1.7118 O   0  0  0  0  0  0  0  0  0  0  0  0
   -1.4057   -1.0133   -3.7343 C   0  0  0  0  0  0  0  0  0  0  0  0
   -4.0006   -1.6095   -3.4704 H   0  0  0  0  0  0  0  0  0  0  0  0
   -1.4594   -2.2703   -2.0046 H   0  0  0  0  0  0  0  0  0  0  0  0
   -2.0120   -0.2501   -4.2333 H   0  0  0  0  0  0  0  0  0  0  0  0
   -0.4402   -0.5687   -3.4726 H   0  0  0  0  0  0  0  0  0  0  0  0
   -1.2292   -1.8341   -4.4364 H   0  0  0  0  0  0  0  0  0  0  0  0
   -1.5316   -0.2229   -0.3758 N   0  0  0  0  0  0  0  0  0  0  0  0
   -1.6795    0.8748    0.6016 C   0  0  0  0  0  0  0  0  0  0  0  0
   -0.8647    2.1251    0.2427 C   0  0  0  0  0  0  0  0  0  0  0  0
   -0.8646    3.0950    0.9872 O   0  0  0  0  0  0  0  0  0  0  0  0
   -0.8892   -0.9835   -0.1662 H   0  0  0  0  0  0  0  0  0  0  0  0
   -1.3523    0.5275    1.5853 H   0  0  0  0  0  0  0  0  0  0  0  0
   -2.7315    1.1636    0.6947 H   0  0  0  0  0  0  0  0  0  0  0  0
   -0.0930    2.1425   -0.9017 N   0  0  0  0  0  0  0  0  0  0  0  0
    0.5540    3.3337   -1.4579 C   0  0  2  0  0  0  0  0  0  0  0  0
    0.6602    3.2289   -2.9942 C   0  0  0  0  0  0  0  0  0  0  0  0
    0.5011    2.1462   -3.5516 O   0  0  0  0  0  0  0  0  0  0  0  0
    1.9437    3.4793   -0.8307 C   0  0  0  0  0  0  0  0  0  0  0  0
   -0.2534    1.3744   -1.5521 H   0  0  0  0  0  0  0  0  0  0  0  0
   -0.0454    4.2202   -1.2241 H   0  0  0  0  0  0  0  0  0  0  0  0
    2.5596    2.6029   -1.0569 H   0  0  0  0  0  0  0  0  0  0  0  0
    2.4475    4.3698   -1.2178 H   0  0  0  0  0  0  0  0  0  0  0  0
    1.8608    3.5759    0.2564 H   0  0  0  0  0  0  0  0  0  0  0  0
    0.9277    4.3506   -3.7569 N   0  0  0  0  0  0  0  0  0  0  0  0
    1.0076    4.3273   -5.2122 C   0  0  0  0  0  0  0  0  0  0  0  0
    1.0195    5.2387   -3.2720 H   0  0  0  0  0  0  0  0  0  0  0  0
    1.8051    3.6526   -5.5414 H   0  0  0  0  0  0  0  0  0  0  0  0
    0.0590    3.9888   -5.6422 H   0  0  0  0  0  0  0  0  0  0  0  0
    1.2232    5.3292   -5.5959 H   0  0  0  0  0  0  0  0  0  0  0  0
  1  2  2  0  0  0  0
  1  3  1  0  0  0  0
  1  7  1  0  0  0  0
  3  4  1  0  0  0  0
  3  5  1  0  0  0  0
  3  6  1  0  0  0  0
  7  8  1  0  0  0  0
  7 12  1  0  0  0  0
  8  9  1  0  0  0  0
  8 11  1  0  0  0  0
  8 13  1  0  0  0  0
  9 10  2  0  0  0  0
  9 17  1  0  0  0  0
 11 14  1  0  0  0  0
 11 15  1  0  0  0  0
 11 16  1  0  0  0  0
 17 18  1  0  0  0  0
 17 21  1  0  0  0  0
 18 19  1  0  0  0  0
 18 22  1  0  0  0  0
 18 23  1  0  0  0  0
 19 20  2  0  0  0  0
 19 24  1  0  0  0  0
 24 25  1  0  0  0  0
 24 29  1  0  0  0  0
 25 26  1  0  0  0  0
 25 28  1  0  0  0  0
 25 30  1  0  0  0  0
 26 27  2  0  0  0  0
 26 34  1  0  0  0  0
 28 31  1  0  0  0  0
 28 32  1  0  0  0  0
 28 33  1  0  0  0  0
 34 35  1  0  0  0  0
 34 36  1  0  0  0  0
 35 37  1  0  0  0  0
 35 38  1  0  0  0  0
 35 39  1  0  0  0  0
M  END
$$$$

  -OEChem-05262216283D

 39 38  0     1  0  0  0  0  0999 V2000
   -3.9708   -3.2621   -2.1923 C   0  0  0  0  0  0  0  0  0  0  0  0
   -3.3473   -3.8552   -1.3256 O   0  0  0  0  0  0  0  0  0  0  0  0
   -5.3865   -3.6850   -2.5361 C   0  0  0  0  0  0  0  0  0  0  0  0
   -5.4459   -3.9637   -3.5910 H   0  0  0  0  0  0  0  0  0  0  0  0
   -5.6819   -4.5445   -1.9274 H   0  0  0  0  0  0  0  0  0  0  0  0
   -6.0796   -2.8623   -2.3431 H   0  0  0  0  0  0  0  0  0  0  0  0
   -3.3964   -2.1890   -2.8417 N   0  0  0  0  0  0  0  0  0  0  0  0
   -2.1413   -1.5748   -2.3911 C   0  0  2  0  0  0  0  0  0  0  0  0
   -2.3875   -0.4736   -1.3402 C   0  0  0  0  0  0  0  0  0  0  0  0
   -3.2834    0.3443   -1.5057 O   0  0  0  0  0  0  0  0  0  0  0  0
   -1.4350   -0.9888   -3.6165 C   0  0  0  0  0  0  0  0  0  0  0  0
   -4.0291   -1.6047   -3.3825 H   0  0  0  0  0  0  0  0  0  0  0  0
   -1.4859   -2.3340   -1.9517 H   0  0  0  0  0  0  0  0  0  0  0  0
   -2.0500   -0.2110   -4.0815 H   0  0  0  0  0  0  0  0  0  0  0  0
   -0.4774   -0.5431   -3.3293 H   0  0  0  0  0  0  0  0  0  0  0  0
   -1.2435   -1.7721   -4.3563 H   0  0  0  0  0  0  0  0  0  0  0  0
   -1.5075   -0.2902   -0.2893 N   0  0  0  0  0  0  0  0  0  0  0  0
   -1.6202    0.8041    0.6960 C   0  0  0  0  0  0  0  0  0  0  0  0
   -0.8613    2.0712    0.2784 C   0  0  0  0  0  0  0  0  0  0  0  0
   -0.5921    2.9294    1.1065 O   0  0  0  0  0  0  0  0  0  0  0  0
   -0.7832   -0.9929   -0.1621 H   0  0  0  0  0  0  0  0  0  0  0  0
   -1.2234    0.4670    1.6576 H   0  0  0  0  0  0  0  0  0  0  0  0
   -2.6705    1.0679    0.8559 H   0  0  0  0  0  0  0  0  0  0  0  0
   -0.4349    2.2201   -1.0260 N   0  0  0  0  0  0  0  0  0  0  0  0
    0.2007    3.4177   -1.5813 C   0  0  2  0  0  0  0  0  0  0  0  0
    0.0097    3.4767   -3.1122 C   0  0  0  0  0  0  0  0  0  0  0  0
   -0.3137    2.4681   -3.7331 O   0  0  0  0  0  0  0  0  0  0  0  0
    1.6929    3.3970   -1.2330 C   0  0  0  0  0  0  0  0  0  0  0  0
   -0.8259    1.5610   -1.6992 H   0  0  0  0  0  0  0  0  0  0  0  0
   -0.2636    4.3101   -1.1484 H   0  0  0  0  0  0  0  0  0  0  0  0
    2.1724    2.5113   -1.6615 H   0  0  0  0  0  0  0  0  0  0  0  0
    2.1913    4.2882   -1.6254 H   0  0  0  0  0  0  0  0  0  0  0  0
    1.8316    3.3765   -0.1475 H   0  0  0  0  0  0  0  0  0  0  0  0
    0.1966    4.6628   -3.7980 N   0  0  0  0  0  0  0  0  0  0  0  0
   -0.0100    4.7960   -5.2351 C   0  0  0  0  0  0  0  0  0  0  0  0
    0.4351    5.4881   -3.2554 H   0  0  0  0  0  0  0  0  0  0  0  0
    0.6683    4.1333   -5.7830 H   0  0  0  0  0  0  0  0  0  0  0  0
   -1.0419    4.5408   -5.4993 H   0  0  0  0  0  0  0  0  0  0  0  0
    0.1825    5.8256   -5.5517 H   0  0  0  0  0  0  0  0  0  0  0  0
  1  2  2  0  0  0  0
  1  3  1  0  0  0  0
  1  7  1  0  0  0  0
  3  4  1  0  0  0  0
  3  5  1  0  0  0  0
  3  6  1  0  0  0  0
  7  8  1  0  0  0  0
  7 12  1  0  0  0  0
  8  9  1  0  0  0  0
  8 11  1  0  0  0  0
  8 13  1  0  0  0  0
  9 10  2  0  0  0  0
  9 17  1  0  0  0  0
 11 14  1  0  0  0  0
 11 15  1  0  0  0  0
 11 16  1  0  0  0  0
 17 18  1  0  0  0  0
 17 21  1  0  0  0  0
 18 19  1  0  0  0  0
 18 22  1  0  0  0  0
 18 23  1  0  0  0  0
 19 20  2  0  0  0  0
 19 24  1  0  0  0  0
 24 25  1  0  0  0  0
 24 29  1  0  0  0  0
 25 26  1  0  0  0  0
 25 28  1  0  0  0  0
 25 30  1  0  0  0  0
 26 27  2  0  0  0  0
 26 34  1  0  0  0  0
 28 31  1  0  0  0  0
 28 32  1  0  0  0  0
 28 33  1  0  0  0  0
 34 35  1  0  0  0  0
 34 36  1  0  0  0  0
 35 37  1  0  0  0  0
 35 38  1  0  0  0  0
 35 39  1  0  0  0  0
M  END
$$$$

  -OEChem-05262216283D

 39 38  0     1  0  0  0  0  0999 V2000
   -3.9160   -3.3465   -2.1490 C   0  0  0  0  0  0  0  0  0  0  0  0
   -3.2188   -3.9321   -1.3347 O   0  0  0  0  0  0  0  0  0  0  0  0
   -5.3300   -3.8220   -2.4240 C   0  0  0  0  0  0  0  0  0  0  0  0
   -5.4452   -4.0567   -3.4849 H   0  0  0  0  0  0  0  0  0  0  0  0
   -5.5462   -4.7204   -1.8393 H   0  0  0  0  0  0  0  0  0  0  0  0
   -6.0459   -3.0431   -2.1496 H   0  0  0  0  0  0  0  0  0  0  0  0
   -3.4291   -2.2308   -2.7979 N   0  0  0  0  0  0  0  0  0  0  0  0
   -2.1778   -1.5719   -2.4034 C   0  0  2  0  0  0  0  0  0  0  0  0
   -2.4118   -0.5166   -1.3041 C   0  0  0  0  0  0  0  0  0  0  0  0
   -3.3226    0.2946   -1.4160 O   0  0  0  0  0  0  0  0  0  0  0  0
   -1.5727   -0.9150   -3.6483 C   0  0  0  0  0  0  0  0  0  0  0  0
   -4.1170   -1.6633   -3.2868 H   0  0  0  0  0  0  0  0  0  0  0  0
   -1.4635   -2.3122   -2.0280 H   0  0  0  0  0  0  0  0  0  0  0  0
   -2.2454   -0.1483   -4.0477 H   0  0  0  0  0  0  0  0  0  0  0  0
   -0.6178   -0.4389   -3.4035 H   0  0  0  0  0  0  0  0  0  0  0  0
   -1.3959   -1.6640   -4.4265 H   0  0  0  0  0  0  0  0  0  0  0  0
   -1.5012   -0.3464   -0.2777 N   0  0  0  0  0  0  0  0  0  0  0  0
   -1.6060    0.7161    0.7414 C   0  0  0  0  0  0  0  0  0  0  0  0
   -0.8838    2.0025    0.3207 C   0  0  0  0  0  0  0  0  0  0  0  0
   -0.3664    2.7245    1.1611 O   0  0  0  0  0  0  0  0  0  0  0  0
   -0.7474   -1.0253   -0.2049 H   0  0  0  0  0  0  0  0  0  0  0  0
   -1.1704    0.3633    1.6808 H   0  0  0  0  0  0  0  0  0  0  0  0
   -2.6549    0.9551    0.9428 H   0  0  0  0  0  0  0  0  0  0  0  0
   -0.7858    2.3223   -1.0187 N   0  0  0  0  0  0  0  0  0  0  0  0
   -0.1518    3.5239   -1.5699 C   0  0  2  0  0  0  0  0  0  0  0  0
   -0.6013    3.7672   -3.0266 C   0  0  0  0  0  0  0  0  0  0  0  0
   -1.0635    2.8468   -3.6936 O   0  0  0  0  0  0  0  0  0  0  0  0
    1.3725    3.3630   -1.5180 C   0  0  0  0  0  0  0  0  0  0  0  0
   -1.3637    1.7698   -1.6556 H   0  0  0  0  0  0  0  0  0  0  0  0
   -0.4477    4.3929   -0.9731 H   0  0  0  0  0  0  0  0  0  0  0  0
    1.6831    2.4863   -2.0952 H   0  0  0  0  0  0  0  0  0  0  0  0
    1.8662    4.2466   -1.9331 H   0  0  0  0  0  0  0  0  0  0  0  0
    1.7110    3.2367   -0.4852 H   0  0  0  0  0  0  0  0  0  0  0  0
   -0.4753    5.0203   -3.5979 N   0  0  0  0  0  0  0  0  0  0  0  0
   -0.9033    5.3269   -4.9575 C   0  0  0  0  0  0  0  0  0  0  0  0
   -0.1181    5.7701   -3.0130 H   0  0  0  0  0  0  0  0  0  0  0  0
   -0.4040    4.6678   -5.6757 H   0  0  0  0  0  0  0  0  0  0  0  0
   -1.9864    5.1997   -5.0557 H   0  0  0  0  0  0  0  0  0  0  0  0
   -0.6523    6.3618   -5.2088 H   0  0  0  0  0  0  0  0  0  0  0  0
  1  2  2  0  0  0  0
  1  3  1  0  0  0  0
  1  7  1  0  0  0  0
  3  4  1  0  0  0  0
  3  5  1  0  0  0  0
  3  6  1  0  0  0  0
  7  8  1  0  0  0  0
  7 12  1  0  0  0  0
  8  9  1  0  0  0  0
  8 11  1  0  0  0  0
  8 13  1  0  0  0  0
  9 10  2  0  0  0  0
  9 17  1  0  0  0  0
 11 14  1  0  0  0  0
 11 15  1  0  0  0  0
 11 16  1  0  0  0  0
 17 18  1  0  0  0  0
 17 21  1  0  0  0  0
 18 19  1  0  0  0  0
 18 22  1  0  0  0  0
 18 23  1  0  0  0  0
 19 20  2  0  0  0  0
 19 24  1  0  0  0  0
 24 25  1  0  0  0  0
 24 29  1  0  0  0  0
 25 26  1  0  0  0  0
 25 28  1  0  0  0  0
 25 30  1  0  0  0  0
 26 27  2  0  0  0  0
 26 34  1  0  0  0  0
 28 31  1  0  0  0  0
 28 32  1  0  0  0  0
 28 33  1  0  0  0  0
 34 35  1  0  0  0  0
 34 36  1  0  0  0  0
 35 37  1  0  0  0  0
 35 38  1  0  0  0  0
 35 39  1  0  0  0  0
M  END
$$$$

  -OEChem-05262216283D

 39 38  0     1  0  0  0  0  0999 V2000
   -4.3409   -3.4982   -2.2197 C   0  0  0  0  0  0  0  0  0  0  0  0
   -3.6868   -4.2455   -2.9292 O   0  0  0  0  0  0  0  0  0  0  0  0
   -5.6303   -3.9832   -1.5844 C   0  0  0  0  0  0  0  0  0  0  0  0
   -6.4616   -3.3439   -1.8916 H   0  0  0  0  0  0  0  0  0  0  0  0
   -5.8413   -5.0099   -1.8971 H   0  0  0  0  0  0  0  0  0  0  0  0
   -5.5425   -3.9575   -0.4956 H   0  0  0  0  0  0  0  0  0  0  0  0
   -3.9019   -2.2115   -1.9889 N   0  0  0  0  0  0  0  0  0  0  0  0
   -2.6239   -1.6728   -2.4719 C   0  0  2  0  0  0  0  0  0  0  0  0
   -2.0165   -0.6627   -1.4780 C   0  0  0  0  0  0  0  0  0  0  0  0
   -2.7184   -0.1088   -0.6377 O   0  0  0  0  0  0  0  0  0  0  0  0
   -2.8688   -1.0075   -3.8297 C   0  0  0  0  0  0  0  0  0  0  0  0
   -4.4204   -1.6517   -1.3134 H   0  0  0  0  0  0  0  0  0  0  0  0
   -1.9004   -2.4864   -2.5938 H   0  0  0  0  0  0  0  0  0  0  0  0
   -3.5888   -0.1886   -3.7310 H   0  0  0  0  0  0  0  0  0  0  0  0
   -1.9366   -0.6042   -4.2364 H   0  0  0  0  0  0  0  0  0  0  0  0
   -3.2670   -1.7372   -4.5422 H   0  0  0  0  0  0  0  0  0  0  0  0
   -0.6963   -0.2676   -1.5810 N   0  0  0  0  0  0  0  0  0  0  0  0
   -0.0027    0.5340   -0.5547 C   0  0  0  0  0  0  0  0  0  0  0  0
   -0.1383    2.0417   -0.7985 C   0  0  0  0  0  0  0  0  0  0  0  0
    0.8603    2.7484   -0.8107 O   0  0  0  0  0  0  0  0  0  0  0  0
   -0.1361   -0.7168   -2.3021 H   0  0  0  0  0  0  0  0  0  0  0  0
    1.0608    0.2756   -0.5480 H   0  0  0  0  0  0  0  0  0  0  0  0
   -0.3949    0.3037    0.4414 H   0  0  0  0  0  0  0  0  0  0  0  0
   -1.3810    2.5515   -1.1306 N   0  0  0  0  0  0  0  0  0  0  0  0
   -1.7300    3.9496   -1.4520 C   0  0  2  0  0  0  0  0  0  0  0  0
   -1.1470    4.4700   -2.7859 C   0  0  0  0  0  0  0  0  0  0  0  0
   -1.8788    5.0469   -3.5799 O   0  0  0  0  0  0  0  0  0  0  0  0
   -1.3679    4.8917   -0.2961 C   0  0  0  0  0  0  0  0  0  0  0  0
   -2.1444    1.8740   -1.0624 H   0  0  0  0  0  0  0  0  0  0  0  0
   -2.8186    3.9849   -1.5637 H   0  0  0  0  0  0  0  0  0  0  0  0
   -0.2837    4.9844   -0.1840 H   0  0  0  0  0  0  0  0  0  0  0  0
   -1.7768    5.8893   -0.4853 H   0  0  0  0  0  0  0  0  0  0  0  0
   -1.7854    4.5188    0.6439 H   0  0  0  0  0  0  0  0  0  0  0  0
    0.1885    4.3081   -3.0968 N   0  0  0  0  0  0  0  0  0  0  0  0
    0.8158    4.8282   -4.3038 C   0  0  0  0  0  0  0  0  0  0  0  0
    0.7656    3.8591   -2.3804 H   0  0  0  0  0  0  0  0  0  0  0  0
    0.3119    4.4402   -5.1952 H   0  0  0  0  0  0  0  0  0  0  0  0
    0.7680    5.9221   -4.3193 H   0  0  0  0  0  0  0  0  0  0  0  0
    1.8668    4.5262   -4.3427 H   0  0  0  0  0  0  0  0  0  0  0  0
  1  2  2  0  0  0  0
  1  3  1  0  0  0  0
  1  7  1  0  0  0  0
  3  4  1  0  0  0  0
  3  5  1  0  0  0  0
  3  6  1  0  0  0  0
  7  8  1  0  0  0  0
  7 12  1  0  0  0  0
  8  9  1  0  0  0  0
  8 11  1  0  0  0  0
  8 13  1  0  0  0  0
  9 10  2  0  0  0  0
  9 17  1  0  0  0  0
 11 14  1  0  0  0  0
 11 15  1  0  0  0  0
 11 16  1  0  0  0  0
 17 18  1  0  0  0  0
 17 21  1  0  0  0  0
 18 19  1  0  0  0  0
 18 22  1  0  0  0  0
 18 23  1  0  0  0  0
 19 20  2  0  0  0  0
 19 24  1  0  0  0  0
 24 25  1  0  0  0  0
 24 29  1  0  0  0  0
 25 26  1  0  0  0  0
 25 28  1  0  0  0  0
 25 30  1  0  0  0  0
 26 27  2  0  0  0  0
 26 34  1  0  0  0  0
 28 31  1  0  0  0  0
 28 32  1  0  0  0  0
 28 33  1  0  0  0  0
 34 35  1  0  0  0  0
 34 36  1  0  0  0  0
 35 37  1  0  0  0  0
 35 38  1  0  0  0  0
 35 39  1  0  0  0  0
M  END
$$$$

  -OEChem-05262216283D

 39 38  0     1  0  0  0  0  0999 V2000
   -4.3162   -3.3312   -2.4527 C   0  0  0  0  0  0  0  0  0  0  0  0
   -3.6792   -3.9521   -3.2885 O   0  0  0  0  0  0  0  0  0  0  0  0
   -5.5940   -3.9139   -1.8787 C   0  0  0  0  0  0  0  0  0  0  0  0
   -6.4209   -3.2134   -2.0191 H   0  0  0  0  0  0  0  0  0  0  0  0
   -5.8397   -4.8528   -2.3829 H   0  0  0  0  0  0  0  0  0  0  0  0
   -5.4682   -4.1095   -0.8111 H   0  0  0  0  0  0  0  0  0  0  0  0
   -3.8679   -2.0998   -2.0231 N   0  0  0  0  0  0  0  0  0  0  0  0
   -2.6075   -1.4797   -2.4514 C   0  0  2  0  0  0  0  0  0  0  0  0
   -1.9869   -0.6094   -1.3402 C   0  0  0  0  0  0  0  0  0  0  0  0
   -2.6720   -0.1970   -0.4085 O   0  0  0  0  0  0  0  0  0  0  0  0
   -2.8900   -0.6322   -3.6961 C   0  0  0  0  0  0  0  0  0  0  0  0
   -4.3759   -1.6520   -1.2618 H   0  0  0  0  0  0  0  0  0  0  0  0
   -1.8791   -2.2587   -2.7017 H   0  0  0  0  0  0  0  0  0  0  0  0
   -3.6056    0.1635   -3.4639 H   0  0  0  0  0  0  0  0  0  0  0  0
   -1.9688   -0.1741   -4.0687 H   0  0  0  0  0  0  0  0  0  0  0  0
   -3.3096   -1.2560   -4.4918 H   0  0  0  0  0  0  0  0  0  0  0  0
   -0.6794   -0.1699   -1.4299 N   0  0  0  0  0  0  0  0  0  0  0  0
   -0.0041    0.5957   -0.3676 C   0  0  0  0  0  0  0  0  0  0  0  0
   -0.2043    2.1011   -0.5574 C   0  0  0  0  0  0  0  0  0  0  0  0
    0.7512    2.8207   -0.8151 O   0  0  0  0  0  0  0  0  0  0  0  0
   -0.1371   -0.4739   -2.2355 H   0  0  0  0  0  0  0  0  0  0  0  0
    1.0681    0.3776   -0.3816 H   0  0  0  0  0  0  0  0  0  0  0  0
   -0.3764    0.3077    0.6209 H   0  0  0  0  0  0  0  0  0  0  0  0
   -1.4986    2.5894   -0.5506 N   0  0  0  0  0  0  0  0  0  0  0  0
   -1.9444    3.9655   -0.8431 C   0  0  2  0  0  0  0  0  0  0  0  0
   -1.7204    4.4108   -2.3065 C   0  0  0  0  0  0  0  0  0  0  0  0
   -2.6593    4.8540   -2.9548 O   0  0  0  0  0  0  0  0  0  0  0  0
   -1.3208    4.9678    0.1371 C   0  0  0  0  0  0  0  0  0  0  0  0
   -2.2184    1.8761   -0.4060 H   0  0  0  0  0  0  0  0  0  0  0  0
   -3.0267    3.9911   -0.6786 H   0  0  0  0  0  0  0  0  0  0  0  0
   -0.2448    5.0702   -0.0299 H   0  0  0  0  0  0  0  0  0  0  0  0
   -1.7807    5.9525    0.0083 H   0  0  0  0  0  0  0  0  0  0  0  0
   -1.4842    4.6422    1.1687 H   0  0  0  0  0  0  0  0  0  0  0  0
   -0.4788    4.3106   -2.9025 N   0  0  0  0  0  0  0  0  0  0  0  0
   -0.1901    4.7266   -4.2676 C   0  0  0  0  0  0  0  0  0  0  0  0
    0.2707    3.9244   -2.3217 H   0  0  0  0  0  0  0  0  0  0  0  0
   -0.8230    4.1824   -4.9762 H   0  0  0  0  0  0  0  0  0  0  0  0
   -0.3694    5.8003   -4.3857 H   0  0  0  0  0  0  0  0  0  0  0  0
    0.8568    4.5215   -4.5110 H   0  0  0  0  0  0  0  0  0  0  0  0
  1  2  2  0  0  0  0
  1  3  1  0  0  0  0
  1  7  1  0  0  0  0
  3  4  1  0  0  0  0
  3  5  1  0  0  0  0
  3  6  1  0  0  0  0
  7  8  1  0  0  0  0
  7 12  1  0  0  0  0
  8  9  1  0  0  0  0
  8 11  1  0  0  0  0
  8 13  1  0  0  0  0
  9 10  2  0  0  0  0
  9 17  1  0  0  0  0
 11 14  1  0  0  0  0
 11 15  1  0  0  0  0
 11 16  1  0  0  0  0
 17 18  1  0  0  0  0
 17 21  1  0  0  0  0
 18 19  1  0  0  0  0
 18 22  1  0  0  0  0
 18 23  1  0  0  0  0
 19 20  2  0  0  0  0
 19 24  1  0  0  0  0
 24 25  1  0  0  0  0
 24 29  1  0  0  0  0
 25 26  1  0  0  0  0
 25 28  1  0  0  0  0
 25 30  1  0  0  0  0
 26 27  2  0  0  0  0
 26 34  1  0  0  0  0
 28 31  1  0  0  0  0
 28 32  1  0  0  0  0
 28 33  1  0  0  0  0
 34 35  1  0  0  0  0
 34 36  1  0  0  0  0
 35 37  1  0  0  0  0
 35 38  1  0  0  0  0
 35 39  1  0  0  0  0
M  END
$$$$

  -OEChem-05262216283D

 39 38  0     1  0  0  0  0  0999 V2000
   -4.2212   -3.1318   -2.5837 C   0  0  0  0  0  0  0  0  0  0  0  0
   -3.5101   -3.7166   -3.3852 O   0  0  0  0  0  0  0  0  0  0  0  0
   -5.4510   -3.8159   -2.0167 C   0  0  0  0  0  0  0  0  0  0  0  0
   -6.3424   -3.2229   -2.2351 H   0  0  0  0  0  0  0  0  0  0  0  0
   -5.5707   -4.8069   -2.4634 H   0  0  0  0  0  0  0  0  0  0  0  0
   -5.3513   -3.9268   -0.9342 H   0  0  0  0  0  0  0  0  0  0  0  0
   -3.9043   -1.8507   -2.1831 N   0  0  0  0  0  0  0  0  0  0  0  0
   -2.6603   -1.1536   -2.5379 C   0  0  2  0  0  0  0  0  0  0  0  0
   -1.9979   -0.5005   -1.3085 C   0  0  0  0  0  0  0  0  0  0  0  0
   -2.6571   -0.2380   -0.3057 O   0  0  0  0  0  0  0  0  0  0  0  0
   -3.0000   -0.0929   -3.5892 C   0  0  0  0  0  0  0  0  0  0  0  0
   -4.4498   -1.4598   -1.4168 H   0  0  0  0  0  0  0  0  0  0  0  0
   -1.9356   -1.8572   -2.9612 H   0  0  0  0  0  0  0  0  0  0  0  0
   -3.7074    0.6384   -3.1839 H   0  0  0  0  0  0  0  0  0  0  0  0
   -2.0976    0.4374   -3.9080 H   0  0  0  0  0  0  0  0  0  0  0  0
   -3.4514   -0.5640   -4.4683 H   0  0  0  0  0  0  0  0  0  0  0  0
   -0.6860   -0.0669   -1.3569 N   0  0  0  0  0  0  0  0  0  0  0  0
   -0.0151    0.5838   -0.2207 C   0  0  0  0  0  0  0  0  0  0  0  0
   -0.2215    2.0968   -0.2865 C   0  0  0  0  0  0  0  0  0  0  0  0
    0.6476    2.8168   -0.7599 O   0  0  0  0  0  0  0  0  0  0  0  0
   -0.1696   -0.2085   -2.2222 H   0  0  0  0  0  0  0  0  0  0  0  0
    1.0574    0.3705   -0.2524 H   0  0  0  0  0  0  0  0  0  0  0  0
   -0.3883    0.2031    0.7358 H   0  0  0  0  0  0  0  0  0  0  0  0
   -1.4667    2.5874    0.0634 N   0  0  0  0  0  0  0  0  0  0  0  0
   -1.9818    3.9468   -0.1873 C   0  0  2  0  0  0  0  0  0  0  0  0
   -2.1330    4.2838   -1.6883 C   0  0  0  0  0  0  0  0  0  0  0  0
   -3.2410    4.5266   -2.1481 O   0  0  0  0  0  0  0  0  0  0  0  0
   -1.1466    5.0090    0.5419 C   0  0  0  0  0  0  0  0  0  0  0  0
   -2.1580    1.8576    0.2546 H   0  0  0  0  0  0  0  0  0  0  0  0
   -2.9892    3.9900    0.2396 H   0  0  0  0  0  0  0  0  0  0  0  0
   -0.1437    5.0949    0.1143 H   0  0  0  0  0  0  0  0  0  0  0  0
   -1.6344    5.9857    0.4638 H   0  0  0  0  0  0  0  0  0  0  0  0
   -1.0516    4.7542    1.6015 H   0  0  0  0  0  0  0  0  0  0  0  0
   -1.0406    4.2691   -2.5330 N   0  0  0  0  0  0  0  0  0  0  0  0
   -1.1180    4.4898   -3.9701 C   0  0  0  0  0  0  0  0  0  0  0  0
   -0.1579    3.9580   -2.1178 H   0  0  0  0  0  0  0  0  0  0  0  0
   -1.7195    3.7083   -4.4454 H   0  0  0  0  0  0  0  0  0  0  0  0
   -1.5710    5.4635   -4.1842 H   0  0  0  0  0  0  0  0  0  0  0  0
   -0.1155    4.4721   -4.4086 H   0  0  0  0  0  0  0  0  0  0  0  0
  1  2  2  0  0  0  0
  1  3  1  0  0  0  0
  1  7  1  0  0  0  0
  3  4  1  0  0  0  0
  3  5  1  0  0  0  0
  3  6  1  0  0  0  0
  7  8  1  0  0  0  0
  7 12  1  0  0  0  0
  8  9  1  0  0  0  0
  8 11  1  0  0  0  0
  8 13  1  0  0  0  0
  9 10  2  0  0  0  0
  9 17  1  0  0  0  0
 11 14  1  0  0  0  0
 11 15  1  0  0  0  0
 11 16  1  0  0  0  0
 17 18  1  0  0  0  0
 17 21  1  0  0  0  0
 18 19  1  0  0  0  0
 18 22  1  0  0  0  0
 18 23  1  0  0  0  0
 19 20  2  0  0  0  0
 19 24  1  0  0  0  0
 24 25  1  0  0  0  0
 24 29  1  0  0  0  0
 25 26  1  0  0  0  0
 25 28  1  0  0  0  0
 25 30  1  0  0  0  0
 26 27  2  0  0  0  0
 26 34  1  0  0  0  0
 28 31  1  0  0  0  0
 28 32  1  0  0  0  0
 28 33  1  0  0  0  0
 34 35  1  0  0  0  0
 34 36  1  0  0  0  0
 35 37  1  0  0  0  0
 35 38  1  0  0  0  0
 35 39  1  0  0  0  0
M  END
$$$$

  -OEChem-05262216283D

 39 38  0     1  0  0  0  0  0999 V2000
   -3.7177   -3.4693   -2.8913 C   0  0  0  0  0  0  0  0  0  0  0  0
   -2.8781   -4.3525   -2.9667 O   0  0  0  0  0  0  0  0  0  0  0  0
   -5.1443   -3.7324   -3.3358 C   0  0  0  0  0  0  0  0  0  0  0  0
   -5.4002   -3.0786   -4.1731 H   0  0  0  0  0  0  0  0  0  0  0  0
   -5.2541   -4.7725   -3.6547 H   0  0  0  0  0  0  0  0  0  0  0  0
   -5.8348   -3.5432   -2.5103 H   0  0  0  0  0  0  0  0  0  0  0  0
   -3.3712   -2.2302   -2.3963 N   0  0  0  0  0  0  0  0  0  0  0  0
   -2.0606   -1.9037   -1.8189 C   0  0  2  0  0  0  0  0  0  0  0  0
   -2.1747   -0.8136   -0.7327 C   0  0  0  0  0  0  0  0  0  0  0  0
   -3.2215   -0.1903   -0.5876 O   0  0  0  0  0  0  0  0  0  0  0  0
   -1.1360   -1.4434   -2.9516 C   0  0  0  0  0  0  0  0  0  0  0  0
   -4.1242   -1.5617   -2.2349 H   0  0  0  0  0  0  0  0  0  0  0  0
   -1.6346   -2.7934   -1.3427 H   0  0  0  0  0  0  0  0  0  0  0  0
   -1.5398   -0.5479   -3.4345 H   0  0  0  0  0  0  0  0  0  0  0  0
   -0.1379   -1.2122   -2.5677 H   0  0  0  0  0  0  0  0  0  0  0  0
   -1.0389   -2.2315   -3.7053 H   0  0  0  0  0  0  0  0  0  0  0  0
   -1.0857   -0.4787    0.0507 N   0  0  0  0  0  0  0  0  0  0  0  0
   -1.1002    0.6339    1.0125 C   0  0  0  0  0  0  0  0  0  0  0  0
   -0.6483    1.9393    0.3550 C   0  0  0  0  0  0  0  0  0  0  0  0
    0.5413    2.2218    0.3063 O   0  0  0  0  0  0  0  0  0  0  0  0
   -0.1933   -0.9101   -0.1788 H   0  0  0  0  0  0  0  0  0  0  0  0
   -0.4229    0.4094    1.8414 H   0  0  0  0  0  0  0  0  0  0  0  0
   -2.0956    0.7717    1.4467 H   0  0  0  0  0  0  0  0  0  0  0  0
   -1.5803    2.7655   -0.2378 N   0  0  0  0  0  0  0  0  0  0  0  0
   -1.2729    4.0263   -0.9231 C   0  0  2  0  0  0  0  0  0  0  0  0
   -2.4567    5.0164   -0.8793 C   0  0  0  0  0  0  0  0  0  0  0  0
   -3.5759    4.6348   -0.5571 O   0  0  0  0  0  0  0  0  0  0  0  0
   -0.8986    3.7048   -2.3739 C   0  0  0  0  0  0  0  0  0  0  0  0
   -2.5591    2.4733   -0.2005 H   0  0  0  0  0  0  0  0  0  0  0  0
   -0.4238    4.5103   -0.4288 H   0  0  0  0  0  0  0  0  0  0  0  0
   -1.7389    3.2264   -2.8875 H   0  0  0  0  0  0  0  0  0  0  0  0
   -0.6331    4.6179   -2.9148 H   0  0  0  0  0  0  0  0  0  0  0  0
   -0.0400    3.0267   -2.4038 H   0  0  0  0  0  0  0  0  0  0  0  0
   -2.2663    6.3472   -1.2048 N   0  0  0  0  0  0  0  0  0  0  0  0
   -3.3340    7.3397   -1.1725 C   0  0  0  0  0  0  0  0  0  0  0  0
   -1.3261    6.6423   -1.4507 H   0  0  0  0  0  0  0  0  0  0  0  0
   -4.1536    7.0436   -1.8357 H   0  0  0  0  0  0  0  0  0  0  0  0
   -3.7255    7.4478   -0.1556 H   0  0  0  0  0  0  0  0  0  0  0  0
   -2.9573    8.3121   -1.5041 H   0  0  0  0  0  0  0  0  0  0  0  0
  1  2  2  0  0  0  0
  1  3  1  0  0  0  0
  1  7  1  0  0  0  0
  3  4  1  0  0  0  0
  3  5  1  0  0  0  0
  3  6  1  0  0  0  0
  7  8  1  0  0  0  0
  7 12  1  0  0  0  0
  8  9  1  0  0  0  0
  8 11  1  0  0  0  0
  8 13  1  0  0  0  0
  9 10  2  0  0  0  0
  9 17  1  0  0  0  0
 11 14  1  0  0  0  0
 11 15  1  0  0  0  0
 11 16  1  0  0  0  0
 17 18  1  0  0  0  0
 17 21  1  0  0  0  0
 18 19  1  0  0  0  0
 18 22  1  0  0  0  0
 18 23  1  0  0  0  0
 19 20  2  0  0  0  0
 19 24  1  0  0  0  0
 24 25  1  0  0  0  0
 24 29  1  0  0  0  0
 25 26  1  0  0  0  0
 25 28  1  0  0  0  0
 25 30  1  0  0  0  0
 26 27  2  0  0  0  0
 26 34  1  0  0  0  0
 28 31  1  0  0  0  0
 28 32  1  0  0  0  0
 28 33  1  0  0  0  0
 34 35  1  0  0  0  0
 34 36  1  0  0  0  0
 35 37  1  0  0  0  0
 35 38  1  0  0  0  0
 35 39  1  0  0  0  0
M  END
$$$$

  -OEChem-05262216283D

 39 38  0     1  0  0  0  0  0999 V2000
   -3.6802   -3.5705   -2.9864 C   0  0  0  0  0  0  0  0  0  0  0  0
   -2.7675   -4.3591   -3.1749 O   0  0  0  0  0  0  0  0  0  0  0  0
   -5.1040   -3.9538   -3.3425 C   0  0  0  0  0  0  0  0  0  0  0  0
   -5.5199   -3.2308   -4.0485 H   0  0  0  0  0  0  0  0  0  0  0  0
   -5.1236   -4.9463   -3.8018 H   0  0  0  0  0  0  0  0  0  0  0  0
   -5.7221   -3.9699   -2.4414 H   0  0  0  0  0  0  0  0  0  0  0  0
   -3.4199   -2.3318   -2.4404 N   0  0  0  0  0  0  0  0  0  0  0  0
   -2.1074   -1.9058   -1.9385 C   0  0  2  0  0  0  0  0  0  0  0  0
   -2.2419   -0.8950   -0.7807 C   0  0  0  0  0  0  0  0  0  0  0  0
   -3.3168   -0.3463   -0.5596 O   0  0  0  0  0  0  0  0  0  0  0  0
   -1.3237   -1.2863   -3.1003 C   0  0  0  0  0  0  0  0  0  0  0  0
   -4.2190   -1.7486   -2.1936 H   0  0  0  0  0  0  0  0  0  0  0  0
   -1.5604   -2.7736   -1.5536 H   0  0  0  0  0  0  0  0  0  0  0  0
   -1.8566   -0.4182   -3.5011 H   0  0  0  0  0  0  0  0  0  0  0  0
   -0.3322   -0.9636   -2.7688 H   0  0  0  0  0  0  0  0  0  0  0  0
   -1.1957   -2.0182   -3.9042 H   0  0  0  0  0  0  0  0  0  0  0  0
   -1.1434   -0.5596   -0.0111 N   0  0  0  0  0  0  0  0  0  0  0  0
   -1.1508    0.5460    0.9584 C   0  0  0  0  0  0  0  0  0  0  0  0
   -0.7149    1.8615    0.3068 C   0  0  0  0  0  0  0  0  0  0  0  0
    0.4569    2.0177   -0.0108 O   0  0  0  0  0  0  0  0  0  0  0  0
   -0.2399   -0.9030   -0.3295 H   0  0  0  0  0  0  0  0  0  0  0  0
   -0.4602    0.3185    1.7754 H   0  0  0  0  0  0  0  0  0  0  0  0
   -2.1410    0.6720    1.4080 H   0  0  0  0  0  0  0  0  0  0  0  0
   -1.6427    2.8380    0.0078 N   0  0  0  0  0  0  0  0  0  0  0  0
   -1.3274    4.1397   -0.5929 C   0  0  2  0  0  0  0  0  0  0  0  0
   -2.2889    5.2451   -0.1076 C   0  0  0  0  0  0  0  0  0  0  0  0
   -3.3376    4.9510    0.4550 O   0  0  0  0  0  0  0  0  0  0  0  0
   -1.3998    3.9955   -2.1160 C   0  0  0  0  0  0  0  0  0  0  0  0
   -2.6106    2.6734    0.2873 H   0  0  0  0  0  0  0  0  0  0  0  0
   -0.3141    4.4408   -0.3066 H   0  0  0  0  0  0  0  0  0  0  0  0
   -2.4093    3.7049   -2.4246 H   0  0  0  0  0  0  0  0  0  0  0  0
   -1.1439    4.9406   -2.6043 H   0  0  0  0  0  0  0  0  0  0  0  0
   -0.6966    3.2296   -2.4583 H   0  0  0  0  0  0  0  0  0  0  0  0
   -1.9730    6.5785   -0.2939 N   0  0  0  0  0  0  0  0  0  0  0  0
   -2.8259    7.6724    0.1554 C   0  0  0  0  0  0  0  0  0  0  0  0
   -1.0939    6.7954   -0.7543 H   0  0  0  0  0  0  0  0  0  0  0  0
   -3.7879    7.6471   -0.3671 H   0  0  0  0  0  0  0  0  0  0  0  0
   -3.0074    7.5995    1.2330 H   0  0  0  0  0  0  0  0  0  0  0  0
   -2.3468    8.6348   -0.0485 H   0  0  0  0  0  0  0  0  0  0  0  0
  1  2  2  0  0  0  0
  1  3  1  0  0  0  0
  1  7  1  0  0  0  0
  3  4  1  0  0  0  0
  3  5  1  0  0  0  0
  3  6  1  0  0  0  0
  7  8  1  0  0  0  0
  7 12  1  0  0  0  0
  8  9  1  0  0  0  0
  8 11  1  0  0  0  0
  8 13  1  0  0  0  0
  9 10  2  0  0  0  0
  9 17  1  0  0  0  0
 11 14  1  0  0  0  0
 11 15  1  0  0  0  0
 11 16  1  0  0  0  0
 17 18  1  0  0  0  0
 17 21  1  0  0  0  0
 18 19  1  0  0  0  0
 18 22  1  0  0  0  0
 18 23  1  0  0  0  0
 19 20  2  0  0  0  0
 19 24  1  0  0  0  0
 24 25  1  0  0  0  0
 24 29  1  0  0  0  0
 25 26  1  0  0  0  0
 25 28  1  0  0  0  0
 25 30  1  0  0  0  0
 26 27  2  0  0  0  0
 26 34  1  0  0  0  0
 28 31  1  0  0  0  0
 28 32  1  0  0  0  0
 28 33  1  0  0  0  0
 34 35  1  0  0  0  0
 34 36  1  0  0  0  0
 35 37  1  0  0  0  0
 35 38  1  0  0  0  0
 35 39  1  0  0  0  0
M  END
$$$$

  -OEChem-05262216283D

 39 38  0     1  0  0  0  0  0999 V2000
   -3.6569   -3.6346   -3.0621 C   0  0  0  0  0  0  0  0  0  0  0  0
   -2.7148   -4.3862   -3.2573 O   0  0  0  0  0  0  0  0  0  0  0  0
   -5.0691   -4.0821   -3.3896 C   0  0  0  0  0  0  0  0  0  0  0  0
   -5.5100   -3.4120   -4.1317 H   0  0  0  0  0  0  0  0  0  0  0  0
   -5.0591   -5.0982   -3.7942 H   0  0  0  0  0  0  0  0  0  0  0  0
   -5.6833   -4.0693   -2.4858 H   0  0  0  0  0  0  0  0  0  0  0  0
   -3.4403   -2.3802   -2.5325 N   0  0  0  0  0  0  0  0  0  0  0  0
   -2.1417   -1.8973   -2.0447 C   0  0  2  0  0  0  0  0  0  0  0  0
   -2.3042   -0.9188   -0.8627 C   0  0  0  0  0  0  0  0  0  0  0  0
   -3.3944   -0.4062   -0.6302 O   0  0  0  0  0  0  0  0  0  0  0  0
   -1.4111   -1.2160   -3.2061 C   0  0  0  0  0  0  0  0  0  0  0  0
   -4.2599   -1.8310   -2.2762 H   0  0  0  0  0  0  0  0  0  0  0  0
   -1.5436   -2.7428   -1.6881 H   0  0  0  0  0  0  0  0  0  0  0  0
   -1.9891   -0.3617   -3.5734 H   0  0  0  0  0  0  0  0  0  0  0  0
   -0.4271   -0.8588   -2.8864 H   0  0  0  0  0  0  0  0  0  0  0  0
   -1.2697   -1.9221   -4.0308 H   0  0  0  0  0  0  0  0  0  0  0  0
   -1.2202   -0.5949   -0.0678 N   0  0  0  0  0  0  0  0  0  0  0  0
   -1.2466    0.4945    0.9203 C   0  0  0  0  0  0  0  0  0  0  0  0
   -0.8017    1.8291    0.3112 C   0  0  0  0  0  0  0  0  0  0  0  0
    0.3079    1.9144   -0.1997 O   0  0  0  0  0  0  0  0  0  0  0  0
   -0.3083   -0.8941   -0.4066 H   0  0  0  0  0  0  0  0  0  0  0  0
   -0.5725    0.2524    1.7465 H   0  0  0  0  0  0  0  0  0  0  0  0
   -2.2464    0.6059    1.3513 H   0  0  0  0  0  0  0  0  0  0  0  0
   -1.6459    2.9211    0.2970 N   0  0  0  0  0  0  0  0  0  0  0  0
   -1.2750    4.2608   -0.1762 C   0  0  2  0  0  0  0  0  0  0  0  0
   -2.0330    5.3650    0.5918 C   0  0  0  0  0  0  0  0  0  0  0  0
   -3.0118    5.0817    1.2737 O   0  0  0  0  0  0  0  0  0  0  0  0
   -1.5748    4.3444   -1.6762 C   0  0  0  0  0  0  0  0  0  0  0  0
   -2.5532    2.8264    0.7543 H   0  0  0  0  0  0  0  0  0  0  0  0
   -0.2045    4.4254   -0.0129 H   0  0  0  0  0  0  0  0  0  0  0  0
   -2.6418    4.1847   -1.8624 H   0  0  0  0  0  0  0  0  0  0  0  0
   -1.2945    5.3256   -2.0706 H   0  0  0  0  0  0  0  0  0  0  0  0
   -1.0087    3.5811   -2.2194 H   0  0  0  0  0  0  0  0  0  0  0  0
   -1.6066    6.6794    0.5345 N   0  0  0  0  0  0  0  0  0  0  0  0
   -2.2605    7.7655    1.2552 C   0  0  0  0  0  0  0  0  0  0  0  0
   -0.7812    6.8837   -0.0212 H   0  0  0  0  0  0  0  0  0  0  0  0
   -3.2988    7.8751    0.9247 H   0  0  0  0  0  0  0  0  0  0  0  0
   -2.2526    7.5705    2.3328 H   0  0  0  0  0  0  0  0  0  0  0  0
   -1.7385    8.7096    1.0720 H   0  0  0  0  0  0  0  0  0  0  0  0
  1  2  2  0  0  0  0
  1  3  1  0  0  0  0
  1  7  1  0  0  0  0
  3  4  1  0  0  0  0
  3  5  1  0  0  0  0
  3  6  1  0  0  0  0
  7  8  1  0  0  0  0
  7 12  1  0  0  0  0
  8  9  1  0  0  0  0
  8 11  1  0  0  0  0
  8 13  1  0  0  0  0
  9 10  2  0  0  0  0
  9 17  1  0  0  0  0
 11 14  1  0  0  0  0
 11 15  1  0  0  0  0
 11 16  1  0  0  0  0
 17 18  1  0  0  0  0
 17 21  1  0  0  0  0
 18 19  1  0  0  0  0
 18 22  1  0  0  0  0
 18 23  1  0  0  0  0
 19 20  2  0  0  0  0
 19 24  1  0  0  0  0
 24 25  1  0  0  0  0
 24 29  1  0  0  0  0
 25 26  1  0  0  0  0
 25 28  1  0  0  0  0
 25 30  1  0  0  0  0
 26 27  2  0  0  0  0
 26 34  1  0  0  0  0
 28 31  1  0  0  0  0
 28 32  1  0  0  0  0
 28 33  1  0  0  0  0
 34 35  1  0  0  0  0
 34 36  1  0  0  0  0
 35 37  1  0  0  0  0
 35 38  1  0  0  0  0
 35 39  1  0  0  0  0
M  END
$$$$

  -OEChem-05262216283D

 39 38  0     1  0  0  0  0  0999 V2000
   -3.6313   -3.6224   -3.1436 C   0  0  0  0  0  0  0  0  0  0  0  0
   -2.6730   -4.3561   -3.3269 O   0  0  0  0  0  0  0  0  0  0  0  0
   -5.0330   -4.1062   -3.4639 C   0  0  0  0  0  0  0  0  0  0  0  0
   -5.4887   -3.4573   -4.2154 H   0  0  0  0  0  0  0  0  0  0  0  0
   -5.0002   -5.1276   -3.8530 H   0  0  0  0  0  0  0  0  0  0  0  0
   -5.6473   -4.0932   -2.5606 H   0  0  0  0  0  0  0  0  0  0  0  0
   -3.4452   -2.3573   -2.6283 N   0  0  0  0  0  0  0  0  0  0  0  0
   -2.1656   -1.8533   -2.1124 C   0  0  2  0  0  0  0  0  0  0  0  0
   -2.3705   -0.9355   -0.8893 C   0  0  0  0  0  0  0  0  0  0  0  0
   -3.4775   -0.4626   -0.6516 O   0  0  0  0  0  0  0  0  0  0  0  0
   -1.4561   -1.0963   -3.2391 C   0  0  0  0  0  0  0  0  0  0  0  0
   -4.2795   -1.8338   -2.3659 H   0  0  0  0  0  0  0  0  0  0  0  0
   -1.5375   -2.6906   -1.7894 H   0  0  0  0  0  0  0  0  0  0  0  0
   -2.0649   -0.2510   -3.5753 H   0  0  0  0  0  0  0  0  0  0  0  0
   -0.4889   -0.7138   -2.8985 H   0  0  0  0  0  0  0  0  0  0  0  0
   -1.2826   -1.7615   -4.0908 H   0  0  0  0  0  0  0  0  0  0  0  0
   -1.3067   -0.6268   -0.0619 N   0  0  0  0  0  0  0  0  0  0  0  0
   -1.3592    0.4570    0.9321 C   0  0  0  0  0  0  0  0  0  0  0  0
   -0.8891    1.7958    0.3491 C   0  0  0  0  0  0  0  0  0  0  0  0
    0.1190    1.8297   -0.3467 O   0  0  0  0  0  0  0  0  0  0  0  0
   -0.3863   -0.8723   -0.4208 H   0  0  0  0  0  0  0  0  0  0  0  0
   -0.7165    0.2064    1.7804 H   0  0  0  0  0  0  0  0  0  0  0  0
   -2.3743    0.5719    1.3254 H   0  0  0  0  0  0  0  0  0  0  0  0
   -1.5928    2.9591    0.5874 N   0  0  0  0  0  0  0  0  0  0  0  0
   -1.1422    4.3016    0.1996 C   0  0  2  0  0  0  0  0  0  0  0  0
   -1.6120    5.3679    1.2121 C   0  0  0  0  0  0  0  0  0  0  0  0
   -2.4410    5.0808    2.0691 O   0  0  0  0  0  0  0  0  0  0  0  0
   -1.6817    4.6081   -1.2010 C   0  0  0  0  0  0  0  0  0  0  0  0
   -2.3849    2.9097    1.2284 H   0  0  0  0  0  0  0  0  0  0  0  0
   -0.0475    4.3321    0.1794 H   0  0  0  0  0  0  0  0  0  0  0  0
   -2.7763    4.5937   -1.2003 H   0  0  0  0  0  0  0  0  0  0  0  0
   -1.3458    5.5938   -1.5363 H   0  0  0  0  0  0  0  0  0  0  0  0
   -1.3239    3.8611   -1.9169 H   0  0  0  0  0  0  0  0  0  0  0  0
   -1.0893    6.6477    1.1791 N   0  0  0  0  0  0  0  0  0  0  0  0
   -1.4610    7.6878    2.1311 C   0  0  0  0  0  0  0  0  0  0  0  0
   -0.3829    6.8506    0.4778 H   0  0  0  0  0  0  0  0  0  0  0  0
   -2.5446    7.8473    2.1223 H   0  0  0  0  0  0  0  0  0  0  0  0
   -1.1548    7.4065    3.1442 H   0  0  0  0  0  0  0  0  0  0  0  0
   -0.9725    8.6317    1.8707 H   0  0  0  0  0  0  0  0  0  0  0  0
  1  2  2  0  0  0  0
  1  3  1  0  0  0  0
  1  7  1  0  0  0  0
  3  4  1  0  0  0  0
  3  5  1  0  0  0  0
  3  6  1  0  0  0  0
  7  8  1  0  0  0  0
  7 12  1  0  0  0  0
  8  9  1  0  0  0  0
  8 11  1  0  0  0  0
  8 13  1  0  0  0  0
  9 10  2  0  0  0  0
  9 17  1  0  0  0  0
 11 14  1  0  0  0  0
 11 15  1  0  0  0  0
 11 16  1  0  0  0  0
 17 18  1  0  0  0  0
 17 21  1  0  0  0  0
 18 19  1  0  0  0  0
 18 22  1  0  0  0  0
 18 23  1  0  0  0  0
 19 20  2  0  0  0  0
 19 24  1  0  0  0  0
 24 25  1  0  0  0  0
 24 29  1  0  0  0  0
 25 26  1  0  0  0  0
 25 28  1  0  0  0  0
 25 30  1  0  0  0  0
 26 27  2  0  0  0  0
 26 34  1  0  0  0  0
 28 31  1  0  0  0  0
 28 32  1  0  0  0  0
 28 33  1  0  0  0  0
 34 35  1  0  0  0  0
 34 36  1  0  0  0  0
 35 37  1  0  0  0  0
 35 38  1  0  0  0  0
 35 39  1  0  0  0  0
M  END
$$$$

  -OEChem-05262216283D

 39 38  0     1  0  0  0  0  0999 V2000
   -3.6438   -3.5711   -3.2180 C   0  0  0  0  0  0  0  0  0  0  0  0
   -2.6714   -4.2769   -3.4341 O   0  0  0  0  0  0  0  0  0  0  0  0
   -5.0374   -4.0732   -3.5474 C   0  0  0  0  0  0  0  0  0  0  0  0
   -5.5156   -3.4033   -4.2662 H   0  0  0  0  0  0  0  0  0  0  0  0
   -4.9843   -5.0756   -3.9816 H   0  0  0  0  0  0  0  0  0  0  0  0
   -5.6433   -4.1149   -2.6388 H   0  0  0  0  0  0  0  0  0  0  0  0
   -3.4802   -2.3211   -2.6595 N   0  0  0  0  0  0  0  0  0  0  0  0
   -2.2057   -1.8028   -2.1452 C   0  0  2  0  0  0  0  0  0  0  0  0
   -2.4163   -0.9166   -0.8998 C   0  0  0  0  0  0  0  0  0  0  0  0
   -3.5266   -0.4561   -0.6526 O   0  0  0  0  0  0  0  0  0  0  0  0
   -1.5219   -1.0068   -3.2611 C   0  0  0  0  0  0  0  0  0  0  0  0
   -4.3226   -1.8188   -2.3815 H   0  0  0  0  0  0  0  0  0  0  0  0
   -1.5587   -2.6351   -1.8471 H   0  0  0  0  0  0  0  0  0  0  0  0
   -2.1518   -0.1678   -3.5741 H   0  0  0  0  0  0  0  0  0  0  0  0
   -0.5605   -0.6107   -2.9191 H   0  0  0  0  0  0  0  0  0  0  0  0
   -1.3410   -1.6499   -4.1284 H   0  0  0  0  0  0  0  0  0  0  0  0
   -1.3566   -0.6328   -0.0578 N   0  0  0  0  0  0  0  0  0  0  0  0
   -1.4091    0.4421    0.9469 C   0  0  0  0  0  0  0  0  0  0  0  0
   -0.9169    1.7866    0.3926 C   0  0  0  0  0  0  0  0  0  0  0  0
   -0.0425    1.8100   -0.4663 O   0  0  0  0  0  0  0  0  0  0  0  0
   -0.4367   -0.8635   -0.4274 H   0  0  0  0  0  0  0  0  0  0  0  0
   -0.7823    0.1710    1.8007 H   0  0  0  0  0  0  0  0  0  0  0  0
   -2.4278    0.5662    1.3274 H   0  0  0  0  0  0  0  0  0  0  0  0
   -1.4206    2.9751    0.8818 N   0  0  0  0  0  0  0  0  0  0  0  0
   -0.9083    4.3065    0.5353 C   0  0  2  0  0  0  0  0  0  0  0  0
   -1.0835    5.2989    1.7049 C   0  0  0  0  0  0  0  0  0  0  0  0
   -1.8056    5.0103    2.6534 O   0  0  0  0  0  0  0  0  0  0  0  0
   -1.6505    4.8006   -0.7101 C   0  0  0  0  0  0  0  0  0  0  0  0
   -2.0858    2.9282    1.6537 H   0  0  0  0  0  0  0  0  0  0  0  0
    0.1629    4.2443    0.3160 H   0  0  0  0  0  0  0  0  0  0  0  0
   -2.7242    4.8771   -0.5105 H   0  0  0  0  0  0  0  0  0  0  0  0
   -1.2806    5.7843   -1.0139 H   0  0  0  0  0  0  0  0  0  0  0  0
   -1.4999    4.1046   -1.5417 H   0  0  0  0  0  0  0  0  0  0  0  0
   -0.4159    6.5101    1.7069 N   0  0  0  0  0  0  0  0  0  0  0  0
   -0.5282    7.4842    2.7867 C   0  0  0  0  0  0  0  0  0  0  0  0
    0.1867    6.7180    0.9158 H   0  0  0  0  0  0  0  0  0  0  0  0
   -1.5589    7.8448    2.8722 H   0  0  0  0  0  0  0  0  0  0  0  0
   -0.2314    7.0358    3.7412 H   0  0  0  0  0  0  0  0  0  0  0  0
    0.1233    8.3417    2.5916 H   0  0  0  0  0  0  0  0  0  0  0  0
  1  2  2  0  0  0  0
  1  3  1  0  0  0  0
  1  7  1  0  0  0  0
  3  4  1  0  0  0  0
  3  5  1  0  0  0  0
  3  6  1  0  0  0  0
  7  8  1  0  0  0  0
  7 12  1  0  0  0  0
  8  9  1  0  0  0  0
  8 11  1  0  0  0  0
  8 13  1  0  0  0  0
  9 10  2  0  0  0  0
  9 17  1  0  0  0  0
 11 14  1  0  0  0  0
 11 15  1  0  0  0  0
 11 16  1  0  0  0  0
 17 18  1  0  0  0  0
 17 21  1  0  0  0  0
 18 19  1  0  0  0  0
 18 22  1  0  0  0  0
 18 23  1  0  0  0  0
 19 20  2  0  0  0  0
 19 24  1  0  0  0  0
 24 25  1  0  0  0  0
 24 29  1  0  0  0  0
 25 26  1  0  0  0  0
 25 28  1  0  0  0  0
 25 30  1  0  0  0  0
 26 27  2  0  0  0  0
 26 34  1  0  0  0  0
 28 31  1  0  0  0  0
 28 32  1  0  0  0  0
 28 33  1  0  0  0  0
 34 35  1  0  0  0  0
 34 36  1  0  0  0  0
 35 37  1  0  0  0  0
 35 38  1  0  0  0  0
 35 39  1  0  0  0  0
M  END
$$$$

  -OEChem-05262216283D

 39 38  0     1  0  0  0  0  0999 V2000
   -3.6387   -3.5236   -3.2326 C   0  0  0  0  0  0  0  0  0  0  0  0
   -2.6676   -4.2470   -3.3872 O   0  0  0  0  0  0  0  0  0  0  0  0
   -5.0262   -4.0267   -3.5830 C   0  0  0  0  0  0  0  0  0  0  0  0
   -5.4733   -3.3882   -4.3485 H   0  0  0  0  0  0  0  0  0  0  0  0
   -4.9709   -5.0498   -3.9651 H   0  0  0  0  0  0  0  0  0  0  0  0
   -5.6613   -4.0166   -2.6940 H   0  0  0  0  0  0  0  0  0  0  0  0
   -3.4832   -2.2540   -2.7187 N   0  0  0  0  0  0  0  0  0  0  0  0
   -2.2295   -1.7378   -2.1542 C   0  0  2  0  0  0  0  0  0  0  0  0
   -2.4858   -0.8912   -0.8905 C   0  0  0  0  0  0  0  0  0  0  0  0
   -3.6052   -0.4391   -0.6694 O   0  0  0  0  0  0  0  0  0  0  0  0
   -1.5279   -0.9001   -3.2268 C   0  0  0  0  0  0  0  0  0  0  0  0
   -4.3325   -1.7448   -2.4775 H   0  0  0  0  0  0  0  0  0  0  0  0
   -1.5781   -2.5688   -1.8635 H   0  0  0  0  0  0  0  0  0  0  0  0
   -2.1545   -0.0523   -3.5219 H   0  0  0  0  0  0  0  0  0  0  0  0
   -0.5754   -0.5130   -2.8513 H   0  0  0  0  0  0  0  0  0  0  0  0
   -1.3275   -1.5116   -4.1123 H   0  0  0  0  0  0  0  0  0  0  0  0
   -1.4534   -0.6254   -0.0098 N   0  0  0  0  0  0  0  0  0  0  0  0
   -1.5275    0.4664    0.9757 C   0  0  0  0  0  0  0  0  0  0  0  0
   -0.9812    1.7929    0.4269 C   0  0  0  0  0  0  0  0  0  0  0  0
   -0.2341    1.7972   -0.5455 O   0  0  0  0  0  0  0  0  0  0  0  0
   -0.5258   -0.8473   -0.3648 H   0  0  0  0  0  0  0  0  0  0  0  0
   -0.9448    0.1940    1.8598 H   0  0  0  0  0  0  0  0  0  0  0  0
   -2.5588    0.6208    1.3088 H   0  0  0  0  0  0  0  0  0  0  0  0
   -1.2486    2.9788    1.0807 N   0  0  0  0  0  0  0  0  0  0  0  0
   -0.6160    4.2661    0.7677 C   0  0  2  0  0  0  0  0  0  0  0  0
   -0.4865    5.1480    2.0275 C   0  0  0  0  0  0  0  0  0  0  0  0
   -1.0927    4.8498    3.0513 O   0  0  0  0  0  0  0  0  0  0  0  0
   -1.4539    4.9710   -0.3034 C   0  0  0  0  0  0  0  0  0  0  0  0
   -1.7776    2.9314    1.9516 H   0  0  0  0  0  0  0  0  0  0  0  0
    0.3951    4.0972    0.3821 H   0  0  0  0  0  0  0  0  0  0  0  0
   -2.4686    5.1546    0.0642 H   0  0  0  0  0  0  0  0  0  0  0  0
   -1.0026    5.9294   -0.5764 H   0  0  0  0  0  0  0  0  0  0  0  0
   -1.5166    4.3516   -1.2039 H   0  0  0  0  0  0  0  0  0  0  0  0
    0.3297    6.2641    2.0234 N   0  0  0  0  0  0  0  0  0  0  0  0
    0.5139    7.1241    3.1863 C   0  0  0  0  0  0  0  0  0  0  0  0
    0.8324    6.4782    1.1669 H   0  0  0  0  0  0  0  0  0  0  0  0
   -0.4361    7.5864    3.4741 H   0  0  0  0  0  0  0  0  0  0  0  0
    0.8959    6.5464    4.0346 H   0  0  0  0  0  0  0  0  0  0  0  0
    1.2315    7.9186    2.9603 H   0  0  0  0  0  0  0  0  0  0  0  0
  1  2  2  0  0  0  0
  1  3  1  0  0  0  0
  1  7  1  0  0  0  0
  3  4  1  0  0  0  0
  3  5  1  0  0  0  0
  3  6  1  0  0  0  0
  7  8  1  0  0  0  0
  7 12  1  0  0  0  0
  8  9  1  0  0  0  0
  8 11  1  0  0  0  0
  8 13  1  0  0  0  0
  9 10  2  0  0  0  0
  9 17  1  0  0  0  0
 11 14  1  0  0  0  0
 11 15  1  0  0  0  0
 11 16  1  0  0  0  0
 17 18  1  0  0  0  0
 17 21  1  0  0  0  0
 18 19  1  0  0  0  0
 18 22  1  0  0  0  0
 18 23  1  0  0  0  0
 19 20  2  0  0  0  0
 19 24  1  0  0  0  0
 24 25  1  0  0  0  0
 24 29  1  0  0  0  0
 25 26  1  0  0  0  0
 25 28  1  0  0  0  0
 25 30  1  0  0  0  0
 26 27  2  0  0  0  0
 26 34  1  0  0  0  0
 28 31  1  0  0  0  0
 28 32  1  0  0  0  0
 28 33  1  0  0  0  0
 34 35  1  0  0  0  0
 34 36  1  0  0  0  0
 35 37  1  0  0  0  0
 35 38  1  0  0  0  0
 35 39  1  0  0  0  0
M  END
$$$$

  -OEChem-05262216283D

 39 38  0     1  0  0  0  0  0999 V2000
   -3.6288   -3.4118   -3.2169 C   0  0  0  0  0  0  0  0  0  0  0  0
   -2.7377   -4.2409   -3.1191 O   0  0  0  0  0  0  0  0  0  0  0  0
   -5.0240   -3.8453   -3.6260 C   0  0  0  0  0  0  0  0  0  0  0  0
   -5.2903   -3.3892   -4.5825 H   0  0  0  0  0  0  0  0  0  0  0  0
   -5.0660   -4.9330   -3.7300 H   0  0  0  0  0  0  0  0  0  0  0  0
   -5.7481   -3.5366   -2.8680 H   0  0  0  0  0  0  0  0  0  0  0  0
   -3.3819   -2.0810   -2.9514 N   0  0  0  0  0  0  0  0  0  0  0  0
   -2.1577   -1.5862   -2.3053 C   0  0  2  0  0  0  0  0  0  0  0  0
   -2.4573   -0.9280   -0.9428 C   0  0  0  0  0  0  0  0  0  0  0  0
   -3.5866   -0.5175   -0.6907 O   0  0  0  0  0  0  0  0  0  0  0  0
   -1.5085   -0.5734   -3.2507 C   0  0  0  0  0  0  0  0  0  0  0  0
   -4.2040   -1.4866   -2.8624 H   0  0  0  0  0  0  0  0  0  0  0  0
   -1.4530   -2.4053   -2.1280 H   0  0  0  0  0  0  0  0  0  0  0  0
   -2.1839    0.2692   -3.4314 H   0  0  0  0  0  0  0  0  0  0  0  0
   -0.5806   -0.1849   -2.8196 H   0  0  0  0  0  0  0  0  0  0  0  0
   -1.2742   -1.0466   -4.2093 H   0  0  0  0  0  0  0  0  0  0  0  0
   -1.4479   -0.7627   -0.0104 N   0  0  0  0  0  0  0  0  0  0  0  0
   -1.5635    0.2418    1.0606 C   0  0  0  0  0  0  0  0  0  0  0  0
   -1.3462    1.6881    0.5805 C   0  0  0  0  0  0  0  0  0  0  0  0
   -0.9592    1.9218   -0.5596 O   0  0  0  0  0  0  0  0  0  0  0  0
   -0.5130   -0.9546   -0.3604 H   0  0  0  0  0  0  0  0  0  0  0  0
   -0.8242    0.0234    1.8358 H   0  0  0  0  0  0  0  0  0  0  0  0
   -2.5503    0.1753    1.5298 H   0  0  0  0  0  0  0  0  0  0  0  0
   -1.4289    2.7284    1.4851 N   0  0  0  0  0  0  0  0  0  0  0  0
   -1.0601    4.1212    1.2008 C   0  0  2  0  0  0  0  0  0  0  0  0
   -0.5407    4.8359    2.4665 C   0  0  0  0  0  0  0  0  0  0  0  0
   -0.6852    4.3169    3.5683 O   0  0  0  0  0  0  0  0  0  0  0  0
   -2.2919    4.8386    0.6400 C   0  0  0  0  0  0  0  0  0  0  0  0
   -1.6110    2.4956    2.4611 H   0  0  0  0  0  0  0  0  0  0  0  0
   -0.2557    4.1480    0.4582 H   0  0  0  0  0  0  0  0  0  0  0  0
   -3.1092    4.8207    1.3682 H   0  0  0  0  0  0  0  0  0  0  0  0
   -2.0578    5.8809    0.4038 H   0  0  0  0  0  0  0  0  0  0  0  0
   -2.6319    4.3458   -0.2766 H   0  0  0  0  0  0  0  0  0  0  0  0
    0.1056    6.0548    2.3721 N   0  0  0  0  0  0  0  0  0  0  0  0
    0.6326    6.7734    3.5265 C   0  0  0  0  0  0  0  0  0  0  0  0
    0.2216    6.4566    1.4462 H   0  0  0  0  0  0  0  0  0  0  0  0
   -0.1764    7.0359    4.2163 H   0  0  0  0  0  0  0  0  0  0  0  0
    1.3651    6.1589    4.0603 H   0  0  0  0  0  0  0  0  0  0  0  0
    1.1264    7.6956    3.2053 H   0  0  0  0  0  0  0  0  0  0  0  0
  1  2  2  0  0  0  0
  1  3  1  0  0  0  0
  1  7  1  0  0  0  0
  3  4  1  0  0  0  0
  3  5  1  0  0  0  0
  3  6  1  0  0  0  0
  7  8  1  0  0  0  0
  7 12  1  0  0  0  0
  8  9  1  0  0  0  0
  8 11  1  0  0  0  0
  8 13  1  0  0  0  0
  9 10  2  0  0  0  0
  9 17  1  0  0  0  0
 11 14  1  0  0  0  0
 11 15  1  0  0  0  0
 11 16  1  0  0  0  0
 17 18  1  0  0  0  0
 17 21  1  0  0  0  0
 18 19  1  0  0  0  0
 18 22  1  0  0  0  0
 18 23  1  0  0  0  0
 19 20  2  0  0  0  0
 19 24  1  0  0  0  0
 24 25  1  0  0  0  0
 24 29  1  0  0  0  0
 25 26  1  0  0  0  0
 25 28  1  0  0  0  0
 25 30  1  0  0  0  0
 26 27  2  0  0  0  0
 26 34  1  0  0  0  0
 28 31  1  0  0  0  0
 28 32  1  0  0  0  0
 28 33  1  0  0  0  0
 34 35  1  0  0  0  0
 34 36  1  0  0  0  0
 35 37  1  0  0  0  0
 35 38  1  0  0  0  0
 35 39  1  0  0  0  0
M  END
$$$$

  -OEChem-05262216283D

 39 38  0     1  0  0  0  0  0999 V2000
   -3.6473   -3.4010   -3.0926 C   0  0  0  0  0  0  0  0  0  0  0  0
   -2.7946   -4.2409   -2.8508 O   0  0  0  0  0  0  0  0  0  0  0  0
   -5.0362   -3.8360   -3.5218 C   0  0  0  0  0  0  0  0  0  0  0  0
   -5.2371   -3.4921   -4.5393 H   0  0  0  0  0  0  0  0  0  0  0  0
   -5.1151   -4.9265   -3.4954 H   0  0  0  0  0  0  0  0  0  0  0  0
   -5.7850   -3.4136   -2.8472 H   0  0  0  0  0  0  0  0  0  0  0  0
   -3.3647   -2.0569   -2.9657 N   0  0  0  0  0  0  0  0  0  0  0  0
   -2.1673   -1.5359   -2.2904 C   0  0  2  0  0  0  0  0  0  0  0  0
   -2.5218   -0.8370   -0.9619 C   0  0  0  0  0  0  0  0  0  0  0  0
   -3.6510   -0.3899   -0.7829 O   0  0  0  0  0  0  0  0  0  0  0  0
   -1.4872   -0.5482   -3.2408 C   0  0  0  0  0  0  0  0  0  0  0  0
   -4.1711   -1.4356   -2.9805 H   0  0  0  0  0  0  0  0  0  0  0  0
   -1.4651   -2.3448   -2.0644 H   0  0  0  0  0  0  0  0  0  0  0  0
   -2.1585    0.2852   -3.4721 H   0  0  0  0  0  0  0  0  0  0  0  0
   -0.5788   -0.1414   -2.7856 H   0  0  0  0  0  0  0  0  0  0  0  0
   -1.2141   -1.0480   -4.1754 H   0  0  0  0  0  0  0  0  0  0  0  0
   -1.5659   -0.6907    0.0287 N   0  0  0  0  0  0  0  0  0  0  0  0
   -1.6987    0.3559    1.0568 C   0  0  0  0  0  0  0  0  0  0  0  0
   -1.3779    1.7770    0.5576 C   0  0  0  0  0  0  0  0  0  0  0  0
   -1.1134    1.9934   -0.6199 O   0  0  0  0  0  0  0  0  0  0  0  0
   -0.6226   -0.9405   -0.2544 H   0  0  0  0  0  0  0  0  0  0  0  0
   -1.0237    0.1222    1.8845 H   0  0  0  0  0  0  0  0  0  0  0  0
   -2.7152    0.3565    1.4631 H   0  0  0  0  0  0  0  0  0  0  0  0
   -1.1654    2.7842    1.4787 N   0  0  0  0  0  0  0  0  0  0  0  0
   -0.6376    4.1181    1.1647 C   0  0  2  0  0  0  0  0  0  0  0  0
    0.1233    4.7161    2.3672 C   0  0  0  0  0  0  0  0  0  0  0  0
    0.0594    4.1739    3.4657 O   0  0  0  0  0  0  0  0  0  0  0  0
   -1.8090    5.0198    0.7608 C   0  0  0  0  0  0  0  0  0  0  0  0
   -1.2378    2.5464    2.4678 H   0  0  0  0  0  0  0  0  0  0  0  0
    0.0703    4.0497    0.3319 H   0  0  0  0  0  0  0  0  0  0  0  0
   -2.5262    5.1067    1.5832 H   0  0  0  0  0  0  0  0  0  0  0  0
   -1.4539    6.0212    0.5004 H   0  0  0  0  0  0  0  0  0  0  0  0
   -2.3264    4.6027   -0.1093 H   0  0  0  0  0  0  0  0  0  0  0  0
    0.8990    5.8507    2.2160 N   0  0  0  0  0  0  0  0  0  0  0  0
    1.6610    6.4501    3.3053 C   0  0  0  0  0  0  0  0  0  0  0  0
    0.9459    6.2705    1.2920 H   0  0  0  0  0  0  0  0  0  0  0  0
    0.9922    6.7658    4.1127 H   0  0  0  0  0  0  0  0  0  0  0  0
    2.3844    5.7328    3.7073 H   0  0  0  0  0  0  0  0  0  0  0  0
    2.2074    7.3277    2.9469 H   0  0  0  0  0  0  0  0  0  0  0  0
  1  2  2  0  0  0  0
  1  3  1  0  0  0  0
  1  7  1  0  0  0  0
  3  4  1  0  0  0  0
  3  5  1  0  0  0  0
  3  6  1  0  0  0  0
  7  8  1  0  0  0  0
  7 12  1  0  0  0  0
  8  9  1  0  0  0  0
  8 11  1  0  0  0  0
  8 13  1  0  0  0  0
  9 10  2  0  0  0  0
  9 17  1  0  0  0  0
 11 14  1  0  0  0  0
 11 15  1  0  0  0  0
 11 16  1  0  0  0  0
 17 18  1  0  0  0  0
 17 21  1  0  0  0  0
 18 19  1  0  0  0  0
 18 22  1  0  0  0  0
 18 23  1  0  0  0  0
 19 20  2  0  0  0  0
 19 24  1  0  0  0  0
 24 25  1  0  0  0  0
 24 29  1  0  0  0  0
 25 26  1  0  0  0  0
 25 28  1  0  0  0  0
 25 30  1  0  0  0  0
 26 27  2  0  0  0  0
 26 34  1  0  0  0  0
 28 31  1  0  0  0  0
 28 32  1  0  0  0  0
 28 33  1  0  0  0  0
 34 35  1  0  0  0  0
 34 36  1  0  0  0  0
 35 37  1  0  0  0  0
 35 38  1  0  0  0  0
 35 39  1  0  0  0  0
M  END
$$$$

  -OEChem-05262216283D

 39 38  0     1  0  0  0  0  0999 V2000
   -3.5729   -3.3868   -3.0130 C   0  0  0  0  0  0  0  0  0  0  0  0
   -2.7267   -4.2040   -2.6856 O   0  0  0  0  0  0  0  0  0  0  0  0
   -4.9244   -3.8578   -3.5164 C   0  0  0  0  0  0  0  0  0  0  0  0
   -5.0788   -3.5179   -4.5432 H   0  0  0  0  0  0  0  0  0  0  0  0
   -4.9751   -4.9499   -3.4951 H   0  0  0  0  0  0  0  0  0  0  0  0
   -5.7196   -3.4564   -2.8834 H   0  0  0  0  0  0  0  0  0  0  0  0
   -3.3154   -2.0350   -2.9188 N   0  0  0  0  0  0  0  0  0  0  0  0
   -2.1644   -1.4732   -2.1971 C   0  0  2  0  0  0  0  0  0  0  0  0
   -2.6001   -0.7362   -0.9144 C   0  0  0  0  0  0  0  0  0  0  0  0
   -3.7400   -0.2914   -0.8163 O   0  0  0  0  0  0  0  0  0  0  0  0
   -1.4457   -0.5074   -3.1415 C   0  0  0  0  0  0  0  0  0  0  0  0
   -4.1265   -1.4255   -3.0042 H   0  0  0  0  0  0  0  0  0  0  0  0
   -1.4640   -2.2628   -1.9064 H   0  0  0  0  0  0  0  0  0  0  0  0
   -2.1129    0.3099   -3.4346 H   0  0  0  0  0  0  0  0  0  0  0  0
   -0.5669   -0.0758   -2.6524 H   0  0  0  0  0  0  0  0  0  0  0  0
   -1.1177   -1.0332   -4.0436 H   0  0  0  0  0  0  0  0  0  0  0  0
   -1.7082   -0.5649    0.1307 N   0  0  0  0  0  0  0  0  0  0  0  0
   -1.8772    0.5368    1.0940 C   0  0  0  0  0  0  0  0  0  0  0  0
   -1.4799    1.9224    0.5491 C   0  0  0  0  0  0  0  0  0  0  0  0
   -1.3721    2.1298   -0.6540 O   0  0  0  0  0  0  0  0  0  0  0  0
   -0.7559   -0.8510   -0.0780 H   0  0  0  0  0  0  0  0  0  0  0  0
   -1.2695    0.3231    1.9773 H   0  0  0  0  0  0  0  0  0  0  0  0
   -2.9184    0.5874    1.4281 H   0  0  0  0  0  0  0  0  0  0  0  0
   -0.9984    2.8765    1.4247 N   0  0  0  0  0  0  0  0  0  0  0  0
   -0.3327    4.1240    1.0273 C   0  0  2  0  0  0  0  0  0  0  0  0
    0.7332    4.5435    2.0617 C   0  0  0  0  0  0  0  0  0  0  0  0
    0.7778    3.9891    3.1550 O   0  0  0  0  0  0  0  0  0  0  0  0
   -1.4011    5.2108    0.8762 C   0  0  0  0  0  0  0  0  0  0  0  0
   -0.9222    2.6185    2.4084 H   0  0  0  0  0  0  0  0  0  0  0  0
    0.1802    3.9855    0.0697 H   0  0  0  0  0  0  0  0  0  0  0  0
   -1.9245    5.3672    1.8249 H   0  0  0  0  0  0  0  0  0  0  0  0
   -0.9475    6.1574    0.5682 H   0  0  0  0  0  0  0  0  0  0  0  0
   -2.1349    4.9180    0.1183 H   0  0  0  0  0  0  0  0  0  0  0  0
    1.6555    5.5294    1.7627 N   0  0  0  0  0  0  0  0  0  0  0  0
    2.6907    5.9648    2.6926 C   0  0  0  0  0  0  0  0  0  0  0  0
    1.5992    5.9664    0.8472 H   0  0  0  0  0  0  0  0  0  0  0  0
    2.2398    6.3949    3.5931 H   0  0  0  0  0  0  0  0  0  0  0  0
    3.3246    5.1208    2.9847 H   0  0  0  0  0  0  0  0  0  0  0  0
    3.3237    6.7255    2.2258 H   0  0  0  0  0  0  0  0  0  0  0  0
  1  2  2  0  0  0  0
  1  3  1  0  0  0  0
  1  7  1  0  0  0  0
  3  4  1  0  0  0  0
  3  5  1  0  0  0  0
  3  6  1  0  0  0  0
  7  8  1  0  0  0  0
  7 12  1  0  0  0  0
  8  9  1  0  0  0  0
  8 11  1  0  0  0  0
  8 13  1  0  0  0  0
  9 10  2  0  0  0  0
  9 17  1  0  0  0  0
 11 14  1  0  0  0  0
 11 15  1  0  0  0  0
 11 16  1  0  0  0  0
 17 18  1  0  0  0  0
 17 21  1  0  0  0  0
 18 19  1  0  0  0  0
 18 22  1  0  0  0  0
 18 23  1  0  0  0  0
 19 20  2  0  0  0  0
 19 24  1  0  0  0  0
 24 25  1  0  0  0  0
 24 29  1  0  0  0  0
 25 26  1  0  0  0  0
 25 28  1  0  0  0  0
 25 30  1  0  0  0  0
 26 27  2  0  0  0  0
 26 34  1  0  0  0  0
 28 31  1  0  0  0  0
 28 32  1  0  0  0  0
 28 33  1  0  0  0  0
 34 35  1  0  0  0  0
 34 36  1  0  0  0  0
 35 37  1  0  0  0  0
 35 38  1  0  0  0  0
 35 39  1  0  0  0  0
M  END
$$$$

  -OEChem-05262216283D

 39 38  0     1  0  0  0  0  0999 V2000
   -3.4790   -3.3443   -2.9678 C   0  0  0  0  0  0  0  0  0  0  0  0
   -2.6147   -4.1394   -2.6330 O   0  0  0  0  0  0  0  0  0  0  0  0
   -4.8086   -3.8495   -3.4956 C   0  0  0  0  0  0  0  0  0  0  0  0
   -4.9696   -3.4837   -4.5127 H   0  0  0  0  0  0  0  0  0  0  0  0
   -4.8188   -4.9430   -3.5083 H   0  0  0  0  0  0  0  0  0  0  0  0
   -5.6218   -3.4974   -2.8559 H   0  0  0  0  0  0  0  0  0  0  0  0
   -3.2647   -1.9864   -2.8575 N   0  0  0  0  0  0  0  0  0  0  0  0
   -2.1479   -1.3950   -2.1076 C   0  0  2  0  0  0  0  0  0  0  0  0
   -2.6404   -0.6444   -0.8532 C   0  0  0  0  0  0  0  0  0  0  0  0
   -3.7912   -0.2216   -0.8009 O   0  0  0  0  0  0  0  0  0  0  0  0
   -1.4135   -0.4329   -3.0440 C   0  0  0  0  0  0  0  0  0  0  0  0
   -4.0916   -1.4003   -2.9560 H   0  0  0  0  0  0  0  0  0  0  0  0
   -1.4459   -2.1685   -1.7805 H   0  0  0  0  0  0  0  0  0  0  0  0
   -2.0851    0.3654   -3.3770 H   0  0  0  0  0  0  0  0  0  0  0  0
   -0.5617    0.0256   -2.5318 H   0  0  0  0  0  0  0  0  0  0  0  0
   -1.0429   -0.9684   -3.9238 H   0  0  0  0  0  0  0  0  0  0  0  0
   -1.7897   -0.4422    0.2209 N   0  0  0  0  0  0  0  0  0  0  0  0
   -1.9784    0.7017    1.1309 C   0  0  0  0  0  0  0  0  0  0  0  0
   -1.5327    2.0547    0.5425 C   0  0  0  0  0  0  0  0  0  0  0  0
   -1.6248    2.2918   -0.6554 O   0  0  0  0  0  0  0  0  0  0  0  0
   -0.8345   -0.7504    0.0640 H   0  0  0  0  0  0  0  0  0  0  0  0
   -1.4132    0.5142    2.0479 H   0  0  0  0  0  0  0  0  0  0  0  0
   -3.0313    0.7860    1.4186 H   0  0  0  0  0  0  0  0  0  0  0  0
   -0.7869    2.9185    1.3224 N   0  0  0  0  0  0  0  0  0  0  0  0
   -0.0525    4.0847    0.8129 C   0  0  2  0  0  0  0  0  0  0  0  0
    1.2404    4.3310    1.6193 C   0  0  0  0  0  0  0  0  0  0  0  0
    1.4307    3.7312    2.6725 O   0  0  0  0  0  0  0  0  0  0  0  0
   -0.9772    5.3038    0.8804 C   0  0  0  0  0  0  0  0  0  0  0  0
   -0.5514    2.6157    2.2673 H   0  0  0  0  0  0  0  0  0  0  0  0
    0.2431    3.9138   -0.2278 H   0  0  0  0  0  0  0  0  0  0  0  0
   -1.2698    5.5064    1.9157 H   0  0  0  0  0  0  0  0  0  0  0  0
   -0.4759    6.1896    0.4796 H   0  0  0  0  0  0  0  0  0  0  0  0
   -1.8823    5.1252    0.2910 H   0  0  0  0  0  0  0  0  0  0  0  0
    2.2031    5.2079    1.1540 N   0  0  0  0  0  0  0  0  0  0  0  0
    3.4568    5.4666    1.8523 C   0  0  0  0  0  0  0  0  0  0  0  0
    2.0273    5.6743    0.2686 H   0  0  0  0  0  0  0  0  0  0  0  0
    3.2635    5.8851    2.8456 H   0  0  0  0  0  0  0  0  0  0  0  0
    4.0310    4.5409    1.9654 H   0  0  0  0  0  0  0  0  0  0  0  0
    4.0634    6.1820    1.2887 H   0  0  0  0  0  0  0  0  0  0  0  0
  1  2  2  0  0  0  0
  1  3  1  0  0  0  0
  1  7  1  0  0  0  0
  3  4  1  0  0  0  0
  3  5  1  0  0  0  0
  3  6  1  0  0  0  0
  7  8  1  0  0  0  0
  7 12  1  0  0  0  0
  8  9  1  0  0  0  0
  8 11  1  0  0  0  0
  8 13  1  0  0  0  0
  9 10  2  0  0  0  0
  9 17  1  0  0  0  0
 11 14  1  0  0  0  0
 11 15  1  0  0  0  0
 11 16  1  0  0  0  0
 17 18  1  0  0  0  0
 17 21  1  0  0  0  0
 18 19  1  0  0  0  0
 18 22  1  0  0  0  0
 18 23  1  0  0  0  0
 19 20  2  0  0  0  0
 19 24  1  0  0  0  0
 24 25  1  0  0  0  0
 24 29  1  0  0  0  0
 25 26  1  0  0  0  0
 25 28  1  0  0  0  0
 25 30  1  0  0  0  0
 26 27  2  0  0  0  0
 26 34  1  0  0  0  0
 28 31  1  0  0  0  0
 28 32  1  0  0  0  0
 28 33  1  0  0  0  0
 34 35  1  0  0  0  0
 34 36  1  0  0  0  0
 35 37  1  0  0  0  0
 35 38  1  0  0  0  0
 35 39  1  0  0  0  0
M  END
$$$$

  -OEChem-05262216283D

 39 38  0     1  0  0  0  0  0999 V2000
   -3.4113   -3.3081   -2.9268 C   0  0  0  0  0  0  0  0  0  0  0  0
   -2.5327   -4.0912   -2.6012 O   0  0  0  0  0  0  0  0  0  0  0  0
   -4.7314   -3.8302   -3.4628 C   0  0  0  0  0  0  0  0  0  0  0  0
   -4.8998   -3.4507   -4.4735 H   0  0  0  0  0  0  0  0  0  0  0  0
   -4.7210   -4.9234   -3.4934 H   0  0  0  0  0  0  0  0  0  0  0  0
   -5.5508   -3.5040   -2.8174 H   0  0  0  0  0  0  0  0  0  0  0  0
   -3.2211   -1.9483   -2.7982 N   0  0  0  0  0  0  0  0  0  0  0  0
   -2.1154   -1.3431   -2.0424 C   0  0  2  0  0  0  0  0  0  0  0  0
   -2.6323   -0.5487   -0.8254 C   0  0  0  0  0  0  0  0  0  0  0  0
   -3.7854   -0.1309   -0.8119 O   0  0  0  0  0  0  0  0  0  0  0  0
   -1.3538   -0.4153   -2.9917 C   0  0  0  0  0  0  0  0  0  0  0  0
   -4.0579   -1.3750   -2.8921 H   0  0  0  0  0  0  0  0  0  0  0  0
   -1.4288   -2.1118   -1.6734 H   0  0  0  0  0  0  0  0  0  0  0  0
   -2.0112    0.3798   -3.3591 H   0  0  0  0  0  0  0  0  0  0  0  0
   -0.5066    0.0487   -2.4777 H   0  0  0  0  0  0  0  0  0  0  0  0
   -0.9738   -0.9791   -3.8494 H   0  0  0  0  0  0  0  0  0  0  0  0
   -1.8097   -0.3165    0.2646 N   0  0  0  0  0  0  0  0  0  0  0  0
   -2.0120    0.8572    1.1327 C   0  0  0  0  0  0  0  0  0  0  0  0
   -1.5371    2.1827    0.5084 C   0  0  0  0  0  0  0  0  0  0  0  0
   -1.8552    2.5046   -0.6281 O   0  0  0  0  0  0  0  0  0  0  0  0
   -0.8559   -0.6477    0.1522 H   0  0  0  0  0  0  0  0  0  0  0  0
   -1.4810    0.6972    2.0749 H   0  0  0  0  0  0  0  0  0  0  0  0
   -3.0725    0.9623    1.3832 H   0  0  0  0  0  0  0  0  0  0  0  0
   -0.5563    2.9187    1.1458 N   0  0  0  0  0  0  0  0  0  0  0  0
    0.1721    4.0429    0.5426 C   0  0  2  0  0  0  0  0  0  0  0  0
    1.6261    4.1081    1.0560 C   0  0  0  0  0  0  0  0  0  0  0  0
    1.9727    3.4136    2.0061 O   0  0  0  0  0  0  0  0  0  0  0  0
   -0.5830    5.3345    0.8715 C   0  0  0  0  0  0  0  0  0  0  0  0
   -0.1617    2.5352    2.0043 H   0  0  0  0  0  0  0  0  0  0  0  0
    0.2182    3.9199   -0.5449 H   0  0  0  0  0  0  0  0  0  0  0  0
   -0.6369    5.4821    1.9549 H   0  0  0  0  0  0  0  0  0  0  0  0
   -0.0812    6.1987    0.4262 H   0  0  0  0  0  0  0  0  0  0  0  0
   -1.6028    5.2877    0.4755 H   0  0  0  0  0  0  0  0  0  0  0  0
    2.5546    4.9251    0.4378 N   0  0  0  0  0  0  0  0  0  0  0  0
    3.9506    5.0069    0.8511 C   0  0  0  0  0  0  0  0  0  0  0  0
    2.2455    5.4669   -0.3643 H   0  0  0  0  0  0  0  0  0  0  0  0
    4.0238    5.3213    1.8978 H   0  0  0  0  0  0  0  0  0  0  0  0
    4.4406    4.0338    0.7404 H   0  0  0  0  0  0  0  0  0  0  0  0
    4.4853    5.7356    0.2342 H   0  0  0  0  0  0  0  0  0  0  0  0
  1  2  2  0  0  0  0
  1  3  1  0  0  0  0
  1  7  1  0  0  0  0
  3  4  1  0  0  0  0
  3  5  1  0  0  0  0
  3  6  1  0  0  0  0
  7  8  1  0  0  0  0
  7 12  1  0  0  0  0
  8  9  1  0  0  0  0
  8 11  1  0  0  0  0
  8 13  1  0  0  0  0
  9 10  2  0  0  0  0
  9 17  1  0  0  0  0
 11 14  1  0  0  0  0
 11 15  1  0  0  0  0
 11 16  1  0  0  0  0
 17 18  1  0  0  0  0
 17 21  1  0  0  0  0
 18 19  1  0  0  0  0
 18 22  1  0  0  0  0
 18 23  1  0  0  0  0
 19 20  2  0  0  0  0
 19 24  1  0  0  0  0
 24 25  1  0  0  0  0
 24 29  1  0  0  0  0
 25 26  1  0  0  0  0
 25 28  1  0  0  0  0
 25 30  1  0  0  0  0
 26 27  2  0  0  0  0
 26 34  1  0  0  0  0
 28 31  1  0  0  0  0
 28 32  1  0  0  0  0
 28 33  1  0  0  0  0
 34 35  1  0  0  0  0
 34 36  1  0  0  0  0
 35 37  1  0  0  0  0
 35 38  1  0  0  0  0
 35 39  1  0  0  0  0
M  END
$$$$

  -OEChem-05262216283D

 39 38  0     1  0  0  0  0  0999 V2000
   -3.4601   -3.2804   -2.8901 C   0  0  0  0  0  0  0  0  0  0  0  0
   -2.6042   -4.0868   -2.5607 O   0  0  0  0  0  0  0  0  0  0  0  0
   -4.7910   -3.7686   -3.4308 C   0  0  0  0  0  0  0  0  0  0  0  0
   -4.9338   -3.4059   -4.4516 H   0  0  0  0  0  0  0  0  0  0  0  0
   -4.8171   -4.8619   -3.4383 H   0  0  0  0  0  0  0  0  0  0  0  0
   -5.6070   -3.4017   -2.8033 H   0  0  0  0  0  0  0  0  0  0  0  0
   -3.2286   -1.9261   -2.7689 N   0  0  0  0  0  0  0  0  0  0  0  0
   -2.1004   -1.3514   -2.0218 C   0  0  2  0  0  0  0  0  0  0  0  0
   -2.5828   -0.4870   -0.8388 C   0  0  0  0  0  0  0  0  0  0  0  0
   -3.7235   -0.0391   -0.8355 O   0  0  0  0  0  0  0  0  0  0  0  0
   -1.2785   -0.5028   -2.9942 C   0  0  0  0  0  0  0  0  0  0  0  0
   -4.0458   -1.3258   -2.8697 H   0  0  0  0  0  0  0  0  0  0  0  0
   -1.4611   -2.1418   -1.6156 H   0  0  0  0  0  0  0  0  0  0  0  0
   -1.8879    0.3111   -3.4010 H   0  0  0  0  0  0  0  0  0  0  0  0
   -0.4127   -0.0666   -2.4867 H   0  0  0  0  0  0  0  0  0  0  0  0
   -0.9193   -1.1196   -3.8239 H   0  0  0  0  0  0  0  0  0  0  0  0
   -1.7452   -0.2371    0.2358 N   0  0  0  0  0  0  0  0  0  0  0  0
   -1.9340    0.9340    1.1107 C   0  0  0  0  0  0  0  0  0  0  0  0
   -1.4817    2.2600    0.4749 C   0  0  0  0  0  0  0  0  0  0  0  0
   -2.0679    2.7498   -0.4788 O   0  0  0  0  0  0  0  0  0  0  0  0
   -0.8018   -0.6021    0.1397 H   0  0  0  0  0  0  0  0  0  0  0  0
   -1.3835    0.7795    2.0424 H   0  0  0  0  0  0  0  0  0  0  0  0
   -2.9905    1.0309    1.3819 H   0  0  0  0  0  0  0  0  0  0  0  0
   -0.3002    2.8424    0.8918 N   0  0  0  0  0  0  0  0  0  0  0  0
    0.3584    3.9710    0.2212 C   0  0  2  0  0  0  0  0  0  0  0  0
    1.8895    3.9138    0.4080 C   0  0  0  0  0  0  0  0  0  0  0  0
    2.3821    3.1029    1.1860 O   0  0  0  0  0  0  0  0  0  0  0  0
   -0.2119    5.2737    0.7915 C   0  0  0  0  0  0  0  0  0  0  0  0
    0.2592    2.3377    1.5786 H   0  0  0  0  0  0  0  0  0  0  0  0
    0.1596    3.9305   -0.8553 H   0  0  0  0  0  0  0  0  0  0  0  0
   -0.0139    5.3399    1.8661 H   0  0  0  0  0  0  0  0  0  0  0  0
    0.2384    6.1407    0.2990 H   0  0  0  0  0  0  0  0  0  0  0  0
   -1.2946    5.3138    0.6335 H   0  0  0  0  0  0  0  0  0  0  0  0
    2.7190    4.7558   -0.3090 N   0  0  0  0  0  0  0  0  0  0  0  0
    4.1704    4.7579   -0.1714 C   0  0  0  0  0  0  0  0  0  0  0  0
    2.2840    5.4124   -0.9509 H   0  0  0  0  0  0  0  0  0  0  0  0
    4.4571    5.0023    0.8567 H   0  0  0  0  0  0  0  0  0  0  0  0
    4.5825    3.7765   -0.4280 H   0  0  0  0  0  0  0  0  0  0  0  0
    4.6126    5.5028   -0.8397 H   0  0  0  0  0  0  0  0  0  0  0  0
  1  2  2  0  0  0  0
  1  3  1  0  0  0  0
  1  7  1  0  0  0  0
  3  4  1  0  0  0  0
  3  5  1  0  0  0  0
  3  6  1  0  0  0  0
  7  8  1  0  0  0  0
  7 12  1  0  0  0  0
  8  9  1  0  0  0  0
  8 11  1  0  0  0  0
  8 13  1  0  0  0  0
  9 10  2  0  0  0  0
  9 17  1  0  0  0  0
 11 14  1  0  0  0  0
 11 15  1  0  0  0  0
 11 16  1  0  0  0  0
 17 18  1  0  0  0  0
 17 21  1  0  0  0  0
 18 19  1  0  0  0  0
 18 22  1  0  0  0  0
 18 23  1  0  0  0  0
 19 20  2  0  0  0  0
 19 24  1  0  0  0  0
 24 25  1  0  0  0  0
 24 29  1  0  0  0  0
 25 26  1  0  0  0  0
 25 28  1  0  0  0  0
 25 30  1  0  0  0  0
 26 27  2  0  0  0  0
 26 34  1  0  0  0  0
 28 31  1  0  0  0  0
 28 32  1  0  0  0  0
 28 33  1  0  0  0  0
 34 35  1  0  0  0  0
 34 36  1  0  0  0  0
 35 37  1  0  0  0  0
 35 38  1  0  0  0  0
 35 39  1  0  0  0  0
M  END
$$$$

  -OEChem-05262216283D

 39 38  0     1  0  0  0  0  0999 V2000
   -3.4481   -3.2372   -2.9212 C   0  0  0  0  0  0  0  0  0  0  0  0
   -2.6351   -4.0851   -2.5876 O   0  0  0  0  0  0  0  0  0  0  0  0
   -4.7798   -3.6544   -3.5160 C   0  0  0  0  0  0  0  0  0  0  0  0
   -4.8558   -3.2984   -4.5462 H   0  0  0  0  0  0  0  0  0  0  0  0
   -4.8705   -4.7442   -3.5110 H   0  0  0  0  0  0  0  0  0  0  0  0
   -5.5995   -3.2308   -2.9304 H   0  0  0  0  0  0  0  0  0  0  0  0
   -3.1693   -1.8980   -2.7480 N   0  0  0  0  0  0  0  0  0  0  0  0
   -2.0454   -1.3882   -1.9507 C   0  0  2  0  0  0  0  0  0  0  0  0
   -2.5253   -0.3853   -0.8812 C   0  0  0  0  0  0  0  0  0  0  0  0
   -3.6217    0.1480   -0.9948 O   0  0  0  0  0  0  0  0  0  0  0  0
   -1.0573   -0.7161   -2.9063 C   0  0  0  0  0  0  0  0  0  0  0  0
   -3.9524   -1.2571   -2.8727 H   0  0  0  0  0  0  0  0  0  0  0  0
   -1.5389   -2.2077   -1.4301 H   0  0  0  0  0  0  0  0  0  0  0  0
   -1.5363    0.1209   -3.4251 H   0  0  0  0  0  0  0  0  0  0  0  0
   -0.1901   -0.3353   -2.3584 H   0  0  0  0  0  0  0  0  0  0  0  0
   -0.7069   -1.4353   -3.6531 H   0  0  0  0  0  0  0  0  0  0  0  0
   -1.7346   -0.1016    0.2194 N   0  0  0  0  0  0  0  0  0  0  0  0
   -1.9594    1.0708    1.0845 C   0  0  0  0  0  0  0  0  0  0  0  0
   -1.5040    2.3951    0.4516 C   0  0  0  0  0  0  0  0  0  0  0  0
   -2.2614    3.0880   -0.2103 O   0  0  0  0  0  0  0  0  0  0  0  0
   -0.8156   -0.5360    0.2288 H   0  0  0  0  0  0  0  0  0  0  0  0
   -1.4341    0.9318    2.0331 H   0  0  0  0  0  0  0  0  0  0  0  0
   -3.0251    1.1559    1.3235 H   0  0  0  0  0  0  0  0  0  0  0  0
   -0.2086    2.8289    0.6560 N   0  0  0  0  0  0  0  0  0  0  0  0
    0.4003    3.9748   -0.0306 C   0  0  2  0  0  0  0  0  0  0  0  0
    1.8950    3.7192   -0.3174 C   0  0  0  0  0  0  0  0  0  0  0  0
    2.4545    2.7425    0.1719 O   0  0  0  0  0  0  0  0  0  0  0  0
    0.2133    5.2147    0.8484 C   0  0  0  0  0  0  0  0  0  0  0  0
    0.4380    2.1753    1.0958 H   0  0  0  0  0  0  0  0  0  0  0  0
   -0.0929    4.1389   -0.9950 H   0  0  0  0  0  0  0  0  0  0  0  0
    0.7069    5.0769    1.8158 H   0  0  0  0  0  0  0  0  0  0  0  0
    0.6361    6.0992    0.3629 H   0  0  0  0  0  0  0  0  0  0  0  0
   -0.8522    5.3952    1.0237 H   0  0  0  0  0  0  0  0  0  0  0  0
    2.6088    4.5679   -1.1429 N   0  0  0  0  0  0  0  0  0  0  0  0
    4.0170    4.3738   -1.4666 C   0  0  0  0  0  0  0  0  0  0  0  0
    2.1160    5.3614   -1.5427 H   0  0  0  0  0  0  0  0  0  0  0  0
    4.6299    4.4317   -0.5610 H   0  0  0  0  0  0  0  0  0  0  0  0
    4.1718    3.3961   -1.9349 H   0  0  0  0  0  0  0  0  0  0  0  0
    4.3552    5.1469   -2.1633 H   0  0  0  0  0  0  0  0  0  0  0  0
  1  2  2  0  0  0  0
  1  3  1  0  0  0  0
  1  7  1  0  0  0  0
  3  4  1  0  0  0  0
  3  5  1  0  0  0  0
  3  6  1  0  0  0  0
  7  8  1  0  0  0  0
  7 12  1  0  0  0  0
  8  9  1  0  0  0  0
  8 11  1  0  0  0  0
  8 13  1  0  0  0  0
  9 10  2  0  0  0  0
  9 17  1  0  0  0  0
 11 14  1  0  0  0  0
 11 15  1  0  0  0  0
 11 16  1  0  0  0  0
 17 18  1  0  0  0  0
 17 21  1  0  0  0  0
 18 19  1  0  0  0  0
 18 22  1  0  0  0  0
 18 23  1  0  0  0  0
 19 20  2  0  0  0  0
 19 24  1  0  0  0  0
 24 25  1  0  0  0  0
 24 29  1  0  0  0  0
 25 26  1  0  0  0  0
 25 28  1  0  0  0  0
 25 30  1  0  0  0  0
 26 27  2  0  0  0  0
 26 34  1  0  0  0  0
 28 31  1  0  0  0  0
 28 32  1  0  0  0  0
 28 33  1  0  0  0  0
 34 35  1  0  0  0  0
 34 36  1  0  0  0  0
 35 37  1  0  0  0  0
 35 38  1  0  0  0  0
 35 39  1  0  0  0  0
M  END
$$$$

  -OEChem-05262216283D

 39 38  0     1  0  0  0  0  0999 V2000
   -3.5686   -3.1818   -2.6348 C   0  0  0  0  0  0  0  0  0  0  0  0
   -2.9540   -3.9468   -1.9077 O   0  0  0  0  0  0  0  0  0  0  0  0
   -4.9289   -3.5791   -3.1764 C   0  0  0  0  0  0  0  0  0  0  0  0
   -4.9046   -3.5989   -4.2687 H   0  0  0  0  0  0  0  0  0  0  0  0
   -5.2049   -4.5725   -2.8113 H   0  0  0  0  0  0  0  0  0  0  0  0
   -5.6847   -2.8610   -2.8481 H   0  0  0  0  0  0  0  0  0  0  0  0
   -3.0480   -1.9421   -2.9438 N   0  0  0  0  0  0  0  0  0  0  0  0
   -1.9091   -1.3518   -2.2266 C   0  0  2  0  0  0  0  0  0  0  0  0
   -2.3769   -0.3115   -1.1887 C   0  0  0  0  0  0  0  0  0  0  0  0
   -3.3889    0.3440   -1.3981 O   0  0  0  0  0  0  0  0  0  0  0  0
   -0.9908   -0.6956   -3.2597 C   0  0  0  0  0  0  0  0  0  0  0  0
   -3.7101   -1.2831   -3.3487 H   0  0  0  0  0  0  0  0  0  0  0  0
   -1.3389   -2.1254   -1.7014 H   0  0  0  0  0  0  0  0  0  0  0  0
   -1.5214    0.0972   -3.7973 H   0  0  0  0  0  0  0  0  0  0  0  0
   -0.1157   -0.2571   -2.7698 H   0  0  0  0  0  0  0  0  0  0  0  0
   -0.6449   -1.4386   -3.9850 H   0  0  0  0  0  0  0  0  0  0  0  0
   -1.6437   -0.0902   -0.0367 N   0  0  0  0  0  0  0  0  0  0  0  0
   -1.9238    0.9962    0.9195 C   0  0  0  0  0  0  0  0  0  0  0  0
   -1.4802    2.3764    0.4141 C   0  0  0  0  0  0  0  0  0  0  0  0
   -2.2921    3.2515    0.1519 O   0  0  0  0  0  0  0  0  0  0  0  0
   -0.8096   -0.6571    0.0909 H   0  0  0  0  0  0  0  0  0  0  0  0
   -1.4206    0.7920    1.8681 H   0  0  0  0  0  0  0  0  0  0  0  0
   -2.9986    1.0337    1.1284 H   0  0  0  0  0  0  0  0  0  0  0  0
   -0.1349    2.6886    0.4131 N   0  0  0  0  0  0  0  0  0  0  0  0
    0.4226    3.8923   -0.2155 C   0  0  2  0  0  0  0  0  0  0  0  0
    1.7314    3.5676   -0.9669 C   0  0  0  0  0  0  0  0  0  0  0  0
    2.2378    2.4540   -0.8638 O   0  0  0  0  0  0  0  0  0  0  0  0
    0.6583    4.9365    0.8791 C   0  0  0  0  0  0  0  0  0  0  0  0
    0.5093    1.9054    0.5121 H   0  0  0  0  0  0  0  0  0  0  0  0
   -0.2829    4.2939   -0.9510 H   0  0  0  0  0  0  0  0  0  0  0  0
    1.3801    4.5648    1.6134 H   0  0  0  0  0  0  0  0  0  0  0  0
    1.0432    5.8663    0.4502 H   0  0  0  0  0  0  0  0  0  0  0  0
   -0.2816    5.1597    1.3944 H   0  0  0  0  0  0  0  0  0  0  0  0
    2.3372    4.5161   -1.7700 N   0  0  0  0  0  0  0  0  0  0  0  0
    3.5766    4.2758   -2.4992 C   0  0  0  0  0  0  0  0  0  0  0  0
    1.8838    5.4216   -1.8531 H   0  0  0  0  0  0  0  0  0  0  0  0
    4.3818    4.0061   -1.8076 H   0  0  0  0  0  0  0  0  0  0  0  0
    3.4453    3.4634   -3.2215 H   0  0  0  0  0  0  0  0  0  0  0  0
    3.8773    5.1765   -3.0431 H   0  0  0  0  0  0  0  0  0  0  0  0
  1  2  2  0  0  0  0
  1  3  1  0  0  0  0
  1  7  1  0  0  0  0
  3  4  1  0  0  0  0
  3  5  1  0  0  0  0
  3  6  1  0  0  0  0
  7  8  1  0  0  0  0
  7 12  1  0  0  0  0
  8  9  1  0  0  0  0
  8 11  1  0  0  0  0
  8 13  1  0  0  0  0
  9 10  2  0  0  0  0
  9 17  1  0  0  0  0
 11 14  1  0  0  0  0
 11 15  1  0  0  0  0
 11 16  1  0  0  0  0
 17 18  1  0  0  0  0
 17 21  1  0  0  0  0
 18 19  1  0  0  0  0
 18 22  1  0  0  0  0
 18 23  1  0  0  0  0
 19 20  2  0  0  0  0
 19 24  1  0  0  0  0
 24 25  1  0  0  0  0
 24 29  1  0  0  0  0
 25 26  1  0  0  0  0
 25 28  1  0  0  0  0
 25 30  1  0  0  0  0
 26 27  2  0  0  0  0
 26 34  1  0  0  0  0
 28 31  1  0  0  0  0
 28 32  1  0  0  0  0
 28 33  1  0  0  0  0
 34 35  1  0  0  0  0
 34 36  1  0  0  0  0
 35 37  1  0  0  0  0
 35 38  1  0  0  0  0
 35 39  1  0  0  0  0
M  END
$$$$

  -OEChem-05262216283D

 39 38  0     1  0  0  0  0  0999 V2000
   -2.7301   -2.4414   -1.8202 C   0  0  0  0  0  0  0  0  0  0  0  0
   -2.1475   -2.1313   -0.7910 O   0  0  0  0  0  0  0  0  0  0  0  0
   -3.7418   -3.5719   -1.8184 C   0  0  0  0  0  0  0  0  0  0  0  0
   -3.4423   -4.3422   -2.5335 H   0  0  0  0  0  0  0  0  0  0  0  0
   -3.8040   -4.0216   -0.8232 H   0  0  0  0  0  0  0  0  0  0  0  0
   -4.7286   -3.1920   -2.0948 H   0  0  0  0  0  0  0  0  0  0  0  0
   -2.4996   -1.7208   -2.9743 N   0  0  0  0  0  0  0  0  0  0  0  0
   -1.4979   -0.6491   -3.0977 C   0  0  2  0  0  0  0  0  0  0  0  0
   -1.9425    0.6772   -2.4310 C   0  0  0  0  0  0  0  0  0  0  0  0
   -2.0632    1.7129   -3.0705 O   0  0  0  0  0  0  0  0  0  0  0  0
   -1.1877   -0.4856   -4.5911 C   0  0  0  0  0  0  0  0  0  0  0  0
   -3.0329   -1.9810   -3.7994 H   0  0  0  0  0  0  0  0  0  0  0  0
   -0.5732   -0.9613   -2.6001 H   0  0  0  0  0  0  0  0  0  0  0  0
   -2.0798   -0.1623   -5.1374 H   0  0  0  0  0  0  0  0  0  0  0  0
   -0.4042    0.2658   -4.7345 H   0  0  0  0  0  0  0  0  0  0  0  0
   -0.8386   -1.4317   -5.0159 H   0  0  0  0  0  0  0  0  0  0  0  0
   -2.1654    0.7030   -1.0671 N   0  0  0  0  0  0  0  0  0  0  0  0
   -2.6486    1.8775   -0.3224 C   0  0  0  0  0  0  0  0  0  0  0  0
   -1.5553    2.9357   -0.1395 C   0  0  0  0  0  0  0  0  0  0  0  0
   -1.7058    4.0768   -0.5557 O   0  0  0  0  0  0  0  0  0  0  0  0
   -2.1390   -0.2110   -0.6034 H   0  0  0  0  0  0  0  0  0  0  0  0
   -3.0052    1.5695    0.6640 H   0  0  0  0  0  0  0  0  0  0  0  0
   -3.4942    2.3310   -0.8504 H   0  0  0  0  0  0  0  0  0  0  0  0
   -0.3921    2.6113    0.5336 N   0  0  0  0  0  0  0  0  0  0  0  0
    0.8054    3.4644    0.4932 C   0  0  2  0  0  0  0  0  0  0  0  0
    1.5094    3.3879   -0.8853 C   0  0  0  0  0  0  0  0  0  0  0  0
    2.6166    2.8778   -1.0138 O   0  0  0  0  0  0  0  0  0  0  0  0
    1.7120    3.0422    1.6556 C   0  0  0  0  0  0  0  0  0  0  0  0
   -0.2543    1.6205    0.7120 H   0  0  0  0  0  0  0  0  0  0  0  0
    0.5216    4.5098    0.6560 H   0  0  0  0  0  0  0  0  0  0  0  0
    2.0246    1.9991    1.5435 H   0  0  0  0  0  0  0  0  0  0  0  0
    2.6076    3.6711    1.6846 H   0  0  0  0  0  0  0  0  0  0  0  0
    1.1841    3.1493    2.6081 H   0  0  0  0  0  0  0  0  0  0  0  0
    0.8375    3.8320   -2.0076 N   0  0  0  0  0  0  0  0  0  0  0  0
    1.3009    3.6089   -3.3693 C   0  0  0  0  0  0  0  0  0  0  0  0
   -0.1363    4.1142   -1.8618 H   0  0  0  0  0  0  0  0  0  0  0  0
    2.3091    4.0146   -3.5043 H   0  0  0  0  0  0  0  0  0  0  0  0
    1.3158    2.5381   -3.5968 H   0  0  0  0  0  0  0  0  0  0  0  0
    0.6317    4.1052   -4.0790 H   0  0  0  0  0  0  0  0  0  0  0  0
  1  2  2  0  0  0  0
  1  3  1  0  0  0  0
  1  7  1  0  0  0  0
  3  4  1  0  0  0  0
  3  5  1  0  0  0  0
  3  6  1  0  0  0  0
  7  8  1  0  0  0  0
  7 12  1  0  0  0  0
  8  9  1  0  0  0  0
  8 11  1  0  0  0  0
  8 13  1  0  0  0  0
  9 10  2  0  0  0  0
  9 17  1  0  0  0  0
 11 14  1  0  0  0  0
 11 15  1  0  0  0  0
 11 16  1  0  0  0  0
 17 18  1  0  0  0  0
 17 21  1  0  0  0  0
 18 19  1  0  0  0  0
 18 22  1  0  0  0  0
 18 23  1  0  0  0  0
 19 20  2  0  0  0  0
 19 24  1  0  0  0  0
 24 25  1  0  0  0  0
 24 29  1  0  0  0  0
 25 26  1  0  0  0  0
 25 28  1  0  0  0  0
 25 30  1  0  0  0  0
 26 27  2  0  0  0  0
 26 34  1  0  0  0  0
 28 31  1  0  0  0  0
 28 32  1  0  0  0  0
 28 33  1  0  0  0  0
 34 35  1  0  0  0  0
 34 36  1  0  0  0  0
 35 37  1  0  0  0  0
 35 38  1  0  0  0  0
 35 39  1  0  0  0  0
M  END
$$$$

  -OEChem-05262216283D

 39 38  0     1  0  0  0  0  0999 V2000
   -1.7511   -1.5688   -1.4765 C   0  0  0  0  0  0  0  0  0  0  0  0
   -1.4221   -0.7371   -0.6410 O   0  0  0  0  0  0  0  0  0  0  0  0
   -1.7994   -3.0387   -1.1062 C   0  0  0  0  0  0  0  0  0  0  0  0
   -1.1920   -3.6204   -1.8041 H   0  0  0  0  0  0  0  0  0  0  0  0
   -1.4078   -3.1866   -0.0957 H   0  0  0  0  0  0  0  0  0  0  0  0
   -2.8298   -3.4009   -1.1414 H   0  0  0  0  0  0  0  0  0  0  0  0
   -2.1716   -1.1574   -2.7271 N   0  0  0  0  0  0  0  0  0  0  0  0
   -1.8820    0.1708   -3.3030 C   0  0  2  0  0  0  0  0  0  0  0  0
   -2.7531    1.3361   -2.7636 C   0  0  0  0  0  0  0  0  0  0  0  0
   -2.9103    2.3590   -3.4153 O   0  0  0  0  0  0  0  0  0  0  0  0
   -2.0007    0.0317   -4.8255 C   0  0  0  0  0  0  0  0  0  0  0  0
   -2.4161   -1.8995   -3.3772 H   0  0  0  0  0  0  0  0  0  0  0  0
   -0.8427    0.4292   -3.0696 H   0  0  0  0  0  0  0  0  0  0  0  0
   -3.0341   -0.1875   -5.1118 H   0  0  0  0  0  0  0  0  0  0  0  0
   -1.6954    0.9602   -5.3189 H   0  0  0  0  0  0  0  0  0  0  0  0
   -1.3545   -0.7732   -5.1887 H   0  0  0  0  0  0  0  0  0  0  0  0
   -3.1378    1.3171   -1.4374 N   0  0  0  0  0  0  0  0  0  0  0  0
   -3.2140    2.5416   -0.6268 C   0  0  0  0  0  0  0  0  0  0  0  0
   -1.7972    3.0014   -0.2582 C   0  0  0  0  0  0  0  0  0  0  0  0
   -1.4543    4.1633   -0.4352 O   0  0  0  0  0  0  0  0  0  0  0  0
   -2.8282    0.4730   -0.9540 H   0  0  0  0  0  0  0  0  0  0  0  0
   -3.7801    2.3522    0.2891 H   0  0  0  0  0  0  0  0  0  0  0  0
   -3.7273    3.3404   -1.1731 H   0  0  0  0  0  0  0  0  0  0  0  0
   -0.8644    2.0781    0.1857 N   0  0  0  0  0  0  0  0  0  0  0  0
    0.5781    2.3161    0.0406 C   0  0  2  0  0  0  0  0  0  0  0  0
    1.0063    2.2635   -1.4488 C   0  0  0  0  0  0  0  0  0  0  0  0
    1.6217    1.3108   -1.9151 O   0  0  0  0  0  0  0  0  0  0  0  0
    1.3033    1.2760    0.9019 C   0  0  0  0  0  0  0  0  0  0  0  0
   -1.1575    1.1000    0.1266 H   0  0  0  0  0  0  0  0  0  0  0  0
    0.8330    3.3091    0.4258 H   0  0  0  0  0  0  0  0  0  0  0  0
    1.0698    0.2617    0.5616 H   0  0  0  0  0  0  0  0  0  0  0  0
    2.3862    1.4215    0.8397 H   0  0  0  0  0  0  0  0  0  0  0  0
    1.0004    1.3714    1.9490 H   0  0  0  0  0  0  0  0  0  0  0  0
    0.5978    3.2724   -2.2992 N   0  0  0  0  0  0  0  0  0  0  0  0
    0.7715    3.2402   -3.7447 C   0  0  0  0  0  0  0  0  0  0  0  0
   -0.0605    3.9479   -1.9000 H   0  0  0  0  0  0  0  0  0  0  0  0
    1.8336    3.1731   -4.0022 H   0  0  0  0  0  0  0  0  0  0  0  0
    0.2474    2.3822   -4.1767 H   0  0  0  0  0  0  0  0  0  0  0  0
    0.3650    4.1528   -4.1911 H   0  0  0  0  0  0  0  0  0  0  0  0
  1  2  2  0  0  0  0
  1  3  1  0  0  0  0
  1  7  1  0  0  0  0
  3  4  1  0  0  0  0
  3  5  1  0  0  0  0
  3  6  1  0  0  0  0
  7  8  1  0  0  0  0
  7 12  1  0  0  0  0
  8  9  1  0  0  0  0
  8 11  1  0  0  0  0
  8 13  1  0  0  0  0
  9 10  2  0  0  0  0
  9 17  1  0  0  0  0
 11 14  1  0  0  0  0
 11 15  1  0  0  0  0
 11 16  1  0  0  0  0
 17 18  1  0  0  0  0
 17 21  1  0  0  0  0
 18 19  1  0  0  0  0
 18 22  1  0  0  0  0
 18 23  1  0  0  0  0
 19 20  2  0  0  0  0
 19 24  1  0  0  0  0
 24 25  1  0  0  0  0
 24 29  1  0  0  0  0
 25 26  1  0  0  0  0
 25 28  1  0  0  0  0
 25 30  1  0  0  0  0
 26 27  2  0  0  0  0
 26 34  1  0  0  0  0
 28 31  1  0  0  0  0
 28 32  1  0  0  0  0
 28 33  1  0  0  0  0
 34 35  1  0  0  0  0
 34 36  1  0  0  0  0
 35 37  1  0  0  0  0
 35 38  1  0  0  0  0
 35 39  1  0  0  0  0
M  END
$$$$

  -OEChem-05262216283D

 39 38  0     1  0  0  0  0  0999 V2000
   -1.8853   -1.7298   -1.5951 C   0  0  0  0  0  0  0  0  0  0  0  0
   -1.4559   -0.9238   -0.7809 O   0  0  0  0  0  0  0  0  0  0  0  0
   -1.9591   -3.2036   -1.2448 C   0  0  0  0  0  0  0  0  0  0  0  0
   -1.3838   -3.7884   -1.9669 H   0  0  0  0  0  0  0  0  0  0  0  0
   -1.5462   -3.3758   -0.2467 H   0  0  0  0  0  0  0  0  0  0  0  0
   -2.9983   -3.5416   -1.2582 H   0  0  0  0  0  0  0  0  0  0  0  0
   -2.3884   -1.2769   -2.7986 N   0  0  0  0  0  0  0  0  0  0  0  0
   -2.1087    0.0594   -3.3593 C   0  0  2  0  0  0  0  0  0  0  0  0
   -2.8959    1.2289   -2.7123 C   0  0  0  0  0  0  0  0  0  0  0  0
   -3.0521    2.2831   -3.3130 O   0  0  0  0  0  0  0  0  0  0  0  0
   -2.3681   -0.0292   -4.8682 C   0  0  0  0  0  0  0  0  0  0  0  0
   -2.7132   -1.9926   -3.4431 H   0  0  0  0  0  0  0  0  0  0  0  0
   -1.0456    0.2846   -3.2144 H   0  0  0  0  0  0  0  0  0  0  0  0
   -3.4309   -0.2011   -5.0659 H   0  0  0  0  0  0  0  0  0  0  0  0
   -2.0708    0.9022   -5.3614 H   0  0  0  0  0  0  0  0  0  0  0  0
   -1.7892   -0.8458   -5.3104 H   0  0  0  0  0  0  0  0  0  0  0  0
   -3.2395    1.1658   -1.3735 N   0  0  0  0  0  0  0  0  0  0  0  0
   -3.2633    2.3753   -0.5342 C   0  0  0  0  0  0  0  0  0  0  0  0
   -1.8369    2.8263   -0.1839 C   0  0  0  0  0  0  0  0  0  0  0  0
   -1.5541    4.0174   -0.1738 O   0  0  0  0  0  0  0  0  0  0  0  0
   -2.9312    0.3025   -0.9245 H   0  0  0  0  0  0  0  0  0  0  0  0
   -3.8052    2.1703    0.3927 H   0  0  0  0  0  0  0  0  0  0  0  0
   -3.7853    3.1918   -1.0446 H   0  0  0  0  0  0  0  0  0  0  0  0
   -0.8191    1.8918   -0.0769 N   0  0  0  0  0  0  0  0  0  0  0  0
    0.5837    2.2295   -0.3469 C   0  0  2  0  0  0  0  0  0  0  0  0
    0.8073    2.4395   -1.8642 C   0  0  0  0  0  0  0  0  0  0  0  0
    1.3457    1.5862   -2.5616 O   0  0  0  0  0  0  0  0  0  0  0  0
    1.4497    1.1068    0.2351 C   0  0  0  0  0  0  0  0  0  0  0  0
   -1.0877    0.9184   -0.2416 H   0  0  0  0  0  0  0  0  0  0  0  0
    0.8523    3.1604    0.1637 H   0  0  0  0  0  0  0  0  0  0  0  0
    1.2054    0.1476   -0.2329 H   0  0  0  0  0  0  0  0  0  0  0  0
    2.5094    1.3176    0.0614 H   0  0  0  0  0  0  0  0  0  0  0  0
    1.2846    1.0206    1.3133 H   0  0  0  0  0  0  0  0  0  0  0  0
    0.2696    3.5610   -2.4641 N   0  0  0  0  0  0  0  0  0  0  0  0
    0.1730    3.7304   -3.9073 C   0  0  0  0  0  0  0  0  0  0  0  0
   -0.3441    4.1226   -1.8680 H   0  0  0  0  0  0  0  0  0  0  0  0
    1.1647    3.6784   -4.3682 H   0  0  0  0  0  0  0  0  0  0  0  0
   -0.4613    2.9520   -4.3430 H   0  0  0  0  0  0  0  0  0  0  0  0
   -0.2648    4.7053   -4.1419 H   0  0  0  0  0  0  0  0  0  0  0  0
  1  2  2  0  0  0  0
  1  3  1  0  0  0  0
  1  7  1  0  0  0  0
  3  4  1  0  0  0  0
  3  5  1  0  0  0  0
  3  6  1  0  0  0  0
  7  8  1  0  0  0  0
  7 12  1  0  0  0  0
  8  9  1  0  0  0  0
  8 11  1  0  0  0  0
  8 13  1  0  0  0  0
  9 10  2  0  0  0  0
  9 17  1  0  0  0  0
 11 14  1  0  0  0  0
 11 15  1  0  0  0  0
 11 16  1  0  0  0  0
 17 18  1  0  0  0  0
 17 21  1  0  0  0  0
 18 19  1  0  0  0  0
 18 22  1  0  0  0  0
 18 23  1  0  0  0  0
 19 20  2  0  0  0  0
 19 24  1  0  0  0  0
 24 25  1  0  0  0  0
 24 29  1  0  0  0  0
 25 26  1  0  0  0  0
 25 28  1  0  0  0  0
 25 30  1  0  0  0  0
 26 27  2  0  0  0  0
 26 34  1  0  0  0  0
 28 31  1  0  0  0  0
 28 32  1  0  0  0  0
 28 33  1  0  0  0  0
 34 35  1  0  0  0  0
 34 36  1  0  0  0  0
 35 37  1  0  0  0  0
 35 38  1  0  0  0  0
 35 39  1  0  0  0  0
M  END
$$$$

  -OEChem-05262216283D

 39 38  0     1  0  0  0  0  0999 V2000
   -2.8054   -2.6685   -1.9914 C   0  0  0  0  0  0  0  0  0  0  0  0
   -2.0338   -2.4109   -1.0788 O   0  0  0  0  0  0  0  0  0  0  0  0
   -3.5771   -3.9744   -1.9964 C   0  0  0  0  0  0  0  0  0  0  0  0
   -3.3563   -4.5357   -2.9077 H   0  0  0  0  0  0  0  0  0  0  0  0
   -3.2952   -4.5828   -1.1322 H   0  0  0  0  0  0  0  0  0  0  0  0
   -4.6506   -3.7745   -1.9510 H   0  0  0  0  0  0  0  0  0  0  0  0
   -3.0147   -1.7402   -2.9906 N   0  0  0  0  0  0  0  0  0  0  0  0
   -2.2833   -0.4681   -3.1046 C   0  0  2  0  0  0  0  0  0  0  0  0
   -2.7725    0.6020   -2.0977 C   0  0  0  0  0  0  0  0  0  0  0  0
   -3.1961    1.6922   -2.4617 O   0  0  0  0  0  0  0  0  0  0  0  0
   -2.3904   -0.0034   -4.5620 C   0  0  0  0  0  0  0  0  0  0  0  0
   -3.6994   -1.9694   -3.7051 H   0  0  0  0  0  0  0  0  0  0  0  0
   -1.2218   -0.6394   -2.8929 H   0  0  0  0  0  0  0  0  0  0  0  0
   -3.4322    0.2023   -4.8272 H   0  0  0  0  0  0  0  0  0  0  0  0
   -1.8084    0.9125   -4.7080 H   0  0  0  0  0  0  0  0  0  0  0  0
   -1.9986   -0.7694   -5.2376 H   0  0  0  0  0  0  0  0  0  0  0  0
   -2.6607    0.3575   -0.7400 N   0  0  0  0  0  0  0  0  0  0  0  0
   -2.9208    1.3710    0.3002 C   0  0  0  0  0  0  0  0  0  0  0  0
   -1.7890    2.4021    0.4159 C   0  0  0  0  0  0  0  0  0  0  0  0
   -1.9958    3.4937    0.9275 O   0  0  0  0  0  0  0  0  0  0  0  0
   -2.3191   -0.5729   -0.4770 H   0  0  0  0  0  0  0  0  0  0  0  0
   -3.0380    0.8779    1.2687 H   0  0  0  0  0  0  0  0  0  0  0  0
   -3.8553    1.8990    0.0832 H   0  0  0  0  0  0  0  0  0  0  0  0
   -0.5689    2.1342   -0.1741 N   0  0  0  0  0  0  0  0  0  0  0  0
    0.2341    3.1787   -0.8149 C   0  0  2  0  0  0  0  0  0  0  0  0
    0.3141    2.9081   -2.3327 C   0  0  0  0  0  0  0  0  0  0  0  0
    0.3109    1.7516   -2.7490 O   0  0  0  0  0  0  0  0  0  0  0  0
    1.6267    3.1749   -0.1837 C   0  0  0  0  0  0  0  0  0  0  0  0
   -0.5508    1.2404   -0.6632 H   0  0  0  0  0  0  0  0  0  0  0  0
   -0.2193    4.1647   -0.6691 H   0  0  0  0  0  0  0  0  0  0  0  0
    2.1094    2.2026   -0.3248 H   0  0  0  0  0  0  0  0  0  0  0  0
    2.2548    3.9461   -0.6397 H   0  0  0  0  0  0  0  0  0  0  0  0
    1.5536    3.3760    0.8896 H   0  0  0  0  0  0  0  0  0  0  0  0
    0.3772    3.9558   -3.2319 N   0  0  0  0  0  0  0  0  0  0  0  0
    0.3037    3.7631   -4.6747 C   0  0  0  0  0  0  0  0  0  0  0  0
    0.2491    4.8920   -2.8583 H   0  0  0  0  0  0  0  0  0  0  0  0
    1.1102    3.1055   -5.0158 H   0  0  0  0  0  0  0  0  0  0  0  0
   -0.6570    3.3166   -4.9524 H   0  0  0  0  0  0  0  0  0  0  0  0
    0.4020    4.7233   -5.1899 H   0  0  0  0  0  0  0  0  0  0  0  0
  1  2  2  0  0  0  0
  1  3  1  0  0  0  0
  1  7  1  0  0  0  0
  3  4  1  0  0  0  0
  3  5  1  0  0  0  0
  3  6  1  0  0  0  0
  7  8  1  0  0  0  0
  7 12  1  0  0  0  0
  8  9  1  0  0  0  0
  8 11  1  0  0  0  0
  8 13  1  0  0  0  0
  9 10  2  0  0  0  0
  9 17  1  0  0  0  0
 11 14  1  0  0  0  0
 11 15  1  0  0  0  0
 11 16  1  0  0  0  0
 17 18  1  0  0  0  0
 17 21  1  0  0  0  0
 18 19  1  0  0  0  0
 18 22  1  0  0  0  0
 18 23  1  0  0  0  0
 19 20  2  0  0  0  0
 19 24  1  0  0  0  0
 24 25  1  0  0  0  0
 24 29  1  0  0  0  0
 25 26  1  0  0  0  0
 25 28  1  0  0  0  0
 25 30  1  0  0  0  0
 26 27  2  0  0  0  0
 26 34  1  0  0  0  0
 28 31  1  0  0  0  0
 28 32  1  0  0  0  0
 28 33  1  0  0  0  0
 34 35  1  0  0  0  0
 34 36  1  0  0  0  0
 35 37  1  0  0  0  0
 35 38  1  0  0  0  0
 35 39  1  0  0  0  0
M  END
$$$$

  -OEChem-05262216283D

 39 38  0     1  0  0  0  0  0999 V2000
   -3.8545   -3.2601   -2.2898 C   0  0  0  0  0  0  0  0  0  0  0  0
   -3.1853   -3.8169   -1.4328 O   0  0  0  0  0  0  0  0  0  0  0  0
   -5.2463   -3.7646   -2.6190 C   0  0  0  0  0  0  0  0  0  0  0  0
   -5.3426   -3.9210   -3.6960 H   0  0  0  0  0  0  0  0  0  0  0  0
   -5.4340   -4.7131   -2.1083 H   0  0  0  0  0  0  0  0  0  0  0  0
   -5.9922   -3.0349   -2.2947 H   0  0  0  0  0  0  0  0  0  0  0  0
   -3.3585   -2.1449   -2.9325 N   0  0  0  0  0  0  0  0  0  0  0  0
   -2.1307   -1.4666   -2.5007 C   0  0  2  0  0  0  0  0  0  0  0  0
   -2.4153   -0.4208   -1.4042 C   0  0  0  0  0  0  0  0  0  0  0  0
   -3.2741    0.4347   -1.5751 O   0  0  0  0  0  0  0  0  0  0  0  0
   -1.4965   -0.8021   -3.7260 C   0  0  0  0  0  0  0  0  0  0  0  0
   -4.0285   -1.5993   -3.4689 H   0  0  0  0  0  0  0  0  0  0  0  0
   -1.4162   -2.1967   -2.1062 H   0  0  0  0  0  0  0  0  0  0  0  0
   -2.1685   -0.0478   -4.1488 H   0  0  0  0  0  0  0  0  0  0  0  0
   -0.5586   -0.3096   -3.4503 H   0  0  0  0  0  0  0  0  0  0  0  0
   -1.2810   -1.5490   -4.4963 H   0  0  0  0  0  0  0  0  0  0  0  0
   -1.6311   -0.3552   -0.2666 N   0  0  0  0  0  0  0  0  0  0  0  0
   -1.8039    0.6649    0.7877 C   0  0  0  0  0  0  0  0  0  0  0  0
   -1.2853    2.0618    0.4091 C   0  0  0  0  0  0  0  0  0  0  0  0
   -1.3130    2.9654    1.2328 O   0  0  0  0  0  0  0  0  0  0  0  0
   -0.9819   -1.1223   -0.1078 H   0  0  0  0  0  0  0  0  0  0  0  0
   -1.2758    0.3434    1.6896 H   0  0  0  0  0  0  0  0  0  0  0  0
   -2.8646    0.7527    1.0446 H   0  0  0  0  0  0  0  0  0  0  0  0
   -0.7150    2.2859   -0.8283 N   0  0  0  0  0  0  0  0  0  0  0  0
   -0.3426    3.6028   -1.3517 C   0  0  2  0  0  0  0  0  0  0  0  0
   -0.4498    3.6331   -2.8912 C   0  0  0  0  0  0  0  0  0  0  0  0
   -0.4871    2.5854   -3.5303 O   0  0  0  0  0  0  0  0  0  0  0  0
    1.0881    3.9235   -0.9082 C   0  0  0  0  0  0  0  0  0  0  0  0
   -0.8869    1.5616   -1.5245 H   0  0  0  0  0  0  0  0  0  0  0  0
   -1.0254    4.3613   -0.9546 H   0  0  0  0  0  0  0  0  0  0  0  0
    1.7852    3.1728   -1.2939 H   0  0  0  0  0  0  0  0  0  0  0  0
    1.3938    4.9066   -1.2786 H   0  0  0  0  0  0  0  0  0  0  0  0
    1.1540    3.9315    0.1844 H   0  0  0  0  0  0  0  0  0  0  0  0
   -0.5027    4.8396   -3.5644 N   0  0  0  0  0  0  0  0  0  0  0  0
   -0.6529    4.9426   -5.0107 C   0  0  0  0  0  0  0  0  0  0  0  0
   -0.5190    5.6881   -3.0059 H   0  0  0  0  0  0  0  0  0  0  0  0
    0.1627    4.4186   -5.5202 H   0  0  0  0  0  0  0  0  0  0  0  0
   -1.6055    4.5055   -5.3279 H   0  0  0  0  0  0  0  0  0  0  0  0
   -0.6330    5.9923   -5.3193 H   0  0  0  0  0  0  0  0  0  0  0  0
  1  2  2  0  0  0  0
  1  3  1  0  0  0  0
  1  7  1  0  0  0  0
  3  4  1  0  0  0  0
  3  5  1  0  0  0  0
  3  6  1  0  0  0  0
  7  8  1  0  0  0  0
  7 12  1  0  0  0  0
  8  9  1  0  0  0  0
  8 11  1  0  0  0  0
  8 13  1  0  0  0  0
  9 10  2  0  0  0  0
  9 17  1  0  0  0  0
 11 14  1  0  0  0  0
 11 15  1  0  0  0  0
 11 16  1  0  0  0  0
 17 18  1  0  0  0  0
 17 21  1  0  0  0  0
 18 19  1  0  0  0  0
 18 22  1  0  0  0  0
 18 23  1  0  0  0  0
 19 20  2  0  0  0  0
 19 24  1  0  0  0  0
 24 25  1  0  0  0  0
 24 29  1  0  0  0  0
 25 26  1  0  0  0  0
 25 28  1  0  0  0  0
 25 30  1  0  0  0  0
 26 27  2  0  0  0  0
 26 34  1  0  0  0  0
 28 31  1  0  0  0  0
 28 32  1  0  0  0  0
 28 33  1  0  0  0  0
 34 35  1  0  0  0  0
 34 36  1  0  0  0  0
 35 37  1  0  0  0  0
 35 38  1  0  0  0  0
 35 39  1  0  0  0  0
M  END
$$$$

  -OEChem-05262216283D

 39 38  0     1  0  0  0  0  0999 V2000
   -3.8468   -3.3740   -2.2351 C   0  0  0  0  0  0  0  0  0  0  0  0
   -3.1231   -3.9359   -1.4273 O   0  0  0  0  0  0  0  0  0  0  0  0
   -5.2294   -3.9228   -2.5320 C   0  0  0  0  0  0  0  0  0  0  0  0
   -5.3297   -4.1237   -3.6014 H   0  0  0  0  0  0  0  0  0  0  0  0
   -5.3912   -4.8545   -1.9825 H   0  0  0  0  0  0  0  0  0  0  0  0
   -5.9907   -3.1992   -2.2305 H   0  0  0  0  0  0  0  0  0  0  0  0
   -3.4174   -2.2199   -2.8566 N   0  0  0  0  0  0  0  0  0  0  0  0
   -2.1948   -1.5144   -2.4547 C   0  0  2  0  0  0  0  0  0  0  0  0
   -2.4644   -0.5147   -1.3126 C   0  0  0  0  0  0  0  0  0  0  0  0
   -3.3632    0.3104   -1.4160 O   0  0  0  0  0  0  0  0  0  0  0  0
   -1.6414   -0.7863   -3.6832 C   0  0  0  0  0  0  0  0  0  0  0  0
   -4.1285   -1.6800   -3.3436 H   0  0  0  0  0  0  0  0  0  0  0  0
   -1.4387   -2.2311   -2.1174 H   0  0  0  0  0  0  0  0  0  0  0  0
   -2.3619   -0.0496   -4.0543 H   0  0  0  0  0  0  0  0  0  0  0  0
   -0.7145   -0.2614   -3.4307 H   0  0  0  0  0  0  0  0  0  0  0  0
   -1.4277   -1.5000   -4.4848 H   0  0  0  0  0  0  0  0  0  0  0  0
   -1.6119   -0.4230   -0.2276 N   0  0  0  0  0  0  0  0  0  0  0  0
   -1.7399    0.5947    0.8359 C   0  0  0  0  0  0  0  0  0  0  0  0
   -1.2822    2.0042    0.4241 C   0  0  0  0  0  0  0  0  0  0  0  0
   -1.0151    2.8314    1.2845 O   0  0  0  0  0  0  0  0  0  0  0  0
   -0.8853   -1.1303   -0.1467 H   0  0  0  0  0  0  0  0  0  0  0  0
   -1.1480    0.2858    1.7021 H   0  0  0  0  0  0  0  0  0  0  0  0
   -2.7834    0.6573    1.1608 H   0  0  0  0  0  0  0  0  0  0  0  0
   -1.0954    2.3201   -0.9068 N   0  0  0  0  0  0  0  0  0  0  0  0
   -0.7157    3.6381   -1.4232 C   0  0  2  0  0  0  0  0  0  0  0  0
   -1.0986    3.7794   -2.9120 C   0  0  0  0  0  0  0  0  0  0  0  0
   -1.2910    2.7824   -3.6015 O   0  0  0  0  0  0  0  0  0  0  0  0
    0.7958    3.8293   -1.2536 C   0  0  0  0  0  0  0  0  0  0  0  0
   -1.5322    1.6801   -1.5726 H   0  0  0  0  0  0  0  0  0  0  0  0
   -1.2471    4.4138   -0.8619 H   0  0  0  0  0  0  0  0  0  0  0  0
    1.3420    3.0526   -1.7986 H   0  0  0  0  0  0  0  0  0  0  0  0
    1.1040    4.8067   -1.6365 H   0  0  0  0  0  0  0  0  0  0  0  0
    1.0730    3.7729   -0.1964 H   0  0  0  0  0  0  0  0  0  0  0  0
   -1.2160    5.0316   -3.4867 N   0  0  0  0  0  0  0  0  0  0  0  0
   -1.5886    5.2409   -4.8806 C   0  0  0  0  0  0  0  0  0  0  0  0
   -1.0771    5.8392   -2.8863 H   0  0  0  0  0  0  0  0  0  0  0  0
   -0.8621    4.7643   -5.5474 H   0  0  0  0  0  0  0  0  0  0  0  0
   -2.5795    4.8192   -5.0801 H   0  0  0  0  0  0  0  0  0  0  0  0
   -1.6158    6.3108   -5.1085 H   0  0  0  0  0  0  0  0  0  0  0  0
  1  2  2  0  0  0  0
  1  3  1  0  0  0  0
  1  7  1  0  0  0  0
  3  4  1  0  0  0  0
  3  5  1  0  0  0  0
  3  6  1  0  0  0  0
  7  8  1  0  0  0  0
  7 12  1  0  0  0  0
  8  9  1  0  0  0  0
  8 11  1  0  0  0  0
  8 13  1  0  0  0  0
  9 10  2  0  0  0  0
  9 17  1  0  0  0  0
 11 14  1  0  0  0  0
 11 15  1  0  0  0  0
 11 16  1  0  0  0  0
 17 18  1  0  0  0  0
 17 21  1  0  0  0  0
 18 19  1  0  0  0  0
 18 22  1  0  0  0  0
 18 23  1  0  0  0  0
 19 20  2  0  0  0  0
 19 24  1  0  0  0  0
 24 25  1  0  0  0  0
 24 29  1  0  0  0  0
 25 26  1  0  0  0  0
 25 28  1  0  0  0  0
 25 30  1  0  0  0  0
 26 27  2  0  0  0  0
 26 34  1  0  0  0  0
 28 31  1  0  0  0  0
 28 32  1  0  0  0  0
 28 33  1  0  0  0  0
 34 35  1  0  0  0  0
 34 36  1  0  0  0  0
 35 37  1  0  0  0  0
 35 38  1  0  0  0  0
 35 39  1  0  0  0  0
M  END
$$$$

  -OEChem-05262216283D

 39 38  0     1  0  0  0  0  0999 V2000
   -2.7994   -3.4062   -1.9434 C   0  0  0  0  0  0  0  0  0  0  0  0
   -1.6921   -2.9480   -2.1823 O   0  0  0  0  0  0  0  0  0  0  0  0
   -2.9445   -4.7679   -1.2906 C   0  0  0  0  0  0  0  0  0  0  0  0
   -3.5938   -5.4062   -1.8948 H   0  0  0  0  0  0  0  0  0  0  0  0
   -1.9664   -5.2490   -1.2002 H   0  0  0  0  0  0  0  0  0  0  0  0
   -3.3774   -4.6600   -0.2930 H   0  0  0  0  0  0  0  0  0  0  0  0
   -3.9182   -2.6491   -2.2254 N   0  0  0  0  0  0  0  0  0  0  0  0
   -3.8808   -1.3411   -2.8991 C   0  0  2  0  0  0  0  0  0  0  0  0
   -3.4180   -0.1980   -1.9614 C   0  0  0  0  0  0  0  0  0  0  0  0
   -4.1421    0.7517   -1.6877 O   0  0  0  0  0  0  0  0  0  0  0  0
   -5.2736   -1.0950   -3.4933 C   0  0  0  0  0  0  0  0  0  0  0  0
   -4.8219   -3.0415   -1.9754 H   0  0  0  0  0  0  0  0  0  0  0  0
   -3.1675   -1.3824   -3.7300 H   0  0  0  0  0  0  0  0  0  0  0  0
   -6.0278   -1.0385   -2.7016 H   0  0  0  0  0  0  0  0  0  0  0  0
   -5.2870   -0.1527   -4.0506 H   0  0  0  0  0  0  0  0  0  0  0  0
   -5.5447   -1.9034   -4.1792 H   0  0  0  0  0  0  0  0  0  0  0  0
   -2.1356   -0.2118   -1.4483 N   0  0  0  0  0  0  0  0  0  0  0  0
   -1.6351    0.6819   -0.3850 C   0  0  0  0  0  0  0  0  0  0  0  0
   -1.3492    2.1334   -0.8065 C   0  0  0  0  0  0  0  0  0  0  0  0
   -0.4288    2.7327   -0.2663 O   0  0  0  0  0  0  0  0  0  0  0  0
   -1.5975   -1.0582   -1.6637 H   0  0  0  0  0  0  0  0  0  0  0  0
   -0.7082    0.2617    0.0166 H   0  0  0  0  0  0  0  0  0  0  0  0
   -2.3610    0.7086    0.4332 H   0  0  0  0  0  0  0  0  0  0  0  0
   -2.0732    2.7299   -1.8236 N   0  0  0  0  0  0  0  0  0  0  0  0
   -1.9957    4.1310   -2.2848 C   0  0  2  0  0  0  0  0  0  0  0  0
   -0.6825    4.5225   -3.0022 C   0  0  0  0  0  0  0  0  0  0  0  0
   -0.7346    5.1765   -4.0365 O   0  0  0  0  0  0  0  0  0  0  0  0
   -2.2986    5.1022   -1.1359 C   0  0  0  0  0  0  0  0  0  0  0  0
   -2.8995    2.1937   -2.0999 H   0  0  0  0  0  0  0  0  0  0  0  0
   -2.7889    4.2583   -3.0285 H   0  0  0  0  0  0  0  0  0  0  0  0
   -1.4995    5.0935   -0.3891 H   0  0  0  0  0  0  0  0  0  0  0  0
   -2.3932    6.1218   -1.5223 H   0  0  0  0  0  0  0  0  0  0  0  0
   -3.2382    4.8299   -0.6459 H   0  0  0  0  0  0  0  0  0  0  0  0
    0.5520    4.1869   -2.4836 N   0  0  0  0  0  0  0  0  0  0  0  0
    1.8225    4.6008   -3.0615 C   0  0  0  0  0  0  0  0  0  0  0  0
    0.5421    3.6899   -1.5888 H   0  0  0  0  0  0  0  0  0  0  0  0
    1.9125    4.2337   -4.0890 H   0  0  0  0  0  0  0  0  0  0  0  0
    1.9026    5.6927   -3.0680 H   0  0  0  0  0  0  0  0  0  0  0  0
    2.6528    4.1957   -2.4752 H   0  0  0  0  0  0  0  0  0  0  0  0
  1  2  2  0  0  0  0
  1  3  1  0  0  0  0
  1  7  1  0  0  0  0
  3  4  1  0  0  0  0
  3  5  1  0  0  0  0
  3  6  1  0  0  0  0
  7  8  1  0  0  0  0
  7 12  1  0  0  0  0
  8  9  1  0  0  0  0
  8 11  1  0  0  0  0
  8 13  1  0  0  0  0
  9 10  2  0  0  0  0
  9 17  1  0  0  0  0
 11 14  1  0  0  0  0
 11 15  1  0  0  0  0
 11 16  1  0  0  0  0
 17 18  1  0  0  0  0
 17 21  1  0  0  0  0
 18 19  1  0  0  0  0
 18 22  1  0  0  0  0
 18 23  1  0  0  0  0
 19 20  2  0  0  0  0
 19 24  1  0  0  0  0
 24 25  1  0  0  0  0
 24 29  1  0  0  0  0
 25 26  1  0  0  0  0
 25 28  1  0  0  0  0
 25 30  1  0  0  0  0
 26 27  2  0  0  0  0
 26 34  1  0  0  0  0
 28 31  1  0  0  0  0
 28 32  1  0  0  0  0
 28 33  1  0  0  0  0
 34 35  1  0  0  0  0
 34 36  1  0  0  0  0
 35 37  1  0  0  0  0
 35 38  1  0  0  0  0
 35 39  1  0  0  0  0
M  END
$$$$

  -OEChem-05262216283D

 39 38  0     1  0  0  0  0  0999 V2000
   -4.2456   -3.6515   -2.2576 C   0  0  0  0  0  0  0  0  0  0  0  0
   -3.5357   -4.3256   -2.9868 O   0  0  0  0  0  0  0  0  0  0  0  0
   -5.5227   -4.2362   -1.6843 C   0  0  0  0  0  0  0  0  0  0  0  0
   -6.3793   -3.6264   -1.9819 H   0  0  0  0  0  0  0  0  0  0  0  0
   -5.6711   -5.2538   -2.0567 H   0  0  0  0  0  0  0  0  0  0  0  0
   -5.4642   -4.2644   -0.5934 H   0  0  0  0  0  0  0  0  0  0  0  0
   -3.8846   -2.3551   -1.9547 N   0  0  0  0  0  0  0  0  0  0  0  0
   -2.6336   -1.7204   -2.3912 C   0  0  2  0  0  0  0  0  0  0  0  0
   -2.1027   -0.7103   -1.3533 C   0  0  0  0  0  0  0  0  0  0  0  0
   -2.8381   -0.2717   -0.4741 O   0  0  0  0  0  0  0  0  0  0  0  0
   -2.8925   -1.0237   -3.7312 C   0  0  0  0  0  0  0  0  0  0  0  0
   -4.4449   -1.8597   -1.2625 H   0  0  0  0  0  0  0  0  0  0  0  0
   -1.8599   -2.4843   -2.5261 H   0  0  0  0  0  0  0  0  0  0  0  0
   -3.6485   -0.2400   -3.6169 H   0  0  0  0  0  0  0  0  0  0  0  0
   -1.9741   -0.5680   -4.1136 H   0  0  0  0  0  0  0  0  0  0  0  0
   -3.2502   -1.7468   -4.4715 H   0  0  0  0  0  0  0  0  0  0  0  0
   -0.8087   -0.2288   -1.4370 N   0  0  0  0  0  0  0  0  0  0  0  0
   -0.2041    0.7345   -0.4954 C   0  0  0  0  0  0  0  0  0  0  0  0
   -0.6823    2.1854   -0.6704 C   0  0  0  0  0  0  0  0  0  0  0  0
    0.1487    3.0786   -0.7646 O   0  0  0  0  0  0  0  0  0  0  0  0
   -0.2370   -0.5789   -2.2026 H   0  0  0  0  0  0  0  0  0  0  0  0
    0.8836    0.7151   -0.6128 H   0  0  0  0  0  0  0  0  0  0  0  0
   -0.4213    0.4268    0.5323 H   0  0  0  0  0  0  0  0  0  0  0  0
   -2.0287    2.4560   -0.8365 N   0  0  0  0  0  0  0  0  0  0  0  0
   -2.6704    3.7671   -1.0559 C   0  0  2  0  0  0  0  0  0  0  0  0
   -2.3548    4.4139   -2.4235 C   0  0  0  0  0  0  0  0  0  0  0  0
   -3.2735    4.7613   -3.1545 O   0  0  0  0  0  0  0  0  0  0  0  0
   -2.3599    4.7359    0.0934 C   0  0  0  0  0  0  0  0  0  0  0  0
   -2.6398    1.6440   -0.7105 H   0  0  0  0  0  0  0  0  0  0  0  0
   -3.7517    3.5949   -1.0449 H   0  0  0  0  0  0  0  0  0  0  0  0
   -1.3068    5.0314    0.0911 H   0  0  0  0  0  0  0  0  0  0  0  0
   -2.9673    5.6408   -0.0056 H   0  0  0  0  0  0  0  0  0  0  0  0
   -2.5887    4.2694    1.0561 H   0  0  0  0  0  0  0  0  0  0  0  0
   -1.0528    4.6081   -2.8388 N   0  0  0  0  0  0  0  0  0  0  0  0
   -0.6829    5.1984   -4.1173 C   0  0  0  0  0  0  0  0  0  0  0  0
   -0.3226    4.2684   -2.2065 H   0  0  0  0  0  0  0  0  0  0  0  0
   -1.0343    4.5716   -4.9431 H   0  0  0  0  0  0  0  0  0  0  0  0
   -1.1218    6.1965   -4.2197 H   0  0  0  0  0  0  0  0  0  0  0  0
    0.4048    5.2906   -4.1895 H   0  0  0  0  0  0  0  0  0  0  0  0
  1  2  2  0  0  0  0
  1  3  1  0  0  0  0
  1  7  1  0  0  0  0
  3  4  1  0  0  0  0
  3  5  1  0  0  0  0
  3  6  1  0  0  0  0
  7  8  1  0  0  0  0
  7 12  1  0  0  0  0
  8  9  1  0  0  0  0
  8 11  1  0  0  0  0
  8 13  1  0  0  0  0
  9 10  2  0  0  0  0
  9 17  1  0  0  0  0
 11 14  1  0  0  0  0
 11 15  1  0  0  0  0
 11 16  1  0  0  0  0
 17 18  1  0  0  0  0
 17 21  1  0  0  0  0
 18 19  1  0  0  0  0
 18 22  1  0  0  0  0
 18 23  1  0  0  0  0
 19 20  2  0  0  0  0
 19 24  1  0  0  0  0
 24 25  1  0  0  0  0
 24 29  1  0  0  0  0
 25 26  1  0  0  0  0
 25 28  1  0  0  0  0
 25 30  1  0  0  0  0
 26 27  2  0  0  0  0
 26 34  1  0  0  0  0
 28 31  1  0  0  0  0
 28 32  1  0  0  0  0
 28 33  1  0  0  0  0
 34 35  1  0  0  0  0
 34 36  1  0  0  0  0
 35 37  1  0  0  0  0
 35 38  1  0  0  0  0
 35 39  1  0  0  0  0
M  END
$$$$

  -OEChem-05262216283D

 39 38  0     1  0  0  0  0  0999 V2000
   -3.8060   -3.4935   -2.1519 C   0  0  0  0  0  0  0  0  0  0  0  0
   -2.7073   -4.0002   -2.3179 O   0  0  0  0  0  0  0  0  0  0  0  0
   -4.9468   -4.3149   -1.5813 C   0  0  0  0  0  0  0  0  0  0  0  0
   -5.7868   -4.3236   -2.2799 H   0  0  0  0  0  0  0  0  0  0  0  0
   -4.6214   -5.3446   -1.4091 H   0  0  0  0  0  0  0  0  0  0  0  0
   -5.2759   -3.8868   -0.6311 H   0  0  0  0  0  0  0  0  0  0  0  0
   -4.0054   -2.1622   -2.4540 N   0  0  0  0  0  0  0  0  0  0  0  0
   -2.8973   -1.2461   -2.7556 C   0  0  2  0  0  0  0  0  0  0  0  0
   -2.3202   -0.5918   -1.4833 C   0  0  0  0  0  0  0  0  0  0  0  0
   -3.0527   -0.3157   -0.5373 O   0  0  0  0  0  0  0  0  0  0  0  0
   -3.4220   -0.1716   -3.7116 C   0  0  0  0  0  0  0  0  0  0  0  0
   -4.8642   -1.7518   -2.0967 H   0  0  0  0  0  0  0  0  0  0  0  0
   -2.0892   -1.7872   -3.2595 H   0  0  0  0  0  0  0  0  0  0  0  0
   -4.2260    0.4043   -3.2417 H   0  0  0  0  0  0  0  0  0  0  0  0
   -2.6196    0.5194   -3.9888 H   0  0  0  0  0  0  0  0  0  0  0  0
   -3.8110   -0.6333   -4.6247 H   0  0  0  0  0  0  0  0  0  0  0  0
   -1.0023   -0.1731   -1.4439 N   0  0  0  0  0  0  0  0  0  0  0  0
   -0.4049    0.5915   -0.3335 C   0  0  0  0  0  0  0  0  0  0  0  0
   -0.8363    2.0650   -0.3212 C   0  0  0  0  0  0  0  0  0  0  0  0
   -0.0107    2.9349   -0.5656 O   0  0  0  0  0  0  0  0  0  0  0  0
   -0.4291   -0.3705   -2.2609 H   0  0  0  0  0  0  0  0  0  0  0  0
    0.6862    0.5479   -0.4056 H   0  0  0  0  0  0  0  0  0  0  0  0
   -0.6815    0.1383    0.6238 H   0  0  0  0  0  0  0  0  0  0  0  0
   -2.1790    2.3742   -0.1993 N   0  0  0  0  0  0  0  0  0  0  0  0
   -2.8230    3.6849   -0.4052 C   0  0  2  0  0  0  0  0  0  0  0  0
   -2.7663    4.1799   -1.8678 C   0  0  0  0  0  0  0  0  0  0  0  0
   -3.8052    4.4233   -2.4679 O   0  0  0  0  0  0  0  0  0  0  0  0
   -2.2715    4.7398    0.5639 C   0  0  0  0  0  0  0  0  0  0  0  0
   -2.7910    1.5546   -0.1302 H   0  0  0  0  0  0  0  0  0  0  0  0
   -3.8836    3.5581   -0.1649 H   0  0  0  0  0  0  0  0  0  0  0  0
   -1.2406    5.0090    0.3172 H   0  0  0  0  0  0  0  0  0  0  0  0
   -2.8812    5.6472    0.5145 H   0  0  0  0  0  0  0  0  0  0  0  0
   -2.2966    4.3614    1.5902 H   0  0  0  0  0  0  0  0  0  0  0  0
   -1.5609    4.3105   -2.5283 N   0  0  0  0  0  0  0  0  0  0  0  0
   -1.4310    4.7269   -3.9174 C   0  0  0  0  0  0  0  0  0  0  0  0
   -0.7266    4.0403   -1.9999 H   0  0  0  0  0  0  0  0  0  0  0  0
   -1.9603    4.0315   -4.5769 H   0  0  0  0  0  0  0  0  0  0  0  0
   -1.8466    5.7304   -4.0556 H   0  0  0  0  0  0  0  0  0  0  0  0
   -0.3764    4.7462   -4.2085 H   0  0  0  0  0  0  0  0  0  0  0  0
  1  2  2  0  0  0  0
  1  3  1  0  0  0  0
  1  7  1  0  0  0  0
  3  4  1  0  0  0  0
  3  5  1  0  0  0  0
  3  6  1  0  0  0  0
  7  8  1  0  0  0  0
  7 12  1  0  0  0  0
  8  9  1  0  0  0  0
  8 11  1  0  0  0  0
  8 13  1  0  0  0  0
  9 10  2  0  0  0  0
  9 17  1  0  0  0  0
 11 14  1  0  0  0  0
 11 15  1  0  0  0  0
 11 16  1  0  0  0  0
 17 18  1  0  0  0  0
 17 21  1  0  0  0  0
 18 19  1  0  0  0  0
 18 22  1  0  0  0  0
 18 23  1  0  0  0  0
 19 20  2  0  0  0  0
 19 24  1  0  0  0  0
 24 25  1  0  0  0  0
 24 29  1  0  0  0  0
 25 26  1  0  0  0  0
 25 28  1  0  0  0  0
 25 30  1  0  0  0  0
 26 27  2  0  0  0  0
 26 34  1  0  0  0  0
 28 31  1  0  0  0  0
 28 32  1  0  0  0  0
 28 33  1  0  0  0  0
 34 35  1  0  0  0  0
 34 36  1  0  0  0  0
 35 37  1  0  0  0  0
 35 38  1  0  0  0  0
 35 39  1  0  0  0  0
M  END
$$$$

  -OEChem-05262216283D

 39 38  0     1  0  0  0  0  0999 V2000
   -4.3493   -2.8883   -2.6980 C   0  0  0  0  0  0  0  0  0  0  0  0
   -3.7982   -3.2754   -3.7163 O   0  0  0  0  0  0  0  0  0  0  0  0
   -5.6005   -3.5833   -2.1952 C   0  0  0  0  0  0  0  0  0  0  0  0
   -6.4333   -2.8763   -2.1653 H   0  0  0  0  0  0  0  0  0  0  0  0
   -5.8645   -4.4106   -2.8599 H   0  0  0  0  0  0  0  0  0  0  0  0
   -5.4308   -3.9788   -1.1909 H   0  0  0  0  0  0  0  0  0  0  0  0
   -3.8308   -1.8183   -2.0002 N   0  0  0  0  0  0  0  0  0  0  0  0
   -2.5929   -1.1135   -2.3567 C   0  0  2  0  0  0  0  0  0  0  0  0
   -1.8641   -0.5622   -1.1144 C   0  0  0  0  0  0  0  0  0  0  0  0
   -2.4418   -0.4859   -0.0323 O   0  0  0  0  0  0  0  0  0  0  0  0
   -2.9569    0.0310   -3.3103 C   0  0  0  0  0  0  0  0  0  0  0  0
   -4.2667   -1.5783   -1.1109 H   0  0  0  0  0  0  0  0  0  0  0  0
   -1.9055   -1.8025   -2.8600 H   0  0  0  0  0  0  0  0  0  0  0  0
   -3.6370    0.7365   -2.8205 H   0  0  0  0  0  0  0  0  0  0  0  0
   -2.0608    0.5741   -3.6248 H   0  0  0  0  0  0  0  0  0  0  0  0
   -3.4497   -0.3632   -4.2050 H   0  0  0  0  0  0  0  0  0  0  0  0
   -0.5959   -0.0184   -1.2253 N   0  0  0  0  0  0  0  0  0  0  0  0
    0.0201    0.7843   -0.1555 C   0  0  0  0  0  0  0  0  0  0  0  0
   -0.5978    2.1849   -0.1021 C   0  0  0  0  0  0  0  0  0  0  0  0
   -0.0523    3.1063   -0.6948 O   0  0  0  0  0  0  0  0  0  0  0  0
   -0.2018    0.0411   -2.1617 H   0  0  0  0  0  0  0  0  0  0  0  0
    1.0956    0.8787   -0.3341 H   0  0  0  0  0  0  0  0  0  0  0  0
   -0.1029    0.2958    0.8165 H   0  0  0  0  0  0  0  0  0  0  0  0
   -1.8644    2.3209    0.4378 N   0  0  0  0  0  0  0  0  0  0  0  0
   -2.7765    3.4681    0.2690 C   0  0  2  0  0  0  0  0  0  0  0  0
   -3.2629    3.6607   -1.1857 C   0  0  0  0  0  0  0  0  0  0  0  0
   -4.4616    3.6631   -1.4315 O   0  0  0  0  0  0  0  0  0  0  0  0
   -2.1697    4.7617    0.8299 C   0  0  0  0  0  0  0  0  0  0  0  0
   -2.2992    1.4245    0.6777 H   0  0  0  0  0  0  0  0  0  0  0  0
   -3.6689    3.2534    0.8662 H   0  0  0  0  0  0  0  0  0  0  0  0
   -1.3379    5.1137    0.2132 H   0  0  0  0  0  0  0  0  0  0  0  0
   -2.9289    5.5494    0.8561 H   0  0  0  0  0  0  0  0  0  0  0  0
   -1.8045    4.5983    1.8483 H   0  0  0  0  0  0  0  0  0  0  0  0
   -2.3634    3.7855   -2.2263 N   0  0  0  0  0  0  0  0  0  0  0  0
   -2.7436    3.9859   -3.6175 C   0  0  0  0  0  0  0  0  0  0  0  0
   -1.3728    3.7790   -1.9679 H   0  0  0  0  0  0  0  0  0  0  0  0
   -3.4068    3.1827   -3.9550 H   0  0  0  0  0  0  0  0  0  0  0  0
   -3.2605    4.9435   -3.7374 H   0  0  0  0  0  0  0  0  0  0  0  0
   -1.8539    3.9893   -4.2545 H   0  0  0  0  0  0  0  0  0  0  0  0
  1  2  2  0  0  0  0
  1  3  1  0  0  0  0
  1  7  1  0  0  0  0
  3  4  1  0  0  0  0
  3  5  1  0  0  0  0
  3  6  1  0  0  0  0
  7  8  1  0  0  0  0
  7 12  1  0  0  0  0
  8  9  1  0  0  0  0
  8 11  1  0  0  0  0
  8 13  1  0  0  0  0
  9 10  2  0  0  0  0
  9 17  1  0  0  0  0
 11 14  1  0  0  0  0
 11 15  1  0  0  0  0
 11 16  1  0  0  0  0
 17 18  1  0  0  0  0
 17 21  1  0  0  0  0
 18 19  1  0  0  0  0
 18 22  1  0  0  0  0
 18 23  1  0  0  0  0
 19 20  2  0  0  0  0
 19 24  1  0  0  0  0
 24 25  1  0  0  0  0
 24 29  1  0  0  0  0
 25 26  1  0  0  0  0
 25 28  1  0  0  0  0
 25 30  1  0  0  0  0
 26 27  2  0  0  0  0
 26 34  1  0  0  0  0
 28 31  1  0  0  0  0
 28 32  1  0  0  0  0
 28 33  1  0  0  0  0
 34 35  1  0  0  0  0
 34 36  1  0  0  0  0
 35 37  1  0  0  0  0
 35 38  1  0  0  0  0
 35 39  1  0  0  0  0
M  END
$$$$

  -OEChem-05262216283D

 39 38  0     1  0  0  0  0  0999 V2000
   -4.6950   -1.4153   -2.4459 C   0  0  0  0  0  0  0  0  0  0  0  0
   -4.5654   -2.3602   -3.2095 O   0  0  0  0  0  0  0  0  0  0  0  0
   -6.0721   -1.0112   -1.9555 C   0  0  0  0  0  0  0  0  0  0  0  0
   -6.3083   -0.0018   -2.3009 H   0  0  0  0  0  0  0  0  0  0  0  0
   -6.8282   -1.7035   -2.3353 H   0  0  0  0  0  0  0  0  0  0  0  0
   -6.0962   -1.0252   -0.8629 H   0  0  0  0  0  0  0  0  0  0  0  0
   -3.5906   -0.7024   -2.0338 N   0  0  0  0  0  0  0  0  0  0  0  0
   -2.1996   -1.0978   -2.3063 C   0  0  2  0  0  0  0  0  0  0  0  0
   -1.2475   -0.6145   -1.1883 C   0  0  0  0  0  0  0  0  0  0  0  0
   -1.5391   -0.8098   -0.0124 O   0  0  0  0  0  0  0  0  0  0  0  0
   -1.8083   -0.5675   -3.6937 C   0  0  0  0  0  0  0  0  0  0  0  0
   -3.7685    0.0164   -1.3246 H   0  0  0  0  0  0  0  0  0  0  0  0
   -2.1285   -2.1911   -2.3210 H   0  0  0  0  0  0  0  0  0  0  0  0
   -1.8499    0.5257   -3.7176 H   0  0  0  0  0  0  0  0  0  0  0  0
   -0.7963   -0.8905   -3.9567 H   0  0  0  0  0  0  0  0  0  0  0  0
   -2.4950   -0.9549   -4.4532 H   0  0  0  0  0  0  0  0  0  0  0  0
   -0.1805    0.2327   -1.4511 N   0  0  0  0  0  0  0  0  0  0  0  0
    0.4099    1.0537   -0.3822 C   0  0  0  0  0  0  0  0  0  0  0  0
   -0.5318    2.2203   -0.0742 C   0  0  0  0  0  0  0  0  0  0  0  0
   -0.5463    3.1996   -0.8101 O   0  0  0  0  0  0  0  0  0  0  0  0
   -0.1010    0.5677   -2.4083 H   0  0  0  0  0  0  0  0  0  0  0  0
    1.3763    1.4516   -0.7054 H   0  0  0  0  0  0  0  0  0  0  0  0
    0.5912    0.4635    0.5218 H   0  0  0  0  0  0  0  0  0  0  0  0
   -1.5008    2.0233    0.8939 N   0  0  0  0  0  0  0  0  0  0  0  0
   -2.7936    2.7290    0.9260 C   0  0  2  0  0  0  0  0  0  0  0  0
   -3.6120    2.5095   -0.3689 C   0  0  0  0  0  0  0  0  0  0  0  0
   -4.4362    1.6032   -0.4240 O   0  0  0  0  0  0  0  0  0  0  0  0
   -2.6189    4.2166    1.2697 C   0  0  0  0  0  0  0  0  0  0  0  0
   -1.5298    1.0526    1.2172 H   0  0  0  0  0  0  0  0  0  0  0  0
   -3.3827    2.2880    1.7369 H   0  0  0  0  0  0  0  0  0  0  0  0
   -2.0916    4.7563    0.4786 H   0  0  0  0  0  0  0  0  0  0  0  0
   -3.5974    4.6864    1.4086 H   0  0  0  0  0  0  0  0  0  0  0  0
   -2.0494    4.3233    2.1979 H   0  0  0  0  0  0  0  0  0  0  0  0
   -3.3279    3.2180   -1.5198 N   0  0  0  0  0  0  0  0  0  0  0  0
   -3.9590    2.9563   -2.8072 C   0  0  0  0  0  0  0  0  0  0  0  0
   -2.4392    3.7250   -1.5039 H   0  0  0  0  0  0  0  0  0  0  0  0
   -3.7493    1.9359   -3.1418 H   0  0  0  0  0  0  0  0  0  0  0  0
   -5.0439    3.0868   -2.7344 H   0  0  0  0  0  0  0  0  0  0  0  0
   -3.5790    3.6532   -3.5606 H   0  0  0  0  0  0  0  0  0  0  0  0
  1  2  2  0  0  0  0
  1  3  1  0  0  0  0
  1  7  1  0  0  0  0
  3  4  1  0  0  0  0
  3  5  1  0  0  0  0
  3  6  1  0  0  0  0
  7  8  1  0  0  0  0
  7 12  1  0  0  0  0
  8  9  1  0  0  0  0
  8 11  1  0  0  0  0
  8 13  1  0  0  0  0
  9 10  2  0  0  0  0
  9 17  1  0  0  0  0
 11 14  1  0  0  0  0
 11 15  1  0  0  0  0
 11 16  1  0  0  0  0
 17 18  1  0  0  0  0
 17 21  1  0  0  0  0
 18 19  1  0  0  0  0
 18 22  1  0  0  0  0
 18 23  1  0  0  0  0
 19 20  2  0  0  0  0
 19 24  1  0  0  0  0
 24 25  1  0  0  0  0
 24 29  1  0  0  0  0
 25 26  1  0  0  0  0
 25 28  1  0  0  0  0
 25 30  1  0  0  0  0
 26 27  2  0  0  0  0
 26 34  1  0  0  0  0
 28 31  1  0  0  0  0
 28 32  1  0  0  0  0
 28 33  1  0  0  0  0
 34 35  1  0  0  0  0
 34 36  1  0  0  0  0
 35 37  1  0  0  0  0
 35 38  1  0  0  0  0
 35 39  1  0  0  0  0
M  END
$$$$

  -OEChem-05262216283D

 39 38  0     1  0  0  0  0  0999 V2000
   -3.5860   -3.3828   -3.1869 C   0  0  0  0  0  0  0  0  0  0  0  0
   -2.6481   -4.0691   -3.5607 O   0  0  0  0  0  0  0  0  0  0  0  0
   -5.0108   -3.8126   -3.4833 C   0  0  0  0  0  0  0  0  0  0  0  0
   -5.5305   -3.0275   -4.0379 H   0  0  0  0  0  0  0  0  0  0  0  0
   -5.0117   -4.7266   -4.0839 H   0  0  0  0  0  0  0  0  0  0  0  0
   -5.5448   -4.0038   -2.5492 H   0  0  0  0  0  0  0  0  0  0  0  0
   -3.3504   -2.2193   -2.4858 N   0  0  0  0  0  0  0  0  0  0  0  0
   -2.0254   -1.7791   -2.0307 C   0  0  2  0  0  0  0  0  0  0  0  0
   -2.1172   -0.9560   -0.7298 C   0  0  0  0  0  0  0  0  0  0  0  0
   -3.1973   -0.5101   -0.3540 O   0  0  0  0  0  0  0  0  0  0  0  0
   -1.3837   -0.9436   -3.1437 C   0  0  0  0  0  0  0  0  0  0  0  0
   -4.1565   -1.7344   -2.0927 H   0  0  0  0  0  0  0  0  0  0  0  0
   -1.3974   -2.6523   -1.8226 H   0  0  0  0  0  0  0  0  0  0  0  0
   -1.9930   -0.0597   -3.3584 H   0  0  0  0  0  0  0  0  0  0  0  0
   -0.3828   -0.6131   -2.8499 H   0  0  0  0  0  0  0  0  0  0  0  0
   -1.2945   -1.5359   -4.0600 H   0  0  0  0  0  0  0  0  0  0  0  0
   -0.9797   -0.6633    0.0005 N   0  0  0  0  0  0  0  0  0  0  0  0
   -0.9774    0.3691    1.0472 C   0  0  0  0  0  0  0  0  0  0  0  0
   -0.9763    1.7785    0.4448 C   0  0  0  0  0  0  0  0  0  0  0  0
    0.0360    2.1988   -0.1003 O   0  0  0  0  0  0  0  0  0  0  0  0
   -0.0916   -0.8842   -0.4441 H   0  0  0  0  0  0  0  0  0  0  0  0
   -0.0873    0.2583    1.6728 H   0  0  0  0  0  0  0  0  0  0  0  0
   -1.8461    0.2527    1.7033 H   0  0  0  0  0  0  0  0  0  0  0  0
   -2.1220    2.5469    0.4518 N   0  0  0  0  0  0  0  0  0  0  0  0
   -2.2458    3.8744   -0.1612 C   0  0  2  0  0  0  0  0  0  0  0  0
   -3.3285    4.7333    0.5261 C   0  0  0  0  0  0  0  0  0  0  0  0
   -4.1642    4.2138    1.2572 O   0  0  0  0  0  0  0  0  0  0  0  0
   -2.5734    3.6872   -1.6464 C   0  0  0  0  0  0  0  0  0  0  0  0
   -2.9675    2.1296    0.8432 H   0  0  0  0  0  0  0  0  0  0  0  0
   -1.2955    4.4101   -0.0661 H   0  0  0  0  0  0  0  0  0  0  0  0
   -3.5215    3.1523   -1.7643 H   0  0  0  0  0  0  0  0  0  0  0  0
   -2.6548    4.6561   -2.1479 H   0  0  0  0  0  0  0  0  0  0  0  0
   -1.7848    3.1097   -2.1393 H   0  0  0  0  0  0  0  0  0  0  0  0
   -3.3654    6.1013    0.3254 N   0  0  0  0  0  0  0  0  0  0  0  0
   -4.3473    6.9759    0.9558 C   0  0  0  0  0  0  0  0  0  0  0  0
   -2.6511    6.5101   -0.2699 H   0  0  0  0  0  0  0  0  0  0  0  0
   -5.3618    6.6909    0.6573 H   0  0  0  0  0  0  0  0  0  0  0  0
   -4.2705    6.9147    2.0466 H   0  0  0  0  0  0  0  0  0  0  0  0
   -4.1784    8.0145    0.6552 H   0  0  0  0  0  0  0  0  0  0  0  0
  1  2  2  0  0  0  0
  1  3  1  0  0  0  0
  1  7  1  0  0  0  0
  3  4  1  0  0  0  0
  3  5  1  0  0  0  0
  3  6  1  0  0  0  0
  7  8  1  0  0  0  0
  7 12  1  0  0  0  0
  8  9  1  0  0  0  0
  8 11  1  0  0  0  0
  8 13  1  0  0  0  0
  9 10  2  0  0  0  0
  9 17  1  0  0  0  0
 11 14  1  0  0  0  0
 11 15  1  0  0  0  0
 11 16  1  0  0  0  0
 17 18  1  0  0  0  0
 17 21  1  0  0  0  0
 18 19  1  0  0  0  0
 18 22  1  0  0  0  0
 18 23  1  0  0  0  0
 19 20  2  0  0  0  0
 19 24  1  0  0  0  0
 24 25  1  0  0  0  0
 24 29  1  0  0  0  0
 25 26  1  0  0  0  0
 25 28  1  0  0  0  0
 25 30  1  0  0  0  0
 26 27  2  0  0  0  0
 26 34  1  0  0  0  0
 28 31  1  0  0  0  0
 28 32  1  0  0  0  0
 28 33  1  0  0  0  0
 34 35  1  0  0  0  0
 34 36  1  0  0  0  0
 35 37  1  0  0  0  0
 35 38  1  0  0  0  0
 35 39  1  0  0  0  0
M  END
$$$$

  -OEChem-05262216283D

 39 38  0     1  0  0  0  0  0999 V2000
   -3.5656   -3.4822   -3.2493 C   0  0  0  0  0  0  0  0  0  0  0  0
   -2.6055   -4.1659   -3.5672 O   0  0  0  0  0  0  0  0  0  0  0  0
   -4.9749   -3.9852   -3.4991 C   0  0  0  0  0  0  0  0  0  0  0  0
   -5.5021   -3.2999   -4.1672 H   0  0  0  0  0  0  0  0  0  0  0  0
   -4.9459   -4.9760   -3.9612 H   0  0  0  0  0  0  0  0  0  0  0  0
   -5.5194   -4.0538   -2.5542 H   0  0  0  0  0  0  0  0  0  0  0  0
   -3.3729   -2.2574   -2.6460 N   0  0  0  0  0  0  0  0  0  0  0  0
   -2.0709   -1.7596   -2.1831 C   0  0  2  0  0  0  0  0  0  0  0  0
   -2.2033   -0.9728   -0.8632 C   0  0  0  0  0  0  0  0  0  0  0  0
   -3.2968   -0.5462   -0.5043 O   0  0  0  0  0  0  0  0  0  0  0  0
   -1.4762   -0.8704   -3.2790 C   0  0  0  0  0  0  0  0  0  0  0  0
   -4.1982   -1.7831   -2.2813 H   0  0  0  0  0  0  0  0  0  0  0  0
   -1.3949   -2.6005   -1.9945 H   0  0  0  0  0  0  0  0  0  0  0  0
   -2.1345   -0.0193   -3.4818 H   0  0  0  0  0  0  0  0  0  0  0  0
   -0.4969   -0.4873   -2.9754 H   0  0  0  0  0  0  0  0  0  0  0  0
   -1.3510   -1.4432   -4.2036 H   0  0  0  0  0  0  0  0  0  0  0  0
   -1.0913   -0.7205   -0.0807 N   0  0  0  0  0  0  0  0  0  0  0  0
   -1.1158    0.2743    1.0020 C   0  0  0  0  0  0  0  0  0  0  0  0
   -1.0751    1.7102    0.4642 C   0  0  0  0  0  0  0  0  0  0  0  0
   -0.1284    2.0645   -0.2275 O   0  0  0  0  0  0  0  0  0  0  0  0
   -0.1915   -0.9182   -0.5123 H   0  0  0  0  0  0  0  0  0  0  0  0
   -0.2521    0.1261    1.6559 H   0  0  0  0  0  0  0  0  0  0  0  0
   -2.0102    0.1412    1.6187 H   0  0  0  0  0  0  0  0  0  0  0  0
   -2.0966    2.5988    0.7313 N   0  0  0  0  0  0  0  0  0  0  0  0
   -2.1354    3.9951    0.2797 C   0  0  2  0  0  0  0  0  0  0  0  0
   -2.9949    4.8749    1.2127 C   0  0  0  0  0  0  0  0  0  0  0  0
   -3.7471    4.3591    2.0324 O   0  0  0  0  0  0  0  0  0  0  0  0
   -2.6873    4.0293   -1.1496 C   0  0  0  0  0  0  0  0  0  0  0  0
   -2.8827    2.2677    1.2911 H   0  0  0  0  0  0  0  0  0  0  0  0
   -1.1208    4.4074    0.2850 H   0  0  0  0  0  0  0  0  0  0  0  0
   -3.7053    3.6271   -1.1760 H   0  0  0  0  0  0  0  0  0  0  0  0
   -2.7067    5.0546   -1.5307 H   0  0  0  0  0  0  0  0  0  0  0  0
   -2.0588    3.4283   -1.8142 H   0  0  0  0  0  0  0  0  0  0  0  0
   -2.9152    6.2539    1.1443 N   0  0  0  0  0  0  0  0  0  0  0  0
   -3.6827    7.1423    2.0089 C   0  0  0  0  0  0  0  0  0  0  0  0
   -2.2703    6.6567    0.4706 H   0  0  0  0  0  0  0  0  0  0  0  0
   -4.7566    6.9815    1.8664 H   0  0  0  0  0  0  0  0  0  0  0  0
   -3.4356    6.9609    3.0603 H   0  0  0  0  0  0  0  0  0  0  0  0
   -3.4553    8.1870    1.7756 H   0  0  0  0  0  0  0  0  0  0  0  0
  1  2  2  0  0  0  0
  1  3  1  0  0  0  0
  1  7  1  0  0  0  0
  3  4  1  0  0  0  0
  3  5  1  0  0  0  0
  3  6  1  0  0  0  0
  7  8  1  0  0  0  0
  7 12  1  0  0  0  0
  8  9  1  0  0  0  0
  8 11  1  0  0  0  0
  8 13  1  0  0  0  0
  9 10  2  0  0  0  0
  9 17  1  0  0  0  0
 11 14  1  0  0  0  0
 11 15  1  0  0  0  0
 11 16  1  0  0  0  0
 17 18  1  0  0  0  0
 17 21  1  0  0  0  0
 18 19  1  0  0  0  0
 18 22  1  0  0  0  0
 18 23  1  0  0  0  0
 19 20  2  0  0  0  0
 19 24  1  0  0  0  0
 24 25  1  0  0  0  0
 24 29  1  0  0  0  0
 25 26  1  0  0  0  0
 25 28  1  0  0  0  0
 25 30  1  0  0  0  0
 26 27  2  0  0  0  0
 26 34  1  0  0  0  0
 28 31  1  0  0  0  0
 28 32  1  0  0  0  0
 28 33  1  0  0  0  0
 34 35  1  0  0  0  0
 34 36  1  0  0  0  0
 35 37  1  0  0  0  0
 35 38  1  0  0  0  0
 35 39  1  0  0  0  0
M  END
$$$$

  -OEChem-05262216283D

 39 38  0     1  0  0  0  0  0999 V2000
   -3.5409   -3.4953   -3.3203 C   0  0  0  0  0  0  0  0  0  0  0  0
   -2.5624   -4.1725   -3.5925 O   0  0  0  0  0  0  0  0  0  0  0  0
   -4.9331   -4.0124   -3.6292 C   0  0  0  0  0  0  0  0  0  0  0  0
   -5.4396   -3.3305   -4.3163 H   0  0  0  0  0  0  0  0  0  0  0  0
   -4.8741   -5.0009   -4.0930 H   0  0  0  0  0  0  0  0  0  0  0  0
   -5.5156   -4.0902   -2.7082 H   0  0  0  0  0  0  0  0  0  0  0  0
   -3.3861   -2.2615   -2.7247 N   0  0  0  0  0  0  0  0  0  0  0  0
   -2.1072   -1.7344   -2.2303 C   0  0  2  0  0  0  0  0  0  0  0  0
   -2.2765   -1.0001   -0.8847 C   0  0  0  0  0  0  0  0  0  0  0  0
   -3.3832   -0.6041   -0.5315 O   0  0  0  0  0  0  0  0  0  0  0  0
   -1.5422   -0.7848   -3.2903 C   0  0  0  0  0  0  0  0  0  0  0  0
   -4.2301   -1.7969   -2.3924 H   0  0  0  0  0  0  0  0  0  0  0  0
   -1.3994   -2.5542   -2.0668 H   0  0  0  0  0  0  0  0  0  0  0  0
   -2.2355    0.0431   -3.4713 H   0  0  0  0  0  0  0  0  0  0  0  0
   -0.5834   -0.3695   -2.9646 H   0  0  0  0  0  0  0  0  0  0  0  0
   -1.3847   -1.3206   -4.2318 H   0  0  0  0  0  0  0  0  0  0  0  0
   -1.1809   -0.7592   -0.0758 N   0  0  0  0  0  0  0  0  0  0  0  0
   -1.2300    0.2259    1.0157 C   0  0  0  0  0  0  0  0  0  0  0  0
   -1.1752    1.6708    0.4998 C   0  0  0  0  0  0  0  0  0  0  0  0
   -0.3574    1.9741   -0.3611 O   0  0  0  0  0  0  0  0  0  0  0  0
   -0.2756   -0.9193   -0.5112 H   0  0  0  0  0  0  0  0  0  0  0  0
   -0.3842    0.0690    1.6906 H   0  0  0  0  0  0  0  0  0  0  0  0
   -2.1413    0.0866    1.6055 H   0  0  0  0  0  0  0  0  0  0  0  0
   -2.0275    2.6352    0.9984 N   0  0  0  0  0  0  0  0  0  0  0  0
   -1.9985    4.0540    0.6235 C   0  0  2  0  0  0  0  0  0  0  0  0
   -2.5019    4.9567    1.7697 C   0  0  0  0  0  0  0  0  0  0  0  0
   -3.0920    4.4677    2.7271 O   0  0  0  0  0  0  0  0  0  0  0  0
   -2.8607    4.2394   -0.6290 C   0  0  0  0  0  0  0  0  0  0  0  0
   -2.6751    2.3650    1.7385 H   0  0  0  0  0  0  0  0  0  0  0  0
   -0.9691    4.3535    0.4002 H   0  0  0  0  0  0  0  0  0  0  0  0
   -3.8970    3.9497   -0.4267 H   0  0  0  0  0  0  0  0  0  0  0  0
   -2.8466    5.2837   -0.9551 H   0  0  0  0  0  0  0  0  0  0  0  0
   -2.4795    3.6181   -1.4457 H   0  0  0  0  0  0  0  0  0  0  0  0
   -2.2742    6.3204    1.7394 N   0  0  0  0  0  0  0  0  0  0  0  0
   -2.6867    7.2233    2.8071 C   0  0  0  0  0  0  0  0  0  0  0  0
   -1.7599    6.6954    0.9476 H   0  0  0  0  0  0  0  0  0  0  0  0
   -3.7708    7.1737    2.9534 H   0  0  0  0  0  0  0  0  0  0  0  0
   -2.1918    6.9561    3.7466 H   0  0  0  0  0  0  0  0  0  0  0  0
   -2.4192    8.2541    2.5563 H   0  0  0  0  0  0  0  0  0  0  0  0
  1  2  2  0  0  0  0
  1  3  1  0  0  0  0
  1  7  1  0  0  0  0
  3  4  1  0  0  0  0
  3  5  1  0  0  0  0
  3  6  1  0  0  0  0
  7  8  1  0  0  0  0
  7 12  1  0  0  0  0
  8  9  1  0  0  0  0
  8 11  1  0  0  0  0
  8 13  1  0  0  0  0
  9 10  2  0  0  0  0
  9 17  1  0  0  0  0
 11 14  1  0  0  0  0
 11 15  1  0  0  0  0
 11 16  1  0  0  0  0
 17 18  1  0  0  0  0
 17 21  1  0  0  0  0
 18 19  1  0  0  0  0
 18 22  1  0  0  0  0
 18 23  1  0  0  0  0
 19 20  2  0  0  0  0
 19 24  1  0  0  0  0
 24 25  1  0  0  0  0
 24 29  1  0  0  0  0
 25 26  1  0  0  0  0
 25 28  1  0  0  0  0
 25 30  1  0  0  0  0
 26 27  2  0  0  0  0
 26 34  1  0  0  0  0
 28 31  1  0  0  0  0
 28 32  1  0  0  0  0
 28 33  1  0  0  0  0
 34 35  1  0  0  0  0
 34 36  1  0  0  0  0
 35 37  1  0  0  0  0
 35 38  1  0  0  0  0
 35 39  1  0  0  0  0
M  END
$$$$

  -OEChem-05262216283D

 39 38  0     1  0  0  0  0  0999 V2000
   -3.5665   -3.4582   -3.2981 C   0  0  0  0  0  0  0  0  0  0  0  0
   -2.6171   -4.2180   -3.4054 O   0  0  0  0  0  0  0  0  0  0  0  0
   -4.9687   -3.9508   -3.6016 C   0  0  0  0  0  0  0  0  0  0  0  0
   -5.4059   -3.3584   -4.4087 H   0  0  0  0  0  0  0  0  0  0  0  0
   -4.9420   -4.9999   -3.9087 H   0  0  0  0  0  0  0  0  0  0  0  0
   -5.5959   -3.8608   -2.7114 H   0  0  0  0  0  0  0  0  0  0  0  0
   -3.3771   -2.1566   -2.8842 N   0  0  0  0  0  0  0  0  0  0  0  0
   -2.1218   -1.6494   -2.3125 C   0  0  2  0  0  0  0  0  0  0  0  0
   -2.3488   -1.0126   -0.9264 C   0  0  0  0  0  0  0  0  0  0  0  0
   -3.4682   -0.6298   -0.5987 O   0  0  0  0  0  0  0  0  0  0  0  0
   -1.5441   -0.6155   -3.2821 C   0  0  0  0  0  0  0  0  0  0  0  0
   -4.2190   -1.6344   -2.6469 H   0  0  0  0  0  0  0  0  0  0  0  0
   -1.3983   -2.4614   -2.1855 H   0  0  0  0  0  0  0  0  0  0  0  0
   -2.2429    0.2166   -3.4163 H   0  0  0  0  0  0  0  0  0  0  0  0
   -0.5994   -0.2153   -2.9004 H   0  0  0  0  0  0  0  0  0  0  0  0
   -1.3561   -1.0753   -4.2573 H   0  0  0  0  0  0  0  0  0  0  0  0
   -1.2845   -0.8171   -0.0651 N   0  0  0  0  0  0  0  0  0  0  0  0
   -1.3642    0.1587    1.0337 C   0  0  0  0  0  0  0  0  0  0  0  0
   -1.2449    1.6097    0.5424 C   0  0  0  0  0  0  0  0  0  0  0  0
   -0.5525    1.8704   -0.4355 O   0  0  0  0  0  0  0  0  0  0  0  0
   -0.3675   -0.9600   -0.4815 H   0  0  0  0  0  0  0  0  0  0  0  0
   -0.5609   -0.0309    1.7505 H   0  0  0  0  0  0  0  0  0  0  0  0
   -2.3102    0.0410    1.5720 H   0  0  0  0  0  0  0  0  0  0  0  0
   -1.8741    2.6336    1.2212 N   0  0  0  0  0  0  0  0  0  0  0  0
   -1.7280    4.0601    0.9077 C   0  0  2  0  0  0  0  0  0  0  0  0
   -1.8956    4.9367    2.1670 C   0  0  0  0  0  0  0  0  0  0  0  0
   -2.3250    4.4481    3.2068 O   0  0  0  0  0  0  0  0  0  0  0  0
   -2.7687    4.4295   -0.1541 C   0  0  0  0  0  0  0  0  0  0  0  0
   -2.3768    2.3996    2.0770 H   0  0  0  0  0  0  0  0  0  0  0  0
   -0.7249    4.2488    0.5107 H   0  0  0  0  0  0  0  0  0  0  0  0
   -3.7807    4.2519    0.2241 H   0  0  0  0  0  0  0  0  0  0  0  0
   -2.6793    5.4839   -0.4313 H   0  0  0  0  0  0  0  0  0  0  0  0
   -2.6228    3.8242   -1.0545 H   0  0  0  0  0  0  0  0  0  0  0  0
   -1.5448    6.2740    2.1423 N   0  0  0  0  0  0  0  0  0  0  0  0
   -1.6479    7.1503    3.3030 C   0  0  0  0  0  0  0  0  0  0  0  0
   -1.1732    6.6479    1.2740 H   0  0  0  0  0  0  0  0  0  0  0  0
   -2.6800    7.1846    3.6678 H   0  0  0  0  0  0  0  0  0  0  0  0
   -1.0007    6.7934    4.1111 H   0  0  0  0  0  0  0  0  0  0  0  0
   -1.3414    8.1669    3.0382 H   0  0  0  0  0  0  0  0  0  0  0  0
  1  2  2  0  0  0  0
  1  3  1  0  0  0  0
  1  7  1  0  0  0  0
  3  4  1  0  0  0  0
  3  5  1  0  0  0  0
  3  6  1  0  0  0  0
  7  8  1  0  0  0  0
  7 12  1  0  0  0  0
  8  9  1  0  0  0  0
  8 11  1  0  0  0  0
  8 13  1  0  0  0  0
  9 10  2  0  0  0  0
  9 17  1  0  0  0  0
 11 14  1  0  0  0  0
 11 15  1  0  0  0  0
 11 16  1  0  0  0  0
 17 18  1  0  0  0  0
 17 21  1  0  0  0  0
 18 19  1  0  0  0  0
 18 22  1  0  0  0  0
 18 23  1  0  0  0  0
 19 20  2  0  0  0  0
 19 24  1  0  0  0  0
 24 25  1  0  0  0  0
 24 29  1  0  0  0  0
 25 26  1  0  0  0  0
 25 28  1  0  0  0  0
 25 30  1  0  0  0  0
 26 27  2  0  0  0  0
 26 34  1  0  0  0  0
 28 31  1  0  0  0  0
 28 32  1  0  0  0  0
 28 33  1  0  0  0  0
 34 35  1  0  0  0  0
 34 36  1  0  0  0  0
 35 37  1  0  0  0  0
 35 38  1  0  0  0  0
 35 39  1  0  0  0  0
M  END
$$$$

  -OEChem-05262216283D

 39 38  0     1  0  0  0  0  0999 V2000
   -3.6259   -3.4205   -3.2349 C   0  0  0  0  0  0  0  0  0  0  0  0
   -2.7129   -4.2307   -3.2134 O   0  0  0  0  0  0  0  0  0  0  0  0
   -5.0343   -3.8758   -3.5660 C   0  0  0  0  0  0  0  0  0  0  0  0
   -5.3985   -3.3483   -4.4509 H   0  0  0  0  0  0  0  0  0  0  0  0
   -5.0461   -4.9508   -3.7657 H   0  0  0  0  0  0  0  0  0  0  0  0
   -5.6999   -3.6668   -2.7249 H   0  0  0  0  0  0  0  0  0  0  0  0
   -3.3936   -2.0933   -2.9407 N   0  0  0  0  0  0  0  0  0  0  0  0
   -2.1475   -1.5933   -2.3417 C   0  0  2  0  0  0  0  0  0  0  0  0
   -2.3903   -0.9886   -0.9439 C   0  0  0  0  0  0  0  0  0  0  0  0
   -3.5099   -0.5970   -0.6272 O   0  0  0  0  0  0  0  0  0  0  0  0
   -1.5659   -0.5343   -3.2815 C   0  0  0  0  0  0  0  0  0  0  0  0
   -4.2227   -1.5228   -2.7859 H   0  0  0  0  0  0  0  0  0  0  0  0
   -1.4184   -2.4022   -2.2292 H   0  0  0  0  0  0  0  0  0  0  0  0
   -2.2611    0.3041   -3.3928 H   0  0  0  0  0  0  0  0  0  0  0  0
   -0.6204   -0.1480   -2.8879 H   0  0  0  0  0  0  0  0  0  0  0  0
   -1.3783   -0.9672   -4.2688 H   0  0  0  0  0  0  0  0  0  0  0  0
   -1.3361   -0.8238   -0.0630 N   0  0  0  0  0  0  0  0  0  0  0  0
   -1.4163    0.1537    1.0347 C   0  0  0  0  0  0  0  0  0  0  0  0
   -1.2527    1.6066    0.5576 C   0  0  0  0  0  0  0  0  0  0  0  0
   -0.7146    1.8506   -0.5174 O   0  0  0  0  0  0  0  0  0  0  0  0
   -0.4176   -0.9750   -0.4719 H   0  0  0  0  0  0  0  0  0  0  0  0
   -0.6322   -0.0578    1.7669 H   0  0  0  0  0  0  0  0  0  0  0  0
   -2.3758    0.0569    1.5529 H   0  0  0  0  0  0  0  0  0  0  0  0
   -1.6053    2.6527    1.3865 N   0  0  0  0  0  0  0  0  0  0  0  0
   -1.3561    4.0712    1.1026 C   0  0  2  0  0  0  0  0  0  0  0  0
   -1.2369    4.8905    2.4056 C   0  0  0  0  0  0  0  0  0  0  0  0
   -1.5475    4.3865    3.4800 O   0  0  0  0  0  0  0  0  0  0  0  0
   -2.5008    4.6010    0.2319 C   0  0  0  0  0  0  0  0  0  0  0  0
   -1.9520    2.4274    2.3188 H   0  0  0  0  0  0  0  0  0  0  0  0
   -0.4104    4.1767    0.5605 H   0  0  0  0  0  0  0  0  0  0  0  0
   -3.4557    4.5101    0.7596 H   0  0  0  0  0  0  0  0  0  0  0  0
   -2.3396    5.6534   -0.0200 H   0  0  0  0  0  0  0  0  0  0  0  0
   -2.5640    4.0312   -0.7007 H   0  0  0  0  0  0  0  0  0  0  0  0
   -0.7629    6.1893    2.3790 N   0  0  0  0  0  0  0  0  0  0  0  0
   -0.6239    7.0144    3.5729 C   0  0  0  0  0  0  0  0  0  0  0  0
   -0.5085    6.5807    1.4767 H   0  0  0  0  0  0  0  0  0  0  0  0
   -1.5984    7.1657    4.0490 H   0  0  0  0  0  0  0  0  0  0  0  0
    0.0500    6.5384    4.2931 H   0  0  0  0  0  0  0  0  0  0  0  0
   -0.2114    7.9930    3.3101 H   0  0  0  0  0  0  0  0  0  0  0  0
  1  2  2  0  0  0  0
  1  3  1  0  0  0  0
  1  7  1  0  0  0  0
  3  4  1  0  0  0  0
  3  5  1  0  0  0  0
  3  6  1  0  0  0  0
  7  8  1  0  0  0  0
  7 12  1  0  0  0  0
  8  9  1  0  0  0  0
  8 11  1  0  0  0  0
  8 13  1  0  0  0  0
  9 10  2  0  0  0  0
  9 17  1  0  0  0  0
 11 14  1  0  0  0  0
 11 15  1  0  0  0  0
 11 16  1  0  0  0  0
 17 18  1  0  0  0  0
 17 21  1  0  0  0  0
 18 19  1  0  0  0  0
 18 22  1  0  0  0  0
 18 23  1  0  0  0  0
 19 20  2  0  0  0  0
 19 24  1  0  0  0  0
 24 25  1  0  0  0  0
 24 29  1  0  0  0  0
 25 26  1  0  0  0  0
 25 28  1  0  0  0  0
 25 30  1  0  0  0  0
 26 27  2  0  0  0  0
 26 34  1  0  0  0  0
 28 31  1  0  0  0  0
 28 32  1  0  0  0  0
 28 33  1  0  0  0  0
 34 35  1  0  0  0  0
 34 36  1  0  0  0  0
 35 37  1  0  0  0  0
 35 38  1  0  0  0  0
 35 39  1  0  0  0  0
M  END
$$$$

  -OEChem-05262216283D

 39 38  0     1  0  0  0  0  0999 V2000
   -3.6024   -3.3146   -3.3321 C   0  0  0  0  0  0  0  0  0  0  0  0
   -2.6836   -4.1176   -3.2854 O   0  0  0  0  0  0  0  0  0  0  0  0
   -4.9957   -3.7780   -3.7133 C   0  0  0  0  0  0  0  0  0  0  0  0
   -5.3023   -3.3052   -4.6493 H   0  0  0  0  0  0  0  0  0  0  0  0
   -5.0093   -4.8634   -3.8445 H   0  0  0  0  0  0  0  0  0  0  0  0
   -5.7068   -3.5098   -2.9280 H   0  0  0  0  0  0  0  0  0  0  0  0
   -3.3895   -1.9857   -3.0315 N   0  0  0  0  0  0  0  0  0  0  0  0
   -2.1687   -1.4820   -2.3865 C   0  0  2  0  0  0  0  0  0  0  0  0
   -2.4418   -1.0159   -0.9418 C   0  0  0  0  0  0  0  0  0  0  0  0
   -3.5785   -0.7056   -0.5962 O   0  0  0  0  0  0  0  0  0  0  0  0
   -1.6464   -0.3157   -3.2274 C   0  0  0  0  0  0  0  0  0  0  0  0
   -4.2295   -1.4295   -2.8842 H   0  0  0  0  0  0  0  0  0  0  0  0
   -1.3979   -2.2588   -2.3481 H   0  0  0  0  0  0  0  0  0  0  0  0
   -2.3878    0.4891   -3.2685 H   0  0  0  0  0  0  0  0  0  0  0  0
   -0.7252    0.0870   -2.7949 H   0  0  0  0  0  0  0  0  0  0  0  0
   -1.4339   -0.6492   -4.2479 H   0  0  0  0  0  0  0  0  0  0  0  0
   -1.4109   -0.9326   -0.0211 N   0  0  0  0  0  0  0  0  0  0  0  0
   -1.5075   -0.0108    1.1243 C   0  0  0  0  0  0  0  0  0  0  0  0
   -1.6563    1.4767    0.7482 C   0  0  0  0  0  0  0  0  0  0  0  0
   -1.4748    1.8609   -0.4025 O   0  0  0  0  0  0  0  0  0  0  0  0
   -0.4857   -1.0741   -0.4161 H   0  0  0  0  0  0  0  0  0  0  0  0
   -0.6156   -0.1182    1.7470 H   0  0  0  0  0  0  0  0  0  0  0  0
   -2.3680   -0.2939    1.7385 H   0  0  0  0  0  0  0  0  0  0  0  0
   -1.7574    2.4219    1.7500 N   0  0  0  0  0  0  0  0  0  0  0  0
   -1.6892    3.8746    1.5489 C   0  0  2  0  0  0  0  0  0  0  0  0
   -1.1765    4.5936    2.8152 C   0  0  0  0  0  0  0  0  0  0  0  0
   -1.0801    3.9811    3.8737 O   0  0  0  0  0  0  0  0  0  0  0  0
   -3.0862    4.3769    1.1683 C   0  0  0  0  0  0  0  0  0  0  0  0
   -1.7576    2.0953    2.7159 H   0  0  0  0  0  0  0  0  0  0  0  0
   -0.9894    4.1017    0.7377 H   0  0  0  0  0  0  0  0  0  0  0  0
   -3.8014    4.1596    1.9682 H   0  0  0  0  0  0  0  0  0  0  0  0
   -3.0745    5.4569    0.9940 H   0  0  0  0  0  0  0  0  0  0  0  0
   -3.4299    3.8857    0.2521 H   0  0  0  0  0  0  0  0  0  0  0  0
   -0.8026    5.9240    2.7666 N   0  0  0  0  0  0  0  0  0  0  0  0
   -0.2993    6.6569    3.9222 C   0  0  0  0  0  0  0  0  0  0  0  0
   -0.8821    6.4038    1.8747 H   0  0  0  0  0  0  0  0  0  0  0  0
   -1.0538    6.6871    4.7152 H   0  0  0  0  0  0  0  0  0  0  0  0
    0.6054    6.1803    4.3142 H   0  0  0  0  0  0  0  0  0  0  0  0
   -0.0531    7.6852    3.6405 H   0  0  0  0  0  0  0  0  0  0  0  0
  1  2  2  0  0  0  0
  1  3  1  0  0  0  0
  1  7  1  0  0  0  0
  3  4  1  0  0  0  0
  3  5  1  0  0  0  0
  3  6  1  0  0  0  0
  7  8  1  0  0  0  0
  7 12  1  0  0  0  0
  8  9  1  0  0  0  0
  8 11  1  0  0  0  0
  8 13  1  0  0  0  0
  9 10  2  0  0  0  0
  9 17  1  0  0  0  0
 11 14  1  0  0  0  0
 11 15  1  0  0  0  0
 11 16  1  0  0  0  0
 17 18  1  0  0  0  0
 17 21  1  0  0  0  0
 18 19  1  0  0  0  0
 18 22  1  0  0  0  0
 18 23  1  0  0  0  0
 19 20  2  0  0  0  0
 19 24  1  0  0  0  0
 24 25  1  0  0  0  0
 24 29  1  0  0  0  0
 25 26  1  0  0  0  0
 25 28  1  0  0  0  0
 25 30  1  0  0  0  0
 26 27  2  0  0  0  0
 26 34  1  0  0  0  0
 28 31  1  0  0  0  0
 28 32  1  0  0  0  0
 28 33  1  0  0  0  0
 34 35  1  0  0  0  0
 34 36  1  0  0  0  0
 35 37  1  0  0  0  0
 35 38  1  0  0  0  0
 35 39  1  0  0  0  0
M  END
$$$$

  -OEChem-05262216283D

 39 38  0     1  0  0  0  0  0999 V2000
   -3.5243   -3.2924   -3.3577 C   0  0  0  0  0  0  0  0  0  0  0  0
   -2.5659   -4.0488   -3.3324 O   0  0  0  0  0  0  0  0  0  0  0  0
   -4.8796   -3.8044   -3.8080 C   0  0  0  0  0  0  0  0  0  0  0  0
   -5.2075   -3.2590   -4.6962 H   0  0  0  0  0  0  0  0  0  0  0  0
   -4.8192   -4.8692   -4.0500 H   0  0  0  0  0  0  0  0  0  0  0  0
   -5.6145   -3.6660   -3.0112 H   0  0  0  0  0  0  0  0  0  0  0  0
   -3.3889   -1.9754   -2.9711 N   0  0  0  0  0  0  0  0  0  0  0  0
   -2.2071   -1.4429   -2.2777 C   0  0  2  0  0  0  0  0  0  0  0  0
   -2.5534   -0.9556   -0.8562 C   0  0  0  0  0  0  0  0  0  0  0  0
   -3.7100   -0.6633   -0.5658 O   0  0  0  0  0  0  0  0  0  0  0  0
   -1.6548   -0.2855   -3.1126 C   0  0  0  0  0  0  0  0  0  0  0  0
   -4.2580   -1.4655   -2.8223 H   0  0  0  0  0  0  0  0  0  0  0  0
   -1.4319   -2.2103   -2.1849 H   0  0  0  0  0  0  0  0  0  0  0  0
   -2.3984    0.5137   -3.2002 H   0  0  0  0  0  0  0  0  0  0  0  0
   -0.7569    0.1301   -2.6451 H   0  0  0  0  0  0  0  0  0  0  0  0
   -1.3938   -0.6333   -4.1169 H   0  0  0  0  0  0  0  0  0  0  0  0
   -1.5702   -0.8601    0.1145 N   0  0  0  0  0  0  0  0  0  0  0  0
   -1.7063    0.1009    1.2238 C   0  0  0  0  0  0  0  0  0  0  0  0
   -1.8055    1.5844    0.8106 C   0  0  0  0  0  0  0  0  0  0  0  0
   -1.7797    1.9266   -0.3665 O   0  0  0  0  0  0  0  0  0  0  0  0
   -0.6292   -1.0249   -0.2311 H   0  0  0  0  0  0  0  0  0  0  0  0
   -0.8484   -0.0103    1.8922 H   0  0  0  0  0  0  0  0  0  0  0  0
   -2.6019   -0.1472    1.8021 H   0  0  0  0  0  0  0  0  0  0  0  0
   -1.6238    2.5586    1.7734 N   0  0  0  0  0  0  0  0  0  0  0  0
   -1.3995    3.9835    1.4971 C   0  0  2  0  0  0  0  0  0  0  0  0
   -0.5172    4.6340    2.5835 C   0  0  0  0  0  0  0  0  0  0  0  0
   -0.2877    4.0350    3.6290 O   0  0  0  0  0  0  0  0  0  0  0  0
   -2.7625    4.6779    1.4134 C   0  0  0  0  0  0  0  0  0  0  0  0
   -1.4642    2.2527    2.7329 H   0  0  0  0  0  0  0  0  0  0  0  0
   -0.8762    4.0995    0.5421 H   0  0  0  0  0  0  0  0  0  0  0  0
   -3.2989    4.5845    2.3632 H   0  0  0  0  0  0  0  0  0  0  0  0
   -2.6406    5.7407    1.1845 H   0  0  0  0  0  0  0  0  0  0  0  0
   -3.3706    4.2236    0.6242 H   0  0  0  0  0  0  0  0  0  0  0  0
    0.0425    5.8818    2.3789 N   0  0  0  0  0  0  0  0  0  0  0  0
    0.9085    6.5406    3.3494 C   0  0  0  0  0  0  0  0  0  0  0  0
   -0.1464    6.3432    1.4939 H   0  0  0  0  0  0  0  0  0  0  0  0
    0.3743    6.7038    4.2913 H   0  0  0  0  0  0  0  0  0  0  0  0
    1.7956    5.9304    3.5487 H   0  0  0  0  0  0  0  0  0  0  0  0
    1.2367    7.5114    2.9660 H   0  0  0  0  0  0  0  0  0  0  0  0
  1  2  2  0  0  0  0
  1  3  1  0  0  0  0
  1  7  1  0  0  0  0
  3  4  1  0  0  0  0
  3  5  1  0  0  0  0
  3  6  1  0  0  0  0
  7  8  1  0  0  0  0
  7 12  1  0  0  0  0
  8  9  1  0  0  0  0
  8 11  1  0  0  0  0
  8 13  1  0  0  0  0
  9 10  2  0  0  0  0
  9 17  1  0  0  0  0
 11 14  1  0  0  0  0
 11 15  1  0  0  0  0
 11 16  1  0  0  0  0
 17 18  1  0  0  0  0
 17 21  1  0  0  0  0
 18 19  1  0  0  0  0
 18 22  1  0  0  0  0
 18 23  1  0  0  0  0
 19 20  2  0  0  0  0
 19 24  1  0  0  0  0
 24 25  1  0  0  0  0
 24 29  1  0  0  0  0
 25 26  1  0  0  0  0
 25 28  1  0  0  0  0
 25 30  1  0  0  0  0
 26 27  2  0  0  0  0
 26 34  1  0  0  0  0
 28 31  1  0  0  0  0
 28 32  1  0  0  0  0
 28 33  1  0  0  0  0
 34 35  1  0  0  0  0
 34 36  1  0  0  0  0
 35 37  1  0  0  0  0
 35 38  1  0  0  0  0
 35 39  1  0  0  0  0
M  END
$$$$

  -OEChem-05262216283D

 39 38  0     1  0  0  0  0  0999 V2000
   -3.4616   -3.2965   -3.2483 C   0  0  0  0  0  0  0  0  0  0  0  0
   -2.5142   -4.0540   -3.1068 O   0  0  0  0  0  0  0  0  0  0  0  0
   -4.7910   -3.8315   -3.7463 C   0  0  0  0  0  0  0  0  0  0  0  0
   -5.0431   -3.3690   -4.7038 H   0  0  0  0  0  0  0  0  0  0  0  0
   -4.7356   -4.9155   -3.8811 H   0  0  0  0  0  0  0  0  0  0  0  0
   -5.5782   -3.6071   -3.0221 H   0  0  0  0  0  0  0  0  0  0  0  0
   -3.3394   -1.9557   -2.9496 N   0  0  0  0  0  0  0  0  0  0  0  0
   -2.2059   -1.3827   -2.2100 C   0  0  2  0  0  0  0  0  0  0  0  0
   -2.6392   -0.8524   -0.8282 C   0  0  0  0  0  0  0  0  0  0  0  0
   -3.8098   -0.5472   -0.6208 O   0  0  0  0  0  0  0  0  0  0  0  0
   -1.6263   -0.2446   -3.0519 C   0  0  0  0  0  0  0  0  0  0  0  0
   -4.2127   -1.4344   -2.8958 H   0  0  0  0  0  0  0  0  0  0  0  0
   -1.4254   -2.1336   -2.0497 H   0  0  0  0  0  0  0  0  0  0  0  0
   -2.3793    0.5345   -3.2121 H   0  0  0  0  0  0  0  0  0  0  0  0
   -0.7663    0.2064   -2.5473 H   0  0  0  0  0  0  0  0  0  0  0  0
   -1.2993   -0.6223   -4.0256 H   0  0  0  0  0  0  0  0  0  0  0  0
   -1.7254   -0.7526    0.2077 N   0  0  0  0  0  0  0  0  0  0  0  0
   -1.8947    0.2586    1.2677 C   0  0  0  0  0  0  0  0  0  0  0  0
   -1.9001    1.7339    0.8089 C   0  0  0  0  0  0  0  0  0  0  0  0
   -2.0261    2.0495   -0.3682 O   0  0  0  0  0  0  0  0  0  0  0  0
   -0.7707   -0.9721   -0.0609 H   0  0  0  0  0  0  0  0  0  0  0  0
   -1.0919    0.1299    1.9988 H   0  0  0  0  0  0  0  0  0  0  0  0
   -2.8384    0.0705    1.7893 H   0  0  0  0  0  0  0  0  0  0  0  0
   -1.4368    2.6985    1.6839 N   0  0  0  0  0  0  0  0  0  0  0  0
   -1.0777    4.0743    1.3134 C   0  0  2  0  0  0  0  0  0  0  0  0
    0.0696    4.6076    2.1975 C   0  0  0  0  0  0  0  0  0  0  0  0
    0.4147    3.9850    3.1968 O   0  0  0  0  0  0  0  0  0  0  0  0
   -2.3255    4.9525    1.4518 C   0  0  0  0  0  0  0  0  0  0  0  0
   -1.1379    2.3901    2.6088 H   0  0  0  0  0  0  0  0  0  0  0  0
   -0.7280    4.1040    0.2760 H   0  0  0  0  0  0  0  0  0  0  0  0
   -2.6919    4.9363    2.4832 H   0  0  0  0  0  0  0  0  0  0  0  0
   -2.1021    5.9878    1.1775 H   0  0  0  0  0  0  0  0  0  0  0  0
   -3.1207    4.5867    0.7942 H   0  0  0  0  0  0  0  0  0  0  0  0
    0.7348    5.7724    1.8623 N   0  0  0  0  0  0  0  0  0  0  0  0
    1.8518    6.3056    2.6335 C   0  0  0  0  0  0  0  0  0  0  0  0
    0.4416    6.2573    1.0189 H   0  0  0  0  0  0  0  0  0  0  0  0
    1.5322    6.5501    3.6522 H   0  0  0  0  0  0  0  0  0  0  0  0
    2.6652    5.5739    2.6857 H   0  0  0  0  0  0  0  0  0  0  0  0
    2.2370    7.2159    2.1638 H   0  0  0  0  0  0  0  0  0  0  0  0
  1  2  2  0  0  0  0
  1  3  1  0  0  0  0
  1  7  1  0  0  0  0
  3  4  1  0  0  0  0
  3  5  1  0  0  0  0
  3  6  1  0  0  0  0
  7  8  1  0  0  0  0
  7 12  1  0  0  0  0
  8  9  1  0  0  0  0
  8 11  1  0  0  0  0
  8 13  1  0  0  0  0
  9 10  2  0  0  0  0
  9 17  1  0  0  0  0
 11 14  1  0  0  0  0
 11 15  1  0  0  0  0
 11 16  1  0  0  0  0
 17 18  1  0  0  0  0
 17 21  1  0  0  0  0
 18 19  1  0  0  0  0
 18 22  1  0  0  0  0
 18 23  1  0  0  0  0
 19 20  2  0  0  0  0
 19 24  1  0  0  0  0
 24 25  1  0  0  0  0
 24 29  1  0  0  0  0
 25 26  1  0  0  0  0
 25 28  1  0  0  0  0
 25 30  1  0  0  0  0
 26 27  2  0  0  0  0
 26 34  1  0  0  0  0
 28 31  1  0  0  0  0
 28 32  1  0  0  0  0
 28 33  1  0  0  0  0
 34 35  1  0  0  0  0
 34 36  1  0  0  0  0
 35 37  1  0  0  0  0
 35 38  1  0  0  0  0
 35 39  1  0  0  0  0
M  END
$$$$

  -OEChem-05262216283D

 39 38  0     1  0  0  0  0  0999 V2000
   -3.3365   -3.2225   -3.2245 C   0  0  0  0  0  0  0  0  0  0  0  0
   -2.3584   -3.9396   -3.0812 O   0  0  0  0  0  0  0  0  0  0  0  0
   -4.6248   -3.8014   -3.7780 C   0  0  0  0  0  0  0  0  0  0  0  0
   -4.8980   -3.2866   -4.7021 H   0  0  0  0  0  0  0  0  0  0  0  0
   -4.4992   -4.8663   -3.9921 H   0  0  0  0  0  0  0  0  0  0  0  0
   -5.4310   -3.6810   -3.0503 H   0  0  0  0  0  0  0  0  0  0  0  0
   -3.2853   -1.8890   -2.8766 N   0  0  0  0  0  0  0  0  0  0  0  0
   -2.1988   -1.2891   -2.0902 C   0  0  2  0  0  0  0  0  0  0  0  0
   -2.7051   -0.7692   -0.7296 C   0  0  0  0  0  0  0  0  0  0  0  0
   -3.8915   -0.4994   -0.5727 O   0  0  0  0  0  0  0  0  0  0  0  0
   -1.6101   -0.1361   -2.9059 C   0  0  0  0  0  0  0  0  0  0  0  0
   -4.1824   -1.4087   -2.8292 H   0  0  0  0  0  0  0  0  0  0  0  0
   -1.4092   -2.0214   -1.8946 H   0  0  0  0  0  0  0  0  0  0  0  0
   -2.3731    0.6261   -3.0965 H   0  0  0  0  0  0  0  0  0  0  0  0
   -0.7824    0.3334   -2.3653 H   0  0  0  0  0  0  0  0  0  0  0  0
   -1.2341   -0.5037   -3.8657 H   0  0  0  0  0  0  0  0  0  0  0  0
   -1.8414   -0.6489    0.3461 N   0  0  0  0  0  0  0  0  0  0  0  0
   -2.0355    0.4050    1.3597 C   0  0  0  0  0  0  0  0  0  0  0  0
   -1.9814    1.8616    0.8461 C   0  0  0  0  0  0  0  0  0  0  0  0
   -2.3365    2.1747   -0.2826 O   0  0  0  0  0  0  0  0  0  0  0  0
   -0.8792   -0.8910    0.1286 H   0  0  0  0  0  0  0  0  0  0  0  0
   -1.2760    0.2818    2.1364 H   0  0  0  0  0  0  0  0  0  0  0  0
   -3.0090    0.2612    1.8395 H   0  0  0  0  0  0  0  0  0  0  0  0
   -1.2553    2.7901    1.5684 N   0  0  0  0  0  0  0  0  0  0  0  0
   -0.8385    4.1071    1.0675 C   0  0  2  0  0  0  0  0  0  0  0  0
    0.5393    4.5072    1.6349 C   0  0  0  0  0  0  0  0  0  0  0  0
    1.0280    3.8719    2.5640 O   0  0  0  0  0  0  0  0  0  0  0  0
   -1.9069    5.1317    1.4600 C   0  0  0  0  0  0  0  0  0  0  0  0
   -0.7857    2.4640    2.4127 H   0  0  0  0  0  0  0  0  0  0  0  0
   -0.7456    4.0831   -0.0235 H   0  0  0  0  0  0  0  0  0  0  0  0
   -2.0008    5.1880    2.5494 H   0  0  0  0  0  0  0  0  0  0  0  0
   -1.6474    6.1245    1.0804 H   0  0  0  0  0  0  0  0  0  0  0  0
   -2.8770    4.8463    1.0404 H   0  0  0  0  0  0  0  0  0  0  0  0
    1.2431    5.5663    1.0924 N   0  0  0  0  0  0  0  0  0  0  0  0
    2.5517    5.9888    1.5772 C   0  0  0  0  0  0  0  0  0  0  0  0
    0.8214    6.0643    0.3134 H   0  0  0  0  0  0  0  0  0  0  0  0
    2.4825    6.3340    2.6144 H   0  0  0  0  0  0  0  0  0  0  0  0
    3.2653    5.1593    1.5290 H   0  0  0  0  0  0  0  0  0  0  0  0
    2.9359    6.8096    0.9638 H   0  0  0  0  0  0  0  0  0  0  0  0
  1  2  2  0  0  0  0
  1  3  1  0  0  0  0
  1  7  1  0  0  0  0
  3  4  1  0  0  0  0
  3  5  1  0  0  0  0
  3  6  1  0  0  0  0
  7  8  1  0  0  0  0
  7 12  1  0  0  0  0
  8  9  1  0  0  0  0
  8 11  1  0  0  0  0
  8 13  1  0  0  0  0
  9 10  2  0  0  0  0
  9 17  1  0  0  0  0
 11 14  1  0  0  0  0
 11 15  1  0  0  0  0
 11 16  1  0  0  0  0
 17 18  1  0  0  0  0
 17 21  1  0  0  0  0
 18 19  1  0  0  0  0
 18 22  1  0  0  0  0
 18 23  1  0  0  0  0
 19 20  2  0  0  0  0
 19 24  1  0  0  0  0
 24 25  1  0  0  0  0
 24 29  1  0  0  0  0
 25 26  1  0  0  0  0
 25 28  1  0  0  0  0
 25 30  1  0  0  0  0
 26 27  2  0  0  0  0
 26 34  1  0  0  0  0
 28 31  1  0  0  0  0
 28 32  1  0  0  0  0
 28 33  1  0  0  0  0
 34 35  1  0  0  0  0
 34 36  1  0  0  0  0
 35 37  1  0  0  0  0
 35 38  1  0  0  0  0
 35 39  1  0  0  0  0
M  END
$$$$

  -OEChem-05262216283D

 39 38  0     1  0  0  0  0  0999 V2000
   -3.2983   -3.1623   -3.1834 C   0  0  0  0  0  0  0  0  0  0  0  0
   -2.3205   -3.8794   -3.0378 O   0  0  0  0  0  0  0  0  0  0  0  0
   -4.5828   -3.7385   -3.7486 C   0  0  0  0  0  0  0  0  0  0  0  0
   -4.8450   -3.2250   -4.6766 H   0  0  0  0  0  0  0  0  0  0  0  0
   -4.4582   -4.8046   -3.9583 H   0  0  0  0  0  0  0  0  0  0  0  0
   -5.3959   -3.6140   -3.0292 H   0  0  0  0  0  0  0  0  0  0  0  0
   -3.2500   -1.8318   -2.8245 N   0  0  0  0  0  0  0  0  0  0  0  0
   -2.1733   -1.2391   -2.0191 C   0  0  2  0  0  0  0  0  0  0  0  0
   -2.7086   -0.6812   -0.6849 C   0  0  0  0  0  0  0  0  0  0  0  0
   -3.8971   -0.4053   -0.5650 O   0  0  0  0  0  0  0  0  0  0  0  0
   -1.5370   -0.1161   -2.8404 C   0  0  0  0  0  0  0  0  0  0  0  0
   -4.1475   -1.3509   -2.7842 H   0  0  0  0  0  0  0  0  0  0  0  0
   -1.4069   -1.9849   -1.7848 H   0  0  0  0  0  0  0  0  0  0  0  0
   -2.2767    0.6598   -3.0645 H   0  0  0  0  0  0  0  0  0  0  0  0
   -0.7114    0.3431   -2.2885 H   0  0  0  0  0  0  0  0  0  0  0  0
   -1.1470   -0.5110   -3.7836 H   0  0  0  0  0  0  0  0  0  0  0  0
   -1.8733   -0.5475    0.4114 N   0  0  0  0  0  0  0  0  0  0  0  0
   -2.0704    0.5345    1.3944 C   0  0  0  0  0  0  0  0  0  0  0  0
   -1.9701    1.9710    0.8372 C   0  0  0  0  0  0  0  0  0  0  0  0
   -2.5759    2.3360   -0.1599 O   0  0  0  0  0  0  0  0  0  0  0  0
   -0.9116   -0.8212    0.2314 H   0  0  0  0  0  0  0  0  0  0  0  0
   -1.3397    0.4171    2.1989 H   0  0  0  0  0  0  0  0  0  0  0  0
   -3.0615    0.4267    1.8471 H   0  0  0  0  0  0  0  0  0  0  0  0
   -1.0074    2.8196    1.3516 N   0  0  0  0  0  0  0  0  0  0  0  0
   -0.6129    4.1017    0.7523 C   0  0  2  0  0  0  0  0  0  0  0  0
    0.8798    4.4006    1.0038 C   0  0  0  0  0  0  0  0  0  0  0  0
    1.5193    3.7133    1.7940 O   0  0  0  0  0  0  0  0  0  0  0  0
   -1.4977    5.2034    1.3429 C   0  0  0  0  0  0  0  0  0  0  0  0
   -0.3818    2.4469    2.0653 H   0  0  0  0  0  0  0  0  0  0  0  0
   -0.7574    4.0675   -0.3329 H   0  0  0  0  0  0  0  0  0  0  0  0
   -1.3676    5.2591    2.4284 H   0  0  0  0  0  0  0  0  0  0  0  0
   -1.2435    6.1754    0.9101 H   0  0  0  0  0  0  0  0  0  0  0  0
   -2.5510    4.9965    1.1279 H   0  0  0  0  0  0  0  0  0  0  0  0
    1.5146    5.4240    0.3250 N   0  0  0  0  0  0  0  0  0  0  0  0
    2.9240    5.7506    0.5043 C   0  0  0  0  0  0  0  0  0  0  0  0
    0.9619    5.9682   -0.3313 H   0  0  0  0  0  0  0  0  0  0  0  0
    3.1151    6.0687    1.5346 H   0  0  0  0  0  0  0  0  0  0  0  0
    3.5509    4.8805    0.2820 H   0  0  0  0  0  0  0  0  0  0  0  0
    3.2124    6.5639   -0.1686 H   0  0  0  0  0  0  0  0  0  0  0  0
  1  2  2  0  0  0  0
  1  3  1  0  0  0  0
  1  7  1  0  0  0  0
  3  4  1  0  0  0  0
  3  5  1  0  0  0  0
  3  6  1  0  0  0  0
  7  8  1  0  0  0  0
  7 12  1  0  0  0  0
  8  9  1  0  0  0  0
  8 11  1  0  0  0  0
  8 13  1  0  0  0  0
  9 10  2  0  0  0  0
  9 17  1  0  0  0  0
 11 14  1  0  0  0  0
 11 15  1  0  0  0  0
 11 16  1  0  0  0  0
 17 18  1  0  0  0  0
 17 21  1  0  0  0  0
 18 19  1  0  0  0  0
 18 22  1  0  0  0  0
 18 23  1  0  0  0  0
 19 20  2  0  0  0  0
 19 24  1  0  0  0  0
 24 25  1  0  0  0  0
 24 29  1  0  0  0  0
 25 26  1  0  0  0  0
 25 28  1  0  0  0  0
 25 30  1  0  0  0  0
 26 27  2  0  0  0  0
 26 34  1  0  0  0  0
 28 31  1  0  0  0  0
 28 32  1  0  0  0  0
 28 33  1  0  0  0  0
 34 35  1  0  0  0  0
 34 36  1  0  0  0  0
 35 37  1  0  0  0  0
 35 38  1  0  0  0  0
 35 39  1  0  0  0  0
M  END
$$$$

  -OEChem-05262216283D

 39 38  0     1  0  0  0  0  0999 V2000
   -3.2807   -2.9418   -3.3763 C   0  0  0  0  0  0  0  0  0  0  0  0
   -2.2911   -3.6552   -3.4333 O   0  0  0  0  0  0  0  0  0  0  0  0
   -4.5404   -3.3237   -4.1308 C   0  0  0  0  0  0  0  0  0  0  0  0
   -4.8357   -2.5108   -4.7985 H   0  0  0  0  0  0  0  0  0  0  0  0
   -4.3656   -4.2237   -4.7273 H   0  0  0  0  0  0  0  0  0  0  0  0
   -5.3523   -3.5195   -3.4261 H   0  0  0  0  0  0  0  0  0  0  0  0
   -3.2588   -1.7907   -2.6190 N   0  0  0  0  0  0  0  0  0  0  0  0
   -2.1608   -1.4067   -1.7233 C   0  0  2  0  0  0  0  0  0  0  0  0
   -2.6791   -0.6260   -0.4974 C   0  0  0  0  0  0  0  0  0  0  0  0
   -3.8458   -0.2574   -0.4554 O   0  0  0  0  0  0  0  0  0  0  0  0
   -1.1645   -0.5553   -2.5166 C   0  0  0  0  0  0  0  0  0  0  0  0
   -4.1432   -1.2989   -2.4888 H   0  0  0  0  0  0  0  0  0  0  0  0
   -1.6558   -2.3046   -1.3514 H   0  0  0  0  0  0  0  0  0  0  0  0
   -1.6477    0.3571   -2.8814 H   0  0  0  0  0  0  0  0  0  0  0  0
   -0.3136   -0.2722   -1.8902 H   0  0  0  0  0  0  0  0  0  0  0  0
   -0.7865   -1.1171   -3.3767 H   0  0  0  0  0  0  0  0  0  0  0  0
   -1.8595   -0.4182    0.5990 N   0  0  0  0  0  0  0  0  0  0  0  0
   -2.0630    0.6984    1.5414 C   0  0  0  0  0  0  0  0  0  0  0  0
   -1.9760    2.1058    0.9195 C   0  0  0  0  0  0  0  0  0  0  0  0
   -2.8703    2.5802    0.2366 O   0  0  0  0  0  0  0  0  0  0  0  0
   -0.9083   -0.7570    0.4857 H   0  0  0  0  0  0  0  0  0  0  0  0
   -1.3332    0.6248    2.3519 H   0  0  0  0  0  0  0  0  0  0  0  0
   -3.0541    0.6015    1.9969 H   0  0  0  0  0  0  0  0  0  0  0  0
   -0.8463    2.8684    1.1474 N   0  0  0  0  0  0  0  0  0  0  0  0
   -0.5519    4.1382    0.4707 C   0  0  2  0  0  0  0  0  0  0  0  0
    0.9559    4.2712    0.1698 C   0  0  0  0  0  0  0  0  0  0  0  0
    1.7494    3.4654    0.6466 O   0  0  0  0  0  0  0  0  0  0  0  0
   -1.0369    5.2804    1.3678 C   0  0  0  0  0  0  0  0  0  0  0  0
   -0.0536    2.4053    1.5902 H   0  0  0  0  0  0  0  0  0  0  0  0
   -1.0798    4.1846   -0.4881 H   0  0  0  0  0  0  0  0  0  0  0  0
   -0.5037    5.2700    2.3239 H   0  0  0  0  0  0  0  0  0  0  0  0
   -0.8702    6.2475    0.8848 H   0  0  0  0  0  0  0  0  0  0  0  0
   -2.1088    5.1754    1.5647 H   0  0  0  0  0  0  0  0  0  0  0  0
    1.4240    5.2793   -0.6523 N   0  0  0  0  0  0  0  0  0  0  0  0
    2.8330    5.4515   -0.9860 C   0  0  0  0  0  0  0  0  0  0  0  0
    0.7421    5.9210   -1.0471 H   0  0  0  0  0  0  0  0  0  0  0  0
    3.4239    5.6212   -0.0796 H   0  0  0  0  0  0  0  0  0  0  0  0
    3.2183    4.5626   -1.4970 H   0  0  0  0  0  0  0  0  0  0  0  0
    2.9626    6.3133   -1.6477 H   0  0  0  0  0  0  0  0  0  0  0  0
  1  2  2  0  0  0  0
  1  3  1  0  0  0  0
  1  7  1  0  0  0  0
  3  4  1  0  0  0  0
  3  5  1  0  0  0  0
  3  6  1  0  0  0  0
  7  8  1  0  0  0  0
  7 12  1  0  0  0  0
  8  9  1  0  0  0  0
  8 11  1  0  0  0  0
  8 13  1  0  0  0  0
  9 10  2  0  0  0  0
  9 17  1  0  0  0  0
 11 14  1  0  0  0  0
 11 15  1  0  0  0  0
 11 16  1  0  0  0  0
 17 18  1  0  0  0  0
 17 21  1  0  0  0  0
 18 19  1  0  0  0  0
 18 22  1  0  0  0  0
 18 23  1  0  0  0  0
 19 20  2  0  0  0  0
 19 24  1  0  0  0  0
 24 25  1  0  0  0  0
 24 29  1  0  0  0  0
 25 26  1  0  0  0  0
 25 28  1  0  0  0  0
 25 30  1  0  0  0  0
 26 27  2  0  0  0  0
 26 34  1  0  0  0  0
 28 31  1  0  0  0  0
 28 32  1  0  0  0  0
 28 33  1  0  0  0  0
 34 35  1  0  0  0  0
 34 36  1  0  0  0  0
 35 37  1  0  0  0  0
 35 38  1  0  0  0  0
 35 39  1  0  0  0  0
M  END
$$$$

  -OEChem-05262216283D

 39 38  0     1  0  0  0  0  0999 V2000
   -3.4923   -3.1895   -2.9090 C   0  0  0  0  0  0  0  0  0  0  0  0
   -2.7870   -4.0261   -2.3669 O   0  0  0  0  0  0  0  0  0  0  0  0
   -4.8091   -3.6031   -3.5389 C   0  0  0  0  0  0  0  0  0  0  0  0
   -4.8120   -3.3457   -4.6007 H   0  0  0  0  0  0  0  0  0  0  0  0
   -4.9536   -4.6824   -3.4378 H   0  0  0  0  0  0  0  0  0  0  0  0
   -5.6372   -3.0895   -3.0444 H   0  0  0  0  0  0  0  0  0  0  0  0
   -3.1091   -1.8644   -2.9378 N   0  0  0  0  0  0  0  0  0  0  0  0
   -2.0150   -1.3171   -2.1226 C   0  0  2  0  0  0  0  0  0  0  0  0
   -2.5481   -0.3789   -1.0206 C   0  0  0  0  0  0  0  0  0  0  0  0
   -3.5846    0.2431   -1.2051 O   0  0  0  0  0  0  0  0  0  0  0  0
   -1.0689   -0.5572   -3.0547 C   0  0  0  0  0  0  0  0  0  0  0  0
   -3.8346   -1.2034   -3.2112 H   0  0  0  0  0  0  0  0  0  0  0  0
   -1.4525   -2.1210   -1.6367 H   0  0  0  0  0  0  0  0  0  0  0  0
   -1.5946    0.2686   -3.5453 H   0  0  0  0  0  0  0  0  0  0  0  0
   -0.2249   -0.1458   -2.4925 H   0  0  0  0  0  0  0  0  0  0  0  0
   -0.6772   -1.2287   -3.8252 H   0  0  0  0  0  0  0  0  0  0  0  0
   -1.8623   -0.2431    0.1740 N   0  0  0  0  0  0  0  0  0  0  0  0
   -2.1388    0.7978    1.1825 C   0  0  0  0  0  0  0  0  0  0  0  0
   -1.9720    2.2446    0.6860 C   0  0  0  0  0  0  0  0  0  0  0  0
   -2.9331    2.9323    0.3750 O   0  0  0  0  0  0  0  0  0  0  0  0
   -1.0073   -0.7854    0.2633 H   0  0  0  0  0  0  0  0  0  0  0  0
   -1.4868    0.6504    2.0475 H   0  0  0  0  0  0  0  0  0  0  0  0
   -3.1695    0.6835    1.5347 H   0  0  0  0  0  0  0  0  0  0  0  0
   -0.7371    2.8534    0.8045 N   0  0  0  0  0  0  0  0  0  0  0  0
   -0.4230    4.1817    0.2629 C   0  0  2  0  0  0  0  0  0  0  0  0
    0.9858    4.2051   -0.3670 C   0  0  0  0  0  0  0  0  0  0  0  0
    1.7460    3.2547   -0.2073 O   0  0  0  0  0  0  0  0  0  0  0  0
   -0.5339    5.2010    1.4001 C   0  0  0  0  0  0  0  0  0  0  0  0
    0.0613    2.2400    0.9619 H   0  0  0  0  0  0  0  0  0  0  0  0
   -1.1357    4.4446   -0.5265 H   0  0  0  0  0  0  0  0  0  0  0  0
    0.1756    4.9632    2.1989 H   0  0  0  0  0  0  0  0  0  0  0  0
   -0.3242    6.2111    1.0357 H   0  0  0  0  0  0  0  0  0  0  0  0
   -1.5458    5.1891    1.8176 H   0  0  0  0  0  0  0  0  0  0  0  0
    1.3984    5.2828   -1.1287 N   0  0  0  0  0  0  0  0  0  0  0  0
    2.7104    5.3620   -1.7600 C   0  0  0  0  0  0  0  0  0  0  0  0
    0.7367    6.0411   -1.2699 H   0  0  0  0  0  0  0  0  0  0  0  0
    3.5028    5.3041   -1.0059 H   0  0  0  0  0  0  0  0  0  0  0  0
    2.8430    4.5422   -2.4741 H   0  0  0  0  0  0  0  0  0  0  0  0
    2.8146    6.3093   -2.2981 H   0  0  0  0  0  0  0  0  0  0  0  0
  1  2  2  0  0  0  0
  1  3  1  0  0  0  0
  1  7  1  0  0  0  0
  3  4  1  0  0  0  0
  3  5  1  0  0  0  0
  3  6  1  0  0  0  0
  7  8  1  0  0  0  0
  7 12  1  0  0  0  0
  8  9  1  0  0  0  0
  8 11  1  0  0  0  0
  8 13  1  0  0  0  0
  9 10  2  0  0  0  0
  9 17  1  0  0  0  0
 11 14  1  0  0  0  0
 11 15  1  0  0  0  0
 11 16  1  0  0  0  0
 17 18  1  0  0  0  0
 17 21  1  0  0  0  0
 18 19  1  0  0  0  0
 18 22  1  0  0  0  0
 18 23  1  0  0  0  0
 19 20  2  0  0  0  0
 19 24  1  0  0  0  0
 24 25  1  0  0  0  0
 24 29  1  0  0  0  0
 25 26  1  0  0  0  0
 25 28  1  0  0  0  0
 25 30  1  0  0  0  0
 26 27  2  0  0  0  0
 26 34  1  0  0  0  0
 28 31  1  0  0  0  0
 28 32  1  0  0  0  0
 28 33  1  0  0  0  0
 34 35  1  0  0  0  0
 34 36  1  0  0  0  0
 35 37  1  0  0  0  0
 35 38  1  0  0  0  0
 35 39  1  0  0  0  0
M  END
$$$$

  -OEChem-05262216283D

 39 38  0     1  0  0  0  0  0999 V2000
   -2.7961   -2.4082   -1.9024 C   0  0  0  0  0  0  0  0  0  0  0  0
   -2.3255   -2.1587   -0.8020 O   0  0  0  0  0  0  0  0  0  0  0  0
   -3.7385   -3.5824   -2.0851 C   0  0  0  0  0  0  0  0  0  0  0  0
   -3.3330   -4.2739   -2.8276 H   0  0  0  0  0  0  0  0  0  0  0  0
   -3.8637   -4.1170   -1.1391 H   0  0  0  0  0  0  0  0  0  0  0  0
   -4.7166   -3.2294   -2.4214 H   0  0  0  0  0  0  0  0  0  0  0  0
   -2.5056   -1.5802   -2.9673 N   0  0  0  0  0  0  0  0  0  0  0  0
   -1.5646   -0.4497   -2.9058 C   0  0  2  0  0  0  0  0  0  0  0  0
   -2.1553    0.7940   -2.1950 C   0  0  0  0  0  0  0  0  0  0  0  0
   -2.2512    1.8711   -2.7652 O   0  0  0  0  0  0  0  0  0  0  0  0
   -1.1141   -0.1545   -4.3422 C   0  0  0  0  0  0  0  0  0  0  0  0
   -2.9535   -1.7885   -3.8556 H   0  0  0  0  0  0  0  0  0  0  0  0
   -0.6780   -0.7490   -2.3362 H   0  0  0  0  0  0  0  0  0  0  0  0
   -1.9631    0.1659   -4.9547 H   0  0  0  0  0  0  0  0  0  0  0  0
   -0.3644    0.6435   -4.3475 H   0  0  0  0  0  0  0  0  0  0  0  0
   -0.6703   -1.0462   -4.7953 H   0  0  0  0  0  0  0  0  0  0  0  0
   -2.5471    0.6874   -0.8727 N   0  0  0  0  0  0  0  0  0  0  0  0
   -3.1400    1.7663   -0.0628 C   0  0  0  0  0  0  0  0  0  0  0  0
   -2.2291    2.9926    0.0794 C   0  0  0  0  0  0  0  0  0  0  0  0
   -2.5030    4.0510   -0.4703 O   0  0  0  0  0  0  0  0  0  0  0  0
   -2.4956   -0.2586   -0.4811 H   0  0  0  0  0  0  0  0  0  0  0  0
   -3.3753    1.3910    0.9366 H   0  0  0  0  0  0  0  0  0  0  0  0
   -4.0805    2.0872   -0.5222 H   0  0  0  0  0  0  0  0  0  0  0  0
   -1.1330    2.9427    0.9203 N   0  0  0  0  0  0  0  0  0  0  0  0
   -0.0851    3.9758    0.9022 C   0  0  2  0  0  0  0  0  0  0  0  0
    0.8025    3.8700   -0.3649 C   0  0  0  0  0  0  0  0  0  0  0  0
    2.0017    3.6275   -0.2890 O   0  0  0  0  0  0  0  0  0  0  0  0
    0.7121    3.8444    2.2054 C   0  0  0  0  0  0  0  0  0  0  0  0
   -0.8716    2.0169    1.2469 H   0  0  0  0  0  0  0  0  0  0  0  0
   -0.5452    4.9700    0.8929 H   0  0  0  0  0  0  0  0  0  0  0  0
    1.2014    2.8669    2.2624 H   0  0  0  0  0  0  0  0  0  0  0  0
    1.4825    4.6202    2.2571 H   0  0  0  0  0  0  0  0  0  0  0  0
    0.0502    3.9567    3.0692 H   0  0  0  0  0  0  0  0  0  0  0  0
    0.2208    3.9831   -1.6131 N   0  0  0  0  0  0  0  0  0  0  0  0
    0.9243    3.7469   -2.8649 C   0  0  0  0  0  0  0  0  0  0  0  0
   -0.7992    4.0799   -1.6327 H   0  0  0  0  0  0  0  0  0  0  0  0
    1.7539    4.4527   -2.9775 H   0  0  0  0  0  0  0  0  0  0  0  0
    1.3195    2.7264   -2.8952 H   0  0  0  0  0  0  0  0  0  0  0  0
    0.2402    3.8779   -3.7091 H   0  0  0  0  0  0  0  0  0  0  0  0
  1  2  2  0  0  0  0
  1  3  1  0  0  0  0
  1  7  1  0  0  0  0
  3  4  1  0  0  0  0
  3  5  1  0  0  0  0
  3  6  1  0  0  0  0
  7  8  1  0  0  0  0
  7 12  1  0  0  0  0
  8  9  1  0  0  0  0
  8 11  1  0  0  0  0
  8 13  1  0  0  0  0
  9 10  2  0  0  0  0
  9 17  1  0  0  0  0
 11 14  1  0  0  0  0
 11 15  1  0  0  0  0
 11 16  1  0  0  0  0
 17 18  1  0  0  0  0
 17 21  1  0  0  0  0
 18 19  1  0  0  0  0
 18 22  1  0  0  0  0
 18 23  1  0  0  0  0
 19 20  2  0  0  0  0
 19 24  1  0  0  0  0
 24 25  1  0  0  0  0
 24 29  1  0  0  0  0
 25 26  1  0  0  0  0
 25 28  1  0  0  0  0
 25 30  1  0  0  0  0
 26 27  2  0  0  0  0
 26 34  1  0  0  0  0
 28 31  1  0  0  0  0
 28 32  1  0  0  0  0
 28 33  1  0  0  0  0
 34 35  1  0  0  0  0
 34 36  1  0  0  0  0
 35 37  1  0  0  0  0
 35 38  1  0  0  0  0
 35 39  1  0  0  0  0
M  END
$$$$

  -OEChem-05262216283D

 39 38  0     1  0  0  0  0  0999 V2000
   -2.3279   -2.1430   -1.7941 C   0  0  0  0  0  0  0  0  0  0  0  0
   -1.8176   -1.6441   -0.8014 O   0  0  0  0  0  0  0  0  0  0  0  0
   -2.8244   -3.5761   -1.7625 C   0  0  0  0  0  0  0  0  0  0  0  0
   -2.3872   -4.1427   -2.5884 H   0  0  0  0  0  0  0  0  0  0  0  0
   -2.5385   -4.0534   -0.8208 H   0  0  0  0  0  0  0  0  0  0  0  0
   -3.9133   -3.5971   -1.8517 H   0  0  0  0  0  0  0  0  0  0  0  0
   -2.5107   -1.3687   -2.9220 N   0  0  0  0  0  0  0  0  0  0  0  0
   -1.9382   -0.0233   -3.1070 C   0  0  2  0  0  0  0  0  0  0  0  0
   -2.6995    1.0954   -2.3499 C   0  0  0  0  0  0  0  0  0  0  0  0
   -2.9022    2.1867   -2.8631 O   0  0  0  0  0  0  0  0  0  0  0  0
   -1.8753    0.2302   -4.6188 C   0  0  0  0  0  0  0  0  0  0  0  0
   -2.9507   -1.8161   -3.7216 H   0  0  0  0  0  0  0  0  0  0  0  0
   -0.9111   -0.0162   -2.7249 H   0  0  0  0  0  0  0  0  0  0  0  0
   -2.8829    0.2666   -5.0451 H   0  0  0  0  0  0  0  0  0  0  0  0
   -1.3792    1.1841   -4.8248 H   0  0  0  0  0  0  0  0  0  0  0  0
   -1.3095   -0.5627   -5.1171 H   0  0  0  0  0  0  0  0  0  0  0  0
   -3.0759    0.8957   -1.0335 N   0  0  0  0  0  0  0  0  0  0  0  0
   -3.4531    1.9804   -0.1108 C   0  0  0  0  0  0  0  0  0  0  0  0
   -2.3185    2.9921    0.0911 C   0  0  0  0  0  0  0  0  0  0  0  0
   -2.4609    4.1725   -0.1977 O   0  0  0  0  0  0  0  0  0  0  0  0
   -2.7638    0.0043   -0.6378 H   0  0  0  0  0  0  0  0  0  0  0  0
   -3.7309    1.5640    0.8609 H   0  0  0  0  0  0  0  0  0  0  0  0
   -4.3277    2.5085   -0.5055 H   0  0  0  0  0  0  0  0  0  0  0  0
   -1.1091    2.5630    0.6064 N   0  0  0  0  0  0  0  0  0  0  0  0
    0.1162    3.3705    0.5092 C   0  0  2  0  0  0  0  0  0  0  0  0
    0.6799    3.3711   -0.9343 C   0  0  0  0  0  0  0  0  0  0  0  0
    1.7628    2.8635   -1.2026 O   0  0  0  0  0  0  0  0  0  0  0  0
    1.1109    2.8288    1.5428 C   0  0  0  0  0  0  0  0  0  0  0  0
   -0.9992    1.5558    0.6903 H   0  0  0  0  0  0  0  0  0  0  0  0
   -0.1032    4.4106    0.7731 H   0  0  0  0  0  0  0  0  0  0  0  0
    1.3723    1.7891    1.3210 H   0  0  0  0  0  0  0  0  0  0  0  0
    2.0284    3.4259    1.5330 H   0  0  0  0  0  0  0  0  0  0  0  0
    0.6788    2.8756    2.5470 H   0  0  0  0  0  0  0  0  0  0  0  0
   -0.0927    3.8831   -1.9583 N   0  0  0  0  0  0  0  0  0  0  0  0
    0.2521    3.7802   -3.3683 C   0  0  0  0  0  0  0  0  0  0  0  0
   -1.0386    4.1833   -1.7043 H   0  0  0  0  0  0  0  0  0  0  0  0
    1.1830    4.3182   -3.5751 H   0  0  0  0  0  0  0  0  0  0  0  0
    0.3764    2.7316   -3.6569 H   0  0  0  0  0  0  0  0  0  0  0  0
   -0.5441    4.2152   -3.9805 H   0  0  0  0  0  0  0  0  0  0  0  0
  1  2  2  0  0  0  0
  1  3  1  0  0  0  0
  1  7  1  0  0  0  0
  3  4  1  0  0  0  0
  3  5  1  0  0  0  0
  3  6  1  0  0  0  0
  7  8  1  0  0  0  0
  7 12  1  0  0  0  0
  8  9  1  0  0  0  0
  8 11  1  0  0  0  0
  8 13  1  0  0  0  0
  9 10  2  0  0  0  0
  9 17  1  0  0  0  0
 11 14  1  0  0  0  0
 11 15  1  0  0  0  0
 11 16  1  0  0  0  0
 17 18  1  0  0  0  0
 17 21  1  0  0  0  0
 18 19  1  0  0  0  0
 18 22  1  0  0  0  0
 18 23  1  0  0  0  0
 19 20  2  0  0  0  0
 19 24  1  0  0  0  0
 24 25  1  0  0  0  0
 24 29  1  0  0  0  0
 25 26  1  0  0  0  0
 25 28  1  0  0  0  0
 25 30  1  0  0  0  0
 26 27  2  0  0  0  0
 26 34  1  0  0  0  0
 28 31  1  0  0  0  0
 28 32  1  0  0  0  0
 28 33  1  0  0  0  0
 34 35  1  0  0  0  0
 34 36  1  0  0  0  0
 35 37  1  0  0  0  0
 35 38  1  0  0  0  0
 35 39  1  0  0  0  0
M  END
$$$$

  -OEChem-05262216283D

 39 38  0     1  0  0  0  0  0999 V2000
   -1.8463   -1.5686   -1.6115 C   0  0  0  0  0  0  0  0  0  0  0  0
   -1.5721   -0.7946   -0.7049 O   0  0  0  0  0  0  0  0  0  0  0  0
   -1.7042   -3.0644   -1.4066 C   0  0  0  0  0  0  0  0  0  0  0  0
   -1.0463   -3.4853   -2.1710 H   0  0  0  0  0  0  0  0  0  0  0  0
   -1.2745   -3.2723   -0.4224 H   0  0  0  0  0  0  0  0  0  0  0  0
   -2.6829   -3.5463   -1.4721 H   0  0  0  0  0  0  0  0  0  0  0  0
   -2.3845   -1.0783   -2.7850 N   0  0  0  0  0  0  0  0  0  0  0  0
   -2.2912    0.3331   -3.2077 C   0  0  2  0  0  0  0  0  0  0  0  0
   -3.2342    1.3176   -2.4677 C   0  0  0  0  0  0  0  0  0  0  0  0
   -3.4643    2.4257   -2.9314 O   0  0  0  0  0  0  0  0  0  0  0  0
   -2.5339    0.3588   -4.7215 C   0  0  0  0  0  0  0  0  0  0  0  0
   -2.5684   -1.7673   -3.5095 H   0  0  0  0  0  0  0  0  0  0  0  0
   -1.2698    0.6859   -3.0242 H   0  0  0  0  0  0  0  0  0  0  0  0
   -3.5579    0.0484   -4.9522 H   0  0  0  0  0  0  0  0  0  0  0  0
   -2.3823    1.3690   -5.1158 H   0  0  0  0  0  0  0  0  0  0  0  0
   -1.8369   -0.3121   -5.2331 H   0  0  0  0  0  0  0  0  0  0  0  0
   -3.6651    1.0305   -1.1844 N   0  0  0  0  0  0  0  0  0  0  0  0
   -3.7843    2.0956   -0.1738 C   0  0  0  0  0  0  0  0  0  0  0  0
   -2.4299    2.7761    0.0753 C   0  0  0  0  0  0  0  0  0  0  0  0
   -2.3288    3.9963    0.0746 O   0  0  0  0  0  0  0  0  0  0  0  0
   -3.2935    0.1422   -0.8468 H   0  0  0  0  0  0  0  0  0  0  0  0
   -4.1495    1.6790    0.7686 H   0  0  0  0  0  0  0  0  0  0  0  0
   -4.5070    2.8487   -0.5055 H   0  0  0  0  0  0  0  0  0  0  0  0
   -1.2929    2.0003    0.2249 N   0  0  0  0  0  0  0  0  0  0  0  0
    0.0539    2.5380   -0.0052 C   0  0  2  0  0  0  0  0  0  0  0  0
    0.2938    2.8080   -1.5114 C   0  0  0  0  0  0  0  0  0  0  0  0
    0.9893    2.0669   -2.1982 O   0  0  0  0  0  0  0  0  0  0  0  0
    1.0547    1.5391    0.5865 C   0  0  0  0  0  0  0  0  0  0  0  0
   -1.4161    0.9985    0.0542 H   0  0  0  0  0  0  0  0  0  0  0  0
    0.1727    3.4885    0.5257 H   0  0  0  0  0  0  0  0  0  0  0  0
    0.9610    0.5634    0.0983 H   0  0  0  0  0  0  0  0  0  0  0  0
    2.0785    1.9000    0.4464 H   0  0  0  0  0  0  0  0  0  0  0  0
    0.8748    1.4120    1.6582 H   0  0  0  0  0  0  0  0  0  0  0  0
   -0.3822    3.8476   -2.1187 N   0  0  0  0  0  0  0  0  0  0  0  0
   -0.4236    4.0478   -3.5603 C   0  0  0  0  0  0  0  0  0  0  0  0
   -1.1092    4.2882   -1.5477 H   0  0  0  0  0  0  0  0  0  0  0  0
    0.5878    4.1736   -3.9601 H   0  0  0  0  0  0  0  0  0  0  0  0
   -0.8949    3.1918   -4.0528 H   0  0  0  0  0  0  0  0  0  0  0  0
   -1.0027    4.9454   -3.7974 H   0  0  0  0  0  0  0  0  0  0  0  0
  1  2  2  0  0  0  0
  1  3  1  0  0  0  0
  1  7  1  0  0  0  0
  3  4  1  0  0  0  0
  3  5  1  0  0  0  0
  3  6  1  0  0  0  0
  7  8  1  0  0  0  0
  7 12  1  0  0  0  0
  8  9  1  0  0  0  0
  8 11  1  0  0  0  0
  8 13  1  0  0  0  0
  9 10  2  0  0  0  0
  9 17  1  0  0  0  0
 11 14  1  0  0  0  0
 11 15  1  0  0  0  0
 11 16  1  0  0  0  0
 17 18  1  0  0  0  0
 17 21  1  0  0  0  0
 18 19  1  0  0  0  0
 18 22  1  0  0  0  0
 18 23  1  0  0  0  0
 19 20  2  0  0  0  0
 19 24  1  0  0  0  0
 24 25  1  0  0  0  0
 24 29  1  0  0  0  0
 25 26  1  0  0  0  0
 25 28  1  0  0  0  0
 25 30  1  0  0  0  0
 26 27  2  0  0  0  0
 26 34  1  0  0  0  0
 28 31  1  0  0  0  0
 28 32  1  0  0  0  0
 28 33  1  0  0  0  0
 34 35  1  0  0  0  0
 34 36  1  0  0  0  0
 35 37  1  0  0  0  0
 35 38  1  0  0  0  0
 35 39  1  0  0  0  0
M  END
$$$$

  -OEChem-05262216283D

 39 38  0     1  0  0  0  0  0999 V2000
   -2.7037   -2.5993   -2.1251 C   0  0  0  0  0  0  0  0  0  0  0  0
   -1.9732   -2.3577   -1.1751 O   0  0  0  0  0  0  0  0  0  0  0  0
   -3.3514   -3.9643   -2.2633 C   0  0  0  0  0  0  0  0  0  0  0  0
   -3.0432   -4.4317   -3.2018 H   0  0  0  0  0  0  0  0  0  0  0  0
   -3.0498   -4.6102   -1.4337 H   0  0  0  0  0  0  0  0  0  0  0  0
   -4.4397   -3.8650   -2.2538 H   0  0  0  0  0  0  0  0  0  0  0  0
   -2.9833   -1.6038   -3.0393 N   0  0  0  0  0  0  0  0  0  0  0  0
   -2.3678   -0.2659   -3.0239 C   0  0  2  0  0  0  0  0  0  0  0  0
   -2.9641    0.6660   -1.9389 C   0  0  0  0  0  0  0  0  0  0  0  0
   -3.4247    1.7678   -2.2106 O   0  0  0  0  0  0  0  0  0  0  0  0
   -2.4979    0.3132   -4.4379 C   0  0  0  0  0  0  0  0  0  0  0  0
   -3.6261   -1.8296   -3.7930 H   0  0  0  0  0  0  0  0  0  0  0  0
   -1.2979   -0.3611   -2.8061 H   0  0  0  0  0  0  0  0  0  0  0  0
   -3.5505    0.4602   -4.6998 H   0  0  0  0  0  0  0  0  0  0  0  0
   -1.9877    1.2801   -4.4967 H   0  0  0  0  0  0  0  0  0  0  0  0
   -2.0416   -0.3590   -5.1707 H   0  0  0  0  0  0  0  0  0  0  0  0
   -2.9321    0.2708   -0.6122 N   0  0  0  0  0  0  0  0  0  0  0  0
   -3.2102    1.1685    0.5252 C   0  0  0  0  0  0  0  0  0  0  0  0
   -2.2473    2.3622    0.6028 C   0  0  0  0  0  0  0  0  0  0  0  0
   -2.6197    3.4339    1.0605 O   0  0  0  0  0  0  0  0  0  0  0  0
   -2.5200   -0.6514   -0.4376 H   0  0  0  0  0  0  0  0  0  0  0  0
   -3.1388    0.6073    1.4606 H   0  0  0  0  0  0  0  0  0  0  0  0
   -4.2323    1.5525    0.4443 H   0  0  0  0  0  0  0  0  0  0  0  0
   -0.9567    2.2195    0.1293 N   0  0  0  0  0  0  0  0  0  0  0  0
   -0.2091    3.3479   -0.4325 C   0  0  2  0  0  0  0  0  0  0  0  0
   -0.1902    3.2441   -1.9719 C   0  0  0  0  0  0  0  0  0  0  0  0
    0.0017    2.1546   -2.5068 O   0  0  0  0  0  0  0  0  0  0  0  0
    1.2097    3.3147    0.1377 C   0  0  0  0  0  0  0  0  0  0  0  0
   -0.7930    1.3286   -0.3355 H   0  0  0  0  0  0  0  0  0  0  0  0
   -0.6713    4.3017   -0.1575 H   0  0  0  0  0  0  0  0  0  0  0  0
    1.7086    2.3762   -0.1252 H   0  0  0  0  0  0  0  0  0  0  0  0
    1.7995    4.1463   -0.2599 H   0  0  0  0  0  0  0  0  0  0  0  0
    1.1796    3.4006    1.2284 H   0  0  0  0  0  0  0  0  0  0  0  0
   -0.3947    4.3663   -2.7522 N   0  0  0  0  0  0  0  0  0  0  0  0
   -0.5639    4.2990   -4.1981 C   0  0  0  0  0  0  0  0  0  0  0  0
   -0.7116    5.2021   -2.2686 H   0  0  0  0  0  0  0  0  0  0  0  0
    0.2827    3.7821   -4.6622 H   0  0  0  0  0  0  0  0  0  0  0  0
   -1.4858    3.7644   -4.4493 H   0  0  0  0  0  0  0  0  0  0  0  0
   -0.6213    5.3076   -4.6186 H   0  0  0  0  0  0  0  0  0  0  0  0
  1  2  2  0  0  0  0
  1  3  1  0  0  0  0
  1  7  1  0  0  0  0
  3  4  1  0  0  0  0
  3  5  1  0  0  0  0
  3  6  1  0  0  0  0
  7  8  1  0  0  0  0
  7 12  1  0  0  0  0
  8  9  1  0  0  0  0
  8 11  1  0  0  0  0
  8 13  1  0  0  0  0
  9 10  2  0  0  0  0
  9 17  1  0  0  0  0
 11 14  1  0  0  0  0
 11 15  1  0  0  0  0
 11 16  1  0  0  0  0
 17 18  1  0  0  0  0
 17 21  1  0  0  0  0
 18 19  1  0  0  0  0
 18 22  1  0  0  0  0
 18 23  1  0  0  0  0
 19 20  2  0  0  0  0
 19 24  1  0  0  0  0
 24 25  1  0  0  0  0
 24 29  1  0  0  0  0
 25 26  1  0  0  0  0
 25 28  1  0  0  0  0
 25 30  1  0  0  0  0
 26 27  2  0  0  0  0
 26 34  1  0  0  0  0
 28 31  1  0  0  0  0
 28 32  1  0  0  0  0
 28 33  1  0  0  0  0
 34 35  1  0  0  0  0
 34 36  1  0  0  0  0
 35 37  1  0  0  0  0
 35 38  1  0  0  0  0
 35 39  1  0  0  0  0
M  END
$$$$

  -OEChem-05262216283D

 39 38  0     1  0  0  0  0  0999 V2000
   -2.8263   -2.8127   -2.1420 C   0  0  0  0  0  0  0  0  0  0  0  0
   -1.9957   -2.5852   -1.2744 O   0  0  0  0  0  0  0  0  0  0  0  0
   -3.4552   -4.1880   -2.2600 C   0  0  0  0  0  0  0  0  0  0  0  0
   -3.2440   -4.6124   -3.2447 H   0  0  0  0  0  0  0  0  0  0  0  0
   -3.0491   -4.8560   -1.4950 H   0  0  0  0  0  0  0  0  0  0  0  0
   -4.5374   -4.1166   -2.1261 H   0  0  0  0  0  0  0  0  0  0  0  0
   -3.2308   -1.7949   -2.9811 N   0  0  0  0  0  0  0  0  0  0  0  0
   -2.6476   -0.4435   -2.9856 C   0  0  2  0  0  0  0  0  0  0  0  0
   -3.1369    0.4316   -1.8047 C   0  0  0  0  0  0  0  0  0  0  0  0
   -3.6687    1.5204   -1.9827 O   0  0  0  0  0  0  0  0  0  0  0  0
   -2.9525    0.1803   -4.3533 C   0  0  0  0  0  0  0  0  0  0  0  0
   -3.9546   -2.0103   -3.6607 H   0  0  0  0  0  0  0  0  0  0  0  0
   -1.5580   -0.5176   -2.8954 H   0  0  0  0  0  0  0  0  0  0  0  0
   -4.0320    0.2958   -4.4935 H   0  0  0  0  0  0  0  0  0  0  0  0
   -2.4860    1.1679   -4.4304 H   0  0  0  0  0  0  0  0  0  0  0  0
   -2.5568   -0.4480   -5.1569 H   0  0  0  0  0  0  0  0  0  0  0  0
   -2.9195    0.0097   -0.5032 N   0  0  0  0  0  0  0  0  0  0  0  0
   -3.0803    0.8748    0.6832 C   0  0  0  0  0  0  0  0  0  0  0  0
   -2.1674    2.1121    0.6931 C   0  0  0  0  0  0  0  0  0  0  0  0
   -2.4363    3.0707    1.4041 O   0  0  0  0  0  0  0  0  0  0  0  0
   -2.4505   -0.8967   -0.4050 H   0  0  0  0  0  0  0  0  0  0  0  0
   -2.8722    0.2934    1.5854 H   0  0  0  0  0  0  0  0  0  0  0  0
   -4.1182    1.2170    0.7414 H   0  0  0  0  0  0  0  0  0  0  0  0
   -1.0914    2.1780   -0.1698 N   0  0  0  0  0  0  0  0  0  0  0  0
   -0.6148    3.4355   -0.7486 C   0  0  2  0  0  0  0  0  0  0  0  0
   -0.5673    3.3157   -2.2869 C   0  0  0  0  0  0  0  0  0  0  0  0
   -0.3866    2.2193   -2.8127 O   0  0  0  0  0  0  0  0  0  0  0  0
    0.7719    3.7374   -0.1790 C   0  0  0  0  0  0  0  0  0  0  0  0
   -1.0125    1.3750   -0.7912 H   0  0  0  0  0  0  0  0  0  0  0  0
   -1.2947    4.2563   -0.4968 H   0  0  0  0  0  0  0  0  0  0  0  0
    1.4701    2.9298   -0.4223 H   0  0  0  0  0  0  0  0  0  0  0  0
    1.1609    4.6725   -0.5932 H   0  0  0  0  0  0  0  0  0  0  0  0
    0.7180    3.8362    0.9100 H   0  0  0  0  0  0  0  0  0  0  0  0
   -0.7272    4.4341   -3.0835 N   0  0  0  0  0  0  0  0  0  0  0  0
   -0.7994    4.3684   -4.5376 C   0  0  0  0  0  0  0  0  0  0  0  0
   -0.9875    5.2996   -2.6194 H   0  0  0  0  0  0  0  0  0  0  0  0
    0.1081    3.9117   -4.9466 H   0  0  0  0  0  0  0  0  0  0  0  0
   -1.6652    3.7754   -4.8503 H   0  0  0  0  0  0  0  0  0  0  0  0
   -0.8969    5.3741   -4.9574 H   0  0  0  0  0  0  0  0  0  0  0  0
  1  2  2  0  0  0  0
  1  3  1  0  0  0  0
  1  7  1  0  0  0  0
  3  4  1  0  0  0  0
  3  5  1  0  0  0  0
  3  6  1  0  0  0  0
  7  8  1  0  0  0  0
  7 12  1  0  0  0  0
  8  9  1  0  0  0  0
  8 11  1  0  0  0  0
  8 13  1  0  0  0  0
  9 10  2  0  0  0  0
  9 17  1  0  0  0  0
 11 14  1  0  0  0  0
 11 15  1  0  0  0  0
 11 16  1  0  0  0  0
 17 18  1  0  0  0  0
 17 21  1  0  0  0  0
 18 19  1  0  0  0  0
 18 22  1  0  0  0  0
 18 23  1  0  0  0  0
 19 20  2  0  0  0  0
 19 24  1  0  0  0  0
 24 25  1  0  0  0  0
 24 29  1  0  0  0  0
 25 26  1  0  0  0  0
 25 28  1  0  0  0  0
 25 30  1  0  0  0  0
 26 27  2  0  0  0  0
 26 34  1  0  0  0  0
 28 31  1  0  0  0  0
 28 32  1  0  0  0  0
 28 33  1  0  0  0  0
 34 35  1  0  0  0  0
 34 36  1  0  0  0  0
 35 37  1  0  0  0  0
 35 38  1  0  0  0  0
 35 39  1  0  0  0  0
M  END
$$$$

  -OEChem-05262216283D

 39 38  0     1  0  0  0  0  0999 V2000
   -3.7893   -3.3841   -2.3943 C   0  0  0  0  0  0  0  0  0  0  0  0
   -3.0600   -3.9612   -1.6023 O   0  0  0  0  0  0  0  0  0  0  0  0
   -5.1452   -3.9665   -2.7460 C   0  0  0  0  0  0  0  0  0  0  0  0
   -5.2408   -4.0652   -3.8300 H   0  0  0  0  0  0  0  0  0  0  0  0
   -5.2593   -4.9550   -2.2924 H   0  0  0  0  0  0  0  0  0  0  0  0
   -5.9390   -3.3142   -2.3742 H   0  0  0  0  0  0  0  0  0  0  0  0
   -3.3884   -2.1857   -2.9477 N   0  0  0  0  0  0  0  0  0  0  0  0
   -2.1933   -1.4661   -2.4905 C   0  0  2  0  0  0  0  0  0  0  0  0
   -2.5027   -0.5491   -1.2901 C   0  0  0  0  0  0  0  0  0  0  0  0
   -3.4209    0.2577   -1.3534 O   0  0  0  0  0  0  0  0  0  0  0  0
   -1.6536   -0.6456   -3.6657 C   0  0  0  0  0  0  0  0  0  0  0  0
   -4.1070   -1.6448   -3.4224 H   0  0  0  0  0  0  0  0  0  0  0  0
   -1.4170   -2.1786   -2.1920 H   0  0  0  0  0  0  0  0  0  0  0  0
   -2.3947    0.0893   -3.9981 H   0  0  0  0  0  0  0  0  0  0  0  0
   -0.7465   -0.1081   -3.3714 H   0  0  0  0  0  0  0  0  0  0  0  0
   -1.4098   -1.3005   -4.5078 H   0  0  0  0  0  0  0  0  0  0  0  0
   -1.6877   -0.5400   -0.1720 N   0  0  0  0  0  0  0  0  0  0  0  0
   -1.8051    0.4174    0.9496 C   0  0  0  0  0  0  0  0  0  0  0  0
   -1.6358    1.9090    0.6010 C   0  0  0  0  0  0  0  0  0  0  0  0
   -1.6104    2.7341    1.5040 O   0  0  0  0  0  0  0  0  0  0  0  0
   -0.9649   -1.2543   -0.1277 H   0  0  0  0  0  0  0  0  0  0  0  0
   -1.0542    0.1702    1.7053 H   0  0  0  0  0  0  0  0  0  0  0  0
   -2.7890    0.2970    1.4131 H   0  0  0  0  0  0  0  0  0  0  0  0
   -1.3884    2.3186   -0.6944 N   0  0  0  0  0  0  0  0  0  0  0  0
   -1.2786    3.7141   -1.1292 C   0  0  2  0  0  0  0  0  0  0  0  0
   -1.6085    3.8538   -2.6312 C   0  0  0  0  0  0  0  0  0  0  0  0
   -1.5576    2.8770   -3.3729 O   0  0  0  0  0  0  0  0  0  0  0  0
    0.1448    4.2121   -0.8560 C   0  0  0  0  0  0  0  0  0  0  0  0
   -1.6592    1.6479   -1.4146 H   0  0  0  0  0  0  0  0  0  0  0  0
   -1.9934    4.3265   -0.5695 H   0  0  0  0  0  0  0  0  0  0  0  0
    0.8723    3.6046   -1.4038 H   0  0  0  0  0  0  0  0  0  0  0  0
    0.2539    5.2546   -1.1695 H   0  0  0  0  0  0  0  0  0  0  0  0
    0.3734    4.1496    0.2124 H   0  0  0  0  0  0  0  0  0  0  0  0
   -1.9497    5.0858   -3.1587 N   0  0  0  0  0  0  0  0  0  0  0  0
   -2.2800    5.2926   -4.5634 C   0  0  0  0  0  0  0  0  0  0  0  0
   -2.0110    5.8707   -2.5167 H   0  0  0  0  0  0  0  0  0  0  0  0
   -1.4365    5.0079   -5.2012 H   0  0  0  0  0  0  0  0  0  0  0  0
   -3.1531    4.6941   -4.8440 H   0  0  0  0  0  0  0  0  0  0  0  0
   -2.5101    6.3465   -4.7466 H   0  0  0  0  0  0  0  0  0  0  0  0
  1  2  2  0  0  0  0
  1  3  1  0  0  0  0
  1  7  1  0  0  0  0
  3  4  1  0  0  0  0
  3  5  1  0  0  0  0
  3  6  1  0  0  0  0
  7  8  1  0  0  0  0
  7 12  1  0  0  0  0
  8  9  1  0  0  0  0
  8 11  1  0  0  0  0
  8 13  1  0  0  0  0
  9 10  2  0  0  0  0
  9 17  1  0  0  0  0
 11 14  1  0  0  0  0
 11 15  1  0  0  0  0
 11 16  1  0  0  0  0
 17 18  1  0  0  0  0
 17 21  1  0  0  0  0
 18 19  1  0  0  0  0
 18 22  1  0  0  0  0
 18 23  1  0  0  0  0
 19 20  2  0  0  0  0
 19 24  1  0  0  0  0
 24 25  1  0  0  0  0
 24 29  1  0  0  0  0
 25 26  1  0  0  0  0
 25 28  1  0  0  0  0
 25 30  1  0  0  0  0
 26 27  2  0  0  0  0
 26 34  1  0  0  0  0
 28 31  1  0  0  0  0
 28 32  1  0  0  0  0
 28 33  1  0  0  0  0
 34 35  1  0  0  0  0
 34 36  1  0  0  0  0
 35 37  1  0  0  0  0
 35 38  1  0  0  0  0
 35 39  1  0  0  0  0
M  END
$$$$

  -OEChem-05262216283D

 39 38  0     1  0  0  0  0  0999 V2000
   -3.6260   -3.5559   -2.1937 C   0  0  0  0  0  0  0  0  0  0  0  0
   -2.7894   -3.9292   -1.3850 O   0  0  0  0  0  0  0  0  0  0  0  0
   -4.8954   -4.3581   -2.4090 C   0  0  0  0  0  0  0  0  0  0  0  0
   -4.9557   -4.6900   -3.4484 H   0  0  0  0  0  0  0  0  0  0  0  0
   -4.9008   -5.2368   -1.7580 H   0  0  0  0  0  0  0  0  0  0  0  0
   -5.7697   -3.7444   -2.1786 H   0  0  0  0  0  0  0  0  0  0  0  0
   -3.4249   -2.3819   -2.8894 N   0  0  0  0  0  0  0  0  0  0  0  0
   -2.3227   -1.4662   -2.5759 C   0  0  2  0  0  0  0  0  0  0  0  0
   -2.6476   -0.5863   -1.3515 C   0  0  0  0  0  0  0  0  0  0  0  0
   -3.5727    0.2147   -1.3945 O   0  0  0  0  0  0  0  0  0  0  0  0
   -2.0478   -0.6023   -3.8112 C   0  0  0  0  0  0  0  0  0  0  0  0
   -4.2245   -2.0059   -3.3923 H   0  0  0  0  0  0  0  0  0  0  0  0
   -1.4144   -2.0386   -2.3597 H   0  0  0  0  0  0  0  0  0  0  0  0
   -2.9284   -0.0060   -4.0725 H   0  0  0  0  0  0  0  0  0  0  0  0
   -1.2160    0.0830   -3.6189 H   0  0  0  0  0  0  0  0  0  0  0  0
   -1.7865   -1.2324   -4.6667 H   0  0  0  0  0  0  0  0  0  0  0  0
   -1.8479   -0.6141   -0.2236 N   0  0  0  0  0  0  0  0  0  0  0  0
   -1.9304    0.3452    0.8988 C   0  0  0  0  0  0  0  0  0  0  0  0
   -1.6852    1.8297    0.5592 C   0  0  0  0  0  0  0  0  0  0  0  0
   -1.3920    2.6029    1.4609 O   0  0  0  0  0  0  0  0  0  0  0  0
   -1.1365   -1.3409   -0.1905 H   0  0  0  0  0  0  0  0  0  0  0  0
   -1.2037    0.0562    1.6638 H   0  0  0  0  0  0  0  0  0  0  0  0
   -2.9249    0.2714    1.3491 H   0  0  0  0  0  0  0  0  0  0  0  0
   -1.7054    2.2930   -0.7418 N   0  0  0  0  0  0  0  0  0  0  0  0
   -1.5330    3.6919   -1.1464 C   0  0  2  0  0  0  0  0  0  0  0  0
   -2.1391    3.9474   -2.5431 C   0  0  0  0  0  0  0  0  0  0  0  0
   -2.2654    3.0272   -3.3448 O   0  0  0  0  0  0  0  0  0  0  0  0
   -0.0381    4.0305   -1.1588 C   0  0  0  0  0  0  0  0  0  0  0  0
   -2.1903    1.6853   -1.4078 H   0  0  0  0  0  0  0  0  0  0  0  0
   -2.0485    4.3409   -0.4310 H   0  0  0  0  0  0  0  0  0  0  0  0
    0.4923    3.3862   -1.8673 H   0  0  0  0  0  0  0  0  0  0  0  0
    0.1162    5.0733   -1.4518 H   0  0  0  0  0  0  0  0  0  0  0  0
    0.3958    3.8858   -0.1647 H   0  0  0  0  0  0  0  0  0  0  0  0
   -2.5318    5.2211   -2.9119 N   0  0  0  0  0  0  0  0  0  0  0  0
   -3.1462    5.5265   -4.1982 C   0  0  0  0  0  0  0  0  0  0  0  0
   -2.4480    5.9584   -2.2182 H   0  0  0  0  0  0  0  0  0  0  0  0
   -2.4770    5.2466   -5.0185 H   0  0  0  0  0  0  0  0  0  0  0  0
   -4.0893    4.9811   -4.3108 H   0  0  0  0  0  0  0  0  0  0  0  0
   -3.3551    6.5980   -4.2738 H   0  0  0  0  0  0  0  0  0  0  0  0
  1  2  2  0  0  0  0
  1  3  1  0  0  0  0
  1  7  1  0  0  0  0
  3  4  1  0  0  0  0
  3  5  1  0  0  0  0
  3  6  1  0  0  0  0
  7  8  1  0  0  0  0
  7 12  1  0  0  0  0
  8  9  1  0  0  0  0
  8 11  1  0  0  0  0
  8 13  1  0  0  0  0
  9 10  2  0  0  0  0
  9 17  1  0  0  0  0
 11 14  1  0  0  0  0
 11 15  1  0  0  0  0
 11 16  1  0  0  0  0
 17 18  1  0  0  0  0
 17 21  1  0  0  0  0
 18 19  1  0  0  0  0
 18 22  1  0  0  0  0
 18 23  1  0  0  0  0
 19 20  2  0  0  0  0
 19 24  1  0  0  0  0
 24 25  1  0  0  0  0
 24 29  1  0  0  0  0
 25 26  1  0  0  0  0
 25 28  1  0  0  0  0
 25 30  1  0  0  0  0
 26 27  2  0  0  0  0
 26 34  1  0  0  0  0
 28 31  1  0  0  0  0
 28 32  1  0  0  0  0
 28 33  1  0  0  0  0
 34 35  1  0  0  0  0
 34 36  1  0  0  0  0
 35 37  1  0  0  0  0
 35 38  1  0  0  0  0
 35 39  1  0  0  0  0
M  END
$$$$

  -OEChem-05262216283D

 39 38  0     1  0  0  0  0  0999 V2000
   -4.1279   -3.9083   -2.2090 C   0  0  0  0  0  0  0  0  0  0  0  0
   -3.3715   -4.5598   -2.9113 O   0  0  0  0  0  0  0  0  0  0  0  0
   -5.3628   -4.5559   -1.6106 C   0  0  0  0  0  0  0  0  0  0  0  0
   -6.2591   -4.0211   -1.9342 H   0  0  0  0  0  0  0  0  0  0  0  0
   -5.4375   -5.5971   -1.9369 H   0  0  0  0  0  0  0  0  0  0  0  0
   -5.3067   -4.5325   -0.5195 H   0  0  0  0  0  0  0  0  0  0  0  0
   -3.8529   -2.5819   -1.9508 N   0  0  0  0  0  0  0  0  0  0  0  0
   -2.6285   -1.8914   -2.3772 C   0  0  2  0  0  0  0  0  0  0  0  0
   -2.1984   -0.8106   -1.3644 C   0  0  0  0  0  0  0  0  0  0  0  0
   -2.9904   -0.4038   -0.5211 O   0  0  0  0  0  0  0  0  0  0  0  0
   -2.8835   -1.2651   -3.7518 C   0  0  0  0  0  0  0  0  0  0  0  0
   -4.4446   -2.1045   -1.2722 H   0  0  0  0  0  0  0  0  0  0  0  0
   -1.8063   -2.6117   -2.4551 H   0  0  0  0  0  0  0  0  0  0  0  0
   -3.6980   -0.5359   -3.6957 H   0  0  0  0  0  0  0  0  0  0  0  0
   -1.9858   -0.7578   -4.1180 H   0  0  0  0  0  0  0  0  0  0  0  0
   -3.1595   -2.0390   -4.4753 H   0  0  0  0  0  0  0  0  0  0  0  0
   -0.9220   -0.2777   -1.4036 N   0  0  0  0  0  0  0  0  0  0  0  0
   -0.4108    0.8290   -0.5654 C   0  0  0  0  0  0  0  0  0  0  0  0
   -1.1166    2.1969   -0.6684 C   0  0  0  0  0  0  0  0  0  0  0  0
   -0.4250    3.2031   -0.5914 O   0  0  0  0  0  0  0  0  0  0  0  0
   -0.3147   -0.6282   -2.1409 H   0  0  0  0  0  0  0  0  0  0  0  0
    0.6459    0.9845   -0.8033 H   0  0  0  0  0  0  0  0  0  0  0  0
   -0.4618    0.5186    0.4826 H   0  0  0  0  0  0  0  0  0  0  0  0
   -2.4618    2.3093   -0.9722 N   0  0  0  0  0  0  0  0  0  0  0  0
   -3.2602    3.5444   -1.1112 C   0  0  2  0  0  0  0  0  0  0  0  0
   -2.9177    4.4094   -2.3460 C   0  0  0  0  0  0  0  0  0  0  0  0
   -3.8229    4.8401   -3.0489 O   0  0  0  0  0  0  0  0  0  0  0  0
   -3.2108    4.3842    0.1721 C   0  0  0  0  0  0  0  0  0  0  0  0
   -2.9766    1.4278   -0.9036 H   0  0  0  0  0  0  0  0  0  0  0  0
   -4.3003    3.2303   -1.2463 H   0  0  0  0  0  0  0  0  0  0  0  0
   -2.2188    4.8194    0.3239 H   0  0  0  0  0  0  0  0  0  0  0  0
   -3.9354    5.2024    0.1112 H   0  0  0  0  0  0  0  0  0  0  0  0
   -3.4582    3.7664    1.0405 H   0  0  0  0  0  0  0  0  0  0  0  0
   -1.6119    4.7254   -2.6632 N   0  0  0  0  0  0  0  0  0  0  0  0
   -1.2274    5.6107   -3.7534 C   0  0  0  0  0  0  0  0  0  0  0  0
   -0.9000    4.3964   -2.0055 H   0  0  0  0  0  0  0  0  0  0  0  0
   -1.6660    5.2706   -4.6972 H   0  0  0  0  0  0  0  0  0  0  0  0
   -1.5681    6.6317   -3.5543 H   0  0  0  0  0  0  0  0  0  0  0  0
   -0.1389    5.6219   -3.8635 H   0  0  0  0  0  0  0  0  0  0  0  0
  1  2  2  0  0  0  0
  1  3  1  0  0  0  0
  1  7  1  0  0  0  0
  3  4  1  0  0  0  0
  3  5  1  0  0  0  0
  3  6  1  0  0  0  0
  7  8  1  0  0  0  0
  7 12  1  0  0  0  0
  8  9  1  0  0  0  0
  8 11  1  0  0  0  0
  8 13  1  0  0  0  0
  9 10  2  0  0  0  0
  9 17  1  0  0  0  0
 11 14  1  0  0  0  0
 11 15  1  0  0  0  0
 11 16  1  0  0  0  0
 17 18  1  0  0  0  0
 17 21  1  0  0  0  0
 18 19  1  0  0  0  0
 18 22  1  0  0  0  0
 18 23  1  0  0  0  0
 19 20  2  0  0  0  0
 19 24  1  0  0  0  0
 24 25  1  0  0  0  0
 24 29  1  0  0  0  0
 25 26  1  0  0  0  0
 25 28  1  0  0  0  0
 25 30  1  0  0  0  0
 26 27  2  0  0  0  0
 26 34  1  0  0  0  0
 28 31  1  0  0  0  0
 28 32  1  0  0  0  0
 28 33  1  0  0  0  0
 34 35  1  0  0  0  0
 34 36  1  0  0  0  0
 35 37  1  0  0  0  0
 35 38  1  0  0  0  0
 35 39  1  0  0  0  0
M  END
$$$$

  -OEChem-05262216283D

 39 38  0     1  0  0  0  0  0999 V2000
   -4.0744   -3.7048   -2.4826 C   0  0  0  0  0  0  0  0  0  0  0  0
   -3.3612   -4.1871   -3.3479 O   0  0  0  0  0  0  0  0  0  0  0  0
   -5.2631   -4.4830   -1.9512 C   0  0  0  0  0  0  0  0  0  0  0  0
   -6.1886   -3.9458   -2.1726 H   0  0  0  0  0  0  0  0  0  0  0  0
   -5.3068   -5.4700   -2.4199 H   0  0  0  0  0  0  0  0  0  0  0  0
   -5.1738   -4.6115   -0.8697 H   0  0  0  0  0  0  0  0  0  0  0  0
   -3.7929   -2.4522   -1.9798 N   0  0  0  0  0  0  0  0  0  0  0  0
   -2.6159   -1.6560   -2.3508 C   0  0  2  0  0  0  0  0  0  0  0  0
   -2.1272   -0.7708   -1.1864 C   0  0  0  0  0  0  0  0  0  0  0  0
   -2.8485   -0.5694   -0.2146 O   0  0  0  0  0  0  0  0  0  0  0  0
   -2.9853   -0.7889   -3.5592 C   0  0  0  0  0  0  0  0  0  0  0  0
   -4.3461   -2.1284   -1.1877 H   0  0  0  0  0  0  0  0  0  0  0  0
   -1.7903   -2.3228   -2.6224 H   0  0  0  0  0  0  0  0  0  0  0  0
   -3.8121   -0.1154   -3.3105 H   0  0  0  0  0  0  0  0  0  0  0  0
   -2.1302   -0.1857   -3.8787 H   0  0  0  0  0  0  0  0  0  0  0  0
   -3.2923   -1.4209   -4.3989 H   0  0  0  0  0  0  0  0  0  0  0  0
   -0.8811   -0.1705   -1.2372 N   0  0  0  0  0  0  0  0  0  0  0  0
   -0.4010    0.8962   -0.3323 C   0  0  0  0  0  0  0  0  0  0  0  0
   -1.2078    2.2102   -0.3285 C   0  0  0  0  0  0  0  0  0  0  0  0
   -0.6050    3.2595   -0.5098 O   0  0  0  0  0  0  0  0  0  0  0  0
   -0.3484   -0.3336   -2.0887 H   0  0  0  0  0  0  0  0  0  0  0  0
    0.6353    1.1366   -0.5894 H   0  0  0  0  0  0  0  0  0  0  0  0
   -0.3953    0.5111    0.6920 H   0  0  0  0  0  0  0  0  0  0  0  0
   -2.5904    2.2074   -0.2844 N   0  0  0  0  0  0  0  0  0  0  0  0
   -3.5092    3.3496   -0.4516 C   0  0  2  0  0  0  0  0  0  0  0  0
   -3.5073    3.9503   -1.8749 C   0  0  0  0  0  0  0  0  0  0  0  0
   -4.5491    3.9979   -2.5158 O   0  0  0  0  0  0  0  0  0  0  0  0
   -3.2575    4.4319    0.6073 C   0  0  0  0  0  0  0  0  0  0  0  0
   -3.0081    1.2823   -0.1490 H   0  0  0  0  0  0  0  0  0  0  0  0
   -4.5218    2.9689   -0.2821 H   0  0  0  0  0  0  0  0  0  0  0  0
   -2.2998    4.9348    0.4449 H   0  0  0  0  0  0  0  0  0  0  0  0
   -4.0489    5.1867    0.5655 H   0  0  0  0  0  0  0  0  0  0  0  0
   -3.2534    3.9894    1.6078 H   0  0  0  0  0  0  0  0  0  0  0  0
   -2.3382    4.4024   -2.4532 N   0  0  0  0  0  0  0  0  0  0  0  0
   -2.2432    4.9113   -3.8137 C   0  0  0  0  0  0  0  0  0  0  0  0
   -1.4865    4.2795   -1.8985 H   0  0  0  0  0  0  0  0  0  0  0  0
   -2.5399    4.1401   -4.5320 H   0  0  0  0  0  0  0  0  0  0  0  0
   -2.8932    5.7829   -3.9429 H   0  0  0  0  0  0  0  0  0  0  0  0
   -1.2141    5.2120   -4.0321 H   0  0  0  0  0  0  0  0  0  0  0  0
  1  2  2  0  0  0  0
  1  3  1  0  0  0  0
  1  7  1  0  0  0  0
  3  4  1  0  0  0  0
  3  5  1  0  0  0  0
  3  6  1  0  0  0  0
  7  8  1  0  0  0  0
  7 12  1  0  0  0  0
  8  9  1  0  0  0  0
  8 11  1  0  0  0  0
  8 13  1  0  0  0  0
  9 10  2  0  0  0  0
  9 17  1  0  0  0  0
 11 14  1  0  0  0  0
 11 15  1  0  0  0  0
 11 16  1  0  0  0  0
 17 18  1  0  0  0  0
 17 21  1  0  0  0  0
 18 19  1  0  0  0  0
 18 22  1  0  0  0  0
 18 23  1  0  0  0  0
 19 20  2  0  0  0  0
 19 24  1  0  0  0  0
 24 25  1  0  0  0  0
 24 29  1  0  0  0  0
 25 26  1  0  0  0  0
 25 28  1  0  0  0  0
 25 30  1  0  0  0  0
 26 27  2  0  0  0  0
 26 34  1  0  0  0  0
 28 31  1  0  0  0  0
 28 32  1  0  0  0  0
 28 33  1  0  0  0  0
 34 35  1  0  0  0  0
 34 36  1  0  0  0  0
 35 37  1  0  0  0  0
 35 38  1  0  0  0  0
 35 39  1  0  0  0  0
M  END
$$$$

  -OEChem-05262216283D

 39 38  0     1  0  0  0  0  0999 V2000
   -4.5993   -2.1700   -2.2355 C   0  0  0  0  0  0  0  0  0  0  0  0
   -4.2826   -3.3295   -2.4520 O   0  0  0  0  0  0  0  0  0  0  0  0
   -6.0433   -1.8204   -1.9305 C   0  0  0  0  0  0  0  0  0  0  0  0
   -6.4456   -1.1807   -2.7197 H   0  0  0  0  0  0  0  0  0  0  0  0
   -6.6474   -2.7296   -1.8668 H   0  0  0  0  0  0  0  0  0  0  0  0
   -6.1037   -1.2883   -0.9779 H   0  0  0  0  0  0  0  0  0  0  0  0
   -3.6569   -1.1658   -2.2892 N   0  0  0  0  0  0  0  0  0  0  0  0
   -2.2060   -1.3903   -2.3922 C   0  0  2  0  0  0  0  0  0  0  0  0
   -1.4365   -0.7386   -1.2187 C   0  0  0  0  0  0  0  0  0  0  0  0
   -1.7847   -0.9395   -0.0612 O   0  0  0  0  0  0  0  0  0  0  0  0
   -1.7686   -0.8721   -3.7678 C   0  0  0  0  0  0  0  0  0  0  0  0
   -3.9950   -0.2336   -2.0314 H   0  0  0  0  0  0  0  0  0  0  0  0
   -1.9808   -2.4614   -2.3458 H   0  0  0  0  0  0  0  0  0  0  0  0
   -1.9436    0.2052   -3.8504 H   0  0  0  0  0  0  0  0  0  0  0  0
   -0.7067   -1.0758   -3.9363 H   0  0  0  0  0  0  0  0  0  0  0  0
   -2.3397   -1.3755   -4.5548 H   0  0  0  0  0  0  0  0  0  0  0  0
   -0.4182    0.1771   -1.4371 N   0  0  0  0  0  0  0  0  0  0  0  0
    0.0042    1.1989   -0.4555 C   0  0  0  0  0  0  0  0  0  0  0  0
   -1.1081    2.1873   -0.0599 C   0  0  0  0  0  0  0  0  0  0  0  0
   -1.0625    3.3243   -0.5126 O   0  0  0  0  0  0  0  0  0  0  0  0
   -0.2289    0.3788   -2.4153 H   0  0  0  0  0  0  0  0  0  0  0  0
    0.8457    1.7679   -0.8622 H   0  0  0  0  0  0  0  0  0  0  0  0
    0.3612    0.7034    0.4527 H   0  0  0  0  0  0  0  0  0  0  0  0
   -2.2697    1.7197    0.5291 N   0  0  0  0  0  0  0  0  0  0  0  0
   -3.6053    2.3205    0.3835 C   0  0  2  0  0  0  0  0  0  0  0  0
   -4.0590    2.3449   -1.0929 C   0  0  0  0  0  0  0  0  0  0  0  0
   -4.7432    1.4263   -1.5326 O   0  0  0  0  0  0  0  0  0  0  0  0
   -3.6935    3.6997    1.0550 C   0  0  0  0  0  0  0  0  0  0  0  0
   -2.2527    0.7065    0.6917 H   0  0  0  0  0  0  0  0  0  0  0  0
   -4.3105    1.6709    0.9123 H   0  0  0  0  0  0  0  0  0  0  0  0
   -3.0811    4.4427    0.5372 H   0  0  0  0  0  0  0  0  0  0  0  0
   -4.7297    4.0517    1.0525 H   0  0  0  0  0  0  0  0  0  0  0  0
   -3.3532    3.6344    2.0929 H   0  0  0  0  0  0  0  0  0  0  0  0
   -3.5546    3.2833   -1.9708 N   0  0  0  0  0  0  0  0  0  0  0  0
   -3.7771    3.2407   -3.4097 C   0  0  0  0  0  0  0  0  0  0  0  0
   -2.7604    3.8212   -1.6137 H   0  0  0  0  0  0  0  0  0  0  0  0
   -3.3601    2.3232   -3.8368 H   0  0  0  0  0  0  0  0  0  0  0  0
   -4.8485    3.2788   -3.6325 H   0  0  0  0  0  0  0  0  0  0  0  0
   -3.2958    4.0983   -3.8896 H   0  0  0  0  0  0  0  0  0  0  0  0
  1  2  2  0  0  0  0
  1  3  1  0  0  0  0
  1  7  1  0  0  0  0
  3  4  1  0  0  0  0
  3  5  1  0  0  0  0
  3  6  1  0  0  0  0
  7  8  1  0  0  0  0
  7 12  1  0  0  0  0
  8  9  1  0  0  0  0
  8 11  1  0  0  0  0
  8 13  1  0  0  0  0
  9 10  2  0  0  0  0
  9 17  1  0  0  0  0
 11 14  1  0  0  0  0
 11 15  1  0  0  0  0
 11 16  1  0  0  0  0
 17 18  1  0  0  0  0
 17 21  1  0  0  0  0
 18 19  1  0  0  0  0
 18 22  1  0  0  0  0
 18 23  1  0  0  0  0
 19 20  2  0  0  0  0
 19 24  1  0  0  0  0
 24 25  1  0  0  0  0
 24 29  1  0  0  0  0
 25 26  1  0  0  0  0
 25 28  1  0  0  0  0
 25 30  1  0  0  0  0
 26 27  2  0  0  0  0
 26 34  1  0  0  0  0
 28 31  1  0  0  0  0
 28 32  1  0  0  0  0
 28 33  1  0  0  0  0
 34 35  1  0  0  0  0
 34 36  1  0  0  0  0
 35 37  1  0  0  0  0
 35 38  1  0  0  0  0
 35 39  1  0  0  0  0
M  END
$$$$

  -OEChem-05262216283D

 39 38  0     1  0  0  0  0  0999 V2000
   -4.7760   -1.9039   -2.4167 C   0  0  0  0  0  0  0  0  0  0  0  0
   -4.5090   -2.8772   -3.1053 O   0  0  0  0  0  0  0  0  0  0  0  0
   -6.2128   -1.6154   -2.0263 C   0  0  0  0  0  0  0  0  0  0  0  0
   -6.5218   -0.6491   -2.4324 H   0  0  0  0  0  0  0  0  0  0  0  0
   -6.8748   -2.3932   -2.4166 H   0  0  0  0  0  0  0  0  0  0  0  0
   -6.3038   -1.5863   -0.9377 H   0  0  0  0  0  0  0  0  0  0  0  0
   -3.7734   -1.0534   -2.0046 N   0  0  0  0  0  0  0  0  0  0  0  0
   -2.3379   -1.3038   -2.2099 C   0  0  2  0  0  0  0  0  0  0  0  0
   -1.4791   -0.6727   -1.0892 C   0  0  0  0  0  0  0  0  0  0  0  0
   -1.7765   -0.8481    0.0871 O   0  0  0  0  0  0  0  0  0  0  0  0
   -1.9604   -0.7949   -3.6093 C   0  0  0  0  0  0  0  0  0  0  0  0
   -4.0610   -0.3036   -1.3675 H   0  0  0  0  0  0  0  0  0  0  0  0
   -2.1479   -2.3824   -2.1710 H   0  0  0  0  0  0  0  0  0  0  0  0
   -2.1193    0.2851   -3.6850 H   0  0  0  0  0  0  0  0  0  0  0  0
   -0.9120   -1.0174   -3.8300 H   0  0  0  0  0  0  0  0  0  0  0  0
   -2.5761   -1.2875   -4.3688 H   0  0  0  0  0  0  0  0  0  0  0  0
   -0.4354    0.1972   -1.3685 N   0  0  0  0  0  0  0  0  0  0  0  0
    0.0425    1.2080   -0.4046 C   0  0  0  0  0  0  0  0  0  0  0  0
   -1.0509    2.2127   -0.0078 C   0  0  0  0  0  0  0  0  0  0  0  0
   -1.1382    3.2646   -0.6289 O   0  0  0  0  0  0  0  0  0  0  0  0
   -0.3027    0.4035   -2.3553 H   0  0  0  0  0  0  0  0  0  0  0  0
    0.8825    1.7597   -0.8369 H   0  0  0  0  0  0  0  0  0  0  0  0
    0.4127    0.7133    0.4987 H   0  0  0  0  0  0  0  0  0  0  0  0
   -2.0508    1.8162    0.8626 N   0  0  0  0  0  0  0  0  0  0  0  0
   -3.4085    2.3852    0.9062 C   0  0  2  0  0  0  0  0  0  0  0  0
   -4.1538    2.1963   -0.4349 C   0  0  0  0  0  0  0  0  0  0  0  0
   -4.9057    1.2392   -0.5847 O   0  0  0  0  0  0  0  0  0  0  0  0
   -3.4061    3.8465    1.3811 C   0  0  0  0  0  0  0  0  0  0  0  0
   -1.9901    0.8179    1.0909 H   0  0  0  0  0  0  0  0  0  0  0  0
   -3.9716    1.8168    1.6537 H   0  0  0  0  0  0  0  0  0  0  0  0
   -2.9337    4.5101    0.6521 H   0  0  0  0  0  0  0  0  0  0  0  0
   -4.4330    4.1904    1.5380 H   0  0  0  0  0  0  0  0  0  0  0  0
   -2.8644    3.9322    2.3278 H   0  0  0  0  0  0  0  0  0  0  0  0
   -3.8539    2.9833   -1.5290 N   0  0  0  0  0  0  0  0  0  0  0  0
   -4.3721    2.7347   -2.8678 C   0  0  0  0  0  0  0  0  0  0  0  0
   -3.0157    3.5617   -1.4265 H   0  0  0  0  0  0  0  0  0  0  0  0
   -4.0468    1.7551   -3.2319 H   0  0  0  0  0  0  0  0  0  0  0  0
   -5.4667    2.7642   -2.8659 H   0  0  0  0  0  0  0  0  0  0  0  0
   -4.0090    3.5010   -3.5597 H   0  0  0  0  0  0  0  0  0  0  0  0
  1  2  2  0  0  0  0
  1  3  1  0  0  0  0
  1  7  1  0  0  0  0
  3  4  1  0  0  0  0
  3  5  1  0  0  0  0
  3  6  1  0  0  0  0
  7  8  1  0  0  0  0
  7 12  1  0  0  0  0
  8  9  1  0  0  0  0
  8 11  1  0  0  0  0
  8 13  1  0  0  0  0
  9 10  2  0  0  0  0
  9 17  1  0  0  0  0
 11 14  1  0  0  0  0
 11 15  1  0  0  0  0
 11 16  1  0  0  0  0
 17 18  1  0  0  0  0
 17 21  1  0  0  0  0
 18 19  1  0  0  0  0
 18 22  1  0  0  0  0
 18 23  1  0  0  0  0
 19 20  2  0  0  0  0
 19 24  1  0  0  0  0
 24 25  1  0  0  0  0
 24 29  1  0  0  0  0
 25 26  1  0  0  0  0
 25 28  1  0  0  0  0
 25 30  1  0  0  0  0
 26 27  2  0  0  0  0
 26 34  1  0  0  0  0
 28 31  1  0  0  0  0
 28 32  1  0  0  0  0
 28 33  1  0  0  0  0
 34 35  1  0  0  0  0
 34 36  1  0  0  0  0
 35 37  1  0  0  0  0
 35 38  1  0  0  0  0
 35 39  1  0  0  0  0
M  END
$$$$

  -OEChem-05262216283D

 39 38  0     1  0  0  0  0  0999 V2000
   -4.8606   -1.7670   -2.2331 C   0  0  0  0  0  0  0  0  0  0  0  0
   -4.6560   -2.6264   -3.0771 O   0  0  0  0  0  0  0  0  0  0  0  0
   -6.2523   -1.5668   -1.6644 C   0  0  0  0  0  0  0  0  0  0  0  0
   -6.6132   -0.5645   -1.9073 H   0  0  0  0  0  0  0  0  0  0  0  0
   -6.9426   -2.3043   -2.0819 H   0  0  0  0  0  0  0  0  0  0  0  0
   -6.2288   -1.6791   -0.5777 H   0  0  0  0  0  0  0  0  0  0  0  0
   -3.8288   -0.9636   -1.8011 N   0  0  0  0  0  0  0  0  0  0  0  0
   -2.4154   -1.1591   -2.1611 C   0  0  2  0  0  0  0  0  0  0  0  0
   -1.4739   -0.6677   -1.0371 C   0  0  0  0  0  0  0  0  0  0  0  0
   -1.7589   -0.8783    0.1380 O   0  0  0  0  0  0  0  0  0  0  0  0
   -2.1566   -0.4520   -3.4999 C   0  0  0  0  0  0  0  0  0  0  0  0
   -4.0550   -0.3293   -1.0278 H   0  0  0  0  0  0  0  0  0  0  0  0
   -2.2167   -2.2291   -2.2880 H   0  0  0  0  0  0  0  0  0  0  0  0
   -2.2975    0.6287   -3.3997 H   0  0  0  0  0  0  0  0  0  0  0  0
   -1.1373   -0.6459   -3.8473 H   0  0  0  0  0  0  0  0  0  0  0  0
   -2.8488   -0.8219   -4.2631 H   0  0  0  0  0  0  0  0  0  0  0  0
   -0.3815    0.1489   -1.2959 N   0  0  0  0  0  0  0  0  0  0  0  0
    0.0917    1.1037   -0.2777 C   0  0  0  0  0  0  0  0  0  0  0  0
   -1.0090    2.1121    0.0818 C   0  0  0  0  0  0  0  0  0  0  0  0
   -1.1888    3.0836   -0.6425 O   0  0  0  0  0  0  0  0  0  0  0  0
   -0.2748    0.4253   -2.2688 H   0  0  0  0  0  0  0  0  0  0  0  0
    0.9609    1.6506   -0.6551 H   0  0  0  0  0  0  0  0  0  0  0  0
    0.4102    0.5717    0.6244 H   0  0  0  0  0  0  0  0  0  0  0  0
   -1.8820    1.8100    1.1118 N   0  0  0  0  0  0  0  0  0  0  0  0
   -3.2347    2.3780    1.2472 C   0  0  2  0  0  0  0  0  0  0  0  0
   -4.1218    2.1057    0.0081 C   0  0  0  0  0  0  0  0  0  0  0  0
   -4.8656    1.1311   -0.0089 O   0  0  0  0  0  0  0  0  0  0  0  0
   -3.1833    3.8676    1.6197 C   0  0  0  0  0  0  0  0  0  0  0  0
   -1.7904    0.8365    1.4154 H   0  0  0  0  0  0  0  0  0  0  0  0
   -3.7180    1.8637    2.0842 H   0  0  0  0  0  0  0  0  0  0  0  0
   -2.7543    4.4717    0.8160 H   0  0  0  0  0  0  0  0  0  0  0  0
   -4.1928    4.2381    1.8229 H   0  0  0  0  0  0  0  0  0  0  0  0
   -2.5756    4.0087    2.5186 H   0  0  0  0  0  0  0  0  0  0  0  0
   -4.0008    2.8665   -1.1382 N   0  0  0  0  0  0  0  0  0  0  0  0
   -4.7165    2.5842   -2.3761 C   0  0  0  0  0  0  0  0  0  0  0  0
   -3.1617    3.4504   -1.1794 H   0  0  0  0  0  0  0  0  0  0  0  0
   -4.4226    1.6119   -2.7819 H   0  0  0  0  0  0  0  0  0  0  0  0
   -5.7973    2.5789   -2.2006 H   0  0  0  0  0  0  0  0  0  0  0  0
   -4.4943    3.3531   -3.1224 H   0  0  0  0  0  0  0  0  0  0  0  0
  1  2  2  0  0  0  0
  1  3  1  0  0  0  0
  1  7  1  0  0  0  0
  3  4  1  0  0  0  0
  3  5  1  0  0  0  0
  3  6  1  0  0  0  0
  7  8  1  0  0  0  0
  7 12  1  0  0  0  0
  8  9  1  0  0  0  0
  8 11  1  0  0  0  0
  8 13  1  0  0  0  0
  9 10  2  0  0  0  0
  9 17  1  0  0  0  0
 11 14  1  0  0  0  0
 11 15  1  0  0  0  0
 11 16  1  0  0  0  0
 17 18  1  0  0  0  0
 17 21  1  0  0  0  0
 18 19  1  0  0  0  0
 18 22  1  0  0  0  0
 18 23  1  0  0  0  0
 19 20  2  0  0  0  0
 19 24  1  0  0  0  0
 24 25  1  0  0  0  0
 24 29  1  0  0  0  0
 25 26  1  0  0  0  0
 25 28  1  0  0  0  0
 25 30  1  0  0  0  0
 26 27  2  0  0  0  0
 26 34  1  0  0  0  0
 28 31  1  0  0  0  0
 28 32  1  0  0  0  0
 28 33  1  0  0  0  0
 34 35  1  0  0  0  0
 34 36  1  0  0  0  0
 35 37  1  0  0  0  0
 35 38  1  0  0  0  0
 35 39  1  0  0  0  0
M  END
$$$$

  -OEChem-05262216283D

 39 38  0     1  0  0  0  0  0999 V2000
   -3.5366   -3.2592   -3.3708 C   0  0  0  0  0  0  0  0  0  0  0  0
   -2.5869   -3.8474   -3.8631 O   0  0  0  0  0  0  0  0  0  0  0  0
   -4.9505   -3.7481   -3.6232 C   0  0  0  0  0  0  0  0  0  0  0  0
   -5.5518   -2.9448   -4.0557 H   0  0  0  0  0  0  0  0  0  0  0  0
   -4.9391   -4.5924   -4.3183 H   0  0  0  0  0  0  0  0  0  0  0  0
   -5.4070   -4.0709   -2.6843 H   0  0  0  0  0  0  0  0  0  0  0  0
   -3.3249   -2.1548   -2.5732 N   0  0  0  0  0  0  0  0  0  0  0  0
   -2.0021   -1.6822   -2.1446 C   0  0  2  0  0  0  0  0  0  0  0  0
   -2.0604   -1.0193   -0.7534 C   0  0  0  0  0  0  0  0  0  0  0  0
   -3.1400   -0.6939   -0.2676 O   0  0  0  0  0  0  0  0  0  0  0  0
   -1.4845   -0.6845   -3.1861 C   0  0  0  0  0  0  0  0  0  0  0  0
   -4.1314   -1.7673   -2.0846 H   0  0  0  0  0  0  0  0  0  0  0  0
   -1.3108   -2.5292   -2.0768 H   0  0  0  0  0  0  0  0  0  0  0  0
   -2.1571    0.1764   -3.2580 H   0  0  0  0  0  0  0  0  0  0  0  0
   -0.4876   -0.3237   -2.9151 H   0  0  0  0  0  0  0  0  0  0  0  0
   -1.4219   -1.1616   -4.1693 H   0  0  0  0  0  0  0  0  0  0  0  0
   -0.8995   -0.7518   -0.0492 N   0  0  0  0  0  0  0  0  0  0  0  0
   -0.8752    0.2368    1.0406 C   0  0  0  0  0  0  0  0  0  0  0  0
   -1.2668    1.6426    0.5644 C   0  0  0  0  0  0  0  0  0  0  0  0
   -0.4825    2.2812   -0.1257 O   0  0  0  0  0  0  0  0  0  0  0  0
   -0.0333   -0.8979   -0.5618 H   0  0  0  0  0  0  0  0  0  0  0  0
    0.1282    0.2863    1.4727 H   0  0  0  0  0  0  0  0  0  0  0  0
   -1.5563   -0.0740    1.8391 H   0  0  0  0  0  0  0  0  0  0  0  0
   -2.5070    2.1682    0.8609 N   0  0  0  0  0  0  0  0  0  0  0  0
   -3.0184    3.4434    0.3464 C   0  0  2  0  0  0  0  0  0  0  0  0
   -4.1103    4.0393    1.2598 C   0  0  0  0  0  0  0  0  0  0  0  0
   -4.7001    3.3321    2.0689 O   0  0  0  0  0  0  0  0  0  0  0  0
   -3.5750    3.2046   -1.0615 C   0  0  0  0  0  0  0  0  0  0  0  0
   -3.1767    1.5484    1.3181 H   0  0  0  0  0  0  0  0  0  0  0  0
   -2.2001    4.1690    0.2947 H   0  0  0  0  0  0  0  0  0  0  0  0
   -4.3926    2.4771   -1.0290 H   0  0  0  0  0  0  0  0  0  0  0  0
   -3.9541    4.1377   -1.4885 H   0  0  0  0  0  0  0  0  0  0  0  0
   -2.7920    2.8176   -1.7213 H   0  0  0  0  0  0  0  0  0  0  0  0
   -4.4373    5.3803    1.1719 N   0  0  0  0  0  0  0  0  0  0  0  0
   -5.4479    6.0128    2.0110 C   0  0  0  0  0  0  0  0  0  0  0  0
   -3.9272    5.9468    0.5007 H   0  0  0  0  0  0  0  0  0  0  0  0
   -6.4281    5.5553    1.8402 H   0  0  0  0  0  0  0  0  0  0  0  0
   -5.1887    5.9057    3.0698 H   0  0  0  0  0  0  0  0  0  0  0  0
   -5.5191    7.0797    1.7792 H   0  0  0  0  0  0  0  0  0  0  0  0
  1  2  2  0  0  0  0
  1  3  1  0  0  0  0
  1  7  1  0  0  0  0
  3  4  1  0  0  0  0
  3  5  1  0  0  0  0
  3  6  1  0  0  0  0
  7  8  1  0  0  0  0
  7 12  1  0  0  0  0
  8  9  1  0  0  0  0
  8 11  1  0  0  0  0
  8 13  1  0  0  0  0
  9 10  2  0  0  0  0
  9 17  1  0  0  0  0
 11 14  1  0  0  0  0
 11 15  1  0  0  0  0
 11 16  1  0  0  0  0
 17 18  1  0  0  0  0
 17 21  1  0  0  0  0
 18 19  1  0  0  0  0
 18 22  1  0  0  0  0
 18 23  1  0  0  0  0
 19 20  2  0  0  0  0
 19 24  1  0  0  0  0
 24 25  1  0  0  0  0
 24 29  1  0  0  0  0
 25 26  1  0  0  0  0
 25 28  1  0  0  0  0
 25 30  1  0  0  0  0
 26 27  2  0  0  0  0
 26 34  1  0  0  0  0
 28 31  1  0  0  0  0
 28 32  1  0  0  0  0
 28 33  1  0  0  0  0
 34 35  1  0  0  0  0
 34 36  1  0  0  0  0
 35 37  1  0  0  0  0
 35 38  1  0  0  0  0
 35 39  1  0  0  0  0
M  END
$$$$

  -OEChem-05262216283D

 39 38  0     1  0  0  0  0  0999 V2000
   -3.5075   -3.3790   -3.2256 C   0  0  0  0  0  0  0  0  0  0  0  0
   -2.5716   -4.1619   -3.2610 O   0  0  0  0  0  0  0  0  0  0  0  0
   -4.9202   -3.8751   -3.4706 C   0  0  0  0  0  0  0  0  0  0  0  0
   -5.3582   -3.3470   -4.3211 H   0  0  0  0  0  0  0  0  0  0  0  0
   -4.9120   -4.9472   -3.6873 H   0  0  0  0  0  0  0  0  0  0  0  0
   -5.5358   -3.6994   -2.5848 H   0  0  0  0  0  0  0  0  0  0  0  0
   -3.2948   -2.0444   -2.9489 N   0  0  0  0  0  0  0  0  0  0  0  0
   -2.0270   -1.5099   -2.4303 C   0  0  2  0  0  0  0  0  0  0  0  0
   -2.1716   -1.0119   -0.9783 C   0  0  0  0  0  0  0  0  0  0  0  0
   -3.2672   -0.6558   -0.5539 O   0  0  0  0  0  0  0  0  0  0  0  0
   -1.5951   -0.3574   -3.3404 C   0  0  0  0  0  0  0  0  0  0  0  0
   -4.1295   -1.5023   -2.7350 H   0  0  0  0  0  0  0  0  0  0  0  0
   -1.2463   -2.2777   -2.4433 H   0  0  0  0  0  0  0  0  0  0  0  0
   -2.3423    0.4428   -3.3287 H   0  0  0  0  0  0  0  0  0  0  0  0
   -0.6390    0.0577   -3.0062 H   0  0  0  0  0  0  0  0  0  0  0  0
   -1.4773   -0.7110   -4.3693 H   0  0  0  0  0  0  0  0  0  0  0  0
   -1.0609   -0.8935   -0.1617 N   0  0  0  0  0  0  0  0  0  0  0  0
   -1.0747   -0.0167    1.0198 C   0  0  0  0  0  0  0  0  0  0  0  0
   -1.3410    1.4520    0.6572 C   0  0  0  0  0  0  0  0  0  0  0  0
   -0.5863    2.0254   -0.1194 O   0  0  0  0  0  0  0  0  0  0  0  0
   -0.1655   -1.0347   -0.6226 H   0  0  0  0  0  0  0  0  0  0  0  0
   -0.1131   -0.0760    1.5371 H   0  0  0  0  0  0  0  0  0  0  0  0
   -1.8424   -0.3592    1.7209 H   0  0  0  0  0  0  0  0  0  0  0  0
   -2.4353    2.1201    1.1668 N   0  0  0  0  0  0  0  0  0  0  0  0
   -2.8267    3.4874    0.8073 C   0  0  2  0  0  0  0  0  0  0  0  0
   -3.7028    4.1384    1.8987 C   0  0  0  0  0  0  0  0  0  0  0  0
   -4.2041    3.4539    2.7839 O   0  0  0  0  0  0  0  0  0  0  0  0
   -3.5835    3.4384   -0.5252 C   0  0  0  0  0  0  0  0  0  0  0  0
   -3.0772    1.5944    1.7596 H   0  0  0  0  0  0  0  0  0  0  0  0
   -1.9296    4.1050    0.6935 H   0  0  0  0  0  0  0  0  0  0  0  0
   -4.4789    2.8150   -0.4324 H   0  0  0  0  0  0  0  0  0  0  0  0
   -3.8875    4.4431   -0.8336 H   0  0  0  0  0  0  0  0  0  0  0  0
   -2.9478    3.0160   -1.3099 H   0  0  0  0  0  0  0  0  0  0  0  0
   -3.9303    5.5025    1.8918 N   0  0  0  0  0  0  0  0  0  0  0  0
   -4.7478    6.1821    2.8895 C   0  0  0  0  0  0  0  0  0  0  0  0
   -3.5015    6.0481    1.1501 H   0  0  0  0  0  0  0  0  0  0  0  0
   -5.7739    5.8000    2.8680 H   0  0  0  0  0  0  0  0  0  0  0  0
   -4.3357    6.0277    3.8924 H   0  0  0  0  0  0  0  0  0  0  0  0
   -4.7746    7.2575    2.6889 H   0  0  0  0  0  0  0  0  0  0  0  0
  1  2  2  0  0  0  0
  1  3  1  0  0  0  0
  1  7  1  0  0  0  0
  3  4  1  0  0  0  0
  3  5  1  0  0  0  0
  3  6  1  0  0  0  0
  7  8  1  0  0  0  0
  7 12  1  0  0  0  0
  8  9  1  0  0  0  0
  8 11  1  0  0  0  0
  8 13  1  0  0  0  0
  9 10  2  0  0  0  0
  9 17  1  0  0  0  0
 11 14  1  0  0  0  0
 11 15  1  0  0  0  0
 11 16  1  0  0  0  0
 17 18  1  0  0  0  0
 17 21  1  0  0  0  0
 18 19  1  0  0  0  0
 18 22  1  0  0  0  0
 18 23  1  0  0  0  0
 19 20  2  0  0  0  0
 19 24  1  0  0  0  0
 24 25  1  0  0  0  0
 24 29  1  0  0  0  0
 25 26  1  0  0  0  0
 25 28  1  0  0  0  0
 25 30  1  0  0  0  0
 26 27  2  0  0  0  0
 26 34  1  0  0  0  0
 28 31  1  0  0  0  0
 28 32  1  0  0  0  0
 28 33  1  0  0  0  0
 34 35  1  0  0  0  0
 34 36  1  0  0  0  0
 35 37  1  0  0  0  0
 35 38  1  0  0  0  0
 35 39  1  0  0  0  0
M  END
$$$$

  -OEChem-05262216283D

 39 38  0     1  0  0  0  0  0999 V2000
   -3.5399   -3.3457   -3.3432 C   0  0  0  0  0  0  0  0  0  0  0  0
   -2.5853   -4.0901   -3.5012 O   0  0  0  0  0  0  0  0  0  0  0  0
   -4.9465   -3.8553   -3.5930 C   0  0  0  0  0  0  0  0  0  0  0  0
   -5.4165   -3.2748   -4.3903 H   0  0  0  0  0  0  0  0  0  0  0  0
   -4.9188   -4.9068   -3.8921 H   0  0  0  0  0  0  0  0  0  0  0  0
   -5.5447   -3.7636   -2.6830 H   0  0  0  0  0  0  0  0  0  0  0  0
   -3.3513   -2.0431   -2.9314 N   0  0  0  0  0  0  0  0  0  0  0  0
   -2.0749   -1.5208   -2.4231 C   0  0  2  0  0  0  0  0  0  0  0  0
   -2.1983   -1.0477   -0.9611 C   0  0  0  0  0  0  0  0  0  0  0  0
   -3.2949   -0.7422   -0.5009 O   0  0  0  0  0  0  0  0  0  0  0  0
   -1.6544   -0.3562   -3.3225 C   0  0  0  0  0  0  0  0  0  0  0  0
   -4.1884   -1.5460   -2.6322 H   0  0  0  0  0  0  0  0  0  0  0  0
   -1.2975   -2.2911   -2.4562 H   0  0  0  0  0  0  0  0  0  0  0  0
   -2.4013    0.4438   -3.2892 H   0  0  0  0  0  0  0  0  0  0  0  0
   -0.6939    0.0548   -2.9958 H   0  0  0  0  0  0  0  0  0  0  0  0
   -1.5517   -0.6960   -4.3579 H   0  0  0  0  0  0  0  0  0  0  0  0
   -1.0722   -0.9119   -0.1687 N   0  0  0  0  0  0  0  0  0  0  0  0
   -1.0843   -0.0276    1.0074 C   0  0  0  0  0  0  0  0  0  0  0  0
   -1.3810    1.4373    0.6474 C   0  0  0  0  0  0  0  0  0  0  0  0
   -0.8039    1.9563   -0.3016 O   0  0  0  0  0  0  0  0  0  0  0  0
   -0.1883   -1.0073   -0.6619 H   0  0  0  0  0  0  0  0  0  0  0  0
   -0.1163   -0.0692    1.5138 H   0  0  0  0  0  0  0  0  0  0  0  0
   -1.8384   -0.3807    1.7176 H   0  0  0  0  0  0  0  0  0  0  0  0
   -2.2770    2.1809    1.3884 N   0  0  0  0  0  0  0  0  0  0  0  0
   -2.6425    3.5750    1.1139 C   0  0  2  0  0  0  0  0  0  0  0  0
   -3.1786    4.2784    2.3789 C   0  0  0  0  0  0  0  0  0  0  0  0
   -3.5078    3.6201    3.3600 O   0  0  0  0  0  0  0  0  0  0  0  0
   -3.7003    3.5893    0.0045 C   0  0  0  0  0  0  0  0  0  0  0  0
   -2.7435    1.7264    2.1728 H   0  0  0  0  0  0  0  0  0  0  0  0
   -1.7570    4.1257    0.7791 H   0  0  0  0  0  0  0  0  0  0  0  0
   -4.5888    3.0312    0.3173 H   0  0  0  0  0  0  0  0  0  0  0  0
   -3.9975    4.6150   -0.2323 H   0  0  0  0  0  0  0  0  0  0  0  0
   -3.3040    3.1277   -0.9055 H   0  0  0  0  0  0  0  0  0  0  0  0
   -3.2864    5.6563    2.4227 N   0  0  0  0  0  0  0  0  0  0  0  0
   -3.7892    6.3820    3.5828 C   0  0  0  0  0  0  0  0  0  0  0  0
   -3.0016    6.1783    1.5992 H   0  0  0  0  0  0  0  0  0  0  0  0
   -4.8237    6.0924    3.7952 H   0  0  0  0  0  0  0  0  0  0  0  0
   -3.1752    6.1692    4.4643 H   0  0  0  0  0  0  0  0  0  0  0  0
   -3.7631    7.4597    3.3961 H   0  0  0  0  0  0  0  0  0  0  0  0
  1  2  2  0  0  0  0
  1  3  1  0  0  0  0
  1  7  1  0  0  0  0
  3  4  1  0  0  0  0
  3  5  1  0  0  0  0
  3  6  1  0  0  0  0
  7  8  1  0  0  0  0
  7 12  1  0  0  0  0
  8  9  1  0  0  0  0
  8 11  1  0  0  0  0
  8 13  1  0  0  0  0
  9 10  2  0  0  0  0
  9 17  1  0  0  0  0
 11 14  1  0  0  0  0
 11 15  1  0  0  0  0
 11 16  1  0  0  0  0
 17 18  1  0  0  0  0
 17 21  1  0  0  0  0
 18 19  1  0  0  0  0
 18 22  1  0  0  0  0
 18 23  1  0  0  0  0
 19 20  2  0  0  0  0
 19 24  1  0  0  0  0
 24 25  1  0  0  0  0
 24 29  1  0  0  0  0
 25 26  1  0  0  0  0
 25 28  1  0  0  0  0
 25 30  1  0  0  0  0
 26 27  2  0  0  0  0
 26 34  1  0  0  0  0
 28 31  1  0  0  0  0
 28 32  1  0  0  0  0
 28 33  1  0  0  0  0
 34 35  1  0  0  0  0
 34 36  1  0  0  0  0
 35 37  1  0  0  0  0
 35 38  1  0  0  0  0
 35 39  1  0  0  0  0
M  END
$$$$

  -OEChem-05262216283D

 39 38  0     1  0  0  0  0  0999 V2000
   -3.6100   -3.2943   -3.3207 C   0  0  0  0  0  0  0  0  0  0  0  0
   -2.7007   -4.1086   -3.3517 O   0  0  0  0  0  0  0  0  0  0  0  0
   -5.0353   -3.7439   -3.5815 C   0  0  0  0  0  0  0  0  0  0  0  0
   -5.4050   -3.2940   -4.5060 H   0  0  0  0  0  0  0  0  0  0  0  0
   -5.0751   -4.8325   -3.6775 H   0  0  0  0  0  0  0  0  0  0  0  0
   -5.6804   -3.4410   -2.7531 H   0  0  0  0  0  0  0  0  0  0  0  0
   -3.3568   -1.9690   -3.0333 N   0  0  0  0  0  0  0  0  0  0  0  0
   -2.0839   -1.4903   -2.4738 C   0  0  2  0  0  0  0  0  0  0  0  0
   -2.2367   -1.0560   -1.0017 C   0  0  0  0  0  0  0  0  0  0  0  0
   -3.3407   -0.7560   -0.5550 O   0  0  0  0  0  0  0  0  0  0  0  0
   -1.6107   -0.3107   -3.3265 C   0  0  0  0  0  0  0  0  0  0  0  0
   -4.1766   -1.4046   -2.8188 H   0  0  0  0  0  0  0  0  0  0  0  0
   -1.3217   -2.2757   -2.5117 H   0  0  0  0  0  0  0  0  0  0  0  0
   -2.3399    0.5053   -3.2920 H   0  0  0  0  0  0  0  0  0  0  0  0
   -0.6519    0.0684   -2.9590 H   0  0  0  0  0  0  0  0  0  0  0  0
   -1.4829   -0.6231   -4.3676 H   0  0  0  0  0  0  0  0  0  0  0  0
   -1.1259   -0.9518   -0.1824 N   0  0  0  0  0  0  0  0  0  0  0  0
   -1.1548   -0.0876    1.0092 C   0  0  0  0  0  0  0  0  0  0  0  0
   -1.4228    1.3917    0.6808 C   0  0  0  0  0  0  0  0  0  0  0  0
   -0.9982    1.8747   -0.3638 O   0  0  0  0  0  0  0  0  0  0  0  0
   -0.2353   -1.0390   -0.6643 H   0  0  0  0  0  0  0  0  0  0  0  0
   -0.2005   -0.1567    1.5381 H   0  0  0  0  0  0  0  0  0  0  0  0
   -1.9328   -0.4430    1.6919 H   0  0  0  0  0  0  0  0  0  0  0  0
   -2.0750    2.2058    1.5856 N   0  0  0  0  0  0  0  0  0  0  0  0
   -2.3655    3.6291    1.3742 C   0  0  2  0  0  0  0  0  0  0  0  0
   -2.5418    4.3840    2.7086 C   0  0  0  0  0  0  0  0  0  0  0  0
   -2.6475    3.7644    3.7616 O   0  0  0  0  0  0  0  0  0  0  0  0
   -3.6356    3.7415    0.5233 C   0  0  0  0  0  0  0  0  0  0  0  0
   -2.3678    1.7997    2.4737 H   0  0  0  0  0  0  0  0  0  0  0  0
   -1.5302    4.0965    0.8423 H   0  0  0  0  0  0  0  0  0  0  0  0
   -4.4829    3.2782    1.0389 H   0  0  0  0  0  0  0  0  0  0  0  0
   -3.8771    4.7903    0.3274 H   0  0  0  0  0  0  0  0  0  0  0  0
   -3.4960    3.2363   -0.4378 H   0  0  0  0  0  0  0  0  0  0  0  0
   -2.5738    5.7663    2.7292 N   0  0  0  0  0  0  0  0  0  0  0  0
   -2.7360    6.5463    3.9497 C   0  0  0  0  0  0  0  0  0  0  0  0
   -2.4796    6.2521    1.8421 H   0  0  0  0  0  0  0  0  0  0  0  0
   -3.6807    6.2942    4.4428 H   0  0  0  0  0  0  0  0  0  0  0  0
   -1.9123    6.3480    4.6434 H   0  0  0  0  0  0  0  0  0  0  0  0
   -2.7424    7.6156    3.7172 H   0  0  0  0  0  0  0  0  0  0  0  0
  1  2  2  0  0  0  0
  1  3  1  0  0  0  0
  1  7  1  0  0  0  0
  3  4  1  0  0  0  0
  3  5  1  0  0  0  0
  3  6  1  0  0  0  0
  7  8  1  0  0  0  0
  7 12  1  0  0  0  0
  8  9  1  0  0  0  0
  8 11  1  0  0  0  0
  8 13  1  0  0  0  0
  9 10  2  0  0  0  0
  9 17  1  0  0  0  0
 11 14  1  0  0  0  0
 11 15  1  0  0  0  0
 11 16  1  0  0  0  0
 17 18  1  0  0  0  0
 17 21  1  0  0  0  0
 18 19  1  0  0  0  0
 18 22  1  0  0  0  0
 18 23  1  0  0  0  0
 19 20  2  0  0  0  0
 19 24  1  0  0  0  0
 24 25  1  0  0  0  0
 24 29  1  0  0  0  0
 25 26  1  0  0  0  0
 25 28  1  0  0  0  0
 25 30  1  0  0  0  0
 26 27  2  0  0  0  0
 26 34  1  0  0  0  0
 28 31  1  0  0  0  0
 28 32  1  0  0  0  0
 28 33  1  0  0  0  0
 34 35  1  0  0  0  0
 34 36  1  0  0  0  0
 35 37  1  0  0  0  0
 35 38  1  0  0  0  0
 35 39  1  0  0  0  0
M  END
$$$$

  -OEChem-05262216283D

 39 38  0     1  0  0  0  0  0999 V2000
   -3.5710   -3.3182   -3.4416 C   0  0  0  0  0  0  0  0  0  0  0  0
   -2.6113   -4.0632   -3.5630 O   0  0  0  0  0  0  0  0  0  0  0  0
   -4.9621   -3.8152   -3.7869 C   0  0  0  0  0  0  0  0  0  0  0  0
   -5.3913   -3.2004   -4.5816 H   0  0  0  0  0  0  0  0  0  0  0  0
   -4.9179   -4.8529   -4.1294 H   0  0  0  0  0  0  0  0  0  0  0  0
   -5.6066   -3.7622   -2.9061 H   0  0  0  0  0  0  0  0  0  0  0  0
   -3.4031   -2.0275   -2.9848 N   0  0  0  0  0  0  0  0  0  0  0  0
   -2.1556   -1.5198   -2.3956 C   0  0  2  0  0  0  0  0  0  0  0  0
   -2.3575   -1.0624   -0.9363 C   0  0  0  0  0  0  0  0  0  0  0  0
   -3.4803   -0.7868   -0.5225 O   0  0  0  0  0  0  0  0  0  0  0  0
   -1.6739   -0.3490   -3.2549 C   0  0  0  0  0  0  0  0  0  0  0  0
   -4.2543   -1.5340   -2.7218 H   0  0  0  0  0  0  0  0  0  0  0  0
   -1.3835   -2.2961   -2.3938 H   0  0  0  0  0  0  0  0  0  0  0  0
   -2.4172    0.4549   -3.2589 H   0  0  0  0  0  0  0  0  0  0  0  0
   -0.7340    0.0528   -2.8641 H   0  0  0  0  0  0  0  0  0  0  0  0
   -1.5083   -0.6786   -4.2853 H   0  0  0  0  0  0  0  0  0  0  0  0
   -1.2738   -0.9399   -0.0836 N   0  0  0  0  0  0  0  0  0  0  0  0
   -1.3370   -0.0431    1.0835 C   0  0  0  0  0  0  0  0  0  0  0  0
   -1.5852    1.4349    0.7286 C   0  0  0  0  0  0  0  0  0  0  0  0
   -1.3015    1.8637   -0.3851 O   0  0  0  0  0  0  0  0  0  0  0  0
   -0.3704   -1.0305   -0.5400 H   0  0  0  0  0  0  0  0  0  0  0  0
   -0.4003   -0.1086    1.6434 H   0  0  0  0  0  0  0  0  0  0  0  0
   -2.1390   -0.3779    1.7490 H   0  0  0  0  0  0  0  0  0  0  0  0
   -1.9741    2.3255    1.7095 N   0  0  0  0  0  0  0  0  0  0  0  0
   -2.0904    3.7774    1.5271 C   0  0  2  0  0  0  0  0  0  0  0  0
   -1.8595    4.5343    2.8520 C   0  0  0  0  0  0  0  0  0  0  0  0
   -1.8539    3.9258    3.9170 O   0  0  0  0  0  0  0  0  0  0  0  0
   -3.4837    4.0822    0.9676 C   0  0  0  0  0  0  0  0  0  0  0  0
   -2.0955    1.9705    2.6575 H   0  0  0  0  0  0  0  0  0  0  0  0
   -1.3313    4.1215    0.8165 H   0  0  0  0  0  0  0  0  0  0  0  0
   -4.2575    3.7575    1.6707 H   0  0  0  0  0  0  0  0  0  0  0  0
   -3.6016    5.1550    0.7894 H   0  0  0  0  0  0  0  0  0  0  0  0
   -3.6347    3.5580    0.0186 H   0  0  0  0  0  0  0  0  0  0  0  0
   -1.6415    5.8999    2.8510 N   0  0  0  0  0  0  0  0  0  0  0  0
   -1.4083    6.6749    4.0639 C   0  0  0  0  0  0  0  0  0  0  0  0
   -1.6437    6.3769    1.9540 H   0  0  0  0  0  0  0  0  0  0  0  0
   -2.2879    6.6407    4.7153 H   0  0  0  0  0  0  0  0  0  0  0  0
   -0.5475    6.2790    4.6132 H   0  0  0  0  0  0  0  0  0  0  0  0
   -1.2045    7.7202    3.8122 H   0  0  0  0  0  0  0  0  0  0  0  0
  1  2  2  0  0  0  0
  1  3  1  0  0  0  0
  1  7  1  0  0  0  0
  3  4  1  0  0  0  0
  3  5  1  0  0  0  0
  3  6  1  0  0  0  0
  7  8  1  0  0  0  0
  7 12  1  0  0  0  0
  8  9  1  0  0  0  0
  8 11  1  0  0  0  0
  8 13  1  0  0  0  0
  9 10  2  0  0  0  0
  9 17  1  0  0  0  0
 11 14  1  0  0  0  0
 11 15  1  0  0  0  0
 11 16  1  0  0  0  0
 17 18  1  0  0  0  0
 17 21  1  0  0  0  0
 18 19  1  0  0  0  0
 18 22  1  0  0  0  0
 18 23  1  0  0  0  0
 19 20  2  0  0  0  0
 19 24  1  0  0  0  0
 24 25  1  0  0  0  0
 24 29  1  0  0  0  0
 25 26  1  0  0  0  0
 25 28  1  0  0  0  0
 25 30  1  0  0  0  0
 26 27  2  0  0  0  0
 26 34  1  0  0  0  0
 28 31  1  0  0  0  0
 28 32  1  0  0  0  0
 28 33  1  0  0  0  0
 34 35  1  0  0  0  0
 34 36  1  0  0  0  0
 35 37  1  0  0  0  0
 35 38  1  0  0  0  0
 35 39  1  0  0  0  0
M  END
$$$$

  -OEChem-05262216283D

 39 38  0     1  0  0  0  0  0999 V2000
   -3.5088   -3.2215   -3.6165 C   0  0  0  0  0  0  0  0  0  0  0  0
   -2.4939   -3.8766   -3.7951 O   0  0  0  0  0  0  0  0  0  0  0  0
   -4.8549   -3.7854   -4.0303 C   0  0  0  0  0  0  0  0  0  0  0  0
   -5.3001   -3.1549   -4.8039 H   0  0  0  0  0  0  0  0  0  0  0  0
   -4.7335   -4.7977   -4.4261 H   0  0  0  0  0  0  0  0  0  0  0  0
   -5.5259   -3.8224   -3.1684 H   0  0  0  0  0  0  0  0  0  0  0  0
   -3.4431   -1.9713   -3.0386 N   0  0  0  0  0  0  0  0  0  0  0  0
   -2.2429   -1.4310   -2.3846 C   0  0  2  0  0  0  0  0  0  0  0  0
   -2.4939   -1.1294   -0.8934 C   0  0  0  0  0  0  0  0  0  0  0  0
   -3.6380   -0.9900   -0.4704 O   0  0  0  0  0  0  0  0  0  0  0  0
   -1.8429   -0.1511   -3.1213 C   0  0  0  0  0  0  0  0  0  0  0  0
   -4.3313   -1.5702   -2.7420 H   0  0  0  0  0  0  0  0  0  0  0  0
   -1.4150   -2.1449   -2.4415 H   0  0  0  0  0  0  0  0  0  0  0  0
   -2.6415    0.5949   -3.0532 H   0  0  0  0  0  0  0  0  0  0  0  0
   -0.9353    0.2762   -2.6841 H   0  0  0  0  0  0  0  0  0  0  0  0
   -1.6522   -0.3652   -4.1773 H   0  0  0  0  0  0  0  0  0  0  0  0
   -1.4380   -1.0606    0.0003 N   0  0  0  0  0  0  0  0  0  0  0  0
   -1.5099   -0.1992    1.1964 C   0  0  0  0  0  0  0  0  0  0  0  0
   -2.0479    1.2338    0.9912 C   0  0  0  0  0  0  0  0  0  0  0  0
   -2.1120    1.7352   -0.1263 O   0  0  0  0  0  0  0  0  0  0  0  0
   -0.5251   -1.1426   -0.4379 H   0  0  0  0  0  0  0  0  0  0  0  0
   -0.5124   -0.1212    1.6367 H   0  0  0  0  0  0  0  0  0  0  0  0
   -2.1545   -0.6905    1.9318 H   0  0  0  0  0  0  0  0  0  0  0  0
   -2.1364    2.0748    2.0840 N   0  0  0  0  0  0  0  0  0  0  0  0
   -2.3291    3.5288    2.0155 C   0  0  2  0  0  0  0  0  0  0  0  0
   -1.6644    4.2381    3.2141 C   0  0  0  0  0  0  0  0  0  0  0  0
   -1.2572    3.5826    4.1679 O   0  0  0  0  0  0  0  0  0  0  0  0
   -3.8340    3.8130    1.9781 C   0  0  0  0  0  0  0  0  0  0  0  0
   -1.8934    1.6926    2.9974 H   0  0  0  0  0  0  0  0  0  0  0  0
   -1.8641    3.9234    1.1059 H   0  0  0  0  0  0  0  0  0  0  0  0
   -4.3178    3.4342    2.8843 H   0  0  0  0  0  0  0  0  0  0  0  0
   -4.0219    4.8882    1.9043 H   0  0  0  0  0  0  0  0  0  0  0  0
   -4.2894    3.3246    1.1105 H   0  0  0  0  0  0  0  0  0  0  0  0
   -1.4972    5.6106    3.2142 N   0  0  0  0  0  0  0  0  0  0  0  0
   -0.8431    6.3358    4.2968 C   0  0  0  0  0  0  0  0  0  0  0  0
   -1.8146    6.1235    2.3966 H   0  0  0  0  0  0  0  0  0  0  0  0
   -1.3577    6.1539    5.2464 H   0  0  0  0  0  0  0  0  0  0  0  0
    0.2002    6.0173    4.3946 H   0  0  0  0  0  0  0  0  0  0  0  0
   -0.8596    7.4115    4.0967 H   0  0  0  0  0  0  0  0  0  0  0  0
  1  2  2  0  0  0  0
  1  3  1  0  0  0  0
  1  7  1  0  0  0  0
  3  4  1  0  0  0  0
  3  5  1  0  0  0  0
  3  6  1  0  0  0  0
  7  8  1  0  0  0  0
  7 12  1  0  0  0  0
  8  9  1  0  0  0  0
  8 11  1  0  0  0  0
  8 13  1  0  0  0  0
  9 10  2  0  0  0  0
  9 17  1  0  0  0  0
 11 14  1  0  0  0  0
 11 15  1  0  0  0  0
 11 16  1  0  0  0  0
 17 18  1  0  0  0  0
 17 21  1  0  0  0  0
 18 19  1  0  0  0  0
 18 22  1  0  0  0  0
 18 23  1  0  0  0  0
 19 20  2  0  0  0  0
 19 24  1  0  0  0  0
 24 25  1  0  0  0  0
 24 29  1  0  0  0  0
 25 26  1  0  0  0  0
 25 28  1  0  0  0  0
 25 30  1  0  0  0  0
 26 27  2  0  0  0  0
 26 34  1  0  0  0  0
 28 31  1  0  0  0  0
 28 32  1  0  0  0  0
 28 33  1  0  0  0  0
 34 35  1  0  0  0  0
 34 36  1  0  0  0  0
 35 37  1  0  0  0  0
 35 38  1  0  0  0  0
 35 39  1  0  0  0  0
M  END
$$$$

  -OEChem-05262216283D

 39 38  0     1  0  0  0  0  0999 V2000
   -3.4388   -3.2414   -3.5165 C   0  0  0  0  0  0  0  0  0  0  0  0
   -2.4212   -3.9158   -3.5478 O   0  0  0  0  0  0  0  0  0  0  0  0
   -4.7504   -3.8286   -4.0027 C   0  0  0  0  0  0  0  0  0  0  0  0
   -5.1503   -3.2236   -4.8200 H   0  0  0  0  0  0  0  0  0  0  0  0
   -4.5963   -4.8499   -4.3624 H   0  0  0  0  0  0  0  0  0  0  0  0
   -5.4749   -3.8488   -3.1848 H   0  0  0  0  0  0  0  0  0  0  0  0
   -3.4114   -1.9532   -3.0250 N   0  0  0  0  0  0  0  0  0  0  0  0
   -2.2803   -1.3876   -2.2765 C   0  0  2  0  0  0  0  0  0  0  0  0
   -2.6714   -1.0589   -0.8215 C   0  0  0  0  0  0  0  0  0  0  0  0
   -3.8461   -0.8662   -0.5217 O   0  0  0  0  0  0  0  0  0  0  0  0
   -1.8264   -0.1178   -2.9994 C   0  0  0  0  0  0  0  0  0  0  0  0
   -4.3193   -1.5283   -2.8447 H   0  0  0  0  0  0  0  0  0  0  0  0
   -1.4434   -2.0923   -2.2450 H   0  0  0  0  0  0  0  0  0  0  0  0
   -2.6370    0.6179   -3.0262 H   0  0  0  0  0  0  0  0  0  0  0  0
   -0.9713    0.3316   -2.4853 H   0  0  0  0  0  0  0  0  0  0  0  0
   -1.5306   -0.3508   -4.0268 H   0  0  0  0  0  0  0  0  0  0  0  0
   -1.7187   -1.0428    0.1835 N   0  0  0  0  0  0  0  0  0  0  0  0
   -1.8376   -0.1233    1.3325 C   0  0  0  0  0  0  0  0  0  0  0  0
   -2.2090    1.3489    1.0389 C   0  0  0  0  0  0  0  0  0  0  0  0
   -2.3307    1.7743   -0.1042 O   0  0  0  0  0  0  0  0  0  0  0  0
   -0.7750   -1.2153   -0.1502 H   0  0  0  0  0  0  0  0  0  0  0  0
   -0.8900   -0.1264    1.8783 H   0  0  0  0  0  0  0  0  0  0  0  0
   -2.6022   -0.5202    2.0071 H   0  0  0  0  0  0  0  0  0  0  0  0
   -2.0224    2.2799    2.0433 N   0  0  0  0  0  0  0  0  0  0  0  0
   -1.9727    3.7355    1.8509 C   0  0  2  0  0  0  0  0  0  0  0  0
   -1.0564    4.4032    2.8983 C   0  0  0  0  0  0  0  0  0  0  0  0
   -0.6513    3.7570    3.8595 O   0  0  0  0  0  0  0  0  0  0  0  0
   -3.3990    4.2864    1.9441 C   0  0  0  0  0  0  0  0  0  0  0  0
   -1.7122    1.9366    2.9519 H   0  0  0  0  0  0  0  0  0  0  0  0
   -1.5605    3.9676    0.8633 H   0  0  0  0  0  0  0  0  0  0  0  0
   -3.8276    4.0751    2.9290 H   0  0  0  0  0  0  0  0  0  0  0  0
   -3.4056    5.3688    1.7854 H   0  0  0  0  0  0  0  0  0  0  0  0
   -4.0337    3.8236    1.1814 H   0  0  0  0  0  0  0  0  0  0  0  0
   -0.6621    5.7206    2.7535 N   0  0  0  0  0  0  0  0  0  0  0  0
    0.2189    6.3999    3.6961 C   0  0  0  0  0  0  0  0  0  0  0  0
   -0.9978    6.2269    1.9391 H   0  0  0  0  0  0  0  0  0  0  0  0
    1.1750    5.8718    3.7758 H   0  0  0  0  0  0  0  0  0  0  0  0
    0.4172    7.4224    3.3606 H   0  0  0  0  0  0  0  0  0  0  0  0
   -0.2428    6.4443    4.6881 H   0  0  0  0  0  0  0  0  0  0  0  0
  1  2  2  0  0  0  0
  1  3  1  0  0  0  0
  1  7  1  0  0  0  0
  3  4  1  0  0  0  0
  3  5  1  0  0  0  0
  3  6  1  0  0  0  0
  7  8  1  0  0  0  0
  7 12  1  0  0  0  0
  8  9  1  0  0  0  0
  8 11  1  0  0  0  0
  8 13  1  0  0  0  0
  9 10  2  0  0  0  0
  9 17  1  0  0  0  0
 11 14  1  0  0  0  0
 11 15  1  0  0  0  0
 11 16  1  0  0  0  0
 17 18  1  0  0  0  0
 17 21  1  0  0  0  0
 18 19  1  0  0  0  0
 18 22  1  0  0  0  0
 18 23  1  0  0  0  0
 19 20  2  0  0  0  0
 19 24  1  0  0  0  0
 24 25  1  0  0  0  0
 24 29  1  0  0  0  0
 25 26  1  0  0  0  0
 25 28  1  0  0  0  0
 25 30  1  0  0  0  0
 26 27  2  0  0  0  0
 26 34  1  0  0  0  0
 28 31  1  0  0  0  0
 28 32  1  0  0  0  0
 28 33  1  0  0  0  0
 34 35  1  0  0  0  0
 34 36  1  0  0  0  0
 35 37  1  0  0  0  0
 35 38  1  0  0  0  0
 35 39  1  0  0  0  0
M  END
$$$$

  -OEChem-05262216283D

 39 38  0     1  0  0  0  0  0999 V2000
   -3.3525   -3.1705   -3.4795 C   0  0  0  0  0  0  0  0  0  0  0  0
   -2.3107   -3.8076   -3.4991 O   0  0  0  0  0  0  0  0  0  0  0  0
   -4.6320   -3.7956   -4.0035 C   0  0  0  0  0  0  0  0  0  0  0  0
   -5.0190   -3.2090   -4.8403 H   0  0  0  0  0  0  0  0  0  0  0  0
   -4.4403   -4.8161   -4.3466 H   0  0  0  0  0  0  0  0  0  0  0  0
   -5.3835   -3.8260   -3.2107 H   0  0  0  0  0  0  0  0  0  0  0  0
   -3.3804   -1.8891   -2.9704 N   0  0  0  0  0  0  0  0  0  0  0  0
   -2.2859   -1.2937   -2.1915 C   0  0  2  0  0  0  0  0  0  0  0  0
   -2.7234   -0.9956   -0.7432 C   0  0  0  0  0  0  0  0  0  0  0  0
   -3.9115   -0.8551   -0.4707 O   0  0  0  0  0  0  0  0  0  0  0  0
   -1.8639    0.0001   -2.8903 C   0  0  0  0  0  0  0  0  0  0  0  0
   -4.3065   -1.5010   -2.7984 H   0  0  0  0  0  0  0  0  0  0  0  0
   -1.4248   -1.9681   -2.1494 H   0  0  0  0  0  0  0  0  0  0  0  0
   -2.7012    0.7051   -2.9275 H   0  0  0  0  0  0  0  0  0  0  0  0
   -1.0383    0.4753   -2.3520 H   0  0  0  0  0  0  0  0  0  0  0  0
   -1.5366   -0.2107   -3.9130 H   0  0  0  0  0  0  0  0  0  0  0  0
   -1.8021   -0.9708    0.2903 N   0  0  0  0  0  0  0  0  0  0  0  0
   -1.9389   -0.0275    1.4189 C   0  0  0  0  0  0  0  0  0  0  0  0
   -2.2779    1.4504    1.1050 C   0  0  0  0  0  0  0  0  0  0  0  0
   -2.6344    1.8308   -0.0030 O   0  0  0  0  0  0  0  0  0  0  0  0
   -0.8510   -1.1515   -0.0169 H   0  0  0  0  0  0  0  0  0  0  0  0
   -1.0070   -0.0436    1.9909 H   0  0  0  0  0  0  0  0  0  0  0  0
   -2.7286   -0.4015    2.0779 H   0  0  0  0  0  0  0  0  0  0  0  0
   -1.8135    2.4186    1.9760 N   0  0  0  0  0  0  0  0  0  0  0  0
   -1.7299    3.8552    1.6793 C   0  0  2  0  0  0  0  0  0  0  0  0
   -0.5373    4.5078    2.4092 C   0  0  0  0  0  0  0  0  0  0  0  0
    0.0562    3.8921    3.2889 O   0  0  0  0  0  0  0  0  0  0  0  0
   -3.0496    4.5103    2.0971 C   0  0  0  0  0  0  0  0  0  0  0  0
   -1.3197    2.1034    2.8103 H   0  0  0  0  0  0  0  0  0  0  0  0
   -1.5750    4.0083    0.6061 H   0  0  0  0  0  0  0  0  0  0  0  0
   -3.2174    4.3815    3.1712 H   0  0  0  0  0  0  0  0  0  0  0  0
   -3.0368    5.5807    1.8716 H   0  0  0  0  0  0  0  0  0  0  0  0
   -3.8859    4.0548    1.5569 H   0  0  0  0  0  0  0  0  0  0  0  0
   -0.1129    5.7780    2.0652 N   0  0  0  0  0  0  0  0  0  0  0  0
    1.0161    6.4452    2.7026 C   0  0  0  0  0  0  0  0  0  0  0  0
   -0.6151    6.2583    1.3240 H   0  0  0  0  0  0  0  0  0  0  0  0
    0.8163    6.6035    3.7676 H   0  0  0  0  0  0  0  0  0  0  0  0
    1.9256    5.8439    2.6001 H   0  0  0  0  0  0  0  0  0  0  0  0
    1.1932    7.4186    2.2351 H   0  0  0  0  0  0  0  0  0  0  0  0
  1  2  2  0  0  0  0
  1  3  1  0  0  0  0
  1  7  1  0  0  0  0
  3  4  1  0  0  0  0
  3  5  1  0  0  0  0
  3  6  1  0  0  0  0
  7  8  1  0  0  0  0
  7 12  1  0  0  0  0
  8  9  1  0  0  0  0
  8 11  1  0  0  0  0
  8 13  1  0  0  0  0
  9 10  2  0  0  0  0
  9 17  1  0  0  0  0
 11 14  1  0  0  0  0
 11 15  1  0  0  0  0
 11 16  1  0  0  0  0
 17 18  1  0  0  0  0
 17 21  1  0  0  0  0
 18 19  1  0  0  0  0
 18 22  1  0  0  0  0
 18 23  1  0  0  0  0
 19 20  2  0  0  0  0
 19 24  1  0  0  0  0
 24 25  1  0  0  0  0
 24 29  1  0  0  0  0
 25 26  1  0  0  0  0
 25 28  1  0  0  0  0
 25 30  1  0  0  0  0
 26 27  2  0  0  0  0
 26 34  1  0  0  0  0
 28 31  1  0  0  0  0
 28 32  1  0  0  0  0
 28 33  1  0  0  0  0
 34 35  1  0  0  0  0
 34 36  1  0  0  0  0
 35 37  1  0  0  0  0
 35 38  1  0  0  0  0
 35 39  1  0  0  0  0
M  END
$$$$

  -OEChem-05262216283D

 39 38  0     1  0  0  0  0  0999 V2000
   -3.3375   -3.1548   -3.3717 C   0  0  0  0  0  0  0  0  0  0  0  0
   -2.3060   -3.8059   -3.3102 O   0  0  0  0  0  0  0  0  0  0  0  0
   -4.6036   -3.7943   -3.9108 C   0  0  0  0  0  0  0  0  0  0  0  0
   -4.9710   -3.2282   -4.7702 H   0  0  0  0  0  0  0  0  0  0  0  0
   -4.4028   -4.8224   -4.2253 H   0  0  0  0  0  0  0  0  0  0  0  0
   -5.3740   -3.8080   -3.1357 H   0  0  0  0  0  0  0  0  0  0  0  0
   -3.3663   -1.8453   -2.9392 N   0  0  0  0  0  0  0  0  0  0  0  0
   -2.2982   -1.2287   -2.1398 C   0  0  2  0  0  0  0  0  0  0  0  0
   -2.7768   -0.9103   -0.7090 C   0  0  0  0  0  0  0  0  0  0  0  0
   -3.9713   -0.7656   -0.4736 O   0  0  0  0  0  0  0  0  0  0  0  0
   -1.8636    0.0579   -2.8453 C   0  0  0  0  0  0  0  0  0  0  0  0
   -4.2942   -1.4415   -2.8211 H   0  0  0  0  0  0  0  0  0  0  0  0
   -1.4337   -1.8960   -2.0639 H   0  0  0  0  0  0  0  0  0  0  0  0
   -2.7018    0.7597   -2.9119 H   0  0  0  0  0  0  0  0  0  0  0  0
   -1.0521    0.5423   -2.2937 H   0  0  0  0  0  0  0  0  0  0  0  0
   -1.5114   -0.1646   -3.8573 H   0  0  0  0  0  0  0  0  0  0  0  0
   -1.8862   -0.8927    0.3505 N   0  0  0  0  0  0  0  0  0  0  0  0
   -1.9997    0.0891    1.4484 C   0  0  0  0  0  0  0  0  0  0  0  0
   -2.2536    1.5733    1.0883 C   0  0  0  0  0  0  0  0  0  0  0  0
   -2.8783    1.9336    0.1008 O   0  0  0  0  0  0  0  0  0  0  0  0
   -0.9376   -1.1307    0.0764 H   0  0  0  0  0  0  0  0  0  0  0  0
   -1.0851    0.0373    2.0449 H   0  0  0  0  0  0  0  0  0  0  0  0
   -2.8238   -0.2227    2.0976 H   0  0  0  0  0  0  0  0  0  0  0  0
   -1.5105    2.5378    1.7439 N   0  0  0  0  0  0  0  0  0  0  0  0
   -1.4371    3.9547    1.3621 C   0  0  2  0  0  0  0  0  0  0  0  0
   -0.1043    4.5880    1.8143 C   0  0  0  0  0  0  0  0  0  0  0  0
    0.6444    3.9710    2.5653 O   0  0  0  0  0  0  0  0  0  0  0  0
   -2.6259    4.6882    1.9920 C   0  0  0  0  0  0  0  0  0  0  0  0
   -0.8460    2.2271    2.4520 H   0  0  0  0  0  0  0  0  0  0  0  0
   -1.4898    4.0478    0.2720 H   0  0  0  0  0  0  0  0  0  0  0  0
   -2.5870    4.6115    3.0833 H   0  0  0  0  0  0  0  0  0  0  0  0
   -2.6170    5.7465    1.7155 H   0  0  0  0  0  0  0  0  0  0  0  0
   -3.5682    4.2517    1.6454 H   0  0  0  0  0  0  0  0  0  0  0  0
    0.2663    5.8427    1.3668 N   0  0  0  0  0  0  0  0  0  0  0  0
    1.5114    6.4961    1.7526 C   0  0  0  0  0  0  0  0  0  0  0  0
   -0.3716    6.3279    0.7422 H   0  0  0  0  0  0  0  0  0  0  0  0
    1.5384    6.6608    2.8350 H   0  0  0  0  0  0  0  0  0  0  0  0
    2.3721    5.8815    1.4682 H   0  0  0  0  0  0  0  0  0  0  0  0
    1.6006    7.4658    1.2531 H   0  0  0  0  0  0  0  0  0  0  0  0
  1  2  2  0  0  0  0
  1  3  1  0  0  0  0
  1  7  1  0  0  0  0
  3  4  1  0  0  0  0
  3  5  1  0  0  0  0
  3  6  1  0  0  0  0
  7  8  1  0  0  0  0
  7 12  1  0  0  0  0
  8  9  1  0  0  0  0
  8 11  1  0  0  0  0
  8 13  1  0  0  0  0
  9 10  2  0  0  0  0
  9 17  1  0  0  0  0
 11 14  1  0  0  0  0
 11 15  1  0  0  0  0
 11 16  1  0  0  0  0
 17 18  1  0  0  0  0
 17 21  1  0  0  0  0
 18 19  1  0  0  0  0
 18 22  1  0  0  0  0
 18 23  1  0  0  0  0
 19 20  2  0  0  0  0
 19 24  1  0  0  0  0
 24 25  1  0  0  0  0
 24 29  1  0  0  0  0
 25 26  1  0  0  0  0
 25 28  1  0  0  0  0
 25 30  1  0  0  0  0
 26 27  2  0  0  0  0
 26 34  1  0  0  0  0
 28 31  1  0  0  0  0
 28 32  1  0  0  0  0
 28 33  1  0  0  0  0
 34 35  1  0  0  0  0
 34 36  1  0  0  0  0
 35 37  1  0  0  0  0
 35 38  1  0  0  0  0
 35 39  1  0  0  0  0
M  END
$$$$

  -OEChem-05262216283D

 39 38  0     1  0  0  0  0  0999 V2000
   -3.1222   -2.9222   -3.4691 C   0  0  0  0  0  0  0  0  0  0  0  0
   -2.0421   -3.4858   -3.5548 O   0  0  0  0  0  0  0  0  0  0  0  0
   -4.3144   -3.4378   -4.2526 C   0  0  0  0  0  0  0  0  0  0  0  0
   -4.6969   -2.6533   -4.9099 H   0  0  0  0  0  0  0  0  0  0  0  0
   -4.0220   -4.2973   -4.8622 H   0  0  0  0  0  0  0  0  0  0  0  0
   -5.1063   -3.7458   -3.5656 H   0  0  0  0  0  0  0  0  0  0  0  0
   -3.2650   -1.8241   -2.6486 N   0  0  0  0  0  0  0  0  0  0  0  0
   -2.2453   -1.3660   -1.6972 C   0  0  2  0  0  0  0  0  0  0  0  0
   -2.8827   -0.8512   -0.3907 C   0  0  0  0  0  0  0  0  0  0  0  0
   -4.0916   -0.6657   -0.3279 O   0  0  0  0  0  0  0  0  0  0  0  0
   -1.4324   -0.2523   -2.3625 C   0  0  0  0  0  0  0  0  0  0  0  0
   -4.2123   -1.4774   -2.4952 H   0  0  0  0  0  0  0  0  0  0  0  0
   -1.5789   -2.1947   -1.4355 H   0  0  0  0  0  0  0  0  0  0  0  0
   -2.0791    0.5972   -2.6069 H   0  0  0  0  0  0  0  0  0  0  0  0
   -0.6378    0.0961   -1.6959 H   0  0  0  0  0  0  0  0  0  0  0  0
   -0.9724   -0.6185   -3.2860 H   0  0  0  0  0  0  0  0  0  0  0  0
   -2.1281   -0.7332    0.7636 N   0  0  0  0  0  0  0  0  0  0  0  0
   -2.3353    0.3604    1.7349 C   0  0  0  0  0  0  0  0  0  0  0  0
   -2.4928    1.7955    1.1813 C   0  0  0  0  0  0  0  0  0  0  0  0
   -3.3162    2.1100    0.3363 O   0  0  0  0  0  0  0  0  0  0  0  0
   -1.1632   -1.0259    0.6395 H   0  0  0  0  0  0  0  0  0  0  0  0
   -1.5055    0.3546    2.4467 H   0  0  0  0  0  0  0  0  0  0  0  0
   -3.2446    0.1413    2.3033 H   0  0  0  0  0  0  0  0  0  0  0  0
   -1.5815    2.7553    1.5796 N   0  0  0  0  0  0  0  0  0  0  0  0
   -1.4416    4.0842    0.9692 C   0  0  2  0  0  0  0  0  0  0  0  0
    0.0340    4.5376    0.9640 C   0  0  0  0  0  0  0  0  0  0  0  0
    0.8746    3.8934    1.5842 O   0  0  0  0  0  0  0  0  0  0  0  0
   -2.3169    5.0673    1.7520 C   0  0  0  0  0  0  0  0  0  0  0  0
   -0.8015    2.4478    2.1594 H   0  0  0  0  0  0  0  0  0  0  0  0
   -1.7767    4.0561   -0.0733 H   0  0  0  0  0  0  0  0  0  0  0  0
   -1.9940    5.1206    2.7967 H   0  0  0  0  0  0  0  0  0  0  0  0
   -2.2571    6.0689    1.3160 H   0  0  0  0  0  0  0  0  0  0  0  0
   -3.3624    4.7432    1.7264 H   0  0  0  0  0  0  0  0  0  0  0  0
    0.4295    5.6492    0.2432 N   0  0  0  0  0  0  0  0  0  0  0  0
    1.8124    6.1067    0.1736 C   0  0  0  0  0  0  0  0  0  0  0  0
   -0.2834    6.1535   -0.2762 H   0  0  0  0  0  0  0  0  0  0  0  0
    2.4531    5.3270   -0.2520 H   0  0  0  0  0  0  0  0  0  0  0  0
    1.8861    6.9967   -0.4590 H   0  0  0  0  0  0  0  0  0  0  0  0
    2.1827    6.3604    1.1726 H   0  0  0  0  0  0  0  0  0  0  0  0
  1  2  2  0  0  0  0
  1  3  1  0  0  0  0
  1  7  1  0  0  0  0
  3  4  1  0  0  0  0
  3  5  1  0  0  0  0
  3  6  1  0  0  0  0
  7  8  1  0  0  0  0
  7 12  1  0  0  0  0
  8  9  1  0  0  0  0
  8 11  1  0  0  0  0
  8 13  1  0  0  0  0
  9 10  2  0  0  0  0
  9 17  1  0  0  0  0
 11 14  1  0  0  0  0
 11 15  1  0  0  0  0
 11 16  1  0  0  0  0
 17 18  1  0  0  0  0
 17 21  1  0  0  0  0
 18 19  1  0  0  0  0
 18 22  1  0  0  0  0
 18 23  1  0  0  0  0
 19 20  2  0  0  0  0
 19 24  1  0  0  0  0
 24 25  1  0  0  0  0
 24 29  1  0  0  0  0
 25 26  1  0  0  0  0
 25 28  1  0  0  0  0
 25 30  1  0  0  0  0
 26 27  2  0  0  0  0
 26 34  1  0  0  0  0
 28 31  1  0  0  0  0
 28 32  1  0  0  0  0
 28 33  1  0  0  0  0
 34 35  1  0  0  0  0
 34 36  1  0  0  0  0
 35 37  1  0  0  0  0
 35 38  1  0  0  0  0
 35 39  1  0  0  0  0
M  END
$$$$

  -OEChem-05262216283D

 39 38  0     1  0  0  0  0  0999 V2000
   -4.4808   -3.0075   -2.0989 C   0  0  0  0  0  0  0  0  0  0  0  0
   -3.8203   -3.9614   -2.4799 O   0  0  0  0  0  0  0  0  0  0  0  0
   -5.9535   -3.1779   -1.7759 C   0  0  0  0  0  0  0  0  0  0  0  0
   -6.5554   -2.5432   -2.4311 H   0  0  0  0  0  0  0  0  0  0  0  0
   -6.2533   -4.2196   -1.9219 H   0  0  0  0  0  0  0  0  0  0  0  0
   -6.1427   -2.8994   -0.7361 H   0  0  0  0  0  0  0  0  0  0  0  0
   -3.8832   -1.7743   -1.9499 N   0  0  0  0  0  0  0  0  0  0  0  0
   -2.4386   -1.5362   -2.0621 C   0  0  2  0  0  0  0  0  0  0  0  0
   -1.9736   -0.4158   -1.1068 C   0  0  0  0  0  0  0  0  0  0  0  0
   -2.8076    0.2932   -0.5656 O   0  0  0  0  0  0  0  0  0  0  0  0
   -2.1220   -1.1751   -3.5166 C   0  0  0  0  0  0  0  0  0  0  0  0
   -4.4310   -1.0415   -1.4984 H   0  0  0  0  0  0  0  0  0  0  0  0
   -1.8931   -2.4459   -1.7886 H   0  0  0  0  0  0  0  0  0  0  0  0
   -2.6504   -0.2615   -3.8076 H   0  0  0  0  0  0  0  0  0  0  0  0
   -1.0481   -1.0149   -3.6497 H   0  0  0  0  0  0  0  0  0  0  0  0
   -2.4341   -1.9852   -4.1838 H   0  0  0  0  0  0  0  0  0  0  0  0
   -0.6226   -0.2412   -0.8513 N   0  0  0  0  0  0  0  0  0  0  0  0
   -0.0132    0.7605    0.0508 C   0  0  0  0  0  0  0  0  0  0  0  0
   -0.5328    2.2111   -0.0248 C   0  0  0  0  0  0  0  0  0  0  0  0
   -1.4158    2.5874    0.7319 O   0  0  0  0  0  0  0  0  0  0  0  0
   -0.0046   -0.9174   -1.2917 H   0  0  0  0  0  0  0  0  0  0  0  0
    1.0654    0.7805   -0.1249 H   0  0  0  0  0  0  0  0  0  0  0  0
   -0.1620    0.4234    1.0817 H   0  0  0  0  0  0  0  0  0  0  0  0
    0.2508    3.1671   -0.6550 N   0  0  0  0  0  0  0  0  0  0  0  0
   -0.0040    4.6223   -0.7295 C   0  0  2  0  0  0  0  0  0  0  0  0
    0.1963    5.3929    0.5965 C   0  0  0  0  0  0  0  0  0  0  0  0
    0.9513    6.3563    0.6203 O   0  0  0  0  0  0  0  0  0  0  0  0
   -1.3884    4.9134   -1.3277 C   0  0  0  0  0  0  0  0  0  0  0  0
    1.0359    2.8113   -1.1910 H   0  0  0  0  0  0  0  0  0  0  0  0
    0.7326    5.0349   -1.4267 H   0  0  0  0  0  0  0  0  0  0  0  0
   -2.1886    4.6177   -0.6427 H   0  0  0  0  0  0  0  0  0  0  0  0
   -1.4921    5.9842   -1.5288 H   0  0  0  0  0  0  0  0  0  0  0  0
   -1.5188    4.3706   -2.2684 H   0  0  0  0  0  0  0  0  0  0  0  0
   -0.4618    5.0236    1.7515 N   0  0  0  0  0  0  0  0  0  0  0  0
   -0.3339    5.7146    3.0264 C   0  0  0  0  0  0  0  0  0  0  0  0
   -1.0569    4.1922    1.6835 H   0  0  0  0  0  0  0  0  0  0  0  0
    0.7039    5.6899    3.3746 H   0  0  0  0  0  0  0  0  0  0  0  0
   -0.6500    6.7582    2.9285 H   0  0  0  0  0  0  0  0  0  0  0  0
   -0.9643    5.2328    3.7795 H   0  0  0  0  0  0  0  0  0  0  0  0
  1  2  2  0  0  0  0
  1  3  1  0  0  0  0
  1  7  1  0  0  0  0
  3  4  1  0  0  0  0
  3  5  1  0  0  0  0
  3  6  1  0  0  0  0
  7  8  1  0  0  0  0
  7 12  1  0  0  0  0
  8  9  1  0  0  0  0
  8 11  1  0  0  0  0
  8 13  1  0  0  0  0
  9 10  2  0  0  0  0
  9 17  1  0  0  0  0
 11 14  1  0  0  0  0
 11 15  1  0  0  0  0
 11 16  1  0  0  0  0
 17 18  1  0  0  0  0
 17 21  1  0  0  0  0
 18 19  1  0  0  0  0
 18 22  1  0  0  0  0
 18 23  1  0  0  0  0
 19 20  2  0  0  0  0
 19 24  1  0  0  0  0
 24 25  1  0  0  0  0
 24 29  1  0  0  0  0
 25 26  1  0  0  0  0
 25 28  1  0  0  0  0
 25 30  1  0  0  0  0
 26 27  2  0  0  0  0
 26 34  1  0  0  0  0
 28 31  1  0  0  0  0
 28 32  1  0  0  0  0
 28 33  1  0  0  0  0
 34 35  1  0  0  0  0
 34 36  1  0  0  0  0
 35 37  1  0  0  0  0
 35 38  1  0  0  0  0
 35 39  1  0  0  0  0
M  END
$$$$

  -OEChem-05262216283D

 39 38  0     1  0  0  0  0  0999 V2000
   -2.9282   -2.5113   -2.0923 C   0  0  0  0  0  0  0  0  0  0  0  0
   -2.5858   -2.4393   -0.9208 O   0  0  0  0  0  0  0  0  0  0  0  0
   -3.8724   -3.6063   -2.5506 C   0  0  0  0  0  0  0  0  0  0  0  0
   -3.4090   -4.1877   -3.3514 H   0  0  0  0  0  0  0  0  0  0  0  0
   -4.1048   -4.2770   -1.7185 H   0  0  0  0  0  0  0  0  0  0  0  0
   -4.8030   -3.1681   -2.9194 H   0  0  0  0  0  0  0  0  0  0  0  0
   -2.4863   -1.5579   -2.9865 N   0  0  0  0  0  0  0  0  0  0  0  0
   -1.5373   -0.4845   -2.6499 C   0  0  2  0  0  0  0  0  0  0  0  0
   -2.1950    0.6729   -1.8575 C   0  0  0  0  0  0  0  0  0  0  0  0
   -2.2362    1.8056   -2.3137 O   0  0  0  0  0  0  0  0  0  0  0  0
   -0.8910   -0.0199   -3.9614 C   0  0  0  0  0  0  0  0  0  0  0  0
   -2.8396   -1.6107   -3.9381 H   0  0  0  0  0  0  0  0  0  0  0  0
   -0.7414   -0.8908   -2.0163 H   0  0  0  0  0  0  0  0  0  0  0  0
   -1.6439    0.4034   -4.6344 H   0  0  0  0  0  0  0  0  0  0  0  0
   -0.1370    0.7483   -3.7606 H   0  0  0  0  0  0  0  0  0  0  0  0
   -0.4014   -0.8590   -4.4652 H   0  0  0  0  0  0  0  0  0  0  0  0
   -2.7003    0.4050   -0.5963 N   0  0  0  0  0  0  0  0  0  0  0  0
   -3.4341    1.3315    0.2893 C   0  0  0  0  0  0  0  0  0  0  0  0
   -2.8427    2.7438    0.4173 C   0  0  0  0  0  0  0  0  0  0  0  0
   -3.3158    3.6805   -0.2125 O   0  0  0  0  0  0  0  0  0  0  0  0
   -2.6867   -0.5891   -0.3460 H   0  0  0  0  0  0  0  0  0  0  0  0
   -3.4940    0.8973    1.2907 H   0  0  0  0  0  0  0  0  0  0  0  0
   -4.4584    1.4344   -0.0826 H   0  0  0  0  0  0  0  0  0  0  0  0
   -1.9083    3.0202    1.3982 N   0  0  0  0  0  0  0  0  0  0  0  0
   -1.1801    4.2988    1.4452 C   0  0  2  0  0  0  0  0  0  0  0  0
   -0.1177    4.3991    0.3194 C   0  0  0  0  0  0  0  0  0  0  0  0
    1.0743    4.5254    0.5764 O   0  0  0  0  0  0  0  0  0  0  0  0
   -0.5808    4.4323    2.8508 C   0  0  0  0  0  0  0  0  0  0  0  0
   -1.4634    2.2129    1.8250 H   0  0  0  0  0  0  0  0  0  0  0  0
   -1.8803    5.1292    1.3033 H   0  0  0  0  0  0  0  0  0  0  0  0
    0.1445    3.6343    3.0391 H   0  0  0  0  0  0  0  0  0  0  0  0
   -0.0704    5.3952    2.9549 H   0  0  0  0  0  0  0  0  0  0  0  0
   -1.3692    4.3763    3.6076 H   0  0  0  0  0  0  0  0  0  0  0  0
   -0.5076    4.2733   -1.0005 N   0  0  0  0  0  0  0  0  0  0  0  0
    0.4201    4.1661   -2.1169 C   0  0  0  0  0  0  0  0  0  0  0  0
   -1.4962    4.0577   -1.1651 H   0  0  0  0  0  0  0  0  0  0  0  0
    1.0614    5.0517   -2.1708 H   0  0  0  0  0  0  0  0  0  0  0  0
    1.0500    3.2777   -2.0068 H   0  0  0  0  0  0  0  0  0  0  0  0
   -0.1348    4.0825   -3.0564 H   0  0  0  0  0  0  0  0  0  0  0  0
  1  2  2  0  0  0  0
  1  3  1  0  0  0  0
  1  7  1  0  0  0  0
  3  4  1  0  0  0  0
  3  5  1  0  0  0  0
  3  6  1  0  0  0  0
  7  8  1  0  0  0  0
  7 12  1  0  0  0  0
  8  9  1  0  0  0  0
  8 11  1  0  0  0  0
  8 13  1  0  0  0  0
  9 10  2  0  0  0  0
  9 17  1  0  0  0  0
 11 14  1  0  0  0  0
 11 15  1  0  0  0  0
 11 16  1  0  0  0  0
 17 18  1  0  0  0  0
 17 21  1  0  0  0  0
 18 19  1  0  0  0  0
 18 22  1  0  0  0  0
 18 23  1  0  0  0  0
 19 20  2  0  0  0  0
 19 24  1  0  0  0  0
 24 25  1  0  0  0  0
 24 29  1  0  0  0  0
 25 26  1  0  0  0  0
 25 28  1  0  0  0  0
 25 30  1  0  0  0  0
 26 27  2  0  0  0  0
 26 34  1  0  0  0  0
 28 31  1  0  0  0  0
 28 32  1  0  0  0  0
 28 33  1  0  0  0  0
 34 35  1  0  0  0  0
 34 36  1  0  0  0  0
 35 37  1  0  0  0  0
 35 38  1  0  0  0  0
 35 39  1  0  0  0  0
M  END
$$$$

  -OEChem-05262216283D

 39 38  0     1  0  0  0  0  0999 V2000
   -2.7857   -2.4866   -2.1253 C   0  0  0  0  0  0  0  0  0  0  0  0
   -2.3207   -2.3431   -1.0037 O   0  0  0  0  0  0  0  0  0  0  0  0
   -3.5674   -3.7376   -2.4784 C   0  0  0  0  0  0  0  0  0  0  0  0
   -3.0872   -4.2550   -3.3128 H   0  0  0  0  0  0  0  0  0  0  0  0
   -3.6042   -4.4143   -1.6199 H   0  0  0  0  0  0  0  0  0  0  0  0
   -4.5893   -3.4736   -2.7617 H   0  0  0  0  0  0  0  0  0  0  0  0
   -2.6348   -1.4778   -3.0544 N   0  0  0  0  0  0  0  0  0  0  0  0
   -1.8397   -0.2595   -2.8310 C   0  0  2  0  0  0  0  0  0  0  0  0
   -2.5618    0.7837   -1.9410 C   0  0  0  0  0  0  0  0  0  0  0  0
   -2.7812    1.9168   -2.3435 O   0  0  0  0  0  0  0  0  0  0  0  0
   -1.4604    0.2947   -4.2106 C   0  0  0  0  0  0  0  0  0  0  0  0
   -3.0760   -1.6080   -3.9608 H   0  0  0  0  0  0  0  0  0  0  0  0
   -0.9101   -0.5254   -2.3159 H   0  0  0  0  0  0  0  0  0  0  0  0
   -2.3559    0.5872   -4.7684 H   0  0  0  0  0  0  0  0  0  0  0  0
   -0.8186    1.1751   -4.1016 H   0  0  0  0  0  0  0  0  0  0  0  0
   -0.9156   -0.4576   -4.7892 H   0  0  0  0  0  0  0  0  0  0  0  0
   -2.9270    0.4290   -0.6535 N   0  0  0  0  0  0  0  0  0  0  0  0
   -3.5143    1.3146    0.3705 C   0  0  0  0  0  0  0  0  0  0  0  0
   -2.8334    2.6847    0.5050 C   0  0  0  0  0  0  0  0  0  0  0  0
   -3.4021    3.7095    0.1539 O   0  0  0  0  0  0  0  0  0  0  0  0
   -2.7416   -0.5494   -0.4102 H   0  0  0  0  0  0  0  0  0  0  0  0
   -3.4776    0.8188    1.3442 H   0  0  0  0  0  0  0  0  0  0  0  0
   -4.5682    1.4844    0.1282 H   0  0  0  0  0  0  0  0  0  0  0  0
   -1.6038    2.7815    1.1295 N   0  0  0  0  0  0  0  0  0  0  0  0
   -0.8002    4.0143    1.1106 C   0  0  2  0  0  0  0  0  0  0  0  0
   -0.1130    4.2330   -0.2614 C   0  0  0  0  0  0  0  0  0  0  0  0
    1.1054    4.3275   -0.3584 O   0  0  0  0  0  0  0  0  0  0  0  0
    0.1968    3.9317    2.2733 C   0  0  0  0  0  0  0  0  0  0  0  0
   -1.1162    1.9043    1.2859 H   0  0  0  0  0  0  0  0  0  0  0  0
   -1.4468    4.8803    1.2887 H   0  0  0  0  0  0  0  0  0  0  0  0
    0.8826    3.0899    2.1350 H   0  0  0  0  0  0  0  0  0  0  0  0
    0.7866    4.8521    2.3314 H   0  0  0  0  0  0  0  0  0  0  0  0
   -0.3329    3.8013    3.2217 H   0  0  0  0  0  0  0  0  0  0  0  0
   -0.8784    4.2614   -1.4108 N   0  0  0  0  0  0  0  0  0  0  0  0
   -0.3263    4.3187   -2.7559 C   0  0  0  0  0  0  0  0  0  0  0  0
   -1.8793    4.0727   -1.2999 H   0  0  0  0  0  0  0  0  0  0  0  0
    0.2212    5.2548   -2.9052 H   0  0  0  0  0  0  0  0  0  0  0  0
    0.3534    3.4782   -2.9282 H   0  0  0  0  0  0  0  0  0  0  0  0
   -1.1336    4.2665   -3.4928 H   0  0  0  0  0  0  0  0  0  0  0  0
  1  2  2  0  0  0  0
  1  3  1  0  0  0  0
  1  7  1  0  0  0  0
  3  4  1  0  0  0  0
  3  5  1  0  0  0  0
  3  6  1  0  0  0  0
  7  8  1  0  0  0  0
  7 12  1  0  0  0  0
  8  9  1  0  0  0  0
  8 11  1  0  0  0  0
  8 13  1  0  0  0  0
  9 10  2  0  0  0  0
  9 17  1  0  0  0  0
 11 14  1  0  0  0  0
 11 15  1  0  0  0  0
 11 16  1  0  0  0  0
 17 18  1  0  0  0  0
 17 21  1  0  0  0  0
 18 19  1  0  0  0  0
 18 22  1  0  0  0  0
 18 23  1  0  0  0  0
 19 20  2  0  0  0  0
 19 24  1  0  0  0  0
 24 25  1  0  0  0  0
 24 29  1  0  0  0  0
 25 26  1  0  0  0  0
 25 28  1  0  0  0  0
 25 30  1  0  0  0  0
 26 27  2  0  0  0  0
 26 34  1  0  0  0  0
 28 31  1  0  0  0  0
 28 32  1  0  0  0  0
 28 33  1  0  0  0  0
 34 35  1  0  0  0  0
 34 36  1  0  0  0  0
 35 37  1  0  0  0  0
 35 38  1  0  0  0  0
 35 39  1  0  0  0  0
M  END
$$$$

  -OEChem-05262216283D

 39 38  0     1  0  0  0  0  0999 V2000
   -2.3735   -2.2370   -1.9017 C   0  0  0  0  0  0  0  0  0  0  0  0
   -1.9196   -1.7869   -0.8598 O   0  0  0  0  0  0  0  0  0  0  0  0
   -2.6657   -3.7196   -2.0350 C   0  0  0  0  0  0  0  0  0  0  0  0
   -2.1213   -4.1333   -2.8875 H   0  0  0  0  0  0  0  0  0  0  0  0
   -2.3533   -4.2486   -1.1301 H   0  0  0  0  0  0  0  0  0  0  0  0
   -3.7366   -3.8790   -2.1839 H   0  0  0  0  0  0  0  0  0  0  0  0
   -2.6787   -1.3722   -2.9330 N   0  0  0  0  0  0  0  0  0  0  0  0
   -2.2741    0.0446   -2.9745 C   0  0  2  0  0  0  0  0  0  0  0  0
   -3.1349    0.9804   -2.0864 C   0  0  0  0  0  0  0  0  0  0  0  0
   -3.4271    2.1085   -2.4566 O   0  0  0  0  0  0  0  0  0  0  0  0
   -2.2883    0.4651   -4.4500 C   0  0  0  0  0  0  0  0  0  0  0  0
   -3.0617   -1.7842   -3.7796 H   0  0  0  0  0  0  0  0  0  0  0  0
   -1.2437    0.1322   -2.6123 H   0  0  0  0  0  0  0  0  0  0  0  0
   -3.3075    0.4356   -4.8485 H   0  0  0  0  0  0  0  0  0  0  0  0
   -1.9049    1.4845   -4.5597 H   0  0  0  0  0  0  0  0  0  0  0  0
   -1.6570   -0.2017   -5.0452 H   0  0  0  0  0  0  0  0  0  0  0  0
   -3.5193    0.5696   -0.8211 N   0  0  0  0  0  0  0  0  0  0  0  0
   -3.8851    1.4923    0.2706 C   0  0  0  0  0  0  0  0  0  0  0  0
   -2.9221    2.6777    0.4290 C   0  0  0  0  0  0  0  0  0  0  0  0
   -3.3151    3.8341    0.3533 O   0  0  0  0  0  0  0  0  0  0  0  0
   -3.1282   -0.3385   -0.5556 H   0  0  0  0  0  0  0  0  0  0  0  0
   -3.9218    0.9465    1.2170 H   0  0  0  0  0  0  0  0  0  0  0  0
   -4.8875    1.8894    0.0805 H   0  0  0  0  0  0  0  0  0  0  0  0
   -1.5891    2.4313    0.7020 N   0  0  0  0  0  0  0  0  0  0  0  0
   -0.5534    3.4708    0.6185 C   0  0  2  0  0  0  0  0  0  0  0  0
   -0.1992    3.8021   -0.8522 C   0  0  0  0  0  0  0  0  0  0  0  0
    0.9045    3.5453   -1.3204 O   0  0  0  0  0  0  0  0  0  0  0  0
    0.6526    2.9856    1.4317 C   0  0  0  0  0  0  0  0  0  0  0  0
   -1.2917    1.4619    0.6286 H   0  0  0  0  0  0  0  0  0  0  0  0
   -0.9171    4.3945    1.0813 H   0  0  0  0  0  0  0  0  0  0  0  0
    1.0542    2.0580    1.0114 H   0  0  0  0  0  0  0  0  0  0  0  0
    1.4448    3.7413    1.4214 H   0  0  0  0  0  0  0  0  0  0  0  0
    0.3624    2.8029    2.4708 H   0  0  0  0  0  0  0  0  0  0  0  0
   -1.1719    4.3347   -1.6745 N   0  0  0  0  0  0  0  0  0  0  0  0
   -1.0110    4.4971   -3.1119 C   0  0  0  0  0  0  0  0  0  0  0  0
   -2.1181    4.3659   -1.2839 H   0  0  0  0  0  0  0  0  0  0  0  0
   -0.1664    5.1581   -3.3319 H   0  0  0  0  0  0  0  0  0  0  0  0
   -0.8367    3.5274   -3.5884 H   0  0  0  0  0  0  0  0  0  0  0  0
   -1.9153    4.9371   -3.5428 H   0  0  0  0  0  0  0  0  0  0  0  0
  1  2  2  0  0  0  0
  1  3  1  0  0  0  0
  1  7  1  0  0  0  0
  3  4  1  0  0  0  0
  3  5  1  0  0  0  0
  3  6  1  0  0  0  0
  7  8  1  0  0  0  0
  7 12  1  0  0  0  0
  8  9  1  0  0  0  0
  8 11  1  0  0  0  0
  8 13  1  0  0  0  0
  9 10  2  0  0  0  0
  9 17  1  0  0  0  0
 11 14  1  0  0  0  0
 11 15  1  0  0  0  0
 11 16  1  0  0  0  0
 17 18  1  0  0  0  0
 17 21  1  0  0  0  0
 18 19  1  0  0  0  0
 18 22  1  0  0  0  0
 18 23  1  0  0  0  0
 19 20  2  0  0  0  0
 19 24  1  0  0  0  0
 24 25  1  0  0  0  0
 24 29  1  0  0  0  0
 25 26  1  0  0  0  0
 25 28  1  0  0  0  0
 25 30  1  0  0  0  0
 26 27  2  0  0  0  0
 26 34  1  0  0  0  0
 28 31  1  0  0  0  0
 28 32  1  0  0  0  0
 28 33  1  0  0  0  0
 34 35  1  0  0  0  0
 34 36  1  0  0  0  0
 35 37  1  0  0  0  0
 35 38  1  0  0  0  0
 35 39  1  0  0  0  0
M  END
$$$$

  -OEChem-05262216283D

 39 38  0     1  0  0  0  0  0999 V2000
   -2.0145   -1.6129   -1.7404 C   0  0  0  0  0  0  0  0  0  0  0  0
   -1.7443   -0.9097   -0.7776 O   0  0  0  0  0  0  0  0  0  0  0  0
   -1.7136   -3.0990   -1.7124 C   0  0  0  0  0  0  0  0  0  0  0  0
   -1.0539   -3.3625   -2.5429 H   0  0  0  0  0  0  0  0  0  0  0  0
   -1.2192   -3.3661   -0.7740 H   0  0  0  0  0  0  0  0  0  0  0  0
   -2.6405   -3.6716   -1.7972 H   0  0  0  0  0  0  0  0  0  0  0  0
   -2.6856   -1.0589   -2.8119 N   0  0  0  0  0  0  0  0  0  0  0  0
   -2.7510    0.3925   -3.0701 C   0  0  2  0  0  0  0  0  0  0  0  0
   -3.7053    1.1919   -2.1465 C   0  0  0  0  0  0  0  0  0  0  0  0
   -4.0052    2.3453   -2.4193 O   0  0  0  0  0  0  0  0  0  0  0  0
   -3.1328    0.5671   -4.5444 C   0  0  0  0  0  0  0  0  0  0  0  0
   -2.8543   -1.6790   -3.5997 H   0  0  0  0  0  0  0  0  0  0  0  0
   -1.7515    0.8201   -2.9278 H   0  0  0  0  0  0  0  0  0  0  0  0
   -4.1451    0.1930   -4.7270 H   0  0  0  0  0  0  0  0  0  0  0  0
   -3.0998    1.6253   -4.8236 H   0  0  0  0  0  0  0  0  0  0  0  0
   -2.4338    0.0254   -5.1888 H   0  0  0  0  0  0  0  0  0  0  0  0
   -4.1334    0.6710   -0.9359 N   0  0  0  0  0  0  0  0  0  0  0  0
   -4.1970    1.5309    0.2631 C   0  0  0  0  0  0  0  0  0  0  0  0
   -2.9452    2.4062    0.4467 C   0  0  0  0  0  0  0  0  0  0  0  0
   -3.0342    3.6067    0.6700 O   0  0  0  0  0  0  0  0  0  0  0  0
   -3.7438   -0.2565   -0.7732 H   0  0  0  0  0  0  0  0  0  0  0  0
   -4.3200    0.9110    1.1550 H   0  0  0  0  0  0  0  0  0  0  0  0
   -5.0709    2.1868    0.1913 H   0  0  0  0  0  0  0  0  0  0  0  0
   -1.6951    1.8366    0.2789 N   0  0  0  0  0  0  0  0  0  0  0  0
   -0.4810    2.6237    0.0381 C   0  0  2  0  0  0  0  0  0  0  0  0
   -0.4629    3.1863   -1.4029 C   0  0  0  0  0  0  0  0  0  0  0  0
    0.2517    2.7017   -2.2748 O   0  0  0  0  0  0  0  0  0  0  0  0
    0.7193    1.7199    0.3415 C   0  0  0  0  0  0  0  0  0  0  0  0
   -1.6828    0.8570   -0.0192 H   0  0  0  0  0  0  0  0  0  0  0  0
   -0.4440    3.4744    0.7270 H   0  0  0  0  0  0  0  0  0  0  0  0
    0.7134    0.8388   -0.3085 H   0  0  0  0  0  0  0  0  0  0  0  0
    1.6546    2.2646    0.1791 H   0  0  0  0  0  0  0  0  0  0  0  0
    0.6889    1.3853    1.3828 H   0  0  0  0  0  0  0  0  0  0  0  0
   -1.3460    4.1944   -1.7325 N   0  0  0  0  0  0  0  0  0  0  0  0
   -1.5839    4.6292   -3.1018 C   0  0  0  0  0  0  0  0  0  0  0  0
   -2.0707    4.3820   -1.0342 H   0  0  0  0  0  0  0  0  0  0  0  0
   -0.6553    4.9873   -3.5579 H   0  0  0  0  0  0  0  0  0  0  0  0
   -1.9783    3.8040   -3.7033 H   0  0  0  0  0  0  0  0  0  0  0  0
   -2.3117    5.4461   -3.1143 H   0  0  0  0  0  0  0  0  0  0  0  0
  1  2  2  0  0  0  0
  1  3  1  0  0  0  0
  1  7  1  0  0  0  0
  3  4  1  0  0  0  0
  3  5  1  0  0  0  0
  3  6  1  0  0  0  0
  7  8  1  0  0  0  0
  7 12  1  0  0  0  0
  8  9  1  0  0  0  0
  8 11  1  0  0  0  0
  8 13  1  0  0  0  0
  9 10  2  0  0  0  0
  9 17  1  0  0  0  0
 11 14  1  0  0  0  0
 11 15  1  0  0  0  0
 11 16  1  0  0  0  0
 17 18  1  0  0  0  0
 17 21  1  0  0  0  0
 18 19  1  0  0  0  0
 18 22  1  0  0  0  0
 18 23  1  0  0  0  0
 19 20  2  0  0  0  0
 19 24  1  0  0  0  0
 24 25  1  0  0  0  0
 24 29  1  0  0  0  0
 25 26  1  0  0  0  0
 25 28  1  0  0  0  0
 25 30  1  0  0  0  0
 26 27  2  0  0  0  0
 26 34  1  0  0  0  0
 28 31  1  0  0  0  0
 28 32  1  0  0  0  0
 28 33  1  0  0  0  0
 34 35  1  0  0  0  0
 34 36  1  0  0  0  0
 35 37  1  0  0  0  0
 35 38  1  0  0  0  0
 35 39  1  0  0  0  0
M  END
$$$$

  -OEChem-05262216283D

 39 38  0     1  0  0  0  0  0999 V2000
   -2.8480   -2.7548   -2.3360 C   0  0  0  0  0  0  0  0  0  0  0  0
   -2.0215   -2.6059   -1.4480 O   0  0  0  0  0  0  0  0  0  0  0  0
   -3.4113   -4.1302   -2.6384 C   0  0  0  0  0  0  0  0  0  0  0  0
   -3.2217   -4.3902   -3.6828 H   0  0  0  0  0  0  0  0  0  0  0  0
   -2.9391   -4.8807   -1.9981 H   0  0  0  0  0  0  0  0  0  0  0  0
   -4.4890   -4.1406   -2.4573 H   0  0  0  0  0  0  0  0  0  0  0  0
   -3.3034   -1.6551   -3.0330 N   0  0  0  0  0  0  0  0  0  0  0  0
   -2.7655   -0.2936   -2.8786 C   0  0  2  0  0  0  0  0  0  0  0  0
   -3.2676    0.4199   -1.5978 C   0  0  0  0  0  0  0  0  0  0  0  0
   -3.8398    1.5016   -1.6445 O   0  0  0  0  0  0  0  0  0  0  0  0
   -3.1104    0.4728   -4.1614 C   0  0  0  0  0  0  0  0  0  0  0  0
   -4.0115   -1.8153   -3.7438 H   0  0  0  0  0  0  0  0  0  0  0  0
   -1.6730   -0.3399   -2.8065 H   0  0  0  0  0  0  0  0  0  0  0  0
   -4.1947    0.5770   -4.2693 H   0  0  0  0  0  0  0  0  0  0  0  0
   -2.6674    1.4732   -4.1344 H   0  0  0  0  0  0  0  0  0  0  0  0
   -2.7169   -0.0514   -5.0375 H   0  0  0  0  0  0  0  0  0  0  0  0
   -3.0490   -0.1655   -0.3606 N   0  0  0  0  0  0  0  0  0  0  0  0
   -3.1593    0.5313    0.9389 C   0  0  0  0  0  0  0  0  0  0  0  0
   -2.4942    1.9168    1.0022 C   0  0  0  0  0  0  0  0  0  0  0  0
   -2.9461    2.7882    1.7326 O   0  0  0  0  0  0  0  0  0  0  0  0
   -2.5581   -1.0649   -0.3938 H   0  0  0  0  0  0  0  0  0  0  0  0
   -2.7098   -0.0903    1.7178 H   0  0  0  0  0  0  0  0  0  0  0  0
   -4.2186    0.6557    1.1840 H   0  0  0  0  0  0  0  0  0  0  0  0
   -1.3859    2.1774    0.2195 N   0  0  0  0  0  0  0  0  0  0  0  0
   -1.0648    3.5194   -0.2727 C   0  0  2  0  0  0  0  0  0  0  0  0
   -1.0594    3.5209   -1.8162 C   0  0  0  0  0  0  0  0  0  0  0  0
   -0.6951    2.5188   -2.4280 O   0  0  0  0  0  0  0  0  0  0  0  0
    0.3040    3.9217    0.2782 C   0  0  0  0  0  0  0  0  0  0  0  0
   -1.1530    1.4265   -0.4273 H   0  0  0  0  0  0  0  0  0  0  0  0
   -1.8128    4.2451    0.0635 H   0  0  0  0  0  0  0  0  0  0  0  0
    1.0728    3.2169   -0.0546 H   0  0  0  0  0  0  0  0  0  0  0  0
    0.5759    4.9237   -0.0673 H   0  0  0  0  0  0  0  0  0  0  0  0
    0.2836    3.9256    1.3727 H   0  0  0  0  0  0  0  0  0  0  0  0
   -1.4594    4.6423   -2.5189 N   0  0  0  0  0  0  0  0  0  0  0  0
   -1.6100    4.6557   -3.9686 C   0  0  0  0  0  0  0  0  0  0  0  0
   -1.8785    5.3952   -1.9803 H   0  0  0  0  0  0  0  0  0  0  0  0
   -0.6743    4.3611   -4.4557 H   0  0  0  0  0  0  0  0  0  0  0  0
   -2.4018    3.9649   -4.2765 H   0  0  0  0  0  0  0  0  0  0  0  0
   -1.8737    5.6608   -4.3118 H   0  0  0  0  0  0  0  0  0  0  0  0
  1  2  2  0  0  0  0
  1  3  1  0  0  0  0
  1  7  1  0  0  0  0
  3  4  1  0  0  0  0
  3  5  1  0  0  0  0
  3  6  1  0  0  0  0
  7  8  1  0  0  0  0
  7 12  1  0  0  0  0
  8  9  1  0  0  0  0
  8 11  1  0  0  0  0
  8 13  1  0  0  0  0
  9 10  2  0  0  0  0
  9 17  1  0  0  0  0
 11 14  1  0  0  0  0
 11 15  1  0  0  0  0
 11 16  1  0  0  0  0
 17 18  1  0  0  0  0
 17 21  1  0  0  0  0
 18 19  1  0  0  0  0
 18 22  1  0  0  0  0
 18 23  1  0  0  0  0
 19 20  2  0  0  0  0
 19 24  1  0  0  0  0
 24 25  1  0  0  0  0
 24 29  1  0  0  0  0
 25 26  1  0  0  0  0
 25 28  1  0  0  0  0
 25 30  1  0  0  0  0
 26 27  2  0  0  0  0
 26 34  1  0  0  0  0
 28 31  1  0  0  0  0
 28 32  1  0  0  0  0
 28 33  1  0  0  0  0
 34 35  1  0  0  0  0
 34 36  1  0  0  0  0
 35 37  1  0  0  0  0
 35 38  1  0  0  0  0
 35 39  1  0  0  0  0
M  END
$$$$

  -OEChem-05262216283D

 39 38  0     1  0  0  0  0  0999 V2000
   -3.7282   -3.3386   -2.5580 C   0  0  0  0  0  0  0  0  0  0  0  0
   -2.9712   -3.9215   -1.7965 O   0  0  0  0  0  0  0  0  0  0  0  0
   -5.0645   -3.9534   -2.9281 C   0  0  0  0  0  0  0  0  0  0  0  0
   -5.1498   -4.0346   -4.0143 H   0  0  0  0  0  0  0  0  0  0  0  0
   -5.1531   -4.9524   -2.4925 H   0  0  0  0  0  0  0  0  0  0  0  0
   -5.8789   -3.3305   -2.5504 H   0  0  0  0  0  0  0  0  0  0  0  0
   -3.3792   -2.1005   -3.0559 N   0  0  0  0  0  0  0  0  0  0  0  0
   -2.2171   -1.3530   -2.5617 C   0  0  2  0  0  0  0  0  0  0  0  0
   -2.5601   -0.5472   -1.2927 C   0  0  0  0  0  0  0  0  0  0  0  0
   -3.4857    0.2526   -1.3079 O   0  0  0  0  0  0  0  0  0  0  0  0
   -1.7382   -0.4232   -3.6803 C   0  0  0  0  0  0  0  0  0  0  0  0
   -4.1210   -1.5687   -3.5040 H   0  0  0  0  0  0  0  0  0  0  0  0
   -1.4002   -2.0427   -2.3248 H   0  0  0  0  0  0  0  0  0  0  0  0
   -2.5240    0.2882   -3.9557 H   0  0  0  0  0  0  0  0  0  0  0  0
   -0.8604    0.1447   -3.3563 H   0  0  0  0  0  0  0  0  0  0  0  0
   -1.4665   -1.0041   -4.5667 H   0  0  0  0  0  0  0  0  0  0  0  0
   -1.7966   -0.6764   -0.1453 N   0  0  0  0  0  0  0  0  0  0  0  0
   -1.8826    0.1852    1.0559 C   0  0  0  0  0  0  0  0  0  0  0  0
   -1.9520    1.7120    0.8496 C   0  0  0  0  0  0  0  0  0  0  0  0
   -2.1727    2.4327    1.8136 O   0  0  0  0  0  0  0  0  0  0  0  0
   -1.1074   -1.4249   -0.1492 H   0  0  0  0  0  0  0  0  0  0  0  0
   -1.0115   -0.0109    1.6870 H   0  0  0  0  0  0  0  0  0  0  0  0
   -2.7731   -0.1045    1.6223 H   0  0  0  0  0  0  0  0  0  0  0  0
   -1.6318    2.2890   -0.3636 N   0  0  0  0  0  0  0  0  0  0  0  0
   -1.7947    3.7115   -0.6740 C   0  0  2  0  0  0  0  0  0  0  0  0
   -2.0687    3.9199   -2.1791 C   0  0  0  0  0  0  0  0  0  0  0  0
   -1.7763    3.0467   -2.9913 O   0  0  0  0  0  0  0  0  0  0  0  0
   -0.5231    4.4555   -0.2548 C   0  0  0  0  0  0  0  0  0  0  0  0
   -1.6910    1.6586   -1.1630 H   0  0  0  0  0  0  0  0  0  0  0  0
   -2.6510    4.1115   -0.1209 H   0  0  0  0  0  0  0  0  0  0  0  0
    0.3442    4.0617   -0.7944 H   0  0  0  0  0  0  0  0  0  0  0  0
   -0.6146    5.5240   -0.4717 H   0  0  0  0  0  0  0  0  0  0  0  0
   -0.3491    4.3357    0.8193 H   0  0  0  0  0  0  0  0  0  0  0  0
   -2.6349    5.0988   -2.6288 N   0  0  0  0  0  0  0  0  0  0  0  0
   -2.9405    5.3567   -4.0307 C   0  0  0  0  0  0  0  0  0  0  0  0
   -2.8977    5.7895   -1.9317 H   0  0  0  0  0  0  0  0  0  0  0  0
   -2.0293    5.3092   -4.6361 H   0  0  0  0  0  0  0  0  0  0  0  0
   -3.6547    4.6178   -4.4091 H   0  0  0  0  0  0  0  0  0  0  0  0
   -3.3790    6.3526   -4.1458 H   0  0  0  0  0  0  0  0  0  0  0  0
  1  2  2  0  0  0  0
  1  3  1  0  0  0  0
  1  7  1  0  0  0  0
  3  4  1  0  0  0  0
  3  5  1  0  0  0  0
  3  6  1  0  0  0  0
  7  8  1  0  0  0  0
  7 12  1  0  0  0  0
  8  9  1  0  0  0  0
  8 11  1  0  0  0  0
  8 13  1  0  0  0  0
  9 10  2  0  0  0  0
  9 17  1  0  0  0  0
 11 14  1  0  0  0  0
 11 15  1  0  0  0  0
 11 16  1  0  0  0  0
 17 18  1  0  0  0  0
 17 21  1  0  0  0  0
 18 19  1  0  0  0  0
 18 22  1  0  0  0  0
 18 23  1  0  0  0  0
 19 20  2  0  0  0  0
 19 24  1  0  0  0  0
 24 25  1  0  0  0  0
 24 29  1  0  0  0  0
 25 26  1  0  0  0  0
 25 28  1  0  0  0  0
 25 30  1  0  0  0  0
 26 27  2  0  0  0  0
 26 34  1  0  0  0  0
 28 31  1  0  0  0  0
 28 32  1  0  0  0  0
 28 33  1  0  0  0  0
 34 35  1  0  0  0  0
 34 36  1  0  0  0  0
 35 37  1  0  0  0  0
 35 38  1  0  0  0  0
 35 39  1  0  0  0  0
M  END
$$$$

  -OEChem-05262216283D

 39 38  0     1  0  0  0  0  0999 V2000
   -3.6897   -3.5405   -2.5820 C   0  0  0  0  0  0  0  0  0  0  0  0
   -2.9015   -4.1772   -1.8998 O   0  0  0  0  0  0  0  0  0  0  0  0
   -5.0158   -4.1549   -2.9892 C   0  0  0  0  0  0  0  0  0  0  0  0
   -5.1179   -4.1376   -4.0771 H   0  0  0  0  0  0  0  0  0  0  0  0
   -5.0715   -5.1923   -2.6474 H   0  0  0  0  0  0  0  0  0  0  0  0
   -5.8398   -3.5922   -2.5436 H   0  0  0  0  0  0  0  0  0  0  0  0
   -3.3840   -2.2507   -2.9641 N   0  0  0  0  0  0  0  0  0  0  0  0
   -2.2304   -1.5157   -2.4315 C   0  0  2  0  0  0  0  0  0  0  0  0
   -2.5911   -0.7346   -1.1522 C   0  0  0  0  0  0  0  0  0  0  0  0
   -3.5893   -0.0269   -1.1289 O   0  0  0  0  0  0  0  0  0  0  0  0
   -1.7414   -0.5555   -3.5196 C   0  0  0  0  0  0  0  0  0  0  0  0
   -4.1511   -1.7001   -3.3424 H   0  0  0  0  0  0  0  0  0  0  0  0
   -1.4148   -2.2079   -2.1973 H   0  0  0  0  0  0  0  0  0  0  0  0
   -2.5283    0.1579   -3.7875 H   0  0  0  0  0  0  0  0  0  0  0  0
   -0.8712    0.0086   -3.1695 H   0  0  0  0  0  0  0  0  0  0  0  0
   -1.4551   -1.1119   -4.4174 H   0  0  0  0  0  0  0  0  0  0  0  0
   -1.7583   -0.7574   -0.0476 N   0  0  0  0  0  0  0  0  0  0  0  0
   -1.7946    0.1889    1.0916 C   0  0  0  0  0  0  0  0  0  0  0  0
   -1.9171    1.7018    0.8059 C   0  0  0  0  0  0  0  0  0  0  0  0
   -1.8073    2.4791    1.7443 O   0  0  0  0  0  0  0  0  0  0  0  0
   -0.9684   -1.3954   -0.1043 H   0  0  0  0  0  0  0  0  0  0  0  0
   -0.8850    0.0499    1.6828 H   0  0  0  0  0  0  0  0  0  0  0  0
   -2.6425   -0.0826    1.7278 H   0  0  0  0  0  0  0  0  0  0  0  0
   -1.9949    2.2141   -0.4745 N   0  0  0  0  0  0  0  0  0  0  0  0
   -2.1119    3.6387   -0.8027 C   0  0  2  0  0  0  0  0  0  0  0  0
   -2.7599    3.8439   -2.1886 C   0  0  0  0  0  0  0  0  0  0  0  0
   -2.7222    2.9536   -3.0320 O   0  0  0  0  0  0  0  0  0  0  0  0
   -0.7158    4.2705   -0.7817 C   0  0  0  0  0  0  0  0  0  0  0  0
   -2.3586    1.5622   -1.1739 H   0  0  0  0  0  0  0  0  0  0  0  0
   -2.7469    4.1315   -0.0590 H   0  0  0  0  0  0  0  0  0  0  0  0
   -0.0654    3.7824   -1.5145 H   0  0  0  0  0  0  0  0  0  0  0  0
   -0.7737    5.3362   -1.0218 H   0  0  0  0  0  0  0  0  0  0  0  0
   -0.2635    4.1661    0.2092 H   0  0  0  0  0  0  0  0  0  0  0  0
   -3.3714    5.0442   -2.5021 N   0  0  0  0  0  0  0  0  0  0  0  0
   -4.0163    5.3022   -3.7839 C   0  0  0  0  0  0  0  0  0  0  0  0
   -3.4074    5.7569   -1.7791 H   0  0  0  0  0  0  0  0  0  0  0  0
   -3.2945    5.2066   -4.6020 H   0  0  0  0  0  0  0  0  0  0  0  0
   -4.8340    4.5930   -3.9506 H   0  0  0  0  0  0  0  0  0  0  0  0
   -4.4284    6.3157   -3.8041 H   0  0  0  0  0  0  0  0  0  0  0  0
  1  2  2  0  0  0  0
  1  3  1  0  0  0  0
  1  7  1  0  0  0  0
  3  4  1  0  0  0  0
  3  5  1  0  0  0  0
  3  6  1  0  0  0  0
  7  8  1  0  0  0  0
  7 12  1  0  0  0  0
  8  9  1  0  0  0  0
  8 11  1  0  0  0  0
  8 13  1  0  0  0  0
  9 10  2  0  0  0  0
  9 17  1  0  0  0  0
 11 14  1  0  0  0  0
 11 15  1  0  0  0  0
 11 16  1  0  0  0  0
 17 18  1  0  0  0  0
 17 21  1  0  0  0  0
 18 19  1  0  0  0  0
 18 22  1  0  0  0  0
 18 23  1  0  0  0  0
 19 20  2  0  0  0  0
 19 24  1  0  0  0  0
 24 25  1  0  0  0  0
 24 29  1  0  0  0  0
 25 26  1  0  0  0  0
 25 28  1  0  0  0  0
 25 30  1  0  0  0  0
 26 27  2  0  0  0  0
 26 34  1  0  0  0  0
 28 31  1  0  0  0  0
 28 32  1  0  0  0  0
 28 33  1  0  0  0  0
 34 35  1  0  0  0  0
 34 36  1  0  0  0  0
 35 37  1  0  0  0  0
 35 38  1  0  0  0  0
 35 39  1  0  0  0  0
M  END
$$$$

  -OEChem-05262216283D

 39 38  0     1  0  0  0  0  0999 V2000
   -2.5332   -3.6541   -2.0333 C   0  0  0  0  0  0  0  0  0  0  0  0
   -1.6207   -3.2118   -1.3509 O   0  0  0  0  0  0  0  0  0  0  0  0
   -2.8617   -5.1347   -2.0085 C   0  0  0  0  0  0  0  0  0  0  0  0
   -3.8592   -5.2892   -1.5895 H   0  0  0  0  0  0  0  0  0  0  0  0
   -2.8321   -5.5416   -3.0224 H   0  0  0  0  0  0  0  0  0  0  0  0
   -2.1341   -5.6717   -1.3933 H   0  0  0  0  0  0  0  0  0  0  0  0
   -3.2991   -2.7856   -2.7839 N   0  0  0  0  0  0  0  0  0  0  0  0
   -3.0453   -1.3397   -2.8817 C   0  0  2  0  0  0  0  0  0  0  0  0
   -3.5198   -0.5609   -1.6305 C   0  0  0  0  0  0  0  0  0  0  0  0
   -4.3656    0.3203   -1.7016 O   0  0  0  0  0  0  0  0  0  0  0  0
   -3.6993   -0.8404   -4.1764 C   0  0  0  0  0  0  0  0  0  0  0  0
   -4.0897   -3.1751   -3.2898 H   0  0  0  0  0  0  0  0  0  0  0  0
   -1.9671   -1.1675   -2.9720 H   0  0  0  0  0  0  0  0  0  0  0  0
   -4.7853   -0.9734   -4.1377 H   0  0  0  0  0  0  0  0  0  0  0  0
   -3.4873    0.2246   -4.3211 H   0  0  0  0  0  0  0  0  0  0  0  0
   -3.3081   -1.3885   -5.0389 H   0  0  0  0  0  0  0  0  0  0  0  0
   -2.9797   -0.8583   -0.3937 N   0  0  0  0  0  0  0  0  0  0  0  0
   -3.0158   -0.0019    0.8129 C   0  0  0  0  0  0  0  0  0  0  0  0
   -2.6861    1.5023    0.6862 C   0  0  0  0  0  0  0  0  0  0  0  0
   -2.3796    2.1107    1.7032 O   0  0  0  0  0  0  0  0  0  0  0  0
   -2.2849   -1.6119   -0.4161 H   0  0  0  0  0  0  0  0  0  0  0  0
   -2.3214   -0.4212    1.5471 H   0  0  0  0  0  0  0  0  0  0  0  0
   -4.0205   -0.0683    1.2408 H   0  0  0  0  0  0  0  0  0  0  0  0
   -2.6456    2.1765   -0.5186 N   0  0  0  0  0  0  0  0  0  0  0  0
   -2.3316    3.6004   -0.6806 C   0  0  2  0  0  0  0  0  0  0  0  0
   -2.8752    4.1593   -2.0125 C   0  0  0  0  0  0  0  0  0  0  0  0
   -3.0322    3.4247   -2.9816 O   0  0  0  0  0  0  0  0  0  0  0  0
   -0.8104    3.7815   -0.6277 C   0  0  0  0  0  0  0  0  0  0  0  0
   -3.1279    1.7176   -1.2977 H   0  0  0  0  0  0  0  0  0  0  0  0
   -2.7950    4.1668    0.1338 H   0  0  0  0  0  0  0  0  0  0  0  0
   -0.3318    3.2138   -1.4321 H   0  0  0  0  0  0  0  0  0  0  0  0
   -0.5454    4.8370   -0.7401 H   0  0  0  0  0  0  0  0  0  0  0  0
   -0.4150    3.4285    0.3297 H   0  0  0  0  0  0  0  0  0  0  0  0
   -3.1649    5.5065   -2.1333 N   0  0  0  0  0  0  0  0  0  0  0  0
   -3.7116    6.1007   -3.3471 C   0  0  0  0  0  0  0  0  0  0  0  0
   -3.0524    6.0868   -1.3072 H   0  0  0  0  0  0  0  0  0  0  0  0
   -3.0348    5.9386   -4.1926 H   0  0  0  0  0  0  0  0  0  0  0  0
   -4.6846    5.6582   -3.5852 H   0  0  0  0  0  0  0  0  0  0  0  0
   -3.8446    7.1784   -3.2137 H   0  0  0  0  0  0  0  0  0  0  0  0
  1  2  2  0  0  0  0
  1  3  1  0  0  0  0
  1  7  1  0  0  0  0
  3  4  1  0  0  0  0
  3  5  1  0  0  0  0
  3  6  1  0  0  0  0
  7  8  1  0  0  0  0
  7 12  1  0  0  0  0
  8  9  1  0  0  0  0
  8 11  1  0  0  0  0
  8 13  1  0  0  0  0
  9 10  2  0  0  0  0
  9 17  1  0  0  0  0
 11 14  1  0  0  0  0
 11 15  1  0  0  0  0
 11 16  1  0  0  0  0
 17 18  1  0  0  0  0
 17 21  1  0  0  0  0
 18 19  1  0  0  0  0
 18 22  1  0  0  0  0
 18 23  1  0  0  0  0
 19 20  2  0  0  0  0
 19 24  1  0  0  0  0
 24 25  1  0  0  0  0
 24 29  1  0  0  0  0
 25 26  1  0  0  0  0
 25 28  1  0  0  0  0
 25 30  1  0  0  0  0
 26 27  2  0  0  0  0
 26 34  1  0  0  0  0
 28 31  1  0  0  0  0
 28 32  1  0  0  0  0
 28 33  1  0  0  0  0
 34 35  1  0  0  0  0
 34 36  1  0  0  0  0
 35 37  1  0  0  0  0
 35 38  1  0  0  0  0
 35 39  1  0  0  0  0
M  END
$$$$

  -OEChem-05262216283D

 39 38  0     1  0  0  0  0  0999 V2000
   -4.2837   -3.0091   -2.5036 C   0  0  0  0  0  0  0  0  0  0  0  0
   -3.4954   -3.7081   -1.8862 O   0  0  0  0  0  0  0  0  0  0  0  0
   -5.6788   -3.5190   -2.8128 C   0  0  0  0  0  0  0  0  0  0  0  0
   -5.8517   -3.5050   -3.8917 H   0  0  0  0  0  0  0  0  0  0  0  0
   -5.7932   -4.5453   -2.4523 H   0  0  0  0  0  0  0  0  0  0  0  0
   -6.4246   -2.8887   -2.3222 H   0  0  0  0  0  0  0  0  0  0  0  0
   -3.9082   -1.7416   -2.8989 N   0  0  0  0  0  0  0  0  0  0  0  0
   -2.6467   -1.1243   -2.4699 C   0  0  2  0  0  0  0  0  0  0  0  0
   -2.7580   -0.4664   -1.0785 C   0  0  0  0  0  0  0  0  0  0  0  0
   -3.6812    0.2977   -0.8225 O   0  0  0  0  0  0  0  0  0  0  0  0
   -2.2342   -0.0893   -3.5190 C   0  0  0  0  0  0  0  0  0  0  0  0
   -4.6474   -1.1327   -3.2376 H   0  0  0  0  0  0  0  0  0  0  0  0
   -1.8598   -1.8851   -2.4272 H   0  0  0  0  0  0  0  0  0  0  0  0
   -2.9974    0.6877   -3.6164 H   0  0  0  0  0  0  0  0  0  0  0  0
   -1.2910    0.3879   -3.2335 H   0  0  0  0  0  0  0  0  0  0  0  0
   -2.0978   -0.5690   -4.4931 H   0  0  0  0  0  0  0  0  0  0  0  0
   -1.8466   -0.7754   -0.0898 N   0  0  0  0  0  0  0  0  0  0  0  0
   -1.2860    0.1726    0.8967 C   0  0  0  0  0  0  0  0  0  0  0  0
   -0.7863    1.5630    0.4325 C   0  0  0  0  0  0  0  0  0  0  0  0
    0.3519    1.8776    0.7345 O   0  0  0  0  0  0  0  0  0  0  0  0
   -1.2283   -1.5420   -0.3456 H   0  0  0  0  0  0  0  0  0  0  0  0
   -0.4517   -0.3208    1.4051 H   0  0  0  0  0  0  0  0  0  0  0  0
   -2.0542    0.3538    1.6539 H   0  0  0  0  0  0  0  0  0  0  0  0
   -1.2484    2.3176   -0.6193 N   0  0  0  0  0  0  0  0  0  0  0  0
   -2.5090    3.0575   -0.4699 C   0  0  2  0  0  0  0  0  0  0  0  0
   -3.1962    3.3329   -1.8263 C   0  0  0  0  0  0  0  0  0  0  0  0
   -2.6991    4.1092   -2.6336 O   0  0  0  0  0  0  0  0  0  0  0  0
   -2.2041    4.3771    0.2516 C   0  0  0  0  0  0  0  0  0  0  0  0
   -0.4929    2.8934   -0.9863 H   0  0  0  0  0  0  0  0  0  0  0  0
   -3.2091    2.4960    0.1550 H   0  0  0  0  0  0  0  0  0  0  0  0
   -1.4879    4.9748   -0.3223 H   0  0  0  0  0  0  0  0  0  0  0  0
   -3.1210    4.9619    0.3754 H   0  0  0  0  0  0  0  0  0  0  0  0
   -1.7805    4.1859    1.2423 H   0  0  0  0  0  0  0  0  0  0  0  0
   -4.4069    2.7373   -2.1195 N   0  0  0  0  0  0  0  0  0  0  0  0
   -5.1058    2.9279   -3.3836 C   0  0  0  0  0  0  0  0  0  0  0  0
   -4.6415    1.9259   -1.5428 H   0  0  0  0  0  0  0  0  0  0  0  0
   -5.3708    3.9822   -3.5173 H   0  0  0  0  0  0  0  0  0  0  0  0
   -4.4773    2.6143   -4.2236 H   0  0  0  0  0  0  0  0  0  0  0  0
   -6.0267    2.3371   -3.3981 H   0  0  0  0  0  0  0  0  0  0  0  0
  1  2  2  0  0  0  0
  1  3  1  0  0  0  0
  1  7  1  0  0  0  0
  3  4  1  0  0  0  0
  3  5  1  0  0  0  0
  3  6  1  0  0  0  0
  7  8  1  0  0  0  0
  7 12  1  0  0  0  0
  8  9  1  0  0  0  0
  8 11  1  0  0  0  0
  8 13  1  0  0  0  0
  9 10  2  0  0  0  0
  9 17  1  0  0  0  0
 11 14  1  0  0  0  0
 11 15  1  0  0  0  0
 11 16  1  0  0  0  0
 17 18  1  0  0  0  0
 17 21  1  0  0  0  0
 18 19  1  0  0  0  0
 18 22  1  0  0  0  0
 18 23  1  0  0  0  0
 19 20  2  0  0  0  0
 19 24  1  0  0  0  0
 24 25  1  0  0  0  0
 24 29  1  0  0  0  0
 25 26  1  0  0  0  0
 25 28  1  0  0  0  0
 25 30  1  0  0  0  0
 26 27  2  0  0  0  0
 26 34  1  0  0  0  0
 28 31  1  0  0  0  0
 28 32  1  0  0  0  0
 28 33  1  0  0  0  0
 34 35  1  0  0  0  0
 34 36  1  0  0  0  0
 35 37  1  0  0  0  0
 35 38  1  0  0  0  0
 35 39  1  0  0  0  0
M  END
$$$$

  -OEChem-05262216283D

 39 38  0     1  0  0  0  0  0999 V2000
   -4.5278   -2.5255   -2.1058 C   0  0  0  0  0  0  0  0  0  0  0  0
   -4.1108   -3.6664   -2.2331 O   0  0  0  0  0  0  0  0  0  0  0  0
   -5.9983   -2.2776   -1.8286 C   0  0  0  0  0  0  0  0  0  0  0  0
   -6.1159   -1.8091   -0.8485 H   0  0  0  0  0  0  0  0  0  0  0  0
   -6.4143   -1.6134   -2.5903 H   0  0  0  0  0  0  0  0  0  0  0  0
   -6.5513   -3.2206   -1.8398 H   0  0  0  0  0  0  0  0  0  0  0  0
   -3.6756   -1.4497   -2.2310 N   0  0  0  0  0  0  0  0  0  0  0  0
   -2.2098   -1.5509   -2.3143 C   0  0  2  0  0  0  0  0  0  0  0  0
   -1.5162   -0.8332   -1.1319 C   0  0  0  0  0  0  0  0  0  0  0  0
   -1.8537   -1.0713    0.0203 O   0  0  0  0  0  0  0  0  0  0  0  0
   -1.8059   -0.9951   -3.6854 C   0  0  0  0  0  0  0  0  0  0  0  0
   -4.0989   -0.5331   -2.0571 H   0  0  0  0  0  0  0  0  0  0  0  0
   -1.8927   -2.5984   -2.2659 H   0  0  0  0  0  0  0  0  0  0  0  0
   -2.0816    0.0609   -3.7730 H   0  0  0  0  0  0  0  0  0  0  0  0
   -0.7275   -1.0969   -3.8405 H   0  0  0  0  0  0  0  0  0  0  0  0
   -2.3171   -1.5515   -4.4779 H   0  0  0  0  0  0  0  0  0  0  0  0
   -0.5602    0.1486   -1.3399 N   0  0  0  0  0  0  0  0  0  0  0  0
   -0.3191    1.3205   -0.4641 C   0  0  0  0  0  0  0  0  0  0  0  0
   -1.5499    2.1129    0.0326 C   0  0  0  0  0  0  0  0  0  0  0  0
   -1.6274    3.2893   -0.2982 O   0  0  0  0  0  0  0  0  0  0  0  0
   -0.3276    0.2840   -2.3201 H   0  0  0  0  0  0  0  0  0  0  0  0
    0.3411    2.0186   -0.9879 H   0  0  0  0  0  0  0  0  0  0  0  0
    0.2207    0.9766    0.4235 H   0  0  0  0  0  0  0  0  0  0  0  0
   -2.6763    1.4791    0.5263 N   0  0  0  0  0  0  0  0  0  0  0  0
   -4.0669    1.9350    0.3728 C   0  0  2  0  0  0  0  0  0  0  0  0
   -4.4652    2.0265   -1.1159 C   0  0  0  0  0  0  0  0  0  0  0  0
   -5.0124    1.0693   -1.6544 O   0  0  0  0  0  0  0  0  0  0  0  0
   -4.3432    3.2346    1.1445 C   0  0  0  0  0  0  0  0  0  0  0  0
   -2.5476    0.4706    0.6585 H   0  0  0  0  0  0  0  0  0  0  0  0
   -4.7085    1.1673    0.8179 H   0  0  0  0  0  0  0  0  0  0  0  0
   -3.7994    4.0827    0.7205 H   0  0  0  0  0  0  0  0  0  0  0  0
   -5.4119    3.4676    1.1146 H   0  0  0  0  0  0  0  0  0  0  0  0
   -4.0432    3.1205    2.1905 H   0  0  0  0  0  0  0  0  0  0  0  0
   -4.0400    3.0839   -1.8953 N   0  0  0  0  0  0  0  0  0  0  0  0
   -4.1832    3.1207   -3.3444 C   0  0  0  0  0  0  0  0  0  0  0  0
   -3.3308    3.6790   -1.4590 H   0  0  0  0  0  0  0  0  0  0  0  0
   -3.5951    2.3225   -3.8087 H   0  0  0  0  0  0  0  0  0  0  0  0
   -5.2336    2.9973   -3.6290 H   0  0  0  0  0  0  0  0  0  0  0  0
   -3.8339    4.0825   -3.7323 H   0  0  0  0  0  0  0  0  0  0  0  0
  1  2  2  0  0  0  0
  1  3  1  0  0  0  0
  1  7  1  0  0  0  0
  3  4  1  0  0  0  0
  3  5  1  0  0  0  0
  3  6  1  0  0  0  0
  7  8  1  0  0  0  0
  7 12  1  0  0  0  0
  8  9  1  0  0  0  0
  8 11  1  0  0  0  0
  8 13  1  0  0  0  0
  9 10  2  0  0  0  0
  9 17  1  0  0  0  0
 11 14  1  0  0  0  0
 11 15  1  0  0  0  0
 11 16  1  0  0  0  0
 17 18  1  0  0  0  0
 17 21  1  0  0  0  0
 18 19  1  0  0  0  0
 18 22  1  0  0  0  0
 18 23  1  0  0  0  0
 19 20  2  0  0  0  0
 19 24  1  0  0  0  0
 24 25  1  0  0  0  0
 24 29  1  0  0  0  0
 25 26  1  0  0  0  0
 25 28  1  0  0  0  0
 25 30  1  0  0  0  0
 26 27  2  0  0  0  0
 26 34  1  0  0  0  0
 28 31  1  0  0  0  0
 28 32  1  0  0  0  0
 28 33  1  0  0  0  0
 34 35  1  0  0  0  0
 34 36  1  0  0  0  0
 35 37  1  0  0  0  0
 35 38  1  0  0  0  0
 35 39  1  0  0  0  0
M  END
$$$$

  -OEChem-05262216283D

 39 38  0     1  0  0  0  0  0999 V2000
   -4.7399   -2.3519   -2.4147 C   0  0  0  0  0  0  0  0  0  0  0  0
   -4.3604   -3.3011   -3.0840 O   0  0  0  0  0  0  0  0  0  0  0  0
   -6.2067   -2.2027   -2.0593 C   0  0  0  0  0  0  0  0  0  0  0  0
   -6.5978   -1.2717   -2.4772 H   0  0  0  0  0  0  0  0  0  0  0  0
   -6.7818   -3.0414   -2.4607 H   0  0  0  0  0  0  0  0  0  0  0  0
   -6.3248   -2.1797   -0.9731 H   0  0  0  0  0  0  0  0  0  0  0  0
   -3.8380   -1.4003   -1.9918 N   0  0  0  0  0  0  0  0  0  0  0  0
   -2.3812   -1.4970   -2.1730 C   0  0  2  0  0  0  0  0  0  0  0  0
   -1.6118   -0.7949   -1.0296 C   0  0  0  0  0  0  0  0  0  0  0  0
   -1.9035   -1.0214    0.1377 O   0  0  0  0  0  0  0  0  0  0  0  0
   -2.0406   -0.9293   -3.5591 C   0  0  0  0  0  0  0  0  0  0  0  0
   -4.2188   -0.6620   -1.3914 H   0  0  0  0  0  0  0  0  0  0  0  0
   -2.0795   -2.5502   -2.1452 H   0  0  0  0  0  0  0  0  0  0  0  0
   -2.2990    0.1328   -3.6160 H   0  0  0  0  0  0  0  0  0  0  0  0
   -0.9745   -1.0497   -3.7740 H   0  0  0  0  0  0  0  0  0  0  0  0
   -2.6020   -1.4624   -4.3333 H   0  0  0  0  0  0  0  0  0  0  0  0
   -0.6180    0.1379   -1.2835 N   0  0  0  0  0  0  0  0  0  0  0  0
   -0.2987    1.2927   -0.4129 C   0  0  0  0  0  0  0  0  0  0  0  0
   -1.4956    2.1131    0.1130 C   0  0  0  0  0  0  0  0  0  0  0  0
   -1.6821    3.2209   -0.3740 O   0  0  0  0  0  0  0  0  0  0  0  0
   -0.4341    0.2740   -2.2741 H   0  0  0  0  0  0  0  0  0  0  0  0
    0.3643    1.9727   -0.9565 H   0  0  0  0  0  0  0  0  0  0  0  0
    0.2586    0.9295    0.4557 H   0  0  0  0  0  0  0  0  0  0  0  0
   -2.4775    1.5324    0.8961 N   0  0  0  0  0  0  0  0  0  0  0  0
   -3.8890    1.9491    0.9520 C   0  0  2  0  0  0  0  0  0  0  0  0
   -4.5765    1.8099   -0.4242 C   0  0  0  0  0  0  0  0  0  0  0  0
   -5.2312    0.8043   -0.6774 O   0  0  0  0  0  0  0  0  0  0  0  0
   -4.0623    3.3499    1.5588 C   0  0  0  0  0  0  0  0  0  0  0  0
   -2.3092    0.5341    1.0621 H   0  0  0  0  0  0  0  0  0  0  0  0
   -4.4016    1.2539    1.6250 H   0  0  0  0  0  0  0  0  0  0  0  0
   -3.6596    4.1283    0.9053 H   0  0  0  0  0  0  0  0  0  0  0  0
   -5.1246    3.5580    1.7195 H   0  0  0  0  0  0  0  0  0  0  0  0
   -3.5486    3.4083    2.5231 H   0  0  0  0  0  0  0  0  0  0  0  0
   -4.3099    2.7056   -1.4404 N   0  0  0  0  0  0  0  0  0  0  0  0
   -4.7489    2.5155   -2.8165 C   0  0  0  0  0  0  0  0  0  0  0  0
   -3.5375    3.3513   -1.2547 H   0  0  0  0  0  0  0  0  0  0  0  0
   -4.3232    1.5972   -3.2332 H   0  0  0  0  0  0  0  0  0  0  0  0
   -5.8411    2.4512   -2.8638 H   0  0  0  0  0  0  0  0  0  0  0  0
   -4.4270    3.3596   -3.4342 H   0  0  0  0  0  0  0  0  0  0  0  0
  1  2  2  0  0  0  0
  1  3  1  0  0  0  0
  1  7  1  0  0  0  0
  3  4  1  0  0  0  0
  3  5  1  0  0  0  0
  3  6  1  0  0  0  0
  7  8  1  0  0  0  0
  7 12  1  0  0  0  0
  8  9  1  0  0  0  0
  8 11  1  0  0  0  0
  8 13  1  0  0  0  0
  9 10  2  0  0  0  0
  9 17  1  0  0  0  0
 11 14  1  0  0  0  0
 11 15  1  0  0  0  0
 11 16  1  0  0  0  0
 17 18  1  0  0  0  0
 17 21  1  0  0  0  0
 18 19  1  0  0  0  0
 18 22  1  0  0  0  0
 18 23  1  0  0  0  0
 19 20  2  0  0  0  0
 19 24  1  0  0  0  0
 24 25  1  0  0  0  0
 24 29  1  0  0  0  0
 25 26  1  0  0  0  0
 25 28  1  0  0  0  0
 25 30  1  0  0  0  0
 26 27  2  0  0  0  0
 26 34  1  0  0  0  0
 28 31  1  0  0  0  0
 28 32  1  0  0  0  0
 28 33  1  0  0  0  0
 34 35  1  0  0  0  0
 34 36  1  0  0  0  0
 35 37  1  0  0  0  0
 35 38  1  0  0  0  0
 35 39  1  0  0  0  0
M  END
$$$$

  -OEChem-05262216283D

 39 38  0     1  0  0  0  0  0999 V2000
   -4.8358   -2.2868   -2.2717 C   0  0  0  0  0  0  0  0  0  0  0  0
   -4.4994   -3.1049   -3.1146 O   0  0  0  0  0  0  0  0  0  0  0  0
   -6.2569   -2.2732   -1.7428 C   0  0  0  0  0  0  0  0  0  0  0  0
   -6.7246   -1.3097   -1.9593 H   0  0  0  0  0  0  0  0  0  0  0  0
   -6.8439   -3.0671   -2.2126 H   0  0  0  0  0  0  0  0  0  0  0  0
   -6.2517   -2.4287   -0.6611 H   0  0  0  0  0  0  0  0  0  0  0  0
   -3.9272   -1.3618   -1.8065 N   0  0  0  0  0  0  0  0  0  0  0  0
   -2.4928   -1.3708   -2.1335 C   0  0  2  0  0  0  0  0  0  0  0  0
   -1.6437   -0.7693   -0.9898 C   0  0  0  0  0  0  0  0  0  0  0  0
   -1.9180   -1.0202    0.1779 O   0  0  0  0  0  0  0  0  0  0  0  0
   -2.3004   -0.6274   -3.4639 C   0  0  0  0  0  0  0  0  0  0  0  0
   -4.2549   -0.7593   -1.0440 H   0  0  0  0  0  0  0  0  0  0  0  0
   -2.1562   -2.4057   -2.2599 H   0  0  0  0  0  0  0  0  0  0  0  0
   -2.5650    0.4292   -3.3573 H   0  0  0  0  0  0  0  0  0  0  0  0
   -1.2620   -0.7015   -3.8004 H   0  0  0  0  0  0  0  0  0  0  0  0
   -2.9370   -1.0666   -4.2390 H   0  0  0  0  0  0  0  0  0  0  0  0
   -0.5982    0.1098   -1.2301 N   0  0  0  0  0  0  0  0  0  0  0  0
   -0.2602    1.2186   -0.3115 C   0  0  0  0  0  0  0  0  0  0  0  0
   -1.4686    2.0341    0.1875 C   0  0  0  0  0  0  0  0  0  0  0  0
   -1.7538    3.0679   -0.4038 O   0  0  0  0  0  0  0  0  0  0  0  0
   -0.4367    0.2924   -2.2171 H   0  0  0  0  0  0  0  0  0  0  0  0
    0.4310    1.9043   -0.8109 H   0  0  0  0  0  0  0  0  0  0  0  0
    0.2625    0.8133    0.5603 H   0  0  0  0  0  0  0  0  0  0  0  0
   -2.3184    1.5159    1.1488 N   0  0  0  0  0  0  0  0  0  0  0  0
   -3.7277    1.9079    1.3252 C   0  0  2  0  0  0  0  0  0  0  0  0
   -4.5704    1.6467    0.0544 C   0  0  0  0  0  0  0  0  0  0  0  0
   -5.2159    0.6091   -0.0493 O   0  0  0  0  0  0  0  0  0  0  0  0
   -3.8608    3.3518    1.8347 C   0  0  0  0  0  0  0  0  0  0  0  0
   -2.1191    0.5287    1.3422 H   0  0  0  0  0  0  0  0  0  0  0  0
   -4.1444    1.2631    2.1060 H   0  0  0  0  0  0  0  0  0  0  0  0
   -3.5425    4.0790    1.0828 H   0  0  0  0  0  0  0  0  0  0  0  0
   -4.9035    3.5630    2.0913 H   0  0  0  0  0  0  0  0  0  0  0  0
   -3.2488    3.4922    2.7309 H   0  0  0  0  0  0  0  0  0  0  0  0
   -4.4907    2.4899   -1.0361 N   0  0  0  0  0  0  0  0  0  0  0  0
   -5.1345    2.2220   -2.3157 C   0  0  0  0  0  0  0  0  0  0  0  0
   -3.7212    3.1639   -1.0042 H   0  0  0  0  0  0  0  0  0  0  0  0
   -4.7579    1.2919   -2.7521 H   0  0  0  0  0  0  0  0  0  0  0  0
   -6.2186    2.1363   -2.1880 H   0  0  0  0  0  0  0  0  0  0  0  0
   -4.9343    3.0396   -3.0149 H   0  0  0  0  0  0  0  0  0  0  0  0
  1  2  2  0  0  0  0
  1  3  1  0  0  0  0
  1  7  1  0  0  0  0
  3  4  1  0  0  0  0
  3  5  1  0  0  0  0
  3  6  1  0  0  0  0
  7  8  1  0  0  0  0
  7 12  1  0  0  0  0
  8  9  1  0  0  0  0
  8 11  1  0  0  0  0
  8 13  1  0  0  0  0
  9 10  2  0  0  0  0
  9 17  1  0  0  0  0
 11 14  1  0  0  0  0
 11 15  1  0  0  0  0
 11 16  1  0  0  0  0
 17 18  1  0  0  0  0
 17 21  1  0  0  0  0
 18 19  1  0  0  0  0
 18 22  1  0  0  0  0
 18 23  1  0  0  0  0
 19 20  2  0  0  0  0
 19 24  1  0  0  0  0
 24 25  1  0  0  0  0
 24 29  1  0  0  0  0
 25 26  1  0  0  0  0
 25 28  1  0  0  0  0
 25 30  1  0  0  0  0
 26 27  2  0  0  0  0
 26 34  1  0  0  0  0
 28 31  1  0  0  0  0
 28 32  1  0  0  0  0
 28 33  1  0  0  0  0
 34 35  1  0  0  0  0
 34 36  1  0  0  0  0
 35 37  1  0  0  0  0
 35 38  1  0  0  0  0
 35 39  1  0  0  0  0
M  END
$$$$

  -OEChem-05262216283D

 39 38  0     1  0  0  0  0  0999 V2000
   -4.8731   -2.1786   -2.0991 C   0  0  0  0  0  0  0  0  0  0  0  0
   -4.6269   -2.8542   -3.0869 O   0  0  0  0  0  0  0  0  0  0  0  0
   -6.2303   -2.2667   -1.4281 C   0  0  0  0  0  0  0  0  0  0  0  0
   -6.7054   -1.2826   -1.4187 H   0  0  0  0  0  0  0  0  0  0  0  0
   -6.8748   -2.9673   -1.9656 H   0  0  0  0  0  0  0  0  0  0  0  0
   -6.1129   -2.6118   -0.3979 H   0  0  0  0  0  0  0  0  0  0  0  0
   -3.9227   -1.3180   -1.5975 N   0  0  0  0  0  0  0  0  0  0  0  0
   -2.5362   -1.2276   -2.0807 C   0  0  2  0  0  0  0  0  0  0  0  0
   -1.5821   -0.7564   -0.9594 C   0  0  0  0  0  0  0  0  0  0  0  0
   -1.8111   -1.0501    0.2098 O   0  0  0  0  0  0  0  0  0  0  0  0
   -2.5118   -0.2882   -3.2952 C   0  0  0  0  0  0  0  0  0  0  0  0
   -4.1667   -0.8407   -0.7229 H   0  0  0  0  0  0  0  0  0  0  0  0
   -2.1938   -2.2198   -2.3945 H   0  0  0  0  0  0  0  0  0  0  0  0
   -2.7767    0.7315   -2.9980 H   0  0  0  0  0  0  0  0  0  0  0  0
   -1.5194   -0.2764   -3.7550 H   0  0  0  0  0  0  0  0  0  0  0  0
   -3.2279   -0.6265   -4.0510 H   0  0  0  0  0  0  0  0  0  0  0  0
   -0.5117    0.0940   -1.1997 N   0  0  0  0  0  0  0  0  0  0  0  0
   -0.1825    1.1575   -0.2288 C   0  0  0  0  0  0  0  0  0  0  0  0
   -1.4219    1.9322    0.2541 C   0  0  0  0  0  0  0  0  0  0  0  0
   -1.8255    2.8727   -0.4188 O   0  0  0  0  0  0  0  0  0  0  0  0
   -0.3996    0.3431   -2.1791 H   0  0  0  0  0  0  0  0  0  0  0  0
    0.5151    1.8678   -0.6823 H   0  0  0  0  0  0  0  0  0  0  0  0
    0.3201    0.7183    0.6384 H   0  0  0  0  0  0  0  0  0  0  0  0
   -2.1186    1.5003    1.3688 N   0  0  0  0  0  0  0  0  0  0  0  0
   -3.5178    1.8624    1.6579 C   0  0  2  0  0  0  0  0  0  0  0  0
   -4.4863    1.5062    0.5017 C   0  0  0  0  0  0  0  0  0  0  0  0
   -5.0679    0.4265    0.4994 O   0  0  0  0  0  0  0  0  0  0  0  0
   -3.6298    3.3324    2.0905 C   0  0  0  0  0  0  0  0  0  0  0  0
   -1.8600    0.5447    1.6285 H   0  0  0  0  0  0  0  0  0  0  0  0
   -3.8369    1.2593    2.5144 H   0  0  0  0  0  0  0  0  0  0  0  0
   -3.3701    4.0150    1.2765 H   0  0  0  0  0  0  0  0  0  0  0  0
   -4.6537    3.5525    2.4083 H   0  0  0  0  0  0  0  0  0  0  0  0
   -2.9574    3.5279    2.9314 H   0  0  0  0  0  0  0  0  0  0  0  0
   -4.6319    2.3392   -0.5906 N   0  0  0  0  0  0  0  0  0  0  0  0
   -5.4522    2.0161   -1.7515 C   0  0  0  0  0  0  0  0  0  0  0  0
   -3.8949    3.0409   -0.6931 H   0  0  0  0  0  0  0  0  0  0  0  0
   -5.0762    1.1223   -2.2571 H   0  0  0  0  0  0  0  0  0  0  0  0
   -6.4898    1.8389   -1.4495 H   0  0  0  0  0  0  0  0  0  0  0  0
   -5.4396    2.8468   -2.4635 H   0  0  0  0  0  0  0  0  0  0  0  0
  1  2  2  0  0  0  0
  1  3  1  0  0  0  0
  1  7  1  0  0  0  0
  3  4  1  0  0  0  0
  3  5  1  0  0  0  0
  3  6  1  0  0  0  0
  7  8  1  0  0  0  0
  7 12  1  0  0  0  0
  8  9  1  0  0  0  0
  8 11  1  0  0  0  0
  8 13  1  0  0  0  0
  9 10  2  0  0  0  0
  9 17  1  0  0  0  0
 11 14  1  0  0  0  0
 11 15  1  0  0  0  0
 11 16  1  0  0  0  0
 17 18  1  0  0  0  0
 17 21  1  0  0  0  0
 18 19  1  0  0  0  0
 18 22  1  0  0  0  0
 18 23  1  0  0  0  0
 19 20  2  0  0  0  0
 19 24  1  0  0  0  0
 24 25  1  0  0  0  0
 24 29  1  0  0  0  0
 25 26  1  0  0  0  0
 25 28  1  0  0  0  0
 25 30  1  0  0  0  0
 26 27  2  0  0  0  0
 26 34  1  0  0  0  0
 28 31  1  0  0  0  0
 28 32  1  0  0  0  0
 28 33  1  0  0  0  0
 34 35  1  0  0  0  0
 34 36  1  0  0  0  0
 35 37  1  0  0  0  0
 35 38  1  0  0  0  0
 35 39  1  0  0  0  0
M  END
$$$$

  -OEChem-05262216283D

 39 38  0     1  0  0  0  0  0999 V2000
   -3.4050   -3.3867   -3.2764 C   0  0  0  0  0  0  0  0  0  0  0  0
   -2.4590   -4.1518   -3.1750 O   0  0  0  0  0  0  0  0  0  0  0  0
   -4.7931   -3.9299   -3.5587 C   0  0  0  0  0  0  0  0  0  0  0  0
   -5.1384   -3.5798   -4.5344 H   0  0  0  0  0  0  0  0  0  0  0  0
   -4.7767   -5.0234   -3.5616 H   0  0  0  0  0  0  0  0  0  0  0  0
   -5.4913   -3.5909   -2.7893 H   0  0  0  0  0  0  0  0  0  0  0  0
   -3.2251   -2.0279   -3.1202 N   0  0  0  0  0  0  0  0  0  0  0  0
   -1.9972   -1.4373   -2.5682 C   0  0  2  0  0  0  0  0  0  0  0  0
   -2.1710   -1.0318   -1.0907 C   0  0  0  0  0  0  0  0  0  0  0  0
   -3.2799   -0.7272   -0.6631 O   0  0  0  0  0  0  0  0  0  0  0  0
   -1.6483   -0.2097   -3.4124 C   0  0  0  0  0  0  0  0  0  0  0  0
   -4.0784   -1.4872   -2.9989 H   0  0  0  0  0  0  0  0  0  0  0  0
   -1.1648   -2.1462   -2.6289 H   0  0  0  0  0  0  0  0  0  0  0  0
   -2.4554    0.5288   -3.3682 H   0  0  0  0  0  0  0  0  0  0  0  0
   -0.7300    0.2591   -3.0449 H   0  0  0  0  0  0  0  0  0  0  0  0
   -1.4955   -0.4990   -4.4568 H   0  0  0  0  0  0  0  0  0  0  0  0
   -1.0772   -0.9775   -0.2438 N   0  0  0  0  0  0  0  0  0  0  0  0
   -1.0636   -0.1685    0.9883 C   0  0  0  0  0  0  0  0  0  0  0  0
   -1.6200    1.2551    0.8186 C   0  0  0  0  0  0  0  0  0  0  0  0
   -0.9384    2.0973    0.2475 O   0  0  0  0  0  0  0  0  0  0  0  0
   -0.1796   -1.1605   -0.6843 H   0  0  0  0  0  0  0  0  0  0  0  0
   -0.0378   -0.0871    1.3591 H   0  0  0  0  0  0  0  0  0  0  0  0
   -1.6469   -0.6812    1.7585 H   0  0  0  0  0  0  0  0  0  0  0  0
   -2.8706    1.5917    1.2958 N   0  0  0  0  0  0  0  0  0  0  0  0
   -3.5304    2.8809    1.0601 C   0  0  2  0  0  0  0  0  0  0  0  0
   -4.6361    3.1697    2.0980 C   0  0  0  0  0  0  0  0  0  0  0  0
   -5.0943    2.2691    2.7924 O   0  0  0  0  0  0  0  0  0  0  0  0
   -4.1221    2.8679   -0.3544 C   0  0  0  0  0  0  0  0  0  0  0  0
   -3.4579    0.8264    1.6270 H   0  0  0  0  0  0  0  0  0  0  0  0
   -2.7910    3.6847    1.1363 H   0  0  0  0  0  0  0  0  0  0  0  0
   -4.8547    2.0600   -0.4538 H   0  0  0  0  0  0  0  0  0  0  0  0
   -4.6171    3.8185   -0.5732 H   0  0  0  0  0  0  0  0  0  0  0  0
   -3.3332    2.7128   -1.0970 H   0  0  0  0  0  0  0  0  0  0  0  0
   -5.1254    4.4542    2.2535 N   0  0  0  0  0  0  0  0  0  0  0  0
   -6.1641    4.8053    3.2145 C   0  0  0  0  0  0  0  0  0  0  0  0
   -4.7293    5.1826    1.6671 H   0  0  0  0  0  0  0  0  0  0  0  0
   -7.0908    4.2661    2.9915 H   0  0  0  0  0  0  0  0  0  0  0  0
   -5.8459    4.5538    4.2319 H   0  0  0  0  0  0  0  0  0  0  0  0
   -6.3706    5.8790    3.1730 H   0  0  0  0  0  0  0  0  0  0  0  0
  1  2  2  0  0  0  0
  1  3  1  0  0  0  0
  1  7  1  0  0  0  0
  3  4  1  0  0  0  0
  3  5  1  0  0  0  0
  3  6  1  0  0  0  0
  7  8  1  0  0  0  0
  7 12  1  0  0  0  0
  8  9  1  0  0  0  0
  8 11  1  0  0  0  0
  8 13  1  0  0  0  0
  9 10  2  0  0  0  0
  9 17  1  0  0  0  0
 11 14  1  0  0  0  0
 11 15  1  0  0  0  0
 11 16  1  0  0  0  0
 17 18  1  0  0  0  0
 17 21  1  0  0  0  0
 18 19  1  0  0  0  0
 18 22  1  0  0  0  0
 18 23  1  0  0  0  0
 19 20  2  0  0  0  0
 19 24  1  0  0  0  0
 24 25  1  0  0  0  0
 24 29  1  0  0  0  0
 25 26  1  0  0  0  0
 25 28  1  0  0  0  0
 25 30  1  0  0  0  0
 26 27  2  0  0  0  0
 26 34  1  0  0  0  0
 28 31  1  0  0  0  0
 28 32  1  0  0  0  0
 28 33  1  0  0  0  0
 34 35  1  0  0  0  0
 34 36  1  0  0  0  0
 35 37  1  0  0  0  0
 35 38  1  0  0  0  0
 35 39  1  0  0  0  0
M  END
$$$$

  -OEChem-05262216283D

 39 38  0     1  0  0  0  0  0999 V2000
   -3.4732   -3.3049   -3.3371 C   0  0  0  0  0  0  0  0  0  0  0  0
   -2.5231   -4.0706   -3.2968 O   0  0  0  0  0  0  0  0  0  0  0  0
   -4.8672   -3.8397   -3.6057 C   0  0  0  0  0  0  0  0  0  0  0  0
   -5.2362   -3.4555   -4.5596 H   0  0  0  0  0  0  0  0  0  0  0  0
   -4.8506   -4.9322   -3.6475 H   0  0  0  0  0  0  0  0  0  0  0  0
   -5.5463   -3.5295   -2.8079 H   0  0  0  0  0  0  0  0  0  0  0  0
   -3.2922   -1.9544   -3.1223 N   0  0  0  0  0  0  0  0  0  0  0  0
   -2.0511   -1.3842   -2.5785 C   0  0  2  0  0  0  0  0  0  0  0  0
   -2.1807   -1.0511   -1.0781 C   0  0  0  0  0  0  0  0  0  0  0  0
   -3.2778   -0.7772   -0.6006 O   0  0  0  0  0  0  0  0  0  0  0  0
   -1.7347   -0.1130   -3.3698 C   0  0  0  0  0  0  0  0  0  0  0  0
   -4.1424   -1.4222   -2.9531 H   0  0  0  0  0  0  0  0  0  0  0  0
   -1.2184   -2.0846   -2.7009 H   0  0  0  0  0  0  0  0  0  0  0  0
   -2.5379    0.6220   -3.2533 H   0  0  0  0  0  0  0  0  0  0  0  0
   -0.8018    0.3373   -3.0156 H   0  0  0  0  0  0  0  0  0  0  0  0
   -1.6249   -0.3458   -4.4334 H   0  0  0  0  0  0  0  0  0  0  0  0
   -1.0592   -1.0142   -0.2667 N   0  0  0  0  0  0  0  0  0  0  0  0
   -1.0185   -0.2158    0.9718 C   0  0  0  0  0  0  0  0  0  0  0  0
   -1.5821    1.2073    0.8191 C   0  0  0  0  0  0  0  0  0  0  0  0
   -1.0655    1.9726    0.0133 O   0  0  0  0  0  0  0  0  0  0  0  0
   -0.1770   -1.1478   -0.7535 H   0  0  0  0  0  0  0  0  0  0  0  0
    0.0136   -0.1349    1.3232 H   0  0  0  0  0  0  0  0  0  0  0  0
   -1.5874   -0.7362    1.7480 H   0  0  0  0  0  0  0  0  0  0  0  0
   -2.6604    1.6287    1.5704 N   0  0  0  0  0  0  0  0  0  0  0  0
   -3.3472    2.9133    1.3967 C   0  0  2  0  0  0  0  0  0  0  0  0
   -4.1580    3.3055    2.6503 C   0  0  0  0  0  0  0  0  0  0  0  0
   -4.3968    2.4770    3.5222 O   0  0  0  0  0  0  0  0  0  0  0  0
   -4.2744    2.8048    0.1800 C   0  0  0  0  0  0  0  0  0  0  0  0
   -3.1079    0.9448    2.1794 H   0  0  0  0  0  0  0  0  0  0  0  0
   -2.6067    3.7008    1.2212 H   0  0  0  0  0  0  0  0  0  0  0  0
   -5.0152    2.0133    0.3350 H   0  0  0  0  0  0  0  0  0  0  0  0
   -4.8009    3.7486    0.0109 H   0  0  0  0  0  0  0  0  0  0  0  0
   -3.6981    2.5675   -0.7198 H   0  0  0  0  0  0  0  0  0  0  0  0
   -4.6296    4.5970    2.7994 N   0  0  0  0  0  0  0  0  0  0  0  0
   -5.4262    5.0322    3.9401 C   0  0  0  0  0  0  0  0  0  0  0  0
   -4.4256    5.2605    2.0580 H   0  0  0  0  0  0  0  0  0  0  0  0
   -6.3733    4.4837    3.9772 H   0  0  0  0  0  0  0  0  0  0  0  0
   -4.8828    4.8610    4.8753 H   0  0  0  0  0  0  0  0  0  0  0  0
   -5.6477    6.1008    3.8609 H   0  0  0  0  0  0  0  0  0  0  0  0
  1  2  2  0  0  0  0
  1  3  1  0  0  0  0
  1  7  1  0  0  0  0
  3  4  1  0  0  0  0
  3  5  1  0  0  0  0
  3  6  1  0  0  0  0
  7  8  1  0  0  0  0
  7 12  1  0  0  0  0
  8  9  1  0  0  0  0
  8 11  1  0  0  0  0
  8 13  1  0  0  0  0
  9 10  2  0  0  0  0
  9 17  1  0  0  0  0
 11 14  1  0  0  0  0
 11 15  1  0  0  0  0
 11 16  1  0  0  0  0
 17 18  1  0  0  0  0
 17 21  1  0  0  0  0
 18 19  1  0  0  0  0
 18 22  1  0  0  0  0
 18 23  1  0  0  0  0
 19 20  2  0  0  0  0
 19 24  1  0  0  0  0
 24 25  1  0  0  0  0
 24 29  1  0  0  0  0
 25 26  1  0  0  0  0
 25 28  1  0  0  0  0
 25 30  1  0  0  0  0
 26 27  2  0  0  0  0
 26 34  1  0  0  0  0
 28 31  1  0  0  0  0
 28 32  1  0  0  0  0
 28 33  1  0  0  0  0
 34 35  1  0  0  0  0
 34 36  1  0  0  0  0
 35 37  1  0  0  0  0
 35 38  1  0  0  0  0
 35 39  1  0  0  0  0
M  END
$$$$

  -OEChem-05262216283D

 39 38  0     1  0  0  0  0  0999 V2000
   -3.5303   -3.2688   -3.4583 C   0  0  0  0  0  0  0  0  0  0  0  0
   -2.5640   -4.0057   -3.5765 O   0  0  0  0  0  0  0  0  0  0  0  0
   -4.9267   -3.8050   -3.7109 C   0  0  0  0  0  0  0  0  0  0  0  0
   -5.4101   -3.2273   -4.5023 H   0  0  0  0  0  0  0  0  0  0  0  0
   -4.8783   -4.8531   -4.0190 H   0  0  0  0  0  0  0  0  0  0  0  0
   -5.5242   -3.7335   -2.7987 H   0  0  0  0  0  0  0  0  0  0  0  0
   -3.3662   -1.9514   -3.0839 N   0  0  0  0  0  0  0  0  0  0  0  0
   -2.1074   -1.4063   -2.5547 C   0  0  2  0  0  0  0  0  0  0  0  0
   -2.2119   -1.0891   -1.0489 C   0  0  0  0  0  0  0  0  0  0  0  0
   -3.3067   -0.8633   -0.5409 O   0  0  0  0  0  0  0  0  0  0  0  0
   -1.7840   -0.1328   -3.3392 C   0  0  0  0  0  0  0  0  0  0  0  0
   -4.2159   -1.4668   -2.8022 H   0  0  0  0  0  0  0  0  0  0  0  0
   -1.2865   -2.1179   -2.6910 H   0  0  0  0  0  0  0  0  0  0  0  0
   -2.5787    0.6092   -3.2108 H   0  0  0  0  0  0  0  0  0  0  0  0
   -0.8442    0.3051   -2.9887 H   0  0  0  0  0  0  0  0  0  0  0  0
   -1.6851   -0.3593   -4.4053 H   0  0  0  0  0  0  0  0  0  0  0  0
   -1.0746   -1.0311   -0.2602 N   0  0  0  0  0  0  0  0  0  0  0  0
   -1.0341   -0.2195    0.9699 C   0  0  0  0  0  0  0  0  0  0  0  0
   -1.6255    1.1936    0.8156 C   0  0  0  0  0  0  0  0  0  0  0  0
   -1.2852    1.8897   -0.1348 O   0  0  0  0  0  0  0  0  0  0  0  0
   -0.2012   -1.1283   -0.7707 H   0  0  0  0  0  0  0  0  0  0  0  0
    0.0002   -0.1180    1.3098 H   0  0  0  0  0  0  0  0  0  0  0  0
   -1.5873   -0.7449    1.7538 H   0  0  0  0  0  0  0  0  0  0  0  0
   -2.4823    1.7114    1.7662 N   0  0  0  0  0  0  0  0  0  0  0  0
   -3.1362    3.0221    1.6773 C   0  0  2  0  0  0  0  0  0  0  0  0
   -3.6160    3.5180    3.0577 C   0  0  0  0  0  0  0  0  0  0  0  0
   -3.6729    2.7464    4.0094 O   0  0  0  0  0  0  0  0  0  0  0  0
   -4.3225    2.9095    0.7122 C   0  0  0  0  0  0  0  0  0  0  0  0
   -2.7502    1.1125    2.5461 H   0  0  0  0  0  0  0  0  0  0  0  0
   -2.4226    3.7582    1.2926 H   0  0  0  0  0  0  0  0  0  0  0  0
   -5.0456    2.1741    1.0798 H   0  0  0  0  0  0  0  0  0  0  0  0
   -4.8268    3.8745    0.6085 H   0  0  0  0  0  0  0  0  0  0  0  0
   -3.9814    2.5927   -0.2785 H   0  0  0  0  0  0  0  0  0  0  0  0
   -3.9773    4.8409    3.2366 N   0  0  0  0  0  0  0  0  0  0  0  0
   -4.4366    5.3811    4.5103 C   0  0  0  0  0  0  0  0  0  0  0  0
   -3.9153    5.4588    2.4327 H   0  0  0  0  0  0  0  0  0  0  0  0
   -5.3481    4.8694    4.8367 H   0  0  0  0  0  0  0  0  0  0  0  0
   -3.6672    5.2559    5.2795 H   0  0  0  0  0  0  0  0  0  0  0  0
   -4.6562    6.4486    4.4115 H   0  0  0  0  0  0  0  0  0  0  0  0
  1  2  2  0  0  0  0
  1  3  1  0  0  0  0
  1  7  1  0  0  0  0
  3  4  1  0  0  0  0
  3  5  1  0  0  0  0
  3  6  1  0  0  0  0
  7  8  1  0  0  0  0
  7 12  1  0  0  0  0
  8  9  1  0  0  0  0
  8 11  1  0  0  0  0
  8 13  1  0  0  0  0
  9 10  2  0  0  0  0
  9 17  1  0  0  0  0
 11 14  1  0  0  0  0
 11 15  1  0  0  0  0
 11 16  1  0  0  0  0
 17 18  1  0  0  0  0
 17 21  1  0  0  0  0
 18 19  1  0  0  0  0
 18 22  1  0  0  0  0
 18 23  1  0  0  0  0
 19 20  2  0  0  0  0
 19 24  1  0  0  0  0
 24 25  1  0  0  0  0
 24 29  1  0  0  0  0
 25 26  1  0  0  0  0
 25 28  1  0  0  0  0
 25 30  1  0  0  0  0
 26 27  2  0  0  0  0
 26 34  1  0  0  0  0
 28 31  1  0  0  0  0
 28 32  1  0  0  0  0
 28 33  1  0  0  0  0
 34 35  1  0  0  0  0
 34 36  1  0  0  0  0
 35 37  1  0  0  0  0
 35 38  1  0  0  0  0
 35 39  1  0  0  0  0
M  END
$$$$

  -OEChem-05262216283D

 39 38  0     1  0  0  0  0  0999 V2000
   -3.5637   -3.2355   -3.5552 C   0  0  0  0  0  0  0  0  0  0  0  0
   -2.5917   -3.9484   -3.7500 O   0  0  0  0  0  0  0  0  0  0  0  0
   -4.9602   -3.7717   -3.8077 C   0  0  0  0  0  0  0  0  0  0  0  0
   -5.4696   -3.1511   -4.5490 H   0  0  0  0  0  0  0  0  0  0  0  0
   -4.9086   -4.7980   -4.1819 H   0  0  0  0  0  0  0  0  0  0  0  0
   -5.5350   -3.7641   -2.8782 H   0  0  0  0  0  0  0  0  0  0  0  0
   -3.4064   -1.9483   -3.0859 N   0  0  0  0  0  0  0  0  0  0  0  0
   -2.1476   -1.4298   -2.5315 C   0  0  2  0  0  0  0  0  0  0  0  0
   -2.2773   -1.1199   -1.0261 C   0  0  0  0  0  0  0  0  0  0  0  0
   -3.3831   -0.9271   -0.5277 O   0  0  0  0  0  0  0  0  0  0  0  0
   -1.7842   -0.1597   -3.3044 C   0  0  0  0  0  0  0  0  0  0  0  0
   -4.2561   -1.4932   -2.7574 H   0  0  0  0  0  0  0  0  0  0  0  0
   -1.3391   -2.1582   -2.6521 H   0  0  0  0  0  0  0  0  0  0  0  0
   -2.5677    0.5966   -3.1893 H   0  0  0  0  0  0  0  0  0  0  0  0
   -0.8435    0.2601   -2.9344 H   0  0  0  0  0  0  0  0  0  0  0  0
   -1.6686   -0.3849   -4.3693 H   0  0  0  0  0  0  0  0  0  0  0  0
   -1.1547   -1.0635   -0.2164 N   0  0  0  0  0  0  0  0  0  0  0  0
   -1.1450   -0.2448    1.0103 C   0  0  0  0  0  0  0  0  0  0  0  0
   -1.7297    1.1714    0.8473 C   0  0  0  0  0  0  0  0  0  0  0  0
   -1.5258    1.8028   -0.1845 O   0  0  0  0  0  0  0  0  0  0  0  0
   -0.2748   -1.1334   -0.7198 H   0  0  0  0  0  0  0  0  0  0  0  0
   -0.1201   -0.1482    1.3784 H   0  0  0  0  0  0  0  0  0  0  0  0
   -1.7228   -0.7663    1.7795 H   0  0  0  0  0  0  0  0  0  0  0  0
   -2.3478    1.7997    1.9101 N   0  0  0  0  0  0  0  0  0  0  0  0
   -2.8795    3.1673    1.8836 C   0  0  2  0  0  0  0  0  0  0  0  0
   -2.9741    3.7682    3.3022 C   0  0  0  0  0  0  0  0  0  0  0  0
   -2.8364    3.0509    4.2877 O   0  0  0  0  0  0  0  0  0  0  0  0
   -4.2610    3.1350    1.2197 C   0  0  0  0  0  0  0  0  0  0  0  0
   -2.4412    1.2843    2.7845 H   0  0  0  0  0  0  0  0  0  0  0  0
   -2.2109    3.8080    1.2990 H   0  0  0  0  0  0  0  0  0  0  0  0
   -4.9447    2.4991    1.7914 H   0  0  0  0  0  0  0  0  0  0  0  0
   -4.6860    4.1414    1.1621 H   0  0  0  0  0  0  0  0  0  0  0  0
   -4.1853    2.7358    0.2031 H   0  0  0  0  0  0  0  0  0  0  0  0
   -3.2039    5.1206    3.4768 N   0  0  0  0  0  0  0  0  0  0  0  0
   -3.2961    5.7534    4.7870 C   0  0  0  0  0  0  0  0  0  0  0  0
   -3.3113    5.6921    2.6437 H   0  0  0  0  0  0  0  0  0  0  0  0
   -4.1221    5.3227    5.3631 H   0  0  0  0  0  0  0  0  0  0  0  0
   -2.3652    5.6131    5.3469 H   0  0  0  0  0  0  0  0  0  0  0  0
   -3.4739    6.8275    4.6769 H   0  0  0  0  0  0  0  0  0  0  0  0
  1  2  2  0  0  0  0
  1  3  1  0  0  0  0
  1  7  1  0  0  0  0
  3  4  1  0  0  0  0
  3  5  1  0  0  0  0
  3  6  1  0  0  0  0
  7  8  1  0  0  0  0
  7 12  1  0  0  0  0
  8  9  1  0  0  0  0
  8 11  1  0  0  0  0
  8 13  1  0  0  0  0
  9 10  2  0  0  0  0
  9 17  1  0  0  0  0
 11 14  1  0  0  0  0
 11 15  1  0  0  0  0
 11 16  1  0  0  0  0
 17 18  1  0  0  0  0
 17 21  1  0  0  0  0
 18 19  1  0  0  0  0
 18 22  1  0  0  0  0
 18 23  1  0  0  0  0
 19 20  2  0  0  0  0
 19 24  1  0  0  0  0
 24 25  1  0  0  0  0
 24 29  1  0  0  0  0
 25 26  1  0  0  0  0
 25 28  1  0  0  0  0
 25 30  1  0  0  0  0
 26 27  2  0  0  0  0
 26 34  1  0  0  0  0
 28 31  1  0  0  0  0
 28 32  1  0  0  0  0
 28 33  1  0  0  0  0
 34 35  1  0  0  0  0
 34 36  1  0  0  0  0
 35 37  1  0  0  0  0
 35 38  1  0  0  0  0
 35 39  1  0  0  0  0
M  END
$$$$

  -OEChem-05262216283D

 39 38  0     1  0  0  0  0  0999 V2000
   -3.5666   -3.2333   -3.5722 C   0  0  0  0  0  0  0  0  0  0  0  0
   -2.5892   -3.9498   -3.7213 O   0  0  0  0  0  0  0  0  0  0  0  0
   -4.9510   -3.7672   -3.8888 C   0  0  0  0  0  0  0  0  0  0  0  0
   -5.3814   -3.2149   -4.7276 H   0  0  0  0  0  0  0  0  0  0  0  0
   -4.8952   -4.8264   -4.1549 H   0  0  0  0  0  0  0  0  0  0  0  0
   -5.6010   -3.6579   -3.0172 H   0  0  0  0  0  0  0  0  0  0  0  0
   -3.4270   -1.9446   -3.1007 N   0  0  0  0  0  0  0  0  0  0  0  0
   -2.1917   -1.4266   -2.4949 C   0  0  2  0  0  0  0  0  0  0  0  0
   -2.3696   -1.1398   -0.9897 C   0  0  0  0  0  0  0  0  0  0  0  0
   -3.4908   -0.9751   -0.5165 O   0  0  0  0  0  0  0  0  0  0  0  0
   -1.8118   -0.1418   -3.2340 C   0  0  0  0  0  0  0  0  0  0  0  0
   -4.2891   -1.4868   -2.8110 H   0  0  0  0  0  0  0  0  0  0  0  0
   -1.3743   -2.1471   -2.6011 H   0  0  0  0  0  0  0  0  0  0  0  0
   -2.6011    0.6095   -3.1265 H   0  0  0  0  0  0  0  0  0  0  0  0
   -0.8839    0.2742   -2.8296 H   0  0  0  0  0  0  0  0  0  0  0  0
   -1.6651   -0.3462   -4.2990 H   0  0  0  0  0  0  0  0  0  0  0  0
   -1.2703   -1.0793   -0.1489 N   0  0  0  0  0  0  0  0  0  0  0  0
   -1.2918   -0.2484    1.0698 C   0  0  0  0  0  0  0  0  0  0  0  0
   -1.8618    1.1747    0.8994 C   0  0  0  0  0  0  0  0  0  0  0  0
   -1.8018    1.7452   -0.1850 O   0  0  0  0  0  0  0  0  0  0  0  0
   -0.3780   -1.1520   -0.6292 H   0  0  0  0  0  0  0  0  0  0  0  0
   -0.2763   -0.1593    1.4648 H   0  0  0  0  0  0  0  0  0  0  0  0
   -1.8939   -0.7631    1.8248 H   0  0  0  0  0  0  0  0  0  0  0  0
   -2.2140    1.9101    2.0142 N   0  0  0  0  0  0  0  0  0  0  0  0
   -2.5912    3.3288    1.9998 C   0  0  2  0  0  0  0  0  0  0  0  0
   -2.2975    4.0081    3.3543 C   0  0  0  0  0  0  0  0  0  0  0  0
   -1.9834    3.3323    4.3288 O   0  0  0  0  0  0  0  0  0  0  0  0
   -4.0813    3.4296    1.6557 C   0  0  0  0  0  0  0  0  0  0  0  0
   -2.1189    1.4695    2.9284 H   0  0  0  0  0  0  0  0  0  0  0  0
   -2.0075    3.8557    1.2378 H   0  0  0  0  0  0  0  0  0  0  0  0
   -4.6840    2.9191    2.4138 H   0  0  0  0  0  0  0  0  0  0  0  0
   -4.3966    4.4760    1.6056 H   0  0  0  0  0  0  0  0  0  0  0  0
   -4.2782    2.9649    0.6842 H   0  0  0  0  0  0  0  0  0  0  0  0
   -2.3680    5.3836    3.4779 N   0  0  0  0  0  0  0  0  0  0  0  0
   -2.0951    6.0919    4.7228 C   0  0  0  0  0  0  0  0  0  0  0  0
   -2.6279    5.9177    2.6536 H   0  0  0  0  0  0  0  0  0  0  0  0
   -2.8126    5.7987    5.4964 H   0  0  0  0  0  0  0  0  0  0  0  0
   -1.0834    5.8682    5.0776 H   0  0  0  0  0  0  0  0  0  0  0  0
   -2.1752    7.1722    4.5682 H   0  0  0  0  0  0  0  0  0  0  0  0
  1  2  2  0  0  0  0
  1  3  1  0  0  0  0
  1  7  1  0  0  0  0
  3  4  1  0  0  0  0
  3  5  1  0  0  0  0
  3  6  1  0  0  0  0
  7  8  1  0  0  0  0
  7 12  1  0  0  0  0
  8  9  1  0  0  0  0
  8 11  1  0  0  0  0
  8 13  1  0  0  0  0
  9 10  2  0  0  0  0
  9 17  1  0  0  0  0
 11 14  1  0  0  0  0
 11 15  1  0  0  0  0
 11 16  1  0  0  0  0
 17 18  1  0  0  0  0
 17 21  1  0  0  0  0
 18 19  1  0  0  0  0
 18 22  1  0  0  0  0
 18 23  1  0  0  0  0
 19 20  2  0  0  0  0
 19 24  1  0  0  0  0
 24 25  1  0  0  0  0
 24 29  1  0  0  0  0
 25 26  1  0  0  0  0
 25 28  1  0  0  0  0
 25 30  1  0  0  0  0
 26 27  2  0  0  0  0
 26 34  1  0  0  0  0
 28 31  1  0  0  0  0
 28 32  1  0  0  0  0
 28 33  1  0  0  0  0
 34 35  1  0  0  0  0
 34 36  1  0  0  0  0
 35 37  1  0  0  0  0
 35 38  1  0  0  0  0
 35 39  1  0  0  0  0
M  END
$$$$

  -OEChem-05262216283D

 39 38  0     1  0  0  0  0  0999 V2000
   -3.4625   -3.2023   -3.7245 C   0  0  0  0  0  0  0  0  0  0  0  0
   -2.4170   -3.8236   -3.8360 O   0  0  0  0  0  0  0  0  0  0  0  0
   -4.7667   -3.8292   -4.1802 C   0  0  0  0  0  0  0  0  0  0  0  0
   -5.2205   -3.2196   -4.9650 H   0  0  0  0  0  0  0  0  0  0  0  0
   -4.5856   -4.8330   -4.5743 H   0  0  0  0  0  0  0  0  0  0  0  0
   -5.4590   -3.9015   -3.3378 H   0  0  0  0  0  0  0  0  0  0  0  0
   -3.4725   -1.9414   -3.1656 N   0  0  0  0  0  0  0  0  0  0  0  0
   -2.3373   -1.3685   -2.4283 C   0  0  2  0  0  0  0  0  0  0  0  0
   -2.6536   -1.2225   -0.9261 C   0  0  0  0  0  0  0  0  0  0  0  0
   -3.8153   -1.1127   -0.5458 O   0  0  0  0  0  0  0  0  0  0  0  0
   -2.0263    0.0021   -3.0322 C   0  0  0  0  0  0  0  0  0  0  0  0
   -4.3905   -1.5767   -2.9176 H   0  0  0  0  0  0  0  0  0  0  0  0
   -1.4503   -2.0022   -2.5256 H   0  0  0  0  0  0  0  0  0  0  0  0
   -2.8888    0.6693   -2.9319 H   0  0  0  0  0  0  0  0  0  0  0  0
   -1.1752    0.4614   -2.5197 H   0  0  0  0  0  0  0  0  0  0  0  0
   -1.7812   -0.0973   -4.0942 H   0  0  0  0  0  0  0  0  0  0  0  0
   -1.6515   -1.3052    0.0263 N   0  0  0  0  0  0  0  0  0  0  0  0
   -1.6698   -0.4848    1.2563 C   0  0  0  0  0  0  0  0  0  0  0  0
   -2.3342    0.9108    1.2107 C   0  0  0  0  0  0  0  0  0  0  0  0
   -2.4889    1.5094    0.1518 O   0  0  0  0  0  0  0  0  0  0  0  0
   -0.7323   -1.4652   -0.3753 H   0  0  0  0  0  0  0  0  0  0  0  0
   -0.6398   -0.3422    1.5943 H   0  0  0  0  0  0  0  0  0  0  0  0
   -2.1905   -1.0598    2.0276 H   0  0  0  0  0  0  0  0  0  0  0  0
   -2.3500    1.6665    2.3680 N   0  0  0  0  0  0  0  0  0  0  0  0
   -2.6168    3.1096    2.4350 C   0  0  2  0  0  0  0  0  0  0  0  0
   -1.9839    3.7382    3.6948 C   0  0  0  0  0  0  0  0  0  0  0  0
   -1.5137    3.0197    4.5712 O   0  0  0  0  0  0  0  0  0  0  0  0
   -4.1337    3.3288    2.4225 C   0  0  0  0  0  0  0  0  0  0  0  0
   -2.0317    1.2241    3.2297 H   0  0  0  0  0  0  0  0  0  0  0  0
   -2.1734    3.6062    1.5655 H   0  0  0  0  0  0  0  0  0  0  0  0
   -4.5975    2.8465    3.2888 H   0  0  0  0  0  0  0  0  0  0  0  0
   -4.3698    4.3965    2.4495 H   0  0  0  0  0  0  0  0  0  0  0  0
   -4.5711    2.9044    1.5130 H   0  0  0  0  0  0  0  0  0  0  0  0
   -1.9143    5.1120    3.8369 N   0  0  0  0  0  0  0  0  0  0  0  0
   -1.3093    5.7690    4.9897 C   0  0  0  0  0  0  0  0  0  0  0  0
   -2.2964    5.6831    3.0886 H   0  0  0  0  0  0  0  0  0  0  0  0
   -0.2526    5.4945    5.0768 H   0  0  0  0  0  0  0  0  0  0  0  0
   -1.3760    6.8562    4.8840 H   0  0  0  0  0  0  0  0  0  0  0  0
   -1.8259    5.4795    5.9109 H   0  0  0  0  0  0  0  0  0  0  0  0
  1  2  2  0  0  0  0
  1  3  1  0  0  0  0
  1  7  1  0  0  0  0
  3  4  1  0  0  0  0
  3  5  1  0  0  0  0
  3  6  1  0  0  0  0
  7  8  1  0  0  0  0
  7 12  1  0  0  0  0
  8  9  1  0  0  0  0
  8 11  1  0  0  0  0
  8 13  1  0  0  0  0
  9 10  2  0  0  0  0
  9 17  1  0  0  0  0
 11 14  1  0  0  0  0
 11 15  1  0  0  0  0
 11 16  1  0  0  0  0
 17 18  1  0  0  0  0
 17 21  1  0  0  0  0
 18 19  1  0  0  0  0
 18 22  1  0  0  0  0
 18 23  1  0  0  0  0
 19 20  2  0  0  0  0
 19 24  1  0  0  0  0
 24 25  1  0  0  0  0
 24 29  1  0  0  0  0
 25 26  1  0  0  0  0
 25 28  1  0  0  0  0
 25 30  1  0  0  0  0
 26 27  2  0  0  0  0
 26 34  1  0  0  0  0
 28 31  1  0  0  0  0
 28 32  1  0  0  0  0
 28 33  1  0  0  0  0
 34 35  1  0  0  0  0
 34 36  1  0  0  0  0
 35 37  1  0  0  0  0
 35 38  1  0  0  0  0
 35 39  1  0  0  0  0
M  END
$$$$

  -OEChem-05262216283D

 39 38  0     1  0  0  0  0  0999 V2000
   -3.3758   -3.2013   -3.6662 C   0  0  0  0  0  0  0  0  0  0  0  0
   -2.3092   -3.7940   -3.7193 O   0  0  0  0  0  0  0  0  0  0  0  0
   -4.6301   -3.8491   -4.2217 C   0  0  0  0  0  0  0  0  0  0  0  0
   -5.0682   -3.2121   -4.9940 H   0  0  0  0  0  0  0  0  0  0  0  0
   -4.3901   -4.8214   -4.6616 H   0  0  0  0  0  0  0  0  0  0  0  0
   -5.3598   -3.9947   -3.4211 H   0  0  0  0  0  0  0  0  0  0  0  0
   -3.4548   -1.9507   -3.0899 N   0  0  0  0  0  0  0  0  0  0  0  0
   -2.3807   -1.3501   -2.2868 C   0  0  2  0  0  0  0  0  0  0  0  0
   -2.8018   -1.1829   -0.8125 C   0  0  0  0  0  0  0  0  0  0  0  0
   -3.9875   -1.0816   -0.5143 O   0  0  0  0  0  0  0  0  0  0  0  0
   -2.0459    0.0133   -2.8949 C   0  0  0  0  0  0  0  0  0  0  0  0
   -4.3953   -1.6093   -2.8988 H   0  0  0  0  0  0  0  0  0  0  0  0
   -1.4818   -1.9740   -2.3111 H   0  0  0  0  0  0  0  0  0  0  0  0
   -2.9215    0.6705   -2.8671 H   0  0  0  0  0  0  0  0  0  0  0  0
   -1.2373    0.4937   -2.3354 H   0  0  0  0  0  0  0  0  0  0  0  0
   -1.7277   -0.1029   -3.9355 H   0  0  0  0  0  0  0  0  0  0  0  0
   -1.8730   -1.2673    0.2109 N   0  0  0  0  0  0  0  0  0  0  0  0
   -1.9293   -0.3971    1.4060 C   0  0  0  0  0  0  0  0  0  0  0  0
   -2.5136    1.0325    1.2935 C   0  0  0  0  0  0  0  0  0  0  0  0
   -2.8149    1.5384    0.2193 O   0  0  0  0  0  0  0  0  0  0  0  0
   -0.9368   -1.4740   -0.1241 H   0  0  0  0  0  0  0  0  0  0  0  0
   -0.9138   -0.2986    1.7994 H   0  0  0  0  0  0  0  0  0  0  0  0
   -2.5228   -0.9181    2.1631 H   0  0  0  0  0  0  0  0  0  0  0  0
   -2.2652    1.9071    2.3354 N   0  0  0  0  0  0  0  0  0  0  0  0
   -2.3743    3.3710    2.2617 C   0  0  2  0  0  0  0  0  0  0  0  0
   -1.4468    4.0489    3.2928 C   0  0  0  0  0  0  0  0  0  0  0  0
   -0.8679    3.3711    4.1363 O   0  0  0  0  0  0  0  0  0  0  0  0
   -3.8352    3.7671    2.5010 C   0  0  0  0  0  0  0  0  0  0  0  0
   -1.8108    1.5328    3.1681 H   0  0  0  0  0  0  0  0  0  0  0  0
   -2.0651    3.7161    1.2693 H   0  0  0  0  0  0  0  0  0  0  0  0
   -4.1613    3.4432    3.4945 H   0  0  0  0  0  0  0  0  0  0  0  0
   -3.9581    4.8519    2.4294 H   0  0  0  0  0  0  0  0  0  0  0  0
   -4.4824    3.2992    1.7521 H   0  0  0  0  0  0  0  0  0  0  0  0
   -1.2406    5.4162    3.2660 N   0  0  0  0  0  0  0  0  0  0  0  0
   -0.3752    6.1130    4.2106 C   0  0  0  0  0  0  0  0  0  0  0  0
   -1.7255    5.9531    2.5523 H   0  0  0  0  0  0  0  0  0  0  0  0
    0.6504    5.7346    4.1437 H   0  0  0  0  0  0  0  0  0  0  0  0
   -0.3615    7.1852    3.9924 H   0  0  0  0  0  0  0  0  0  0  0  0
   -0.7359    5.9732    5.2352 H   0  0  0  0  0  0  0  0  0  0  0  0
  1  2  2  0  0  0  0
  1  3  1  0  0  0  0
  1  7  1  0  0  0  0
  3  4  1  0  0  0  0
  3  5  1  0  0  0  0
  3  6  1  0  0  0  0
  7  8  1  0  0  0  0
  7 12  1  0  0  0  0
  8  9  1  0  0  0  0
  8 11  1  0  0  0  0
  8 13  1  0  0  0  0
  9 10  2  0  0  0  0
  9 17  1  0  0  0  0
 11 14  1  0  0  0  0
 11 15  1  0  0  0  0
 11 16  1  0  0  0  0
 17 18  1  0  0  0  0
 17 21  1  0  0  0  0
 18 19  1  0  0  0  0
 18 22  1  0  0  0  0
 18 23  1  0  0  0  0
 19 20  2  0  0  0  0
 19 24  1  0  0  0  0
 24 25  1  0  0  0  0
 24 29  1  0  0  0  0
 25 26  1  0  0  0  0
 25 28  1  0  0  0  0
 25 30  1  0  0  0  0
 26 27  2  0  0  0  0
 26 34  1  0  0  0  0
 28 31  1  0  0  0  0
 28 32  1  0  0  0  0
 28 33  1  0  0  0  0
 34 35  1  0  0  0  0
 34 36  1  0  0  0  0
 35 37  1  0  0  0  0
 35 38  1  0  0  0  0
 35 39  1  0  0  0  0
M  END
$$$$

  -OEChem-05262216283D

 39 38  0     1  0  0  0  0  0999 V2000
   -3.2058   -3.0888   -3.6297 C   0  0  0  0  0  0  0  0  0  0  0  0
   -2.1078   -3.6228   -3.6600 O   0  0  0  0  0  0  0  0  0  0  0  0
   -4.3905   -3.7538   -4.3052 C   0  0  0  0  0  0  0  0  0  0  0  0
   -4.8024   -3.0924   -5.0712 H   0  0  0  0  0  0  0  0  0  0  0  0
   -4.0795   -4.6897   -4.7777 H   0  0  0  0  0  0  0  0  0  0  0  0
   -5.1662   -3.9727   -3.5672 H   0  0  0  0  0  0  0  0  0  0  0  0
   -3.3817   -1.8887   -2.9734 N   0  0  0  0  0  0  0  0  0  0  0  0
   -2.3870   -1.2953   -2.0695 C   0  0  2  0  0  0  0  0  0  0  0  0
   -2.9352   -1.1579   -0.6354 C   0  0  0  0  0  0  0  0  0  0  0  0
   -4.1437   -1.1112   -0.4341 O   0  0  0  0  0  0  0  0  0  0  0  0
   -2.0144    0.0836   -2.6165 C   0  0  0  0  0  0  0  0  0  0  0  0
   -4.3472   -1.6025   -2.8182 H   0  0  0  0  0  0  0  0  0  0  0  0
   -1.4848   -1.9132   -2.0252 H   0  0  0  0  0  0  0  0  0  0  0  0
   -2.8957    0.7330   -2.6473 H   0  0  0  0  0  0  0  0  0  0  0  0
   -1.2605    0.5565   -1.9799 H   0  0  0  0  0  0  0  0  0  0  0  0
   -1.6090   -0.0056   -3.6289 H   0  0  0  0  0  0  0  0  0  0  0  0
   -2.0909   -1.2251    0.4587 N   0  0  0  0  0  0  0  0  0  0  0  0
   -2.1980   -0.2988    1.6077 C   0  0  0  0  0  0  0  0  0  0  0  0
   -2.7115    1.1503    1.4086 C   0  0  0  0  0  0  0  0  0  0  0  0
   -3.2270    1.5526    0.3749 O   0  0  0  0  0  0  0  0  0  0  0  0
   -1.1379   -1.4558    0.1937 H   0  0  0  0  0  0  0  0  0  0  0  0
   -1.2100   -0.2322    2.0717 H   0  0  0  0  0  0  0  0  0  0  0  0
   -2.8681   -0.7621    2.3378 H   0  0  0  0  0  0  0  0  0  0  0  0
   -2.2301    2.1170    2.2727 N   0  0  0  0  0  0  0  0  0  0  0  0
   -2.2681    3.5658    2.0291 C   0  0  2  0  0  0  0  0  0  0  0  0
   -1.0456    4.2658    2.6595 C   0  0  0  0  0  0  0  0  0  0  0  0
   -0.2882    3.6367    3.3920 O   0  0  0  0  0  0  0  0  0  0  0  0
   -3.5751    4.1195    2.6047 C   0  0  0  0  0  0  0  0  0  0  0  0
   -1.6099    1.8087    3.0208 H   0  0  0  0  0  0  0  0  0  0  0  0
   -2.2354    3.7663    0.9530 H   0  0  0  0  0  0  0  0  0  0  0  0
   -3.6151    3.9600    3.6868 H   0  0  0  0  0  0  0  0  0  0  0  0
   -3.6599    5.1920    2.4065 H   0  0  0  0  0  0  0  0  0  0  0  0
   -4.4326    3.6165    2.1460 H   0  0  0  0  0  0  0  0  0  0  0  0
   -0.7763    5.5942    2.3866 N   0  0  0  0  0  0  0  0  0  0  0  0
    0.3815    6.3016    2.9208 C   0  0  0  0  0  0  0  0  0  0  0  0
   -1.4088    6.0845    1.7604 H   0  0  0  0  0  0  0  0  0  0  0  0
    1.3088    5.8390    2.5661 H   0  0  0  0  0  0  0  0  0  0  0  0
    0.3697    7.3467    2.5966 H   0  0  0  0  0  0  0  0  0  0  0  0
    0.3732    6.2802    4.0160 H   0  0  0  0  0  0  0  0  0  0  0  0
  1  2  2  0  0  0  0
  1  3  1  0  0  0  0
  1  7  1  0  0  0  0
  3  4  1  0  0  0  0
  3  5  1  0  0  0  0
  3  6  1  0  0  0  0
  7  8  1  0  0  0  0
  7 12  1  0  0  0  0
  8  9  1  0  0  0  0
  8 11  1  0  0  0  0
  8 13  1  0  0  0  0
  9 10  2  0  0  0  0
  9 17  1  0  0  0  0
 11 14  1  0  0  0  0
 11 15  1  0  0  0  0
 11 16  1  0  0  0  0
 17 18  1  0  0  0  0
 17 21  1  0  0  0  0
 18 19  1  0  0  0  0
 18 22  1  0  0  0  0
 18 23  1  0  0  0  0
 19 20  2  0  0  0  0
 19 24  1  0  0  0  0
 24 25  1  0  0  0  0
 24 29  1  0  0  0  0
 25 26  1  0  0  0  0
 25 28  1  0  0  0  0
 25 30  1  0  0  0  0
 26 27  2  0  0  0  0
 26 34  1  0  0  0  0
 28 31  1  0  0  0  0
 28 32  1  0  0  0  0
 28 33  1  0  0  0  0
 34 35  1  0  0  0  0
 34 36  1  0  0  0  0
 35 37  1  0  0  0  0
 35 38  1  0  0  0  0
 35 39  1  0  0  0  0
M  END
$$$$

  -OEChem-05262216283D

 39 38  0     1  0  0  0  0  0999 V2000
   -4.3314   -3.1538   -1.9140 C   0  0  0  0  0  0  0  0  0  0  0  0
   -3.5810   -4.1149   -1.9820 O   0  0  0  0  0  0  0  0  0  0  0  0
   -5.8139   -3.3602   -1.6646 C   0  0  0  0  0  0  0  0  0  0  0  0
   -6.3984   -2.8353   -2.4242 H   0  0  0  0  0  0  0  0  0  0  0  0
   -6.0586   -4.4254   -1.7075 H   0  0  0  0  0  0  0  0  0  0  0  0
   -6.0829   -2.9750   -0.6778 H   0  0  0  0  0  0  0  0  0  0  0  0
   -3.8289   -1.8774   -2.0492 N   0  0  0  0  0  0  0  0  0  0  0  0
   -2.3979   -1.5516   -2.0989 C   0  0  2  0  0  0  0  0  0  0  0  0
   -2.0946   -0.2379   -1.3465 C   0  0  0  0  0  0  0  0  0  0  0  0
   -3.0088    0.5432   -1.1390 O   0  0  0  0  0  0  0  0  0  0  0  0
   -1.9814   -1.4461   -3.5687 C   0  0  0  0  0  0  0  0  0  0  0  0
   -4.4621   -1.1037   -1.8454 H   0  0  0  0  0  0  0  0  0  0  0  0
   -1.8189   -2.3462   -1.6165 H   0  0  0  0  0  0  0  0  0  0  0  0
   -2.5396   -0.6471   -4.0675 H   0  0  0  0  0  0  0  0  0  0  0  0
   -0.9123   -1.2298   -3.6520 H   0  0  0  0  0  0  0  0  0  0  0  0
   -2.1836   -2.3887   -4.0875 H   0  0  0  0  0  0  0  0  0  0  0  0
   -0.7863    0.0562   -0.9916 N   0  0  0  0  0  0  0  0  0  0  0  0
   -0.2979    1.0437    0.0017 C   0  0  0  0  0  0  0  0  0  0  0  0
   -1.0818    2.3388    0.3141 C   0  0  0  0  0  0  0  0  0  0  0  0
   -2.1415    2.2839    0.9208 O   0  0  0  0  0  0  0  0  0  0  0  0
   -0.1269   -0.6740   -1.2456 H   0  0  0  0  0  0  0  0  0  0  0  0
    0.7036    1.3473   -0.3144 H   0  0  0  0  0  0  0  0  0  0  0  0
   -0.1889    0.5239    0.9585 H   0  0  0  0  0  0  0  0  0  0  0  0
   -0.3719    3.5294    0.3886 N   0  0  0  0  0  0  0  0  0  0  0  0
   -0.8638    4.8369    0.8750 C   0  0  2  0  0  0  0  0  0  0  0  0
   -1.0653    4.9246    2.4059 C   0  0  0  0  0  0  0  0  0  0  0  0
   -0.4256    5.7477    3.0481 O   0  0  0  0  0  0  0  0  0  0  0  0
   -2.1307    5.2737    0.1245 C   0  0  0  0  0  0  0  0  0  0  0  0
    0.5709    3.5074    0.0131 H   0  0  0  0  0  0  0  0  0  0  0  0
   -0.0906    5.5731    0.6329 H   0  0  0  0  0  0  0  0  0  0  0  0
   -2.9874    4.6458    0.3868 H   0  0  0  0  0  0  0  0  0  0  0  0
   -2.3777    6.3089    0.3801 H   0  0  0  0  0  0  0  0  0  0  0  0
   -1.9732    5.2116   -0.9563 H   0  0  0  0  0  0  0  0  0  0  0  0
   -1.9376    4.0832    3.0656 N   0  0  0  0  0  0  0  0  0  0  0  0
   -2.1166    4.0613    4.5103 C   0  0  0  0  0  0  0  0  0  0  0  0
   -2.3553    3.3413    2.4951 H   0  0  0  0  0  0  0  0  0  0  0  0
   -1.1848    3.7720    5.0067 H   0  0  0  0  0  0  0  0  0  0  0  0
   -2.4193    5.0488    4.8742 H   0  0  0  0  0  0  0  0  0  0  0  0
   -2.8945    3.3411    4.7820 H   0  0  0  0  0  0  0  0  0  0  0  0
  1  2  2  0  0  0  0
  1  3  1  0  0  0  0
  1  7  1  0  0  0  0
  3  4  1  0  0  0  0
  3  5  1  0  0  0  0
  3  6  1  0  0  0  0
  7  8  1  0  0  0  0
  7 12  1  0  0  0  0
  8  9  1  0  0  0  0
  8 11  1  0  0  0  0
  8 13  1  0  0  0  0
  9 10  2  0  0  0  0
  9 17  1  0  0  0  0
 11 14  1  0  0  0  0
 11 15  1  0  0  0  0
 11 16  1  0  0  0  0
 17 18  1  0  0  0  0
 17 21  1  0  0  0  0
 18 19  1  0  0  0  0
 18 22  1  0  0  0  0
 18 23  1  0  0  0  0
 19 20  2  0  0  0  0
 19 24  1  0  0  0  0
 24 25  1  0  0  0  0
 24 29  1  0  0  0  0
 25 26  1  0  0  0  0
 25 28  1  0  0  0  0
 25 30  1  0  0  0  0
 26 27  2  0  0  0  0
 26 34  1  0  0  0  0
 28 31  1  0  0  0  0
 28 32  1  0  0  0  0
 28 33  1  0  0  0  0
 34 35  1  0  0  0  0
 34 36  1  0  0  0  0
 35 37  1  0  0  0  0
 35 38  1  0  0  0  0
 35 39  1  0  0  0  0
M  END
$$$$

  -OEChem-05262216283D

 39 38  0     1  0  0  0  0  0999 V2000
   -4.0857   -3.5168   -2.4466 C   0  0  0  0  0  0  0  0  0  0  0  0
   -3.3376   -4.3769   -2.0079 O   0  0  0  0  0  0  0  0  0  0  0  0
   -5.5762   -3.7836   -2.5404 C   0  0  0  0  0  0  0  0  0  0  0  0
   -5.9134   -3.6622   -3.5725 H   0  0  0  0  0  0  0  0  0  0  0  0
   -5.7989   -4.8034   -2.2145 H   0  0  0  0  0  0  0  0  0  0  0  0
   -6.1201   -3.0830   -1.9021 H   0  0  0  0  0  0  0  0  0  0  0  0
   -3.5876   -2.2922   -2.8396 N   0  0  0  0  0  0  0  0  0  0  0  0
   -2.2322   -1.8215   -2.5225 C   0  0  2  0  0  0  0  0  0  0  0  0
   -2.2734   -0.5805   -1.6065 C   0  0  0  0  0  0  0  0  0  0  0  0
   -3.2086    0.1962   -1.7187 O   0  0  0  0  0  0  0  0  0  0  0  0
   -1.5296   -1.4932   -3.8416 C   0  0  0  0  0  0  0  0  0  0  0  0
   -4.2824   -1.5640   -3.0002 H   0  0  0  0  0  0  0  0  0  0  0  0
   -1.6620   -2.5998   -2.0053 H   0  0  0  0  0  0  0  0  0  0  0  0
   -2.0662   -0.7020   -4.3753 H   0  0  0  0  0  0  0  0  0  0  0  0
   -0.5055   -1.1554   -3.6568 H   0  0  0  0  0  0  0  0  0  0  0  0
   -1.4914   -2.3811   -4.4804 H   0  0  0  0  0  0  0  0  0  0  0  0
   -1.2149   -0.3361   -0.7450 N   0  0  0  0  0  0  0  0  0  0  0  0
   -1.1416    0.6501    0.3585 C   0  0  0  0  0  0  0  0  0  0  0  0
   -1.9382    1.9709    0.2865 C   0  0  0  0  0  0  0  0  0  0  0  0
   -3.1176    1.9620    0.6028 O   0  0  0  0  0  0  0  0  0  0  0  0
   -0.5153   -1.0728   -0.7317 H   0  0  0  0  0  0  0  0  0  0  0  0
   -0.0897    0.9125    0.4998 H   0  0  0  0  0  0  0  0  0  0  0  0
   -1.4704    0.1485    1.2737 H   0  0  0  0  0  0  0  0  0  0  0  0
   -1.2111    3.1538    0.3228 N   0  0  0  0  0  0  0  0  0  0  0  0
   -1.6040    4.5306    0.7034 C   0  0  2  0  0  0  0  0  0  0  0  0
   -0.6185    5.0460    1.7825 C   0  0  0  0  0  0  0  0  0  0  0  0
    0.5047    4.5555    1.8531 O   0  0  0  0  0  0  0  0  0  0  0  0
   -3.0651    4.7308    1.1482 C   0  0  0  0  0  0  0  0  0  0  0  0
   -0.2021    3.0173    0.2941 H   0  0  0  0  0  0  0  0  0  0  0  0
   -1.4634    5.1600   -0.1805 H   0  0  0  0  0  0  0  0  0  0  0  0
   -3.2750    4.1568    2.0566 H   0  0  0  0  0  0  0  0  0  0  0  0
   -3.2723    5.7862    1.3457 H   0  0  0  0  0  0  0  0  0  0  0  0
   -3.7506    4.4064    0.3590 H   0  0  0  0  0  0  0  0  0  0  0  0
   -0.9397    6.0877    2.6351 N   0  0  0  0  0  0  0  0  0  0  0  0
   -0.0461    6.5723    3.6806 C   0  0  0  0  0  0  0  0  0  0  0  0
   -1.8911    6.4419    2.6002 H   0  0  0  0  0  0  0  0  0  0  0  0
    0.1567    5.7799    4.4086 H   0  0  0  0  0  0  0  0  0  0  0  0
    0.9035    6.9062    3.2496 H   0  0  0  0  0  0  0  0  0  0  0  0
   -0.5015    7.4174    4.2059 H   0  0  0  0  0  0  0  0  0  0  0  0
  1  2  2  0  0  0  0
  1  3  1  0  0  0  0
  1  7  1  0  0  0  0
  3  4  1  0  0  0  0
  3  5  1  0  0  0  0
  3  6  1  0  0  0  0
  7  8  1  0  0  0  0
  7 12  1  0  0  0  0
  8  9  1  0  0  0  0
  8 11  1  0  0  0  0
  8 13  1  0  0  0  0
  9 10  2  0  0  0  0
  9 17  1  0  0  0  0
 11 14  1  0  0  0  0
 11 15  1  0  0  0  0
 11 16  1  0  0  0  0
 17 18  1  0  0  0  0
 17 21  1  0  0  0  0
 18 19  1  0  0  0  0
 18 22  1  0  0  0  0
 18 23  1  0  0  0  0
 19 20  2  0  0  0  0
 19 24  1  0  0  0  0
 24 25  1  0  0  0  0
 24 29  1  0  0  0  0
 25 26  1  0  0  0  0
 25 28  1  0  0  0  0
 25 30  1  0  0  0  0
 26 27  2  0  0  0  0
 26 34  1  0  0  0  0
 28 31  1  0  0  0  0
 28 32  1  0  0  0  0
 28 33  1  0  0  0  0
 34 35  1  0  0  0  0
 34 36  1  0  0  0  0
 35 37  1  0  0  0  0
 35 38  1  0  0  0  0
 35 39  1  0  0  0  0
M  END
$$$$

  -OEChem-05262216283D

 39 38  0     1  0  0  0  0  0999 V2000
   -3.0588   -2.9982   -2.2402 C   0  0  0  0  0  0  0  0  0  0  0  0
   -2.3781   -3.0695   -1.2272 O   0  0  0  0  0  0  0  0  0  0  0  0
   -4.1113   -4.0511   -2.5317 C   0  0  0  0  0  0  0  0  0  0  0  0
   -3.9153   -4.5181   -3.5001 H   0  0  0  0  0  0  0  0  0  0  0  0
   -4.0942   -4.8250   -1.7590 H   0  0  0  0  0  0  0  0  0  0  0  0
   -5.1039   -3.5941   -2.5488 H   0  0  0  0  0  0  0  0  0  0  0  0
   -2.8989   -1.9225   -3.0896 N   0  0  0  0  0  0  0  0  0  0  0  0
   -1.9181   -0.8448   -2.8818 C   0  0  2  0  0  0  0  0  0  0  0  0
   -2.3669    0.1648   -1.7952 C   0  0  0  0  0  0  0  0  0  0  0  0
   -2.5701    1.3355   -2.0769 O   0  0  0  0  0  0  0  0  0  0  0  0
   -1.6654   -0.1880   -4.2457 C   0  0  0  0  0  0  0  0  0  0  0  0
   -3.5483   -1.8411   -3.8673 H   0  0  0  0  0  0  0  0  0  0  0  0
   -0.9699   -1.2771   -2.5442 H   0  0  0  0  0  0  0  0  0  0  0  0
   -2.5822    0.2716   -4.6291 H   0  0  0  0  0  0  0  0  0  0  0  0
   -0.9015    0.5909   -4.1544 H   0  0  0  0  0  0  0  0  0  0  0  0
   -1.3152   -0.9304   -4.9694 H   0  0  0  0  0  0  0  0  0  0  0  0
   -2.4841   -0.2890   -0.4916 N   0  0  0  0  0  0  0  0  0  0  0  0
   -3.1329    0.3864    0.6527 C   0  0  0  0  0  0  0  0  0  0  0  0
   -3.1499    1.9254    0.6932 C   0  0  0  0  0  0  0  0  0  0  0  0
   -4.1274    2.5303    0.2703 O   0  0  0  0  0  0  0  0  0  0  0  0
   -2.3367   -1.2995   -0.4056 H   0  0  0  0  0  0  0  0  0  0  0  0
   -2.6535    0.0392    1.5718 H   0  0  0  0  0  0  0  0  0  0  0  0
   -4.1762    0.0589    0.6904 H   0  0  0  0  0  0  0  0  0  0  0  0
   -2.2953    2.5891    1.5544 N   0  0  0  0  0  0  0  0  0  0  0  0
   -2.1726    4.0528    1.5877 C   0  0  2  0  0  0  0  0  0  0  0  0
   -0.7301    4.4902    1.2653 C   0  0  0  0  0  0  0  0  0  0  0  0
    0.2116    3.7674    1.5749 O   0  0  0  0  0  0  0  0  0  0  0  0
   -2.5842    4.5336    2.9802 C   0  0  0  0  0  0  0  0  0  0  0  0
   -1.4499    2.0779    1.8042 H   0  0  0  0  0  0  0  0  0  0  0  0
   -2.8309    4.5150    0.8447 H   0  0  0  0  0  0  0  0  0  0  0  0
   -1.9296    4.1016    3.7441 H   0  0  0  0  0  0  0  0  0  0  0  0
   -2.5204    5.6241    3.0423 H   0  0  0  0  0  0  0  0  0  0  0  0
   -3.6152    4.2338    3.1929 H   0  0  0  0  0  0  0  0  0  0  0  0
   -0.4860    5.6955    0.6339 N   0  0  0  0  0  0  0  0  0  0  0  0
    0.8445    6.1125    0.2093 C   0  0  0  0  0  0  0  0  0  0  0  0
   -1.2927    6.2153    0.2997 H   0  0  0  0  0  0  0  0  0  0  0  0
    1.5311    6.1345    1.0622 H   0  0  0  0  0  0  0  0  0  0  0  0
    1.2392    5.4216   -0.5429 H   0  0  0  0  0  0  0  0  0  0  0  0
    0.8061    7.1151   -0.2270 H   0  0  0  0  0  0  0  0  0  0  0  0
  1  2  2  0  0  0  0
  1  3  1  0  0  0  0
  1  7  1  0  0  0  0
  3  4  1  0  0  0  0
  3  5  1  0  0  0  0
  3  6  1  0  0  0  0
  7  8  1  0  0  0  0
  7 12  1  0  0  0  0
  8  9  1  0  0  0  0
  8 11  1  0  0  0  0
  8 13  1  0  0  0  0
  9 10  2  0  0  0  0
  9 17  1  0  0  0  0
 11 14  1  0  0  0  0
 11 15  1  0  0  0  0
 11 16  1  0  0  0  0
 17 18  1  0  0  0  0
 17 21  1  0  0  0  0
 18 19  1  0  0  0  0
 18 22  1  0  0  0  0
 18 23  1  0  0  0  0
 19 20  2  0  0  0  0
 19 24  1  0  0  0  0
 24 25  1  0  0  0  0
 24 29  1  0  0  0  0
 25 26  1  0  0  0  0
 25 28  1  0  0  0  0
 25 30  1  0  0  0  0
 26 27  2  0  0  0  0
 26 34  1  0  0  0  0
 28 31  1  0  0  0  0
 28 32  1  0  0  0  0
 28 33  1  0  0  0  0
 34 35  1  0  0  0  0
 34 36  1  0  0  0  0
 35 37  1  0  0  0  0
 35 38  1  0  0  0  0
 35 39  1  0  0  0  0
M  END
$$$$

  -OEChem-05262216283D

 39 38  0     1  0  0  0  0  0999 V2000
   -3.0267   -2.9113   -2.3369 C   0  0  0  0  0  0  0  0  0  0  0  0
   -2.3209   -2.9949   -1.3422 O   0  0  0  0  0  0  0  0  0  0  0  0
   -4.0243   -4.0059   -2.6645 C   0  0  0  0  0  0  0  0  0  0  0  0
   -3.8154   -4.4187   -3.6546 H   0  0  0  0  0  0  0  0  0  0  0  0
   -3.9579   -4.8104   -1.9266 H   0  0  0  0  0  0  0  0  0  0  0  0
   -5.0396   -3.6016   -2.6527 H   0  0  0  0  0  0  0  0  0  0  0  0
   -2.9526   -1.7839   -3.1287 N   0  0  0  0  0  0  0  0  0  0  0  0
   -2.0459   -0.6540   -2.8713 C   0  0  2  0  0  0  0  0  0  0  0  0
   -2.5404    0.2512   -1.7153 C   0  0  0  0  0  0  0  0  0  0  0  0
   -2.8887    1.4030   -1.9275 O   0  0  0  0  0  0  0  0  0  0  0  0
   -1.8736    0.1033   -4.1944 C   0  0  0  0  0  0  0  0  0  0  0  0
   -3.6238   -1.7017   -3.8876 H   0  0  0  0  0  0  0  0  0  0  0  0
   -1.0614   -1.0362   -2.5797 H   0  0  0  0  0  0  0  0  0  0  0  0
   -2.8326    0.5055   -4.5371 H   0  0  0  0  0  0  0  0  0  0  0  0
   -1.1761    0.9373   -4.0650 H   0  0  0  0  0  0  0  0  0  0  0  0
   -1.4755   -0.5618   -4.9669 H   0  0  0  0  0  0  0  0  0  0  0  0
   -2.5553   -0.2756   -0.4339 N   0  0  0  0  0  0  0  0  0  0  0  0
   -3.1499    0.3156    0.7836 C   0  0  0  0  0  0  0  0  0  0  0  0
   -3.2035    1.8491    0.8850 C   0  0  0  0  0  0  0  0  0  0  0  0
   -4.2714    2.4309    0.7398 O   0  0  0  0  0  0  0  0  0  0  0  0
   -2.3266   -1.2740   -0.4034 H   0  0  0  0  0  0  0  0  0  0  0  0
   -2.5987   -0.0513    1.6536 H   0  0  0  0  0  0  0  0  0  0  0  0
   -4.1779   -0.0489    0.8725 H   0  0  0  0  0  0  0  0  0  0  0  0
   -2.1420    2.5286    1.4524 N   0  0  0  0  0  0  0  0  0  0  0  0
   -2.0187    3.9904    1.3877 C   0  0  2  0  0  0  0  0  0  0  0  0
   -0.7977    4.3952    0.5381 C   0  0  0  0  0  0  0  0  0  0  0  0
    0.2189    3.7086    0.5637 O   0  0  0  0  0  0  0  0  0  0  0  0
   -1.8853    4.5216    2.8156 C   0  0  0  0  0  0  0  0  0  0  0  0
   -1.2582    2.0218    1.4394 H   0  0  0  0  0  0  0  0  0  0  0  0
   -2.9060    4.4391    0.9291 H   0  0  0  0  0  0  0  0  0  0  0  0
   -0.9963    4.1041    3.2994 H   0  0  0  0  0  0  0  0  0  0  0  0
   -1.7998    5.6126    2.8103 H   0  0  0  0  0  0  0  0  0  0  0  0
   -2.7661    4.2454    3.4037 H   0  0  0  0  0  0  0  0  0  0  0  0
   -0.8306    5.5385   -0.2383 N   0  0  0  0  0  0  0  0  0  0  0  0
    0.2537    5.9171   -1.1354 C   0  0  0  0  0  0  0  0  0  0  0  0
   -1.7264    6.0101   -0.3271 H   0  0  0  0  0  0  0  0  0  0  0  0
    1.1929    6.0170   -0.5811 H   0  0  0  0  0  0  0  0  0  0  0  0
    0.3845    5.1615   -1.9169 H   0  0  0  0  0  0  0  0  0  0  0  0
    0.0327    6.8762   -1.6130 H   0  0  0  0  0  0  0  0  0  0  0  0
  1  2  2  0  0  0  0
  1  3  1  0  0  0  0
  1  7  1  0  0  0  0
  3  4  1  0  0  0  0
  3  5  1  0  0  0  0
  3  6  1  0  0  0  0
  7  8  1  0  0  0  0
  7 12  1  0  0  0  0
  8  9  1  0  0  0  0
  8 11  1  0  0  0  0
  8 13  1  0  0  0  0
  9 10  2  0  0  0  0
  9 17  1  0  0  0  0
 11 14  1  0  0  0  0
 11 15  1  0  0  0  0
 11 16  1  0  0  0  0
 17 18  1  0  0  0  0
 17 21  1  0  0  0  0
 18 19  1  0  0  0  0
 18 22  1  0  0  0  0
 18 23  1  0  0  0  0
 19 20  2  0  0  0  0
 19 24  1  0  0  0  0
 24 25  1  0  0  0  0
 24 29  1  0  0  0  0
 25 26  1  0  0  0  0
 25 28  1  0  0  0  0
 25 30  1  0  0  0  0
 26 27  2  0  0  0  0
 26 34  1  0  0  0  0
 28 31  1  0  0  0  0
 28 32  1  0  0  0  0
 28 33  1  0  0  0  0
 34 35  1  0  0  0  0
 34 36  1  0  0  0  0
 35 37  1  0  0  0  0
 35 38  1  0  0  0  0
 35 39  1  0  0  0  0
M  END
$$$$

  -OEChem-05262216283D

 39 38  0     1  0  0  0  0  0999 V2000
   -3.2091   -2.6546   -2.4173 C   0  0  0  0  0  0  0  0  0  0  0  0
   -2.5650   -2.7944   -1.3878 O   0  0  0  0  0  0  0  0  0  0  0  0
   -4.2286   -3.6979   -2.8333 C   0  0  0  0  0  0  0  0  0  0  0  0
   -3.9755   -4.0974   -3.8184 H   0  0  0  0  0  0  0  0  0  0  0  0
   -4.2404   -4.5213   -2.1135 H   0  0  0  0  0  0  0  0  0  0  0  0
   -5.2253   -3.2518   -2.8734 H   0  0  0  0  0  0  0  0  0  0  0  0
   -3.0391   -1.5088   -3.1674 N   0  0  0  0  0  0  0  0  0  0  0  0
   -2.0542   -0.4585   -2.8612 C   0  0  2  0  0  0  0  0  0  0  0  0
   -2.5028    0.4644   -1.6995 C   0  0  0  0  0  0  0  0  0  0  0  0
   -2.6553    1.6654   -1.8721 O   0  0  0  0  0  0  0  0  0  0  0  0
   -1.7851    0.3081   -4.1633 C   0  0  0  0  0  0  0  0  0  0  0  0
   -3.6376   -1.3902   -3.9805 H   0  0  0  0  0  0  0  0  0  0  0  0
   -1.1126   -0.9256   -2.5527 H   0  0  0  0  0  0  0  0  0  0  0  0
   -2.6962    0.8027   -4.5154 H   0  0  0  0  0  0  0  0  0  0  0  0
   -1.0179    1.0726   -4.0022 H   0  0  0  0  0  0  0  0  0  0  0  0
   -1.4315   -0.3734   -4.9431 H   0  0  0  0  0  0  0  0  0  0  0  0
   -2.6926   -0.0908   -0.4445 N   0  0  0  0  0  0  0  0  0  0  0  0
   -3.2868    0.5527    0.7474 C   0  0  0  0  0  0  0  0  0  0  0  0
   -3.1176    2.0736    0.8961 C   0  0  0  0  0  0  0  0  0  0  0  0
   -4.0950    2.8055    0.8391 O   0  0  0  0  0  0  0  0  0  0  0  0
   -2.6005   -1.1121   -0.4300 H   0  0  0  0  0  0  0  0  0  0  0  0
   -2.8655    0.0886    1.6433 H   0  0  0  0  0  0  0  0  0  0  0  0
   -4.3615    0.3454    0.7483 H   0  0  0  0  0  0  0  0  0  0  0  0
   -1.8963    2.5992    1.2746 N   0  0  0  0  0  0  0  0  0  0  0  0
   -1.6426    4.0391    1.4523 C   0  0  2  0  0  0  0  0  0  0  0  0
   -1.1751    4.7457    0.1548 C   0  0  0  0  0  0  0  0  0  0  0  0
   -0.4243    5.7132    0.2072 O   0  0  0  0  0  0  0  0  0  0  0  0
   -0.6239    4.1738    2.5911 C   0  0  0  0  0  0  0  0  0  0  0  0
   -1.0972    1.9763    1.2057 H   0  0  0  0  0  0  0  0  0  0  0  0
   -2.5630    4.5413    1.7686 H   0  0  0  0  0  0  0  0  0  0  0  0
    0.3363    3.7348    2.3027 H   0  0  0  0  0  0  0  0  0  0  0  0
   -0.4631    5.2289    2.8355 H   0  0  0  0  0  0  0  0  0  0  0  0
   -0.9880    3.6663    3.4896 H   0  0  0  0  0  0  0  0  0  0  0  0
   -1.5612    4.2800   -1.0884 N   0  0  0  0  0  0  0  0  0  0  0  0
   -1.1767    4.9078   -2.3444 C   0  0  0  0  0  0  0  0  0  0  0  0
   -2.1937    3.4751   -1.1185 H   0  0  0  0  0  0  0  0  0  0  0  0
   -1.5336    5.9424   -2.3801 H   0  0  0  0  0  0  0  0  0  0  0  0
   -0.0877    4.9050   -2.4568 H   0  0  0  0  0  0  0  0  0  0  0  0
   -1.6133    4.3610   -3.1859 H   0  0  0  0  0  0  0  0  0  0  0  0
  1  2  2  0  0  0  0
  1  3  1  0  0  0  0
  1  7  1  0  0  0  0
  3  4  1  0  0  0  0
  3  5  1  0  0  0  0
  3  6  1  0  0  0  0
  7  8  1  0  0  0  0
  7 12  1  0  0  0  0
  8  9  1  0  0  0  0
  8 11  1  0  0  0  0
  8 13  1  0  0  0  0
  9 10  2  0  0  0  0
  9 17  1  0  0  0  0
 11 14  1  0  0  0  0
 11 15  1  0  0  0  0
 11 16  1  0  0  0  0
 17 18  1  0  0  0  0
 17 21  1  0  0  0  0
 18 19  1  0  0  0  0
 18 22  1  0  0  0  0
 18 23  1  0  0  0  0
 19 20  2  0  0  0  0
 19 24  1  0  0  0  0
 24 25  1  0  0  0  0
 24 29  1  0  0  0  0
 25 26  1  0  0  0  0
 25 28  1  0  0  0  0
 25 30  1  0  0  0  0
 26 27  2  0  0  0  0
 26 34  1  0  0  0  0
 28 31  1  0  0  0  0
 28 32  1  0  0  0  0
 28 33  1  0  0  0  0
 34 35  1  0  0  0  0
 34 36  1  0  0  0  0
 35 37  1  0  0  0  0
 35 38  1  0  0  0  0
 35 39  1  0  0  0  0
M  END
$$$$

  -OEChem-05262216283D

 39 38  0     1  0  0  0  0  0999 V2000
   -3.2212   -2.7891   -2.3741 C   0  0  0  0  0  0  0  0  0  0  0  0
   -2.4880   -2.8556   -1.3985 O   0  0  0  0  0  0  0  0  0  0  0  0
   -4.1789   -3.9210   -2.6939 C   0  0  0  0  0  0  0  0  0  0  0  0
   -3.9929   -4.2953   -3.7036 H   0  0  0  0  0  0  0  0  0  0  0  0
   -4.0419   -4.7427   -1.9850 H   0  0  0  0  0  0  0  0  0  0  0  0
   -5.2109   -3.5678   -2.6272 H   0  0  0  0  0  0  0  0  0  0  0  0
   -3.2082   -1.6476   -3.1495 N   0  0  0  0  0  0  0  0  0  0  0  0
   -2.2827   -0.5204   -2.9486 C   0  0  2  0  0  0  0  0  0  0  0  0
   -2.6933    0.3934   -1.7654 C   0  0  0  0  0  0  0  0  0  0  0  0
   -2.9163    1.5840   -1.9345 O   0  0  0  0  0  0  0  0  0  0  0  0
   -2.1904    0.2335   -4.2825 C   0  0  0  0  0  0  0  0  0  0  0  0
   -3.8683   -1.6012   -3.9211 H   0  0  0  0  0  0  0  0  0  0  0  0
   -1.2846   -0.9097   -2.7194 H   0  0  0  0  0  0  0  0  0  0  0  0
   -3.1618    0.6599   -4.5532 H   0  0  0  0  0  0  0  0  0  0  0  0
   -1.4637    1.0494   -4.2088 H   0  0  0  0  0  0  0  0  0  0  0  0
   -1.8685   -0.4411   -5.0818 H   0  0  0  0  0  0  0  0  0  0  0  0
   -2.7875   -0.1552   -0.4974 N   0  0  0  0  0  0  0  0  0  0  0  0
   -3.2744    0.4946    0.7390 C   0  0  0  0  0  0  0  0  0  0  0  0
   -3.0798    2.0135    0.8826 C   0  0  0  0  0  0  0  0  0  0  0  0
   -4.0296    2.7222    1.1814 O   0  0  0  0  0  0  0  0  0  0  0  0
   -2.6368   -1.1694   -0.4713 H   0  0  0  0  0  0  0  0  0  0  0  0
   -2.7808    0.0268    1.5952 H   0  0  0  0  0  0  0  0  0  0  0  0
   -4.3467    0.2952    0.8295 H   0  0  0  0  0  0  0  0  0  0  0  0
   -1.8062    2.5516    0.8549 N   0  0  0  0  0  0  0  0  0  0  0  0
   -1.5058    3.9809    1.0467 C   0  0  2  0  0  0  0  0  0  0  0  0
   -1.4173    4.7821   -0.2756 C   0  0  0  0  0  0  0  0  0  0  0  0
   -0.8119    5.8468   -0.3151 O   0  0  0  0  0  0  0  0  0  0  0  0
   -0.2018    4.0544    1.8497 C   0  0  0  0  0  0  0  0  0  0  0  0
   -1.0716    1.9475    0.4990 H   0  0  0  0  0  0  0  0  0  0  0  0
   -2.2947    4.4495    1.6445 H   0  0  0  0  0  0  0  0  0  0  0  0
    0.6325    3.6525    1.2666 H   0  0  0  0  0  0  0  0  0  0  0  0
    0.0268    5.0925    2.1109 H   0  0  0  0  0  0  0  0  0  0  0  0
   -0.2927    3.4811    2.7774 H   0  0  0  0  0  0  0  0  0  0  0  0
   -1.9657    4.2921   -1.4460 N   0  0  0  0  0  0  0  0  0  0  0  0
   -1.9255    4.9979   -2.7184 C   0  0  0  0  0  0  0  0  0  0  0  0
   -2.4771    3.4067   -1.3928 H   0  0  0  0  0  0  0  0  0  0  0  0
   -2.4521    5.9548   -2.6420 H   0  0  0  0  0  0  0  0  0  0  0  0
   -0.8901    5.1862   -3.0206 H   0  0  0  0  0  0  0  0  0  0  0  0
   -2.4083    4.3969   -3.4948 H   0  0  0  0  0  0  0  0  0  0  0  0
  1  2  2  0  0  0  0
  1  3  1  0  0  0  0
  1  7  1  0  0  0  0
  3  4  1  0  0  0  0
  3  5  1  0  0  0  0
  3  6  1  0  0  0  0
  7  8  1  0  0  0  0
  7 12  1  0  0  0  0
  8  9  1  0  0  0  0
  8 11  1  0  0  0  0
  8 13  1  0  0  0  0
  9 10  2  0  0  0  0
  9 17  1  0  0  0  0
 11 14  1  0  0  0  0
 11 15  1  0  0  0  0
 11 16  1  0  0  0  0
 17 18  1  0  0  0  0
 17 21  1  0  0  0  0
 18 19  1  0  0  0  0
 18 22  1  0  0  0  0
 18 23  1  0  0  0  0
 19 20  2  0  0  0  0
 19 24  1  0  0  0  0
 24 25  1  0  0  0  0
 24 29  1  0  0  0  0
 25 26  1  0  0  0  0
 25 28  1  0  0  0  0
 25 30  1  0  0  0  0
 26 27  2  0  0  0  0
 26 34  1  0  0  0  0
 28 31  1  0  0  0  0
 28 32  1  0  0  0  0
 28 33  1  0  0  0  0
 34 35  1  0  0  0  0
 34 36  1  0  0  0  0
 35 37  1  0  0  0  0
 35 38  1  0  0  0  0
 35 39  1  0  0  0  0
M  END
$$$$

  -OEChem-05262216283D

 39 38  0     1  0  0  0  0  0999 V2000
   -2.8993   -2.7619   -2.4960 C   0  0  0  0  0  0  0  0  0  0  0  0
   -2.0777   -2.7231   -1.5917 O   0  0  0  0  0  0  0  0  0  0  0  0
   -3.5090   -4.0836   -2.9230 C   0  0  0  0  0  0  0  0  0  0  0  0
   -3.2980   -4.2686   -3.9791 H   0  0  0  0  0  0  0  0  0  0  0  0
   -3.0881   -4.9018   -2.3318 H   0  0  0  0  0  0  0  0  0  0  0  0
   -4.5913   -4.0625   -2.7732 H   0  0  0  0  0  0  0  0  0  0  0  0
   -3.3129   -1.5863   -3.0881 N   0  0  0  0  0  0  0  0  0  0  0  0
   -2.7656   -0.2582   -2.7661 C   0  0  2  0  0  0  0  0  0  0  0  0
   -3.3074    0.3125   -1.4312 C   0  0  0  0  0  0  0  0  0  0  0  0
   -3.9253    1.3685   -1.3906 O   0  0  0  0  0  0  0  0  0  0  0  0
   -3.0533    0.6539   -3.9649 C   0  0  0  0  0  0  0  0  0  0  0  0
   -4.0383   -1.6506   -3.7965 H   0  0  0  0  0  0  0  0  0  0  0  0
   -1.6771   -0.3289   -2.6621 H   0  0  0  0  0  0  0  0  0  0  0  0
   -4.1314    0.7888   -4.0986 H   0  0  0  0  0  0  0  0  0  0  0  0
   -2.5981    1.6368   -3.8075 H   0  0  0  0  0  0  0  0  0  0  0  0
   -2.6353    0.2258   -4.8809 H   0  0  0  0  0  0  0  0  0  0  0  0
   -3.1005   -0.4003   -0.2602 N   0  0  0  0  0  0  0  0  0  0  0  0
   -3.2131    0.1249    1.1187 C   0  0  0  0  0  0  0  0  0  0  0  0
   -2.8810    1.6140    1.3127 C   0  0  0  0  0  0  0  0  0  0  0  0
   -3.5691    2.3156    2.0421 O   0  0  0  0  0  0  0  0  0  0  0  0
   -2.6086   -1.2897   -0.3943 H   0  0  0  0  0  0  0  0  0  0  0  0
   -2.5483   -0.4465    1.7717 H   0  0  0  0  0  0  0  0  0  0  0  0
   -4.2380   -0.0343    1.4676 H   0  0  0  0  0  0  0  0  0  0  0  0
   -1.7546    2.1371    0.7064 N   0  0  0  0  0  0  0  0  0  0  0  0
   -1.6403    3.5571    0.3636 C   0  0  2  0  0  0  0  0  0  0  0  0
   -1.5912    3.7232   -1.1695 C   0  0  0  0  0  0  0  0  0  0  0  0
   -0.9883    2.9003   -1.8555 O   0  0  0  0  0  0  0  0  0  0  0  0
   -0.3708    4.1089    1.0139 C   0  0  0  0  0  0  0  0  0  0  0  0
   -1.3183    1.5077    0.0357 H   0  0  0  0  0  0  0  0  0  0  0  0
   -2.5026    4.1193    0.7370 H   0  0  0  0  0  0  0  0  0  0  0  0
    0.5114    3.5726    0.6496 H   0  0  0  0  0  0  0  0  0  0  0  0
   -0.2538    5.1717    0.7810 H   0  0  0  0  0  0  0  0  0  0  0  0
   -0.4245    3.9956    2.1013 H   0  0  0  0  0  0  0  0  0  0  0  0
   -2.2171    4.7963   -1.7758 N   0  0  0  0  0  0  0  0  0  0  0  0
   -2.3534    4.9138   -3.2217 C   0  0  0  0  0  0  0  0  0  0  0  0
   -2.8251    5.3579   -1.1864 H   0  0  0  0  0  0  0  0  0  0  0  0
   -1.3732    4.8594   -3.7069 H   0  0  0  0  0  0  0  0  0  0  0  0
   -2.9860    4.1093   -3.6113 H   0  0  0  0  0  0  0  0  0  0  0  0
   -2.8115    5.8731   -3.4810 H   0  0  0  0  0  0  0  0  0  0  0  0
  1  2  2  0  0  0  0
  1  3  1  0  0  0  0
  1  7  1  0  0  0  0
  3  4  1  0  0  0  0
  3  5  1  0  0  0  0
  3  6  1  0  0  0  0
  7  8  1  0  0  0  0
  7 12  1  0  0  0  0
  8  9  1  0  0  0  0
  8 11  1  0  0  0  0
  8 13  1  0  0  0  0
  9 10  2  0  0  0  0
  9 17  1  0  0  0  0
 11 14  1  0  0  0  0
 11 15  1  0  0  0  0
 11 16  1  0  0  0  0
 17 18  1  0  0  0  0
 17 21  1  0  0  0  0
 18 19  1  0  0  0  0
 18 22  1  0  0  0  0
 18 23  1  0  0  0  0
 19 20  2  0  0  0  0
 19 24  1  0  0  0  0
 24 25  1  0  0  0  0
 24 29  1  0  0  0  0
 25 26  1  0  0  0  0
 25 28  1  0  0  0  0
 25 30  1  0  0  0  0
 26 27  2  0  0  0  0
 26 34  1  0  0  0  0
 28 31  1  0  0  0  0
 28 32  1  0  0  0  0
 28 33  1  0  0  0  0
 34 35  1  0  0  0  0
 34 36  1  0  0  0  0
 35 37  1  0  0  0  0
 35 38  1  0  0  0  0
 35 39  1  0  0  0  0
M  END
$$$$

  -OEChem-05262216283D

 39 38  0     1  0  0  0  0  0999 V2000
   -2.9413   -3.0348   -2.4924 C   0  0  0  0  0  0  0  0  0  0  0  0
   -2.0026   -2.9154   -1.7186 O   0  0  0  0  0  0  0  0  0  0  0  0
   -3.5127   -4.4062   -2.7987 C   0  0  0  0  0  0  0  0  0  0  0  0
   -3.4074   -4.6249   -3.8642 H   0  0  0  0  0  0  0  0  0  0  0  0
   -2.9818   -5.1731   -2.2271 H   0  0  0  0  0  0  0  0  0  0  0  0
   -4.5714   -4.4388   -2.5295 H   0  0  0  0  0  0  0  0  0  0  0  0
   -3.5183   -1.9058   -3.0366 N   0  0  0  0  0  0  0  0  0  0  0  0
   -3.0279   -0.5364   -2.8115 C   0  0  2  0  0  0  0  0  0  0  0  0
   -3.4138    0.0220   -1.4187 C   0  0  0  0  0  0  0  0  0  0  0  0
   -4.0888    1.0359   -1.3010 O   0  0  0  0  0  0  0  0  0  0  0  0
   -3.5456    0.3326   -3.9651 C   0  0  0  0  0  0  0  0  0  0  0  0
   -4.3377   -2.0361   -3.6232 H   0  0  0  0  0  0  0  0  0  0  0  0
   -1.9337   -0.5305   -2.8637 H   0  0  0  0  0  0  0  0  0  0  0  0
   -4.6391    0.3827   -3.9514 H   0  0  0  0  0  0  0  0  0  0  0  0
   -3.1520    1.3507   -3.8766 H   0  0  0  0  0  0  0  0  0  0  0  0
   -3.2238   -0.0762   -4.9277 H   0  0  0  0  0  0  0  0  0  0  0  0
   -3.0054   -0.6494   -0.2770 N   0  0  0  0  0  0  0  0  0  0  0  0
   -2.9152   -0.0845    1.0898 C   0  0  0  0  0  0  0  0  0  0  0  0
   -2.5987    1.4169    1.2326 C   0  0  0  0  0  0  0  0  0  0  0  0
   -3.0204    2.0421    2.1965 O   0  0  0  0  0  0  0  0  0  0  0  0
   -2.4743   -1.5049   -0.4698 H   0  0  0  0  0  0  0  0  0  0  0  0
   -2.1425   -0.6281    1.6401 H   0  0  0  0  0  0  0  0  0  0  0  0
   -3.8685   -0.2647    1.5956 H   0  0  0  0  0  0  0  0  0  0  0  0
   -1.8286    2.0625    0.2848 N   0  0  0  0  0  0  0  0  0  0  0  0
   -1.9042    3.5033    0.0381 C   0  0  2  0  0  0  0  0  0  0  0  0
   -1.9883    3.7747   -1.4794 C   0  0  0  0  0  0  0  0  0  0  0  0
   -1.4919    2.9817   -2.2766 O   0  0  0  0  0  0  0  0  0  0  0  0
   -0.6683    4.1686    0.6461 C   0  0  0  0  0  0  0  0  0  0  0  0
   -1.6252    1.5053   -0.5426 H   0  0  0  0  0  0  0  0  0  0  0  0
   -2.8054    3.9183    0.5020 H   0  0  0  0  0  0  0  0  0  0  0  0
    0.2440    3.7704    0.1907 H   0  0  0  0  0  0  0  0  0  0  0  0
   -0.6972    5.2500    0.4837 H   0  0  0  0  0  0  0  0  0  0  0  0
   -0.6312    3.9803    1.7238 H   0  0  0  0  0  0  0  0  0  0  0  0
   -2.6191    4.9096   -1.9547 N   0  0  0  0  0  0  0  0  0  0  0  0
   -2.8377    5.1591   -3.3741 C   0  0  0  0  0  0  0  0  0  0  0  0
   -3.1135    5.4812   -1.2759 H   0  0  0  0  0  0  0  0  0  0  0  0
   -1.8867    5.1496   -3.9174 H   0  0  0  0  0  0  0  0  0  0  0  0
   -3.4941    4.3923   -3.7990 H   0  0  0  0  0  0  0  0  0  0  0  0
   -3.3060    6.1374   -3.5194 H   0  0  0  0  0  0  0  0  0  0  0  0
  1  2  2  0  0  0  0
  1  3  1  0  0  0  0
  1  7  1  0  0  0  0
  3  4  1  0  0  0  0
  3  5  1  0  0  0  0
  3  6  1  0  0  0  0
  7  8  1  0  0  0  0
  7 12  1  0  0  0  0
  8  9  1  0  0  0  0
  8 11  1  0  0  0  0
  8 13  1  0  0  0  0
  9 10  2  0  0  0  0
  9 17  1  0  0  0  0
 11 14  1  0  0  0  0
 11 15  1  0  0  0  0
 11 16  1  0  0  0  0
 17 18  1  0  0  0  0
 17 21  1  0  0  0  0
 18 19  1  0  0  0  0
 18 22  1  0  0  0  0
 18 23  1  0  0  0  0
 19 20  2  0  0  0  0
 19 24  1  0  0  0  0
 24 25  1  0  0  0  0
 24 29  1  0  0  0  0
 25 26  1  0  0  0  0
 25 28  1  0  0  0  0
 25 30  1  0  0  0  0
 26 27  2  0  0  0  0
 26 34  1  0  0  0  0
 28 31  1  0  0  0  0
 28 32  1  0  0  0  0
 28 33  1  0  0  0  0
 34 35  1  0  0  0  0
 34 36  1  0  0  0  0
 35 37  1  0  0  0  0
 35 38  1  0  0  0  0
 35 39  1  0  0  0  0
M  END
$$$$

  -OEChem-05262216283D

 39 38  0     1  0  0  0  0  0999 V2000
   -3.6572   -3.4968   -2.6928 C   0  0  0  0  0  0  0  0  0  0  0  0
   -2.8883   -4.0925   -1.9533 O   0  0  0  0  0  0  0  0  0  0  0  0
   -4.9766   -4.1288   -3.0931 C   0  0  0  0  0  0  0  0  0  0  0  0
   -5.0495   -4.1819   -4.1819 H   0  0  0  0  0  0  0  0  0  0  0  0
   -5.0490   -5.1411   -2.6859 H   0  0  0  0  0  0  0  0  0  0  0  0
   -5.8074   -3.5332   -2.7064 H   0  0  0  0  0  0  0  0  0  0  0  0
   -3.3404   -2.2276   -3.1309 N   0  0  0  0  0  0  0  0  0  0  0  0
   -2.2174   -1.4669   -2.5710 C   0  0  2  0  0  0  0  0  0  0  0  0
   -2.6117   -0.7625   -1.2570 C   0  0  0  0  0  0  0  0  0  0  0  0
   -3.5965   -0.0378   -1.2313 O   0  0  0  0  0  0  0  0  0  0  0  0
   -1.7667   -0.4412   -3.6151 C   0  0  0  0  0  0  0  0  0  0  0  0
   -4.0994   -1.6960   -3.5500 H   0  0  0  0  0  0  0  0  0  0  0  0
   -1.3742   -2.1361   -2.3697 H   0  0  0  0  0  0  0  0  0  0  0  0
   -2.5765    0.2597   -3.8448 H   0  0  0  0  0  0  0  0  0  0  0  0
   -0.9126    0.1322   -3.2415 H   0  0  0  0  0  0  0  0  0  0  0  0
   -1.4682   -0.9450   -4.5395 H   0  0  0  0  0  0  0  0  0  0  0  0
   -1.8515   -0.9267   -0.1121 N   0  0  0  0  0  0  0  0  0  0  0  0
   -1.8749   -0.0962    1.1168 C   0  0  0  0  0  0  0  0  0  0  0  0
   -2.2215    1.4083    1.0484 C   0  0  0  0  0  0  0  0  0  0  0  0
   -2.3511    2.0195    2.1007 O   0  0  0  0  0  0  0  0  0  0  0  0
   -1.1228   -1.6335   -0.1784 H   0  0  0  0  0  0  0  0  0  0  0  0
   -0.8887   -0.1610    1.5848 H   0  0  0  0  0  0  0  0  0  0  0  0
   -2.5948   -0.5480    1.8060 H   0  0  0  0  0  0  0  0  0  0  0  0
   -2.2263    2.1199   -0.1356 N   0  0  0  0  0  0  0  0  0  0  0  0
   -2.5859    3.5364   -0.2528 C   0  0  2  0  0  0  0  0  0  0  0  0
   -3.1535    3.8571   -1.6518 C   0  0  0  0  0  0  0  0  0  0  0  0
   -2.8474    3.1711   -2.6224 O   0  0  0  0  0  0  0  0  0  0  0  0
   -1.3395    4.3857    0.0157 C   0  0  0  0  0  0  0  0  0  0  0  0
   -2.4004    1.5519   -0.9677 H   0  0  0  0  0  0  0  0  0  0  0  0
   -3.3584    3.7791    0.4845 H   0  0  0  0  0  0  0  0  0  0  0  0
   -0.5586    4.1592   -0.7175 H   0  0  0  0  0  0  0  0  0  0  0  0
   -1.5800    5.4511   -0.0483 H   0  0  0  0  0  0  0  0  0  0  0  0
   -0.9474    4.1805    1.0167 H   0  0  0  0  0  0  0  0  0  0  0  0
   -3.9989    4.9375   -1.8259 N   0  0  0  0  0  0  0  0  0  0  0  0
   -4.5988    5.2849   -3.1079 C   0  0  0  0  0  0  0  0  0  0  0  0
   -4.2585    5.4680   -0.9994 H   0  0  0  0  0  0  0  0  0  0  0  0
   -3.8223    5.5291   -3.8404 H   0  0  0  0  0  0  0  0  0  0  0  0
   -5.1948    4.4498   -3.4909 H   0  0  0  0  0  0  0  0  0  0  0  0
   -5.2541    6.1539   -2.9959 H   0  0  0  0  0  0  0  0  0  0  0  0
  1  2  2  0  0  0  0
  1  3  1  0  0  0  0
  1  7  1  0  0  0  0
  3  4  1  0  0  0  0
  3  5  1  0  0  0  0
  3  6  1  0  0  0  0
  7  8  1  0  0  0  0
  7 12  1  0  0  0  0
  8  9  1  0  0  0  0
  8 11  1  0  0  0  0
  8 13  1  0  0  0  0
  9 10  2  0  0  0  0
  9 17  1  0  0  0  0
 11 14  1  0  0  0  0
 11 15  1  0  0  0  0
 11 16  1  0  0  0  0
 17 18  1  0  0  0  0
 17 21  1  0  0  0  0
 18 19  1  0  0  0  0
 18 22  1  0  0  0  0
 18 23  1  0  0  0  0
 19 20  2  0  0  0  0
 19 24  1  0  0  0  0
 24 25  1  0  0  0  0
 24 29  1  0  0  0  0
 25 26  1  0  0  0  0
 25 28  1  0  0  0  0
 25 30  1  0  0  0  0
 26 27  2  0  0  0  0
 26 34  1  0  0  0  0
 28 31  1  0  0  0  0
 28 32  1  0  0  0  0
 28 33  1  0  0  0  0
 34 35  1  0  0  0  0
 34 36  1  0  0  0  0
 35 37  1  0  0  0  0
 35 38  1  0  0  0  0
 35 39  1  0  0  0  0
M  END
$$$$

  -OEChem-05262216283D

 39 38  0     1  0  0  0  0  0999 V2000
   -3.6065   -3.6252   -2.8187 C   0  0  0  0  0  0  0  0  0  0  0  0
   -2.7843   -4.3278   -2.2510 O   0  0  0  0  0  0  0  0  0  0  0  0
   -4.9308   -4.2123   -3.2697 C   0  0  0  0  0  0  0  0  0  0  0  0
   -5.0409   -4.0979   -4.3509 H   0  0  0  0  0  0  0  0  0  0  0  0
   -4.9754   -5.2764   -3.0216 H   0  0  0  0  0  0  0  0  0  0  0  0
   -5.7566   -3.6997   -2.7702 H   0  0  0  0  0  0  0  0  0  0  0  0
   -3.3411   -2.2886   -3.0320 N   0  0  0  0  0  0  0  0  0  0  0  0
   -2.2050   -1.5963   -2.4112 C   0  0  2  0  0  0  0  0  0  0  0  0
   -2.5872   -0.9758   -1.0522 C   0  0  0  0  0  0  0  0  0  0  0  0
   -3.6661   -0.4126   -0.9245 O   0  0  0  0  0  0  0  0  0  0  0  0
   -1.7423   -0.5026   -3.3779 C   0  0  0  0  0  0  0  0  0  0  0  0
   -4.1370   -1.7147   -3.3016 H   0  0  0  0  0  0  0  0  0  0  0  0
   -1.3733   -2.2916   -2.2561 H   0  0  0  0  0  0  0  0  0  0  0  0
   -2.5466    0.2197   -3.5562 H   0  0  0  0  0  0  0  0  0  0  0  0
   -0.8822    0.0339   -2.9655 H   0  0  0  0  0  0  0  0  0  0  0  0
   -1.4491   -0.9412   -4.3369 H   0  0  0  0  0  0  0  0  0  0  0  0
   -1.7138   -1.0140    0.0203 N   0  0  0  0  0  0  0  0  0  0  0  0
   -1.6603   -0.0694    1.1635 C   0  0  0  0  0  0  0  0  0  0  0  0
   -2.0700    1.4141    1.0061 C   0  0  0  0  0  0  0  0  0  0  0  0
   -1.8832    2.1571    1.9601 O   0  0  0  0  0  0  0  0  0  0  0  0
   -0.8795   -1.5732   -0.1385 H   0  0  0  0  0  0  0  0  0  0  0  0
   -0.6356   -0.0651    1.5457 H   0  0  0  0  0  0  0  0  0  0  0  0
   -2.2996   -0.4775    1.9520 H   0  0  0  0  0  0  0  0  0  0  0  0
   -2.5073    1.9713   -0.1796 N   0  0  0  0  0  0  0  0  0  0  0  0
   -2.8869    3.3763   -0.3636 C   0  0  2  0  0  0  0  0  0  0  0  0
   -3.8203    3.5526   -1.5802 C   0  0  0  0  0  0  0  0  0  0  0  0
   -3.7637    2.7757   -2.5281 O   0  0  0  0  0  0  0  0  0  0  0  0
   -1.6191    4.2165   -0.5571 C   0  0  0  0  0  0  0  0  0  0  0  0
   -2.8943    1.3061   -0.8554 H   0  0  0  0  0  0  0  0  0  0  0  0
   -3.4235    3.7252    0.5248 H   0  0  0  0  0  0  0  0  0  0  0  0
   -1.0643    3.8710   -1.4353 H   0  0  0  0  0  0  0  0  0  0  0  0
   -1.8754    5.2707   -0.6990 H   0  0  0  0  0  0  0  0  0  0  0  0
   -0.9683    4.1369    0.3191 H   0  0  0  0  0  0  0  0  0  0  0  0
   -4.7160    4.6055   -1.6229 N   0  0  0  0  0  0  0  0  0  0  0  0
   -5.6474    4.8185   -2.7239 C   0  0  0  0  0  0  0  0  0  0  0  0
   -4.7651    5.2138   -0.8108 H   0  0  0  0  0  0  0  0  0  0  0  0
   -5.1035    4.9719   -3.6618 H   0  0  0  0  0  0  0  0  0  0  0  0
   -6.3095    3.9539   -2.8381 H   0  0  0  0  0  0  0  0  0  0  0  0
   -6.2634    5.7024   -2.5332 H   0  0  0  0  0  0  0  0  0  0  0  0
  1  2  2  0  0  0  0
  1  3  1  0  0  0  0
  1  7  1  0  0  0  0
  3  4  1  0  0  0  0
  3  5  1  0  0  0  0
  3  6  1  0  0  0  0
  7  8  1  0  0  0  0
  7 12  1  0  0  0  0
  8  9  1  0  0  0  0
  8 11  1  0  0  0  0
  8 13  1  0  0  0  0
  9 10  2  0  0  0  0
  9 17  1  0  0  0  0
 11 14  1  0  0  0  0
 11 15  1  0  0  0  0
 11 16  1  0  0  0  0
 17 18  1  0  0  0  0
 17 21  1  0  0  0  0
 18 19  1  0  0  0  0
 18 22  1  0  0  0  0
 18 23  1  0  0  0  0
 19 20  2  0  0  0  0
 19 24  1  0  0  0  0
 24 25  1  0  0  0  0
 24 29  1  0  0  0  0
 25 26  1  0  0  0  0
 25 28  1  0  0  0  0
 25 30  1  0  0  0  0
 26 27  2  0  0  0  0
 26 34  1  0  0  0  0
 28 31  1  0  0  0  0
 28 32  1  0  0  0  0
 28 33  1  0  0  0  0
 34 35  1  0  0  0  0
 34 36  1  0  0  0  0
 35 37  1  0  0  0  0
 35 38  1  0  0  0  0
 35 39  1  0  0  0  0
M  END
$$$$

  -OEChem-05262216283D

 39 38  0     1  0  0  0  0  0999 V2000
   -3.5041   -3.4471   -2.2361 C   0  0  0  0  0  0  0  0  0  0  0  0
   -2.4360   -3.3621   -1.6493 O   0  0  0  0  0  0  0  0  0  0  0  0
   -4.2187   -4.7809   -2.3433 C   0  0  0  0  0  0  0  0  0  0  0  0
   -4.3722   -5.0406   -3.3936 H   0  0  0  0  0  0  0  0  0  0  0  0
   -3.6220   -5.5668   -1.8712 H   0  0  0  0  0  0  0  0  0  0  0  0
   -5.1885   -4.7274   -1.8424 H   0  0  0  0  0  0  0  0  0  0  0  0
   -4.0801   -2.3042   -2.7524 N   0  0  0  0  0  0  0  0  0  0  0  0
   -3.4487   -0.9752   -2.7173 C   0  0  2  0  0  0  0  0  0  0  0  0
   -3.5450   -0.2973   -1.3273 C   0  0  0  0  0  0  0  0  0  0  0  0
   -4.2419    0.6925   -1.1481 O   0  0  0  0  0  0  0  0  0  0  0  0
   -4.0844   -0.1368   -3.8336 C   0  0  0  0  0  0  0  0  0  0  0  0
   -4.9959   -2.3966   -3.1830 H   0  0  0  0  0  0  0  0  0  0  0  0
   -2.3821   -1.0751   -2.9482 H   0  0  0  0  0  0  0  0  0  0  0  0
   -5.1530    0.0109   -3.6465 H   0  0  0  0  0  0  0  0  0  0  0  0
   -3.6020    0.8439   -3.8893 H   0  0  0  0  0  0  0  0  0  0  0  0
   -3.9636   -0.6335   -4.8013 H   0  0  0  0  0  0  0  0  0  0  0  0
   -2.9731   -0.9155   -0.2352 N   0  0  0  0  0  0  0  0  0  0  0  0
   -2.3395   -0.2694    0.9349 C   0  0  0  0  0  0  0  0  0  0  0  0
   -1.6176    1.0984    0.8460 C   0  0  0  0  0  0  0  0  0  0  0  0
   -0.6116    1.2403    1.5205 O   0  0  0  0  0  0  0  0  0  0  0  0
   -2.5611   -1.8185   -0.4932 H   0  0  0  0  0  0  0  0  0  0  0  0
   -1.6116   -0.9794    1.3401 H   0  0  0  0  0  0  0  0  0  0  0  0
   -3.1197   -0.1452    1.6908 H   0  0  0  0  0  0  0  0  0  0  0  0
   -1.6770    2.0350   -0.1580 N   0  0  0  0  0  0  0  0  0  0  0  0
   -2.7215    3.0680   -0.0907 C   0  0  2  0  0  0  0  0  0  0  0  0
   -2.9727    3.7160   -1.4712 C   0  0  0  0  0  0  0  0  0  0  0  0
   -2.2238    4.5827   -1.9074 O   0  0  0  0  0  0  0  0  0  0  0  0
   -2.3004    4.1246    0.9421 C   0  0  0  0  0  0  0  0  0  0  0  0
   -0.7536    2.4481   -0.2727 H   0  0  0  0  0  0  0  0  0  0  0  0
   -3.6657    2.6342    0.2511 H   0  0  0  0  0  0  0  0  0  0  0  0
   -1.3351    4.5657    0.6720 H   0  0  0  0  0  0  0  0  0  0  0  0
   -3.0453    4.9251    0.9905 H   0  0  0  0  0  0  0  0  0  0  0  0
   -2.2105    3.6776    1.9369 H   0  0  0  0  0  0  0  0  0  0  0  0
   -4.0577    3.3218   -2.2277 N   0  0  0  0  0  0  0  0  0  0  0  0
   -4.3092    3.8063   -3.5779 C   0  0  0  0  0  0  0  0  0  0  0  0
   -4.5156    2.4616   -1.9156 H   0  0  0  0  0  0  0  0  0  0  0  0
   -4.3895    4.8985   -3.5839 H   0  0  0  0  0  0  0  0  0  0  0  0
   -3.4965    3.5091   -4.2485 H   0  0  0  0  0  0  0  0  0  0  0  0
   -5.2463    3.3904   -3.9592 H   0  0  0  0  0  0  0  0  0  0  0  0
  1  2  2  0  0  0  0
  1  3  1  0  0  0  0
  1  7  1  0  0  0  0
  3  4  1  0  0  0  0
  3  5  1  0  0  0  0
  3  6  1  0  0  0  0
  7  8  1  0  0  0  0
  7 12  1  0  0  0  0
  8  9  1  0  0  0  0
  8 11  1  0  0  0  0
  8 13  1  0  0  0  0
  9 10  2  0  0  0  0
  9 17  1  0  0  0  0
 11 14  1  0  0  0  0
 11 15  1  0  0  0  0
 11 16  1  0  0  0  0
 17 18  1  0  0  0  0
 17 21  1  0  0  0  0
 18 19  1  0  0  0  0
 18 22  1  0  0  0  0
 18 23  1  0  0  0  0
 19 20  2  0  0  0  0
 19 24  1  0  0  0  0
 24 25  1  0  0  0  0
 24 29  1  0  0  0  0
 25 26  1  0  0  0  0
 25 28  1  0  0  0  0
 25 30  1  0  0  0  0
 26 27  2  0  0  0  0
 26 34  1  0  0  0  0
 28 31  1  0  0  0  0
 28 32  1  0  0  0  0
 28 33  1  0  0  0  0
 34 35  1  0  0  0  0
 34 36  1  0  0  0  0
 35 37  1  0  0  0  0
 35 38  1  0  0  0  0
 35 39  1  0  0  0  0
M  END
$$$$

  -OEChem-05262216283D

 39 38  0     1  0  0  0  0  0999 V2000
   -4.5475   -3.3777   -2.6395 C   0  0  0  0  0  0  0  0  0  0  0  0
   -4.0228   -3.6240   -3.7138 O   0  0  0  0  0  0  0  0  0  0  0  0
   -5.6305   -4.2898   -2.0950 C   0  0  0  0  0  0  0  0  0  0  0  0
   -6.5405   -3.7161   -1.9035 H   0  0  0  0  0  0  0  0  0  0  0  0
   -5.8571   -5.0783   -2.8182 H   0  0  0  0  0  0  0  0  0  0  0  0
   -5.2956   -4.7517   -1.1630 H   0  0  0  0  0  0  0  0  0  0  0  0
   -4.1510   -2.2751   -1.9131 N   0  0  0  0  0  0  0  0  0  0  0  0
   -3.0016   -1.4276   -2.2577 C   0  0  2  0  0  0  0  0  0  0  0  0
   -2.3941   -0.7586   -1.0042 C   0  0  0  0  0  0  0  0  0  0  0  0
   -2.9920   -0.8258    0.0625 O   0  0  0  0  0  0  0  0  0  0  0  0
   -3.4539   -0.3788   -3.2764 C   0  0  0  0  0  0  0  0  0  0  0  0
   -4.5073   -2.1912   -0.9615 H   0  0  0  0  0  0  0  0  0  0  0  0
   -2.2165   -2.0454   -2.7070 H   0  0  0  0  0  0  0  0  0  0  0  0
   -4.2780    0.2150   -2.8712 H   0  0  0  0  0  0  0  0  0  0  0  0
   -2.6277    0.2923   -3.5309 H   0  0  0  0  0  0  0  0  0  0  0  0
   -3.7962   -0.8646   -4.1955 H   0  0  0  0  0  0  0  0  0  0  0  0
   -1.0827   -0.3282   -1.0241 N   0  0  0  0  0  0  0  0  0  0  0  0
   -0.4244    0.6069   -0.0836 C   0  0  0  0  0  0  0  0  0  0  0  0
   -1.1207    1.7716    0.6689 C   0  0  0  0  0  0  0  0  0  0  0  0
   -0.3916    2.4870    1.3382 O   0  0  0  0  0  0  0  0  0  0  0  0
   -0.6727   -0.3489   -1.9537 H   0  0  0  0  0  0  0  0  0  0  0  0
    0.3962    1.0752   -0.6343 H   0  0  0  0  0  0  0  0  0  0  0  0
    0.0236   -0.0123    0.6991 H   0  0  0  0  0  0  0  0  0  0  0  0
   -2.4124    1.9354    1.1144 N   0  0  0  0  0  0  0  0  0  0  0  0
   -3.5926    2.1626    0.2534 C   0  0  2  0  0  0  0  0  0  0  0  0
   -3.3900    2.5587   -1.2397 C   0  0  0  0  0  0  0  0  0  0  0  0
   -2.3140    2.4694   -1.8179 O   0  0  0  0  0  0  0  0  0  0  0  0
   -4.3781    3.2707    0.9700 C   0  0  0  0  0  0  0  0  0  0  0  0
   -2.3781    2.5427    1.9277 H   0  0  0  0  0  0  0  0  0  0  0  0
   -4.2103    1.2622    0.2609 H   0  0  0  0  0  0  0  0  0  0  0  0
   -3.8210    4.2134    0.9422 H   0  0  0  0  0  0  0  0  0  0  0  0
   -5.3532    3.4279    0.5001 H   0  0  0  0  0  0  0  0  0  0  0  0
   -4.5517    2.9994    2.0165 H   0  0  0  0  0  0  0  0  0  0  0  0
   -4.4819    2.9463   -1.9985 N   0  0  0  0  0  0  0  0  0  0  0  0
   -4.3925    3.3590   -3.3955 C   0  0  0  0  0  0  0  0  0  0  0  0
   -5.3761    3.0242   -1.5238 H   0  0  0  0  0  0  0  0  0  0  0  0
   -3.7281    4.2234   -3.4977 H   0  0  0  0  0  0  0  0  0  0  0  0
   -4.0064    2.5436   -4.0156 H   0  0  0  0  0  0  0  0  0  0  0  0
   -5.3818    3.6374   -3.7710 H   0  0  0  0  0  0  0  0  0  0  0  0
  1  2  2  0  0  0  0
  1  3  1  0  0  0  0
  1  7  1  0  0  0  0
  3  4  1  0  0  0  0
  3  5  1  0  0  0  0
  3  6  1  0  0  0  0
  7  8  1  0  0  0  0
  7 12  1  0  0  0  0
  8  9  1  0  0  0  0
  8 11  1  0  0  0  0
  8 13  1  0  0  0  0
  9 10  2  0  0  0  0
  9 17  1  0  0  0  0
 11 14  1  0  0  0  0
 11 15  1  0  0  0  0
 11 16  1  0  0  0  0
 17 18  1  0  0  0  0
 17 21  1  0  0  0  0
 18 19  1  0  0  0  0
 18 22  1  0  0  0  0
 18 23  1  0  0  0  0
 19 20  2  0  0  0  0
 19 24  1  0  0  0  0
 24 25  1  0  0  0  0
 24 29  1  0  0  0  0
 25 26  1  0  0  0  0
 25 28  1  0  0  0  0
 25 30  1  0  0  0  0
 26 27  2  0  0  0  0
 26 34  1  0  0  0  0
 28 31  1  0  0  0  0
 28 32  1  0  0  0  0
 28 33  1  0  0  0  0
 34 35  1  0  0  0  0
 34 36  1  0  0  0  0
 35 37  1  0  0  0  0
 35 38  1  0  0  0  0
 35 39  1  0  0  0  0
M  END
$$$$

  -OEChem-05262216283D

 39 38  0     1  0  0  0  0  0999 V2000
   -4.5056   -2.8146   -2.4815 C   0  0  0  0  0  0  0  0  0  0  0  0
   -3.9836   -3.6807   -3.1674 O   0  0  0  0  0  0  0  0  0  0  0  0
   -5.9674   -2.9224   -2.0929 C   0  0  0  0  0  0  0  0  0  0  0  0
   -6.5257   -2.0794   -2.5071 H   0  0  0  0  0  0  0  0  0  0  0  0
   -6.3935   -3.8537   -2.4753 H   0  0  0  0  0  0  0  0  0  0  0  0
   -6.0635   -2.9096   -1.0045 H   0  0  0  0  0  0  0  0  0  0  0  0
   -3.7715   -1.7253   -2.0667 N   0  0  0  0  0  0  0  0  0  0  0  0
   -2.3240   -1.5681   -2.2757 C   0  0  2  0  0  0  0  0  0  0  0  0
   -1.6446   -0.8570   -1.0819 C   0  0  0  0  0  0  0  0  0  0  0  0
   -1.8873   -1.2127    0.0631 O   0  0  0  0  0  0  0  0  0  0  0  0
   -2.1296   -0.8276   -3.6062 C   0  0  0  0  0  0  0  0  0  0  0  0
   -4.2660   -1.0490   -1.4760 H   0  0  0  0  0  0  0  0  0  0  0  0
   -1.8527   -2.5542   -2.3542 H   0  0  0  0  0  0  0  0  0  0  0  0
   -2.5577    0.1784   -3.5533 H   0  0  0  0  0  0  0  0  0  0  0  0
   -1.0672   -0.7508   -3.8560 H   0  0  0  0  0  0  0  0  0  0  0  0
   -2.6272   -1.3730   -4.4149 H   0  0  0  0  0  0  0  0  0  0  0  0
   -0.7548    0.1894   -1.2675 N   0  0  0  0  0  0  0  0  0  0  0  0
   -0.6397    1.4062   -0.4246 C   0  0  0  0  0  0  0  0  0  0  0  0
   -1.8900    1.9650    0.2957 C   0  0  0  0  0  0  0  0  0  0  0  0
   -2.2195    3.1111    0.0178 O   0  0  0  0  0  0  0  0  0  0  0  0
   -0.5364    0.3406   -2.2487 H   0  0  0  0  0  0  0  0  0  0  0  0
   -0.2338    2.2120   -1.0441 H   0  0  0  0  0  0  0  0  0  0  0  0
    0.1004    1.2001    0.3541 H   0  0  0  0  0  0  0  0  0  0  0  0
   -2.7814    1.1617    0.9840 N   0  0  0  0  0  0  0  0  0  0  0  0
   -4.2340    1.3802    1.0857 C   0  0  2  0  0  0  0  0  0  0  0  0
   -4.9004    1.3676   -0.3077 C   0  0  0  0  0  0  0  0  0  0  0  0
   -5.3748    0.3229   -0.7425 O   0  0  0  0  0  0  0  0  0  0  0  0
   -4.5824    2.6345    1.9024 C   0  0  0  0  0  0  0  0  0  0  0  0
   -2.4816    0.1824    1.0329 H   0  0  0  0  0  0  0  0  0  0  0  0
   -4.6488    0.5280    1.6342 H   0  0  0  0  0  0  0  0  0  0  0  0
   -4.2899    3.5516    1.3844 H   0  0  0  0  0  0  0  0  0  0  0  0
   -5.6610    2.6755    2.0814 H   0  0  0  0  0  0  0  0  0  0  0  0
   -4.0718    2.6065    2.8696 H   0  0  0  0  0  0  0  0  0  0  0  0
   -4.7912    2.4571   -1.1493 N   0  0  0  0  0  0  0  0  0  0  0  0
   -5.1737    2.4261   -2.5547 C   0  0  0  0  0  0  0  0  0  0  0  0
   -4.1275    3.1718   -0.8396 H   0  0  0  0  0  0  0  0  0  0  0  0
   -4.5556    1.7095   -3.1048 H   0  0  0  0  0  0  0  0  0  0  0  0
   -6.2252    2.1390   -2.6603 H   0  0  0  0  0  0  0  0  0  0  0  0
   -5.0418    3.4160   -3.0024 H   0  0  0  0  0  0  0  0  0  0  0  0
  1  2  2  0  0  0  0
  1  3  1  0  0  0  0
  1  7  1  0  0  0  0
  3  4  1  0  0  0  0
  3  5  1  0  0  0  0
  3  6  1  0  0  0  0
  7  8  1  0  0  0  0
  7 12  1  0  0  0  0
  8  9  1  0  0  0  0
  8 11  1  0  0  0  0
  8 13  1  0  0  0  0
  9 10  2  0  0  0  0
  9 17  1  0  0  0  0
 11 14  1  0  0  0  0
 11 15  1  0  0  0  0
 11 16  1  0  0  0  0
 17 18  1  0  0  0  0
 17 21  1  0  0  0  0
 18 19  1  0  0  0  0
 18 22  1  0  0  0  0
 18 23  1  0  0  0  0
 19 20  2  0  0  0  0
 19 24  1  0  0  0  0
 24 25  1  0  0  0  0
 24 29  1  0  0  0  0
 25 26  1  0  0  0  0
 25 28  1  0  0  0  0
 25 30  1  0  0  0  0
 26 27  2  0  0  0  0
 26 34  1  0  0  0  0
 28 31  1  0  0  0  0
 28 32  1  0  0  0  0
 28 33  1  0  0  0  0
 34 35  1  0  0  0  0
 34 36  1  0  0  0  0
 35 37  1  0  0  0  0
 35 38  1  0  0  0  0
 35 39  1  0  0  0  0
M  END
$$$$

  -OEChem-05262216283D

 39 38  0     1  0  0  0  0  0999 V2000
   -4.6696   -2.6544   -2.4468 C   0  0  0  0  0  0  0  0  0  0  0  0
   -4.2278   -3.3774   -3.3271 O   0  0  0  0  0  0  0  0  0  0  0  0
   -6.0965   -2.8215   -1.9603 C   0  0  0  0  0  0  0  0  0  0  0  0
   -6.5782   -3.6567   -2.4758 H   0  0  0  0  0  0  0  0  0  0  0  0
   -6.1020   -3.0180   -0.8852 H   0  0  0  0  0  0  0  0  0  0  0  0
   -6.6644   -1.9082   -2.1547 H   0  0  0  0  0  0  0  0  0  0  0  0
   -3.8775   -1.6691   -1.9009 N   0  0  0  0  0  0  0  0  0  0  0  0
   -2.4455   -1.4953   -2.1896 C   0  0  2  0  0  0  0  0  0  0  0  0
   -1.6945   -0.8764   -0.9875 C   0  0  0  0  0  0  0  0  0  0  0  0
   -1.9444   -1.2500    0.1508 O   0  0  0  0  0  0  0  0  0  0  0  0
   -2.3167   -0.6486   -3.4643 C   0  0  0  0  0  0  0  0  0  0  0  0
   -4.2886   -1.1552   -1.1147 H   0  0  0  0  0  0  0  0  0  0  0  0
   -1.9904   -2.4750   -2.3728 H   0  0  0  0  0  0  0  0  0  0  0  0
   -2.7047    0.3612   -3.2981 H   0  0  0  0  0  0  0  0  0  0  0  0
   -1.2711   -0.5804   -3.7783 H   0  0  0  0  0  0  0  0  0  0  0  0
   -2.8832   -1.1066   -4.2816 H   0  0  0  0  0  0  0  0  0  0  0  0
   -0.7399    0.1166   -1.1459 N   0  0  0  0  0  0  0  0  0  0  0  0
   -0.6077    1.3056   -0.2687 C   0  0  0  0  0  0  0  0  0  0  0  0
   -1.8838    1.8666    0.3978 C   0  0  0  0  0  0  0  0  0  0  0  0
   -2.3074    2.9404   -0.0107 O   0  0  0  0  0  0  0  0  0  0  0  0
   -0.5210    0.2925   -2.1230 H   0  0  0  0  0  0  0  0  0  0  0  0
   -0.1538    2.1162   -0.8469 H   0  0  0  0  0  0  0  0  0  0  0  0
    0.0913    1.0580    0.5357 H   0  0  0  0  0  0  0  0  0  0  0  0
   -2.6561    1.1069    1.2583 N   0  0  0  0  0  0  0  0  0  0  0  0
   -4.1044    1.2714    1.4741 C   0  0  2  0  0  0  0  0  0  0  0  0
   -4.9102    1.0700    0.1703 C   0  0  0  0  0  0  0  0  0  0  0  0
   -5.4353   -0.0137   -0.0613 O   0  0  0  0  0  0  0  0  0  0  0  0
   -4.4410    2.5961    2.1750 C   0  0  0  0  0  0  0  0  0  0  0  0
   -2.3173    0.1416    1.3336 H   0  0  0  0  0  0  0  0  0  0  0  0
   -4.4179    0.4722    2.1539 H   0  0  0  0  0  0  0  0  0  0  0  0
   -4.2464    3.4578    1.5310 H   0  0  0  0  0  0  0  0  0  0  0  0
   -5.4992    2.6125    2.4532 H   0  0  0  0  0  0  0  0  0  0  0  0
   -3.8421    2.7022    3.0845 H   0  0  0  0  0  0  0  0  0  0  0  0
   -4.9078    2.0309   -0.8213 N   0  0  0  0  0  0  0  0  0  0  0  0
   -5.4853    1.8284   -2.1437 C   0  0  0  0  0  0  0  0  0  0  0  0
   -4.2340    2.7898   -0.6875 H   0  0  0  0  0  0  0  0  0  0  0  0
   -4.9996    0.9903   -2.6531 H   0  0  0  0  0  0  0  0  0  0  0  0
   -6.5570    1.6191   -2.0640 H   0  0  0  0  0  0  0  0  0  0  0  0
   -5.3549    2.7278   -2.7532 H   0  0  0  0  0  0  0  0  0  0  0  0
  1  2  2  0  0  0  0
  1  3  1  0  0  0  0
  1  7  1  0  0  0  0
  3  4  1  0  0  0  0
  3  5  1  0  0  0  0
  3  6  1  0  0  0  0
  7  8  1  0  0  0  0
  7 12  1  0  0  0  0
  8  9  1  0  0  0  0
  8 11  1  0  0  0  0
  8 13  1  0  0  0  0
  9 10  2  0  0  0  0
  9 17  1  0  0  0  0
 11 14  1  0  0  0  0
 11 15  1  0  0  0  0
 11 16  1  0  0  0  0
 17 18  1  0  0  0  0
 17 21  1  0  0  0  0
 18 19  1  0  0  0  0
 18 22  1  0  0  0  0
 18 23  1  0  0  0  0
 19 20  2  0  0  0  0
 19 24  1  0  0  0  0
 24 25  1  0  0  0  0
 24 29  1  0  0  0  0
 25 26  1  0  0  0  0
 25 28  1  0  0  0  0
 25 30  1  0  0  0  0
 26 27  2  0  0  0  0
 26 34  1  0  0  0  0
 28 31  1  0  0  0  0
 28 32  1  0  0  0  0
 28 33  1  0  0  0  0
 34 35  1  0  0  0  0
 34 36  1  0  0  0  0
 35 37  1  0  0  0  0
 35 38  1  0  0  0  0
 35 39  1  0  0  0  0
M  END
$$$$

  -OEChem-05262216283D

 39 38  0     1  0  0  0  0  0999 V2000
   -4.7922   -2.6080   -2.2490 C   0  0  0  0  0  0  0  0  0  0  0  0
   -4.4474   -3.2023   -3.2595 O   0  0  0  0  0  0  0  0  0  0  0  0
   -6.1516   -2.8718   -1.6304 C   0  0  0  0  0  0  0  0  0  0  0  0
   -6.7073   -3.5967   -2.2308 H   0  0  0  0  0  0  0  0  0  0  0  0
   -6.0286   -3.2685   -0.6197 H   0  0  0  0  0  0  0  0  0  0  0  0
   -6.7236   -1.9422   -1.5776 H   0  0  0  0  0  0  0  0  0  0  0  0
   -3.9512   -1.6819   -1.6736 N   0  0  0  0  0  0  0  0  0  0  0  0
   -2.5651   -1.4346   -2.0998 C   0  0  2  0  0  0  0  0  0  0  0  0
   -1.6986   -0.9253   -0.9254 C   0  0  0  0  0  0  0  0  0  0  0  0
   -1.9237   -1.3009    0.2189 O   0  0  0  0  0  0  0  0  0  0  0  0
   -2.5936   -0.4411   -3.2709 C   0  0  0  0  0  0  0  0  0  0  0  0
   -4.2670   -1.2821   -0.7829 H   0  0  0  0  0  0  0  0  0  0  0  0
   -2.1162   -2.3732   -2.4430 H   0  0  0  0  0  0  0  0  0  0  0  0
   -2.9605    0.5350   -2.9384 H   0  0  0  0  0  0  0  0  0  0  0  0
   -1.5942   -0.3162   -3.6974 H   0  0  0  0  0  0  0  0  0  0  0  0
   -3.2537   -0.8078   -4.0637 H   0  0  0  0  0  0  0  0  0  0  0  0
   -0.6783   -0.0026   -1.0975 N   0  0  0  0  0  0  0  0  0  0  0  0
   -0.5146    1.1639   -0.1992 C   0  0  0  0  0  0  0  0  0  0  0  0
   -1.8069    1.7312    0.4238 C   0  0  0  0  0  0  0  0  0  0  0  0
   -2.3117    2.7174   -0.0978 O   0  0  0  0  0  0  0  0  0  0  0  0
   -0.4886    0.1920   -2.0771 H   0  0  0  0  0  0  0  0  0  0  0  0
   -0.0253    1.9728   -0.7504 H   0  0  0  0  0  0  0  0  0  0  0  0
    0.1532    0.8822    0.6202 H   0  0  0  0  0  0  0  0  0  0  0  0
   -2.4516    1.0772    1.4590 N   0  0  0  0  0  0  0  0  0  0  0  0
   -3.8775    1.2465    1.7921 C   0  0  2  0  0  0  0  0  0  0  0  0
   -4.8115    0.9213    0.6007 C   0  0  0  0  0  0  0  0  0  0  0  0
   -5.2982   -0.1989    0.4900 O   0  0  0  0  0  0  0  0  0  0  0  0
   -4.1550    2.6320    2.3956 C   0  0  0  0  0  0  0  0  0  0  0  0
   -2.0940    0.1249    1.5849 H   0  0  0  0  0  0  0  0  0  0  0  0
   -4.1142    0.5140    2.5708 H   0  0  0  0  0  0  0  0  0  0  0  0
   -4.0006    3.4308    1.6653 H   0  0  0  0  0  0  0  0  0  0  0  0
   -5.1901    2.6866    2.7464 H   0  0  0  0  0  0  0  0  0  0  0  0
   -3.4911    2.8107    3.2469 H   0  0  0  0  0  0  0  0  0  0  0  0
   -5.0125    1.8343   -0.4160 N   0  0  0  0  0  0  0  0  0  0  0  0
   -5.7729    1.5450   -1.6252 C   0  0  0  0  0  0  0  0  0  0  0  0
   -4.3492    2.6132   -0.4291 H   0  0  0  0  0  0  0  0  0  0  0  0
   -5.2703    0.7810   -2.2254 H   0  0  0  0  0  0  0  0  0  0  0  0
   -6.7766    1.1884   -1.3708 H   0  0  0  0  0  0  0  0  0  0  0  0
   -5.8747    2.4508   -2.2306 H   0  0  0  0  0  0  0  0  0  0  0  0
  1  2  2  0  0  0  0
  1  3  1  0  0  0  0
  1  7  1  0  0  0  0
  3  4  1  0  0  0  0
  3  5  1  0  0  0  0
  3  6  1  0  0  0  0
  7  8  1  0  0  0  0
  7 12  1  0  0  0  0
  8  9  1  0  0  0  0
  8 11  1  0  0  0  0
  8 13  1  0  0  0  0
  9 10  2  0  0  0  0
  9 17  1  0  0  0  0
 11 14  1  0  0  0  0
 11 15  1  0  0  0  0
 11 16  1  0  0  0  0
 17 18  1  0  0  0  0
 17 21  1  0  0  0  0
 18 19  1  0  0  0  0
 18 22  1  0  0  0  0
 18 23  1  0  0  0  0
 19 20  2  0  0  0  0
 19 24  1  0  0  0  0
 24 25  1  0  0  0  0
 24 29  1  0  0  0  0
 25 26  1  0  0  0  0
 25 28  1  0  0  0  0
 25 30  1  0  0  0  0
 26 27  2  0  0  0  0
 26 34  1  0  0  0  0
 28 31  1  0  0  0  0
 28 32  1  0  0  0  0
 28 33  1  0  0  0  0
 34 35  1  0  0  0  0
 34 36  1  0  0  0  0
 35 37  1  0  0  0  0
 35 38  1  0  0  0  0
 35 39  1  0  0  0  0
M  END
$$$$

  -OEChem-05262216283D

 39 38  0     1  0  0  0  0  0999 V2000
   -1.9980   -3.4641   -3.2369 C   0  0  0  0  0  0  0  0  0  0  0  0
   -1.0678   -3.2960   -2.4623 O   0  0  0  0  0  0  0  0  0  0  0  0
   -2.2885   -4.8425   -3.8005 C   0  0  0  0  0  0  0  0  0  0  0  0
   -2.3173   -4.8020   -4.8923 H   0  0  0  0  0  0  0  0  0  0  0  0
   -1.5086   -5.5463   -3.4958 H   0  0  0  0  0  0  0  0  0  0  0  0
   -3.2517   -5.2027   -3.4306 H   0  0  0  0  0  0  0  0  0  0  0  0
   -2.8124   -2.3971   -3.5578 N   0  0  0  0  0  0  0  0  0  0  0  0
   -2.5944   -1.0209   -3.0828 C   0  0  2  0  0  0  0  0  0  0  0  0
   -3.0441   -0.8117   -1.6151 C   0  0  0  0  0  0  0  0  0  0  0  0
   -3.9470   -0.0353   -1.3304 O   0  0  0  0  0  0  0  0  0  0  0  0
   -3.3074   -0.0810   -4.0638 C   0  0  0  0  0  0  0  0  0  0  0  0
   -3.6186   -2.5847   -4.1474 H   0  0  0  0  0  0  0  0  0  0  0  0
   -1.5242   -0.7891   -3.1222 H   0  0  0  0  0  0  0  0  0  0  0  0
   -4.3866   -0.2659   -4.0602 H   0  0  0  0  0  0  0  0  0  0  0  0
   -3.1351    0.9626   -3.7809 H   0  0  0  0  0  0  0  0  0  0  0  0
   -2.9285   -0.2290   -5.0796 H   0  0  0  0  0  0  0  0  0  0  0  0
   -2.4592   -1.5708   -0.6172 N   0  0  0  0  0  0  0  0  0  0  0  0
   -2.4792   -1.2726    0.8291 C   0  0  0  0  0  0  0  0  0  0  0  0
   -2.5366    0.2099    1.2426 C   0  0  0  0  0  0  0  0  0  0  0  0
   -1.4986    0.7978    1.5205 O   0  0  0  0  0  0  0  0  0  0  0  0
   -1.7283   -2.2045   -0.9560 H   0  0  0  0  0  0  0  0  0  0  0  0
   -1.5811   -1.7011    1.2839 H   0  0  0  0  0  0  0  0  0  0  0  0
   -3.3403   -1.7769    1.2762 H   0  0  0  0  0  0  0  0  0  0  0  0
   -3.7470    0.8478    1.4245 N   0  0  0  0  0  0  0  0  0  0  0  0
   -3.8919    2.2692    1.7592 C   0  0  2  0  0  0  0  0  0  0  0  0
   -5.2748    2.5895    2.3657 C   0  0  0  0  0  0  0  0  0  0  0  0
   -6.2248    1.8316    2.2040 O   0  0  0  0  0  0  0  0  0  0  0  0
   -3.6731    3.0906    0.4832 C   0  0  0  0  0  0  0  0  0  0  0  0
   -4.5528    0.3959    0.9901 H   0  0  0  0  0  0  0  0  0  0  0  0
   -3.1362    2.5444    2.5021 H   0  0  0  0  0  0  0  0  0  0  0  0
   -4.4025    2.8054   -0.2821 H   0  0  0  0  0  0  0  0  0  0  0  0
   -3.7820    4.1595    0.6886 H   0  0  0  0  0  0  0  0  0  0  0  0
   -2.6681    2.9177    0.0856 H   0  0  0  0  0  0  0  0  0  0  0  0
   -5.4582    3.7466    3.1015 N   0  0  0  0  0  0  0  0  0  0  0  0
   -6.7303    4.1142    3.7124 C   0  0  0  0  0  0  0  0  0  0  0  0
   -4.6537    4.3529    3.2309 H   0  0  0  0  0  0  0  0  0  0  0  0
   -7.4973    4.2551    2.9438 H   0  0  0  0  0  0  0  0  0  0  0  0
   -7.0645    3.3332    4.4036 H   0  0  0  0  0  0  0  0  0  0  0  0
   -6.6256    5.0485    4.2721 H   0  0  0  0  0  0  0  0  0  0  0  0
  1  2  2  0  0  0  0
  1  3  1  0  0  0  0
  1  7  1  0  0  0  0
  3  4  1  0  0  0  0
  3  5  1  0  0  0  0
  3  6  1  0  0  0  0
  7  8  1  0  0  0  0
  7 12  1  0  0  0  0
  8  9  1  0  0  0  0
  8 11  1  0  0  0  0
  8 13  1  0  0  0  0
  9 10  2  0  0  0  0
  9 17  1  0  0  0  0
 11 14  1  0  0  0  0
 11 15  1  0  0  0  0
 11 16  1  0  0  0  0
 17 18  1  0  0  0  0
 17 21  1  0  0  0  0
 18 19  1  0  0  0  0
 18 22  1  0  0  0  0
 18 23  1  0  0  0  0
 19 20  2  0  0  0  0
 19 24  1  0  0  0  0
 24 25  1  0  0  0  0
 24 29  1  0  0  0  0
 25 26  1  0  0  0  0
 25 28  1  0  0  0  0
 25 30  1  0  0  0  0
 26 27  2  0  0  0  0
 26 34  1  0  0  0  0
 28 31  1  0  0  0  0
 28 32  1  0  0  0  0
 28 33  1  0  0  0  0
 34 35  1  0  0  0  0
 34 36  1  0  0  0  0
 35 37  1  0  0  0  0
 35 38  1  0  0  0  0
 35 39  1  0  0  0  0
M  END
$$$$

  -OEChem-05262216283D

 39 38  0     1  0  0  0  0  0999 V2000
   -3.2359   -3.3920   -3.4763 C   0  0  0  0  0  0  0  0  0  0  0  0
   -2.2589   -4.0939   -3.2655 O   0  0  0  0  0  0  0  0  0  0  0  0
   -4.5714   -4.0289   -3.8111 C   0  0  0  0  0  0  0  0  0  0  0  0
   -4.9048   -3.6972   -4.7973 H   0  0  0  0  0  0  0  0  0  0  0  0
   -4.4794   -5.1187   -3.8175 H   0  0  0  0  0  0  0  0  0  0  0  0
   -5.3184   -3.7432   -3.0661 H   0  0  0  0  0  0  0  0  0  0  0  0
   -3.1402   -2.0188   -3.3831 N   0  0  0  0  0  0  0  0  0  0  0  0
   -1.9831   -1.3408   -2.7826 C   0  0  2  0  0  0  0  0  0  0  0  0
   -2.2276   -1.0083   -1.2964 C   0  0  0  0  0  0  0  0  0  0  0  0
   -3.3497   -0.6829   -0.9247 O   0  0  0  0  0  0  0  0  0  0  0  0
   -1.7247   -0.0589   -3.5766 C   0  0  0  0  0  0  0  0  0  0  0  0
   -4.0269   -1.5218   -3.3409 H   0  0  0  0  0  0  0  0  0  0  0  0
   -1.0904   -1.9712   -2.8519 H   0  0  0  0  0  0  0  0  0  0  0  0
   -2.5934    0.6055   -3.5268 H   0  0  0  0  0  0  0  0  0  0  0  0
   -0.8588    0.4729   -3.1702 H   0  0  0  0  0  0  0  0  0  0  0  0
   -1.5252   -0.2960   -4.6263 H   0  0  0  0  0  0  0  0  0  0  0  0
   -1.1954   -1.1066   -0.3780 N   0  0  0  0  0  0  0  0  0  0  0  0
   -1.1717   -0.4285    0.9339 C   0  0  0  0  0  0  0  0  0  0  0  0
   -1.9157    0.9159    1.0238 C   0  0  0  0  0  0  0  0  0  0  0  0
   -1.3810    1.9237    0.5781 O   0  0  0  0  0  0  0  0  0  0  0  0
   -0.2979   -1.3794   -0.7693 H   0  0  0  0  0  0  0  0  0  0  0  0
   -0.1323   -0.2441    1.2206 H   0  0  0  0  0  0  0  0  0  0  0  0
   -1.5990   -1.1030    1.6813 H   0  0  0  0  0  0  0  0  0  0  0  0
   -3.1366    1.0131    1.6609 N   0  0  0  0  0  0  0  0  0  0  0  0
   -3.9357    2.2401    1.7523 C   0  0  2  0  0  0  0  0  0  0  0  0
   -4.9337    2.1912    2.9285 C   0  0  0  0  0  0  0  0  0  0  0  0
   -5.2246    1.1237    3.4572 O   0  0  0  0  0  0  0  0  0  0  0  0
   -4.6852    2.4327    0.4290 C   0  0  0  0  0  0  0  0  0  0  0  0
   -3.5941    0.1425    1.9275 H   0  0  0  0  0  0  0  0  0  0  0  0
   -3.2711    3.0940    1.9191 H   0  0  0  0  0  0  0  0  0  0  0  0
   -5.3466    1.5813    0.2378 H   0  0  0  0  0  0  0  0  0  0  0  0
   -5.2888    3.3448    0.4568 H   0  0  0  0  0  0  0  0  0  0  0  0
   -3.9773    2.5134   -0.4019 H   0  0  0  0  0  0  0  0  0  0  0  0
   -5.5067    3.3568    3.4040 N   0  0  0  0  0  0  0  0  0  0  0  0
   -6.4415    3.3900    4.5222 C   0  0  0  0  0  0  0  0  0  0  0  0
   -5.2375    4.2291    2.9586 H   0  0  0  0  0  0  0  0  0  0  0  0
   -7.3384    2.8069    4.2882 H   0  0  0  0  0  0  0  0  0  0  0  0
   -5.9766    2.9759    5.4231 H   0  0  0  0  0  0  0  0  0  0  0  0
   -6.7441    4.4201    4.7325 H   0  0  0  0  0  0  0  0  0  0  0  0
  1  2  2  0  0  0  0
  1  3  1  0  0  0  0
  1  7  1  0  0  0  0
  3  4  1  0  0  0  0
  3  5  1  0  0  0  0
  3  6  1  0  0  0  0
  7  8  1  0  0  0  0
  7 12  1  0  0  0  0
  8  9  1  0  0  0  0
  8 11  1  0  0  0  0
  8 13  1  0  0  0  0
  9 10  2  0  0  0  0
  9 17  1  0  0  0  0
 11 14  1  0  0  0  0
 11 15  1  0  0  0  0
 11 16  1  0  0  0  0
 17 18  1  0  0  0  0
 17 21  1  0  0  0  0
 18 19  1  0  0  0  0
 18 22  1  0  0  0  0
 18 23  1  0  0  0  0
 19 20  2  0  0  0  0
 19 24  1  0  0  0  0
 24 25  1  0  0  0  0
 24 29  1  0  0  0  0
 25 26  1  0  0  0  0
 25 28  1  0  0  0  0
 25 30  1  0  0  0  0
 26 27  2  0  0  0  0
 26 34  1  0  0  0  0
 28 31  1  0  0  0  0
 28 32  1  0  0  0  0
 28 33  1  0  0  0  0
 34 35  1  0  0  0  0
 34 36  1  0  0  0  0
 35 37  1  0  0  0  0
 35 38  1  0  0  0  0
 35 39  1  0  0  0  0
M  END
$$$$

  -OEChem-05262216283D

 39 38  0     1  0  0  0  0  0999 V2000
   -3.4229   -3.2861   -3.5576 C   0  0  0  0  0  0  0  0  0  0  0  0
   -2.4455   -4.0176   -3.5319 O   0  0  0  0  0  0  0  0  0  0  0  0
   -4.7937   -3.8624   -3.8581 C   0  0  0  0  0  0  0  0  0  0  0  0
   -5.2163   -3.3784   -4.7418 H   0  0  0  0  0  0  0  0  0  0  0  0
   -4.7183   -4.9370   -4.0466 H   0  0  0  0  0  0  0  0  0  0  0  0
   -5.4611   -3.7001   -3.0080 H   0  0  0  0  0  0  0  0  0  0  0  0
   -3.2945   -1.9381   -3.2941 N   0  0  0  0  0  0  0  0  0  0  0  0
   -2.0803   -1.3437   -2.7170 C   0  0  2  0  0  0  0  0  0  0  0  0
   -2.2361   -1.0747   -1.2061 C   0  0  0  0  0  0  0  0  0  0  0  0
   -3.3465   -0.8440   -0.7382 O   0  0  0  0  0  0  0  0  0  0  0  0
   -1.8040   -0.0344   -3.4582 C   0  0  0  0  0  0  0  0  0  0  0  0
   -4.1656   -1.4451   -3.1113 H   0  0  0  0  0  0  0  0  0  0  0  0
   -1.2210   -2.0076   -2.8574 H   0  0  0  0  0  0  0  0  0  0  0  0
   -2.6376    0.6634   -3.3279 H   0  0  0  0  0  0  0  0  0  0  0  0
   -0.8947    0.4383   -3.0740 H   0  0  0  0  0  0  0  0  0  0  0  0
   -1.6704   -0.2253   -4.5274 H   0  0  0  0  0  0  0  0  0  0  0  0
   -1.1320   -1.1165   -0.3696 N   0  0  0  0  0  0  0  0  0  0  0  0
   -1.0541   -0.3914    0.9144 C   0  0  0  0  0  0  0  0  0  0  0  0
   -1.8491    0.9245    0.9935 C   0  0  0  0  0  0  0  0  0  0  0  0
   -1.5375    1.8571    0.2620 O   0  0  0  0  0  0  0  0  0  0  0  0
   -0.2510   -1.2956   -0.8429 H   0  0  0  0  0  0  0  0  0  0  0  0
   -0.0086   -0.1552    1.1315 H   0  0  0  0  0  0  0  0  0  0  0  0
   -1.4104   -1.0541    1.7079 H   0  0  0  0  0  0  0  0  0  0  0  0
   -2.8514    1.0928    1.9279 N   0  0  0  0  0  0  0  0  0  0  0  0
   -3.7058    2.2807    2.0320 C   0  0  2  0  0  0  0  0  0  0  0  0
   -4.3744    2.3830    3.4194 C   0  0  0  0  0  0  0  0  0  0  0  0
   -4.3859    1.4178    4.1762 O   0  0  0  0  0  0  0  0  0  0  0  0
   -4.7712    2.2099    0.9314 C   0  0  0  0  0  0  0  0  0  0  0  0
   -3.1118    0.2868    2.4942 H   0  0  0  0  0  0  0  0  0  0  0  0
   -3.0961    3.1792    1.8911 H   0  0  0  0  0  0  0  0  0  0  0  0
   -5.3847    1.3112    1.0518 H   0  0  0  0  0  0  0  0  0  0  0  0
   -5.4237    3.0868    0.9694 H   0  0  0  0  0  0  0  0  0  0  0  0
   -4.2990    2.1752   -0.0556 H   0  0  0  0  0  0  0  0  0  0  0  0
   -4.9605    3.5670    3.8284 N   0  0  0  0  0  0  0  0  0  0  0  0
   -5.5989    3.7363    5.1283 C   0  0  0  0  0  0  0  0  0  0  0  0
   -4.9376    4.3511    3.1830 H   0  0  0  0  0  0  0  0  0  0  0  0
   -6.4560    3.0615    5.2244 H   0  0  0  0  0  0  0  0  0  0  0  0
   -4.8900    3.5221    5.9353 H   0  0  0  0  0  0  0  0  0  0  0  0
   -5.9529    4.7649    5.2449 H   0  0  0  0  0  0  0  0  0  0  0  0
  1  2  2  0  0  0  0
  1  3  1  0  0  0  0
  1  7  1  0  0  0  0
  3  4  1  0  0  0  0
  3  5  1  0  0  0  0
  3  6  1  0  0  0  0
  7  8  1  0  0  0  0
  7 12  1  0  0  0  0
  8  9  1  0  0  0  0
  8 11  1  0  0  0  0
  8 13  1  0  0  0  0
  9 10  2  0  0  0  0
  9 17  1  0  0  0  0
 11 14  1  0  0  0  0
 11 15  1  0  0  0  0
 11 16  1  0  0  0  0
 17 18  1  0  0  0  0
 17 21  1  0  0  0  0
 18 19  1  0  0  0  0
 18 22  1  0  0  0  0
 18 23  1  0  0  0  0
 19 20  2  0  0  0  0
 19 24  1  0  0  0  0
 24 25  1  0  0  0  0
 24 29  1  0  0  0  0
 25 26  1  0  0  0  0
 25 28  1  0  0  0  0
 25 30  1  0  0  0  0
 26 27  2  0  0  0  0
 26 34  1  0  0  0  0
 28 31  1  0  0  0  0
 28 32  1  0  0  0  0
 28 33  1  0  0  0  0
 34 35  1  0  0  0  0
 34 36  1  0  0  0  0
 35 37  1  0  0  0  0
 35 38  1  0  0  0  0
 35 39  1  0  0  0  0
M  END
$$$$

  -OEChem-05262216283D

 39 38  0     1  0  0  0  0  0999 V2000
   -3.4729   -3.2092   -3.6990 C   0  0  0  0  0  0  0  0  0  0  0  0
   -2.4735   -3.8960   -3.8429 O   0  0  0  0  0  0  0  0  0  0  0  0
   -4.8406   -3.7857   -4.0136 C   0  0  0  0  0  0  0  0  0  0  0  0
   -5.2738   -3.2682   -4.8731 H   0  0  0  0  0  0  0  0  0  0  0  0
   -4.7571   -4.8510   -4.2466 H   0  0  0  0  0  0  0  0  0  0  0  0
   -5.5030   -3.6658   -3.1527 H   0  0  0  0  0  0  0  0  0  0  0  0
   -3.3727   -1.9121   -3.2406 N   0  0  0  0  0  0  0  0  0  0  0  0
   -2.1478   -1.3512   -2.6528 C   0  0  2  0  0  0  0  0  0  0  0  0
   -2.2652   -1.1886   -1.1234 C   0  0  0  0  0  0  0  0  0  0  0  0
   -3.3690   -1.0924   -0.5954 O   0  0  0  0  0  0  0  0  0  0  0  0
   -1.8994    0.0107   -3.3047 C   0  0  0  0  0  0  0  0  0  0  0  0
   -4.2472   -1.4852   -2.9425 H   0  0  0  0  0  0  0  0  0  0  0  0
   -1.2882   -1.9976   -2.8576 H   0  0  0  0  0  0  0  0  0  0  0  0
   -2.7330    0.6909   -3.1018 H   0  0  0  0  0  0  0  0  0  0  0  0
   -0.9835    0.4620   -2.9110 H   0  0  0  0  0  0  0  0  0  0  0  0
   -1.7939   -0.1000   -4.3882 H   0  0  0  0  0  0  0  0  0  0  0  0
   -1.1279   -1.1605   -0.3321 N   0  0  0  0  0  0  0  0  0  0  0  0
   -1.0601   -0.3937    0.9288 C   0  0  0  0  0  0  0  0  0  0  0  0
   -1.9249    0.8801    0.9921 C   0  0  0  0  0  0  0  0  0  0  0  0
   -1.8370    1.7113    0.0948 O   0  0  0  0  0  0  0  0  0  0  0  0
   -0.2614   -1.2268   -0.8584 H   0  0  0  0  0  0  0  0  0  0  0  0
   -0.0245   -0.0987    1.1181 H   0  0  0  0  0  0  0  0  0  0  0  0
   -1.3675   -1.0528    1.7458 H   0  0  0  0  0  0  0  0  0  0  0  0
   -2.6891    1.1636    2.1068 N   0  0  0  0  0  0  0  0  0  0  0  0
   -3.5243    2.3600    2.2658 C   0  0  2  0  0  0  0  0  0  0  0  0
   -3.7805    2.6893    3.7519 C   0  0  0  0  0  0  0  0  0  0  0  0
   -3.5425    1.8579    4.6216 O   0  0  0  0  0  0  0  0  0  0  0  0
   -4.8490    2.1223    1.5324 C   0  0  0  0  0  0  0  0  0  0  0  0
   -2.7147    0.4762    2.8584 H   0  0  0  0  0  0  0  0  0  0  0  0
   -3.0150    3.2219    1.8223 H   0  0  0  0  0  0  0  0  0  0  0  0
   -5.3728    1.2612    1.9594 H   0  0  0  0  0  0  0  0  0  0  0  0
   -5.4970    3.0000    1.6116 H   0  0  0  0  0  0  0  0  0  0  0  0
   -4.6661    1.9246    0.4712 H   0  0  0  0  0  0  0  0  0  0  0  0
   -4.2716    3.9295    4.1178 N   0  0  0  0  0  0  0  0  0  0  0  0
   -4.5360    4.3123    5.4998 C   0  0  0  0  0  0  0  0  0  0  0  0
   -4.4542    4.6002    3.3771 H   0  0  0  0  0  0  0  0  0  0  0  0
   -5.3205    3.6803    5.9289 H   0  0  0  0  0  0  0  0  0  0  0  0
   -3.6303    4.2105    6.1069 H   0  0  0  0  0  0  0  0  0  0  0  0
   -4.8665    5.3545    5.5474 H   0  0  0  0  0  0  0  0  0  0  0  0
  1  2  2  0  0  0  0
  1  3  1  0  0  0  0
  1  7  1  0  0  0  0
  3  4  1  0  0  0  0
  3  5  1  0  0  0  0
  3  6  1  0  0  0  0
  7  8  1  0  0  0  0
  7 12  1  0  0  0  0
  8  9  1  0  0  0  0
  8 11  1  0  0  0  0
  8 13  1  0  0  0  0
  9 10  2  0  0  0  0
  9 17  1  0  0  0  0
 11 14  1  0  0  0  0
 11 15  1  0  0  0  0
 11 16  1  0  0  0  0
 17 18  1  0  0  0  0
 17 21  1  0  0  0  0
 18 19  1  0  0  0  0
 18 22  1  0  0  0  0
 18 23  1  0  0  0  0
 19 20  2  0  0  0  0
 19 24  1  0  0  0  0
 24 25  1  0  0  0  0
 24 29  1  0  0  0  0
 25 26  1  0  0  0  0
 25 28  1  0  0  0  0
 25 30  1  0  0  0  0
 26 27  2  0  0  0  0
 26 34  1  0  0  0  0
 28 31  1  0  0  0  0
 28 32  1  0  0  0  0
 28 33  1  0  0  0  0
 34 35  1  0  0  0  0
 34 36  1  0  0  0  0
 35 37  1  0  0  0  0
 35 38  1  0  0  0  0
 35 39  1  0  0  0  0
M  END
$$$$

  -OEChem-05262216283D

 39 38  0     1  0  0  0  0  0999 V2000
   -3.5574   -3.1838   -3.6711 C   0  0  0  0  0  0  0  0  0  0  0  0
   -2.5670   -3.8857   -3.8047 O   0  0  0  0  0  0  0  0  0  0  0  0
   -4.9324   -3.7506   -3.9711 C   0  0  0  0  0  0  0  0  0  0  0  0
   -5.3868   -3.2069   -4.8030 H   0  0  0  0  0  0  0  0  0  0  0  0
   -4.8543   -4.8078   -4.2402 H   0  0  0  0  0  0  0  0  0  0  0  0
   -5.5732   -3.6588   -3.0908 H   0  0  0  0  0  0  0  0  0  0  0  0
   -3.4398   -1.8819   -3.2305 N   0  0  0  0  0  0  0  0  0  0  0  0
   -2.2120   -1.3427   -2.6282 C   0  0  2  0  0  0  0  0  0  0  0  0
   -2.3353   -1.2126   -1.0964 C   0  0  0  0  0  0  0  0  0  0  0  0
   -3.4408   -1.1320   -0.5688 O   0  0  0  0  0  0  0  0  0  0  0  0
   -1.9474    0.0311   -3.2484 C   0  0  0  0  0  0  0  0  0  0  0  0
   -4.3091   -1.4433   -2.9340 H   0  0  0  0  0  0  0  0  0  0  0  0
   -1.3571   -1.9913   -2.8445 H   0  0  0  0  0  0  0  0  0  0  0  0
   -2.7723    0.7166   -3.0283 H   0  0  0  0  0  0  0  0  0  0  0  0
   -1.0260    0.4625   -2.8450 H   0  0  0  0  0  0  0  0  0  0  0  0
   -1.8436   -0.0554   -4.3344 H   0  0  0  0  0  0  0  0  0  0  0  0
   -1.2035   -1.2123   -0.2971 N   0  0  0  0  0  0  0  0  0  0  0  0
   -1.1340   -0.4425    0.9616 C   0  0  0  0  0  0  0  0  0  0  0  0
   -1.9659    0.8547    1.0238 C   0  0  0  0  0  0  0  0  0  0  0  0
   -1.9950    1.6086    0.0565 O   0  0  0  0  0  0  0  0  0  0  0  0
   -0.3360   -1.2836   -0.8209 H   0  0  0  0  0  0  0  0  0  0  0  0
   -0.0931   -0.1752    1.1617 H   0  0  0  0  0  0  0  0  0  0  0  0
   -1.4682   -1.0934    1.7746 H   0  0  0  0  0  0  0  0  0  0  0  0
   -2.4746    1.2992    2.2282 N   0  0  0  0  0  0  0  0  0  0  0  0
   -3.1866    2.5680    2.4217 C   0  0  2  0  0  0  0  0  0  0  0  0
   -3.1655    3.0129    3.8993 C   0  0  0  0  0  0  0  0  0  0  0  0
   -2.7795    2.2419    4.7718 O   0  0  0  0  0  0  0  0  0  0  0  0
   -4.6301    2.3941    1.9355 C   0  0  0  0  0  0  0  0  0  0  0  0
   -2.3559    0.7067    3.0487 H   0  0  0  0  0  0  0  0  0  0  0  0
   -2.6984    3.3530    1.8347 H   0  0  0  0  0  0  0  0  0  0  0  0
   -5.1397    1.6211    2.5196 H   0  0  0  0  0  0  0  0  0  0  0  0
   -5.1865    3.3306    2.0351 H   0  0  0  0  0  0  0  0  0  0  0  0
   -4.6442    2.0977    0.8817 H   0  0  0  0  0  0  0  0  0  0  0  0
   -3.5704    4.2869    4.2532 N   0  0  0  0  0  0  0  0  0  0  0  0
   -3.5698    4.7738    5.6274 C   0  0  0  0  0  0  0  0  0  0  0  0
   -3.8822    4.9056    3.5101 H   0  0  0  0  0  0  0  0  0  0  0  0
   -4.2402    4.1695    6.2478 H   0  0  0  0  0  0  0  0  0  0  0  0
   -2.5604    4.7263    6.0498 H   0  0  0  0  0  0  0  0  0  0  0  0
   -3.9094    5.8136    5.6623 H   0  0  0  0  0  0  0  0  0  0  0  0
  1  2  2  0  0  0  0
  1  3  1  0  0  0  0
  1  7  1  0  0  0  0
  3  4  1  0  0  0  0
  3  5  1  0  0  0  0
  3  6  1  0  0  0  0
  7  8  1  0  0  0  0
  7 12  1  0  0  0  0
  8  9  1  0  0  0  0
  8 11  1  0  0  0  0
  8 13  1  0  0  0  0
  9 10  2  0  0  0  0
  9 17  1  0  0  0  0
 11 14  1  0  0  0  0
 11 15  1  0  0  0  0
 11 16  1  0  0  0  0
 17 18  1  0  0  0  0
 17 21  1  0  0  0  0
 18 19  1  0  0  0  0
 18 22  1  0  0  0  0
 18 23  1  0  0  0  0
 19 20  2  0  0  0  0
 19 24  1  0  0  0  0
 24 25  1  0  0  0  0
 24 29  1  0  0  0  0
 25 26  1  0  0  0  0
 25 28  1  0  0  0  0
 25 30  1  0  0  0  0
 26 27  2  0  0  0  0
 26 34  1  0  0  0  0
 28 31  1  0  0  0  0
 28 32  1  0  0  0  0
 28 33  1  0  0  0  0
 34 35  1  0  0  0  0
 34 36  1  0  0  0  0
 35 37  1  0  0  0  0
 35 38  1  0  0  0  0
 35 39  1  0  0  0  0
M  END
$$$$

  -OEChem-05262216283D

 39 38  0     1  0  0  0  0  0999 V2000
   -3.4792   -3.1781   -3.7998 C   0  0  0  0  0  0  0  0  0  0  0  0
   -2.4401   -3.7928   -3.9837 O   0  0  0  0  0  0  0  0  0  0  0  0
   -4.8037   -3.7863   -4.2201 C   0  0  0  0  0  0  0  0  0  0  0  0
   -5.2687   -3.1680   -4.9917 H   0  0  0  0  0  0  0  0  0  0  0  0
   -4.6475   -4.7923   -4.6196 H   0  0  0  0  0  0  0  0  0  0  0  0
   -5.4747   -3.8497   -3.3598 H   0  0  0  0  0  0  0  0  0  0  0  0
   -3.4629   -1.9377   -3.1975 N   0  0  0  0  0  0  0  0  0  0  0  0
   -2.2919   -1.3809   -2.5064 C   0  0  2  0  0  0  0  0  0  0  0  0
   -2.5334   -1.2624   -0.9881 C   0  0  0  0  0  0  0  0  0  0  0  0
   -3.6755   -1.1673   -0.5481 O   0  0  0  0  0  0  0  0  0  0  0  0
   -2.0109    0.0005   -3.1001 C   0  0  0  0  0  0  0  0  0  0  0  0
   -4.3677   -1.5821   -2.8943 H   0  0  0  0  0  0  0  0  0  0  0  0
   -1.4116   -2.0134   -2.6591 H   0  0  0  0  0  0  0  0  0  0  0  0
   -2.8651    0.6668   -2.9402 H   0  0  0  0  0  0  0  0  0  0  0  0
   -1.1317    0.4486   -2.6273 H   0  0  0  0  0  0  0  0  0  0  0  0
   -1.8246   -0.0792   -4.1754 H   0  0  0  0  0  0  0  0  0  0  0  0
   -1.4768   -1.3214   -0.0943 N   0  0  0  0  0  0  0  0  0  0  0  0
   -1.4689   -0.5339    1.1565 C   0  0  0  0  0  0  0  0  0  0  0  0
   -2.2109    0.8205    1.1525 C   0  0  0  0  0  0  0  0  0  0  0  0
   -2.2587    1.4986    0.1312 O   0  0  0  0  0  0  0  0  0  0  0  0
   -0.5739   -1.4351   -0.5458 H   0  0  0  0  0  0  0  0  0  0  0  0
   -0.4330   -0.3382    1.4465 H   0  0  0  0  0  0  0  0  0  0  0  0
   -1.9186   -1.1498    1.9408 H   0  0  0  0  0  0  0  0  0  0  0  0
   -2.5028    1.4375    2.3537 N   0  0  0  0  0  0  0  0  0  0  0  0
   -2.9372    2.8326    2.5011 C   0  0  2  0  0  0  0  0  0  0  0  0
   -2.5676    3.3917    3.8914 C   0  0  0  0  0  0  0  0  0  0  0  0
   -2.1656    2.6377    4.7717 O   0  0  0  0  0  0  0  0  0  0  0  0
   -4.4513    2.8982    2.2724 C   0  0  0  0  0  0  0  0  0  0  0  0
   -2.2972    0.9304    3.2139 H   0  0  0  0  0  0  0  0  0  0  0  0
   -2.4321    3.4554    1.7552 H   0  0  0  0  0  0  0  0  0  0  0  0
   -4.9769    2.2865    3.0126 H   0  0  0  0  0  0  0  0  0  0  0  0
   -4.8092    3.9288    2.3530 H   0  0  0  0  0  0  0  0  0  0  0  0
   -4.7009    2.5255    1.2736 H   0  0  0  0  0  0  0  0  0  0  0  0
   -2.6543    4.7474    4.1501 N   0  0  0  0  0  0  0  0  0  0  0  0
   -2.2750    5.3459    5.4245 C   0  0  0  0  0  0  0  0  0  0  0  0
   -2.9702    5.3510    3.3966 H   0  0  0  0  0  0  0  0  0  0  0  0
   -1.2197    5.1483    5.6413 H   0  0  0  0  0  0  0  0  0  0  0  0
   -2.4240    6.4296    5.3930 H   0  0  0  0  0  0  0  0  0  0  0  0
   -2.8843    4.9370    6.2375 H   0  0  0  0  0  0  0  0  0  0  0  0
  1  2  2  0  0  0  0
  1  3  1  0  0  0  0
  1  7  1  0  0  0  0
  3  4  1  0  0  0  0
  3  5  1  0  0  0  0
  3  6  1  0  0  0  0
  7  8  1  0  0  0  0
  7 12  1  0  0  0  0
  8  9  1  0  0  0  0
  8 11  1  0  0  0  0
  8 13  1  0  0  0  0
  9 10  2  0  0  0  0
  9 17  1  0  0  0  0
 11 14  1  0  0  0  0
 11 15  1  0  0  0  0
 11 16  1  0  0  0  0
 17 18  1  0  0  0  0
 17 21  1  0  0  0  0
 18 19  1  0  0  0  0
 18 22  1  0  0  0  0
 18 23  1  0  0  0  0
 19 20  2  0  0  0  0
 19 24  1  0  0  0  0
 24 25  1  0  0  0  0
 24 29  1  0  0  0  0
 25 26  1  0  0  0  0
 25 28  1  0  0  0  0
 25 30  1  0  0  0  0
 26 27  2  0  0  0  0
 26 34  1  0  0  0  0
 28 31  1  0  0  0  0
 28 32  1  0  0  0  0
 28 33  1  0  0  0  0
 34 35  1  0  0  0  0
 34 36  1  0  0  0  0
 35 37  1  0  0  0  0
 35 38  1  0  0  0  0
 35 39  1  0  0  0  0
M  END
$$$$

  -OEChem-05262216283D

 39 38  0     1  0  0  0  0  0999 V2000
   -3.3217   -3.1956   -3.8051 C   0  0  0  0  0  0  0  0  0  0  0  0
   -2.2673   -3.8045   -3.7060 O   0  0  0  0  0  0  0  0  0  0  0  0
   -4.5222   -3.8605   -4.4522 C   0  0  0  0  0  0  0  0  0  0  0  0
   -4.8722   -3.2608   -5.2957 H   0  0  0  0  0  0  0  0  0  0  0  0
   -4.2518   -4.8557   -4.8160 H   0  0  0  0  0  0  0  0  0  0  0  0
   -5.3306   -3.9593   -3.7236 H   0  0  0  0  0  0  0  0  0  0  0  0
   -3.4371   -1.9132   -3.3103 N   0  0  0  0  0  0  0  0  0  0  0  0
   -2.4356   -1.2960   -2.4302 C   0  0  2  0  0  0  0  0  0  0  0  0
   -2.8869   -1.3088   -0.9561 C   0  0  0  0  0  0  0  0  0  0  0  0
   -4.0731   -1.1828   -0.6719 O   0  0  0  0  0  0  0  0  0  0  0  0
   -2.2240    0.1451   -2.8974 C   0  0  0  0  0  0  0  0  0  0  0  0
   -4.3867   -1.5562   -3.2273 H   0  0  0  0  0  0  0  0  0  0  0  0
   -1.4797   -1.8245   -2.5003 H   0  0  0  0  0  0  0  0  0  0  0  0
   -3.1569    0.7139   -2.8219 H   0  0  0  0  0  0  0  0  0  0  0  0
   -1.4692    0.6399   -2.2779 H   0  0  0  0  0  0  0  0  0  0  0  0
   -1.8862    0.1616   -3.9382 H   0  0  0  0  0  0  0  0  0  0  0  0
   -1.9940   -1.5926    0.0627 N   0  0  0  0  0  0  0  0  0  0  0  0
   -1.9500   -0.8343    1.3332 C   0  0  0  0  0  0  0  0  0  0  0  0
   -2.6541    0.5381    1.4573 C   0  0  0  0  0  0  0  0  0  0  0  0
   -2.8714    1.2413    0.4775 O   0  0  0  0  0  0  0  0  0  0  0  0
   -1.0854   -1.8807   -0.2887 H   0  0  0  0  0  0  0  0  0  0  0  0
   -0.9009   -0.6721    1.5945 H   0  0  0  0  0  0  0  0  0  0  0  0
   -2.3842   -1.4763    2.1046 H   0  0  0  0  0  0  0  0  0  0  0  0
   -2.5786    1.1898    2.6748 N   0  0  0  0  0  0  0  0  0  0  0  0
   -2.8255    2.6221    2.8912 C   0  0  2  0  0  0  0  0  0  0  0  0
   -2.1036    3.1281    4.1588 C   0  0  0  0  0  0  0  0  0  0  0  0
   -1.5785    2.3285    4.9274 O   0  0  0  0  0  0  0  0  0  0  0  0
   -4.3375    2.8465    3.0033 C   0  0  0  0  0  0  0  0  0  0  0  0
   -2.1957    0.6737    3.4664 H   0  0  0  0  0  0  0  0  0  0  0  0
   -2.4368    3.1952    2.0426 H   0  0  0  0  0  0  0  0  0  0  0  0
   -4.7440    2.2952    3.8570 H   0  0  0  0  0  0  0  0  0  0  0  0
   -4.5605    3.9092    3.1346 H   0  0  0  0  0  0  0  0  0  0  0  0
   -4.8416    2.5006    2.0951 H   0  0  0  0  0  0  0  0  0  0  0  0
   -2.0211    4.4813    4.4319 N   0  0  0  0  0  0  0  0  0  0  0  0
   -1.3493    5.0211    5.6085 C   0  0  0  0  0  0  0  0  0  0  0  0
   -2.4536    5.1227    3.7731 H   0  0  0  0  0  0  0  0  0  0  0  0
   -0.2881    4.7504    5.6026 H   0  0  0  0  0  0  0  0  0  0  0  0
   -1.4275    6.1125    5.6220 H   0  0  0  0  0  0  0  0  0  0  0  0
   -1.8067    4.6314    6.5243 H   0  0  0  0  0  0  0  0  0  0  0  0
  1  2  2  0  0  0  0
  1  3  1  0  0  0  0
  1  7  1  0  0  0  0
  3  4  1  0  0  0  0
  3  5  1  0  0  0  0
  3  6  1  0  0  0  0
  7  8  1  0  0  0  0
  7 12  1  0  0  0  0
  8  9  1  0  0  0  0
  8 11  1  0  0  0  0
  8 13  1  0  0  0  0
  9 10  2  0  0  0  0
  9 17  1  0  0  0  0
 11 14  1  0  0  0  0
 11 15  1  0  0  0  0
 11 16  1  0  0  0  0
 17 18  1  0  0  0  0
 17 21  1  0  0  0  0
 18 19  1  0  0  0  0
 18 22  1  0  0  0  0
 18 23  1  0  0  0  0
 19 20  2  0  0  0  0
 19 24  1  0  0  0  0
 24 25  1  0  0  0  0
 24 29  1  0  0  0  0
 25 26  1  0  0  0  0
 25 28  1  0  0  0  0
 25 30  1  0  0  0  0
 26 27  2  0  0  0  0
 26 34  1  0  0  0  0
 28 31  1  0  0  0  0
 28 32  1  0  0  0  0
 28 33  1  0  0  0  0
 34 35  1  0  0  0  0
 34 36  1  0  0  0  0
 35 37  1  0  0  0  0
 35 38  1  0  0  0  0
 35 39  1  0  0  0  0
M  END
$$$$

  -OEChem-05262216283D

 39 38  0     1  0  0  0  0  0999 V2000
   -3.1860   -3.2040   -3.6537 C   0  0  0  0  0  0  0  0  0  0  0  0
   -2.1403   -3.7896   -3.4167 O   0  0  0  0  0  0  0  0  0  0  0  0
   -4.3207   -3.9295   -4.3516 C   0  0  0  0  0  0  0  0  0  0  0  0
   -4.6193   -3.3815   -5.2484 H   0  0  0  0  0  0  0  0  0  0  0  0
   -4.0036   -4.9348   -4.6426 H   0  0  0  0  0  0  0  0  0  0  0  0
   -5.1790   -4.0111   -3.6800 H   0  0  0  0  0  0  0  0  0  0  0  0
   -3.3539   -1.8915   -3.2648 N   0  0  0  0  0  0  0  0  0  0  0  0
   -2.4459   -1.2162   -2.3284 C   0  0  2  0  0  0  0  0  0  0  0  0
   -2.9982   -1.2408   -0.8891 C   0  0  0  0  0  0  0  0  0  0  0  0
   -4.2051   -1.1602   -0.6917 O   0  0  0  0  0  0  0  0  0  0  0  0
   -2.2728    0.2292   -2.7980 C   0  0  0  0  0  0  0  0  0  0  0  0
   -4.3124   -1.5497   -3.2814 H   0  0  0  0  0  0  0  0  0  0  0  0
   -1.4620   -1.6960   -2.3300 H   0  0  0  0  0  0  0  0  0  0  0  0
   -3.2354    0.7510   -2.7947 H   0  0  0  0  0  0  0  0  0  0  0  0
   -1.5887    0.7662   -2.1337 H   0  0  0  0  0  0  0  0  0  0  0  0
   -1.8639    0.2533   -3.8126 H   0  0  0  0  0  0  0  0  0  0  0  0
   -2.1782   -1.5213    0.1893 N   0  0  0  0  0  0  0  0  0  0  0  0
   -2.1718   -0.7287    1.4406 C   0  0  0  0  0  0  0  0  0  0  0  0
   -2.8181    0.6778    1.5183 C   0  0  0  0  0  0  0  0  0  0  0  0
   -3.2414    1.2777    0.5393 O   0  0  0  0  0  0  0  0  0  0  0  0
   -1.2604   -1.8421   -0.1048 H   0  0  0  0  0  0  0  0  0  0  0  0
   -1.1295   -0.6097    1.7494 H   0  0  0  0  0  0  0  0  0  0  0  0
   -2.6704   -1.3333    2.2036 H   0  0  0  0  0  0  0  0  0  0  0  0
   -2.4964    1.4605    2.6124 N   0  0  0  0  0  0  0  0  0  0  0  0
   -2.7032    2.9122    2.7126 C   0  0  2  0  0  0  0  0  0  0  0  0
   -1.7208    3.5466    3.7196 C   0  0  0  0  0  0  0  0  0  0  0  0
   -1.0328    2.8313    4.4411 O   0  0  0  0  0  0  0  0  0  0  0  0
   -4.1537    3.1714    3.1338 C   0  0  0  0  0  0  0  0  0  0  0  0
   -1.9513    1.0312    3.3595 H   0  0  0  0  0  0  0  0  0  0  0  0
   -2.5192    3.3803    1.7396 H   0  0  0  0  0  0  0  0  0  0  0  0
   -4.3555    2.7171    4.1090 H   0  0  0  0  0  0  0  0  0  0  0  0
   -4.3496    4.2455    3.2016 H   0  0  0  0  0  0  0  0  0  0  0  0
   -4.8445    2.7427    2.4005 H   0  0  0  0  0  0  0  0  0  0  0  0
   -1.5895    4.9204    3.8043 N   0  0  0  0  0  0  0  0  0  0  0  0
   -0.6689    5.5813    4.7215 C   0  0  0  0  0  0  0  0  0  0  0  0
   -2.1629    5.4879    3.1866 H   0  0  0  0  0  0  0  0  0  0  0  0
   -0.9233    5.3407    5.7591 H   0  0  0  0  0  0  0  0  0  0  0  0
    0.3606    5.2619    4.5279 H   0  0  0  0  0  0  0  0  0  0  0  0
   -0.7223    6.6669    4.5951 H   0  0  0  0  0  0  0  0  0  0  0  0
  1  2  2  0  0  0  0
  1  3  1  0  0  0  0
  1  7  1  0  0  0  0
  3  4  1  0  0  0  0
  3  5  1  0  0  0  0
  3  6  1  0  0  0  0
  7  8  1  0  0  0  0
  7 12  1  0  0  0  0
  8  9  1  0  0  0  0
  8 11  1  0  0  0  0
  8 13  1  0  0  0  0
  9 10  2  0  0  0  0
  9 17  1  0  0  0  0
 11 14  1  0  0  0  0
 11 15  1  0  0  0  0
 11 16  1  0  0  0  0
 17 18  1  0  0  0  0
 17 21  1  0  0  0  0
 18 19  1  0  0  0  0
 18 22  1  0  0  0  0
 18 23  1  0  0  0  0
 19 20  2  0  0  0  0
 19 24  1  0  0  0  0
 24 25  1  0  0  0  0
 24 29  1  0  0  0  0
 25 26  1  0  0  0  0
 25 28  1  0  0  0  0
 25 30  1  0  0  0  0
 26 27  2  0  0  0  0
 26 34  1  0  0  0  0
 28 31  1  0  0  0  0
 28 32  1  0  0  0  0
 28 33  1  0  0  0  0
 34 35  1  0  0  0  0
 34 36  1  0  0  0  0
 35 37  1  0  0  0  0
 35 38  1  0  0  0  0
 35 39  1  0  0  0  0
M  END
$$$$

  -OEChem-05262216283D

 39 38  0     1  0  0  0  0  0999 V2000
   -3.6089   -2.5865   -2.1425 C   0  0  0  0  0  0  0  0  0  0  0  0
   -2.8373   -3.3053   -1.5229 O   0  0  0  0  0  0  0  0  0  0  0  0
   -5.1059   -2.8074   -2.0455 C   0  0  0  0  0  0  0  0  0  0  0  0
   -5.5239   -2.9790   -3.0406 H   0  0  0  0  0  0  0  0  0  0  0  0
   -5.3182   -3.6785   -1.4190 H   0  0  0  0  0  0  0  0  0  0  0  0
   -5.5845   -1.9297   -1.6035 H   0  0  0  0  0  0  0  0  0  0  0  0
   -3.1138   -1.5240   -2.8693 N   0  0  0  0  0  0  0  0  0  0  0  0
   -1.6903   -1.1559   -2.9134 C   0  0  2  0  0  0  0  0  0  0  0  0
   -1.2406   -0.4480   -1.6129 C   0  0  0  0  0  0  0  0  0  0  0  0
   -0.7151    0.6574   -1.6292 O   0  0  0  0  0  0  0  0  0  0  0  0
   -1.4759   -0.2972   -4.1666 C   0  0  0  0  0  0  0  0  0  0  0  0
   -3.7918   -0.8521   -3.2198 H   0  0  0  0  0  0  0  0  0  0  0  0
   -1.0806   -2.0594   -3.0203 H   0  0  0  0  0  0  0  0  0  0  0  0
   -2.0418    0.6377   -4.0960 H   0  0  0  0  0  0  0  0  0  0  0  0
   -0.4151   -0.0505   -4.2785 H   0  0  0  0  0  0  0  0  0  0  0  0
   -1.7998   -0.8376   -5.0611 H   0  0  0  0  0  0  0  0  0  0  0  0
   -1.2885   -1.1345   -0.4130 N   0  0  0  0  0  0  0  0  0  0  0  0
   -1.9642   -0.6052    0.7913 C   0  0  0  0  0  0  0  0  0  0  0  0
   -2.3618    0.8829    0.8669 C   0  0  0  0  0  0  0  0  0  0  0  0
   -3.0642    1.3699   -0.0127 O   0  0  0  0  0  0  0  0  0  0  0  0
   -1.5281   -2.1143   -0.5890 H   0  0  0  0  0  0  0  0  0  0  0  0
   -1.3097   -0.8062    1.6435 H   0  0  0  0  0  0  0  0  0  0  0  0
   -2.8831   -1.1781    0.9445 H   0  0  0  0  0  0  0  0  0  0  0  0
   -2.3876    1.5062    2.1007 N   0  0  0  0  0  0  0  0  0  0  0  0
   -2.7988    2.9015    2.3019 C   0  0  2  0  0  0  0  0  0  0  0  0
   -1.9466    3.5819    3.3931 C   0  0  0  0  0  0  0  0  0  0  0  0
   -1.2914    2.9002    4.1749 O   0  0  0  0  0  0  0  0  0  0  0  0
   -4.2817    2.9208    2.6837 C   0  0  0  0  0  0  0  0  0  0  0  0
   -1.7861    1.1144    2.8251 H   0  0  0  0  0  0  0  0  0  0  0  0
   -2.6563    3.4669    1.3745 H   0  0  0  0  0  0  0  0  0  0  0  0
   -4.4443    2.3682    3.6144 H   0  0  0  0  0  0  0  0  0  0  0  0
   -4.6300    3.9486    2.8220 H   0  0  0  0  0  0  0  0  0  0  0  0
   -4.8816    2.4573    1.8940 H   0  0  0  0  0  0  0  0  0  0  0  0
   -1.9014    4.9603    3.4911 N   0  0  0  0  0  0  0  0  0  0  0  0
   -1.0703    5.6653    4.4594 C   0  0  0  0  0  0  0  0  0  0  0  0
   -2.4166    5.4976    2.7998 H   0  0  0  0  0  0  0  0  0  0  0  0
   -1.3781    5.4176    5.4807 H   0  0  0  0  0  0  0  0  0  0  0  0
   -0.0174    5.3915    4.3326 H   0  0  0  0  0  0  0  0  0  0  0  0
   -1.1645    6.7468    4.3226 H   0  0  0  0  0  0  0  0  0  0  0  0
  1  2  2  0  0  0  0
  1  3  1  0  0  0  0
  1  7  1  0  0  0  0
  3  4  1  0  0  0  0
  3  5  1  0  0  0  0
  3  6  1  0  0  0  0
  7  8  1  0  0  0  0
  7 12  1  0  0  0  0
  8  9  1  0  0  0  0
  8 11  1  0  0  0  0
  8 13  1  0  0  0  0
  9 10  2  0  0  0  0
  9 17  1  0  0  0  0
 11 14  1  0  0  0  0
 11 15  1  0  0  0  0
 11 16  1  0  0  0  0
 17 18  1  0  0  0  0
 17 21  1  0  0  0  0
 18 19  1  0  0  0  0
 18 22  1  0  0  0  0
 18 23  1  0  0  0  0
 19 20  2  0  0  0  0
 19 24  1  0  0  0  0
 24 25  1  0  0  0  0
 24 29  1  0  0  0  0
 25 26  1  0  0  0  0
 25 28  1  0  0  0  0
 25 30  1  0  0  0  0
 26 27  2  0  0  0  0
 26 34  1  0  0  0  0
 28 31  1  0  0  0  0
 28 32  1  0  0  0  0
 28 33  1  0  0  0  0
 34 35  1  0  0  0  0
 34 36  1  0  0  0  0
 35 37  1  0  0  0  0
 35 38  1  0  0  0  0
 35 39  1  0  0  0  0
M  END
$$$$

  -OEChem-05262216283D

 39 38  0     1  0  0  0  0  0999 V2000
   -3.4893   -2.7628   -2.2252 C   0  0  0  0  0  0  0  0  0  0  0  0
   -2.6900   -3.3418   -1.5033 O   0  0  0  0  0  0  0  0  0  0  0  0
   -4.9412   -3.1991   -2.2663 C   0  0  0  0  0  0  0  0  0  0  0  0
   -5.2141   -3.4943   -3.2825 H   0  0  0  0  0  0  0  0  0  0  0  0
   -5.0979   -4.0506   -1.5981 H   0  0  0  0  0  0  0  0  0  0  0  0
   -5.5877   -2.3778   -1.9469 H   0  0  0  0  0  0  0  0  0  0  0  0
   -3.0753   -1.6659   -2.9517 N   0  0  0  0  0  0  0  0  0  0  0  0
   -1.7146   -1.1099   -2.8941 C   0  0  2  0  0  0  0  0  0  0  0  0
   -1.4769   -0.3015   -1.5958 C   0  0  0  0  0  0  0  0  0  0  0  0
   -1.1385    0.8741   -1.6282 O   0  0  0  0  0  0  0  0  0  0  0  0
   -1.5101   -0.2777   -4.1664 C   0  0  0  0  0  0  0  0  0  0  0  0
   -3.7973   -1.1176   -3.4121 H   0  0  0  0  0  0  0  0  0  0  0  0
   -0.9832   -1.9253   -2.9071 H   0  0  0  0  0  0  0  0  0  0  0  0
   -2.2170    0.5579   -4.1985 H   0  0  0  0  0  0  0  0  0  0  0  0
   -0.4940    0.1286   -4.1950 H   0  0  0  0  0  0  0  0  0  0  0  0
   -1.6582   -0.8979   -5.0554 H   0  0  0  0  0  0  0  0  0  0  0  0
   -1.5154   -0.9605   -0.3791 N   0  0  0  0  0  0  0  0  0  0  0  0
   -2.2051   -0.4399    0.8210 C   0  0  0  0  0  0  0  0  0  0  0  0
   -2.6386    1.0379    0.8667 C   0  0  0  0  0  0  0  0  0  0  0  0
   -3.5083    1.4296    0.0956 O   0  0  0  0  0  0  0  0  0  0  0  0
   -1.6617   -1.9640   -0.5242 H   0  0  0  0  0  0  0  0  0  0  0  0
   -1.5486   -0.6139    1.6776 H   0  0  0  0  0  0  0  0  0  0  0  0
   -3.1099   -1.0337    0.9796 H   0  0  0  0  0  0  0  0  0  0  0  0
   -2.3987    1.7894    2.0018 N   0  0  0  0  0  0  0  0  0  0  0  0
   -2.7666    3.2049    2.1277 C   0  0  2  0  0  0  0  0  0  0  0  0
   -1.6914    3.9959    2.9008 C   0  0  0  0  0  0  0  0  0  0  0  0
   -0.8784    3.4044    3.6038 O   0  0  0  0  0  0  0  0  0  0  0  0
   -4.1188    3.2926    2.8405 C   0  0  0  0  0  0  0  0  0  0  0  0
   -1.6411    1.4739    2.6070 H   0  0  0  0  0  0  0  0  0  0  0  0
   -2.8512    3.6554    1.1328 H   0  0  0  0  0  0  0  0  0  0  0  0
   -4.0551    2.8451    3.8375 H   0  0  0  0  0  0  0  0  0  0  0  0
   -4.4315    4.3358    2.9448 H   0  0  0  0  0  0  0  0  0  0  0  0
   -4.8832    2.7585    2.2671 H   0  0  0  0  0  0  0  0  0  0  0  0
   -1.6309    5.3739    2.8053 N   0  0  0  0  0  0  0  0  0  0  0  0
   -0.6125    6.1773    3.4707 C   0  0  0  0  0  0  0  0  0  0  0  0
   -2.2854    5.8301    2.1763 H   0  0  0  0  0  0  0  0  0  0  0  0
   -0.6846    6.0632    4.5573 H   0  0  0  0  0  0  0  0  0  0  0  0
    0.3888    5.8707    3.1499 H   0  0  0  0  0  0  0  0  0  0  0  0
   -0.7447    7.2354    3.2252 H   0  0  0  0  0  0  0  0  0  0  0  0
  1  2  2  0  0  0  0
  1  3  1  0  0  0  0
  1  7  1  0  0  0  0
  3  4  1  0  0  0  0
  3  5  1  0  0  0  0
  3  6  1  0  0  0  0
  7  8  1  0  0  0  0
  7 12  1  0  0  0  0
  8  9  1  0  0  0  0
  8 11  1  0  0  0  0
  8 13  1  0  0  0  0
  9 10  2  0  0  0  0
  9 17  1  0  0  0  0
 11 14  1  0  0  0  0
 11 15  1  0  0  0  0
 11 16  1  0  0  0  0
 17 18  1  0  0  0  0
 17 21  1  0  0  0  0
 18 19  1  0  0  0  0
 18 22  1  0  0  0  0
 18 23  1  0  0  0  0
 19 20  2  0  0  0  0
 19 24  1  0  0  0  0
 24 25  1  0  0  0  0
 24 29  1  0  0  0  0
 25 26  1  0  0  0  0
 25 28  1  0  0  0  0
 25 30  1  0  0  0  0
 26 27  2  0  0  0  0
 26 34  1  0  0  0  0
 28 31  1  0  0  0  0
 28 32  1  0  0  0  0
 28 33  1  0  0  0  0
 34 35  1  0  0  0  0
 34 36  1  0  0  0  0
 35 37  1  0  0  0  0
 35 38  1  0  0  0  0
 35 39  1  0  0  0  0
M  END
$$$$

  -OEChem-05262216283D

 39 38  0     1  0  0  0  0  0999 V2000
   -3.2661   -3.0136   -2.3273 C   0  0  0  0  0  0  0  0  0  0  0  0
   -2.4558   -3.3596   -1.4798 O   0  0  0  0  0  0  0  0  0  0  0  0
   -4.5466   -3.8007   -2.5307 C   0  0  0  0  0  0  0  0  0  0  0  0
   -4.6081   -4.1543   -3.5627 H   0  0  0  0  0  0  0  0  0  0  0  0
   -4.5682   -4.6656   -1.8616 H   0  0  0  0  0  0  0  0  0  0  0  0
   -5.4123   -3.1687   -2.3171 H   0  0  0  0  0  0  0  0  0  0  0  0
   -3.0320   -1.8692   -3.0611 N   0  0  0  0  0  0  0  0  0  0  0  0
   -1.8428   -1.0169   -2.9040 C   0  0  2  0  0  0  0  0  0  0  0  0
   -1.9172   -0.1296   -1.6365 C   0  0  0  0  0  0  0  0  0  0  0  0
   -1.8737    1.0898   -1.7192 O   0  0  0  0  0  0  0  0  0  0  0  0
   -1.6916   -0.2046   -4.1968 C   0  0  0  0  0  0  0  0  0  0  0  0
   -3.7767   -1.5491   -3.6744 H   0  0  0  0  0  0  0  0  0  0  0  0
   -0.9529   -1.6475   -2.8025 H   0  0  0  0  0  0  0  0  0  0  0  0
   -2.5520    0.4573   -4.3389 H   0  0  0  0  0  0  0  0  0  0  0  0
   -0.7869    0.4106   -4.1540 H   0  0  0  0  0  0  0  0  0  0  0  0
   -1.6140   -0.8713   -5.0608 H   0  0  0  0  0  0  0  0  0  0  0  0
   -1.9050   -0.7498   -0.3978 N   0  0  0  0  0  0  0  0  0  0  0  0
   -2.5279   -0.2401    0.8432 C   0  0  0  0  0  0  0  0  0  0  0  0
   -2.9726    1.2322    0.9183 C   0  0  0  0  0  0  0  0  0  0  0  0
   -4.0233    1.5671    0.3829 O   0  0  0  0  0  0  0  0  0  0  0  0
   -1.9003   -1.7705   -0.4894 H   0  0  0  0  0  0  0  0  0  0  0  0
   -1.8258   -0.4116    1.6634 H   0  0  0  0  0  0  0  0  0  0  0  0
   -3.4172   -0.8434    1.0475 H   0  0  0  0  0  0  0  0  0  0  0  0
   -2.4258    2.0713    1.8706 N   0  0  0  0  0  0  0  0  0  0  0  0
   -2.7650    3.4950    1.9792 C   0  0  2  0  0  0  0  0  0  0  0  0
   -1.5242    4.3420    2.3279 C   0  0  0  0  0  0  0  0  0  0  0  0
   -0.5345    3.8113    2.8221 O   0  0  0  0  0  0  0  0  0  0  0  0
   -3.8455    3.6552    3.0519 C   0  0  0  0  0  0  0  0  0  0  0  0
   -1.5124    1.8052    2.2371 H   0  0  0  0  0  0  0  0  0  0  0  0
   -3.1498    3.8590    1.0203 H   0  0  0  0  0  0  0  0  0  0  0  0
   -3.4767    3.3053    4.0213 H   0  0  0  0  0  0  0  0  0  0  0  0
   -4.1390    4.7048    3.1480 H   0  0  0  0  0  0  0  0  0  0  0  0
   -4.7323    3.0716    2.7847 H   0  0  0  0  0  0  0  0  0  0  0  0
   -1.5150    5.7031    2.0845 N   0  0  0  0  0  0  0  0  0  0  0  0
   -0.3556    6.5509    2.3336 C   0  0  0  0  0  0  0  0  0  0  0  0
   -2.3254    6.1012    1.6187 H   0  0  0  0  0  0  0  0  0  0  0  0
   -0.0898    6.5344    3.3959 H   0  0  0  0  0  0  0  0  0  0  0  0
    0.5041    6.2054    1.7495 H   0  0  0  0  0  0  0  0  0  0  0  0
   -0.5743    7.5845    2.0485 H   0  0  0  0  0  0  0  0  0  0  0  0
  1  2  2  0  0  0  0
  1  3  1  0  0  0  0
  1  7  1  0  0  0  0
  3  4  1  0  0  0  0
  3  5  1  0  0  0  0
  3  6  1  0  0  0  0
  7  8  1  0  0  0  0
  7 12  1  0  0  0  0
  8  9  1  0  0  0  0
  8 11  1  0  0  0  0
  8 13  1  0  0  0  0
  9 10  2  0  0  0  0
  9 17  1  0  0  0  0
 11 14  1  0  0  0  0
 11 15  1  0  0  0  0
 11 16  1  0  0  0  0
 17 18  1  0  0  0  0
 17 21  1  0  0  0  0
 18 19  1  0  0  0  0
 18 22  1  0  0  0  0
 18 23  1  0  0  0  0
 19 20  2  0  0  0  0
 19 24  1  0  0  0  0
 24 25  1  0  0  0  0
 24 29  1  0  0  0  0
 25 26  1  0  0  0  0
 25 28  1  0  0  0  0
 25 30  1  0  0  0  0
 26 27  2  0  0  0  0
 26 34  1  0  0  0  0
 28 31  1  0  0  0  0
 28 32  1  0  0  0  0
 28 33  1  0  0  0  0
 34 35  1  0  0  0  0
 34 36  1  0  0  0  0
 35 37  1  0  0  0  0
 35 38  1  0  0  0  0
 35 39  1  0  0  0  0
M  END
$$$$

  -OEChem-05262216283D

 39 38  0     1  0  0  0  0  0999 V2000
   -3.0813   -3.1021   -2.3827 C   0  0  0  0  0  0  0  0  0  0  0  0
   -2.2045   -3.3144   -1.5577 O   0  0  0  0  0  0  0  0  0  0  0  0
   -4.2206   -4.0877   -2.5604 C   0  0  0  0  0  0  0  0  0  0  0  0
   -4.3476   -4.3283   -3.6188 H   0  0  0  0  0  0  0  0  0  0  0  0
   -4.0083   -5.0113   -2.0143 H   0  0  0  0  0  0  0  0  0  0  0  0
   -5.1492   -3.6571   -2.1775 H   0  0  0  0  0  0  0  0  0  0  0  0
   -3.0608   -1.9261   -3.1042 N   0  0  0  0  0  0  0  0  0  0  0  0
   -2.0289   -0.8872   -2.9564 C   0  0  2  0  0  0  0  0  0  0  0  0
   -2.2343   -0.0326   -1.6805 C   0  0  0  0  0  0  0  0  0  0  0  0
   -2.4432    1.1694   -1.7595 O   0  0  0  0  0  0  0  0  0  0  0  0
   -2.0296   -0.0543   -4.2450 C   0  0  0  0  0  0  0  0  0  0  0  0
   -3.8635   -1.7283   -3.6955 H   0  0  0  0  0  0  0  0  0  0  0  0
   -1.0447   -1.3603   -2.8706 H   0  0  0  0  0  0  0  0  0  0  0  0
   -2.9945    0.4445   -4.3818 H   0  0  0  0  0  0  0  0  0  0  0  0
   -1.2486    0.7116   -4.2009 H   0  0  0  0  0  0  0  0  0  0  0  0
   -1.8372   -0.6923   -5.1128 H   0  0  0  0  0  0  0  0  0  0  0  0
   -2.1002   -0.6549   -0.4493 N   0  0  0  0  0  0  0  0  0  0  0  0
   -2.6393   -0.1993    0.8509 C   0  0  0  0  0  0  0  0  0  0  0  0
   -3.1428    1.2485    0.9873 C   0  0  0  0  0  0  0  0  0  0  0  0
   -4.3187    1.4999    0.7502 O   0  0  0  0  0  0  0  0  0  0  0  0
   -1.9433   -1.6636   -0.5387 H   0  0  0  0  0  0  0  0  0  0  0  0
   -1.8674   -0.3494    1.6106 H   0  0  0  0  0  0  0  0  0  0  0  0
   -3.4810   -0.8473    1.1129 H   0  0  0  0  0  0  0  0  0  0  0  0
   -2.3831    2.1852    1.6618 N   0  0  0  0  0  0  0  0  0  0  0  0
   -2.7496    3.6038    1.7451 C   0  0  2  0  0  0  0  0  0  0  0  0
   -1.5052    4.5103    1.6487 C   0  0  0  0  0  0  0  0  0  0  0  0
   -0.3875    4.0513    1.8624 O   0  0  0  0  0  0  0  0  0  0  0  0
   -3.4890    3.8408    3.0646 C   0  0  0  0  0  0  0  0  0  0  0  0
   -1.3870    1.9820    1.7413 H   0  0  0  0  0  0  0  0  0  0  0  0
   -3.4079    3.8650    0.9091 H   0  0  0  0  0  0  0  0  0  0  0  0
   -2.8477    3.5848    3.9140 H   0  0  0  0  0  0  0  0  0  0  0  0
   -3.7858    4.8898    3.1545 H   0  0  0  0  0  0  0  0  0  0  0  0
   -4.3907    3.2218    3.1085 H   0  0  0  0  0  0  0  0  0  0  0  0
   -1.6385    5.8469    1.3199 N   0  0  0  0  0  0  0  0  0  0  0  0
   -0.5025    6.7437    1.1457 C   0  0  0  0  0  0  0  0  0  0  0  0
   -2.5698    6.1807    1.0887 H   0  0  0  0  0  0  0  0  0  0  0  0
    0.0906    6.7942    2.0651 H   0  0  0  0  0  0  0  0  0  0  0  0
    0.1398    6.3930    0.3309 H   0  0  0  0  0  0  0  0  0  0  0  0
   -0.8500    7.7529    0.9035 H   0  0  0  0  0  0  0  0  0  0  0  0
  1  2  2  0  0  0  0
  1  3  1  0  0  0  0
  1  7  1  0  0  0  0
  3  4  1  0  0  0  0
  3  5  1  0  0  0  0
  3  6  1  0  0  0  0
  7  8  1  0  0  0  0
  7 12  1  0  0  0  0
  8  9  1  0  0  0  0
  8 11  1  0  0  0  0
  8 13  1  0  0  0  0
  9 10  2  0  0  0  0
  9 17  1  0  0  0  0
 11 14  1  0  0  0  0
 11 15  1  0  0  0  0
 11 16  1  0  0  0  0
 17 18  1  0  0  0  0
 17 21  1  0  0  0  0
 18 19  1  0  0  0  0
 18 22  1  0  0  0  0
 18 23  1  0  0  0  0
 19 20  2  0  0  0  0
 19 24  1  0  0  0  0
 24 25  1  0  0  0  0
 24 29  1  0  0  0  0
 25 26  1  0  0  0  0
 25 28  1  0  0  0  0
 25 30  1  0  0  0  0
 26 27  2  0  0  0  0
 26 34  1  0  0  0  0
 28 31  1  0  0  0  0
 28 32  1  0  0  0  0
 28 33  1  0  0  0  0
 34 35  1  0  0  0  0
 34 36  1  0  0  0  0
 35 37  1  0  0  0  0
 35 38  1  0  0  0  0
 35 39  1  0  0  0  0
M  END
$$$$

  -OEChem-05262216283D

 39 38  0     1  0  0  0  0  0999 V2000
   -2.9555   -3.1090   -2.4650 C   0  0  0  0  0  0  0  0  0  0  0  0
   -2.0440   -3.2176   -1.6578 O   0  0  0  0  0  0  0  0  0  0  0  0
   -3.9182   -4.2585   -2.6946 C   0  0  0  0  0  0  0  0  0  0  0  0
   -3.8861   -4.5692   -3.7418 H   0  0  0  0  0  0  0  0  0  0  0  0
   -3.6443   -5.1111   -2.0668 H   0  0  0  0  0  0  0  0  0  0  0  0
   -4.9363   -3.9503   -2.4436 H   0  0  0  0  0  0  0  0  0  0  0  0
   -3.1370   -1.9099   -3.1230 N   0  0  0  0  0  0  0  0  0  0  0  0
   -2.2731   -0.7314   -2.9481 C   0  0  2  0  0  0  0  0  0  0  0  0
   -2.5656    0.0286   -1.6299 C   0  0  0  0  0  0  0  0  0  0  0  0
   -2.9609    1.1854   -1.6513 O   0  0  0  0  0  0  0  0  0  0  0  0
   -2.4425    0.1436   -4.1972 C   0  0  0  0  0  0  0  0  0  0  0  0
   -3.9632   -1.8196   -3.7079 H   0  0  0  0  0  0  0  0  0  0  0  0
   -1.2257   -1.0502   -2.9077 H   0  0  0  0  0  0  0  0  0  0  0  0
   -3.4749    0.4979   -4.2839 H   0  0  0  0  0  0  0  0  0  0  0  0
   -1.7824    1.0152   -4.1410 H   0  0  0  0  0  0  0  0  0  0  0  0
   -2.1887   -0.4237   -5.0978 H   0  0  0  0  0  0  0  0  0  0  0  0
   -2.3205   -0.6253   -0.4322 N   0  0  0  0  0  0  0  0  0  0  0  0
   -2.7445   -0.2300    0.9291 C   0  0  0  0  0  0  0  0  0  0  0  0
   -3.2487    1.2050    1.1548 C   0  0  0  0  0  0  0  0  0  0  0  0
   -4.4515    1.4181    1.2525 O   0  0  0  0  0  0  0  0  0  0  0  0
   -2.0375   -1.6020   -0.5599 H   0  0  0  0  0  0  0  0  0  0  0  0
   -1.9059   -0.3906    1.6120 H   0  0  0  0  0  0  0  0  0  0  0  0
   -3.5500   -0.9013    1.2410 H   0  0  0  0  0  0  0  0  0  0  0  0
   -2.3543    2.2001    1.4974 N   0  0  0  0  0  0  0  0  0  0  0  0
   -2.7228    3.6195    1.5327 C   0  0  2  0  0  0  0  0  0  0  0  0
   -1.6046    4.5008    0.9390 C   0  0  0  0  0  0  0  0  0  0  0  0
   -0.4533    4.0805    0.8766 O   0  0  0  0  0  0  0  0  0  0  0  0
   -3.0069    4.0106    2.9848 C   0  0  0  0  0  0  0  0  0  0  0  0
   -1.3775    2.0085    1.2762 H   0  0  0  0  0  0  0  0  0  0  0  0
   -3.6225    3.7849    0.9300 H   0  0  0  0  0  0  0  0  0  0  0  0
   -2.1163    3.8584    3.6029 H   0  0  0  0  0  0  0  0  0  0  0  0
   -3.3011    5.0623    3.0482 H   0  0  0  0  0  0  0  0  0  0  0  0
   -3.8205    3.3990    3.3875 H   0  0  0  0  0  0  0  0  0  0  0  0
   -1.8871    5.7749    0.4819 N   0  0  0  0  0  0  0  0  0  0  0  0
   -0.8889    6.6437   -0.1292 C   0  0  0  0  0  0  0  0  0  0  0  0
   -2.8597    6.0681    0.4866 H   0  0  0  0  0  0  0  0  0  0  0  0
   -0.0658    6.8311    0.5684 H   0  0  0  0  0  0  0  0  0  0  0  0
   -0.4843    6.1833   -1.0367 H   0  0  0  0  0  0  0  0  0  0  0  0
   -1.3375    7.6046   -0.3986 H   0  0  0  0  0  0  0  0  0  0  0  0
  1  2  2  0  0  0  0
  1  3  1  0  0  0  0
  1  7  1  0  0  0  0
  3  4  1  0  0  0  0
  3  5  1  0  0  0  0
  3  6  1  0  0  0  0
  7  8  1  0  0  0  0
  7 12  1  0  0  0  0
  8  9  1  0  0  0  0
  8 11  1  0  0  0  0
  8 13  1  0  0  0  0
  9 10  2  0  0  0  0
  9 17  1  0  0  0  0
 11 14  1  0  0  0  0
 11 15  1  0  0  0  0
 11 16  1  0  0  0  0
 17 18  1  0  0  0  0
 17 21  1  0  0  0  0
 18 19  1  0  0  0  0
 18 22  1  0  0  0  0
 18 23  1  0  0  0  0
 19 20  2  0  0  0  0
 19 24  1  0  0  0  0
 24 25  1  0  0  0  0
 24 29  1  0  0  0  0
 25 26  1  0  0  0  0
 25 28  1  0  0  0  0
 25 30  1  0  0  0  0
 26 27  2  0  0  0  0
 26 34  1  0  0  0  0
 28 31  1  0  0  0  0
 28 32  1  0  0  0  0
 28 33  1  0  0  0  0
 34 35  1  0  0  0  0
 34 36  1  0  0  0  0
 35 37  1  0  0  0  0
 35 38  1  0  0  0  0
 35 39  1  0  0  0  0
M  END
$$$$

  -OEChem-05262216283D

 39 38  0     1  0  0  0  0  0999 V2000
   -3.2555   -2.7534   -2.5865 C   0  0  0  0  0  0  0  0  0  0  0  0
   -2.5469   -3.0273   -1.6290 O   0  0  0  0  0  0  0  0  0  0  0  0
   -4.2864   -3.7461   -3.0899 C   0  0  0  0  0  0  0  0  0  0  0  0
   -4.1005   -3.9793   -4.1414 H   0  0  0  0  0  0  0  0  0  0  0  0
   -4.2320   -4.6725   -2.5111 H   0  0  0  0  0  0  0  0  0  0  0  0
   -5.2906   -3.3273   -2.9880 H   0  0  0  0  0  0  0  0  0  0  0  0
   -3.1404   -1.5102   -3.1743 N   0  0  0  0  0  0  0  0  0  0  0  0
   -2.1352   -0.5047   -2.7930 C   0  0  2  0  0  0  0  0  0  0  0  0
   -2.4985    0.2450   -1.4860 C   0  0  0  0  0  0  0  0  0  0  0  0
   -2.6434    1.4593   -1.4779 O   0  0  0  0  0  0  0  0  0  0  0  0
   -1.9576    0.4363   -3.9923 C   0  0  0  0  0  0  0  0  0  0  0  0
   -3.7852   -1.2899   -3.9287 H   0  0  0  0  0  0  0  0  0  0  0  0
   -1.1752   -1.0026   -2.6181 H   0  0  0  0  0  0  0  0  0  0  0  0
   -2.8890    0.9710   -4.2059 H   0  0  0  0  0  0  0  0  0  0  0  0
   -1.1765    1.1740   -3.7827 H   0  0  0  0  0  0  0  0  0  0  0  0
   -1.6653   -0.1285   -4.8827 H   0  0  0  0  0  0  0  0  0  0  0  0
   -2.6054   -0.4806   -0.3112 N   0  0  0  0  0  0  0  0  0  0  0  0
   -3.1570   -0.0432    0.9907 C   0  0  0  0  0  0  0  0  0  0  0  0
   -3.3775    1.4580    1.2498 C   0  0  0  0  0  0  0  0  0  0  0  0
   -4.5137    1.8818    1.4035 O   0  0  0  0  0  0  0  0  0  0  0  0
   -2.5063   -1.4918   -0.4519 H   0  0  0  0  0  0  0  0  0  0  0  0
   -2.4974   -0.4090    1.7822 H   0  0  0  0  0  0  0  0  0  0  0  0
   -4.1266   -0.5327    1.1246 H   0  0  0  0  0  0  0  0  0  0  0  0
   -2.2998    2.2860    1.5071 N   0  0  0  0  0  0  0  0  0  0  0  0
   -2.4184    3.7060    1.8830 C   0  0  2  0  0  0  0  0  0  0  0  0
   -2.3955    4.6835    0.6822 C   0  0  0  0  0  0  0  0  0  0  0  0
   -2.1822    5.8769    0.8625 O   0  0  0  0  0  0  0  0  0  0  0  0
   -1.2843    3.9981    2.8724 C   0  0  0  0  0  0  0  0  0  0  0  0
   -1.3874    1.9333    1.2336 H   0  0  0  0  0  0  0  0  0  0  0  0
   -3.3682    3.8717    2.4026 H   0  0  0  0  0  0  0  0  0  0  0  0
   -0.3108    3.8970    2.3829 H   0  0  0  0  0  0  0  0  0  0  0  0
   -1.3717    5.0175    3.2622 H   0  0  0  0  0  0  0  0  0  0  0  0
   -1.3286    3.3045    3.7176 H   0  0  0  0  0  0  0  0  0  0  0  0
   -2.5582    4.2316   -0.6136 N   0  0  0  0  0  0  0  0  0  0  0  0
   -2.5819    5.1030   -1.7790 C   0  0  0  0  0  0  0  0  0  0  0  0
   -2.7565    3.2355   -0.7425 H   0  0  0  0  0  0  0  0  0  0  0  0
   -3.4162    5.8086   -1.7115 H   0  0  0  0  0  0  0  0  0  0  0  0
   -1.6465    5.6666   -1.8563 H   0  0  0  0  0  0  0  0  0  0  0  0
   -2.7033    4.5078   -2.6890 H   0  0  0  0  0  0  0  0  0  0  0  0
  1  2  2  0  0  0  0
  1  3  1  0  0  0  0
  1  7  1  0  0  0  0
  3  4  1  0  0  0  0
  3  5  1  0  0  0  0
  3  6  1  0  0  0  0
  7  8  1  0  0  0  0
  7 12  1  0  0  0  0
  8  9  1  0  0  0  0
  8 11  1  0  0  0  0
  8 13  1  0  0  0  0
  9 10  2  0  0  0  0
  9 17  1  0  0  0  0
 11 14  1  0  0  0  0
 11 15  1  0  0  0  0
 11 16  1  0  0  0  0
 17 18  1  0  0  0  0
 17 21  1  0  0  0  0
 18 19  1  0  0  0  0
 18 22  1  0  0  0  0
 18 23  1  0  0  0  0
 19 20  2  0  0  0  0
 19 24  1  0  0  0  0
 24 25  1  0  0  0  0
 24 29  1  0  0  0  0
 25 26  1  0  0  0  0
 25 28  1  0  0  0  0
 25 30  1  0  0  0  0
 26 27  2  0  0  0  0
 26 34  1  0  0  0  0
 28 31  1  0  0  0  0
 28 32  1  0  0  0  0
 28 33  1  0  0  0  0
 34 35  1  0  0  0  0
 34 36  1  0  0  0  0
 35 37  1  0  0  0  0
 35 38  1  0  0  0  0
 35 39  1  0  0  0  0
M  END
$$$$

  -OEChem-05262216283D

 39 38  0     1  0  0  0  0  0999 V2000
   -3.4221   -2.8933   -2.5385 C   0  0  0  0  0  0  0  0  0  0  0  0
   -2.6923   -3.1405   -1.5899 O   0  0  0  0  0  0  0  0  0  0  0  0
   -4.4737   -3.8924   -2.9817 C   0  0  0  0  0  0  0  0  0  0  0  0
   -4.3564   -4.1130   -4.0456 H   0  0  0  0  0  0  0  0  0  0  0  0
   -4.3707   -4.8239   -2.4174 H   0  0  0  0  0  0  0  0  0  0  0  0
   -5.4732   -3.4852   -2.8090 H   0  0  0  0  0  0  0  0  0  0  0  0
   -3.3145   -1.6700   -3.1679 N   0  0  0  0  0  0  0  0  0  0  0  0
   -2.2945   -0.6599   -2.8420 C   0  0  2  0  0  0  0  0  0  0  0  0
   -2.6264    0.1363   -1.5540 C   0  0  0  0  0  0  0  0  0  0  0  0
   -2.7538    1.3520   -1.5819 O   0  0  0  0  0  0  0  0  0  0  0  0
   -2.1364    0.2379   -4.0768 C   0  0  0  0  0  0  0  0  0  0  0  0
   -3.9723   -1.4720   -3.9174 H   0  0  0  0  0  0  0  0  0  0  0  0
   -1.3343   -1.1589   -2.6708 H   0  0  0  0  0  0  0  0  0  0  0  0
   -3.0693    0.7700   -4.2901 H   0  0  0  0  0  0  0  0  0  0  0  0
   -1.3472    0.9782   -3.9102 H   0  0  0  0  0  0  0  0  0  0  0  0
   -1.8656   -0.3605   -4.9522 H   0  0  0  0  0  0  0  0  0  0  0  0
   -2.7463   -0.5511   -0.3583 N   0  0  0  0  0  0  0  0  0  0  0  0
   -3.2155   -0.0594    0.9578 C   0  0  0  0  0  0  0  0  0  0  0  0
   -3.3244    1.4537    1.2264 C   0  0  0  0  0  0  0  0  0  0  0  0
   -4.3611    1.9024    1.6926 O   0  0  0  0  0  0  0  0  0  0  0  0
   -2.6580   -1.5675   -0.4653 H   0  0  0  0  0  0  0  0  0  0  0  0
   -2.5504   -0.4632    1.7259 H   0  0  0  0  0  0  0  0  0  0  0  0
   -4.2096   -0.4825    1.1331 H   0  0  0  0  0  0  0  0  0  0  0  0
   -2.2108    2.2696    1.1405 N   0  0  0  0  0  0  0  0  0  0  0  0
   -2.2078    3.6998    1.4962 C   0  0  2  0  0  0  0  0  0  0  0  0
   -2.6266    4.6476    0.3463 C   0  0  0  0  0  0  0  0  0  0  0  0
   -2.5473    5.8614    0.4951 O   0  0  0  0  0  0  0  0  0  0  0  0
   -0.7979    4.0295    1.9979 C   0  0  0  0  0  0  0  0  0  0  0  0
   -1.4467    1.9113    0.5743 H   0  0  0  0  0  0  0  0  0  0  0  0
   -2.9101    3.8741    2.3187 H   0  0  0  0  0  0  0  0  0  0  0  0
   -0.0642    3.9026    1.1959 H   0  0  0  0  0  0  0  0  0  0  0  0
   -0.7511    5.0652    2.3494 H   0  0  0  0  0  0  0  0  0  0  0  0
   -0.5276    3.3732    2.8306 H   0  0  0  0  0  0  0  0  0  0  0  0
   -3.0195    4.1564   -0.8843 N   0  0  0  0  0  0  0  0  0  0  0  0
   -3.4150    4.9967   -2.0050 C   0  0  0  0  0  0  0  0  0  0  0  0
   -3.0654    3.1397   -0.9893 H   0  0  0  0  0  0  0  0  0  0  0  0
   -4.2819    5.6092   -1.7366 H   0  0  0  0  0  0  0  0  0  0  0  0
   -2.5921    5.6569   -2.2977 H   0  0  0  0  0  0  0  0  0  0  0  0
   -3.6824    4.3743   -2.8642 H   0  0  0  0  0  0  0  0  0  0  0  0
  1  2  2  0  0  0  0
  1  3  1  0  0  0  0
  1  7  1  0  0  0  0
  3  4  1  0  0  0  0
  3  5  1  0  0  0  0
  3  6  1  0  0  0  0
  7  8  1  0  0  0  0
  7 12  1  0  0  0  0
  8  9  1  0  0  0  0
  8 11  1  0  0  0  0
  8 13  1  0  0  0  0
  9 10  2  0  0  0  0
  9 17  1  0  0  0  0
 11 14  1  0  0  0  0
 11 15  1  0  0  0  0
 11 16  1  0  0  0  0
 17 18  1  0  0  0  0
 17 21  1  0  0  0  0
 18 19  1  0  0  0  0
 18 22  1  0  0  0  0
 18 23  1  0  0  0  0
 19 20  2  0  0  0  0
 19 24  1  0  0  0  0
 24 25  1  0  0  0  0
 24 29  1  0  0  0  0
 25 26  1  0  0  0  0
 25 28  1  0  0  0  0
 25 30  1  0  0  0  0
 26 27  2  0  0  0  0
 26 34  1  0  0  0  0
 28 31  1  0  0  0  0
 28 32  1  0  0  0  0
 28 33  1  0  0  0  0
 34 35  1  0  0  0  0
 34 36  1  0  0  0  0
 35 37  1  0  0  0  0
 35 38  1  0  0  0  0
 35 39  1  0  0  0  0
M  END
$$$$

  -OEChem-05262216283D

 39 38  0     1  0  0  0  0  0999 V2000
   -2.8928   -3.1063   -2.6466 C   0  0  0  0  0  0  0  0  0  0  0  0
   -1.9831   -3.0694   -1.8306 O   0  0  0  0  0  0  0  0  0  0  0  0
   -3.4507   -4.4365   -3.1161 C   0  0  0  0  0  0  0  0  0  0  0  0
   -3.3357   -4.5287   -4.1989 H   0  0  0  0  0  0  0  0  0  0  0  0
   -2.9172   -5.2611   -2.6345 H   0  0  0  0  0  0  0  0  0  0  0  0
   -4.5113   -4.5080   -2.8622 H   0  0  0  0  0  0  0  0  0  0  0  0
   -3.4426   -1.9254   -3.1012 N   0  0  0  0  0  0  0  0  0  0  0  0
   -2.9559   -0.5897   -2.7216 C   0  0  2  0  0  0  0  0  0  0  0  0
   -3.4049   -0.1662   -1.3009 C   0  0  0  0  0  0  0  0  0  0  0  0
   -4.1443    0.7931   -1.1314 O   0  0  0  0  0  0  0  0  0  0  0  0
   -3.4093    0.3971   -3.8057 C   0  0  0  0  0  0  0  0  0  0  0  0
   -4.2428   -1.9908   -3.7240 H   0  0  0  0  0  0  0  0  0  0  0  0
   -1.8604   -0.5911   -2.7206 H   0  0  0  0  0  0  0  0  0  0  0  0
   -4.5020    0.4516   -3.8474 H   0  0  0  0  0  0  0  0  0  0  0  0
   -3.0220    1.3987   -3.5891 H   0  0  0  0  0  0  0  0  0  0  0  0
   -3.0342    0.0886   -4.7862 H   0  0  0  0  0  0  0  0  0  0  0  0
   -2.9809   -0.9092   -0.2101 N   0  0  0  0  0  0  0  0  0  0  0  0
   -2.9156   -0.4803    1.2077 C   0  0  0  0  0  0  0  0  0  0  0  0
   -3.0092    1.0223    1.5326 C   0  0  0  0  0  0  0  0  0  0  0  0
   -3.6650    1.4058    2.4925 O   0  0  0  0  0  0  0  0  0  0  0  0
   -2.4362   -1.7378   -0.4700 H   0  0  0  0  0  0  0  0  0  0  0  0
   -1.9721   -0.8350    1.6310 H   0  0  0  0  0  0  0  0  0  0  0  0
   -3.7271   -0.9767    1.7481 H   0  0  0  0  0  0  0  0  0  0  0  0
   -2.2780    1.9330    0.7946 N   0  0  0  0  0  0  0  0  0  0  0  0
   -2.6078    3.3584    0.7335 C   0  0  2  0  0  0  0  0  0  0  0  0
   -2.5332    3.8656   -0.7231 C   0  0  0  0  0  0  0  0  0  0  0  0
   -1.8320    3.2835   -1.5475 O   0  0  0  0  0  0  0  0  0  0  0  0
   -1.6307    4.1223    1.6296 C   0  0  0  0  0  0  0  0  0  0  0  0
   -1.8840    1.5569   -0.0661 H   0  0  0  0  0  0  0  0  0  0  0  0
   -3.6309    3.5225    1.0883 H   0  0  0  0  0  0  0  0  0  0  0  0
   -0.6014    3.9771    1.2856 H   0  0  0  0  0  0  0  0  0  0  0  0
   -1.8557    5.1929    1.6164 H   0  0  0  0  0  0  0  0  0  0  0  0
   -1.7082    3.7646    2.6615 H   0  0  0  0  0  0  0  0  0  0  0  0
   -3.2395    4.9907   -1.1076 N   0  0  0  0  0  0  0  0  0  0  0  0
   -3.2776    5.4764   -2.4812 C   0  0  0  0  0  0  0  0  0  0  0  0
   -3.8786    5.3916   -0.4275 H   0  0  0  0  0  0  0  0  0  0  0  0
   -2.2640    5.6659   -2.8500 H   0  0  0  0  0  0  0  0  0  0  0  0
   -3.7587    4.7402   -3.1337 H   0  0  0  0  0  0  0  0  0  0  0  0
   -3.8427    6.4118   -2.5362 H   0  0  0  0  0  0  0  0  0  0  0  0
  1  2  2  0  0  0  0
  1  3  1  0  0  0  0
  1  7  1  0  0  0  0
  3  4  1  0  0  0  0
  3  5  1  0  0  0  0
  3  6  1  0  0  0  0
  7  8  1  0  0  0  0
  7 12  1  0  0  0  0
  8  9  1  0  0  0  0
  8 11  1  0  0  0  0
  8 13  1  0  0  0  0
  9 10  2  0  0  0  0
  9 17  1  0  0  0  0
 11 14  1  0  0  0  0
 11 15  1  0  0  0  0
 11 16  1  0  0  0  0
 17 18  1  0  0  0  0
 17 21  1  0  0  0  0
 18 19  1  0  0  0  0
 18 22  1  0  0  0  0
 18 23  1  0  0  0  0
 19 20  2  0  0  0  0
 19 24  1  0  0  0  0
 24 25  1  0  0  0  0
 24 29  1  0  0  0  0
 25 26  1  0  0  0  0
 25 28  1  0  0  0  0
 25 30  1  0  0  0  0
 26 27  2  0  0  0  0
 26 34  1  0  0  0  0
 28 31  1  0  0  0  0
 28 32  1  0  0  0  0
 28 33  1  0  0  0  0
 34 35  1  0  0  0  0
 34 36  1  0  0  0  0
 35 37  1  0  0  0  0
 35 38  1  0  0  0  0
 35 39  1  0  0  0  0
M  END
$$$$

  -OEChem-05262216283D

 39 38  0     1  0  0  0  0  0999 V2000
   -3.0594   -3.4687   -2.5081 C   0  0  0  0  0  0  0  0  0  0  0  0
   -2.1441   -3.4546   -1.6980 O   0  0  0  0  0  0  0  0  0  0  0  0
   -3.8549   -4.7379   -2.7466 C   0  0  0  0  0  0  0  0  0  0  0  0
   -3.8326   -5.0004   -3.8072 H   0  0  0  0  0  0  0  0  0  0  0  0
   -3.4277   -5.5641   -2.1710 H   0  0  0  0  0  0  0  0  0  0  0  0
   -4.8926   -4.5918   -2.4363 H   0  0  0  0  0  0  0  0  0  0  0  0
   -3.4041   -2.3011   -3.1573 N   0  0  0  0  0  0  0  0  0  0  0  0
   -2.6978   -1.0222   -2.9832 C   0  0  2  0  0  0  0  0  0  0  0  0
   -3.0684   -0.3109   -1.6574 C   0  0  0  0  0  0  0  0  0  0  0  0
   -3.6416    0.7678   -1.6642 O   0  0  0  0  0  0  0  0  0  0  0  0
   -2.9906   -0.1651   -4.2219 C   0  0  0  0  0  0  0  0  0  0  0  0
   -4.2173   -2.3273   -3.7664 H   0  0  0  0  0  0  0  0  0  0  0  0
   -1.6179   -1.2054   -2.9572 H   0  0  0  0  0  0  0  0  0  0  0  0
   -4.0605    0.0560   -4.2952 H   0  0  0  0  0  0  0  0  0  0  0  0
   -2.4459    0.7831   -4.1636 H   0  0  0  0  0  0  0  0  0  0  0  0
   -2.6769   -0.6864   -5.1314 H   0  0  0  0  0  0  0  0  0  0  0  0
   -2.7815   -0.9412   -0.4583 N   0  0  0  0  0  0  0  0  0  0  0  0
   -2.8696   -0.4349    0.9339 C   0  0  0  0  0  0  0  0  0  0  0  0
   -2.9991    1.0698    1.2570 C   0  0  0  0  0  0  0  0  0  0  0  0
   -3.4967    1.3916    2.3280 O   0  0  0  0  0  0  0  0  0  0  0  0
   -2.3707   -1.8727   -0.5817 H   0  0  0  0  0  0  0  0  0  0  0  0
   -1.9746   -0.7756    1.4615 H   0  0  0  0  0  0  0  0  0  0  0  0
   -3.7301   -0.9230    1.4012 H   0  0  0  0  0  0  0  0  0  0  0  0
   -2.4626    2.0522    0.4485 N   0  0  0  0  0  0  0  0  0  0  0  0
   -2.6804    3.4890    0.6447 C   0  0  2  0  0  0  0  0  0  0  0  0
   -2.9707    4.1787   -0.7045 C   0  0  0  0  0  0  0  0  0  0  0  0
   -2.1277    4.1830   -1.5948 O   0  0  0  0  0  0  0  0  0  0  0  0
   -1.4381    4.0783    1.3181 C   0  0  0  0  0  0  0  0  0  0  0  0
   -2.3173    1.7549   -0.5181 H   0  0  0  0  0  0  0  0  0  0  0  0
   -3.5446    3.6593    1.2947 H   0  0  0  0  0  0  0  0  0  0  0  0
   -0.5508    3.9137    0.6984 H   0  0  0  0  0  0  0  0  0  0  0  0
   -1.5619    5.1545    1.4712 H   0  0  0  0  0  0  0  0  0  0  0  0
   -1.2767    3.6052    2.2917 H   0  0  0  0  0  0  0  0  0  0  0  0
   -4.1938    4.7833   -0.9282 N   0  0  0  0  0  0  0  0  0  0  0  0
   -4.5839    5.3185   -2.2263 C   0  0  0  0  0  0  0  0  0  0  0  0
   -4.9125    4.6361   -0.2256 H   0  0  0  0  0  0  0  0  0  0  0  0
   -3.9023    6.1196   -2.5309 H   0  0  0  0  0  0  0  0  0  0  0  0
   -4.5640    4.5300   -2.9861 H   0  0  0  0  0  0  0  0  0  0  0  0
   -5.5973    5.7281   -2.1780 H   0  0  0  0  0  0  0  0  0  0  0  0
  1  2  2  0  0  0  0
  1  3  1  0  0  0  0
  1  7  1  0  0  0  0
  3  4  1  0  0  0  0
  3  5  1  0  0  0  0
  3  6  1  0  0  0  0
  7  8  1  0  0  0  0
  7 12  1  0  0  0  0
  8  9  1  0  0  0  0
  8 11  1  0  0  0  0
  8 13  1  0  0  0  0
  9 10  2  0  0  0  0
  9 17  1  0  0  0  0
 11 14  1  0  0  0  0
 11 15  1  0  0  0  0
 11 16  1  0  0  0  0
 17 18  1  0  0  0  0
 17 21  1  0  0  0  0
 18 19  1  0  0  0  0
 18 22  1  0  0  0  0
 18 23  1  0  0  0  0
 19 20  2  0  0  0  0
 19 24  1  0  0  0  0
 24 25  1  0  0  0  0
 24 29  1  0  0  0  0
 25 26  1  0  0  0  0
 25 28  1  0  0  0  0
 25 30  1  0  0  0  0
 26 27  2  0  0  0  0
 26 34  1  0  0  0  0
 28 31  1  0  0  0  0
 28 32  1  0  0  0  0
 28 33  1  0  0  0  0
 34 35  1  0  0  0  0
 34 36  1  0  0  0  0
 35 37  1  0  0  0  0
 35 38  1  0  0  0  0
 35 39  1  0  0  0  0
M  END
$$$$

  -OEChem-05262216283D

 39 38  0     1  0  0  0  0  0999 V2000
   -3.5807   -3.6588   -2.8849 C   0  0  0  0  0  0  0  0  0  0  0  0
   -2.8237   -4.3033   -2.1744 O   0  0  0  0  0  0  0  0  0  0  0  0
   -4.9001   -4.2548   -3.3370 C   0  0  0  0  0  0  0  0  0  0  0  0
   -4.9556   -4.2557   -4.4282 H   0  0  0  0  0  0  0  0  0  0  0  0
   -4.9918   -5.2838   -2.9789 H   0  0  0  0  0  0  0  0  0  0  0  0
   -5.7304   -3.6673   -2.9374 H   0  0  0  0  0  0  0  0  0  0  0  0
   -3.2524   -2.3686   -3.2457 N   0  0  0  0  0  0  0  0  0  0  0  0
   -2.1353   -1.6446   -2.6279 C   0  0  2  0  0  0  0  0  0  0  0  0
   -2.5574   -0.9697   -1.3064 C   0  0  0  0  0  0  0  0  0  0  0  0
   -3.5728   -0.2909   -1.2794 O   0  0  0  0  0  0  0  0  0  0  0  0
   -1.6378   -0.5992   -3.6291 C   0  0  0  0  0  0  0  0  0  0  0  0
   -4.0070   -1.8098   -3.6373 H   0  0  0  0  0  0  0  0  0  0  0  0
   -1.3095   -2.3335   -2.4205 H   0  0  0  0  0  0  0  0  0  0  0  0
   -2.4309    0.1191   -3.8638 H   0  0  0  0  0  0  0  0  0  0  0  0
   -0.7865   -0.0502   -3.2150 H   0  0  0  0  0  0  0  0  0  0  0  0
   -1.3191   -1.0833   -4.5574 H   0  0  0  0  0  0  0  0  0  0  0  0
   -1.8159   -1.1652   -0.1544 N   0  0  0  0  0  0  0  0  0  0  0  0
   -1.8022   -0.3780    1.1048 C   0  0  0  0  0  0  0  0  0  0  0  0
   -2.3995    1.0434    1.2369 C   0  0  0  0  0  0  0  0  0  0  0  0
   -2.4534    1.5221    2.3622 O   0  0  0  0  0  0  0  0  0  0  0  0
   -1.0868   -1.8685   -0.2472 H   0  0  0  0  0  0  0  0  0  0  0  0
   -0.7573   -0.2824    1.4132 H   0  0  0  0  0  0  0  0  0  0  0  0
   -2.3123   -0.9829    1.8606 H   0  0  0  0  0  0  0  0  0  0  0  0
   -2.7366    1.8549    0.1711 N   0  0  0  0  0  0  0  0  0  0  0  0
   -3.3083    3.2009    0.2982 C   0  0  2  0  0  0  0  0  0  0  0  0
   -4.1706    3.5787   -0.9243 C   0  0  0  0  0  0  0  0  0  0  0  0
   -3.9046    3.1406   -2.0380 O   0  0  0  0  0  0  0  0  0  0  0  0
   -2.1659    4.2090    0.4599 C   0  0  0  0  0  0  0  0  0  0  0  0
   -2.9270    1.3623   -0.7068 H   0  0  0  0  0  0  0  0  0  0  0  0
   -3.9531    3.2390    1.1821 H   0  0  0  0  0  0  0  0  0  0  0  0
   -1.5084    4.1834   -0.4150 H   0  0  0  0  0  0  0  0  0  0  0  0
   -2.5628    5.2228    0.5684 H   0  0  0  0  0  0  0  0  0  0  0  0
   -1.5723    3.9745    1.3490 H   0  0  0  0  0  0  0  0  0  0  0  0
   -5.2331    4.4524   -0.7796 N   0  0  0  0  0  0  0  0  0  0  0  0
   -6.0985    4.8494   -1.8834 C   0  0  0  0  0  0  0  0  0  0  0  0
   -5.4501    4.7760    0.1583 H   0  0  0  0  0  0  0  0  0  0  0  0
   -5.5176    5.3529   -2.6634 H   0  0  0  0  0  0  0  0  0  0  0  0
   -6.5894    3.9729   -2.3195 H   0  0  0  0  0  0  0  0  0  0  0  0
   -6.8715    5.5384   -1.5296 H   0  0  0  0  0  0  0  0  0  0  0  0
  1  2  2  0  0  0  0
  1  3  1  0  0  0  0
  1  7  1  0  0  0  0
  3  4  1  0  0  0  0
  3  5  1  0  0  0  0
  3  6  1  0  0  0  0
  7  8  1  0  0  0  0
  7 12  1  0  0  0  0
  8  9  1  0  0  0  0
  8 11  1  0  0  0  0
  8 13  1  0  0  0  0
  9 10  2  0  0  0  0
  9 17  1  0  0  0  0
 11 14  1  0  0  0  0
 11 15  1  0  0  0  0
 11 16  1  0  0  0  0
 17 18  1  0  0  0  0
 17 21  1  0  0  0  0
 18 19  1  0  0  0  0
 18 22  1  0  0  0  0
 18 23  1  0  0  0  0
 19 20  2  0  0  0  0
 19 24  1  0  0  0  0
 24 25  1  0  0  0  0
 24 29  1  0  0  0  0
 25 26  1  0  0  0  0
 25 28  1  0  0  0  0
 25 30  1  0  0  0  0
 26 27  2  0  0  0  0
 26 34  1  0  0  0  0
 28 31  1  0  0  0  0
 28 32  1  0  0  0  0
 28 33  1  0  0  0  0
 34 35  1  0  0  0  0
 34 36  1  0  0  0  0
 35 37  1  0  0  0  0
 35 38  1  0  0  0  0
 35 39  1  0  0  0  0
M  END
$$$$

  -OEChem-05262216283D

 39 38  0     1  0  0  0  0  0999 V2000
   -3.5310   -3.5812   -2.4058 C   0  0  0  0  0  0  0  0  0  0  0  0
   -2.3864   -3.5077   -1.9839 O   0  0  0  0  0  0  0  0  0  0  0  0
   -4.2556   -4.9134   -2.4337 C   0  0  0  0  0  0  0  0  0  0  0  0
   -4.5824   -5.1412   -3.4513 H   0  0  0  0  0  0  0  0  0  0  0  0
   -3.5904   -5.7114   -2.0915 H   0  0  0  0  0  0  0  0  0  0  0  0
   -5.1283   -4.8775   -1.7769 H   0  0  0  0  0  0  0  0  0  0  0  0
   -4.1786   -2.4269   -2.7963 N   0  0  0  0  0  0  0  0  0  0  0  0
   -3.5556   -1.0936   -2.7908 C   0  0  2  0  0  0  0  0  0  0  0  0
   -3.4726   -0.4772   -1.3717 C   0  0  0  0  0  0  0  0  0  0  0  0
   -4.1785    0.4688   -1.0576 O   0  0  0  0  0  0  0  0  0  0  0  0
   -4.3362   -0.2166   -3.7792 C   0  0  0  0  0  0  0  0  0  0  0  0
   -5.1553   -2.5073   -3.0656 H   0  0  0  0  0  0  0  0  0  0  0  0
   -2.5279   -1.1724   -3.1629 H   0  0  0  0  0  0  0  0  0  0  0  0
   -5.3787   -0.1096   -3.4626 H   0  0  0  0  0  0  0  0  0  0  0  0
   -3.8870    0.7802   -3.8378 H   0  0  0  0  0  0  0  0  0  0  0  0
   -4.3182   -0.6606   -4.7793 H   0  0  0  0  0  0  0  0  0  0  0  0
   -2.7262   -1.1218   -0.4068 N   0  0  0  0  0  0  0  0  0  0  0  0
   -1.9932   -0.5531    0.7477 C   0  0  0  0  0  0  0  0  0  0  0  0
   -1.6376    0.9446    0.9282 C   0  0  0  0  0  0  0  0  0  0  0  0
   -0.6899    1.1916    1.6558 O   0  0  0  0  0  0  0  0  0  0  0  0
   -2.3387   -2.0022   -0.7621 H   0  0  0  0  0  0  0  0  0  0  0  0
   -1.0414   -1.0897    0.8044 H   0  0  0  0  0  0  0  0  0  0  0  0
   -2.5661   -0.8211    1.6398 H   0  0  0  0  0  0  0  0  0  0  0  0
   -1.9129    2.0071    0.0999 N   0  0  0  0  0  0  0  0  0  0  0  0
   -3.0767    2.8536    0.4142 C   0  0  2  0  0  0  0  0  0  0  0  0
   -3.4856    3.7198   -0.8000 C   0  0  0  0  0  0  0  0  0  0  0  0
   -3.0296    4.8454   -0.9652 O   0  0  0  0  0  0  0  0  0  0  0  0
   -2.7515    3.7278    1.6367 C   0  0  0  0  0  0  0  0  0  0  0  0
   -1.0707    2.5730    0.0214 H   0  0  0  0  0  0  0  0  0  0  0  0
   -3.9365    2.2299    0.6762 H   0  0  0  0  0  0  0  0  0  0  0  0
   -1.8583    4.3333    1.4519 H   0  0  0  0  0  0  0  0  0  0  0  0
   -3.5866    4.4009    1.8538 H   0  0  0  0  0  0  0  0  0  0  0  0
   -2.5730    3.1078    2.5203 H   0  0  0  0  0  0  0  0  0  0  0  0
   -4.3736    3.2163   -1.7282 N   0  0  0  0  0  0  0  0  0  0  0  0
   -4.7382    3.9065   -2.9573 C   0  0  0  0  0  0  0  0  0  0  0  0
   -4.6030    2.2247   -1.6228 H   0  0  0  0  0  0  0  0  0  0  0  0
   -5.1775    4.8840   -2.7318 H   0  0  0  0  0  0  0  0  0  0  0  0
   -3.8564    4.0533   -3.5895 H   0  0  0  0  0  0  0  0  0  0  0  0
   -5.4734    3.3186   -3.5150 H   0  0  0  0  0  0  0  0  0  0  0  0
  1  2  2  0  0  0  0
  1  3  1  0  0  0  0
  1  7  1  0  0  0  0
  3  4  1  0  0  0  0
  3  5  1  0  0  0  0
  3  6  1  0  0  0  0
  7  8  1  0  0  0  0
  7 12  1  0  0  0  0
  8  9  1  0  0  0  0
  8 11  1  0  0  0  0
  8 13  1  0  0  0  0
  9 10  2  0  0  0  0
  9 17  1  0  0  0  0
 11 14  1  0  0  0  0
 11 15  1  0  0  0  0
 11 16  1  0  0  0  0
 17 18  1  0  0  0  0
 17 21  1  0  0  0  0
 18 19  1  0  0  0  0
 18 22  1  0  0  0  0
 18 23  1  0  0  0  0
 19 20  2  0  0  0  0
 19 24  1  0  0  0  0
 24 25  1  0  0  0  0
 24 29  1  0  0  0  0
 25 26  1  0  0  0  0
 25 28  1  0  0  0  0
 25 30  1  0  0  0  0
 26 27  2  0  0  0  0
 26 34  1  0  0  0  0
 28 31  1  0  0  0  0
 28 32  1  0  0  0  0
 28 33  1  0  0  0  0
 34 35  1  0  0  0  0
 34 36  1  0  0  0  0
 35 37  1  0  0  0  0
 35 38  1  0  0  0  0
 35 39  1  0  0  0  0
M  END
$$$$

  -OEChem-05262216283D

 39 38  0     1  0  0  0  0  0999 V2000
   -3.4076   -4.6360   -2.7104 C   0  0  0  0  0  0  0  0  0  0  0  0
   -2.4043   -5.0138   -3.2941 O   0  0  0  0  0  0  0  0  0  0  0  0
   -4.4855   -5.6303   -2.3218 C   0  0  0  0  0  0  0  0  0  0  0  0
   -5.4259   -5.3737   -2.8158 H   0  0  0  0  0  0  0  0  0  0  0  0
   -4.1933   -6.6401   -2.6236 H   0  0  0  0  0  0  0  0  0  0  0  0
   -4.6342   -5.6159   -1.2394 H   0  0  0  0  0  0  0  0  0  0  0  0
   -3.5559   -3.3020   -2.3940 N   0  0  0  0  0  0  0  0  0  0  0  0
   -2.5189   -2.2818   -2.6012 C   0  0  2  0  0  0  0  0  0  0  0  0
   -2.5560   -1.1854   -1.5143 C   0  0  0  0  0  0  0  0  0  0  0  0
   -3.5253   -1.1135   -0.7728 O   0  0  0  0  0  0  0  0  0  0  0  0
   -2.7240   -1.6657   -3.9886 C   0  0  0  0  0  0  0  0  0  0  0  0
   -4.3466   -3.0469   -1.8038 H   0  0  0  0  0  0  0  0  0  0  0  0
   -1.5293   -2.7502   -2.5587 H   0  0  0  0  0  0  0  0  0  0  0  0
   -3.6988   -1.1706   -4.0482 H   0  0  0  0  0  0  0  0  0  0  0  0
   -1.9447   -0.9280   -4.2024 H   0  0  0  0  0  0  0  0  0  0  0  0
   -2.6812   -2.4433   -4.7583 H   0  0  0  0  0  0  0  0  0  0  0  0
   -1.4549   -0.3611   -1.3443 N   0  0  0  0  0  0  0  0  0  0  0  0
   -1.2780    0.9040   -0.5817 C   0  0  0  0  0  0  0  0  0  0  0  0
   -2.4166    1.7993   -0.0309 C   0  0  0  0  0  0  0  0  0  0  0  0
   -2.0954    2.9419    0.2666 O   0  0  0  0  0  0  0  0  0  0  0  0
   -0.6887   -0.5880   -1.9740 H   0  0  0  0  0  0  0  0  0  0  0  0
   -0.6745    1.5632   -1.2133 H   0  0  0  0  0  0  0  0  0  0  0  0
   -0.6717    0.6526    0.2935 H   0  0  0  0  0  0  0  0  0  0  0  0
   -3.7439    1.4357    0.1001 N   0  0  0  0  0  0  0  0  0  0  0  0
   -4.8597    2.2267    0.6600 C   0  0  2  0  0  0  0  0  0  0  0  0
   -5.2889    3.4501   -0.1828 C   0  0  0  0  0  0  0  0  0  0  0  0
   -6.4770    3.6400   -0.4103 O   0  0  0  0  0  0  0  0  0  0  0  0
   -4.5752    2.6350    2.1117 C   0  0  0  0  0  0  0  0  0  0  0  0
   -3.9458    0.4641   -0.1434 H   0  0  0  0  0  0  0  0  0  0  0  0
   -5.7293    1.5618    0.6819 H   0  0  0  0  0  0  0  0  0  0  0  0
   -3.7787    3.3828    2.1652 H   0  0  0  0  0  0  0  0  0  0  0  0
   -5.4756    3.0638    2.5626 H   0  0  0  0  0  0  0  0  0  0  0  0
   -4.2754    1.7624    2.6996 H   0  0  0  0  0  0  0  0  0  0  0  0
   -4.3610    4.3484   -0.6701 N   0  0  0  0  0  0  0  0  0  0  0  0
   -4.6984    5.5424   -1.4318 C   0  0  0  0  0  0  0  0  0  0  0  0
   -3.3872    4.1711   -0.4102 H   0  0  0  0  0  0  0  0  0  0  0  0
   -5.2413    5.2731   -2.3437 H   0  0  0  0  0  0  0  0  0  0  0  0
   -5.3229    6.2141   -0.8339 H   0  0  0  0  0  0  0  0  0  0  0  0
   -3.7873    6.0772   -1.7165 H   0  0  0  0  0  0  0  0  0  0  0  0
  1  2  2  0  0  0  0
  1  3  1  0  0  0  0
  1  7  1  0  0  0  0
  3  4  1  0  0  0  0
  3  5  1  0  0  0  0
  3  6  1  0  0  0  0
  7  8  1  0  0  0  0
  7 12  1  0  0  0  0
  8  9  1  0  0  0  0
  8 11  1  0  0  0  0
  8 13  1  0  0  0  0
  9 10  2  0  0  0  0
  9 17  1  0  0  0  0
 11 14  1  0  0  0  0
 11 15  1  0  0  0  0
 11 16  1  0  0  0  0
 17 18  1  0  0  0  0
 17 21  1  0  0  0  0
 18 19  1  0  0  0  0
 18 22  1  0  0  0  0
 18 23  1  0  0  0  0
 19 20  2  0  0  0  0
 19 24  1  0  0  0  0
 24 25  1  0  0  0  0
 24 29  1  0  0  0  0
 25 26  1  0  0  0  0
 25 28  1  0  0  0  0
 25 30  1  0  0  0  0
 26 27  2  0  0  0  0
 26 34  1  0  0  0  0
 28 31  1  0  0  0  0
 28 32  1  0  0  0  0
 28 33  1  0  0  0  0
 34 35  1  0  0  0  0
 34 36  1  0  0  0  0
 35 37  1  0  0  0  0
 35 38  1  0  0  0  0
 35 39  1  0  0  0  0
M  END
$$$$

  -OEChem-05262216283D

 39 38  0     1  0  0  0  0  0999 V2000
   -2.5602   -4.0494   -2.7333 C   0  0  0  0  0  0  0  0  0  0  0  0
   -1.5964   -3.3002   -2.6764 O   0  0  0  0  0  0  0  0  0  0  0  0
   -2.3749   -5.5510   -2.6270 C   0  0  0  0  0  0  0  0  0  0  0  0
   -2.7149   -6.0356   -3.5455 H   0  0  0  0  0  0  0  0  0  0  0  0
   -1.3186   -5.7897   -2.4736 H   0  0  0  0  0  0  0  0  0  0  0  0
   -2.9492   -5.9413   -1.7833 H   0  0  0  0  0  0  0  0  0  0  0  0
   -3.8255   -3.5105   -2.8464 N   0  0  0  0  0  0  0  0  0  0  0  0
   -4.0990   -2.0736   -3.0126 C   0  0  2  0  0  0  0  0  0  0  0  0
   -3.9862   -1.2792   -1.6859 C   0  0  0  0  0  0  0  0  0  0  0  0
   -4.9691   -0.7464   -1.1944 O   0  0  0  0  0  0  0  0  0  0  0  0
   -5.4790   -1.9466   -3.6716 C   0  0  0  0  0  0  0  0  0  0  0  0
   -4.6106   -4.1562   -2.8388 H   0  0  0  0  0  0  0  0  0  0  0  0
   -3.3654   -1.6436   -3.7038 H   0  0  0  0  0  0  0  0  0  0  0  0
   -6.2592   -2.3522   -3.0194 H   0  0  0  0  0  0  0  0  0  0  0  0
   -5.7076   -0.8946   -3.8711 H   0  0  0  0  0  0  0  0  0  0  0  0
   -5.5000   -2.4882   -4.6220 H   0  0  0  0  0  0  0  0  0  0  0  0
   -2.7661   -1.2562   -1.0322 N   0  0  0  0  0  0  0  0  0  0  0  0
   -2.2356   -0.3841    0.0467 C   0  0  0  0  0  0  0  0  0  0  0  0
   -2.8588    0.9651    0.4826 C   0  0  0  0  0  0  0  0  0  0  0  0
   -2.0840    1.8041    0.9239 O   0  0  0  0  0  0  0  0  0  0  0  0
   -2.0647   -1.8300   -1.5129 H   0  0  0  0  0  0  0  0  0  0  0  0
   -1.1982   -0.1593   -0.2197 H   0  0  0  0  0  0  0  0  0  0  0  0
   -2.2095   -0.9939    0.9540 H   0  0  0  0  0  0  0  0  0  0  0  0
   -4.2022    1.2835    0.4110 N   0  0  0  0  0  0  0  0  0  0  0  0
   -4.8739    2.5329    0.8252 C   0  0  2  0  0  0  0  0  0  0  0  0
   -4.5203    3.7787   -0.0192 C   0  0  0  0  0  0  0  0  0  0  0  0
   -5.4144    4.5165   -0.4147 O   0  0  0  0  0  0  0  0  0  0  0  0
   -4.6613    2.8099    2.3200 C   0  0  0  0  0  0  0  0  0  0  0  0
   -4.7834    0.5734   -0.0412 H   0  0  0  0  0  0  0  0  0  0  0  0
   -5.9469    2.3698    0.6813 H   0  0  0  0  0  0  0  0  0  0  0  0
   -3.6233    3.0828    2.5307 H   0  0  0  0  0  0  0  0  0  0  0  0
   -5.3022    3.6368    2.6413 H   0  0  0  0  0  0  0  0  0  0  0  0
   -4.9167    1.9249    2.9099 H   0  0  0  0  0  0  0  0  0  0  0  0
   -3.2091    4.0983   -0.3092 N   0  0  0  0  0  0  0  0  0  0  0  0
   -2.7995    5.2833   -1.0485 C   0  0  0  0  0  0  0  0  0  0  0  0
   -2.4986    3.4783    0.0886 H   0  0  0  0  0  0  0  0  0  0  0  0
   -3.2097    5.2607   -2.0634 H   0  0  0  0  0  0  0  0  0  0  0  0
   -3.1512    6.1896   -0.5447 H   0  0  0  0  0  0  0  0  0  0  0  0
   -1.7083    5.3261   -1.1159 H   0  0  0  0  0  0  0  0  0  0  0  0
  1  2  2  0  0  0  0
  1  3  1  0  0  0  0
  1  7  1  0  0  0  0
  3  4  1  0  0  0  0
  3  5  1  0  0  0  0
  3  6  1  0  0  0  0
  7  8  1  0  0  0  0
  7 12  1  0  0  0  0
  8  9  1  0  0  0  0
  8 11  1  0  0  0  0
  8 13  1  0  0  0  0
  9 10  2  0  0  0  0
  9 17  1  0  0  0  0
 11 14  1  0  0  0  0
 11 15  1  0  0  0  0
 11 16  1  0  0  0  0
 17 18  1  0  0  0  0
 17 21  1  0  0  0  0
 18 19  1  0  0  0  0
 18 22  1  0  0  0  0
 18 23  1  0  0  0  0
 19 20  2  0  0  0  0
 19 24  1  0  0  0  0
 24 25  1  0  0  0  0
 24 29  1  0  0  0  0
 25 26  1  0  0  0  0
 25 28  1  0  0  0  0
 25 30  1  0  0  0  0
 26 27  2  0  0  0  0
 26 34  1  0  0  0  0
 28 31  1  0  0  0  0
 28 32  1  0  0  0  0
 28 33  1  0  0  0  0
 34 35  1  0  0  0  0
 34 36  1  0  0  0  0
 35 37  1  0  0  0  0
 35 38  1  0  0  0  0
 35 39  1  0  0  0  0
M  END
$$$$

  -OEChem-05262216283D

 39 38  0     1  0  0  0  0  0999 V2000
   -4.4284   -2.9738   -2.6280 C   0  0  0  0  0  0  0  0  0  0  0  0
   -3.8924   -3.5630   -3.5546 O   0  0  0  0  0  0  0  0  0  0  0  0
   -5.8271   -3.3555   -2.1826 C   0  0  0  0  0  0  0  0  0  0  0  0
   -6.4855   -2.4852   -2.2380 H   0  0  0  0  0  0  0  0  0  0  0  0
   -6.2278   -4.1445   -2.8243 H   0  0  0  0  0  0  0  0  0  0  0  0
   -5.8027   -3.7149   -1.1509 H   0  0  0  0  0  0  0  0  0  0  0  0
   -3.7691   -1.9455   -1.9915 N   0  0  0  0  0  0  0  0  0  0  0  0
   -2.3719   -1.5652   -2.2503 C   0  0  2  0  0  0  0  0  0  0  0  0
   -1.6951   -0.9848   -0.9870 C   0  0  0  0  0  0  0  0  0  0  0  0
   -1.9009   -1.4898    0.1076 O   0  0  0  0  0  0  0  0  0  0  0  0
   -2.3658   -0.5783   -3.4271 C   0  0  0  0  0  0  0  0  0  0  0  0
   -4.2532   -1.5345   -1.1865 H   0  0  0  0  0  0  0  0  0  0  0  0
   -1.7974   -2.4543   -2.5329 H   0  0  0  0  0  0  0  0  0  0  0  0
   -2.8702    0.3531   -3.1513 H   0  0  0  0  0  0  0  0  0  0  0  0
   -1.3416   -0.3498   -3.7358 H   0  0  0  0  0  0  0  0  0  0  0  0
   -2.8871   -1.0122   -4.2867 H   0  0  0  0  0  0  0  0  0  0  0  0
   -0.8397    0.1038   -1.0477 N   0  0  0  0  0  0  0  0  0  0  0  0
   -0.9209    1.3155   -0.1912 C   0  0  0  0  0  0  0  0  0  0  0  0
   -2.1965    1.6256    0.6293 C   0  0  0  0  0  0  0  0  0  0  0  0
   -2.7377    2.7036    0.4197 O   0  0  0  0  0  0  0  0  0  0  0  0
   -0.5621    0.3075   -2.0042 H   0  0  0  0  0  0  0  0  0  0  0  0
   -0.7299    2.1866   -0.8259 H   0  0  0  0  0  0  0  0  0  0  0  0
   -0.1007    1.2606    0.5304 H   0  0  0  0  0  0  0  0  0  0  0  0
   -2.8669    0.6716    1.3734 N   0  0  0  0  0  0  0  0  0  0  0  0
   -4.3194    0.6418    1.6203 C   0  0  2  0  0  0  0  0  0  0  0  0
   -5.1179    0.5378    0.3014 C   0  0  0  0  0  0  0  0  0  0  0  0
   -5.5096   -0.5567   -0.0901 O   0  0  0  0  0  0  0  0  0  0  0  0
   -4.7878    1.8074    2.5058 C   0  0  0  0  0  0  0  0  0  0  0  0
   -2.4186   -0.2496    1.3293 H   0  0  0  0  0  0  0  0  0  0  0  0
   -4.5289   -0.2760    2.1799 H   0  0  0  0  0  0  0  0  0  0  0  0
   -4.7092    2.7678    1.9894 H   0  0  0  0  0  0  0  0  0  0  0  0
   -5.8337    1.6619    2.7928 H   0  0  0  0  0  0  0  0  0  0  0  0
   -4.1827    1.8540    3.4162 H   0  0  0  0  0  0  0  0  0  0  0  0
   -5.2380    1.6268   -0.5390 N   0  0  0  0  0  0  0  0  0  0  0  0
   -5.7940    1.5503   -1.8837 C   0  0  0  0  0  0  0  0  0  0  0  0
   -4.6588    2.4330   -0.2893 H   0  0  0  0  0  0  0  0  0  0  0  0
   -5.2237    0.8461   -2.4980 H   0  0  0  0  0  0  0  0  0  0  0  0
   -6.8376    1.2206   -1.8470 H   0  0  0  0  0  0  0  0  0  0  0  0
   -5.7604    2.5341   -2.3617 H   0  0  0  0  0  0  0  0  0  0  0  0
  1  2  2  0  0  0  0
  1  3  1  0  0  0  0
  1  7  1  0  0  0  0
  3  4  1  0  0  0  0
  3  5  1  0  0  0  0
  3  6  1  0  0  0  0
  7  8  1  0  0  0  0
  7 12  1  0  0  0  0
  8  9  1  0  0  0  0
  8 11  1  0  0  0  0
  8 13  1  0  0  0  0
  9 10  2  0  0  0  0
  9 17  1  0  0  0  0
 11 14  1  0  0  0  0
 11 15  1  0  0  0  0
 11 16  1  0  0  0  0
 17 18  1  0  0  0  0
 17 21  1  0  0  0  0
 18 19  1  0  0  0  0
 18 22  1  0  0  0  0
 18 23  1  0  0  0  0
 19 20  2  0  0  0  0
 19 24  1  0  0  0  0
 24 25  1  0  0  0  0
 24 29  1  0  0  0  0
 25 26  1  0  0  0  0
 25 28  1  0  0  0  0
 25 30  1  0  0  0  0
 26 27  2  0  0  0  0
 26 34  1  0  0  0  0
 28 31  1  0  0  0  0
 28 32  1  0  0  0  0
 28 33  1  0  0  0  0
 34 35  1  0  0  0  0
 34 36  1  0  0  0  0
 35 37  1  0  0  0  0
 35 38  1  0  0  0  0
 35 39  1  0  0  0  0
M  END
$$$$

  -OEChem-05262216283D

 39 38  0     1  0  0  0  0  0999 V2000
   -1.7545   -3.7369   -2.8966 C   0  0  0  0  0  0  0  0  0  0  0  0
   -0.8477   -3.6245   -2.0849 O   0  0  0  0  0  0  0  0  0  0  0  0
   -2.2549   -5.1100   -3.3032 C   0  0  0  0  0  0  0  0  0  0  0  0
   -2.2133   -5.2178   -4.3900 H   0  0  0  0  0  0  0  0  0  0  0  0
   -1.6337   -5.8873   -2.8490 H   0  0  0  0  0  0  0  0  0  0  0  0
   -3.2867   -5.2457   -2.9699 H   0  0  0  0  0  0  0  0  0  0  0  0
   -2.3579   -2.6009   -3.3959 N   0  0  0  0  0  0  0  0  0  0  0  0
   -1.9431   -1.2298   -3.0574 C   0  0  2  0  0  0  0  0  0  0  0  0
   -2.4427   -0.7825   -1.6601 C   0  0  0  0  0  0  0  0  0  0  0  0
   -3.2534    0.1243   -1.5512 O   0  0  0  0  0  0  0  0  0  0  0  0
   -2.4301   -0.3136   -4.1883 C   0  0  0  0  0  0  0  0  0  0  0  0
   -3.1619   -2.7277   -4.0045 H   0  0  0  0  0  0  0  0  0  0  0  0
   -0.8491   -1.1754   -3.0378 H   0  0  0  0  0  0  0  0  0  0  0  0
   -3.5234   -0.3210   -4.2480 H   0  0  0  0  0  0  0  0  0  0  0  0
   -2.1013    0.7153   -4.0096 H   0  0  0  0  0  0  0  0  0  0  0  0
   -2.0238   -0.6422   -5.1496 H   0  0  0  0  0  0  0  0  0  0  0  0
   -1.9887   -1.4720   -0.5483 N   0  0  0  0  0  0  0  0  0  0  0  0
   -2.2155   -1.2268    0.8962 C   0  0  0  0  0  0  0  0  0  0  0  0
   -2.7741    0.1139    1.4187 C   0  0  0  0  0  0  0  0  0  0  0  0
   -2.1837    0.6793    2.3308 O   0  0  0  0  0  0  0  0  0  0  0  0
   -1.3664   -2.2513   -0.7863 H   0  0  0  0  0  0  0  0  0  0  0  0
   -1.2584   -1.3804    1.4040 H   0  0  0  0  0  0  0  0  0  0  0  0
   -2.9002   -1.9993    1.2567 H   0  0  0  0  0  0  0  0  0  0  0  0
   -4.0087    0.5935    1.0322 N   0  0  0  0  0  0  0  0  0  0  0  0
   -4.6073    1.8450    1.5116 C   0  0  2  0  0  0  0  0  0  0  0  0
   -6.1487    1.8437    1.4094 C   0  0  0  0  0  0  0  0  0  0  0  0
   -6.7368    1.0573    0.6753 O   0  0  0  0  0  0  0  0  0  0  0  0
   -4.0218    2.9982    0.6898 C   0  0  0  0  0  0  0  0  0  0  0  0
   -4.3464    0.2352    0.1348 H   0  0  0  0  0  0  0  0  0  0  0  0
   -4.3529    1.9874    2.5670 H   0  0  0  0  0  0  0  0  0  0  0  0
   -4.2463    2.8604   -0.3730 H   0  0  0  0  0  0  0  0  0  0  0  0
   -4.4408    3.9548    1.0144 H   0  0  0  0  0  0  0  0  0  0  0  0
   -2.9351    3.0389    0.8124 H   0  0  0  0  0  0  0  0  0  0  0  0
   -6.8911    2.7461    2.1506 N   0  0  0  0  0  0  0  0  0  0  0  0
   -8.3476    2.8031    2.1175 C   0  0  0  0  0  0  0  0  0  0  0  0
   -6.3850    3.3759    2.7661 H   0  0  0  0  0  0  0  0  0  0  0  0
   -8.6984    3.0385    1.1072 H   0  0  0  0  0  0  0  0  0  0  0  0
   -8.7755    1.8427    2.4242 H   0  0  0  0  0  0  0  0  0  0  0  0
   -8.7123    3.5773    2.7992 H   0  0  0  0  0  0  0  0  0  0  0  0
  1  2  2  0  0  0  0
  1  3  1  0  0  0  0
  1  7  1  0  0  0  0
  3  4  1  0  0  0  0
  3  5  1  0  0  0  0
  3  6  1  0  0  0  0
  7  8  1  0  0  0  0
  7 12  1  0  0  0  0
  8  9  1  0  0  0  0
  8 11  1  0  0  0  0
  8 13  1  0  0  0  0
  9 10  2  0  0  0  0
  9 17  1  0  0  0  0
 11 14  1  0  0  0  0
 11 15  1  0  0  0  0
 11 16  1  0  0  0  0
 17 18  1  0  0  0  0
 17 21  1  0  0  0  0
 18 19  1  0  0  0  0
 18 22  1  0  0  0  0
 18 23  1  0  0  0  0
 19 20  2  0  0  0  0
 19 24  1  0  0  0  0
 24 25  1  0  0  0  0
 24 29  1  0  0  0  0
 25 26  1  0  0  0  0
 25 28  1  0  0  0  0
 25 30  1  0  0  0  0
 26 27  2  0  0  0  0
 26 34  1  0  0  0  0
 28 31  1  0  0  0  0
 28 32  1  0  0  0  0
 28 33  1  0  0  0  0
 34 35  1  0  0  0  0
 34 36  1  0  0  0  0
 35 37  1  0  0  0  0
 35 38  1  0  0  0  0
 35 39  1  0  0  0  0
M  END
$$$$

  -OEChem-05262216283D

 39 38  0     1  0  0  0  0  0999 V2000
   -1.7168   -3.5918   -3.0498 C   0  0  0  0  0  0  0  0  0  0  0  0
   -0.7722   -3.4638   -2.2847 O   0  0  0  0  0  0  0  0  0  0  0  0
   -2.1372   -4.9683   -3.5290 C   0  0  0  0  0  0  0  0  0  0  0  0
   -2.0954   -5.0135   -4.6203 H   0  0  0  0  0  0  0  0  0  0  0  0
   -1.4679   -5.7300   -3.1188 H   0  0  0  0  0  0  0  0  0  0  0  0
   -3.1572   -5.1842   -3.2013 H   0  0  0  0  0  0  0  0  0  0  0  0
   -2.4336   -2.4763   -3.4316 N   0  0  0  0  0  0  0  0  0  0  0  0
   -2.1054   -1.1032   -3.0171 C   0  0  2  0  0  0  0  0  0  0  0  0
   -2.5488   -0.7957   -1.5645 C   0  0  0  0  0  0  0  0  0  0  0  0
   -3.4319    0.0189   -1.3396 O   0  0  0  0  0  0  0  0  0  0  0  0
   -2.7346   -0.1560   -4.0475 C   0  0  0  0  0  0  0  0  0  0  0  0
   -3.2598   -2.6246   -4.0048 H   0  0  0  0  0  0  0  0  0  0  0  0
   -1.0197   -0.9602   -3.0570 H   0  0  0  0  0  0  0  0  0  0  0  0
   -3.8251   -0.2540   -4.0461 H   0  0  0  0  0  0  0  0  0  0  0  0
   -2.4810    0.8826   -3.8112 H   0  0  0  0  0  0  0  0  0  0  0  0
   -2.3632   -0.3808   -5.0521 H   0  0  0  0  0  0  0  0  0  0  0  0
   -1.9719   -1.5140   -0.5307 N   0  0  0  0  0  0  0  0  0  0  0  0
   -2.0582   -1.2802    0.9288 C   0  0  0  0  0  0  0  0  0  0  0  0
   -2.5730    0.0714    1.4614 C   0  0  0  0  0  0  0  0  0  0  0  0
   -1.8065    0.8037    2.0752 O   0  0  0  0  0  0  0  0  0  0  0  0
   -1.2969   -2.2168   -0.8488 H   0  0  0  0  0  0  0  0  0  0  0  0
   -1.0574   -1.4230    1.3479 H   0  0  0  0  0  0  0  0  0  0  0  0
   -2.7016   -2.0531    1.3579 H   0  0  0  0  0  0  0  0  0  0  0  0
   -3.9169    0.3840    1.4207 N   0  0  0  0  0  0  0  0  0  0  0  0
   -4.4911    1.6512    1.8871 C   0  0  2  0  0  0  0  0  0  0  0  0
   -6.0066    1.5418    2.1633 C   0  0  0  0  0  0  0  0  0  0  0  0
   -6.6623    0.5992    1.7324 O   0  0  0  0  0  0  0  0  0  0  0  0
   -4.2262    2.7241    0.8241 C   0  0  0  0  0  0  0  0  0  0  0  0
   -4.4653   -0.1419    0.7391 H   0  0  0  0  0  0  0  0  0  0  0  0
   -4.0070    1.9429    2.8247 H   0  0  0  0  0  0  0  0  0  0  0  0
   -4.6856    2.4385   -0.1279 H   0  0  0  0  0  0  0  0  0  0  0  0
   -4.6393    3.6876    1.1360 H   0  0  0  0  0  0  0  0  0  0  0  0
   -3.1504    2.8470    0.6657 H   0  0  0  0  0  0  0  0  0  0  0  0
   -6.6476    2.5177    2.9054 N   0  0  0  0  0  0  0  0  0  0  0  0
   -8.0707    2.4795    3.2197 C   0  0  0  0  0  0  0  0  0  0  0  0
   -6.0818    3.2802    3.2661 H   0  0  0  0  0  0  0  0  0  0  0  0
   -8.6651    2.4153    2.3021 H   0  0  0  0  0  0  0  0  0  0  0  0
   -8.2995    1.6129    3.8490 H   0  0  0  0  0  0  0  0  0  0  0  0
   -8.3649    3.3863    3.7567 H   0  0  0  0  0  0  0  0  0  0  0  0
  1  2  2  0  0  0  0
  1  3  1  0  0  0  0
  1  7  1  0  0  0  0
  3  4  1  0  0  0  0
  3  5  1  0  0  0  0
  3  6  1  0  0  0  0
  7  8  1  0  0  0  0
  7 12  1  0  0  0  0
  8  9  1  0  0  0  0
  8 11  1  0  0  0  0
  8 13  1  0  0  0  0
  9 10  2  0  0  0  0
  9 17  1  0  0  0  0
 11 14  1  0  0  0  0
 11 15  1  0  0  0  0
 11 16  1  0  0  0  0
 17 18  1  0  0  0  0
 17 21  1  0  0  0  0
 18 19  1  0  0  0  0
 18 22  1  0  0  0  0
 18 23  1  0  0  0  0
 19 20  2  0  0  0  0
 19 24  1  0  0  0  0
 24 25  1  0  0  0  0
 24 29  1  0  0  0  0
 25 26  1  0  0  0  0
 25 28  1  0  0  0  0
 25 30  1  0  0  0  0
 26 27  2  0  0  0  0
 26 34  1  0  0  0  0
 28 31  1  0  0  0  0
 28 32  1  0  0  0  0
 28 33  1  0  0  0  0
 34 35  1  0  0  0  0
 34 36  1  0  0  0  0
 35 37  1  0  0  0  0
 35 38  1  0  0  0  0
 35 39  1  0  0  0  0
M  END
$$$$

  -OEChem-05262216283D

 39 38  0     1  0  0  0  0  0999 V2000
   -2.0082   -3.2973   -3.5122 C   0  0  0  0  0  0  0  0  0  0  0  0
   -1.0670   -3.3492   -2.7344 O   0  0  0  0  0  0  0  0  0  0  0  0
   -2.4850   -4.5500   -4.2217 C   0  0  0  0  0  0  0  0  0  0  0  0
   -2.4150   -4.4159   -5.3038 H   0  0  0  0  0  0  0  0  0  0  0  0
   -1.8676   -5.4051   -3.9325 H   0  0  0  0  0  0  0  0  0  0  0  0
   -3.5232   -4.7603   -3.9535 H   0  0  0  0  0  0  0  0  0  0  0  0
   -2.6698   -2.1006   -3.6967 N   0  0  0  0  0  0  0  0  0  0  0  0
   -2.2832   -0.8355   -3.0510 C   0  0  2  0  0  0  0  0  0  0  0  0
   -2.7200   -0.7610   -1.5658 C   0  0  0  0  0  0  0  0  0  0  0  0
   -3.5255    0.0785   -1.1877 O   0  0  0  0  0  0  0  0  0  0  0  0
   -2.8588    0.3050   -3.9011 C   0  0  0  0  0  0  0  0  0  0  0  0
   -3.4943   -2.1093   -4.2907 H   0  0  0  0  0  0  0  0  0  0  0  0
   -1.1919   -0.7393   -3.0657 H   0  0  0  0  0  0  0  0  0  0  0  0
   -3.9526    0.2618   -3.9163 H   0  0  0  0  0  0  0  0  0  0  0  0
   -2.5574    1.2732   -3.4883 H   0  0  0  0  0  0  0  0  0  0  0  0
   -2.4903    0.2402   -4.9294 H   0  0  0  0  0  0  0  0  0  0  0  0
   -2.2425   -1.7160   -0.6838 N   0  0  0  0  0  0  0  0  0  0  0  0
   -2.2553   -1.6667    0.7937 C   0  0  0  0  0  0  0  0  0  0  0  0
   -2.5210   -0.3148    1.4801 C   0  0  0  0  0  0  0  0  0  0  0  0
   -1.5756    0.3533    1.8805 O   0  0  0  0  0  0  0  0  0  0  0  0
   -1.6037   -2.3887   -1.1195 H   0  0  0  0  0  0  0  0  0  0  0  0
   -1.2850   -2.0204    1.1547 H   0  0  0  0  0  0  0  0  0  0  0  0
   -3.0103   -2.3703    1.1546 H   0  0  0  0  0  0  0  0  0  0  0  0
   -3.8086    0.0758    1.7904 N   0  0  0  0  0  0  0  0  0  0  0  0
   -4.1590    1.3604    2.4061 C   0  0  2  0  0  0  0  0  0  0  0  0
   -5.5530    1.3285    3.0669 C   0  0  0  0  0  0  0  0  0  0  0  0
   -6.3616    0.4485    2.7909 O   0  0  0  0  0  0  0  0  0  0  0  0
   -4.1128    2.4470    1.3254 C   0  0  0  0  0  0  0  0  0  0  0  0
   -4.5614   -0.4351    1.3318 H   0  0  0  0  0  0  0  0  0  0  0  0
   -3.4299    1.5963    3.1881 H   0  0  0  0  0  0  0  0  0  0  0  0
   -4.8260    2.2203    0.5262 H   0  0  0  0  0  0  0  0  0  0  0  0
   -4.3612    3.4240    1.7498 H   0  0  0  0  0  0  0  0  0  0  0  0
   -3.1115    2.5069    0.8875 H   0  0  0  0  0  0  0  0  0  0  0  0
   -5.9047    2.3010    3.9852 N   0  0  0  0  0  0  0  0  0  0  0  0
   -7.1939    2.3323    4.6646 C   0  0  0  0  0  0  0  0  0  0  0  0
   -5.2106    3.0081    4.2087 H   0  0  0  0  0  0  0  0  0  0  0  0
   -8.0085    2.4152    3.9374 H   0  0  0  0  0  0  0  0  0  0  0  0
   -7.3381    1.4199    5.2529 H   0  0  0  0  0  0  0  0  0  0  0  0
   -7.2450    3.1915    5.3404 H   0  0  0  0  0  0  0  0  0  0  0  0
  1  2  2  0  0  0  0
  1  3  1  0  0  0  0
  1  7  1  0  0  0  0
  3  4  1  0  0  0  0
  3  5  1  0  0  0  0
  3  6  1  0  0  0  0
  7  8  1  0  0  0  0
  7 12  1  0  0  0  0
  8  9  1  0  0  0  0
  8 11  1  0  0  0  0
  8 13  1  0  0  0  0
  9 10  2  0  0  0  0
  9 17  1  0  0  0  0
 11 14  1  0  0  0  0
 11 15  1  0  0  0  0
 11 16  1  0  0  0  0
 17 18  1  0  0  0  0
 17 21  1  0  0  0  0
 18 19  1  0  0  0  0
 18 22  1  0  0  0  0
 18 23  1  0  0  0  0
 19 20  2  0  0  0  0
 19 24  1  0  0  0  0
 24 25  1  0  0  0  0
 24 29  1  0  0  0  0
 25 26  1  0  0  0  0
 25 28  1  0  0  0  0
 25 30  1  0  0  0  0
 26 27  2  0  0  0  0
 26 34  1  0  0  0  0
 28 31  1  0  0  0  0
 28 32  1  0  0  0  0
 28 33  1  0  0  0  0
 34 35  1  0  0  0  0
 34 36  1  0  0  0  0
 35 37  1  0  0  0  0
 35 38  1  0  0  0  0
 35 39  1  0  0  0  0
M  END
$$$$

  -OEChem-05262216283D

 39 38  0     1  0  0  0  0  0999 V2000
   -3.1912   -3.2605   -3.5399 C   0  0  0  0  0  0  0  0  0  0  0  0
   -2.1944   -3.8877   -3.2149 O   0  0  0  0  0  0  0  0  0  0  0  0
   -4.4788   -3.9918   -3.8696 C   0  0  0  0  0  0  0  0  0  0  0  0
   -4.8345   -3.6952   -4.8593 H   0  0  0  0  0  0  0  0  0  0  0  0
   -4.3112   -5.0726   -3.8647 H   0  0  0  0  0  0  0  0  0  0  0  0
   -5.2437   -3.7508   -3.1270 H   0  0  0  0  0  0  0  0  0  0  0  0
   -3.1610   -1.8814   -3.5640 N   0  0  0  0  0  0  0  0  0  0  0  0
   -2.0579   -1.1159   -2.9693 C   0  0  2  0  0  0  0  0  0  0  0  0
   -2.2700   -0.9063   -1.4558 C   0  0  0  0  0  0  0  0  0  0  0  0
   -3.3557   -0.5046   -1.0548 O   0  0  0  0  0  0  0  0  0  0  0  0
   -1.9666    0.2316   -3.6892 C   0  0  0  0  0  0  0  0  0  0  0  0
   -4.0669   -1.4218   -3.6097 H   0  0  0  0  0  0  0  0  0  0  0  0
   -1.1098   -1.6429   -3.1194 H   0  0  0  0  0  0  0  0  0  0  0  0
   -2.8964    0.7974   -3.5687 H   0  0  0  0  0  0  0  0  0  0  0  0
   -1.1451    0.8265   -3.2774 H   0  0  0  0  0  0  0  0  0  0  0  0
   -1.7844    0.0807   -4.7577 H   0  0  0  0  0  0  0  0  0  0  0  0
   -1.2642   -1.2371   -0.5616 N   0  0  0  0  0  0  0  0  0  0  0  0
   -1.1352   -0.7452    0.8270 C   0  0  0  0  0  0  0  0  0  0  0  0
   -1.9768    0.4780    1.2326 C   0  0  0  0  0  0  0  0  0  0  0  0
   -1.5762    1.6011    0.9510 O   0  0  0  0  0  0  0  0  0  0  0  0
   -0.4320   -1.6380   -0.9858 H   0  0  0  0  0  0  0  0  0  0  0  0
   -0.0888   -0.4833    1.0085 H   0  0  0  0  0  0  0  0  0  0  0  0
   -1.3870   -1.5633    1.5072 H   0  0  0  0  0  0  0  0  0  0  0  0
   -3.0973    0.3308    2.0258 N   0  0  0  0  0  0  0  0  0  0  0  0
   -3.9829    1.4278    2.4305 C   0  0  2  0  0  0  0  0  0  0  0  0
   -4.8533    1.0404    3.6445 C   0  0  0  0  0  0  0  0  0  0  0  0
   -4.9594   -0.1326    3.9877 O   0  0  0  0  0  0  0  0  0  0  0  0
   -4.8723    1.8043    1.2391 C   0  0  0  0  0  0  0  0  0  0  0  0
   -3.4325   -0.6164    2.1931 H   0  0  0  0  0  0  0  0  0  0  0  0
   -3.3778    2.2934    2.7191 H   0  0  0  0  0  0  0  0  0  0  0  0
   -5.4828    0.9485    0.9331 H   0  0  0  0  0  0  0  0  0  0  0  0
   -5.5367    2.6331    1.5001 H   0  0  0  0  0  0  0  0  0  0  0  0
   -4.2588    2.1120    0.3864 H   0  0  0  0  0  0  0  0  0  0  0  0
   -5.5203    2.0151    4.3641 N   0  0  0  0  0  0  0  0  0  0  0  0
   -6.3520    1.7234    5.5250 C   0  0  0  0  0  0  0  0  0  0  0  0
   -5.4139    2.9790    4.0618 H   0  0  0  0  0  0  0  0  0  0  0  0
   -7.1830    1.0674    5.2450 H   0  0  0  0  0  0  0  0  0  0  0  0
   -5.7610    1.2311    6.3045 H   0  0  0  0  0  0  0  0  0  0  0  0
   -6.7659    2.6485    5.9374 H   0  0  0  0  0  0  0  0  0  0  0  0
  1  2  2  0  0  0  0
  1  3  1  0  0  0  0
  1  7  1  0  0  0  0
  3  4  1  0  0  0  0
  3  5  1  0  0  0  0
  3  6  1  0  0  0  0
  7  8  1  0  0  0  0
  7 12  1  0  0  0  0
  8  9  1  0  0  0  0
  8 11  1  0  0  0  0
  8 13  1  0  0  0  0
  9 10  2  0  0  0  0
  9 17  1  0  0  0  0
 11 14  1  0  0  0  0
 11 15  1  0  0  0  0
 11 16  1  0  0  0  0
 17 18  1  0  0  0  0
 17 21  1  0  0  0  0
 18 19  1  0  0  0  0
 18 22  1  0  0  0  0
 18 23  1  0  0  0  0
 19 20  2  0  0  0  0
 19 24  1  0  0  0  0
 24 25  1  0  0  0  0
 24 29  1  0  0  0  0
 25 26  1  0  0  0  0
 25 28  1  0  0  0  0
 25 30  1  0  0  0  0
 26 27  2  0  0  0  0
 26 34  1  0  0  0  0
 28 31  1  0  0  0  0
 28 32  1  0  0  0  0
 28 33  1  0  0  0  0
 34 35  1  0  0  0  0
 34 36  1  0  0  0  0
 35 37  1  0  0  0  0
 35 38  1  0  0  0  0
 35 39  1  0  0  0  0
M  END
$$$$

  -OEChem-05262216283D

 39 38  0     1  0  0  0  0  0999 V2000
   -3.3680   -3.2069   -3.8070 C   0  0  0  0  0  0  0  0  0  0  0  0
   -2.3676   -3.9054   -3.7508 O   0  0  0  0  0  0  0  0  0  0  0  0
   -4.7033   -3.8250   -4.1777 C   0  0  0  0  0  0  0  0  0  0  0  0
   -5.1276   -3.3091   -5.0425 H   0  0  0  0  0  0  0  0  0  0  0  0
   -4.5734   -4.8818   -4.4273 H   0  0  0  0  0  0  0  0  0  0  0  0
   -5.3967   -3.7447   -3.3369 H   0  0  0  0  0  0  0  0  0  0  0  0
   -3.2972   -1.8615   -3.5094 N   0  0  0  0  0  0  0  0  0  0  0  0
   -2.1260   -1.2454   -2.8700 C   0  0  2  0  0  0  0  0  0  0  0  0
   -2.3211   -1.0901   -1.3476 C   0  0  0  0  0  0  0  0  0  0  0  0
   -3.4412   -0.8703   -0.9001 O   0  0  0  0  0  0  0  0  0  0  0  0
   -1.9006    0.1229   -3.5166 C   0  0  0  0  0  0  0  0  0  0  0  0
   -4.1906   -1.4010   -3.3506 H   0  0  0  0  0  0  0  0  0  0  0  0
   -1.2316   -1.8535   -3.0396 H   0  0  0  0  0  0  0  0  0  0  0  0
   -2.7743    0.7663   -3.3694 H   0  0  0  0  0  0  0  0  0  0  0  0
   -1.0299    0.6159   -3.0728 H   0  0  0  0  0  0  0  0  0  0  0  0
   -1.7257    0.0105   -4.5912 H   0  0  0  0  0  0  0  0  0  0  0  0
   -1.2470   -1.2644   -0.4884 N   0  0  0  0  0  0  0  0  0  0  0  0
   -1.1246   -0.6474    0.8500 C   0  0  0  0  0  0  0  0  0  0  0  0
   -2.0705    0.5208    1.1847 C   0  0  0  0  0  0  0  0  0  0  0  0
   -1.9305    1.5886    0.5996 O   0  0  0  0  0  0  0  0  0  0  0  0
   -0.3746   -1.4944   -0.9558 H   0  0  0  0  0  0  0  0  0  0  0  0
   -0.1041   -0.2736    0.9733 H   0  0  0  0  0  0  0  0  0  0  0  0
   -1.2780   -1.4276    1.6008 H   0  0  0  0  0  0  0  0  0  0  0  0
   -2.9510    0.4366    2.2454 N   0  0  0  0  0  0  0  0  0  0  0  0
   -3.8519    1.5125    2.6728 C   0  0  2  0  0  0  0  0  0  0  0  0
   -4.2589    1.3630    4.1538 C   0  0  0  0  0  0  0  0  0  0  0  0
   -4.0495    0.3137    4.7535 O   0  0  0  0  0  0  0  0  0  0  0  0
   -5.0903    1.4905    1.7703 C   0  0  0  0  0  0  0  0  0  0  0  0
   -3.0304   -0.4552    2.7311 H   0  0  0  0  0  0  0  0  0  0  0  0
   -3.3438    2.4767    2.5670 H   0  0  0  0  0  0  0  0  0  0  0  0
   -5.6175    0.5359    1.8678 H   0  0  0  0  0  0  0  0  0  0  0  0
   -5.7768    2.2988    2.0386 H   0  0  0  0  0  0  0  0  0  0  0  0
   -4.7995    1.6188    0.7226 H   0  0  0  0  0  0  0  0  0  0  0  0
   -4.8548    2.4157    4.8238 N   0  0  0  0  0  0  0  0  0  0  0  0
   -5.2473    2.3521    6.2263 C   0  0  0  0  0  0  0  0  0  0  0  0
   -5.0078    3.2764    4.3063 H   0  0  0  0  0  0  0  0  0  0  0  0
   -5.9826    1.5558    6.3832 H   0  0  0  0  0  0  0  0  0  0  0  0
   -4.3752    2.1562    6.8589 H   0  0  0  0  0  0  0  0  0  0  0  0
   -5.6935    3.3013    6.5382 H   0  0  0  0  0  0  0  0  0  0  0  0
  1  2  2  0  0  0  0
  1  3  1  0  0  0  0
  1  7  1  0  0  0  0
  3  4  1  0  0  0  0
  3  5  1  0  0  0  0
  3  6  1  0  0  0  0
  7  8  1  0  0  0  0
  7 12  1  0  0  0  0
  8  9  1  0  0  0  0
  8 11  1  0  0  0  0
  8 13  1  0  0  0  0
  9 10  2  0  0  0  0
  9 17  1  0  0  0  0
 11 14  1  0  0  0  0
 11 15  1  0  0  0  0
 11 16  1  0  0  0  0
 17 18  1  0  0  0  0
 17 21  1  0  0  0  0
 18 19  1  0  0  0  0
 18 22  1  0  0  0  0
 18 23  1  0  0  0  0
 19 20  2  0  0  0  0
 19 24  1  0  0  0  0
 24 25  1  0  0  0  0
 24 29  1  0  0  0  0
 25 26  1  0  0  0  0
 25 28  1  0  0  0  0
 25 30  1  0  0  0  0
 26 27  2  0  0  0  0
 26 34  1  0  0  0  0
 28 31  1  0  0  0  0
 28 32  1  0  0  0  0
 28 33  1  0  0  0  0
 34 35  1  0  0  0  0
 34 36  1  0  0  0  0
 35 37  1  0  0  0  0
 35 38  1  0  0  0  0
 35 39  1  0  0  0  0
M  END
$$$$

  -OEChem-05262216283D

 39 38  0     1  0  0  0  0  0999 V2000
   -3.4574   -3.1267   -3.8443 C   0  0  0  0  0  0  0  0  0  0  0  0
   -2.4338   -3.7881   -3.9252 O   0  0  0  0  0  0  0  0  0  0  0  0
   -4.7951   -3.7538   -4.1892 C   0  0  0  0  0  0  0  0  0  0  0  0
   -5.2356   -3.2407   -5.0473 H   0  0  0  0  0  0  0  0  0  0  0  0
   -4.6641   -4.8107   -4.4383 H   0  0  0  0  0  0  0  0  0  0  0  0
   -5.4755   -3.6759   -3.3374 H   0  0  0  0  0  0  0  0  0  0  0  0
   -3.4113   -1.8151   -3.4200 N   0  0  0  0  0  0  0  0  0  0  0  0
   -2.2288   -1.2254   -2.7776 C   0  0  2  0  0  0  0  0  0  0  0  0
   -2.3588   -1.2187   -1.2404 C   0  0  0  0  0  0  0  0  0  0  0  0
   -3.4688   -1.1615   -0.7209 O   0  0  0  0  0  0  0  0  0  0  0  0
   -2.0788    0.2063   -3.2958 C   0  0  0  0  0  0  0  0  0  0  0  0
   -4.3083   -1.4129   -3.1575 H   0  0  0  0  0  0  0  0  0  0  0  0
   -1.3258   -1.7844   -3.0439 H   0  0  0  0  0  0  0  0  0  0  0  0
   -2.9616    0.8016   -3.0397 H   0  0  0  0  0  0  0  0  0  0  0  0
   -1.2004    0.6841   -2.8508 H   0  0  0  0  0  0  0  0  0  0  0  0
   -1.9600    0.2063   -4.3836 H   0  0  0  0  0  0  0  0  0  0  0  0
   -1.2345   -1.3353   -0.4377 N   0  0  0  0  0  0  0  0  0  0  0  0
   -1.0939   -0.6632    0.8727 C   0  0  0  0  0  0  0  0  0  0  0  0
   -2.0794    0.4775    1.1957 C   0  0  0  0  0  0  0  0  0  0  0  0
   -2.1536    1.4365    0.4350 O   0  0  0  0  0  0  0  0  0  0  0  0
   -0.3729   -1.4565   -0.9621 H   0  0  0  0  0  0  0  0  0  0  0  0
   -0.0862   -0.2452    0.9500 H   0  0  0  0  0  0  0  0  0  0  0  0
   -1.1940   -1.4222    1.6535 H   0  0  0  0  0  0  0  0  0  0  0  0
   -2.6947    0.5528    2.4301 N   0  0  0  0  0  0  0  0  0  0  0  0
   -3.5928    1.6348    2.8502 C   0  0  2  0  0  0  0  0  0  0  0  0
   -3.6896    1.7346    4.3871 C   0  0  0  0  0  0  0  0  0  0  0  0
   -3.2814    0.8199    5.0953 O   0  0  0  0  0  0  0  0  0  0  0  0
   -4.9762    1.3782    2.2409 C   0  0  0  0  0  0  0  0  0  0  0  0
   -2.5682   -0.2222    3.0792 H   0  0  0  0  0  0  0  0  0  0  0  0
   -3.2067    2.5913    2.4828 H   0  0  0  0  0  0  0  0  0  0  0  0
   -5.3772    0.4222    2.5928 H   0  0  0  0  0  0  0  0  0  0  0  0
   -5.6740    2.1734    2.5191 H   0  0  0  0  0  0  0  0  0  0  0  0
   -4.9110    1.3444    1.1483 H   0  0  0  0  0  0  0  0  0  0  0  0
   -4.2250    2.8632    4.9804 N   0  0  0  0  0  0  0  0  0  0  0  0
   -4.3273    3.0389    6.4239 C   0  0  0  0  0  0  0  0  0  0  0  0
   -4.5432    3.6093    4.3688 H   0  0  0  0  0  0  0  0  0  0  0  0
   -4.9451    2.2487    6.8633 H   0  0  0  0  0  0  0  0  0  0  0  0
   -3.3346    3.0073    6.8850 H   0  0  0  0  0  0  0  0  0  0  0  0
   -4.7857    4.0052    6.6558 H   0  0  0  0  0  0  0  0  0  0  0  0
  1  2  2  0  0  0  0
  1  3  1  0  0  0  0
  1  7  1  0  0  0  0
  3  4  1  0  0  0  0
  3  5  1  0  0  0  0
  3  6  1  0  0  0  0
  7  8  1  0  0  0  0
  7 12  1  0  0  0  0
  8  9  1  0  0  0  0
  8 11  1  0  0  0  0
  8 13  1  0  0  0  0
  9 10  2  0  0  0  0
  9 17  1  0  0  0  0
 11 14  1  0  0  0  0
 11 15  1  0  0  0  0
 11 16  1  0  0  0  0
 17 18  1  0  0  0  0
 17 21  1  0  0  0  0
 18 19  1  0  0  0  0
 18 22  1  0  0  0  0
 18 23  1  0  0  0  0
 19 20  2  0  0  0  0
 19 24  1  0  0  0  0
 24 25  1  0  0  0  0
 24 29  1  0  0  0  0
 25 26  1  0  0  0  0
 25 28  1  0  0  0  0
 25 30  1  0  0  0  0
 26 27  2  0  0  0  0
 26 34  1  0  0  0  0
 28 31  1  0  0  0  0
 28 32  1  0  0  0  0
 28 33  1  0  0  0  0
 34 35  1  0  0  0  0
 34 36  1  0  0  0  0
 35 37  1  0  0  0  0
 35 38  1  0  0  0  0
 35 39  1  0  0  0  0
M  END
$$$$

  -OEChem-05262216283D

 39 38  0     1  0  0  0  0  0999 V2000
   -3.4883   -3.1452   -3.8705 C   0  0  0  0  0  0  0  0  0  0  0  0
   -2.4599   -3.7986   -3.9562 O   0  0  0  0  0  0  0  0  0  0  0  0
   -4.8167   -3.7699   -4.2546 C   0  0  0  0  0  0  0  0  0  0  0  0
   -5.2510   -3.2341   -5.1023 H   0  0  0  0  0  0  0  0  0  0  0  0
   -4.6737   -4.8174   -4.5348 H   0  0  0  0  0  0  0  0  0  0  0  0
   -5.5084   -3.7234   -3.4097 H   0  0  0  0  0  0  0  0  0  0  0  0
   -3.4565   -1.8484   -3.4011 N   0  0  0  0  0  0  0  0  0  0  0  0
   -2.2894   -1.2714   -2.7189 C   0  0  2  0  0  0  0  0  0  0  0  0
   -2.4679   -1.2645   -1.1869 C   0  0  0  0  0  0  0  0  0  0  0  0
   -3.5924   -1.2203   -0.6984 O   0  0  0  0  0  0  0  0  0  0  0  0
   -2.1058    0.1591   -3.2288 C   0  0  0  0  0  0  0  0  0  0  0  0
   -4.3603   -1.4569   -3.1449 H   0  0  0  0  0  0  0  0  0  0  0  0
   -1.3839   -1.8400   -2.9544 H   0  0  0  0  0  0  0  0  0  0  0  0
   -2.9876    0.7654   -2.9963 H   0  0  0  0  0  0  0  0  0  0  0  0
   -1.2345    0.6238   -2.7568 H   0  0  0  0  0  0  0  0  0  0  0  0
   -1.9555    0.1591   -4.3127 H   0  0  0  0  0  0  0  0  0  0  0  0
   -1.3719   -1.3968   -0.3496 N   0  0  0  0  0  0  0  0  0  0  0  0
   -1.2560   -0.7077    0.9545 C   0  0  0  0  0  0  0  0  0  0  0  0
   -2.2128    0.4662    1.2518 C   0  0  0  0  0  0  0  0  0  0  0  0
   -2.3774    1.3448    0.4119 O   0  0  0  0  0  0  0  0  0  0  0  0
   -0.4982   -1.5261   -0.8514 H   0  0  0  0  0  0  0  0  0  0  0  0
   -0.2382   -0.3221    1.0598 H   0  0  0  0  0  0  0  0  0  0  0  0
   -1.4055   -1.4568    1.7372 H   0  0  0  0  0  0  0  0  0  0  0  0
   -2.5973    0.7275    2.5533 N   0  0  0  0  0  0  0  0  0  0  0  0
   -3.3305    1.9213    2.9931 C   0  0  2  0  0  0  0  0  0  0  0  0
   -3.1307    2.1871    4.5006 C   0  0  0  0  0  0  0  0  0  0  0  0
   -2.6169    1.3331    5.2160 O   0  0  0  0  0  0  0  0  0  0  0  0
   -4.8170    1.7227    2.6742 C   0  0  0  0  0  0  0  0  0  0  0  0
   -2.3318    0.0597    3.2759 H   0  0  0  0  0  0  0  0  0  0  0  0
   -2.9584    2.7986    2.4536 H   0  0  0  0  0  0  0  0  0  0  0  0
   -5.2094    0.8507    3.2074 H   0  0  0  0  0  0  0  0  0  0  0  0
   -5.3964    2.6024    2.9696 H   0  0  0  0  0  0  0  0  0  0  0  0
   -4.9580    1.5644    1.5999 H   0  0  0  0  0  0  0  0  0  0  0  0
   -3.5119    3.3951    5.0555 N   0  0  0  0  0  0  0  0  0  0  0  0
   -3.3413    3.7193    6.4668 C   0  0  0  0  0  0  0  0  0  0  0  0
   -3.9257    4.0866    4.4368 H   0  0  0  0  0  0  0  0  0  0  0  0
   -3.9035    3.0181    7.0926 H   0  0  0  0  0  0  0  0  0  0  0  0
   -2.2836    3.6711    6.7471 H   0  0  0  0  0  0  0  0  0  0  0  0
   -3.7062    4.7310    6.6686 H   0  0  0  0  0  0  0  0  0  0  0  0
  1  2  2  0  0  0  0
  1  3  1  0  0  0  0
  1  7  1  0  0  0  0
  3  4  1  0  0  0  0
  3  5  1  0  0  0  0
  3  6  1  0  0  0  0
  7  8  1  0  0  0  0
  7 12  1  0  0  0  0
  8  9  1  0  0  0  0
  8 11  1  0  0  0  0
  8 13  1  0  0  0  0
  9 10  2  0  0  0  0
  9 17  1  0  0  0  0
 11 14  1  0  0  0  0
 11 15  1  0  0  0  0
 11 16  1  0  0  0  0
 17 18  1  0  0  0  0
 17 21  1  0  0  0  0
 18 19  1  0  0  0  0
 18 22  1  0  0  0  0
 18 23  1  0  0  0  0
 19 20  2  0  0  0  0
 19 24  1  0  0  0  0
 24 25  1  0  0  0  0
 24 29  1  0  0  0  0
 25 26  1  0  0  0  0
 25 28  1  0  0  0  0
 25 30  1  0  0  0  0
 26 27  2  0  0  0  0
 26 34  1  0  0  0  0
 28 31  1  0  0  0  0
 28 32  1  0  0  0  0
 28 33  1  0  0  0  0
 34 35  1  0  0  0  0
 34 36  1  0  0  0  0
 35 37  1  0  0  0  0
 35 38  1  0  0  0  0
 35 39  1  0  0  0  0
M  END
$$$$

  -OEChem-05262216283D

 39 38  0     1  0  0  0  0  0999 V2000
   -3.4344   -3.1587   -3.8629 C   0  0  0  0  0  0  0  0  0  0  0  0
   -2.3906   -3.7931   -3.8663 O   0  0  0  0  0  0  0  0  0  0  0  0
   -4.7082   -3.7938   -4.3877 C   0  0  0  0  0  0  0  0  0  0  0  0
   -5.1001   -3.2081   -5.2228 H   0  0  0  0  0  0  0  0  0  0  0  0
   -4.5074   -4.8116   -4.7342 H   0  0  0  0  0  0  0  0  0  0  0  0
   -5.4594   -3.8335   -3.5949 H   0  0  0  0  0  0  0  0  0  0  0  0
   -3.4688   -1.8727   -3.3654 N   0  0  0  0  0  0  0  0  0  0  0  0
   -2.3730   -1.2873   -2.5811 C   0  0  2  0  0  0  0  0  0  0  0  0
   -2.6825   -1.3084   -1.0710 C   0  0  0  0  0  0  0  0  0  0  0  0
   -3.8396   -1.1992   -0.6784 O   0  0  0  0  0  0  0  0  0  0  0  0
   -2.1718    0.1534   -3.0548 C   0  0  0  0  0  0  0  0  0  0  0  0
   -4.3973   -1.4964   -3.1855 H   0  0  0  0  0  0  0  0  0  0  0  0
   -1.4409   -1.8364   -2.7475 H   0  0  0  0  0  0  0  0  0  0  0  0
   -3.0782    0.7436   -2.8835 H   0  0  0  0  0  0  0  0  0  0  0  0
   -1.3474    0.6231   -2.5087 H   0  0  0  0  0  0  0  0  0  0  0  0
   -1.9372    0.1730   -4.1236 H   0  0  0  0  0  0  0  0  0  0  0  0
   -1.6865   -1.5620   -0.1427 N   0  0  0  0  0  0  0  0  0  0  0  0
   -1.5958   -0.8552    1.1542 C   0  0  0  0  0  0  0  0  0  0  0  0
   -2.4051    0.4436    1.3634 C   0  0  0  0  0  0  0  0  0  0  0  0
   -2.5416    1.2451    0.4453 O   0  0  0  0  0  0  0  0  0  0  0  0
   -0.7938   -1.7850   -0.5732 H   0  0  0  0  0  0  0  0  0  0  0  0
   -0.5476   -0.6069    1.3423 H   0  0  0  0  0  0  0  0  0  0  0  0
   -1.9113   -1.5569    1.9314 H   0  0  0  0  0  0  0  0  0  0  0  0
   -2.5743    0.9220    2.6489 N   0  0  0  0  0  0  0  0  0  0  0  0
   -3.0396    2.2703    2.9968 C   0  0  2  0  0  0  0  0  0  0  0  0
   -2.6088    2.6571    4.4276 C   0  0  0  0  0  0  0  0  0  0  0  0
   -2.1430    1.8081    5.1813 O   0  0  0  0  0  0  0  0  0  0  0  0
   -4.5660    2.3112    2.8599 C   0  0  0  0  0  0  0  0  0  0  0  0
   -2.2897    0.3243    3.4242 H   0  0  0  0  0  0  0  0  0  0  0  0
   -2.5950    3.0007    2.3124 H   0  0  0  0  0  0  0  0  0  0  0  0
   -5.0305    1.5915    3.5416 H   0  0  0  0  0  0  0  0  0  0  0  0
   -4.9478    3.3096    3.0924 H   0  0  0  0  0  0  0  0  0  0  0  0
   -4.8627    2.0608    1.8361 H   0  0  0  0  0  0  0  0  0  0  0  0
   -2.7167    3.9642    4.8656 N   0  0  0  0  0  0  0  0  0  0  0  0
   -2.3008    4.3998    6.1934 C   0  0  0  0  0  0  0  0  0  0  0  0
   -3.0899    4.6500    4.2154 H   0  0  0  0  0  0  0  0  0  0  0  0
   -1.2330    4.2075    6.3427 H   0  0  0  0  0  0  0  0  0  0  0  0
   -2.4787    5.4729    6.3121 H   0  0  0  0  0  0  0  0  0  0  0  0
   -2.8661    3.8679    6.9661 H   0  0  0  0  0  0  0  0  0  0  0  0
  1  2  2  0  0  0  0
  1  3  1  0  0  0  0
  1  7  1  0  0  0  0
  3  4  1  0  0  0  0
  3  5  1  0  0  0  0
  3  6  1  0  0  0  0
  7  8  1  0  0  0  0
  7 12  1  0  0  0  0
  8  9  1  0  0  0  0
  8 11  1  0  0  0  0
  8 13  1  0  0  0  0
  9 10  2  0  0  0  0
  9 17  1  0  0  0  0
 11 14  1  0  0  0  0
 11 15  1  0  0  0  0
 11 16  1  0  0  0  0
 17 18  1  0  0  0  0
 17 21  1  0  0  0  0
 18 19  1  0  0  0  0
 18 22  1  0  0  0  0
 18 23  1  0  0  0  0
 19 20  2  0  0  0  0
 19 24  1  0  0  0  0
 24 25  1  0  0  0  0
 24 29  1  0  0  0  0
 25 26  1  0  0  0  0
 25 28  1  0  0  0  0
 25 30  1  0  0  0  0
 26 27  2  0  0  0  0
 26 34  1  0  0  0  0
 28 31  1  0  0  0  0
 28 32  1  0  0  0  0
 28 33  1  0  0  0  0
 34 35  1  0  0  0  0
 34 36  1  0  0  0  0
 35 37  1  0  0  0  0
 35 38  1  0  0  0  0
 35 39  1  0  0  0  0
M  END
$$$$

  -OEChem-05262216283D

 39 38  0     1  0  0  0  0  0999 V2000
   -3.6038   -2.2570   -1.8110 C   0  0  0  0  0  0  0  0  0  0  0  0
   -2.7957   -3.1707   -1.7106 O   0  0  0  0  0  0  0  0  0  0  0  0
   -4.9396   -2.3366   -1.0980 C   0  0  0  0  0  0  0  0  0  0  0  0
   -5.7530   -2.2508   -1.8226 H   0  0  0  0  0  0  0  0  0  0  0  0
   -5.0334   -3.2918   -0.5739 H   0  0  0  0  0  0  0  0  0  0  0  0
   -5.0218   -1.5253   -0.3700 H   0  0  0  0  0  0  0  0  0  0  0  0
   -3.2562   -1.1060   -2.4860 N   0  0  0  0  0  0  0  0  0  0  0  0
   -1.8935   -0.8510   -2.9733 C   0  0  2  0  0  0  0  0  0  0  0  0
   -0.9686   -0.4419   -1.8046 C   0  0  0  0  0  0  0  0  0  0  0  0
   -0.4428    0.6621   -1.7387 O   0  0  0  0  0  0  0  0  0  0  0  0
   -1.9853    0.2223   -4.0645 C   0  0  0  0  0  0  0  0  0  0  0  0
   -3.8266   -0.2889   -2.2758 H   0  0  0  0  0  0  0  0  0  0  0  0
   -1.4798   -1.7576   -3.4275 H   0  0  0  0  0  0  0  0  0  0  0  0
   -2.3966    1.1513   -3.6563 H   0  0  0  0  0  0  0  0  0  0  0  0
   -0.9917    0.4346   -4.4721 H   0  0  0  0  0  0  0  0  0  0  0  0
   -2.6291   -0.1173   -4.8814 H   0  0  0  0  0  0  0  0  0  0  0  0
   -0.6953   -1.3370   -0.7877 N   0  0  0  0  0  0  0  0  0  0  0  0
   -1.1666   -1.1082    0.5967 C   0  0  0  0  0  0  0  0  0  0  0  0
   -2.0011    0.1393    0.9744 C   0  0  0  0  0  0  0  0  0  0  0  0
   -2.7191    0.7127    0.1611 O   0  0  0  0  0  0  0  0  0  0  0  0
   -0.9516   -2.2755   -1.1024 H   0  0  0  0  0  0  0  0  0  0  0  0
   -0.2787   -1.0894    1.2348 H   0  0  0  0  0  0  0  0  0  0  0  0
   -1.7610   -1.9775    0.8918 H   0  0  0  0  0  0  0  0  0  0  0  0
   -2.3871    0.2656    2.2962 N   0  0  0  0  0  0  0  0  0  0  0  0
   -3.2052    1.3715    2.8136 C   0  0  2  0  0  0  0  0  0  0  0  0
   -2.6956    1.8403    4.1928 C   0  0  0  0  0  0  0  0  0  0  0  0
   -1.9391    1.1238    4.8402 O   0  0  0  0  0  0  0  0  0  0  0  0
   -4.6577    0.8963    2.9066 C   0  0  0  0  0  0  0  0  0  0  0  0
   -1.8010   -0.2033    2.9874 H   0  0  0  0  0  0  0  0  0  0  0  0
   -3.1474    2.2299    2.1355 H   0  0  0  0  0  0  0  0  0  0  0  0
   -4.7388    0.0459    3.5911 H   0  0  0  0  0  0  0  0  0  0  0  0
   -5.3023    1.7014    3.2716 H   0  0  0  0  0  0  0  0  0  0  0  0
   -5.0181    0.5858    1.9207 H   0  0  0  0  0  0  0  0  0  0  0  0
   -3.0722    3.0680    4.7051 N   0  0  0  0  0  0  0  0  0  0  0  0
   -2.5936    3.5809    5.9837 C   0  0  0  0  0  0  0  0  0  0  0  0
   -3.6668    3.6573    4.1292 H   0  0  0  0  0  0  0  0  0  0  0  0
   -2.9094    2.9252    6.8020 H   0  0  0  0  0  0  0  0  0  0  0  0
   -1.5002    3.6458    5.9869 H   0  0  0  0  0  0  0  0  0  0  0  0
   -2.9990    4.5807    6.1661 H   0  0  0  0  0  0  0  0  0  0  0  0
  1  2  2  0  0  0  0
  1  3  1  0  0  0  0
  1  7  1  0  0  0  0
  3  4  1  0  0  0  0
  3  5  1  0  0  0  0
  3  6  1  0  0  0  0
  7  8  1  0  0  0  0
  7 12  1  0  0  0  0
  8  9  1  0  0  0  0
  8 11  1  0  0  0  0
  8 13  1  0  0  0  0
  9 10  2  0  0  0  0
  9 17  1  0  0  0  0
 11 14  1  0  0  0  0
 11 15  1  0  0  0  0
 11 16  1  0  0  0  0
 17 18  1  0  0  0  0
 17 21  1  0  0  0  0
 18 19  1  0  0  0  0
 18 22  1  0  0  0  0
 18 23  1  0  0  0  0
 19 20  2  0  0  0  0
 19 24  1  0  0  0  0
 24 25  1  0  0  0  0
 24 29  1  0  0  0  0
 25 26  1  0  0  0  0
 25 28  1  0  0  0  0
 25 30  1  0  0  0  0
 26 27  2  0  0  0  0
 26 34  1  0  0  0  0
 28 31  1  0  0  0  0
 28 32  1  0  0  0  0
 28 33  1  0  0  0  0
 34 35  1  0  0  0  0
 34 36  1  0  0  0  0
 35 37  1  0  0  0  0
 35 38  1  0  0  0  0
 35 39  1  0  0  0  0
M  END
$$$$

  -OEChem-05262216283D

 39 38  0     1  0  0  0  0  0999 V2000
   -3.6274   -2.2826   -1.8998 C   0  0  0  0  0  0  0  0  0  0  0  0
   -2.8236   -3.1938   -1.7513 O   0  0  0  0  0  0  0  0  0  0  0  0
   -5.0007   -2.3647   -1.2618 C   0  0  0  0  0  0  0  0  0  0  0  0
   -5.7740   -2.2364   -2.0233 H   0  0  0  0  0  0  0  0  0  0  0  0
   -5.1369   -3.3378   -0.7815 H   0  0  0  0  0  0  0  0  0  0  0  0
   -5.1075   -1.5801   -0.5079 H   0  0  0  0  0  0  0  0  0  0  0  0
   -3.2427   -1.1311   -2.5539 N   0  0  0  0  0  0  0  0  0  0  0  0
   -1.8491   -0.8705   -2.9423 C   0  0  2  0  0  0  0  0  0  0  0  0
   -1.0188   -0.4503   -1.7092 C   0  0  0  0  0  0  0  0  0  0  0  0
   -0.5457    0.6732   -1.5887 O   0  0  0  0  0  0  0  0  0  0  0  0
   -1.8615    0.1938   -4.0454 C   0  0  0  0  0  0  0  0  0  0  0  0
   -3.8257   -0.3163   -2.3705 H   0  0  0  0  0  0  0  0  0  0  0  0
   -1.3964   -1.7774   -3.3570 H   0  0  0  0  0  0  0  0  0  0  0  0
   -2.3054    1.1249   -3.6784 H   0  0  0  0  0  0  0  0  0  0  0  0
   -0.8402    0.4055   -4.3773 H   0  0  0  0  0  0  0  0  0  0  0  0
   -2.4400   -0.1549   -4.9060 H   0  0  0  0  0  0  0  0  0  0  0  0
   -0.8115   -1.3483   -0.6788 N   0  0  0  0  0  0  0  0  0  0  0  0
   -1.3367   -1.0929    0.6807 C   0  0  0  0  0  0  0  0  0  0  0  0
   -2.1463    0.1904    0.9762 C   0  0  0  0  0  0  0  0  0  0  0  0
   -2.9749    0.6072    0.1704 O   0  0  0  0  0  0  0  0  0  0  0  0
   -1.0632   -2.2864   -0.9999 H   0  0  0  0  0  0  0  0  0  0  0  0
   -0.4786   -1.0885    1.3586 H   0  0  0  0  0  0  0  0  0  0  0  0
   -1.9730   -1.9361    0.9643 H   0  0  0  0  0  0  0  0  0  0  0  0
   -2.3411    0.5523    2.2960 N   0  0  0  0  0  0  0  0  0  0  0  0
   -3.1094    1.7312    2.7184 C   0  0  2  0  0  0  0  0  0  0  0  0
   -2.4445    2.4207    3.9285 C   0  0  0  0  0  0  0  0  0  0  0  0
   -1.5912    1.8258    4.5786 O   0  0  0  0  0  0  0  0  0  0  0  0
   -4.5334    1.2861    3.0643 C   0  0  0  0  0  0  0  0  0  0  0  0
   -1.6499    0.2167    2.9674 H   0  0  0  0  0  0  0  0  0  0  0  0
   -3.1461    2.4627    1.9038 H   0  0  0  0  0  0  0  0  0  0  0  0
   -4.5196    0.5663    3.8890 H   0  0  0  0  0  0  0  0  0  0  0  0
   -5.1428    2.1452    3.3605 H   0  0  0  0  0  0  0  0  0  0  0  0
   -5.0035    0.8130    2.1963 H   0  0  0  0  0  0  0  0  0  0  0  0
   -2.7915    3.7107    4.2853 N   0  0  0  0  0  0  0  0  0  0  0  0
   -2.1709    4.4263    5.3942 C   0  0  0  0  0  0  0  0  0  0  0  0
   -3.4696    4.1947    3.7038 H   0  0  0  0  0  0  0  0  0  0  0  0
   -2.3395    3.8941    6.3365 H   0  0  0  0  0  0  0  0  0  0  0  0
   -1.0918    4.5227    5.2328 H   0  0  0  0  0  0  0  0  0  0  0  0
   -2.5978    5.4299    5.4836 H   0  0  0  0  0  0  0  0  0  0  0  0
  1  2  2  0  0  0  0
  1  3  1  0  0  0  0
  1  7  1  0  0  0  0
  3  4  1  0  0  0  0
  3  5  1  0  0  0  0
  3  6  1  0  0  0  0
  7  8  1  0  0  0  0
  7 12  1  0  0  0  0
  8  9  1  0  0  0  0
  8 11  1  0  0  0  0
  8 13  1  0  0  0  0
  9 10  2  0  0  0  0
  9 17  1  0  0  0  0
 11 14  1  0  0  0  0
 11 15  1  0  0  0  0
 11 16  1  0  0  0  0
 17 18  1  0  0  0  0
 17 21  1  0  0  0  0
 18 19  1  0  0  0  0
 18 22  1  0  0  0  0
 18 23  1  0  0  0  0
 19 20  2  0  0  0  0
 19 24  1  0  0  0  0
 24 25  1  0  0  0  0
 24 29  1  0  0  0  0
 25 26  1  0  0  0  0
 25 28  1  0  0  0  0
 25 30  1  0  0  0  0
 26 27  2  0  0  0  0
 26 34  1  0  0  0  0
 28 31  1  0  0  0  0
 28 32  1  0  0  0  0
 28 33  1  0  0  0  0
 34 35  1  0  0  0  0
 34 36  1  0  0  0  0
 35 37  1  0  0  0  0
 35 38  1  0  0  0  0
 35 39  1  0  0  0  0
M  END
$$$$

  -OEChem-05262216283D

 39 38  0     1  0  0  0  0  0999 V2000
   -3.5847   -2.3520   -2.0043 C   0  0  0  0  0  0  0  0  0  0  0  0
   -2.7552   -3.2317   -1.8139 O   0  0  0  0  0  0  0  0  0  0  0  0
   -4.9962   -2.5047   -1.4724 C   0  0  0  0  0  0  0  0  0  0  0  0
   -5.7185   -2.3285   -2.2731 H   0  0  0  0  0  0  0  0  0  0  0  0
   -5.1454   -3.5145   -1.0803 H   0  0  0  0  0  0  0  0  0  0  0  0
   -5.1694   -1.7830   -0.6696 H   0  0  0  0  0  0  0  0  0  0  0  0
   -3.2011   -1.1700   -2.6020 N   0  0  0  0  0  0  0  0  0  0  0  0
   -1.7964   -0.8432   -2.8871 C   0  0  2  0  0  0  0  0  0  0  0  0
   -1.0704   -0.4160   -1.5917 C   0  0  0  0  0  0  0  0  0  0  0  0
   -0.6516    0.7231   -1.4224 O   0  0  0  0  0  0  0  0  0  0  0  0
   -1.7842    0.2435   -3.9681 C   0  0  0  0  0  0  0  0  0  0  0  0
   -3.8338   -0.3856   -2.4542 H   0  0  0  0  0  0  0  0  0  0  0  0
   -1.2777   -1.7207   -3.2874 H   0  0  0  0  0  0  0  0  0  0  0  0
   -2.2963    1.1443   -3.6147 H   0  0  0  0  0  0  0  0  0  0  0  0
   -0.7544    0.5098   -4.2259 H   0  0  0  0  0  0  0  0  0  0  0  0
   -2.2865   -0.1132   -4.8723 H   0  0  0  0  0  0  0  0  0  0  0  0
   -0.9302   -1.3206   -0.5544 N   0  0  0  0  0  0  0  0  0  0  0  0
   -1.5303   -1.0593    0.7719 C   0  0  0  0  0  0  0  0  0  0  0  0
   -2.3328    0.2417    0.9865 C   0  0  0  0  0  0  0  0  0  0  0  0
   -3.2329    0.5339    0.2019 O   0  0  0  0  0  0  0  0  0  0  0  0
   -1.1576   -2.2597   -0.8919 H   0  0  0  0  0  0  0  0  0  0  0  0
   -0.7190   -1.0658    1.5050 H   0  0  0  0  0  0  0  0  0  0  0  0
   -2.1997   -1.8883    1.0182 H   0  0  0  0  0  0  0  0  0  0  0  0
   -2.3630    0.8230    2.2396 N   0  0  0  0  0  0  0  0  0  0  0  0
   -3.0940    2.0586    2.5493 C   0  0  2  0  0  0  0  0  0  0  0  0
   -2.3094    2.9334    3.5499 C   0  0  0  0  0  0  0  0  0  0  0  0
   -1.3973    2.4440    4.2083 O   0  0  0  0  0  0  0  0  0  0  0  0
   -4.4641    1.6809    3.1194 C   0  0  0  0  0  0  0  0  0  0  0  0
   -1.5872    0.6020    2.8645 H   0  0  0  0  0  0  0  0  0  0  0  0
   -3.2304    2.6490    1.6365 H   0  0  0  0  0  0  0  0  0  0  0  0
   -4.3476    1.0931    4.0355 H   0  0  0  0  0  0  0  0  0  0  0  0
   -5.0454    2.5781    3.3519 H   0  0  0  0  0  0  0  0  0  0  0  0
   -5.0249    1.0854    2.3921 H   0  0  0  0  0  0  0  0  0  0  0  0
   -2.6155    4.2729    3.7056 N   0  0  0  0  0  0  0  0  0  0  0  0
   -1.8716    5.1638    4.5886 C   0  0  0  0  0  0  0  0  0  0  0  0
   -3.3396    4.6627    3.1089 H   0  0  0  0  0  0  0  0  0  0  0  0
   -1.9069    4.7991    5.6208 H   0  0  0  0  0  0  0  0  0  0  0  0
   -0.8245    5.2282    4.2734 H   0  0  0  0  0  0  0  0  0  0  0  0
   -2.3032    6.1692    4.5637 H   0  0  0  0  0  0  0  0  0  0  0  0
  1  2  2  0  0  0  0
  1  3  1  0  0  0  0
  1  7  1  0  0  0  0
  3  4  1  0  0  0  0
  3  5  1  0  0  0  0
  3  6  1  0  0  0  0
  7  8  1  0  0  0  0
  7 12  1  0  0  0  0
  8  9  1  0  0  0  0
  8 11  1  0  0  0  0
  8 13  1  0  0  0  0
  9 10  2  0  0  0  0
  9 17  1  0  0  0  0
 11 14  1  0  0  0  0
 11 15  1  0  0  0  0
 11 16  1  0  0  0  0
 17 18  1  0  0  0  0
 17 21  1  0  0  0  0
 18 19  1  0  0  0  0
 18 22  1  0  0  0  0
 18 23  1  0  0  0  0
 19 20  2  0  0  0  0
 19 24  1  0  0  0  0
 24 25  1  0  0  0  0
 24 29  1  0  0  0  0
 25 26  1  0  0  0  0
 25 28  1  0  0  0  0
 25 30  1  0  0  0  0
 26 27  2  0  0  0  0
 26 34  1  0  0  0  0
 28 31  1  0  0  0  0
 28 32  1  0  0  0  0
 28 33  1  0  0  0  0
 34 35  1  0  0  0  0
 34 36  1  0  0  0  0
 35 37  1  0  0  0  0
 35 38  1  0  0  0  0
 35 39  1  0  0  0  0
M  END
$$$$

  -OEChem-05262216283D

 39 38  0     1  0  0  0  0  0999 V2000
   -3.5113   -2.4125   -2.0350 C   0  0  0  0  0  0  0  0  0  0  0  0
   -2.6274   -3.2329   -1.8259 O   0  0  0  0  0  0  0  0  0  0  0  0
   -4.9244   -2.6687   -1.5491 C   0  0  0  0  0  0  0  0  0  0  0  0
   -5.6259   -2.5905   -2.3831 H   0  0  0  0  0  0  0  0  0  0  0  0
   -5.0005   -3.6705   -1.1172 H   0  0  0  0  0  0  0  0  0  0  0  0
   -5.1932   -1.9327   -0.7866 H   0  0  0  0  0  0  0  0  0  0  0  0
   -3.1951   -1.2020   -2.6154 N   0  0  0  0  0  0  0  0  0  0  0  0
   -1.8100   -0.7760   -2.8639 C   0  0  2  0  0  0  0  0  0  0  0  0
   -1.1482   -0.3075   -1.5486 C   0  0  0  0  0  0  0  0  0  0  0  0
   -0.8349    0.8617   -1.3581 O   0  0  0  0  0  0  0  0  0  0  0  0
   -1.8483    0.3157   -3.9396 C   0  0  0  0  0  0  0  0  0  0  0  0
   -3.8871   -0.4661   -2.4863 H   0  0  0  0  0  0  0  0  0  0  0  0
   -1.2215   -1.6125   -3.2555 H   0  0  0  0  0  0  0  0  0  0  0  0
   -2.4356    1.1740   -3.5971 H   0  0  0  0  0  0  0  0  0  0  0  0
   -0.8342    0.6590   -4.1674 H   0  0  0  0  0  0  0  0  0  0  0  0
   -2.2975   -0.0718   -4.8591 H   0  0  0  0  0  0  0  0  0  0  0  0
   -0.9814   -1.2094   -0.5122 N   0  0  0  0  0  0  0  0  0  0  0  0
   -1.6270   -0.9869    0.7991 C   0  0  0  0  0  0  0  0  0  0  0  0
   -2.4981    0.2732    0.9735 C   0  0  0  0  0  0  0  0  0  0  0  0
   -3.4813    0.4219    0.2508 O   0  0  0  0  0  0  0  0  0  0  0  0
   -1.1410   -2.1597   -0.8579 H   0  0  0  0  0  0  0  0  0  0  0  0
   -0.8400   -0.9554    1.5576 H   0  0  0  0  0  0  0  0  0  0  0  0
   -2.2627   -1.8477    1.0249 H   0  0  0  0  0  0  0  0  0  0  0  0
   -2.3794    1.0550    2.1060 N   0  0  0  0  0  0  0  0  0  0  0  0
   -3.1201    2.3054    2.3102 C   0  0  2  0  0  0  0  0  0  0  0  0
   -2.2584    3.3500    3.0503 C   0  0  0  0  0  0  0  0  0  0  0  0
   -1.2707    2.9932    3.6841 O   0  0  0  0  0  0  0  0  0  0  0  0
   -4.3891    1.9932    3.1085 C   0  0  0  0  0  0  0  0  0  0  0  0
   -1.5114    0.9646    2.6344 H   0  0  0  0  0  0  0  0  0  0  0  0
   -3.3962    2.7350    1.3411 H   0  0  0  0  0  0  0  0  0  0  0  0
   -4.1314    1.5691    4.0844 H   0  0  0  0  0  0  0  0  0  0  0  0
   -4.9770    2.9021    3.2670 H   0  0  0  0  0  0  0  0  0  0  0  0
   -5.0092    1.2716    2.5674 H   0  0  0  0  0  0  0  0  0  0  0  0
   -2.5906    4.6917    3.0095 N   0  0  0  0  0  0  0  0  0  0  0  0
   -1.7947    5.7308    3.6520 C   0  0  0  0  0  0  0  0  0  0  0  0
   -3.3790    4.9635    2.4296 H   0  0  0  0  0  0  0  0  0  0  0  0
   -1.7110    5.5389    4.7270 H   0  0  0  0  0  0  0  0  0  0  0  0
   -0.7887    5.7656    3.2206 H   0  0  0  0  0  0  0  0  0  0  0  0
   -2.2652    6.7088    3.5122 H   0  0  0  0  0  0  0  0  0  0  0  0
  1  2  2  0  0  0  0
  1  3  1  0  0  0  0
  1  7  1  0  0  0  0
  3  4  1  0  0  0  0
  3  5  1  0  0  0  0
  3  6  1  0  0  0  0
  7  8  1  0  0  0  0
  7 12  1  0  0  0  0
  8  9  1  0  0  0  0
  8 11  1  0  0  0  0
  8 13  1  0  0  0  0
  9 10  2  0  0  0  0
  9 17  1  0  0  0  0
 11 14  1  0  0  0  0
 11 15  1  0  0  0  0
 11 16  1  0  0  0  0
 17 18  1  0  0  0  0
 17 21  1  0  0  0  0
 18 19  1  0  0  0  0
 18 22  1  0  0  0  0
 18 23  1  0  0  0  0
 19 20  2  0  0  0  0
 19 24  1  0  0  0  0
 24 25  1  0  0  0  0
 24 29  1  0  0  0  0
 25 26  1  0  0  0  0
 25 28  1  0  0  0  0
 25 30  1  0  0  0  0
 26 27  2  0  0  0  0
 26 34  1  0  0  0  0
 28 31  1  0  0  0  0
 28 32  1  0  0  0  0
 28 33  1  0  0  0  0
 34 35  1  0  0  0  0
 34 36  1  0  0  0  0
 35 37  1  0  0  0  0
 35 38  1  0  0  0  0
 35 39  1  0  0  0  0
M  END
$$$$

  -OEChem-05262216283D

 39 38  0     1  0  0  0  0  0999 V2000
   -3.4135   -2.6218   -2.1574 C   0  0  0  0  0  0  0  0  0  0  0  0
   -2.4492   -3.2869   -1.8037 O   0  0  0  0  0  0  0  0  0  0  0  0
   -4.8215   -3.0799   -1.8302 C   0  0  0  0  0  0  0  0  0  0  0  0
   -5.4076   -3.1716   -2.7479 H   0  0  0  0  0  0  0  0  0  0  0  0
   -4.7955   -4.0521   -1.3302 H   0  0  0  0  0  0  0  0  0  0  0  0
   -5.3043   -2.3564   -1.1678 H   0  0  0  0  0  0  0  0  0  0  0  0
   -3.2107   -1.4064   -2.7781 N   0  0  0  0  0  0  0  0  0  0  0  0
   -1.8835   -0.7882   -2.9171 C   0  0  2  0  0  0  0  0  0  0  0  0
   -1.4189   -0.1845   -1.5715 C   0  0  0  0  0  0  0  0  0  0  0  0
   -1.3021    1.0245   -1.4125 O   0  0  0  0  0  0  0  0  0  0  0  0
   -1.9674    0.2455   -4.0466 C   0  0  0  0  0  0  0  0  0  0  0  0
   -4.0222   -0.7958   -2.8380 H   0  0  0  0  0  0  0  0  0  0  0  0
   -1.1485   -1.5446   -3.2129 H   0  0  0  0  0  0  0  0  0  0  0  0
   -2.6867    1.0326   -3.7980 H   0  0  0  0  0  0  0  0  0  0  0  0
   -0.9892    0.7096   -4.2083 H   0  0  0  0  0  0  0  0  0  0  0  0
   -2.2810   -0.2338   -4.9791 H   0  0  0  0  0  0  0  0  0  0  0  0
   -1.1621   -1.0357   -0.5102 N   0  0  0  0  0  0  0  0  0  0  0  0
   -1.7449   -0.8251    0.8313 C   0  0  0  0  0  0  0  0  0  0  0  0
   -2.6740    0.3863    1.0316 C   0  0  0  0  0  0  0  0  0  0  0  0
   -3.7772    0.3836    0.4928 O   0  0  0  0  0  0  0  0  0  0  0  0
   -1.2227   -2.0104   -0.8184 H   0  0  0  0  0  0  0  0  0  0  0  0
   -0.9233   -0.7372    1.5468 H   0  0  0  0  0  0  0  0  0  0  0  0
   -2.3192   -1.7152    1.1042 H   0  0  0  0  0  0  0  0  0  0  0  0
   -2.3646    1.3681    1.9524 N   0  0  0  0  0  0  0  0  0  0  0  0
   -3.1402    2.6022    2.1196 C   0  0  2  0  0  0  0  0  0  0  0  0
   -2.2398    3.7720    2.5686 C   0  0  0  0  0  0  0  0  0  0  0  0
   -1.1352    3.5498    3.0537 O   0  0  0  0  0  0  0  0  0  0  0  0
   -4.2458    2.3532    3.1506 C   0  0  0  0  0  0  0  0  0  0  0  0
   -1.3979    1.4031    2.2767 H   0  0  0  0  0  0  0  0  0  0  0  0
   -3.5912    2.8833    1.1619 H   0  0  0  0  0  0  0  0  0  0  0  0
   -3.8119    2.0533    4.1099 H   0  0  0  0  0  0  0  0  0  0  0  0
   -4.8397    3.2591    3.3042 H   0  0  0  0  0  0  0  0  0  0  0  0
   -4.9140    1.5578    2.8059 H   0  0  0  0  0  0  0  0  0  0  0  0
   -2.6718    5.0789    2.4364 N   0  0  0  0  0  0  0  0  0  0  0  0
   -1.8625    6.2299    2.8177 C   0  0  0  0  0  0  0  0  0  0  0  0
   -3.5696    5.2340    1.9874 H   0  0  0  0  0  0  0  0  0  0  0  0
   -1.6081    6.1838    3.8819 H   0  0  0  0  0  0  0  0  0  0  0  0
   -0.9360    6.2568    2.2346 H   0  0  0  0  0  0  0  0  0  0  0  0
   -2.4138    7.1573    2.6353 H   0  0  0  0  0  0  0  0  0  0  0  0
  1  2  2  0  0  0  0
  1  3  1  0  0  0  0
  1  7  1  0  0  0  0
  3  4  1  0  0  0  0
  3  5  1  0  0  0  0
  3  6  1  0  0  0  0
  7  8  1  0  0  0  0
  7 12  1  0  0  0  0
  8  9  1  0  0  0  0
  8 11  1  0  0  0  0
  8 13  1  0  0  0  0
  9 10  2  0  0  0  0
  9 17  1  0  0  0  0
 11 14  1  0  0  0  0
 11 15  1  0  0  0  0
 11 16  1  0  0  0  0
 17 18  1  0  0  0  0
 17 21  1  0  0  0  0
 18 19  1  0  0  0  0
 18 22  1  0  0  0  0
 18 23  1  0  0  0  0
 19 20  2  0  0  0  0
 19 24  1  0  0  0  0
 24 25  1  0  0  0  0
 24 29  1  0  0  0  0
 25 26  1  0  0  0  0
 25 28  1  0  0  0  0
 25 30  1  0  0  0  0
 26 27  2  0  0  0  0
 26 34  1  0  0  0  0
 28 31  1  0  0  0  0
 28 32  1  0  0  0  0
 28 33  1  0  0  0  0
 34 35  1  0  0  0  0
 34 36  1  0  0  0  0
 35 37  1  0  0  0  0
 35 38  1  0  0  0  0
 35 39  1  0  0  0  0
M  END
$$$$

  -OEChem-05262216283D

 39 38  0     1  0  0  0  0  0999 V2000
   -3.0994   -2.9568   -2.5050 C   0  0  0  0  0  0  0  0  0  0  0  0
   -2.0714   -3.2949   -1.9367 O   0  0  0  0  0  0  0  0  0  0  0  0
   -4.2689   -3.9170   -2.6093 C   0  0  0  0  0  0  0  0  0  0  0  0
   -4.5775   -4.0189   -3.6525 H   0  0  0  0  0  0  0  0  0  0  0  0
   -3.9827   -4.9023   -2.2304 H   0  0  0  0  0  0  0  0  0  0  0  0
   -5.1117   -3.5443   -2.0215 H   0  0  0  0  0  0  0  0  0  0  0  0
   -3.2104   -1.6720   -2.9954 N   0  0  0  0  0  0  0  0  0  0  0  0
   -2.1562   -0.6513   -2.8810 C   0  0  2  0  0  0  0  0  0  0  0  0
   -2.0797   -0.0465   -1.4569 C   0  0  0  0  0  0  0  0  0  0  0  0
   -2.2459    1.1520   -1.2714 O   0  0  0  0  0  0  0  0  0  0  0  0
   -2.4216    0.3997   -3.9676 C   0  0  0  0  0  0  0  0  0  0  0  0
   -4.1222   -1.3861   -3.3418 H   0  0  0  0  0  0  0  0  0  0  0  0
   -1.1820   -1.1060   -3.0904 H   0  0  0  0  0  0  0  0  0  0  0  0
   -3.3818    0.8975   -3.7972 H   0  0  0  0  0  0  0  0  0  0  0  0
   -1.6334    1.1596   -3.9608 H   0  0  0  0  0  0  0  0  0  0  0  0
   -2.4397   -0.0683   -4.9567 H   0  0  0  0  0  0  0  0  0  0  0  0
   -1.7487   -0.8807   -0.4002 N   0  0  0  0  0  0  0  0  0  0  0  0
   -2.1579   -0.7024    1.0099 C   0  0  0  0  0  0  0  0  0  0  0  0
   -3.0359    0.5098    1.3643 C   0  0  0  0  0  0  0  0  0  0  0  0
   -4.2472    0.4455    1.1860 O   0  0  0  0  0  0  0  0  0  0  0  0
   -1.6240   -1.8521   -0.7022 H   0  0  0  0  0  0  0  0  0  0  0  0
   -1.2551   -0.6488    1.6244 H   0  0  0  0  0  0  0  0  0  0  0  0
   -2.7101   -1.5934    1.3222 H   0  0  0  0  0  0  0  0  0  0  0  0
   -2.4957    1.6024    2.0138 N   0  0  0  0  0  0  0  0  0  0  0  0
   -3.2069    2.8774    2.1514 C   0  0  2  0  0  0  0  0  0  0  0  0
   -2.2349    4.0701    2.0419 C   0  0  0  0  0  0  0  0  0  0  0  0
   -1.0412    3.9183    2.2812 O   0  0  0  0  0  0  0  0  0  0  0  0
   -3.9309    2.8937    3.5005 C   0  0  0  0  0  0  0  0  0  0  0  0
   -1.4780    1.6673    2.0079 H   0  0  0  0  0  0  0  0  0  0  0  0
   -3.9405    2.9786    1.3442 H   0  0  0  0  0  0  0  0  0  0  0  0
   -3.2121    2.8015    4.3210 H   0  0  0  0  0  0  0  0  0  0  0  0
   -4.4869    3.8275    3.6260 H   0  0  0  0  0  0  0  0  0  0  0  0
   -4.6379    2.0601    3.5607 H   0  0  0  0  0  0  0  0  0  0  0  0
   -2.7004    5.3215    1.6820 N   0  0  0  0  0  0  0  0  0  0  0  0
   -1.8308    6.4800    1.5190 C   0  0  0  0  0  0  0  0  0  0  0  0
   -3.6802    5.4000    1.4257 H   0  0  0  0  0  0  0  0  0  0  0  0
   -1.3388    6.7253    2.4662 H   0  0  0  0  0  0  0  0  0  0  0  0
   -1.0626    6.2806    0.7643 H   0  0  0  0  0  0  0  0  0  0  0  0
   -2.4140    7.3484    1.1977 H   0  0  0  0  0  0  0  0  0  0  0  0
  1  2  2  0  0  0  0
  1  3  1  0  0  0  0
  1  7  1  0  0  0  0
  3  4  1  0  0  0  0
  3  5  1  0  0  0  0
  3  6  1  0  0  0  0
  7  8  1  0  0  0  0
  7 12  1  0  0  0  0
  8  9  1  0  0  0  0
  8 11  1  0  0  0  0
  8 13  1  0  0  0  0
  9 10  2  0  0  0  0
  9 17  1  0  0  0  0
 11 14  1  0  0  0  0
 11 15  1  0  0  0  0
 11 16  1  0  0  0  0
 17 18  1  0  0  0  0
 17 21  1  0  0  0  0
 18 19  1  0  0  0  0
 18 22  1  0  0  0  0
 18 23  1  0  0  0  0
 19 20  2  0  0  0  0
 19 24  1  0  0  0  0
 24 25  1  0  0  0  0
 24 29  1  0  0  0  0
 25 26  1  0  0  0  0
 25 28  1  0  0  0  0
 25 30  1  0  0  0  0
 26 27  2  0  0  0  0
 26 34  1  0  0  0  0
 28 31  1  0  0  0  0
 28 32  1  0  0  0  0
 28 33  1  0  0  0  0
 34 35  1  0  0  0  0
 34 36  1  0  0  0  0
 35 37  1  0  0  0  0
 35 38  1  0  0  0  0
 35 39  1  0  0  0  0
M  END
$$$$

  -OEChem-05262216283D

 39 38  0     1  0  0  0  0  0999 V2000
   -3.0618   -3.0270   -2.6052 C   0  0  0  0  0  0  0  0  0  0  0  0
   -2.0229   -3.2698   -2.0085 O   0  0  0  0  0  0  0  0  0  0  0  0
   -4.1199   -4.1001   -2.7729 C   0  0  0  0  0  0  0  0  0  0  0  0
   -4.3410   -4.2445   -3.8330 H   0  0  0  0  0  0  0  0  0  0  0  0
   -3.7665   -5.0471   -2.3551 H   0  0  0  0  0  0  0  0  0  0  0  0
   -5.0353   -3.8061   -2.2530 H   0  0  0  0  0  0  0  0  0  0  0  0
   -3.2928   -1.7489   -3.0701 N   0  0  0  0  0  0  0  0  0  0  0  0
   -2.3532   -0.6289   -2.9030 C   0  0  2  0  0  0  0  0  0  0  0  0
   -2.3819   -0.0480   -1.4672 C   0  0  0  0  0  0  0  0  0  0  0  0
   -2.7162    1.1115   -1.2664 O   0  0  0  0  0  0  0  0  0  0  0  0
   -2.6869    0.4099   -3.9814 C   0  0  0  0  0  0  0  0  0  0  0  0
   -4.2105   -1.5560   -3.4622 H   0  0  0  0  0  0  0  0  0  0  0  0
   -1.3314   -0.9784   -3.0864 H   0  0  0  0  0  0  0  0  0  0  0  0
   -3.7024    0.7961   -3.8456 H   0  0  0  0  0  0  0  0  0  0  0  0
   -1.9876    1.2505   -3.9263 H   0  0  0  0  0  0  0  0  0  0  0  0
   -2.6112   -0.0360   -4.9779 H   0  0  0  0  0  0  0  0  0  0  0  0
   -1.9781   -0.8664   -0.4235 N   0  0  0  0  0  0  0  0  0  0  0  0
   -2.2589   -0.6963    1.0189 C   0  0  0  0  0  0  0  0  0  0  0  0
   -3.0956    0.5134    1.4684 C   0  0  0  0  0  0  0  0  0  0  0  0
   -4.2999    0.3809    1.6533 O   0  0  0  0  0  0  0  0  0  0  0  0
   -1.7559   -1.8185   -0.7310 H   0  0  0  0  0  0  0  0  0  0  0  0
   -1.3051   -0.6489    1.5514 H   0  0  0  0  0  0  0  0  0  0  0  0
   -2.7820   -1.5907    1.3703 H   0  0  0  0  0  0  0  0  0  0  0  0
   -2.4769    1.7060    1.7879 N   0  0  0  0  0  0  0  0  0  0  0  0
   -3.2130    2.9605    1.9724 C   0  0  2  0  0  0  0  0  0  0  0  0
   -2.4063    4.1605    1.4345 C   0  0  0  0  0  0  0  0  0  0  0  0
   -1.1835    4.0986    1.3532 O   0  0  0  0  0  0  0  0  0  0  0  0
   -3.5163    3.1376    3.4625 C   0  0  0  0  0  0  0  0  0  0  0  0
   -1.5204    1.8087    1.4490 H   0  0  0  0  0  0  0  0  0  0  0  0
   -4.1536    2.9214    1.4124 H   0  0  0  0  0  0  0  0  0  0  0  0
   -2.5868    3.1791    4.0392 H   0  0  0  0  0  0  0  0  0  0  0  0
   -4.0754    4.0624    3.6334 H   0  0  0  0  0  0  0  0  0  0  0  0
   -4.1165    2.2983    3.8276 H   0  0  0  0  0  0  0  0  0  0  0  0
   -3.0531    5.3200    1.0476 N   0  0  0  0  0  0  0  0  0  0  0  0
   -2.3608    6.4587    0.4568 C   0  0  0  0  0  0  0  0  0  0  0  0
   -4.0687    5.3066    1.0442 H   0  0  0  0  0  0  0  0  0  0  0  0
   -1.5845    6.8303    1.1341 H   0  0  0  0  0  0  0  0  0  0  0  0
   -1.8934    6.1721   -0.4911 H   0  0  0  0  0  0  0  0  0  0  0  0
   -3.0666    7.2722    0.2638 H   0  0  0  0  0  0  0  0  0  0  0  0
  1  2  2  0  0  0  0
  1  3  1  0  0  0  0
  1  7  1  0  0  0  0
  3  4  1  0  0  0  0
  3  5  1  0  0  0  0
  3  6  1  0  0  0  0
  7  8  1  0  0  0  0
  7 12  1  0  0  0  0
  8  9  1  0  0  0  0
  8 11  1  0  0  0  0
  8 13  1  0  0  0  0
  9 10  2  0  0  0  0
  9 17  1  0  0  0  0
 11 14  1  0  0  0  0
 11 15  1  0  0  0  0
 11 16  1  0  0  0  0
 17 18  1  0  0  0  0
 17 21  1  0  0  0  0
 18 19  1  0  0  0  0
 18 22  1  0  0  0  0
 18 23  1  0  0  0  0
 19 20  2  0  0  0  0
 19 24  1  0  0  0  0
 24 25  1  0  0  0  0
 24 29  1  0  0  0  0
 25 26  1  0  0  0  0
 25 28  1  0  0  0  0
 25 30  1  0  0  0  0
 26 27  2  0  0  0  0
 26 34  1  0  0  0  0
 28 31  1  0  0  0  0
 28 32  1  0  0  0  0
 28 33  1  0  0  0  0
 34 35  1  0  0  0  0
 34 36  1  0  0  0  0
 35 37  1  0  0  0  0
 35 38  1  0  0  0  0
 35 39  1  0  0  0  0
M  END
$$$$

  -OEChem-05262216283D

 39 38  0     1  0  0  0  0  0999 V2000
   -3.1165   -3.0279   -2.7173 C   0  0  0  0  0  0  0  0  0  0  0  0
   -2.1031   -3.2481   -2.0699 O   0  0  0  0  0  0  0  0  0  0  0  0
   -4.0959   -4.1464   -3.0171 C   0  0  0  0  0  0  0  0  0  0  0  0
   -4.2624   -4.2188   -4.0948 H   0  0  0  0  0  0  0  0  0  0  0  0
   -3.7003   -5.1007   -2.6578 H   0  0  0  0  0  0  0  0  0  0  0  0
   -5.0495   -3.9507   -2.5201 H   0  0  0  0  0  0  0  0  0  0  0  0
   -3.3926   -1.7391   -3.1244 N   0  0  0  0  0  0  0  0  0  0  0  0
   -2.5224   -0.5849   -2.8498 C   0  0  2  0  0  0  0  0  0  0  0  0
   -2.6488   -0.0832   -1.3893 C   0  0  0  0  0  0  0  0  0  0  0  0
   -3.1046    1.0255   -1.1495 O   0  0  0  0  0  0  0  0  0  0  0  0
   -2.8534    0.4954   -3.8882 C   0  0  0  0  0  0  0  0  0  0  0  0
   -4.2889   -1.5742   -3.5743 H   0  0  0  0  0  0  0  0  0  0  0  0
   -1.4765   -0.8744   -2.9995 H   0  0  0  0  0  0  0  0  0  0  0  0
   -3.8922    0.8256   -3.7859 H   0  0  0  0  0  0  0  0  0  0  0  0
   -2.2004    1.3636   -3.7520 H   0  0  0  0  0  0  0  0  0  0  0  0
   -2.7058    0.1095   -4.9014 H   0  0  0  0  0  0  0  0  0  0  0  0
   -2.2202   -0.9210   -0.3708 N   0  0  0  0  0  0  0  0  0  0  0  0
   -2.3666   -0.7579    1.0941 C   0  0  0  0  0  0  0  0  0  0  0  0
   -3.0826    0.4876    1.6455 C   0  0  0  0  0  0  0  0  0  0  0  0
   -4.1773    0.3699    2.1827 O   0  0  0  0  0  0  0  0  0  0  0  0
   -1.9255   -1.8445   -0.7043 H   0  0  0  0  0  0  0  0  0  0  0  0
   -1.3687   -0.7740    1.5404 H   0  0  0  0  0  0  0  0  0  0  0  0
   -2.9075   -1.6290    1.4765 H   0  0  0  0  0  0  0  0  0  0  0  0
   -2.4438    1.7127    1.6431 N   0  0  0  0  0  0  0  0  0  0  0  0
   -3.1548    2.9770    1.8573 C   0  0  2  0  0  0  0  0  0  0  0  0
   -2.6736    4.0485    0.8574 C   0  0  0  0  0  0  0  0  0  0  0  0
   -1.5048    4.0638    0.4842 O   0  0  0  0  0  0  0  0  0  0  0  0
   -2.9201    3.4337    3.2989 C   0  0  0  0  0  0  0  0  0  0  0  0
   -1.6415    1.7728    1.0160 H   0  0  0  0  0  0  0  0  0  0  0  0
   -4.2284    2.8350    1.6946 H   0  0  0  0  0  0  0  0  0  0  0  0
   -1.8526    3.5954    3.4802 H   0  0  0  0  0  0  0  0  0  0  0  0
   -3.4533    4.3686    3.4949 H   0  0  0  0  0  0  0  0  0  0  0  0
   -3.2824    2.6745    3.9992 H   0  0  0  0  0  0  0  0  0  0  0  0
   -3.5492    5.0096    0.3859 N   0  0  0  0  0  0  0  0  0  0  0  0
   -3.1844    5.9753   -0.6432 C   0  0  0  0  0  0  0  0  0  0  0  0
   -4.5292    4.8986    0.6286 H   0  0  0  0  0  0  0  0  0  0  0  0
   -2.3205    6.5682   -0.3248 H   0  0  0  0  0  0  0  0  0  0  0  0
   -2.9341    5.4612   -1.5773 H   0  0  0  0  0  0  0  0  0  0  0  0
   -4.0181    6.6576   -0.8343 H   0  0  0  0  0  0  0  0  0  0  0  0
  1  2  2  0  0  0  0
  1  3  1  0  0  0  0
  1  7  1  0  0  0  0
  3  4  1  0  0  0  0
  3  5  1  0  0  0  0
  3  6  1  0  0  0  0
  7  8  1  0  0  0  0
  7 12  1  0  0  0  0
  8  9  1  0  0  0  0
  8 11  1  0  0  0  0
  8 13  1  0  0  0  0
  9 10  2  0  0  0  0
  9 17  1  0  0  0  0
 11 14  1  0  0  0  0
 11 15  1  0  0  0  0
 11 16  1  0  0  0  0
 17 18  1  0  0  0  0
 17 21  1  0  0  0  0
 18 19  1  0  0  0  0
 18 22  1  0  0  0  0
 18 23  1  0  0  0  0
 19 20  2  0  0  0  0
 19 24  1  0  0  0  0
 24 25  1  0  0  0  0
 24 29  1  0  0  0  0
 25 26  1  0  0  0  0
 25 28  1  0  0  0  0
 25 30  1  0  0  0  0
 26 27  2  0  0  0  0
 26 34  1  0  0  0  0
 28 31  1  0  0  0  0
 28 32  1  0  0  0  0
 28 33  1  0  0  0  0
 34 35  1  0  0  0  0
 34 36  1  0  0  0  0
 35 37  1  0  0  0  0
 35 38  1  0  0  0  0
 35 39  1  0  0  0  0
M  END
$$$$

  -OEChem-05262216283D

 39 38  0     1  0  0  0  0  0999 V2000
   -3.1738   -3.1375   -2.7260 C   0  0  0  0  0  0  0  0  0  0  0  0
   -2.2304   -3.3402   -1.9760 O   0  0  0  0  0  0  0  0  0  0  0  0
   -4.1100   -4.2693   -3.1040 C   0  0  0  0  0  0  0  0  0  0  0  0
   -4.1536   -4.3738   -4.1908 H   0  0  0  0  0  0  0  0  0  0  0  0
   -3.7559   -5.2111   -2.6753 H   0  0  0  0  0  0  0  0  0  0  0  0
   -5.1140   -4.0659   -2.7237 H   0  0  0  0  0  0  0  0  0  0  0  0
   -3.4169   -1.8551   -3.1742 N   0  0  0  0  0  0  0  0  0  0  0  0
   -2.5630   -0.6965   -2.8652 C   0  0  2  0  0  0  0  0  0  0  0  0
   -2.7940   -0.1457   -1.4348 C   0  0  0  0  0  0  0  0  0  0  0  0
   -3.1817    0.9996   -1.2604 O   0  0  0  0  0  0  0  0  0  0  0  0
   -2.8079    0.3528   -3.9576 C   0  0  0  0  0  0  0  0  0  0  0  0
   -4.2503   -1.7068   -3.7370 H   0  0  0  0  0  0  0  0  0  0  0  0
   -1.5106   -0.9956   -2.9254 H   0  0  0  0  0  0  0  0  0  0  0  0
   -3.8480    0.6940   -3.9395 H   0  0  0  0  0  0  0  0  0  0  0  0
   -2.1576    1.2198   -3.8021 H   0  0  0  0  0  0  0  0  0  0  0  0
   -2.5924   -0.0654   -4.9455 H   0  0  0  0  0  0  0  0  0  0  0  0
   -2.5486   -0.9849   -0.3604 N   0  0  0  0  0  0  0  0  0  0  0  0
   -2.7096   -0.7461    1.0933 C   0  0  0  0  0  0  0  0  0  0  0  0
   -3.2214    0.6079    1.6223 C   0  0  0  0  0  0  0  0  0  0  0  0
   -4.1626    0.6229    2.4055 O   0  0  0  0  0  0  0  0  0  0  0  0
   -2.2651   -1.9291   -0.6424 H   0  0  0  0  0  0  0  0  0  0  0  0
   -1.7386   -0.9120    1.5679 H   0  0  0  0  0  0  0  0  0  0  0  0
   -3.3940   -1.5089    1.4768 H   0  0  0  0  0  0  0  0  0  0  0  0
   -2.5328    1.7769    1.3599 N   0  0  0  0  0  0  0  0  0  0  0  0
   -3.0168    3.1097    1.7374 C   0  0  2  0  0  0  0  0  0  0  0  0
   -3.0093    4.0576    0.5206 C   0  0  0  0  0  0  0  0  0  0  0  0
   -1.9522    4.3720   -0.0151 O   0  0  0  0  0  0  0  0  0  0  0  0
   -2.1279    3.6404    2.8656 C   0  0  0  0  0  0  0  0  0  0  0  0
   -1.9575    1.7371    0.5180 H   0  0  0  0  0  0  0  0  0  0  0  0
   -4.0462    3.0584    2.1055 H   0  0  0  0  0  0  0  0  0  0  0  0
   -1.0837    3.6947    2.5410 H   0  0  0  0  0  0  0  0  0  0  0  0
   -2.4513    4.6417    3.1664 H   0  0  0  0  0  0  0  0  0  0  0  0
   -2.1893    2.9791    3.7355 H   0  0  0  0  0  0  0  0  0  0  0  0
   -4.1978    4.5629    0.0273 N   0  0  0  0  0  0  0  0  0  0  0  0
   -4.2719    5.3446   -1.2002 C   0  0  0  0  0  0  0  0  0  0  0  0
   -5.0513    4.1521    0.3946 H   0  0  0  0  0  0  0  0  0  0  0  0
   -3.6381    6.2349   -1.1281 H   0  0  0  0  0  0  0  0  0  0  0  0
   -3.9415    4.7443   -2.0544 H   0  0  0  0  0  0  0  0  0  0  0  0
   -5.3013    5.6692   -1.3793 H   0  0  0  0  0  0  0  0  0  0  0  0
  1  2  2  0  0  0  0
  1  3  1  0  0  0  0
  1  7  1  0  0  0  0
  3  4  1  0  0  0  0
  3  5  1  0  0  0  0
  3  6  1  0  0  0  0
  7  8  1  0  0  0  0
  7 12  1  0  0  0  0
  8  9  1  0  0  0  0
  8 11  1  0  0  0  0
  8 13  1  0  0  0  0
  9 10  2  0  0  0  0
  9 17  1  0  0  0  0
 11 14  1  0  0  0  0
 11 15  1  0  0  0  0
 11 16  1  0  0  0  0
 17 18  1  0  0  0  0
 17 21  1  0  0  0  0
 18 19  1  0  0  0  0
 18 22  1  0  0  0  0
 18 23  1  0  0  0  0
 19 20  2  0  0  0  0
 19 24  1  0  0  0  0
 24 25  1  0  0  0  0
 24 29  1  0  0  0  0
 25 26  1  0  0  0  0
 25 28  1  0  0  0  0
 25 30  1  0  0  0  0
 26 27  2  0  0  0  0
 26 34  1  0  0  0  0
 28 31  1  0  0  0  0
 28 32  1  0  0  0  0
 28 33  1  0  0  0  0
 34 35  1  0  0  0  0
 34 36  1  0  0  0  0
 35 37  1  0  0  0  0
 35 38  1  0  0  0  0
 35 39  1  0  0  0  0
M  END
$$$$

  -OEChem-05262216283D

 39 38  0     1  0  0  0  0  0999 V2000
   -3.4755   -3.2416   -2.6708 C   0  0  0  0  0  0  0  0  0  0  0  0
   -2.9882   -3.5933   -1.6068 O   0  0  0  0  0  0  0  0  0  0  0  0
   -4.5408   -4.0855   -3.3452 C   0  0  0  0  0  0  0  0  0  0  0  0
   -4.1888   -4.4187   -4.3247 H   0  0  0  0  0  0  0  0  0  0  0  0
   -4.7678   -4.9648   -2.7355 H   0  0  0  0  0  0  0  0  0  0  0  0
   -5.4556   -3.5018   -3.4740 H   0  0  0  0  0  0  0  0  0  0  0  0
   -3.0783   -2.0442   -3.2304 N   0  0  0  0  0  0  0  0  0  0  0  0
   -1.9979   -1.1976   -2.6969 C   0  0  2  0  0  0  0  0  0  0  0  0
   -2.4341   -0.3586   -1.4674 C   0  0  0  0  0  0  0  0  0  0  0  0
   -2.3482    0.8592   -1.4809 O   0  0  0  0  0  0  0  0  0  0  0  0
   -1.4861   -0.3349   -3.8589 C   0  0  0  0  0  0  0  0  0  0  0  0
   -3.5282   -1.7643   -4.0978 H   0  0  0  0  0  0  0  0  0  0  0  0
   -1.1692   -1.8347   -2.3686 H   0  0  0  0  0  0  0  0  0  0  0  0
   -2.2732    0.3368   -4.2170 H   0  0  0  0  0  0  0  0  0  0  0  0
   -0.6351    0.2729   -3.5348 H   0  0  0  0  0  0  0  0  0  0  0  0
   -1.1588   -0.9669   -4.6900 H   0  0  0  0  0  0  0  0  0  0  0  0
   -2.8754   -1.0263   -0.3373 N   0  0  0  0  0  0  0  0  0  0  0  0
   -3.4281   -0.5230    0.9447 C   0  0  0  0  0  0  0  0  0  0  0  0
   -3.6195    0.9778    1.2567 C   0  0  0  0  0  0  0  0  0  0  0  0
   -4.6066    1.3125    1.9015 O   0  0  0  0  0  0  0  0  0  0  0  0
   -2.9047   -2.0431   -0.4686 H   0  0  0  0  0  0  0  0  0  0  0  0
   -2.7860   -0.9070    1.7422 H   0  0  0  0  0  0  0  0  0  0  0  0
   -4.4120   -0.9858    1.0690 H   0  0  0  0  0  0  0  0  0  0  0  0
   -2.6619    1.9352    0.9866 N   0  0  0  0  0  0  0  0  0  0  0  0
   -2.7812    3.3552    1.3545 C   0  0  2  0  0  0  0  0  0  0  0  0
   -3.7606    4.1413    0.4465 C   0  0  0  0  0  0  0  0  0  0  0  0
   -3.4185    5.1535   -0.1548 O   0  0  0  0  0  0  0  0  0  0  0  0
   -1.3632    3.9387    1.3429 C   0  0  0  0  0  0  0  0  0  0  0  0
   -2.0747    1.7089    0.1795 H   0  0  0  0  0  0  0  0  0  0  0  0
   -3.1646    3.4319    2.3773 H   0  0  0  0  0  0  0  0  0  0  0  0
   -0.9404    3.8997    0.3338 H   0  0  0  0  0  0  0  0  0  0  0  0
   -1.3790    4.9824    1.6720 H   0  0  0  0  0  0  0  0  0  0  0  0
   -0.7131    3.3741    2.0180 H   0  0  0  0  0  0  0  0  0  0  0  0
   -5.0728    3.7221    0.3523 N   0  0  0  0  0  0  0  0  0  0  0  0
   -6.0888    4.3829   -0.4539 C   0  0  0  0  0  0  0  0  0  0  0  0
   -5.3135    2.8805    0.8817 H   0  0  0  0  0  0  0  0  0  0  0  0
   -6.2365    5.4131   -0.1144 H   0  0  0  0  0  0  0  0  0  0  0  0
   -5.7915    4.3970   -1.5076 H   0  0  0  0  0  0  0  0  0  0  0  0
   -7.0410    3.8507   -0.3695 H   0  0  0  0  0  0  0  0  0  0  0  0
  1  2  2  0  0  0  0
  1  3  1  0  0  0  0
  1  7  1  0  0  0  0
  3  4  1  0  0  0  0
  3  5  1  0  0  0  0
  3  6  1  0  0  0  0
  7  8  1  0  0  0  0
  7 12  1  0  0  0  0
  8  9  1  0  0  0  0
  8 11  1  0  0  0  0
  8 13  1  0  0  0  0
  9 10  2  0  0  0  0
  9 17  1  0  0  0  0
 11 14  1  0  0  0  0
 11 15  1  0  0  0  0
 11 16  1  0  0  0  0
 17 18  1  0  0  0  0
 17 21  1  0  0  0  0
 18 19  1  0  0  0  0
 18 22  1  0  0  0  0
 18 23  1  0  0  0  0
 19 20  2  0  0  0  0
 19 24  1  0  0  0  0
 24 25  1  0  0  0  0
 24 29  1  0  0  0  0
 25 26  1  0  0  0  0
 25 28  1  0  0  0  0
 25 30  1  0  0  0  0
 26 27  2  0  0  0  0
 26 34  1  0  0  0  0
 28 31  1  0  0  0  0
 28 32  1  0  0  0  0
 28 33  1  0  0  0  0
 34 35  1  0  0  0  0
 34 36  1  0  0  0  0
 35 37  1  0  0  0  0
 35 38  1  0  0  0  0
 35 39  1  0  0  0  0
M  END
$$$$

  -OEChem-05262216283D

 39 38  0     1  0  0  0  0  0999 V2000
   -3.2485   -3.5473   -2.6719 C   0  0  0  0  0  0  0  0  0  0  0  0
   -2.8044   -3.8112   -1.5645 O   0  0  0  0  0  0  0  0  0  0  0  0
   -4.2432   -4.4752   -3.3427 C   0  0  0  0  0  0  0  0  0  0  0  0
   -3.8916   -4.7420   -4.3423 H   0  0  0  0  0  0  0  0  0  0  0  0
   -4.3596   -5.3908   -2.7557 H   0  0  0  0  0  0  0  0  0  0  0  0
   -5.2158   -3.9839   -3.4250 H   0  0  0  0  0  0  0  0  0  0  0  0
   -2.8796   -2.3646   -3.2796 N   0  0  0  0  0  0  0  0  0  0  0  0
   -1.8859   -1.4270   -2.7306 C   0  0  2  0  0  0  0  0  0  0  0  0
   -2.4553   -0.5389   -1.5935 C   0  0  0  0  0  0  0  0  0  0  0  0
   -2.4363    0.6773   -1.6909 O   0  0  0  0  0  0  0  0  0  0  0  0
   -1.3343   -0.6136   -3.9099 C   0  0  0  0  0  0  0  0  0  0  0  0
   -3.3076   -2.1480   -4.1759 H   0  0  0  0  0  0  0  0  0  0  0  0
   -1.0515   -1.9943   -2.3033 H   0  0  0  0  0  0  0  0  0  0  0  0
   -2.1274   -0.0169   -4.3725 H   0  0  0  0  0  0  0  0  0  0  0  0
   -0.5470    0.0657   -3.5673 H   0  0  0  0  0  0  0  0  0  0  0  0
   -0.9075   -1.2779   -4.6676 H   0  0  0  0  0  0  0  0  0  0  0  0
   -2.9684   -1.1633   -0.4686 N   0  0  0  0  0  0  0  0  0  0  0  0
   -3.5747   -0.6358    0.7807 C   0  0  0  0  0  0  0  0  0  0  0  0
   -3.7741    0.8626    1.1100 C   0  0  0  0  0  0  0  0  0  0  0  0
   -4.6559    1.1511    1.9106 O   0  0  0  0  0  0  0  0  0  0  0  0
   -2.9245   -2.1856   -0.5400 H   0  0  0  0  0  0  0  0  0  0  0  0
   -2.9764   -1.0297    1.6068 H   0  0  0  0  0  0  0  0  0  0  0  0
   -4.5688   -1.0873    0.8559 H   0  0  0  0  0  0  0  0  0  0  0  0
   -2.9631    1.8841    0.6594 N   0  0  0  0  0  0  0  0  0  0  0  0
   -3.0858    3.2981    1.0473 C   0  0  2  0  0  0  0  0  0  0  0  0
   -4.2677    4.0254    0.3579 C   0  0  0  0  0  0  0  0  0  0  0  0
   -4.1111    5.0664   -0.2703 O   0  0  0  0  0  0  0  0  0  0  0  0
   -1.7329    3.9569    0.7510 C   0  0  0  0  0  0  0  0  0  0  0  0
   -2.4239    1.6649   -0.1820 H   0  0  0  0  0  0  0  0  0  0  0  0
   -3.2592    3.3611    2.1266 H   0  0  0  0  0  0  0  0  0  0  0  0
   -1.5220    3.9334   -0.3232 H   0  0  0  0  0  0  0  0  0  0  0  0
   -1.7374    5.0007    1.0805 H   0  0  0  0  0  0  0  0  0  0  0  0
   -0.9294    3.4330    1.2771 H   0  0  0  0  0  0  0  0  0  0  0  0
   -5.5458    3.5238    0.5039 N   0  0  0  0  0  0  0  0  0  0  0  0
   -6.7401    4.1568   -0.0369 C   0  0  0  0  0  0  0  0  0  0  0  0
   -5.6324    2.6763    1.0702 H   0  0  0  0  0  0  0  0  0  0  0  0
   -6.8884    5.1416    0.4177 H   0  0  0  0  0  0  0  0  0  0  0  0
   -6.6518    4.2779   -1.1215 H   0  0  0  0  0  0  0  0  0  0  0  0
   -7.6203    3.5416    0.1720 H   0  0  0  0  0  0  0  0  0  0  0  0
  1  2  2  0  0  0  0
  1  3  1  0  0  0  0
  1  7  1  0  0  0  0
  3  4  1  0  0  0  0
  3  5  1  0  0  0  0
  3  6  1  0  0  0  0
  7  8  1  0  0  0  0
  7 12  1  0  0  0  0
  8  9  1  0  0  0  0
  8 11  1  0  0  0  0
  8 13  1  0  0  0  0
  9 10  2  0  0  0  0
  9 17  1  0  0  0  0
 11 14  1  0  0  0  0
 11 15  1  0  0  0  0
 11 16  1  0  0  0  0
 17 18  1  0  0  0  0
 17 21  1  0  0  0  0
 18 19  1  0  0  0  0
 18 22  1  0  0  0  0
 18 23  1  0  0  0  0
 19 20  2  0  0  0  0
 19 24  1  0  0  0  0
 24 25  1  0  0  0  0
 24 29  1  0  0  0  0
 25 26  1  0  0  0  0
 25 28  1  0  0  0  0
 25 30  1  0  0  0  0
 26 27  2  0  0  0  0
 26 34  1  0  0  0  0
 28 31  1  0  0  0  0
 28 32  1  0  0  0  0
 28 33  1  0  0  0  0
 34 35  1  0  0  0  0
 34 36  1  0  0  0  0
 35 37  1  0  0  0  0
 35 38  1  0  0  0  0
 35 39  1  0  0  0  0
M  END
$$$$

  -OEChem-05262216283D

 39 38  0     1  0  0  0  0  0999 V2000
   -3.4944   -3.5005   -2.7280 C   0  0  0  0  0  0  0  0  0  0  0  0
   -2.3673   -3.4827   -2.2555 O   0  0  0  0  0  0  0  0  0  0  0  0
   -4.1863   -4.8185   -3.0196 C   0  0  0  0  0  0  0  0  0  0  0  0
   -3.5334   -5.6541   -2.7514 H   0  0  0  0  0  0  0  0  0  0  0  0
   -4.4261   -4.8880   -4.0833 H   0  0  0  0  0  0  0  0  0  0  0  0
   -5.1096   -4.8939   -2.4398 H   0  0  0  0  0  0  0  0  0  0  0  0
   -4.1502   -2.3055   -2.9432 N   0  0  0  0  0  0  0  0  0  0  0  0
   -3.5508   -0.9857   -2.6910 C   0  0  2  0  0  0  0  0  0  0  0  0
   -3.5206   -0.6194   -1.1867 C   0  0  0  0  0  0  0  0  0  0  0  0
   -4.3007    0.2002   -0.7263 O   0  0  0  0  0  0  0  0  0  0  0  0
   -4.3133    0.0430   -3.5367 C   0  0  0  0  0  0  0  0  0  0  0  0
   -5.1155   -2.3511   -3.2576 H   0  0  0  0  0  0  0  0  0  0  0  0
   -2.5119   -0.9888   -3.0389 H   0  0  0  0  0  0  0  0  0  0  0  0
   -5.3648    0.0916   -3.2360 H   0  0  0  0  0  0  0  0  0  0  0  0
   -3.8710    1.0367   -3.4115 H   0  0  0  0  0  0  0  0  0  0  0  0
   -4.2643   -0.2234   -4.5969 H   0  0  0  0  0  0  0  0  0  0  0  0
   -2.7483   -1.3714   -0.3259 N   0  0  0  0  0  0  0  0  0  0  0  0
   -1.9343   -0.9084    0.8225 C   0  0  0  0  0  0  0  0  0  0  0  0
   -1.7856    0.5617    1.2880 C   0  0  0  0  0  0  0  0  0  0  0  0
   -0.9318    0.7749    2.1331 O   0  0  0  0  0  0  0  0  0  0  0  0
   -2.3540   -2.1856   -0.8085 H   0  0  0  0  0  0  0  0  0  0  0  0
   -0.9130   -1.2547    0.6368 H   0  0  0  0  0  0  0  0  0  0  0  0
   -2.3050   -1.4484    1.6984 H   0  0  0  0  0  0  0  0  0  0  0  0
   -2.1162    1.7080    0.6031 N   0  0  0  0  0  0  0  0  0  0  0  0
   -3.3256    2.4430    1.0087 C   0  0  2  0  0  0  0  0  0  0  0  0
   -3.8069    3.3930   -0.1124 C   0  0  0  0  0  0  0  0  0  0  0  0
   -3.3260    4.5128   -0.2440 O   0  0  0  0  0  0  0  0  0  0  0  0
   -3.0394    3.2244    2.3013 C   0  0  0  0  0  0  0  0  0  0  0  0
   -1.3097    2.3284    0.6139 H   0  0  0  0  0  0  0  0  0  0  0  0
   -4.1385    1.7420    1.2210 H   0  0  0  0  0  0  0  0  0  0  0  0
   -2.1910    3.9025    2.1631 H   0  0  0  0  0  0  0  0  0  0  0  0
   -3.9138    3.8178    2.5860 H   0  0  0  0  0  0  0  0  0  0  0  0
   -2.8069    2.5422    3.1245 H   0  0  0  0  0  0  0  0  0  0  0  0
   -4.7882    2.9775   -0.9896 N   0  0  0  0  0  0  0  0  0  0  0  0
   -5.2092    3.7544   -2.1469 C   0  0  0  0  0  0  0  0  0  0  0  0
   -4.9909    1.9748   -0.9660 H   0  0  0  0  0  0  0  0  0  0  0  0
   -5.5246    4.7576   -1.8408 H   0  0  0  0  0  0  0  0  0  0  0  0
   -4.3875    3.8461   -2.8645 H   0  0  0  0  0  0  0  0  0  0  0  0
   -6.0536    3.2659   -2.6423 H   0  0  0  0  0  0  0  0  0  0  0  0
  1  2  2  0  0  0  0
  1  3  1  0  0  0  0
  1  7  1  0  0  0  0
  3  4  1  0  0  0  0
  3  5  1  0  0  0  0
  3  6  1  0  0  0  0
  7  8  1  0  0  0  0
  7 12  1  0  0  0  0
  8  9  1  0  0  0  0
  8 11  1  0  0  0  0
  8 13  1  0  0  0  0
  9 10  2  0  0  0  0
  9 17  1  0  0  0  0
 11 14  1  0  0  0  0
 11 15  1  0  0  0  0
 11 16  1  0  0  0  0
 17 18  1  0  0  0  0
 17 21  1  0  0  0  0
 18 19  1  0  0  0  0
 18 22  1  0  0  0  0
 18 23  1  0  0  0  0
 19 20  2  0  0  0  0
 19 24  1  0  0  0  0
 24 25  1  0  0  0  0
 24 29  1  0  0  0  0
 25 26  1  0  0  0  0
 25 28  1  0  0  0  0
 25 30  1  0  0  0  0
 26 27  2  0  0  0  0
 26 34  1  0  0  0  0
 28 31  1  0  0  0  0
 28 32  1  0  0  0  0
 28 33  1  0  0  0  0
 34 35  1  0  0  0  0
 34 36  1  0  0  0  0
 35 37  1  0  0  0  0
 35 38  1  0  0  0  0
 35 39  1  0  0  0  0
M  END
$$$$

  -OEChem-05262216283D

 39 38  0     1  0  0  0  0  0999 V2000
   -1.9303   -3.9466   -2.4045 C   0  0  0  0  0  0  0  0  0  0  0  0
   -0.9631   -3.2242   -2.2142 O   0  0  0  0  0  0  0  0  0  0  0  0
   -1.9059   -5.3988   -1.9669 C   0  0  0  0  0  0  0  0  0  0  0  0
   -2.1005   -6.0510   -2.8220 H   0  0  0  0  0  0  0  0  0  0  0  0
   -0.9269   -5.6503   -1.5491 H   0  0  0  0  0  0  0  0  0  0  0  0
   -2.6687   -5.5729   -1.2040 H   0  0  0  0  0  0  0  0  0  0  0  0
   -3.0664   -3.4128   -2.9772 N   0  0  0  0  0  0  0  0  0  0  0  0
   -3.1673   -2.0350   -3.4855 C   0  0  2  0  0  0  0  0  0  0  0  0
   -3.3711   -0.9901   -2.3577 C   0  0  0  0  0  0  0  0  0  0  0  0
   -4.3858   -0.3138   -2.3224 O   0  0  0  0  0  0  0  0  0  0  0  0
   -4.2922   -2.0221   -4.5296 C   0  0  0  0  0  0  0  0  0  0  0  0
   -3.8681   -4.0286   -3.0831 H   0  0  0  0  0  0  0  0  0  0  0  0
   -2.2375   -1.7699   -4.0010 H   0  0  0  0  0  0  0  0  0  0  0  0
   -5.2514   -2.2778   -4.0677 H   0  0  0  0  0  0  0  0  0  0  0  0
   -4.3800   -1.0284   -4.9807 H   0  0  0  0  0  0  0  0  0  0  0  0
   -4.0828   -2.7430   -5.3259 H   0  0  0  0  0  0  0  0  0  0  0  0
   -2.3692   -0.8543   -1.4108 N   0  0  0  0  0  0  0  0  0  0  0  0
   -2.2115   -0.0039   -0.2013 C   0  0  0  0  0  0  0  0  0  0  0  0
   -3.2217    1.0345    0.3474 C   0  0  0  0  0  0  0  0  0  0  0  0
   -2.8734    1.6274    1.3601 O   0  0  0  0  0  0  0  0  0  0  0  0
   -1.6078   -1.5237   -1.5689 H   0  0  0  0  0  0  0  0  0  0  0  0
   -1.2853    0.5595   -0.3486 H   0  0  0  0  0  0  0  0  0  0  0  0
   -2.0425   -0.6935    0.6311 H   0  0  0  0  0  0  0  0  0  0  0  0
   -4.4513    1.3491   -0.1996 N   0  0  0  0  0  0  0  0  0  0  0  0
   -5.5016    2.2335    0.3475 C   0  0  2  0  0  0  0  0  0  0  0  0
   -5.1602    3.7415    0.3780 C   0  0  0  0  0  0  0  0  0  0  0  0
   -6.0247    4.5600    0.0903 O   0  0  0  0  0  0  0  0  0  0  0  0
   -5.9567    1.7528    1.7322 C   0  0  0  0  0  0  0  0  0  0  0  0
   -4.6757    0.8455   -1.0598 H   0  0  0  0  0  0  0  0  0  0  0  0
   -6.3629    2.1388   -0.3218 H   0  0  0  0  0  0  0  0  0  0  0  0
   -5.1785    1.9158    2.4835 H   0  0  0  0  0  0  0  0  0  0  0  0
   -6.8508    2.3016    2.0439 H   0  0  0  0  0  0  0  0  0  0  0  0
   -6.1977    0.6861    1.7040 H   0  0  0  0  0  0  0  0  0  0  0  0
   -3.9178    4.1919    0.7764 N   0  0  0  0  0  0  0  0  0  0  0  0
   -3.5833    5.5963    0.9647 C   0  0  0  0  0  0  0  0  0  0  0  0
   -3.2777    3.4719    1.1214 H   0  0  0  0  0  0  0  0  0  0  0  0
   -3.7740    6.1630    0.0474 H   0  0  0  0  0  0  0  0  0  0  0  0
   -4.1808    6.0258    1.7753 H   0  0  0  0  0  0  0  0  0  0  0  0
   -2.5243    5.6997    1.2195 H   0  0  0  0  0  0  0  0  0  0  0  0
  1  2  2  0  0  0  0
  1  3  1  0  0  0  0
  1  7  1  0  0  0  0
  3  4  1  0  0  0  0
  3  5  1  0  0  0  0
  3  6  1  0  0  0  0
  7  8  1  0  0  0  0
  7 12  1  0  0  0  0
  8  9  1  0  0  0  0
  8 11  1  0  0  0  0
  8 13  1  0  0  0  0
  9 10  2  0  0  0  0
  9 17  1  0  0  0  0
 11 14  1  0  0  0  0
 11 15  1  0  0  0  0
 11 16  1  0  0  0  0
 17 18  1  0  0  0  0
 17 21  1  0  0  0  0
 18 19  1  0  0  0  0
 18 22  1  0  0  0  0
 18 23  1  0  0  0  0
 19 20  2  0  0  0  0
 19 24  1  0  0  0  0
 24 25  1  0  0  0  0
 24 29  1  0  0  0  0
 25 26  1  0  0  0  0
 25 28  1  0  0  0  0
 25 30  1  0  0  0  0
 26 27  2  0  0  0  0
 26 34  1  0  0  0  0
 28 31  1  0  0  0  0
 28 32  1  0  0  0  0
 28 33  1  0  0  0  0
 34 35  1  0  0  0  0
 34 36  1  0  0  0  0
 35 37  1  0  0  0  0
 35 38  1  0  0  0  0
 35 39  1  0  0  0  0
M  END
$$$$

  -OEChem-05262216283D

 39 38  0     1  0  0  0  0  0999 V2000
   -2.1729   -3.7343   -2.5603 C   0  0  0  0  0  0  0  0  0  0  0  0
   -1.1386   -3.1410   -2.2951 O   0  0  0  0  0  0  0  0  0  0  0  0
   -2.2470   -5.2444   -2.4371 C   0  0  0  0  0  0  0  0  0  0  0  0
   -2.4901   -5.6875   -3.4061 H   0  0  0  0  0  0  0  0  0  0  0  0
   -1.2853   -5.6427   -2.1005 H   0  0  0  0  0  0  0  0  0  0  0  0
   -3.0152   -5.5247   -1.7122 H   0  0  0  0  0  0  0  0  0  0  0  0
   -3.2854   -3.0084   -2.9355 N   0  0  0  0  0  0  0  0  0  0  0  0
   -3.2741   -1.5592   -3.1978 C   0  0  2  0  0  0  0  0  0  0  0  0
   -3.2918   -0.7062   -1.9026 C   0  0  0  0  0  0  0  0  0  0  0  0
   -4.1589    0.1387   -1.7263 O   0  0  0  0  0  0  0  0  0  0  0  0
   -4.4592   -1.2605   -4.1265 C   0  0  0  0  0  0  0  0  0  0  0  0
   -4.1289   -3.5333   -3.1503 H   0  0  0  0  0  0  0  0  0  0  0  0
   -2.3574   -1.2975   -3.7379 H   0  0  0  0  0  0  0  0  0  0  0  0
   -5.4077   -1.4856   -3.6280 H   0  0  0  0  0  0  0  0  0  0  0  0
   -4.4606   -0.2035   -4.4119 H   0  0  0  0  0  0  0  0  0  0  0  0
   -4.3911   -1.8604   -5.0392 H   0  0  0  0  0  0  0  0  0  0  0  0
   -2.2428   -0.8405   -1.0091 N   0  0  0  0  0  0  0  0  0  0  0  0
   -2.0583   -0.3886    0.3957 C   0  0  0  0  0  0  0  0  0  0  0  0
   -3.0966    0.3945    1.2344 C   0  0  0  0  0  0  0  0  0  0  0  0
   -2.6582    0.9885    2.2057 O   0  0  0  0  0  0  0  0  0  0  0  0
   -1.5647   -1.5434   -1.3246 H   0  0  0  0  0  0  0  0  0  0  0  0
   -1.1554    0.2304    0.4011 H   0  0  0  0  0  0  0  0  0  0  0  0
   -1.8394   -1.2842    0.9842 H   0  0  0  0  0  0  0  0  0  0  0  0
   -4.4351    0.5198    0.9051 N   0  0  0  0  0  0  0  0  0  0  0  0
   -5.3629    1.5632    1.3866 C   0  0  2  0  0  0  0  0  0  0  0  0
   -5.0562    2.9459    0.7633 C   0  0  0  0  0  0  0  0  0  0  0  0
   -5.4415    3.9822    1.2911 O   0  0  0  0  0  0  0  0  0  0  0  0
   -5.4759    1.6054    2.9202 C   0  0  0  0  0  0  0  0  0  0  0  0
   -4.6607    0.1165   -0.0044 H   0  0  0  0  0  0  0  0  0  0  0  0
   -6.3547    1.2878    1.0170 H   0  0  0  0  0  0  0  0  0  0  0  0
   -4.5981    2.0796    3.3692 H   0  0  0  0  0  0  0  0  0  0  0  0
   -6.3563    2.1848    3.2150 H   0  0  0  0  0  0  0  0  0  0  0  0
   -5.5743    0.5935    3.3241 H   0  0  0  0  0  0  0  0  0  0  0  0
   -4.4384    3.0149   -0.4740 N   0  0  0  0  0  0  0  0  0  0  0  0
   -4.1560    4.2644   -1.1666 C   0  0  0  0  0  0  0  0  0  0  0  0
   -4.1982    2.1299   -0.9222 H   0  0  0  0  0  0  0  0  0  0  0  0
   -3.5092    4.9025   -0.5554 H   0  0  0  0  0  0  0  0  0  0  0  0
   -3.6477    4.0639   -2.1144 H   0  0  0  0  0  0  0  0  0  0  0  0
   -5.0852    4.8035   -1.3787 H   0  0  0  0  0  0  0  0  0  0  0  0
  1  2  2  0  0  0  0
  1  3  1  0  0  0  0
  1  7  1  0  0  0  0
  3  4  1  0  0  0  0
  3  5  1  0  0  0  0
  3  6  1  0  0  0  0
  7  8  1  0  0  0  0
  7 12  1  0  0  0  0
  8  9  1  0  0  0  0
  8 11  1  0  0  0  0
  8 13  1  0  0  0  0
  9 10  2  0  0  0  0
  9 17  1  0  0  0  0
 11 14  1  0  0  0  0
 11 15  1  0  0  0  0
 11 16  1  0  0  0  0
 17 18  1  0  0  0  0
 17 21  1  0  0  0  0
 18 19  1  0  0  0  0
 18 22  1  0  0  0  0
 18 23  1  0  0  0  0
 19 20  2  0  0  0  0
 19 24  1  0  0  0  0
 24 25  1  0  0  0  0
 24 29  1  0  0  0  0
 25 26  1  0  0  0  0
 25 28  1  0  0  0  0
 25 30  1  0  0  0  0
 26 27  2  0  0  0  0
 26 34  1  0  0  0  0
 28 31  1  0  0  0  0
 28 32  1  0  0  0  0
 28 33  1  0  0  0  0
 34 35  1  0  0  0  0
 34 36  1  0  0  0  0
 35 37  1  0  0  0  0
 35 38  1  0  0  0  0
 35 39  1  0  0  0  0
M  END
$$$$

  -OEChem-05262216283D

 39 38  0     1  0  0  0  0  0999 V2000
   -3.5295   -2.7588   -2.0966 C   0  0  0  0  0  0  0  0  0  0  0  0
   -2.5800   -3.5269   -2.0227 O   0  0  0  0  0  0  0  0  0  0  0  0
   -4.8917   -3.1716   -1.5733 C   0  0  0  0  0  0  0  0  0  0  0  0
   -5.6688   -2.8848   -2.2858 H   0  0  0  0  0  0  0  0  0  0  0  0
   -4.9285   -4.2546   -1.4282 H   0  0  0  0  0  0  0  0  0  0  0  0
   -5.0878   -2.6780   -0.6182 H   0  0  0  0  0  0  0  0  0  0  0  0
   -3.3205   -1.4739   -2.5497 N   0  0  0  0  0  0  0  0  0  0  0  0
   -1.9918   -0.9404   -2.8930 C   0  0  2  0  0  0  0  0  0  0  0  0
   -1.2113   -0.5495   -1.6167 C   0  0  0  0  0  0  0  0  0  0  0  0
   -1.0056    0.6244   -1.3418 O   0  0  0  0  0  0  0  0  0  0  0  0
   -2.2071    0.2372   -3.8515 C   0  0  0  0  0  0  0  0  0  0  0  0
   -4.0701   -0.8076   -2.3355 H   0  0  0  0  0  0  0  0  0  0  0  0
   -1.4060   -1.6998   -3.4218 H   0  0  0  0  0  0  0  0  0  0  0  0
   -2.8066    1.0190   -3.3738 H   0  0  0  0  0  0  0  0  0  0  0  0
   -1.2449    0.6688   -4.1449 H   0  0  0  0  0  0  0  0  0  0  0  0
   -2.7264   -0.0971   -4.7549 H   0  0  0  0  0  0  0  0  0  0  0  0
   -0.9590   -1.5231   -0.6675 N   0  0  0  0  0  0  0  0  0  0  0  0
   -1.3465   -1.4524    0.7642 C   0  0  0  0  0  0  0  0  0  0  0  0
   -2.1027   -0.2428    1.3614 C   0  0  0  0  0  0  0  0  0  0  0  0
   -2.2611   -0.2175    2.5741 O   0  0  0  0  0  0  0  0  0  0  0  0
   -1.1235   -2.4519   -1.0683 H   0  0  0  0  0  0  0  0  0  0  0  0
   -0.4280   -1.5541    1.3496 H   0  0  0  0  0  0  0  0  0  0  0  0
   -1.9669   -2.3279    0.9764 H   0  0  0  0  0  0  0  0  0  0  0  0
   -2.9660    0.5075    0.5894 N   0  0  0  0  0  0  0  0  0  0  0  0
   -4.2318    1.1122    1.0092 C   0  0  2  0  0  0  0  0  0  0  0  0
   -5.3987    0.6301    0.1175 C   0  0  0  0  0  0  0  0  0  0  0  0
   -5.1864    0.1264   -0.9855 O   0  0  0  0  0  0  0  0  0  0  0  0
   -4.0745    2.6314    0.9229 C   0  0  0  0  0  0  0  0  0  0  0  0
   -2.7263    0.5578   -0.4007 H   0  0  0  0  0  0  0  0  0  0  0  0
   -4.4608    0.8349    2.0433 H   0  0  0  0  0  0  0  0  0  0  0  0
   -3.8591    2.9365   -0.1062 H   0  0  0  0  0  0  0  0  0  0  0  0
   -4.9897    3.1324    1.2519 H   0  0  0  0  0  0  0  0  0  0  0  0
   -3.2500    2.9617    1.5628 H   0  0  0  0  0  0  0  0  0  0  0  0
   -6.7044    0.7508    0.5547 N   0  0  0  0  0  0  0  0  0  0  0  0
   -7.8566    0.3021   -0.2179 C   0  0  0  0  0  0  0  0  0  0  0  0
   -6.8552    1.1488    1.4778 H   0  0  0  0  0  0  0  0  0  0  0  0
   -7.8959    0.8179   -1.1834 H   0  0  0  0  0  0  0  0  0  0  0  0
   -7.8010   -0.7769   -0.3964 H   0  0  0  0  0  0  0  0  0  0  0  0
   -8.7825    0.5155    0.3252 H   0  0  0  0  0  0  0  0  0  0  0  0
  1  2  2  0  0  0  0
  1  3  1  0  0  0  0
  1  7  1  0  0  0  0
  3  4  1  0  0  0  0
  3  5  1  0  0  0  0
  3  6  1  0  0  0  0
  7  8  1  0  0  0  0
  7 12  1  0  0  0  0
  8  9  1  0  0  0  0
  8 11  1  0  0  0  0
  8 13  1  0  0  0  0
  9 10  2  0  0  0  0
  9 17  1  0  0  0  0
 11 14  1  0  0  0  0
 11 15  1  0  0  0  0
 11 16  1  0  0  0  0
 17 18  1  0  0  0  0
 17 21  1  0  0  0  0
 18 19  1  0  0  0  0
 18 22  1  0  0  0  0
 18 23  1  0  0  0  0
 19 20  2  0  0  0  0
 19 24  1  0  0  0  0
 24 25  1  0  0  0  0
 24 29  1  0  0  0  0
 25 26  1  0  0  0  0
 25 28  1  0  0  0  0
 25 30  1  0  0  0  0
 26 27  2  0  0  0  0
 26 34  1  0  0  0  0
 28 31  1  0  0  0  0
 28 32  1  0  0  0  0
 28 33  1  0  0  0  0
 34 35  1  0  0  0  0
 34 36  1  0  0  0  0
 35 37  1  0  0  0  0
 35 38  1  0  0  0  0
 35 39  1  0  0  0  0
M  END
$$$$

  -OEChem-05262216283D

 39 38  0     1  0  0  0  0  0999 V2000
   -3.0916   -2.8907   -1.8490 C   0  0  0  0  0  0  0  0  0  0  0  0
   -1.9577   -3.3451   -1.9126 O   0  0  0  0  0  0  0  0  0  0  0  0
   -4.2043   -3.6856   -1.1949 C   0  0  0  0  0  0  0  0  0  0  0  0
   -5.0690   -3.7342   -1.8611 H   0  0  0  0  0  0  0  0  0  0  0  0
   -3.8665   -4.7031   -0.9798 H   0  0  0  0  0  0  0  0  0  0  0  0
   -4.5038   -3.2062   -0.2593 H   0  0  0  0  0  0  0  0  0  0  0  0
   -3.3190   -1.5986   -2.2725 N   0  0  0  0  0  0  0  0  0  0  0  0
   -2.2652   -0.7114   -2.7921 C   0  0  2  0  0  0  0  0  0  0  0  0
   -1.4193   -0.1222   -1.6386 C   0  0  0  0  0  0  0  0  0  0  0  0
   -1.5862    1.0313   -1.2686 O   0  0  0  0  0  0  0  0  0  0  0  0
   -2.9578    0.3631   -3.6390 C   0  0  0  0  0  0  0  0  0  0  0  0
   -4.2356   -1.1968   -2.0452 H   0  0  0  0  0  0  0  0  0  0  0  0
   -1.5911   -1.2724   -3.4484 H   0  0  0  0  0  0  0  0  0  0  0  0
   -3.6635    0.9391   -3.0310 H   0  0  0  0  0  0  0  0  0  0  0  0
   -2.2178    1.0525   -4.0577 H   0  0  0  0  0  0  0  0  0  0  0  0
   -3.5067   -0.0991   -4.4652 H   0  0  0  0  0  0  0  0  0  0  0  0
   -0.6483   -0.9673   -0.8576 N   0  0  0  0  0  0  0  0  0  0  0  0
   -0.8326   -1.1295    0.6074 C   0  0  0  0  0  0  0  0  0  0  0  0
   -1.9387   -0.3352    1.3319 C   0  0  0  0  0  0  0  0  0  0  0  0
   -1.7961    0.0163    2.4944 O   0  0  0  0  0  0  0  0  0  0  0  0
   -0.5395   -1.8708   -1.3260 H   0  0  0  0  0  0  0  0  0  0  0  0
    0.1129   -0.8688    1.0919 H   0  0  0  0  0  0  0  0  0  0  0  0
   -1.0241   -2.1870    0.8098 H   0  0  0  0  0  0  0  0  0  0  0  0
   -3.1932   -0.2756    0.7586 N   0  0  0  0  0  0  0  0  0  0  0  0
   -4.3631    0.4356    1.2749 C   0  0  2  0  0  0  0  0  0  0  0  0
   -5.6067    0.0954    0.4211 C   0  0  0  0  0  0  0  0  0  0  0  0
   -5.4851   -0.4921   -0.6552 O   0  0  0  0  0  0  0  0  0  0  0  0
   -4.0987    1.9466    1.2325 C   0  0  0  0  0  0  0  0  0  0  0  0
   -3.2187   -0.4994   -0.2328 H   0  0  0  0  0  0  0  0  0  0  0  0
   -4.5535    0.1248    2.3071 H   0  0  0  0  0  0  0  0  0  0  0  0
   -3.8678    2.2655    0.2105 H   0  0  0  0  0  0  0  0  0  0  0  0
   -4.9736    2.5019    1.5829 H   0  0  0  0  0  0  0  0  0  0  0  0
   -3.2511    2.2067    1.8741 H   0  0  0  0  0  0  0  0  0  0  0  0
   -6.8722    0.4379    0.8591 N   0  0  0  0  0  0  0  0  0  0  0  0
   -8.0864    0.1762    0.0957 C   0  0  0  0  0  0  0  0  0  0  0  0
   -6.9439    0.9392    1.7405 H   0  0  0  0  0  0  0  0  0  0  0  0
   -8.0557    0.6991   -0.8661 H   0  0  0  0  0  0  0  0  0  0  0  0
   -8.1997   -0.8970   -0.0899 H   0  0  0  0  0  0  0  0  0  0  0  0
   -8.9629    0.5246    0.6503 H   0  0  0  0  0  0  0  0  0  0  0  0
  1  2  2  0  0  0  0
  1  3  1  0  0  0  0
  1  7  1  0  0  0  0
  3  4  1  0  0  0  0
  3  5  1  0  0  0  0
  3  6  1  0  0  0  0
  7  8  1  0  0  0  0
  7 12  1  0  0  0  0
  8  9  1  0  0  0  0
  8 11  1  0  0  0  0
  8 13  1  0  0  0  0
  9 10  2  0  0  0  0
  9 17  1  0  0  0  0
 11 14  1  0  0  0  0
 11 15  1  0  0  0  0
 11 16  1  0  0  0  0
 17 18  1  0  0  0  0
 17 21  1  0  0  0  0
 18 19  1  0  0  0  0
 18 22  1  0  0  0  0
 18 23  1  0  0  0  0
 19 20  2  0  0  0  0
 19 24  1  0  0  0  0
 24 25  1  0  0  0  0
 24 29  1  0  0  0  0
 25 26  1  0  0  0  0
 25 28  1  0  0  0  0
 25 30  1  0  0  0  0
 26 27  2  0  0  0  0
 26 34  1  0  0  0  0
 28 31  1  0  0  0  0
 28 32  1  0  0  0  0
 28 33  1  0  0  0  0
 34 35  1  0  0  0  0
 34 36  1  0  0  0  0
 35 37  1  0  0  0  0
 35 38  1  0  0  0  0
 35 39  1  0  0  0  0
M  END
$$$$

  -OEChem-05262216283D

 39 38  0     1  0  0  0  0  0999 V2000
   -3.0450   -2.9093   -1.8541 C   0  0  0  0  0  0  0  0  0  0  0  0
   -1.8932   -3.2675   -2.0544 O   0  0  0  0  0  0  0  0  0  0  0  0
   -4.0494   -3.8576   -1.2293 C   0  0  0  0  0  0  0  0  0  0  0  0
   -4.9587   -3.8883   -1.8346 H   0  0  0  0  0  0  0  0  0  0  0  0
   -3.6315   -4.8663   -1.1701 H   0  0  0  0  0  0  0  0  0  0  0  0
   -4.3057   -3.5205   -0.2216 H   0  0  0  0  0  0  0  0  0  0  0  0
   -3.3892   -1.5981   -2.1042 N   0  0  0  0  0  0  0  0  0  0  0  0
   -2.4658   -0.5956   -2.6639 C   0  0  2  0  0  0  0  0  0  0  0  0
   -1.5123   -0.0344   -1.5817 C   0  0  0  0  0  0  0  0  0  0  0  0
   -1.6379    1.1097   -1.1690 O   0  0  0  0  0  0  0  0  0  0  0  0
   -3.3265    0.4880   -3.3261 C   0  0  0  0  0  0  0  0  0  0  0  0
   -4.3096   -1.2921   -1.7707 H   0  0  0  0  0  0  0  0  0  0  0  0
   -1.8468   -1.0528   -3.4432 H   0  0  0  0  0  0  0  0  0  0  0  0
   -3.9735    0.9734   -2.5877 H   0  0  0  0  0  0  0  0  0  0  0  0
   -2.6894    1.2520   -3.7831 H   0  0  0  0  0  0  0  0  0  0  0  0
   -3.9561    0.0505   -4.1069 H   0  0  0  0  0  0  0  0  0  0  0  0
   -0.6505   -0.8990   -0.9249 N   0  0  0  0  0  0  0  0  0  0  0  0
   -0.6696   -1.0889    0.5463 C   0  0  0  0  0  0  0  0  0  0  0  0
   -1.7027   -0.2857    1.3554 C   0  0  0  0  0  0  0  0  0  0  0  0
   -1.3994    0.2901    2.3908 O   0  0  0  0  0  0  0  0  0  0  0  0
   -0.5869   -1.7869   -1.4310 H   0  0  0  0  0  0  0  0  0  0  0  0
    0.3193   -0.8288    0.9353 H   0  0  0  0  0  0  0  0  0  0  0  0
   -0.8395   -2.1475    0.7616 H   0  0  0  0  0  0  0  0  0  0  0  0
   -3.0326   -0.4956    1.0472 N   0  0  0  0  0  0  0  0  0  0  0  0
   -4.1768    0.2467    1.5824 C   0  0  2  0  0  0  0  0  0  0  0  0
   -5.4778   -0.2561    0.9163 C   0  0  0  0  0  0  0  0  0  0  0  0
   -5.4307   -0.9039   -0.1308 O   0  0  0  0  0  0  0  0  0  0  0  0
   -4.0227    1.7481    1.2946 C   0  0  0  0  0  0  0  0  0  0  0  0
   -3.1925   -0.9510    0.1520 H   0  0  0  0  0  0  0  0  0  0  0  0
   -4.2429    0.0828    2.6628 H   0  0  0  0  0  0  0  0  0  0  0  0
   -3.9276    1.9231    0.2179 H   0  0  0  0  0  0  0  0  0  0  0  0
   -4.8916    2.3018    1.6620 H   0  0  0  0  0  0  0  0  0  0  0  0
   -3.1330    2.1509    1.7876 H   0  0  0  0  0  0  0  0  0  0  0  0
   -6.7083    0.0292    1.4770 N   0  0  0  0  0  0  0  0  0  0  0  0
   -7.9771   -0.3676    0.8781 C   0  0  0  0  0  0  0  0  0  0  0  0
   -6.7188    0.5869    2.3268 H   0  0  0  0  0  0  0  0  0  0  0  0
   -8.0738    0.0515   -0.1291 H   0  0  0  0  0  0  0  0  0  0  0  0
   -8.0469   -1.4586    0.8143 H   0  0  0  0  0  0  0  0  0  0  0  0
   -8.8120   -0.0028    1.4844 H   0  0  0  0  0  0  0  0  0  0  0  0
  1  2  2  0  0  0  0
  1  3  1  0  0  0  0
  1  7  1  0  0  0  0
  3  4  1  0  0  0  0
  3  5  1  0  0  0  0
  3  6  1  0  0  0  0
  7  8  1  0  0  0  0
  7 12  1  0  0  0  0
  8  9  1  0  0  0  0
  8 11  1  0  0  0  0
  8 13  1  0  0  0  0
  9 10  2  0  0  0  0
  9 17  1  0  0  0  0
 11 14  1  0  0  0  0
 11 15  1  0  0  0  0
 11 16  1  0  0  0  0
 17 18  1  0  0  0  0
 17 21  1  0  0  0  0
 18 19  1  0  0  0  0
 18 22  1  0  0  0  0
 18 23  1  0  0  0  0
 19 20  2  0  0  0  0
 19 24  1  0  0  0  0
 24 25  1  0  0  0  0
 24 29  1  0  0  0  0
 25 26  1  0  0  0  0
 25 28  1  0  0  0  0
 25 30  1  0  0  0  0
 26 27  2  0  0  0  0
 26 34  1  0  0  0  0
 28 31  1  0  0  0  0
 28 32  1  0  0  0  0
 28 33  1  0  0  0  0
 34 35  1  0  0  0  0
 34 36  1  0  0  0  0
 35 37  1  0  0  0  0
 35 38  1  0  0  0  0
 35 39  1  0  0  0  0
M  END
$$$$

  -OEChem-05262216283D

 39 38  0     1  0  0  0  0  0999 V2000
   -3.0076   -2.9531   -2.2465 C   0  0  0  0  0  0  0  0  0  0  0  0
   -1.8740   -3.3444   -2.0051 O   0  0  0  0  0  0  0  0  0  0  0  0
   -4.2096   -3.7951   -1.8646 C   0  0  0  0  0  0  0  0  0  0  0  0
   -4.8583   -3.9374   -2.7321 H   0  0  0  0  0  0  0  0  0  0  0  0
   -3.8844   -4.7751   -1.5044 H   0  0  0  0  0  0  0  0  0  0  0  0
   -4.7776   -3.2992   -1.0724 H   0  0  0  0  0  0  0  0  0  0  0  0
   -3.1871   -1.6952   -2.7845 N   0  0  0  0  0  0  0  0  0  0  0  0
   -2.0871   -0.7383   -2.9780 C   0  0  2  0  0  0  0  0  0  0  0  0
   -1.6307   -0.1476   -1.6244 C   0  0  0  0  0  0  0  0  0  0  0  0
   -2.0934    0.9132   -1.2313 O   0  0  0  0  0  0  0  0  0  0  0  0
   -2.5643    0.3329   -3.9658 C   0  0  0  0  0  0  0  0  0  0  0  0
   -4.1400   -1.3401   -2.8065 H   0  0  0  0  0  0  0  0  0  0  0  0
   -1.2269   -1.2453   -3.4288 H   0  0  0  0  0  0  0  0  0  0  0  0
   -3.4450    0.8546   -3.5773 H   0  0  0  0  0  0  0  0  0  0  0  0
   -1.7728    1.0697   -4.1350 H   0  0  0  0  0  0  0  0  0  0  0  0
   -2.8237   -0.1233   -4.9259 H   0  0  0  0  0  0  0  0  0  0  0  0
   -0.8033   -0.9197   -0.8229 N   0  0  0  0  0  0  0  0  0  0  0  0
   -0.7758   -0.9292    0.6577 C   0  0  0  0  0  0  0  0  0  0  0  0
   -1.7461   -0.0095    1.4163 C   0  0  0  0  0  0  0  0  0  0  0  0
   -1.3336    0.8553    2.1780 O   0  0  0  0  0  0  0  0  0  0  0  0
   -0.6104   -1.8283   -1.2525 H   0  0  0  0  0  0  0  0  0  0  0  0
    0.2358   -0.6610    0.9773 H   0  0  0  0  0  0  0  0  0  0  0  0
   -0.9659   -1.9502    1.0000 H   0  0  0  0  0  0  0  0  0  0  0  0
   -3.0750   -0.3815    1.4617 N   0  0  0  0  0  0  0  0  0  0  0  0
   -4.1543    0.3730    2.1033 C   0  0  2  0  0  0  0  0  0  0  0  0
   -5.4657   -0.4412    2.0720 C   0  0  0  0  0  0  0  0  0  0  0  0
   -5.6031   -1.3642    1.2716 O   0  0  0  0  0  0  0  0  0  0  0  0
   -4.3591    1.7049    1.3684 C   0  0  0  0  0  0  0  0  0  0  0  0
   -3.3637   -1.1031    0.8047 H   0  0  0  0  0  0  0  0  0  0  0  0
   -3.8895    0.5670    3.1477 H   0  0  0  0  0  0  0  0  0  0  0  0
   -4.5931    1.5273    0.3137 H   0  0  0  0  0  0  0  0  0  0  0  0
   -5.1800    2.2710    1.8178 H   0  0  0  0  0  0  0  0  0  0  0  0
   -3.4540    2.3177    1.4212 H   0  0  0  0  0  0  0  0  0  0  0  0
   -6.4988   -0.1383    2.9396 N   0  0  0  0  0  0  0  0  0  0  0  0
   -7.7583   -0.8715    2.9745 C   0  0  0  0  0  0  0  0  0  0  0  0
   -6.3535    0.6249    3.5946 H   0  0  0  0  0  0  0  0  0  0  0  0
   -8.2724   -0.7957    2.0109 H   0  0  0  0  0  0  0  0  0  0  0  0
   -7.5809   -1.9290    3.1971 H   0  0  0  0  0  0  0  0  0  0  0  0
   -8.4138   -0.4607    3.7484 H   0  0  0  0  0  0  0  0  0  0  0  0
  1  2  2  0  0  0  0
  1  3  1  0  0  0  0
  1  7  1  0  0  0  0
  3  4  1  0  0  0  0
  3  5  1  0  0  0  0
  3  6  1  0  0  0  0
  7  8  1  0  0  0  0
  7 12  1  0  0  0  0
  8  9  1  0  0  0  0
  8 11  1  0  0  0  0
  8 13  1  0  0  0  0
  9 10  2  0  0  0  0
  9 17  1  0  0  0  0
 11 14  1  0  0  0  0
 11 15  1  0  0  0  0
 11 16  1  0  0  0  0
 17 18  1  0  0  0  0
 17 21  1  0  0  0  0
 18 19  1  0  0  0  0
 18 22  1  0  0  0  0
 18 23  1  0  0  0  0
 19 20  2  0  0  0  0
 19 24  1  0  0  0  0
 24 25  1  0  0  0  0
 24 29  1  0  0  0  0
 25 26  1  0  0  0  0
 25 28  1  0  0  0  0
 25 30  1  0  0  0  0
 26 27  2  0  0  0  0
 26 34  1  0  0  0  0
 28 31  1  0  0  0  0
 28 32  1  0  0  0  0
 28 33  1  0  0  0  0
 34 35  1  0  0  0  0
 34 36  1  0  0  0  0
 35 37  1  0  0  0  0
 35 38  1  0  0  0  0
 35 39  1  0  0  0  0
M  END
$$$$

  -OEChem-05262216283D

 39 38  0     1  0  0  0  0  0999 V2000
   -2.1261   -3.1240   -3.7017 C   0  0  0  0  0  0  0  0  0  0  0  0
   -1.0759   -3.1933   -3.0806 O   0  0  0  0  0  0  0  0  0  0  0  0
   -2.6794   -4.3449   -4.4112 C   0  0  0  0  0  0  0  0  0  0  0  0
   -2.8396   -4.1234   -5.4692 H   0  0  0  0  0  0  0  0  0  0  0  0
   -1.9763   -5.1789   -4.3301 H   0  0  0  0  0  0  0  0  0  0  0  0
   -3.6299   -4.6399   -3.9598 H   0  0  0  0  0  0  0  0  0  0  0  0
   -2.8352   -1.9406   -3.7036 N   0  0  0  0  0  0  0  0  0  0  0  0
   -2.3698   -0.6958   -3.0702 C   0  0  2  0  0  0  0  0  0  0  0  0
   -2.5546   -0.6912   -1.5310 C   0  0  0  0  0  0  0  0  0  0  0  0
   -3.2799    0.1316   -0.9899 O   0  0  0  0  0  0  0  0  0  0  0  0
   -3.0976    0.4635   -3.7643 C   0  0  0  0  0  0  0  0  0  0  0  0
   -3.7327   -1.9349   -4.1802 H   0  0  0  0  0  0  0  0  0  0  0  0
   -1.2978   -0.5729   -3.2589 H   0  0  0  0  0  0  0  0  0  0  0  0
   -4.1778    0.3969   -3.5977 H   0  0  0  0  0  0  0  0  0  0  0  0
   -2.7464    1.4221   -3.3687 H   0  0  0  0  0  0  0  0  0  0  0  0
   -2.9061    0.4457   -4.8415 H   0  0  0  0  0  0  0  0  0  0  0  0
   -1.9294   -1.6807   -0.7893 N   0  0  0  0  0  0  0  0  0  0  0  0
   -1.6968   -1.7211    0.6709 C   0  0  0  0  0  0  0  0  0  0  0  0
   -2.1832   -0.5451    1.5358 C   0  0  0  0  0  0  0  0  0  0  0  0
   -1.3805    0.3006    1.9119 O   0  0  0  0  0  0  0  0  0  0  0  0
   -1.3804   -2.3293   -1.3620 H   0  0  0  0  0  0  0  0  0  0  0  0
   -0.6191   -1.8095    0.8388 H   0  0  0  0  0  0  0  0  0  0  0  0
   -2.1616   -2.6278    1.0665 H   0  0  0  0  0  0  0  0  0  0  0  0
   -3.4537   -0.5583    2.0771 N   0  0  0  0  0  0  0  0  0  0  0  0
   -4.0096    0.5065    2.9195 C   0  0  2  0  0  0  0  0  0  0  0  0
   -5.2526    0.0308    3.7004 C   0  0  0  0  0  0  0  0  0  0  0  0
   -5.8440   -0.9925    3.3715 O   0  0  0  0  0  0  0  0  0  0  0  0
   -4.3730    1.7008    2.0282 C   0  0  0  0  0  0  0  0  0  0  0  0
   -4.1106   -1.2404    1.7027 H   0  0  0  0  0  0  0  0  0  0  0  0
   -3.2564    0.8168    3.6510 H   0  0  0  0  0  0  0  0  0  0  0  0
   -5.1157    1.4060    1.2797 H   0  0  0  0  0  0  0  0  0  0  0  0
   -4.7847    2.5179    2.6277 H   0  0  0  0  0  0  0  0  0  0  0  0
   -3.4861    2.0724    1.5050 H   0  0  0  0  0  0  0  0  0  0  0  0
   -5.7120    0.7539    4.7864 N   0  0  0  0  0  0  0  0  0  0  0  0
   -6.8734    0.3630    5.5755 C   0  0  0  0  0  0  0  0  0  0  0  0
   -5.2007    1.5940    5.0412 H   0  0  0  0  0  0  0  0  0  0  0  0
   -7.7730    0.3479    4.9513 H   0  0  0  0  0  0  0  0  0  0  0  0
   -6.7266   -0.6332    6.0061 H   0  0  0  0  0  0  0  0  0  0  0  0
   -7.0313    1.0725    6.3932 H   0  0  0  0  0  0  0  0  0  0  0  0
  1  2  2  0  0  0  0
  1  3  1  0  0  0  0
  1  7  1  0  0  0  0
  3  4  1  0  0  0  0
  3  5  1  0  0  0  0
  3  6  1  0  0  0  0
  7  8  1  0  0  0  0
  7 12  1  0  0  0  0
  8  9  1  0  0  0  0
  8 11  1  0  0  0  0
  8 13  1  0  0  0  0
  9 10  2  0  0  0  0
  9 17  1  0  0  0  0
 11 14  1  0  0  0  0
 11 15  1  0  0  0  0
 11 16  1  0  0  0  0
 17 18  1  0  0  0  0
 17 21  1  0  0  0  0
 18 19  1  0  0  0  0
 18 22  1  0  0  0  0
 18 23  1  0  0  0  0
 19 20  2  0  0  0  0
 19 24  1  0  0  0  0
 24 25  1  0  0  0  0
 24 29  1  0  0  0  0
 25 26  1  0  0  0  0
 25 28  1  0  0  0  0
 25 30  1  0  0  0  0
 26 27  2  0  0  0  0
 26 34  1  0  0  0  0
 28 31  1  0  0  0  0
 28 32  1  0  0  0  0
 28 33  1  0  0  0  0
 34 35  1  0  0  0  0
 34 36  1  0  0  0  0
 35 37  1  0  0  0  0
 35 38  1  0  0  0  0
 35 39  1  0  0  0  0
M  END
$$$$

  -OEChem-05262216283D

 39 38  0     1  0  0  0  0  0999 V2000
   -2.3754   -3.0271   -3.8545 C   0  0  0  0  0  0  0  0  0  0  0  0
   -1.3681   -3.1926   -3.1827 O   0  0  0  0  0  0  0  0  0  0  0  0
   -2.9257   -4.1573   -4.7033 C   0  0  0  0  0  0  0  0  0  0  0  0
   -2.9637   -3.8527   -5.7521 H   0  0  0  0  0  0  0  0  0  0  0  0
   -2.2845   -5.0392   -4.6165 H   0  0  0  0  0  0  0  0  0  0  0  0
   -3.9330   -4.4202   -4.3705 H   0  0  0  0  0  0  0  0  0  0  0  0
   -3.0369   -1.8179   -3.7964 N   0  0  0  0  0  0  0  0  0  0  0  0
   -2.5583   -0.6477   -3.0418 C   0  0  2  0  0  0  0  0  0  0  0  0
   -2.8276   -0.7517   -1.5189 C   0  0  0  0  0  0  0  0  0  0  0  0
   -3.5560    0.0526   -0.9526 O   0  0  0  0  0  0  0  0  0  0  0  0
   -3.1996    0.5927   -3.6777 C   0  0  0  0  0  0  0  0  0  0  0  0
   -3.9034   -1.7338   -4.3204 H   0  0  0  0  0  0  0  0  0  0  0  0
   -1.4734   -0.5567   -3.1631 H   0  0  0  0  0  0  0  0  0  0  0  0
   -4.2898    0.5545   -3.5846 H   0  0  0  0  0  0  0  0  0  0  0  0
   -2.8423    1.5002   -3.1800 H   0  0  0  0  0  0  0  0  0  0  0  0
   -2.9390    0.6572   -4.7385 H   0  0  0  0  0  0  0  0  0  0  0  0
   -2.3005   -1.8268   -0.8216 N   0  0  0  0  0  0  0  0  0  0  0  0
   -1.9961   -1.8783    0.6249 C   0  0  0  0  0  0  0  0  0  0  0  0
   -2.2736   -0.6296    1.4814 C   0  0  0  0  0  0  0  0  0  0  0  0
   -1.4229    0.2491    1.5542 O   0  0  0  0  0  0  0  0  0  0  0  0
   -1.7555   -2.4554   -1.4201 H   0  0  0  0  0  0  0  0  0  0  0  0
   -0.9332   -2.1090    0.7431 H   0  0  0  0  0  0  0  0  0  0  0  0
   -2.5582   -2.7083    1.0612 H   0  0  0  0  0  0  0  0  0  0  0  0
   -3.3620   -0.5861    2.3310 N   0  0  0  0  0  0  0  0  0  0  0  0
   -3.6927    0.5479    3.2016 C   0  0  2  0  0  0  0  0  0  0  0  0
   -4.5941    0.1231    4.3793 C   0  0  0  0  0  0  0  0  0  0  0  0
   -5.2342   -0.9221    4.3288 O   0  0  0  0  0  0  0  0  0  0  0  0
   -4.3886    1.6210    2.3568 C   0  0  0  0  0  0  0  0  0  0  0  0
   -4.0570   -1.3252    2.2467 H   0  0  0  0  0  0  0  0  0  0  0  0
   -2.7718    0.9632    3.6242 H   0  0  0  0  0  0  0  0  0  0  0  0
   -5.3133    1.2264    1.9233 H   0  0  0  0  0  0  0  0  0  0  0  0
   -4.6334    2.4942    2.9688 H   0  0  0  0  0  0  0  0  0  0  0  0
   -3.7354    1.9454    1.5400 H   0  0  0  0  0  0  0  0  0  0  0  0
   -4.6823    0.9147    5.5101 N   0  0  0  0  0  0  0  0  0  0  0  0
   -5.4902    0.5642    6.6722 C   0  0  0  0  0  0  0  0  0  0  0  0
   -4.1253    1.7639    5.5331 H   0  0  0  0  0  0  0  0  0  0  0  0
   -6.5481    0.4973    6.3974 H   0  0  0  0  0  0  0  0  0  0  0  0
   -5.1716   -0.3996    7.0835 H   0  0  0  0  0  0  0  0  0  0  0  0
   -5.3834    1.3242    7.4521 H   0  0  0  0  0  0  0  0  0  0  0  0
  1  2  2  0  0  0  0
  1  3  1  0  0  0  0
  1  7  1  0  0  0  0
  3  4  1  0  0  0  0
  3  5  1  0  0  0  0
  3  6  1  0  0  0  0
  7  8  1  0  0  0  0
  7 12  1  0  0  0  0
  8  9  1  0  0  0  0
  8 11  1  0  0  0  0
  8 13  1  0  0  0  0
  9 10  2  0  0  0  0
  9 17  1  0  0  0  0
 11 14  1  0  0  0  0
 11 15  1  0  0  0  0
 11 16  1  0  0  0  0
 17 18  1  0  0  0  0
 17 21  1  0  0  0  0
 18 19  1  0  0  0  0
 18 22  1  0  0  0  0
 18 23  1  0  0  0  0
 19 20  2  0  0  0  0
 19 24  1  0  0  0  0
 24 25  1  0  0  0  0
 24 29  1  0  0  0  0
 25 26  1  0  0  0  0
 25 28  1  0  0  0  0
 25 30  1  0  0  0  0
 26 27  2  0  0  0  0
 26 34  1  0  0  0  0
 28 31  1  0  0  0  0
 28 32  1  0  0  0  0
 28 33  1  0  0  0  0
 34 35  1  0  0  0  0
 34 36  1  0  0  0  0
 35 37  1  0  0  0  0
 35 38  1  0  0  0  0
 35 39  1  0  0  0  0
M  END
$$$$

  -OEChem-05262216283D

 39 38  0     1  0  0  0  0  0999 V2000
   -2.5338   -3.0281   -3.7865 C   0  0  0  0  0  0  0  0  0  0  0  0
   -1.5004   -3.1233   -3.1410 O   0  0  0  0  0  0  0  0  0  0  0  0
   -3.0694   -4.2214   -4.5548 C   0  0  0  0  0  0  0  0  0  0  0  0
   -3.1246   -3.9853   -5.6204 H   0  0  0  0  0  0  0  0  0  0  0  0
   -2.4109   -5.0843   -4.4197 H   0  0  0  0  0  0  0  0  0  0  0  0
   -4.0675   -4.4817   -4.1935 H   0  0  0  0  0  0  0  0  0  0  0  0
   -3.2415   -1.8437   -3.7622 N   0  0  0  0  0  0  0  0  0  0  0  0
   -2.8039   -0.6347   -3.0444 C   0  0  2  0  0  0  0  0  0  0  0  0
   -3.0548   -0.7150   -1.5176 C   0  0  0  0  0  0  0  0  0  0  0  0
   -3.8494    0.0359   -0.9665 O   0  0  0  0  0  0  0  0  0  0  0  0
   -3.4983    0.5653   -3.7017 C   0  0  0  0  0  0  0  0  0  0  0  0
   -4.1404   -1.8263   -4.2358 H   0  0  0  0  0  0  0  0  0  0  0  0
   -1.7249   -0.5032   -3.1803 H   0  0  0  0  0  0  0  0  0  0  0  0
   -4.5851    0.4937   -3.5898 H   0  0  0  0  0  0  0  0  0  0  0  0
   -3.1646    1.4973   -3.2337 H   0  0  0  0  0  0  0  0  0  0  0  0
   -3.2567    0.6098   -4.7680 H   0  0  0  0  0  0  0  0  0  0  0  0
   -2.4622   -1.7399   -0.7988 N   0  0  0  0  0  0  0  0  0  0  0  0
   -2.0738   -1.6879    0.6269 C   0  0  0  0  0  0  0  0  0  0  0  0
   -2.3315   -0.3902    1.4147 C   0  0  0  0  0  0  0  0  0  0  0  0
   -1.6241    0.5886    1.2061 O   0  0  0  0  0  0  0  0  0  0  0  0
   -1.8916   -2.3489   -1.3930 H   0  0  0  0  0  0  0  0  0  0  0  0
   -1.0012   -1.8890    0.6983 H   0  0  0  0  0  0  0  0  0  0  0  0
   -2.5907   -2.4989    1.1469 H   0  0  0  0  0  0  0  0  0  0  0  0
   -3.1515   -0.3953    2.5266 N   0  0  0  0  0  0  0  0  0  0  0  0
   -3.3686    0.7547    3.4114 C   0  0  2  0  0  0  0  0  0  0  0  0
   -3.8601    0.3131    4.8059 C   0  0  0  0  0  0  0  0  0  0  0  0
   -4.2941   -0.8211    4.9811 O   0  0  0  0  0  0  0  0  0  0  0  0
   -4.3900    1.6884    2.7515 C   0  0  0  0  0  0  0  0  0  0  0  0
   -3.6858   -1.2395    2.7236 H   0  0  0  0  0  0  0  0  0  0  0  0
   -2.4240    1.2914    3.5494 H   0  0  0  0  0  0  0  0  0  0  0  0
   -5.3431    1.1699    2.6054 H   0  0  0  0  0  0  0  0  0  0  0  0
   -4.5635    2.5715    3.3733 H   0  0  0  0  0  0  0  0  0  0  0  0
   -4.0249    2.0220    1.7744 H   0  0  0  0  0  0  0  0  0  0  0  0
   -3.8048    1.1867    5.8766 N   0  0  0  0  0  0  0  0  0  0  0  0
   -4.2302    0.8283    7.2243 C   0  0  0  0  0  0  0  0  0  0  0  0
   -3.4184    2.1114    5.7096 H   0  0  0  0  0  0  0  0  0  0  0  0
   -5.2843    0.5310    7.2272 H   0  0  0  0  0  0  0  0  0  0  0  0
   -3.6288   -0.0030    7.6073 H   0  0  0  0  0  0  0  0  0  0  0  0
   -4.1103    1.6815    7.8990 H   0  0  0  0  0  0  0  0  0  0  0  0
  1  2  2  0  0  0  0
  1  3  1  0  0  0  0
  1  7  1  0  0  0  0
  3  4  1  0  0  0  0
  3  5  1  0  0  0  0
  3  6  1  0  0  0  0
  7  8  1  0  0  0  0
  7 12  1  0  0  0  0
  8  9  1  0  0  0  0
  8 11  1  0  0  0  0
  8 13  1  0  0  0  0
  9 10  2  0  0  0  0
  9 17  1  0  0  0  0
 11 14  1  0  0  0  0
 11 15  1  0  0  0  0
 11 16  1  0  0  0  0
 17 18  1  0  0  0  0
 17 21  1  0  0  0  0
 18 19  1  0  0  0  0
 18 22  1  0  0  0  0
 18 23  1  0  0  0  0
 19 20  2  0  0  0  0
 19 24  1  0  0  0  0
 24 25  1  0  0  0  0
 24 29  1  0  0  0  0
 25 26  1  0  0  0  0
 25 28  1  0  0  0  0
 25 30  1  0  0  0  0
 26 27  2  0  0  0  0
 26 34  1  0  0  0  0
 28 31  1  0  0  0  0
 28 32  1  0  0  0  0
 28 33  1  0  0  0  0
 34 35  1  0  0  0  0
 34 36  1  0  0  0  0
 35 37  1  0  0  0  0
 35 38  1  0  0  0  0
 35 39  1  0  0  0  0
M  END
$$$$

  -OEChem-05262216283D

 39 38  0     1  0  0  0  0  0999 V2000
   -3.3929   -3.0854   -3.9151 C   0  0  0  0  0  0  0  0  0  0  0  0
   -2.3637   -3.7319   -3.7905 O   0  0  0  0  0  0  0  0  0  0  0  0
   -4.6717   -3.7680   -4.3620 C   0  0  0  0  0  0  0  0  0  0  0  0
   -5.0300   -3.3164   -5.2902 H   0  0  0  0  0  0  0  0  0  0  0  0
   -4.4912   -4.8328   -4.5343 H   0  0  0  0  0  0  0  0  0  0  0  0
   -5.4401   -3.6615   -3.5922 H   0  0  0  0  0  0  0  0  0  0  0  0
   -3.4060   -1.7380   -3.6202 N   0  0  0  0  0  0  0  0  0  0  0  0
   -2.3032   -1.0786   -2.9097 C   0  0  2  0  0  0  0  0  0  0  0  0
   -2.5061   -1.1287   -1.3817 C   0  0  0  0  0  0  0  0  0  0  0  0
   -3.6206   -0.9256   -0.9144 O   0  0  0  0  0  0  0  0  0  0  0  0
   -2.2303    0.3730   -3.3882 C   0  0  0  0  0  0  0  0  0  0  0  0
   -4.3282   -1.3231   -3.5101 H   0  0  0  0  0  0  0  0  0  0  0  0
   -1.3513   -1.5631   -3.1508 H   0  0  0  0  0  0  0  0  0  0  0  0
   -3.1623    0.9005   -3.1592 H   0  0  0  0  0  0  0  0  0  0  0  0
   -1.4069    0.8967   -2.8921 H   0  0  0  0  0  0  0  0  0  0  0  0
   -2.0633    0.4090   -4.4692 H   0  0  0  0  0  0  0  0  0  0  0  0
   -1.4708   -1.5286   -0.5521 N   0  0  0  0  0  0  0  0  0  0  0  0
   -1.2358   -1.0209    0.8183 C   0  0  0  0  0  0  0  0  0  0  0  0
   -2.1931    0.0405    1.3960 C   0  0  0  0  0  0  0  0  0  0  0  0
   -2.2687    1.1373    0.8538 O   0  0  0  0  0  0  0  0  0  0  0  0
   -0.6415   -1.8290   -1.0570 H   0  0  0  0  0  0  0  0  0  0  0  0
   -0.2318   -0.5895    0.8615 H   0  0  0  0  0  0  0  0  0  0  0  0
   -1.2525   -1.8792    1.4957 H   0  0  0  0  0  0  0  0  0  0  0  0
   -2.6744   -0.0873    2.6850 N   0  0  0  0  0  0  0  0  0  0  0  0
   -3.4231    0.9455    3.4110 C   0  0  2  0  0  0  0  0  0  0  0  0
   -3.3476    0.7309    4.9372 C   0  0  0  0  0  0  0  0  0  0  0  0
   -2.9247   -0.3268    5.3928 O   0  0  0  0  0  0  0  0  0  0  0  0
   -4.8811    0.9187    2.9368 C   0  0  0  0  0  0  0  0  0  0  0  0
   -2.4944   -0.9590    3.1806 H   0  0  0  0  0  0  0  0  0  0  0  0
   -2.9912    1.9282    3.1957 H   0  0  0  0  0  0  0  0  0  0  0  0
   -5.3313   -0.0584    3.1391 H   0  0  0  0  0  0  0  0  0  0  0  0
   -5.4683    1.6864    3.4495 H   0  0  0  0  0  0  0  0  0  0  0  0
   -4.9346    1.1087    1.8598 H   0  0  0  0  0  0  0  0  0  0  0  0
   -3.7439    1.7315    5.8057 N   0  0  0  0  0  0  0  0  0  0  0  0
   -3.6940    1.5989    7.2568 C   0  0  0  0  0  0  0  0  0  0  0  0
   -4.0763    2.6018    5.4003 H   0  0  0  0  0  0  0  0  0  0  0  0
   -4.3013    0.7488    7.5857 H   0  0  0  0  0  0  0  0  0  0  0  0
   -2.6630    1.4459    7.5932 H   0  0  0  0  0  0  0  0  0  0  0  0
   -4.0822    2.5045    7.7328 H   0  0  0  0  0  0  0  0  0  0  0  0
  1  2  2  0  0  0  0
  1  3  1  0  0  0  0
  1  7  1  0  0  0  0
  3  4  1  0  0  0  0
  3  5  1  0  0  0  0
  3  6  1  0  0  0  0
  7  8  1  0  0  0  0
  7 12  1  0  0  0  0
  8  9  1  0  0  0  0
  8 11  1  0  0  0  0
  8 13  1  0  0  0  0
  9 10  2  0  0  0  0
  9 17  1  0  0  0  0
 11 14  1  0  0  0  0
 11 15  1  0  0  0  0
 11 16  1  0  0  0  0
 17 18  1  0  0  0  0
 17 21  1  0  0  0  0
 18 19  1  0  0  0  0
 18 22  1  0  0  0  0
 18 23  1  0  0  0  0
 19 20  2  0  0  0  0
 19 24  1  0  0  0  0
 24 25  1  0  0  0  0
 24 29  1  0  0  0  0
 25 26  1  0  0  0  0
 25 28  1  0  0  0  0
 25 30  1  0  0  0  0
 26 27  2  0  0  0  0
 26 34  1  0  0  0  0
 28 31  1  0  0  0  0
 28 32  1  0  0  0  0
 28 33  1  0  0  0  0
 34 35  1  0  0  0  0
 34 36  1  0  0  0  0
 35 37  1  0  0  0  0
 35 38  1  0  0  0  0
 35 39  1  0  0  0  0
M  END
$$$$

  -OEChem-05262216283D

 39 38  0     1  0  0  0  0  0999 V2000
   -2.5134   -3.0490   -3.5003 C   0  0  0  0  0  0  0  0  0  0  0  0
   -1.5916   -3.0873   -2.6985 O   0  0  0  0  0  0  0  0  0  0  0  0
   -2.8526   -4.2663   -4.3392 C   0  0  0  0  0  0  0  0  0  0  0  0
   -2.7290   -4.0344   -5.3998 H   0  0  0  0  0  0  0  0  0  0  0  0
   -2.1918   -5.0988   -4.0815 H   0  0  0  0  0  0  0  0  0  0  0  0
   -3.8868   -4.5694   -4.1586 H   0  0  0  0  0  0  0  0  0  0  0  0
   -3.2754   -1.9039   -3.6046 N   0  0  0  0  0  0  0  0  0  0  0  0
   -3.0246   -0.6724   -2.8395 C   0  0  2  0  0  0  0  0  0  0  0  0
   -3.4944   -0.7693   -1.3679 C   0  0  0  0  0  0  0  0  0  0  0  0
   -4.4659   -0.1440   -0.9602 O   0  0  0  0  0  0  0  0  0  0  0  0
   -3.6904    0.4827   -3.5971 C   0  0  0  0  0  0  0  0  0  0  0  0
   -4.0865   -1.9355   -4.2155 H   0  0  0  0  0  0  0  0  0  0  0  0
   -1.9480   -0.4718   -2.8141 H   0  0  0  0  0  0  0  0  0  0  0  0
   -4.7731    0.3327   -3.6569 H   0  0  0  0  0  0  0  0  0  0  0  0
   -3.5019    1.4297   -3.0809 H   0  0  0  0  0  0  0  0  0  0  0  0
   -3.2888    0.5571   -4.6122 H   0  0  0  0  0  0  0  0  0  0  0  0
   -2.9101   -1.7028   -0.5310 N   0  0  0  0  0  0  0  0  0  0  0  0
   -2.5257   -1.4264    0.8696 C   0  0  0  0  0  0  0  0  0  0  0  0
   -2.7687   -0.0226    1.4621 C   0  0  0  0  0  0  0  0  0  0  0  0
   -2.3775    0.9730    0.8628 O   0  0  0  0  0  0  0  0  0  0  0  0
   -2.2480   -2.2924   -1.0440 H   0  0  0  0  0  0  0  0  0  0  0  0
   -1.4565   -1.6287    0.9776 H   0  0  0  0  0  0  0  0  0  0  0  0
   -3.0602   -2.1409    1.5012 H   0  0  0  0  0  0  0  0  0  0  0  0
   -3.0217    0.1057    2.8151 N   0  0  0  0  0  0  0  0  0  0  0  0
   -2.9776    1.3671    3.5651 C   0  0  2  0  0  0  0  0  0  0  0  0
   -2.7340    1.1206    5.0687 C   0  0  0  0  0  0  0  0  0  0  0  0
   -2.8199   -0.0124    5.5317 O   0  0  0  0  0  0  0  0  0  0  0  0
   -4.2996    2.1114    3.3468 C   0  0  0  0  0  0  0  0  0  0  0  0
   -3.1731   -0.7444    3.3563 H   0  0  0  0  0  0  0  0  0  0  0  0
   -2.1508    1.9836    3.1970 H   0  0  0  0  0  0  0  0  0  0  0  0
   -5.1403    1.5126    3.7117 H   0  0  0  0  0  0  0  0  0  0  0  0
   -4.2961    3.0682    3.8769 H   0  0  0  0  0  0  0  0  0  0  0  0
   -4.4515    2.3110    2.2809 H   0  0  0  0  0  0  0  0  0  0  0  0
   -2.3987    2.1694    5.9052 N   0  0  0  0  0  0  0  0  0  0  0  0
   -2.1420    2.0052    7.3307 C   0  0  0  0  0  0  0  0  0  0  0  0
   -2.3122    3.0930    5.4906 H   0  0  0  0  0  0  0  0  0  0  0  0
   -3.0187    1.5803    7.8311 H   0  0  0  0  0  0  0  0  0  0  0  0
   -1.2871    1.3399    7.4917 H   0  0  0  0  0  0  0  0  0  0  0  0
   -1.9183    2.9731    7.7895 H   0  0  0  0  0  0  0  0  0  0  0  0
  1  2  2  0  0  0  0
  1  3  1  0  0  0  0
  1  7  1  0  0  0  0
  3  4  1  0  0  0  0
  3  5  1  0  0  0  0
  3  6  1  0  0  0  0
  7  8  1  0  0  0  0
  7 12  1  0  0  0  0
  8  9  1  0  0  0  0
  8 11  1  0  0  0  0
  8 13  1  0  0  0  0
  9 10  2  0  0  0  0
  9 17  1  0  0  0  0
 11 14  1  0  0  0  0
 11 15  1  0  0  0  0
 11 16  1  0  0  0  0
 17 18  1  0  0  0  0
 17 21  1  0  0  0  0
 18 19  1  0  0  0  0
 18 22  1  0  0  0  0
 18 23  1  0  0  0  0
 19 20  2  0  0  0  0
 19 24  1  0  0  0  0
 24 25  1  0  0  0  0
 24 29  1  0  0  0  0
 25 26  1  0  0  0  0
 25 28  1  0  0  0  0
 25 30  1  0  0  0  0
 26 27  2  0  0  0  0
 26 34  1  0  0  0  0
 28 31  1  0  0  0  0
 28 32  1  0  0  0  0
 28 33  1  0  0  0  0
 34 35  1  0  0  0  0
 34 36  1  0  0  0  0
 35 37  1  0  0  0  0
 35 38  1  0  0  0  0
 35 39  1  0  0  0  0
M  END
$$$$

  -OEChem-05262216283D

 39 38  0     1  0  0  0  0  0999 V2000
   -2.5352   -3.1431   -3.1993 C   0  0  0  0  0  0  0  0  0  0  0  0
   -1.7685   -3.2149   -2.2500 O   0  0  0  0  0  0  0  0  0  0  0  0
   -2.8554   -4.3774   -4.0208 C   0  0  0  0  0  0  0  0  0  0  0  0
   -2.6274   -4.1963   -5.0741 H   0  0  0  0  0  0  0  0  0  0  0  0
   -2.2592   -5.2259   -3.6737 H   0  0  0  0  0  0  0  0  0  0  0  0
   -3.9145   -4.6278   -3.9213 H   0  0  0  0  0  0  0  0  0  0  0  0
   -3.1488   -1.9412   -3.4859 N   0  0  0  0  0  0  0  0  0  0  0  0
   -2.9008   -0.6908   -2.7502 C   0  0  2  0  0  0  0  0  0  0  0  0
   -3.6037   -0.6491   -1.3715 C   0  0  0  0  0  0  0  0  0  0  0  0
   -4.5729    0.0709   -1.1640 O   0  0  0  0  0  0  0  0  0  0  0  0
   -3.3219    0.4698   -3.6601 C   0  0  0  0  0  0  0  0  0  0  0  0
   -3.8471   -1.9358   -4.2238 H   0  0  0  0  0  0  0  0  0  0  0  0
   -1.8271   -0.5870   -2.5600 H   0  0  0  0  0  0  0  0  0  0  0  0
   -4.3907    0.4125   -3.8902 H   0  0  0  0  0  0  0  0  0  0  0  0
   -3.1264    1.4268   -3.1646 H   0  0  0  0  0  0  0  0  0  0  0  0
   -2.7588    0.4449   -4.5978 H   0  0  0  0  0  0  0  0  0  0  0  0
   -3.2629   -1.5755   -0.4029 N   0  0  0  0  0  0  0  0  0  0  0  0
   -2.9976   -1.2271    1.0101 C   0  0  0  0  0  0  0  0  0  0  0  0
   -3.0813    0.2398    1.4891 C   0  0  0  0  0  0  0  0  0  0  0  0
   -2.6747    1.1585    0.7870 O   0  0  0  0  0  0  0  0  0  0  0  0
   -2.6151   -2.2708   -0.7851 H   0  0  0  0  0  0  0  0  0  0  0  0
   -1.9923   -1.5778    1.2598 H   0  0  0  0  0  0  0  0  0  0  0  0
   -3.7040   -1.7976    1.6194 H   0  0  0  0  0  0  0  0  0  0  0  0
   -3.1447    0.4827    2.8494 N   0  0  0  0  0  0  0  0  0  0  0  0
   -2.8666    1.7738    3.4923 C   0  0  2  0  0  0  0  0  0  0  0  0
   -2.4062    1.5860    4.9528 C   0  0  0  0  0  0  0  0  0  0  0  0
   -2.5426    0.5004    5.5082 O   0  0  0  0  0  0  0  0  0  0  0  0
   -4.1341    2.6323    3.4301 C   0  0  0  0  0  0  0  0  0  0  0  0
   -3.2809   -0.3145    3.4698 H   0  0  0  0  0  0  0  0  0  0  0  0
   -2.0584    2.2854    2.9589 H   0  0  0  0  0  0  0  0  0  0  0  0
   -4.9527    2.1450    3.9691 H   0  0  0  0  0  0  0  0  0  0  0  0
   -3.9562    3.6147    3.8774 H   0  0  0  0  0  0  0  0  0  0  0  0
   -4.4419    2.7789    2.3895 H   0  0  0  0  0  0  0  0  0  0  0  0
   -1.8178    2.6304    5.6419 N   0  0  0  0  0  0  0  0  0  0  0  0
   -1.3398    2.5153    7.0142 C   0  0  0  0  0  0  0  0  0  0  0  0
   -1.7029    3.5128    5.1514 H   0  0  0  0  0  0  0  0  0  0  0  0
   -0.5726    1.7374    7.0888 H   0  0  0  0  0  0  0  0  0  0  0  0
   -0.9031    3.4631    7.3433 H   0  0  0  0  0  0  0  0  0  0  0  0
   -2.1657    2.2622    7.6875 H   0  0  0  0  0  0  0  0  0  0  0  0
  1  2  2  0  0  0  0
  1  3  1  0  0  0  0
  1  7  1  0  0  0  0
  3  4  1  0  0  0  0
  3  5  1  0  0  0  0
  3  6  1  0  0  0  0
  7  8  1  0  0  0  0
  7 12  1  0  0  0  0
  8  9  1  0  0  0  0
  8 11  1  0  0  0  0
  8 13  1  0  0  0  0
  9 10  2  0  0  0  0
  9 17  1  0  0  0  0
 11 14  1  0  0  0  0
 11 15  1  0  0  0  0
 11 16  1  0  0  0  0
 17 18  1  0  0  0  0
 17 21  1  0  0  0  0
 18 19  1  0  0  0  0
 18 22  1  0  0  0  0
 18 23  1  0  0  0  0
 19 20  2  0  0  0  0
 19 24  1  0  0  0  0
 24 25  1  0  0  0  0
 24 29  1  0  0  0  0
 25 26  1  0  0  0  0
 25 28  1  0  0  0  0
 25 30  1  0  0  0  0
 26 27  2  0  0  0  0
 26 34  1  0  0  0  0
 28 31  1  0  0  0  0
 28 32  1  0  0  0  0
 28 33  1  0  0  0  0
 34 35  1  0  0  0  0
 34 36  1  0  0  0  0
 35 37  1  0  0  0  0
 35 38  1  0  0  0  0
 35 39  1  0  0  0  0
M  END
$$$$

  -OEChem-05262216283D

 39 38  0     1  0  0  0  0  0999 V2000
   -3.6016   -2.3510   -1.8196 C   0  0  0  0  0  0  0  0  0  0  0  0
   -2.7697   -3.2455   -1.8983 O   0  0  0  0  0  0  0  0  0  0  0  0
   -4.8611   -2.5523   -0.9988 C   0  0  0  0  0  0  0  0  0  0  0  0
   -5.7425   -2.3431   -1.6096 H   0  0  0  0  0  0  0  0  0  0  0  0
   -4.9178   -3.5836   -0.6398 H   0  0  0  0  0  0  0  0  0  0  0  0
   -4.8549   -1.8785   -0.1382 H   0  0  0  0  0  0  0  0  0  0  0  0
   -3.3351   -1.1185   -2.3787 N   0  0  0  0  0  0  0  0  0  0  0  0
   -2.0134   -0.7656   -2.9176 C   0  0  2  0  0  0  0  0  0  0  0  0
   -1.0325   -0.4607   -1.7634 C   0  0  0  0  0  0  0  0  0  0  0  0
   -0.5878    0.6623   -1.5577 O   0  0  0  0  0  0  0  0  0  0  0  0
   -2.1990    0.4182   -3.8736 C   0  0  0  0  0  0  0  0  0  0  0  0
   -3.8842   -0.3515   -1.9935 H   0  0  0  0  0  0  0  0  0  0  0  0
   -1.6035   -1.6012   -3.4946 H   0  0  0  0  0  0  0  0  0  0  0  0
   -2.6133    1.2814   -3.3426 H   0  0  0  0  0  0  0  0  0  0  0  0
   -1.2370    0.7087   -4.3074 H   0  0  0  0  0  0  0  0  0  0  0  0
   -2.8787    0.1476   -4.6871 H   0  0  0  0  0  0  0  0  0  0  0  0
   -0.6801   -1.4651   -0.8814 N   0  0  0  0  0  0  0  0  0  0  0  0
   -0.9389   -1.3345    0.5687 C   0  0  0  0  0  0  0  0  0  0  0  0
   -1.9171   -0.2561    1.0951 C   0  0  0  0  0  0  0  0  0  0  0  0
   -2.8229    0.1954    0.3986 O   0  0  0  0  0  0  0  0  0  0  0  0
   -1.0040   -2.3644   -1.2470 H   0  0  0  0  0  0  0  0  0  0  0  0
    0.0238   -1.1469    1.0526 H   0  0  0  0  0  0  0  0  0  0  0  0
   -1.3052   -2.2985    0.9330 H   0  0  0  0  0  0  0  0  0  0  0  0
   -2.1116   -0.1807    2.4613 N   0  0  0  0  0  0  0  0  0  0  0  0
   -3.0469    0.7451    3.1141 C   0  0  2  0  0  0  0  0  0  0  0  0
   -2.4698    1.2722    4.4450 C   0  0  0  0  0  0  0  0  0  0  0  0
   -1.5042    0.7154    4.9573 O   0  0  0  0  0  0  0  0  0  0  0  0
   -4.3693    0.0098    3.3518 C   0  0  0  0  0  0  0  0  0  0  0  0
   -1.3593   -0.5362    3.0518 H   0  0  0  0  0  0  0  0  0  0  0  0
   -3.2241    1.6125    2.4686 H   0  0  0  0  0  0  0  0  0  0  0  0
   -4.2122   -0.8586    3.9994 H   0  0  0  0  0  0  0  0  0  0  0  0
   -5.0983    0.6726    3.8273 H   0  0  0  0  0  0  0  0  0  0  0  0
   -4.7869   -0.3357    2.4009 H   0  0  0  0  0  0  0  0  0  0  0  0
   -3.0233    2.3781    5.0633 N   0  0  0  0  0  0  0  0  0  0  0  0
   -2.4986    2.9496    6.2980 C   0  0  0  0  0  0  0  0  0  0  0  0
   -3.8018    2.8375    4.5992 H   0  0  0  0  0  0  0  0  0  0  0  0
   -1.4499    3.2397    6.1715 H   0  0  0  0  0  0  0  0  0  0  0  0
   -3.0714    3.8396    6.5757 H   0  0  0  0  0  0  0  0  0  0  0  0
   -2.5676    2.2243    7.1157 H   0  0  0  0  0  0  0  0  0  0  0  0
  1  2  2  0  0  0  0
  1  3  1  0  0  0  0
  1  7  1  0  0  0  0
  3  4  1  0  0  0  0
  3  5  1  0  0  0  0
  3  6  1  0  0  0  0
  7  8  1  0  0  0  0
  7 12  1  0  0  0  0
  8  9  1  0  0  0  0
  8 11  1  0  0  0  0
  8 13  1  0  0  0  0
  9 10  2  0  0  0  0
  9 17  1  0  0  0  0
 11 14  1  0  0  0  0
 11 15  1  0  0  0  0
 11 16  1  0  0  0  0
 17 18  1  0  0  0  0
 17 21  1  0  0  0  0
 18 19  1  0  0  0  0
 18 22  1  0  0  0  0
 18 23  1  0  0  0  0
 19 20  2  0  0  0  0
 19 24  1  0  0  0  0
 24 25  1  0  0  0  0
 24 29  1  0  0  0  0
 25 26  1  0  0  0  0
 25 28  1  0  0  0  0
 25 30  1  0  0  0  0
 26 27  2  0  0  0  0
 26 34  1  0  0  0  0
 28 31  1  0  0  0  0
 28 32  1  0  0  0  0
 28 33  1  0  0  0  0
 34 35  1  0  0  0  0
 34 36  1  0  0  0  0
 35 37  1  0  0  0  0
 35 38  1  0  0  0  0
 35 39  1  0  0  0  0
M  END
$$$$

  -OEChem-05262216283D

 39 38  0     1  0  0  0  0  0999 V2000
   -3.6555   -2.3347   -1.8939 C   0  0  0  0  0  0  0  0  0  0  0  0
   -2.8308   -3.2396   -1.9068 O   0  0  0  0  0  0  0  0  0  0  0  0
   -4.9764   -2.5149   -1.1707 C   0  0  0  0  0  0  0  0  0  0  0  0
   -5.8059   -2.3548   -1.8636 H   0  0  0  0  0  0  0  0  0  0  0  0
   -5.0488   -3.5257   -0.7603 H   0  0  0  0  0  0  0  0  0  0  0  0
   -5.0527   -1.7958   -0.3510 H   0  0  0  0  0  0  0  0  0  0  0  0
   -3.3395   -1.1121   -2.4489 N   0  0  0  0  0  0  0  0  0  0  0  0
   -1.9809   -0.7786   -2.9006 C   0  0  2  0  0  0  0  0  0  0  0  0
   -1.0783   -0.4724   -1.6845 C   0  0  0  0  0  0  0  0  0  0  0  0
   -0.6701    0.6570   -1.4400 O   0  0  0  0  0  0  0  0  0  0  0  0
   -2.0886    0.3955   -3.8806 C   0  0  0  0  0  0  0  0  0  0  0  0
   -3.9079   -0.3367   -2.1124 H   0  0  0  0  0  0  0  0  0  0  0  0
   -1.5425   -1.6252   -3.4394 H   0  0  0  0  0  0  0  0  0  0  0  0
   -2.5292    1.2693   -3.3892 H   0  0  0  0  0  0  0  0  0  0  0  0
   -1.0965    0.6712   -4.2522 H   0  0  0  0  0  0  0  0  0  0  0  0
   -2.7145    0.1212   -4.7351 H   0  0  0  0  0  0  0  0  0  0  0  0
   -0.7823   -1.4813   -0.7859 N   0  0  0  0  0  0  0  0  0  0  0  0
   -1.0811   -1.3311    0.6540 C   0  0  0  0  0  0  0  0  0  0  0  0
   -2.0437   -0.2110    1.1110 C   0  0  0  0  0  0  0  0  0  0  0  0
   -3.0230    0.0924    0.4326 O   0  0  0  0  0  0  0  0  0  0  0  0
   -1.1064   -2.3782   -1.1581 H   0  0  0  0  0  0  0  0  0  0  0  0
   -0.1298   -1.1659    1.1673 H   0  0  0  0  0  0  0  0  0  0  0  0
   -1.4911   -2.2757    1.0218 H   0  0  0  0  0  0  0  0  0  0  0  0
   -2.0753    0.1322    2.4493 N   0  0  0  0  0  0  0  0  0  0  0  0
   -2.9919    1.1227    3.0291 C   0  0  2  0  0  0  0  0  0  0  0  0
   -2.3408    1.8648    4.2155 C   0  0  0  0  0  0  0  0  0  0  0  0
   -1.3192    1.4173    4.7253 O   0  0  0  0  0  0  0  0  0  0  0  0
   -4.2666    0.4023    3.4822 C   0  0  0  0  0  0  0  0  0  0  0  0
   -1.2493   -0.0904    3.0053 H   0  0  0  0  0  0  0  0  0  0  0  0
   -3.2476    1.8740    2.2740 H   0  0  0  0  0  0  0  0  0  0  0  0
   -4.0310   -0.3511    4.2408 H   0  0  0  0  0  0  0  0  0  0  0  0
   -4.9811    1.1135    3.9076 H   0  0  0  0  0  0  0  0  0  0  0  0
   -4.7427   -0.0965    2.6322 H   0  0  0  0  0  0  0  0  0  0  0  0
   -2.9098    3.0291    4.7026 N   0  0  0  0  0  0  0  0  0  0  0  0
   -2.3856    3.8082    5.8222 C   0  0  0  0  0  0  0  0  0  0  0  0
   -3.7453    3.3643    4.2317 H   0  0  0  0  0  0  0  0  0  0  0  0
   -1.4800    3.3625    6.2466 H   0  0  0  0  0  0  0  0  0  0  0  0
   -2.1388    4.8217    5.4909 H   0  0  0  0  0  0  0  0  0  0  0  0
   -3.1351    3.8695    6.6173 H   0  0  0  0  0  0  0  0  0  0  0  0
  1  2  2  0  0  0  0
  1  3  1  0  0  0  0
  1  7  1  0  0  0  0
  3  4  1  0  0  0  0
  3  5  1  0  0  0  0
  3  6  1  0  0  0  0
  7  8  1  0  0  0  0
  7 12  1  0  0  0  0
  8  9  1  0  0  0  0
  8 11  1  0  0  0  0
  8 13  1  0  0  0  0
  9 10  2  0  0  0  0
  9 17  1  0  0  0  0
 11 14  1  0  0  0  0
 11 15  1  0  0  0  0
 11 16  1  0  0  0  0
 17 18  1  0  0  0  0
 17 21  1  0  0  0  0
 18 19  1  0  0  0  0
 18 22  1  0  0  0  0
 18 23  1  0  0  0  0
 19 20  2  0  0  0  0
 19 24  1  0  0  0  0
 24 25  1  0  0  0  0
 24 29  1  0  0  0  0
 25 26  1  0  0  0  0
 25 28  1  0  0  0  0
 25 30  1  0  0  0  0
 26 27  2  0  0  0  0
 26 34  1  0  0  0  0
 28 31  1  0  0  0  0
 28 32  1  0  0  0  0
 28 33  1  0  0  0  0
 34 35  1  0  0  0  0
 34 36  1  0  0  0  0
 35 37  1  0  0  0  0
 35 38  1  0  0  0  0
 35 39  1  0  0  0  0
M  END
$$$$

  -OEChem-05262216283D

 39 38  0     1  0  0  0  0  0999 V2000
   -3.5996   -2.3937   -1.9949 C   0  0  0  0  0  0  0  0  0  0  0  0
   -2.7366   -3.2618   -1.9827 O   0  0  0  0  0  0  0  0  0  0  0  0
   -4.9547   -2.6559   -1.3661 C   0  0  0  0  0  0  0  0  0  0  0  0
   -5.7424   -2.5427   -2.1147 H   0  0  0  0  0  0  0  0  0  0  0  0
   -4.9941   -3.6717   -0.9629 H   0  0  0  0  0  0  0  0  0  0  0  0
   -5.1309   -1.9469   -0.5527 H   0  0  0  0  0  0  0  0  0  0  0  0
   -3.2994   -1.1397   -2.4857 N   0  0  0  0  0  0  0  0  0  0  0  0
   -1.9290   -0.7348   -2.8332 C   0  0  2  0  0  0  0  0  0  0  0  0
   -1.1227   -0.4297   -1.5509 C   0  0  0  0  0  0  0  0  0  0  0  0
   -0.7753    0.7072   -1.2530 O   0  0  0  0  0  0  0  0  0  0  0  0
   -2.0223    0.4650   -3.7826 C   0  0  0  0  0  0  0  0  0  0  0  0
   -3.9263   -0.4012   -2.1712 H   0  0  0  0  0  0  0  0  0  0  0  0
   -1.4189   -1.5447   -3.3655 H   0  0  0  0  0  0  0  0  0  0  0  0
   -2.5224    1.3068   -3.2927 H   0  0  0  0  0  0  0  0  0  0  0  0
   -1.0206    0.7861   -4.0854 H   0  0  0  0  0  0  0  0  0  0  0  0
   -2.5864    0.1971   -4.6810 H   0  0  0  0  0  0  0  0  0  0  0  0
   -0.8772   -1.4495   -0.6489 N   0  0  0  0  0  0  0  0  0  0  0  0
   -1.2684   -1.3167    0.7698 C   0  0  0  0  0  0  0  0  0  0  0  0
   -2.2642   -0.1975    1.1455 C   0  0  0  0  0  0  0  0  0  0  0  0
   -3.2793   -0.0261    0.4731 O   0  0  0  0  0  0  0  0  0  0  0  0
   -1.1585   -2.3469   -1.0537 H   0  0  0  0  0  0  0  0  0  0  0  0
   -0.3562   -1.1544    1.3503 H   0  0  0  0  0  0  0  0  0  0  0  0
   -1.7042   -2.2627    1.1033 H   0  0  0  0  0  0  0  0  0  0  0  0
   -2.2037    0.3848    2.3967 N   0  0  0  0  0  0  0  0  0  0  0  0
   -3.0977    1.4583    2.8492 C   0  0  2  0  0  0  0  0  0  0  0  0
   -2.3885    2.3927    3.8522 C   0  0  0  0  0  0  0  0  0  0  0  0
   -1.3451    2.0376    4.3904 O   0  0  0  0  0  0  0  0  0  0  0  0
   -4.3375    0.8276    3.4916 C   0  0  0  0  0  0  0  0  0  0  0  0
   -1.3292    0.2846    2.9127 H   0  0  0  0  0  0  0  0  0  0  0  0
   -3.4023    2.0676    1.9914 H   0  0  0  0  0  0  0  0  0  0  0  0
   -4.0519    0.2184    4.3551 H   0  0  0  0  0  0  0  0  0  0  0  0
   -5.0334    1.6028    3.8259 H   0  0  0  0  0  0  0  0  0  0  0  0
   -4.8563    0.1882    2.7706 H   0  0  0  0  0  0  0  0  0  0  0  0
   -2.9179    3.6345    4.1522 N   0  0  0  0  0  0  0  0  0  0  0  0
   -2.2840    4.5718    5.0714 C   0  0  0  0  0  0  0  0  0  0  0  0
   -3.7645    3.9161    3.6665 H   0  0  0  0  0  0  0  0  0  0  0  0
   -1.2822    4.8375    4.7175 H   0  0  0  0  0  0  0  0  0  0  0  0
   -2.8781    5.4874    5.1478 H   0  0  0  0  0  0  0  0  0  0  0  0
   -2.1993    4.1310    6.0702 H   0  0  0  0  0  0  0  0  0  0  0  0
  1  2  2  0  0  0  0
  1  3  1  0  0  0  0
  1  7  1  0  0  0  0
  3  4  1  0  0  0  0
  3  5  1  0  0  0  0
  3  6  1  0  0  0  0
  7  8  1  0  0  0  0
  7 12  1  0  0  0  0
  8  9  1  0  0  0  0
  8 11  1  0  0  0  0
  8 13  1  0  0  0  0
  9 10  2  0  0  0  0
  9 17  1  0  0  0  0
 11 14  1  0  0  0  0
 11 15  1  0  0  0  0
 11 16  1  0  0  0  0
 17 18  1  0  0  0  0
 17 21  1  0  0  0  0
 18 19  1  0  0  0  0
 18 22  1  0  0  0  0
 18 23  1  0  0  0  0
 19 20  2  0  0  0  0
 19 24  1  0  0  0  0
 24 25  1  0  0  0  0
 24 29  1  0  0  0  0
 25 26  1  0  0  0  0
 25 28  1  0  0  0  0
 25 30  1  0  0  0  0
 26 27  2  0  0  0  0
 26 34  1  0  0  0  0
 28 31  1  0  0  0  0
 28 32  1  0  0  0  0
 28 33  1  0  0  0  0
 34 35  1  0  0  0  0
 34 36  1  0  0  0  0
 35 37  1  0  0  0  0
 35 38  1  0  0  0  0
 35 39  1  0  0  0  0
M  END
$$$$

  -OEChem-05262216283D

 39 38  0     1  0  0  0  0  0999 V2000
   -3.4906   -2.4813   -2.0549 C   0  0  0  0  0  0  0  0  0  0  0  0
   -2.5377   -3.2493   -2.0275 O   0  0  0  0  0  0  0  0  0  0  0  0
   -4.8346   -2.9077   -1.4963 C   0  0  0  0  0  0  0  0  0  0  0  0
   -5.6095   -2.7897   -2.2575 H   0  0  0  0  0  0  0  0  0  0  0  0
   -4.8006   -3.9559   -1.1871 H   0  0  0  0  0  0  0  0  0  0  0  0
   -5.0889   -2.2922   -0.6292 H   0  0  0  0  0  0  0  0  0  0  0  0
   -3.3127   -1.1899   -2.5066 N   0  0  0  0  0  0  0  0  0  0  0  0
   -1.9881   -0.6269   -2.8092 C   0  0  2  0  0  0  0  0  0  0  0  0
   -1.2431   -0.2712   -1.5023 C   0  0  0  0  0  0  0  0  0  0  0  0
   -1.0254    0.8891   -1.1724 O   0  0  0  0  0  0  0  0  0  0  0  0
   -2.1981    0.5805   -3.7310 C   0  0  0  0  0  0  0  0  0  0  0  0
   -4.0394   -0.5339   -2.2269 H   0  0  0  0  0  0  0  0  0  0  0  0
   -1.3808   -1.3605   -3.3501 H   0  0  0  0  0  0  0  0  0  0  0  0
   -2.8040    1.3451   -3.2339 H   0  0  0  0  0  0  0  0  0  0  0  0
   -1.2343    1.0242   -4.0004 H   0  0  0  0  0  0  0  0  0  0  0  0
   -2.7073    0.2738   -4.6498 H   0  0  0  0  0  0  0  0  0  0  0  0
   -0.9181   -1.2850   -0.6179 N   0  0  0  0  0  0  0  0  0  0  0  0
   -1.3246   -1.2153    0.8007 C   0  0  0  0  0  0  0  0  0  0  0  0
   -2.4109   -0.1843    1.1710 C   0  0  0  0  0  0  0  0  0  0  0  0
   -3.4868   -0.1987    0.5764 O   0  0  0  0  0  0  0  0  0  0  0  0
   -1.1104   -2.1969   -1.0428 H   0  0  0  0  0  0  0  0  0  0  0  0
   -0.4341   -0.9936    1.3954 H   0  0  0  0  0  0  0  0  0  0  0  0
   -1.6894   -2.1982    1.1124 H   0  0  0  0  0  0  0  0  0  0  0  0
   -2.2667    0.6195    2.2848 N   0  0  0  0  0  0  0  0  0  0  0  0
   -3.2024    1.6895    2.6492 C   0  0  2  0  0  0  0  0  0  0  0  0
   -2.4861    2.8290    3.4044 C   0  0  0  0  0  0  0  0  0  0  0  0
   -1.3814    2.6392    3.9021 O   0  0  0  0  0  0  0  0  0  0  0  0
   -4.3187    1.0944    3.5136 C   0  0  0  0  0  0  0  0  0  0  0  0
   -1.3330    0.6840    2.6910 H   0  0  0  0  0  0  0  0  0  0  0  0
   -3.6352    2.1197    1.7397 H   0  0  0  0  0  0  0  0  0  0  0  0
   -3.9035    0.6661    4.4315 H   0  0  0  0  0  0  0  0  0  0  0  0
   -5.0465    1.8645    3.7855 H   0  0  0  0  0  0  0  0  0  0  0  0
   -4.8428    0.3043    2.9669 H   0  0  0  0  0  0  0  0  0  0  0  0
   -3.0808    4.0714    3.5271 N   0  0  0  0  0  0  0  0  0  0  0  0
   -2.4469    5.1981    4.2014 C   0  0  0  0  0  0  0  0  0  0  0  0
   -3.9747    4.2129    3.0661 H   0  0  0  0  0  0  0  0  0  0  0  0
   -2.2373    4.9496    5.2472 H   0  0  0  0  0  0  0  0  0  0  0  0
   -1.5064    5.4612    3.7058 H   0  0  0  0  0  0  0  0  0  0  0  0
   -3.1054    6.0719    4.1799 H   0  0  0  0  0  0  0  0  0  0  0  0
  1  2  2  0  0  0  0
  1  3  1  0  0  0  0
  1  7  1  0  0  0  0
  3  4  1  0  0  0  0
  3  5  1  0  0  0  0
  3  6  1  0  0  0  0
  7  8  1  0  0  0  0
  7 12  1  0  0  0  0
  8  9  1  0  0  0  0
  8 11  1  0  0  0  0
  8 13  1  0  0  0  0
  9 10  2  0  0  0  0
  9 17  1  0  0  0  0
 11 14  1  0  0  0  0
 11 15  1  0  0  0  0
 11 16  1  0  0  0  0
 17 18  1  0  0  0  0
 17 21  1  0  0  0  0
 18 19  1  0  0  0  0
 18 22  1  0  0  0  0
 18 23  1  0  0  0  0
 19 20  2  0  0  0  0
 19 24  1  0  0  0  0
 24 25  1  0  0  0  0
 24 29  1  0  0  0  0
 25 26  1  0  0  0  0
 25 28  1  0  0  0  0
 25 30  1  0  0  0  0
 26 27  2  0  0  0  0
 26 34  1  0  0  0  0
 28 31  1  0  0  0  0
 28 32  1  0  0  0  0
 28 33  1  0  0  0  0
 34 35  1  0  0  0  0
 34 36  1  0  0  0  0
 35 37  1  0  0  0  0
 35 38  1  0  0  0  0
 35 39  1  0  0  0  0
M  END
$$$$

  -OEChem-05262216283D

 39 38  0     1  0  0  0  0  0999 V2000
   -3.4183   -2.5469   -2.0956 C   0  0  0  0  0  0  0  0  0  0  0  0
   -2.4024   -3.2286   -2.0576 O   0  0  0  0  0  0  0  0  0  0  0  0
   -4.7332   -3.1006   -1.5819 C   0  0  0  0  0  0  0  0  0  0  0  0
   -5.5027   -3.0123   -2.3526 H   0  0  0  0  0  0  0  0  0  0  0  0
   -4.6213   -4.1549   -1.3143 H   0  0  0  0  0  0  0  0  0  0  0  0
   -5.0488   -2.5432   -0.6958 H   0  0  0  0  0  0  0  0  0  0  0  0
   -3.3441   -1.2384   -2.5271 N   0  0  0  0  0  0  0  0  0  0  0  0
   -2.0683   -0.5575   -2.7974 C   0  0  2  0  0  0  0  0  0  0  0  0
   -1.3789   -0.1586   -1.4728 C   0  0  0  0  0  0  0  0  0  0  0  0
   -1.2859    1.0108   -1.1178 O   0  0  0  0  0  0  0  0  0  0  0  0
   -2.3626    0.6396   -3.7090 C   0  0  0  0  0  0  0  0  0  0  0  0
   -4.1393   -0.6545   -2.2773 H   0  0  0  0  0  0  0  0  0  0  0  0
   -1.3908   -1.2285   -3.3362 H   0  0  0  0  0  0  0  0  0  0  0  0
   -3.0475    1.3397   -3.2195 H   0  0  0  0  0  0  0  0  0  0  0  0
   -1.4357    1.1713   -3.9464 H   0  0  0  0  0  0  0  0  0  0  0  0
   -2.8171    0.3016   -4.6453 H   0  0  0  0  0  0  0  0  0  0  0  0
   -0.9729   -1.1581   -0.6054 N   0  0  0  0  0  0  0  0  0  0  0  0
   -1.3700   -1.1457    0.8171 C   0  0  0  0  0  0  0  0  0  0  0  0
   -2.5271   -0.2023    1.2003 C   0  0  0  0  0  0  0  0  0  0  0  0
   -3.6410   -0.3956    0.7189 O   0  0  0  0  0  0  0  0  0  0  0  0
   -1.0838   -2.0767   -1.0450 H   0  0  0  0  0  0  0  0  0  0  0  0
   -0.4960   -0.8725    1.4147 H   0  0  0  0  0  0  0  0  0  0  0  0
   -1.6631   -2.1576    1.1118 H   0  0  0  0  0  0  0  0  0  0  0  0
   -2.3420    0.8093    2.1223 N   0  0  0  0  0  0  0  0  0  0  0  0
   -3.3313    1.8585    2.3948 C   0  0  2  0  0  0  0  0  0  0  0  0
   -2.6520    3.1604    2.8714 C   0  0  0  0  0  0  0  0  0  0  0  0
   -1.4975    3.1382    3.2849 O   0  0  0  0  0  0  0  0  0  0  0  0
   -4.3116    1.3494    3.4573 C   0  0  0  0  0  0  0  0  0  0  0  0
   -1.3767    1.0337    2.3664 H   0  0  0  0  0  0  0  0  0  0  0  0
   -3.8778    2.0900    1.4740 H   0  0  0  0  0  0  0  0  0  0  0  0
   -3.7812    1.1194    4.3869 H   0  0  0  0  0  0  0  0  0  0  0  0
   -5.0748    2.1040    3.6684 H   0  0  0  0  0  0  0  0  0  0  0  0
   -4.8135    0.4412    3.1096 H   0  0  0  0  0  0  0  0  0  0  0  0
   -3.3398    4.3601    2.8490 N   0  0  0  0  0  0  0  0  0  0  0  0
   -2.7519    5.6270    3.2680 C   0  0  0  0  0  0  0  0  0  0  0  0
   -4.2810    4.3553    2.4675 H   0  0  0  0  0  0  0  0  0  0  0  0
   -2.4337    5.5751    4.3147 H   0  0  0  0  0  0  0  0  0  0  0  0
   -1.8829    5.8703    2.6476 H   0  0  0  0  0  0  0  0  0  0  0  0
   -3.4837    6.4346    3.1700 H   0  0  0  0  0  0  0  0  0  0  0  0
  1  2  2  0  0  0  0
  1  3  1  0  0  0  0
  1  7  1  0  0  0  0
  3  4  1  0  0  0  0
  3  5  1  0  0  0  0
  3  6  1  0  0  0  0
  7  8  1  0  0  0  0
  7 12  1  0  0  0  0
  8  9  1  0  0  0  0
  8 11  1  0  0  0  0
  8 13  1  0  0  0  0
  9 10  2  0  0  0  0
  9 17  1  0  0  0  0
 11 14  1  0  0  0  0
 11 15  1  0  0  0  0
 11 16  1  0  0  0  0
 17 18  1  0  0  0  0
 17 21  1  0  0  0  0
 18 19  1  0  0  0  0
 18 22  1  0  0  0  0
 18 23  1  0  0  0  0
 19 20  2  0  0  0  0
 19 24  1  0  0  0  0
 24 25  1  0  0  0  0
 24 29  1  0  0  0  0
 25 26  1  0  0  0  0
 25 28  1  0  0  0  0
 25 30  1  0  0  0  0
 26 27  2  0  0  0  0
 26 34  1  0  0  0  0
 28 31  1  0  0  0  0
 28 32  1  0  0  0  0
 28 33  1  0  0  0  0
 34 35  1  0  0  0  0
 34 36  1  0  0  0  0
 35 37  1  0  0  0  0
 35 38  1  0  0  0  0
 35 39  1  0  0  0  0
M  END
$$$$

  -OEChem-05262216283D

 39 38  0     1  0  0  0  0  0999 V2000
   -3.3618   -2.6574   -2.3280 C   0  0  0  0  0  0  0  0  0  0  0  0
   -2.2646   -3.1814   -2.1931 O   0  0  0  0  0  0  0  0  0  0  0  0
   -4.6255   -3.4342   -2.0140 C   0  0  0  0  0  0  0  0  0  0  0  0
   -5.3147   -3.3874   -2.8607 H   0  0  0  0  0  0  0  0  0  0  0  0
   -4.3845   -4.4820   -1.8142 H   0  0  0  0  0  0  0  0  0  0  0  0
   -5.1122   -3.0099   -1.1317 H   0  0  0  0  0  0  0  0  0  0  0  0
   -3.4386   -1.3265   -2.6847 N   0  0  0  0  0  0  0  0  0  0  0  0
   -2.2619   -0.4497   -2.7920 C   0  0  2  0  0  0  0  0  0  0  0  0
   -1.7407   -0.0472   -1.3925 C   0  0  0  0  0  0  0  0  0  0  0  0
   -1.8173    1.1063   -0.9870 O   0  0  0  0  0  0  0  0  0  0  0  0
   -2.6566    0.7529   -3.6577 C   0  0  0  0  0  0  0  0  0  0  0  0
   -4.3511   -0.8876   -2.5911 H   0  0  0  0  0  0  0  0  0  0  0  0
   -1.4506   -0.9774   -3.3052 H   0  0  0  0  0  0  0  0  0  0  0  0
   -3.4648    1.3211   -3.1863 H   0  0  0  0  0  0  0  0  0  0  0  0
   -1.7990    1.4198   -3.7926 H   0  0  0  0  0  0  0  0  0  0  0  0
   -2.9929    0.4178   -4.6436 H   0  0  0  0  0  0  0  0  0  0  0  0
   -1.2243   -1.0335   -0.5688 N   0  0  0  0  0  0  0  0  0  0  0  0
   -1.4800   -1.0922    0.8847 C   0  0  0  0  0  0  0  0  0  0  0  0
   -2.6359   -0.2275    1.4174 C   0  0  0  0  0  0  0  0  0  0  0  0
   -3.7913   -0.5860    1.2121 O   0  0  0  0  0  0  0  0  0  0  0  0
   -1.2354   -1.9462   -1.0346 H   0  0  0  0  0  0  0  0  0  0  0  0
   -0.5669   -0.7983    1.4096 H   0  0  0  0  0  0  0  0  0  0  0  0
   -1.6955   -2.1281    1.1626 H   0  0  0  0  0  0  0  0  0  0  0  0
   -2.3845    0.9404    2.1103 N   0  0  0  0  0  0  0  0  0  0  0  0
   -3.4131    1.9477    2.3892 C   0  0  2  0  0  0  0  0  0  0  0  0
   -2.8192    3.3714    2.3768 C   0  0  0  0  0  0  0  0  0  0  0  0
   -1.6282    3.5463    2.6116 O   0  0  0  0  0  0  0  0  0  0  0  0
   -4.0442    1.6393    3.7501 C   0  0  0  0  0  0  0  0  0  0  0  0
   -1.4274    1.2910    2.0615 H   0  0  0  0  0  0  0  0  0  0  0  0
   -4.1848    1.9087    1.6131 H   0  0  0  0  0  0  0  0  0  0  0  0
   -3.2855    1.6693    4.5388 H   0  0  0  0  0  0  0  0  0  0  0  0
   -4.8221    2.3710    3.9869 H   0  0  0  0  0  0  0  0  0  0  0  0
   -4.4983    0.6433    3.7405 H   0  0  0  0  0  0  0  0  0  0  0  0
   -3.6256    4.4629    2.1107 N   0  0  0  0  0  0  0  0  0  0  0  0
   -3.1148    5.8247    2.0138 C   0  0  0  0  0  0  0  0  0  0  0  0
   -4.5898    4.2789    1.8501 H   0  0  0  0  0  0  0  0  0  0  0  0
   -2.6408    6.1244    2.9543 H   0  0  0  0  0  0  0  0  0  0  0  0
   -2.3772    5.9003    1.2079 H   0  0  0  0  0  0  0  0  0  0  0  0
   -3.9316    6.5214    1.8029 H   0  0  0  0  0  0  0  0  0  0  0  0
  1  2  2  0  0  0  0
  1  3  1  0  0  0  0
  1  7  1  0  0  0  0
  3  4  1  0  0  0  0
  3  5  1  0  0  0  0
  3  6  1  0  0  0  0
  7  8  1  0  0  0  0
  7 12  1  0  0  0  0
  8  9  1  0  0  0  0
  8 11  1  0  0  0  0
  8 13  1  0  0  0  0
  9 10  2  0  0  0  0
  9 17  1  0  0  0  0
 11 14  1  0  0  0  0
 11 15  1  0  0  0  0
 11 16  1  0  0  0  0
 17 18  1  0  0  0  0
 17 21  1  0  0  0  0
 18 19  1  0  0  0  0
 18 22  1  0  0  0  0
 18 23  1  0  0  0  0
 19 20  2  0  0  0  0
 19 24  1  0  0  0  0
 24 25  1  0  0  0  0
 24 29  1  0  0  0  0
 25 26  1  0  0  0  0
 25 28  1  0  0  0  0
 25 30  1  0  0  0  0
 26 27  2  0  0  0  0
 26 34  1  0  0  0  0
 28 31  1  0  0  0  0
 28 32  1  0  0  0  0
 28 33  1  0  0  0  0
 34 35  1  0  0  0  0
 34 36  1  0  0  0  0
 35 37  1  0  0  0  0
 35 38  1  0  0  0  0
 35 39  1  0  0  0  0
M  END
$$$$

  -OEChem-05262216283D

 39 38  0     1  0  0  0  0  0999 V2000
   -3.2613   -2.8876   -2.6193 C   0  0  0  0  0  0  0  0  0  0  0  0
   -2.1396   -3.2465   -2.2920 O   0  0  0  0  0  0  0  0  0  0  0  0
   -4.4087   -3.8787   -2.6377 C   0  0  0  0  0  0  0  0  0  0  0  0
   -4.9297   -3.8313   -3.5969 H   0  0  0  0  0  0  0  0  0  0  0  0
   -4.0315   -4.8948   -2.4926 H   0  0  0  0  0  0  0  0  0  0  0  0
   -5.1133   -3.6470   -1.8350 H   0  0  0  0  0  0  0  0  0  0  0  0
   -3.4900   -1.5568   -2.9030 N   0  0  0  0  0  0  0  0  0  0  0  0
   -2.4593   -0.5104   -2.8147 C   0  0  2  0  0  0  0  0  0  0  0  0
   -2.1713   -0.1039   -1.3488 C   0  0  0  0  0  0  0  0  0  0  0  0
   -2.4029    1.0295   -0.9504 O   0  0  0  0  0  0  0  0  0  0  0  0
   -2.9229    0.6651   -3.6841 C   0  0  0  0  0  0  0  0  0  0  0  0
   -4.4553   -1.2735   -3.0472 H   0  0  0  0  0  0  0  0  0  0  0  0
   -1.5200   -0.8845   -3.2362 H   0  0  0  0  0  0  0  0  0  0  0  0
   -3.8629    1.0787   -3.3053 H   0  0  0  0  0  0  0  0  0  0  0  0
   -2.1697    1.4595   -3.6795 H   0  0  0  0  0  0  0  0  0  0  0  0
   -3.0742    0.3394   -4.7176 H   0  0  0  0  0  0  0  0  0  0  0  0
   -1.6229   -1.0483   -0.4968 N   0  0  0  0  0  0  0  0  0  0  0  0
   -1.7124   -1.0569    0.9790 C   0  0  0  0  0  0  0  0  0  0  0  0
   -2.7600   -0.1462    1.6436 C   0  0  0  0  0  0  0  0  0  0  0  0
   -3.8763   -0.5918    1.8831 O   0  0  0  0  0  0  0  0  0  0  0  0
   -1.5173   -1.9647   -0.9438 H   0  0  0  0  0  0  0  0  0  0  0  0
   -0.7342   -0.7856    1.3855 H   0  0  0  0  0  0  0  0  0  0  0  0
   -1.9252   -2.0795    1.3044 H   0  0  0  0  0  0  0  0  0  0  0  0
   -2.4426    1.1494    2.0020 N   0  0  0  0  0  0  0  0  0  0  0  0
   -3.4519    2.1460    2.3739 C   0  0  2  0  0  0  0  0  0  0  0  0
   -3.0394    3.5581    1.9087 C   0  0  0  0  0  0  0  0  0  0  0  0
   -1.8546    3.8510    1.7873 O   0  0  0  0  0  0  0  0  0  0  0  0
   -3.6415    2.1130    3.8926 C   0  0  0  0  0  0  0  0  0  0  0  0
   -1.6004    1.5254    1.5643 H   0  0  0  0  0  0  0  0  0  0  0  0
   -4.4015    1.9056    1.8846 H   0  0  0  0  0  0  0  0  0  0  0  0
   -2.7011    2.3507    4.3999 H   0  0  0  0  0  0  0  0  0  0  0  0
   -4.3984    2.8405    4.2001 H   0  0  0  0  0  0  0  0  0  0  0  0
   -3.9685    1.1186    4.2121 H   0  0  0  0  0  0  0  0  0  0  0  0
   -4.0035    4.5113    1.6352 N   0  0  0  0  0  0  0  0  0  0  0  0
   -3.6876    5.8322    1.1049 C   0  0  0  0  0  0  0  0  0  0  0  0
   -4.9742    4.2157    1.6728 H   0  0  0  0  0  0  0  0  0  0  0  0
   -3.0070    6.3632    1.7789 H   0  0  0  0  0  0  0  0  0  0  0  0
   -3.2131    5.7465    0.1214 H   0  0  0  0  0  0  0  0  0  0  0  0
   -4.6008    6.4260    0.9993 H   0  0  0  0  0  0  0  0  0  0  0  0
  1  2  2  0  0  0  0
  1  3  1  0  0  0  0
  1  7  1  0  0  0  0
  3  4  1  0  0  0  0
  3  5  1  0  0  0  0
  3  6  1  0  0  0  0
  7  8  1  0  0  0  0
  7 12  1  0  0  0  0
  8  9  1  0  0  0  0
  8 11  1  0  0  0  0
  8 13  1  0  0  0  0
  9 10  2  0  0  0  0
  9 17  1  0  0  0  0
 11 14  1  0  0  0  0
 11 15  1  0  0  0  0
 11 16  1  0  0  0  0
 17 18  1  0  0  0  0
 17 21  1  0  0  0  0
 18 19  1  0  0  0  0
 18 22  1  0  0  0  0
 18 23  1  0  0  0  0
 19 20  2  0  0  0  0
 19 24  1  0  0  0  0
 24 25  1  0  0  0  0
 24 29  1  0  0  0  0
 25 26  1  0  0  0  0
 25 28  1  0  0  0  0
 25 30  1  0  0  0  0
 26 27  2  0  0  0  0
 26 34  1  0  0  0  0
 28 31  1  0  0  0  0
 28 32  1  0  0  0  0
 28 33  1  0  0  0  0
 34 35  1  0  0  0  0
 34 36  1  0  0  0  0
 35 37  1  0  0  0  0
 35 38  1  0  0  0  0
 35 39  1  0  0  0  0
M  END
$$$$

  -OEChem-05262216283D

 39 38  0     1  0  0  0  0  0999 V2000
   -3.3777   -2.9589   -2.7286 C   0  0  0  0  0  0  0  0  0  0  0  0
   -2.3236   -3.3584   -2.2561 O   0  0  0  0  0  0  0  0  0  0  0  0
   -4.5497   -3.9058   -2.9022 C   0  0  0  0  0  0  0  0  0  0  0  0
   -4.8553   -3.9358   -3.9509 H   0  0  0  0  0  0  0  0  0  0  0  0
   -4.2688   -4.9153   -2.5887 H   0  0  0  0  0  0  0  0  0  0  0  0
   -5.3930   -3.5715   -2.2928 H   0  0  0  0  0  0  0  0  0  0  0  0
   -3.5150   -1.6215   -3.0394 N   0  0  0  0  0  0  0  0  0  0  0  0
   -2.4558   -0.6188   -2.8433 C   0  0  2  0  0  0  0  0  0  0  0  0
   -2.3069   -0.2081   -1.3572 C   0  0  0  0  0  0  0  0  0  0  0  0
   -2.5365    0.9354   -0.9930 O   0  0  0  0  0  0  0  0  0  0  0  0
   -2.7684    0.5657   -3.7671 C   0  0  0  0  0  0  0  0  0  0  0  0
   -4.4332   -1.3048   -3.3389 H   0  0  0  0  0  0  0  0  0  0  0  0
   -1.4935   -1.0371   -3.1583 H   0  0  0  0  0  0  0  0  0  0  0  0
   -3.7196    1.0318   -3.4904 H   0  0  0  0  0  0  0  0  0  0  0  0
   -1.9796    1.3215   -3.6941 H   0  0  0  0  0  0  0  0  0  0  0  0
   -2.8303    0.2326   -4.8076 H   0  0  0  0  0  0  0  0  0  0  0  0
   -1.8675   -1.1580   -0.4512 N   0  0  0  0  0  0  0  0  0  0  0  0
   -1.9428   -1.1205    1.0266 C   0  0  0  0  0  0  0  0  0  0  0  0
   -2.8679   -0.1032    1.7230 C   0  0  0  0  0  0  0  0  0  0  0  0
   -3.8531   -0.5145    2.3238 O   0  0  0  0  0  0  0  0  0  0  0  0
   -1.7552   -2.0855   -0.8735 H   0  0  0  0  0  0  0  0  0  0  0  0
   -0.9345   -0.9438    1.4109 H   0  0  0  0  0  0  0  0  0  0  0  0
   -2.2488   -2.1133    1.3705 H   0  0  0  0  0  0  0  0  0  0  0  0
   -2.5330    1.2350    1.7986 N   0  0  0  0  0  0  0  0  0  0  0  0
   -3.4148    2.2627    2.3651 C   0  0  2  0  0  0  0  0  0  0  0  0
   -3.4406    3.5290    1.4856 C   0  0  0  0  0  0  0  0  0  0  0  0
   -2.3945    4.0467    1.1123 O   0  0  0  0  0  0  0  0  0  0  0  0
   -2.9206    2.5950    3.7748 C   0  0  0  0  0  0  0  0  0  0  0  0
   -1.9011    1.5495    1.0582 H   0  0  0  0  0  0  0  0  0  0  0  0
   -4.4415    1.8885    2.4287 H   0  0  0  0  0  0  0  0  0  0  0  0
   -1.8895    2.9617    3.7420 H   0  0  0  0  0  0  0  0  0  0  0  0
   -3.5503    3.3663    4.2283 H   0  0  0  0  0  0  0  0  0  0  0  0
   -2.9539    1.7024    4.4071 H   0  0  0  0  0  0  0  0  0  0  0  0
   -4.6459    4.1149    1.1434 N   0  0  0  0  0  0  0  0  0  0  0  0
   -4.7442    5.2663    0.2554 C   0  0  0  0  0  0  0  0  0  0  0  0
   -5.4932    3.6151    1.3959 H   0  0  0  0  0  0  0  0  0  0  0  0
   -4.1927    6.1171    0.6691 H   0  0  0  0  0  0  0  0  0  0  0  0
   -4.3325    5.0252   -0.7304 H   0  0  0  0  0  0  0  0  0  0  0  0
   -5.7907    5.5613    0.1320 H   0  0  0  0  0  0  0  0  0  0  0  0
  1  2  2  0  0  0  0
  1  3  1  0  0  0  0
  1  7  1  0  0  0  0
  3  4  1  0  0  0  0
  3  5  1  0  0  0  0
  3  6  1  0  0  0  0
  7  8  1  0  0  0  0
  7 12  1  0  0  0  0
  8  9  1  0  0  0  0
  8 11  1  0  0  0  0
  8 13  1  0  0  0  0
  9 10  2  0  0  0  0
  9 17  1  0  0  0  0
 11 14  1  0  0  0  0
 11 15  1  0  0  0  0
 11 16  1  0  0  0  0
 17 18  1  0  0  0  0
 17 21  1  0  0  0  0
 18 19  1  0  0  0  0
 18 22  1  0  0  0  0
 18 23  1  0  0  0  0
 19 20  2  0  0  0  0
 19 24  1  0  0  0  0
 24 25  1  0  0  0  0
 24 29  1  0  0  0  0
 25 26  1  0  0  0  0
 25 28  1  0  0  0  0
 25 30  1  0  0  0  0
 26 27  2  0  0  0  0
 26 34  1  0  0  0  0
 28 31  1  0  0  0  0
 28 32  1  0  0  0  0
 28 33  1  0  0  0  0
 34 35  1  0  0  0  0
 34 36  1  0  0  0  0
 35 37  1  0  0  0  0
 35 38  1  0  0  0  0
 35 39  1  0  0  0  0
M  END
$$$$

  -OEChem-05262216283D

 39 38  0     1  0  0  0  0  0999 V2000
   -3.9846   -1.6602   -2.1364 C   0  0  0  0  0  0  0  0  0  0  0  0
   -3.4045   -2.7389   -2.1270 O   0  0  0  0  0  0  0  0  0  0  0  0
   -5.4530   -1.5715   -1.7695 C   0  0  0  0  0  0  0  0  0  0  0  0
   -6.0107   -1.0902   -2.5764 H   0  0  0  0  0  0  0  0  0  0  0  0
   -5.8625   -2.5716   -1.6028 H   0  0  0  0  0  0  0  0  0  0  0  0
   -5.5719   -0.9846   -0.8547 H   0  0  0  0  0  0  0  0  0  0  0  0
   -3.2653   -0.5095   -2.3780 N   0  0  0  0  0  0  0  0  0  0  0  0
   -1.7995   -0.4884   -2.4485 C   0  0  2  0  0  0  0  0  0  0  0  0
   -1.2032   -0.5729   -1.0265 C   0  0  0  0  0  0  0  0  0  0  0  0
   -0.6440    0.3793   -0.4927 O   0  0  0  0  0  0  0  0  0  0  0  0
   -1.3934    0.7869   -3.1951 C   0  0  0  0  0  0  0  0  0  0  0  0
   -3.7200    0.3592   -2.0747 H   0  0  0  0  0  0  0  0  0  0  0  0
   -1.4342   -1.3467   -3.0223 H   0  0  0  0  0  0  0  0  0  0  0  0
   -1.7493    1.6751   -2.6625 H   0  0  0  0  0  0  0  0  0  0  0  0
   -0.3040    0.8464   -3.2803 H   0  0  0  0  0  0  0  0  0  0  0  0
   -1.8212    0.7901   -4.2020 H   0  0  0  0  0  0  0  0  0  0  0  0
   -1.3577   -1.7265   -0.2800 N   0  0  0  0  0  0  0  0  0  0  0  0
   -2.0787   -1.7392    1.0128 C   0  0  0  0  0  0  0  0  0  0  0  0
   -2.9791   -0.5400    1.3795 C   0  0  0  0  0  0  0  0  0  0  0  0
   -4.1612   -0.7520    1.6215 O   0  0  0  0  0  0  0  0  0  0  0  0
   -1.6907   -2.4772   -0.8915 H   0  0  0  0  0  0  0  0  0  0  0  0
   -1.3376   -1.8356    1.8110 H   0  0  0  0  0  0  0  0  0  0  0  0
   -2.7039   -2.6371    1.0423 H   0  0  0  0  0  0  0  0  0  0  0  0
   -2.5090    0.7526    1.4951 N   0  0  0  0  0  0  0  0  0  0  0  0
   -3.4245    1.8983    1.5838 C   0  0  2  0  0  0  0  0  0  0  0  0
   -4.3647    2.0594    0.3615 C   0  0  0  0  0  0  0  0  0  0  0  0
   -4.0195    1.7313   -0.7712 O   0  0  0  0  0  0  0  0  0  0  0  0
   -2.5666    3.1541    1.7475 C   0  0  0  0  0  0  0  0  0  0  0  0
   -1.6121    0.9046    1.0224 H   0  0  0  0  0  0  0  0  0  0  0  0
   -4.0482    1.7783    2.4755 H   0  0  0  0  0  0  0  0  0  0  0  0
   -1.9237    3.2942    0.8719 H   0  0  0  0  0  0  0  0  0  0  0  0
   -3.2003    4.0393    1.8586 H   0  0  0  0  0  0  0  0  0  0  0  0
   -1.9326    3.0685    2.6357 H   0  0  0  0  0  0  0  0  0  0  0  0
   -5.6219    2.6093    0.5326 N   0  0  0  0  0  0  0  0  0  0  0  0
   -6.5881    2.7540   -0.5494 C   0  0  0  0  0  0  0  0  0  0  0  0
   -5.9252    2.7831    1.4865 H   0  0  0  0  0  0  0  0  0  0  0  0
   -6.1900    3.4086   -1.3320 H   0  0  0  0  0  0  0  0  0  0  0  0
   -6.8213    1.7785   -0.9893 H   0  0  0  0  0  0  0  0  0  0  0  0
   -7.5160    3.1934   -0.1709 H   0  0  0  0  0  0  0  0  0  0  0  0
  1  2  2  0  0  0  0
  1  3  1  0  0  0  0
  1  7  1  0  0  0  0
  3  4  1  0  0  0  0
  3  5  1  0  0  0  0
  3  6  1  0  0  0  0
  7  8  1  0  0  0  0
  7 12  1  0  0  0  0
  8  9  1  0  0  0  0
  8 11  1  0  0  0  0
  8 13  1  0  0  0  0
  9 10  2  0  0  0  0
  9 17  1  0  0  0  0
 11 14  1  0  0  0  0
 11 15  1  0  0  0  0
 11 16  1  0  0  0  0
 17 18  1  0  0  0  0
 17 21  1  0  0  0  0
 18 19  1  0  0  0  0
 18 22  1  0  0  0  0
 18 23  1  0  0  0  0
 19 20  2  0  0  0  0
 19 24  1  0  0  0  0
 24 25  1  0  0  0  0
 24 29  1  0  0  0  0
 25 26  1  0  0  0  0
 25 28  1  0  0  0  0
 25 30  1  0  0  0  0
 26 27  2  0  0  0  0
 26 34  1  0  0  0  0
 28 31  1  0  0  0  0
 28 32  1  0  0  0  0
 28 33  1  0  0  0  0
 34 35  1  0  0  0  0
 34 36  1  0  0  0  0
 35 37  1  0  0  0  0
 35 38  1  0  0  0  0
 35 39  1  0  0  0  0
M  END
$$$$

  -OEChem-05262216283D

 39 38  0     1  0  0  0  0  0999 V2000
   -4.0148   -1.7969   -2.1794 C   0  0  0  0  0  0  0  0  0  0  0  0
   -3.4227   -2.8671   -2.1250 O   0  0  0  0  0  0  0  0  0  0  0  0
   -5.4773   -1.7056   -1.7904 C   0  0  0  0  0  0  0  0  0  0  0  0
   -6.0365   -1.1733   -2.5635 H   0  0  0  0  0  0  0  0  0  0  0  0
   -5.9012   -2.7064   -1.6729 H   0  0  0  0  0  0  0  0  0  0  0  0
   -5.5755   -1.1664   -0.8444 H   0  0  0  0  0  0  0  0  0  0  0  0
   -3.3098   -0.6496   -2.4733 N   0  0  0  0  0  0  0  0  0  0  0  0
   -1.8443   -0.6103   -2.5575 C   0  0  2  0  0  0  0  0  0  0  0  0
   -1.2287   -0.6421   -1.1408 C   0  0  0  0  0  0  0  0  0  0  0  0
   -0.6521    0.3262   -0.6588 O   0  0  0  0  0  0  0  0  0  0  0  0
   -1.4628    0.6453   -3.3501 C   0  0  0  0  0  0  0  0  0  0  0  0
   -3.7824    0.2258   -2.2208 H   0  0  0  0  0  0  0  0  0  0  0  0
   -1.4732   -1.4817   -3.1073 H   0  0  0  0  0  0  0  0  0  0  0  0
   -1.8233    1.5461   -2.8423 H   0  0  0  0  0  0  0  0  0  0  0  0
   -0.3752    0.7154   -3.4511 H   0  0  0  0  0  0  0  0  0  0  0  0
   -1.9021    0.6110   -4.3516 H   0  0  0  0  0  0  0  0  0  0  0  0
   -1.3919   -1.7639   -0.3498 N   0  0  0  0  0  0  0  0  0  0  0  0
   -2.0691   -1.7501    0.9684 C   0  0  0  0  0  0  0  0  0  0  0  0
   -2.9472   -0.5491    1.3899 C   0  0  0  0  0  0  0  0  0  0  0  0
   -4.0593   -0.7803    1.8487 O   0  0  0  0  0  0  0  0  0  0  0  0
   -1.7395   -2.5326   -0.9308 H   0  0  0  0  0  0  0  0  0  0  0  0
   -1.2964   -1.8515    1.7354 H   0  0  0  0  0  0  0  0  0  0  0  0
   -2.6996   -2.6431    1.0262 H   0  0  0  0  0  0  0  0  0  0  0  0
   -2.5867    0.7730    1.2263 N   0  0  0  0  0  0  0  0  0  0  0  0
   -3.5592    1.8695    1.3056 C   0  0  2  0  0  0  0  0  0  0  0  0
   -4.6281    1.8227    0.1865 C   0  0  0  0  0  0  0  0  0  0  0  0
   -4.3278    1.5526   -0.9743 O   0  0  0  0  0  0  0  0  0  0  0  0
   -2.7795    3.1836    1.2367 C   0  0  0  0  0  0  0  0  0  0  0  0
   -1.7404    0.9228    0.6688 H   0  0  0  0  0  0  0  0  0  0  0  0
   -4.0717    1.8181    2.2717 H   0  0  0  0  0  0  0  0  0  0  0  0
   -2.2546    3.2675    0.2791 H   0  0  0  0  0  0  0  0  0  0  0  0
   -3.4584    4.0360    1.3380 H   0  0  0  0  0  0  0  0  0  0  0  0
   -2.0416    3.2305    2.0436 H   0  0  0  0  0  0  0  0  0  0  0  0
   -5.9481    2.1100    0.4804 N   0  0  0  0  0  0  0  0  0  0  0  0
   -7.0247    2.0229   -0.4987 C   0  0  0  0  0  0  0  0  0  0  0  0
   -6.1898    2.2027    1.4632 H   0  0  0  0  0  0  0  0  0  0  0  0
   -6.8402    2.7068   -1.3339 H   0  0  0  0  0  0  0  0  0  0  0  0
   -7.1070    1.0031   -0.8886 H   0  0  0  0  0  0  0  0  0  0  0  0
   -7.9786    2.2947   -0.0364 H   0  0  0  0  0  0  0  0  0  0  0  0
  1  2  2  0  0  0  0
  1  3  1  0  0  0  0
  1  7  1  0  0  0  0
  3  4  1  0  0  0  0
  3  5  1  0  0  0  0
  3  6  1  0  0  0  0
  7  8  1  0  0  0  0
  7 12  1  0  0  0  0
  8  9  1  0  0  0  0
  8 11  1  0  0  0  0
  8 13  1  0  0  0  0
  9 10  2  0  0  0  0
  9 17  1  0  0  0  0
 11 14  1  0  0  0  0
 11 15  1  0  0  0  0
 11 16  1  0  0  0  0
 17 18  1  0  0  0  0
 17 21  1  0  0  0  0
 18 19  1  0  0  0  0
 18 22  1  0  0  0  0
 18 23  1  0  0  0  0
 19 20  2  0  0  0  0
 19 24  1  0  0  0  0
 24 25  1  0  0  0  0
 24 29  1  0  0  0  0
 25 26  1  0  0  0  0
 25 28  1  0  0  0  0
 25 30  1  0  0  0  0
 26 27  2  0  0  0  0
 26 34  1  0  0  0  0
 28 31  1  0  0  0  0
 28 32  1  0  0  0  0
 28 33  1  0  0  0  0
 34 35  1  0  0  0  0
 34 36  1  0  0  0  0
 35 37  1  0  0  0  0
 35 38  1  0  0  0  0
 35 39  1  0  0  0  0
M  END
$$$$

  -OEChem-05262216283D

 39 38  0     1  0  0  0  0  0999 V2000
   -4.6283   -2.0977   -1.3979 C   0  0  0  0  0  0  0  0  0  0  0  0
   -3.9050   -2.6706   -0.5965 O   0  0  0  0  0  0  0  0  0  0  0  0
   -6.1348   -2.1200   -1.2285 C   0  0  0  0  0  0  0  0  0  0  0  0
   -6.3938   -2.4209   -0.2097 H   0  0  0  0  0  0  0  0  0  0  0  0
   -6.5514   -1.1270   -1.4127 H   0  0  0  0  0  0  0  0  0  0  0  0
   -6.5790   -2.8272   -1.9327 H   0  0  0  0  0  0  0  0  0  0  0  0
   -4.0520   -1.3981   -2.4379 N   0  0  0  0  0  0  0  0  0  0  0  0
   -2.5981   -1.2271   -2.5650 C   0  0  2  0  0  0  0  0  0  0  0  0
   -2.0552   -0.1470   -1.6047 C   0  0  0  0  0  0  0  0  0  0  0  0
   -2.5304    0.9785   -1.6284 O   0  0  0  0  0  0  0  0  0  0  0  0
   -2.2899   -0.8700   -4.0216 C   0  0  0  0  0  0  0  0  0  0  0  0
   -4.6598   -0.7655   -2.9519 H   0  0  0  0  0  0  0  0  0  0  0  0
   -2.0985   -2.1742   -2.3345 H   0  0  0  0  0  0  0  0  0  0  0  0
   -2.7736    0.0723   -4.2990 H   0  0  0  0  0  0  0  0  0  0  0  0
   -1.2106   -0.7602   -4.1662 H   0  0  0  0  0  0  0  0  0  0  0  0
   -2.6501   -1.6579   -4.6905 H   0  0  0  0  0  0  0  0  0  0  0  0
   -0.8899   -0.3482   -0.8927 N   0  0  0  0  0  0  0  0  0  0  0  0
   -0.5638    0.1961    0.4482 C   0  0  0  0  0  0  0  0  0  0  0  0
   -1.5857    0.8069    1.4440 C   0  0  0  0  0  0  0  0  0  0  0  0
   -1.1526    1.0989    2.5460 O   0  0  0  0  0  0  0  0  0  0  0  0
   -0.4858   -1.2637   -1.0707 H   0  0  0  0  0  0  0  0  0  0  0  0
    0.1788    0.9830    0.2857 H   0  0  0  0  0  0  0  0  0  0  0  0
   -0.0679   -0.6069    1.0016 H   0  0  0  0  0  0  0  0  0  0  0  0
   -2.7661    1.4710    1.2101 N   0  0  0  0  0  0  0  0  0  0  0  0
   -3.9907    0.6601    1.0658 C   0  0  2  0  0  0  0  0  0  0  0  0
   -5.0959    1.3432    0.2230 C   0  0  0  0  0  0  0  0  0  0  0  0
   -6.2578    0.9572    0.2818 O   0  0  0  0  0  0  0  0  0  0  0  0
   -4.5035    0.3199    2.4736 C   0  0  0  0  0  0  0  0  0  0  0  0
   -2.8657    2.2021    1.9101 H   0  0  0  0  0  0  0  0  0  0  0  0
   -3.7471   -0.2774    0.5621 H   0  0  0  0  0  0  0  0  0  0  0  0
   -4.7967    1.2305    3.0053 H   0  0  0  0  0  0  0  0  0  0  0  0
   -5.3733   -0.3425    2.4145 H   0  0  0  0  0  0  0  0  0  0  0  0
   -3.7297   -0.1906    3.0552 H   0  0  0  0  0  0  0  0  0  0  0  0
   -4.7808    2.3775   -0.6345 N   0  0  0  0  0  0  0  0  0  0  0  0
   -5.7382    2.9599   -1.5646 C   0  0  0  0  0  0  0  0  0  0  0  0
   -3.7861    2.4281   -0.8696 H   0  0  0  0  0  0  0  0  0  0  0  0
   -6.0769    2.2092   -2.2858 H   0  0  0  0  0  0  0  0  0  0  0  0
   -6.6078    3.3500   -1.0254 H   0  0  0  0  0  0  0  0  0  0  0  0
   -5.2750    3.7861   -2.1124 H   0  0  0  0  0  0  0  0  0  0  0  0
  1  2  2  0  0  0  0
  1  3  1  0  0  0  0
  1  7  1  0  0  0  0
  3  4  1  0  0  0  0
  3  5  1  0  0  0  0
  3  6  1  0  0  0  0
  7  8  1  0  0  0  0
  7 12  1  0  0  0  0
  8  9  1  0  0  0  0
  8 11  1  0  0  0  0
  8 13  1  0  0  0  0
  9 10  2  0  0  0  0
  9 17  1  0  0  0  0
 11 14  1  0  0  0  0
 11 15  1  0  0  0  0
 11 16  1  0  0  0  0
 17 18  1  0  0  0  0
 17 21  1  0  0  0  0
 18 19  1  0  0  0  0
 18 22  1  0  0  0  0
 18 23  1  0  0  0  0
 19 20  2  0  0  0  0
 19 24  1  0  0  0  0
 24 25  1  0  0  0  0
 24 29  1  0  0  0  0
 25 26  1  0  0  0  0
 25 28  1  0  0  0  0
 25 30  1  0  0  0  0
 26 27  2  0  0  0  0
 26 34  1  0  0  0  0
 28 31  1  0  0  0  0
 28 32  1  0  0  0  0
 28 33  1  0  0  0  0
 34 35  1  0  0  0  0
 34 36  1  0  0  0  0
 35 37  1  0  0  0  0
 35 38  1  0  0  0  0
 35 39  1  0  0  0  0
M  END
$$$$

  -OEChem-05262216283D

 39 38  0     1  0  0  0  0  0999 V2000
   -3.9301   -2.2885   -2.3680 C   0  0  0  0  0  0  0  0  0  0  0  0
   -3.1605   -3.2400   -2.3654 O   0  0  0  0  0  0  0  0  0  0  0  0
   -5.3743   -2.4689   -1.9432 C   0  0  0  0  0  0  0  0  0  0  0  0
   -6.0336   -1.9174   -2.6179 H   0  0  0  0  0  0  0  0  0  0  0  0
   -5.6471   -3.5273   -1.9700 H   0  0  0  0  0  0  0  0  0  0  0  0
   -5.5112   -2.0914   -0.9266 H   0  0  0  0  0  0  0  0  0  0  0  0
   -3.4421   -1.0275   -2.6334 N   0  0  0  0  0  0  0  0  0  0  0  0
   -2.0130   -0.7348   -2.8197 C   0  0  2  0  0  0  0  0  0  0  0  0
   -1.2841   -0.6859   -1.4571 C   0  0  0  0  0  0  0  0  0  0  0  0
   -0.7743    0.3452   -1.0365 O   0  0  0  0  0  0  0  0  0  0  0  0
   -1.9197    0.5801   -3.6024 C   0  0  0  0  0  0  0  0  0  0  0  0
   -4.0471   -0.2576   -2.3263 H   0  0  0  0  0  0  0  0  0  0  0  0
   -1.5428   -1.5194   -3.4223 H   0  0  0  0  0  0  0  0  0  0  0  0
   -2.3921    1.3952   -3.0442 H   0  0  0  0  0  0  0  0  0  0  0  0
   -0.8724    0.8428   -3.7823 H   0  0  0  0  0  0  0  0  0  0  0  0
   -2.4227    0.4827   -4.5695 H   0  0  0  0  0  0  0  0  0  0  0  0
   -1.3096   -1.8015   -0.6418 N   0  0  0  0  0  0  0  0  0  0  0  0
   -1.7476   -1.8358    0.7759 C   0  0  0  0  0  0  0  0  0  0  0  0
   -2.5575   -0.6868    1.4268 C   0  0  0  0  0  0  0  0  0  0  0  0
   -3.3037   -0.9830    2.3511 O   0  0  0  0  0  0  0  0  0  0  0  0
   -1.6577   -2.6068   -1.1722 H   0  0  0  0  0  0  0  0  0  0  0  0
   -0.8470   -1.9493    1.3860 H   0  0  0  0  0  0  0  0  0  0  0  0
   -2.3427   -2.7448    0.9074 H   0  0  0  0  0  0  0  0  0  0  0  0
   -2.6993    0.5774    0.8915 N   0  0  0  0  0  0  0  0  0  0  0  0
   -3.8525    1.4494    1.1328 C   0  0  2  0  0  0  0  0  0  0  0  0
   -5.0612    1.0723    0.2471 C   0  0  0  0  0  0  0  0  0  0  0  0
   -4.9080    0.7490   -0.9295 O   0  0  0  0  0  0  0  0  0  0  0  0
   -3.4126    2.8871    0.8513 C   0  0  0  0  0  0  0  0  0  0  0  0
   -2.0926    0.7915    0.0973 H   0  0  0  0  0  0  0  0  0  0  0  0
   -4.1543    1.3807    2.1832 H   0  0  0  0  0  0  0  0  0  0  0  0
   -3.1053    2.9967   -0.1940 H   0  0  0  0  0  0  0  0  0  0  0  0
   -4.2339    3.5830    1.0475 H   0  0  0  0  0  0  0  0  0  0  0  0
   -2.5679    3.1576    1.4927 H   0  0  0  0  0  0  0  0  0  0  0  0
   -6.3423    1.1277    0.7627 N   0  0  0  0  0  0  0  0  0  0  0  0
   -7.5317    0.7613    0.0038 C   0  0  0  0  0  0  0  0  0  0  0  0
   -6.4326    1.3052    1.7597 H   0  0  0  0  0  0  0  0  0  0  0  0
   -7.6294    1.3942   -0.8846 H   0  0  0  0  0  0  0  0  0  0  0  0
   -7.4784   -0.2858   -0.3118 H   0  0  0  0  0  0  0  0  0  0  0  0
   -8.4272    0.8920    0.6191 H   0  0  0  0  0  0  0  0  0  0  0  0
  1  2  2  0  0  0  0
  1  3  1  0  0  0  0
  1  7  1  0  0  0  0
  3  4  1  0  0  0  0
  3  5  1  0  0  0  0
  3  6  1  0  0  0  0
  7  8  1  0  0  0  0
  7 12  1  0  0  0  0
  8  9  1  0  0  0  0
  8 11  1  0  0  0  0
  8 13  1  0  0  0  0
  9 10  2  0  0  0  0
  9 17  1  0  0  0  0
 11 14  1  0  0  0  0
 11 15  1  0  0  0  0
 11 16  1  0  0  0  0
 17 18  1  0  0  0  0
 17 21  1  0  0  0  0
 18 19  1  0  0  0  0
 18 22  1  0  0  0  0
 18 23  1  0  0  0  0
 19 20  2  0  0  0  0
 19 24  1  0  0  0  0
 24 25  1  0  0  0  0
 24 29  1  0  0  0  0
 25 26  1  0  0  0  0
 25 28  1  0  0  0  0
 25 30  1  0  0  0  0
 26 27  2  0  0  0  0
 26 34  1  0  0  0  0
 28 31  1  0  0  0  0
 28 32  1  0  0  0  0
 28 33  1  0  0  0  0
 34 35  1  0  0  0  0
 34 36  1  0  0  0  0
 35 37  1  0  0  0  0
 35 38  1  0  0  0  0
 35 39  1  0  0  0  0
M  END
$$$$

  -OEChem-05262216283D

 39 38  0     1  0  0  0  0  0999 V2000
   -3.5225   -3.4989   -2.0896 C   0  0  0  0  0  0  0  0  0  0  0  0
   -2.5771   -3.6164   -1.3255 O   0  0  0  0  0  0  0  0  0  0  0  0
   -4.7551   -4.3677   -1.9272 C   0  0  0  0  0  0  0  0  0  0  0  0
   -4.9391   -4.9308   -2.8453 H   0  0  0  0  0  0  0  0  0  0  0  0
   -4.6125   -5.0737   -1.1039 H   0  0  0  0  0  0  0  0  0  0  0  0
   -5.6258   -3.7445   -1.7089 H   0  0  0  0  0  0  0  0  0  0  0  0
   -3.4850   -2.5216   -3.0631 N   0  0  0  0  0  0  0  0  0  0  0  0
   -2.4213   -1.5092   -3.0984 C   0  0  2  0  0  0  0  0  0  0  0  0
   -2.5590   -0.4908   -1.9455 C   0  0  0  0  0  0  0  0  0  0  0  0
   -3.6639   -0.0312   -1.6776 O   0  0  0  0  0  0  0  0  0  0  0  0
   -2.4767   -0.8015   -4.4543 C   0  0  0  0  0  0  0  0  0  0  0  0
   -4.3661   -2.3081   -3.5223 H   0  0  0  0  0  0  0  0  0  0  0  0
   -1.4491   -2.0062   -3.0083 H   0  0  0  0  0  0  0  0  0  0  0  0
   -3.4294   -0.2759   -4.5764 H   0  0  0  0  0  0  0  0  0  0  0  0
   -1.6656   -0.0711   -4.5354 H   0  0  0  0  0  0  0  0  0  0  0  0
   -2.3705   -1.5264   -5.2675 H   0  0  0  0  0  0  0  0  0  0  0  0
   -1.4311    0.0072   -1.3155 N   0  0  0  0  0  0  0  0  0  0  0  0
   -1.3082    0.6329    0.0280 C   0  0  0  0  0  0  0  0  0  0  0  0
   -2.3849    0.5472    1.1374 C   0  0  0  0  0  0  0  0  0  0  0  0
   -2.1767    1.2271    2.1288 O   0  0  0  0  0  0  0  0  0  0  0  0
   -0.5687   -0.4016   -1.6675 H   0  0  0  0  0  0  0  0  0  0  0  0
   -1.1451    1.7022   -0.1389 H   0  0  0  0  0  0  0  0  0  0  0  0
   -0.3969    0.2342    0.4830 H   0  0  0  0  0  0  0  0  0  0  0  0
   -3.5866   -0.1278    1.0079 N   0  0  0  0  0  0  0  0  0  0  0  0
   -4.8222    0.1066    1.7812 C   0  0  2  0  0  0  0  0  0  0  0  0
   -5.5329    1.4114    1.3495 C   0  0  0  0  0  0  0  0  0  0  0  0
   -6.3402    1.9694    2.0825 O   0  0  0  0  0  0  0  0  0  0  0  0
   -4.6135    0.0046    3.3019 C   0  0  0  0  0  0  0  0  0  0  0  0
   -3.7177   -0.5354    0.0826 H   0  0  0  0  0  0  0  0  0  0  0  0
   -5.5083   -0.7028    1.5168 H   0  0  0  0  0  0  0  0  0  0  0  0
   -4.1154    0.8964    3.6933 H   0  0  0  0  0  0  0  0  0  0  0  0
   -5.5792   -0.0888    3.8080 H   0  0  0  0  0  0  0  0  0  0  0  0
   -4.0084   -0.8734    3.5459 H   0  0  0  0  0  0  0  0  0  0  0  0
   -5.3509    1.8957    0.0650 N   0  0  0  0  0  0  0  0  0  0  0  0
   -6.0133    3.0847   -0.4529 C   0  0  0  0  0  0  0  0  0  0  0  0
   -4.7220    1.3703   -0.5444 H   0  0  0  0  0  0  0  0  0  0  0  0
   -5.7496    3.9615    0.1479 H   0  0  0  0  0  0  0  0  0  0  0  0
   -5.7040    3.2677   -1.4865 H   0  0  0  0  0  0  0  0  0  0  0  0
   -7.1008    2.9571   -0.4331 H   0  0  0  0  0  0  0  0  0  0  0  0
  1  2  2  0  0  0  0
  1  3  1  0  0  0  0
  1  7  1  0  0  0  0
  3  4  1  0  0  0  0
  3  5  1  0  0  0  0
  3  6  1  0  0  0  0
  7  8  1  0  0  0  0
  7 12  1  0  0  0  0
  8  9  1  0  0  0  0
  8 11  1  0  0  0  0
  8 13  1  0  0  0  0
  9 10  2  0  0  0  0
  9 17  1  0  0  0  0
 11 14  1  0  0  0  0
 11 15  1  0  0  0  0
 11 16  1  0  0  0  0
 17 18  1  0  0  0  0
 17 21  1  0  0  0  0
 18 19  1  0  0  0  0
 18 22  1  0  0  0  0
 18 23  1  0  0  0  0
 19 20  2  0  0  0  0
 19 24  1  0  0  0  0
 24 25  1  0  0  0  0
 24 29  1  0  0  0  0
 25 26  1  0  0  0  0
 25 28  1  0  0  0  0
 25 30  1  0  0  0  0
 26 27  2  0  0  0  0
 26 34  1  0  0  0  0
 28 31  1  0  0  0  0
 28 32  1  0  0  0  0
 28 33  1  0  0  0  0
 34 35  1  0  0  0  0
 34 36  1  0  0  0  0
 35 37  1  0  0  0  0
 35 38  1  0  0  0  0
 35 39  1  0  0  0  0
M  END
$$$$

  -OEChem-05262216283D

 39 38  0     1  0  0  0  0  0999 V2000
   -3.5044   -2.7360   -2.2883 C   0  0  0  0  0  0  0  0  0  0  0  0
   -2.5193   -3.4608   -2.3262 O   0  0  0  0  0  0  0  0  0  0  0  0
   -4.8434   -3.2865   -1.8367 C   0  0  0  0  0  0  0  0  0  0  0  0
   -4.8252   -4.3797   -1.8443 H   0  0  0  0  0  0  0  0  0  0  0  0
   -5.0646   -2.9418   -0.8237 H   0  0  0  0  0  0  0  0  0  0  0  0
   -5.6335   -2.9424   -2.5086 H   0  0  0  0  0  0  0  0  0  0  0  0
   -3.3609   -1.3916   -2.5572 N   0  0  0  0  0  0  0  0  0  0  0  0
   -2.0668   -0.7525   -2.8504 C   0  0  2  0  0  0  0  0  0  0  0  0
   -1.2642   -0.5039   -1.5524 C   0  0  0  0  0  0  0  0  0  0  0  0
   -1.0642    0.6303   -1.1391 O   0  0  0  0  0  0  0  0  0  0  0  0
   -2.3630    0.5344   -3.6298 C   0  0  0  0  0  0  0  0  0  0  0  0
   -4.1339   -0.7975   -2.2381 H   0  0  0  0  0  0  0  0  0  0  0  0
   -1.4640   -1.4031   -3.4932 H   0  0  0  0  0  0  0  0  0  0  0  0
   -2.9781    1.2152   -3.0321 H   0  0  0  0  0  0  0  0  0  0  0  0
   -1.4300    1.0456   -3.8875 H   0  0  0  0  0  0  0  0  0  0  0  0
   -2.8980    0.3037   -4.5560 H   0  0  0  0  0  0  0  0  0  0  0  0
   -0.9646   -1.5812   -0.7396 N   0  0  0  0  0  0  0  0  0  0  0  0
   -1.1703   -1.6526    0.7287 C   0  0  0  0  0  0  0  0  0  0  0  0
   -2.0695   -0.6405    1.4782 C   0  0  0  0  0  0  0  0  0  0  0  0
   -2.2571   -0.8318    2.6717 O   0  0  0  0  0  0  0  0  0  0  0  0
   -1.1701   -2.4626   -1.2213 H   0  0  0  0  0  0  0  0  0  0  0  0
   -0.1838   -1.5872    1.1969 H   0  0  0  0  0  0  0  0  0  0  0  0
   -1.5730   -2.6442    0.9550 H   0  0  0  0  0  0  0  0  0  0  0  0
   -2.9569    0.1846    0.8169 N   0  0  0  0  0  0  0  0  0  0  0  0
   -4.2482    0.6688    1.3113 C   0  0  2  0  0  0  0  0  0  0  0  0
   -5.4118    0.1384    0.4449 C   0  0  0  0  0  0  0  0  0  0  0  0
   -5.2398   -0.1383   -0.7418 O   0  0  0  0  0  0  0  0  0  0  0  0
   -4.2113    2.1977    1.2845 C   0  0  0  0  0  0  0  0  0  0  0  0
   -2.7011    0.4145   -0.1436 H   0  0  0  0  0  0  0  0  0  0  0  0
   -4.4127    0.3367    2.3416 H   0  0  0  0  0  0  0  0  0  0  0  0
   -4.0527    2.5593    0.2632 H   0  0  0  0  0  0  0  0  0  0  0  0
   -5.1524    2.6112    1.6592 H   0  0  0  0  0  0  0  0  0  0  0  0
   -3.3955    2.5665    1.9144 H   0  0  0  0  0  0  0  0  0  0  0  0
   -6.6680   -0.0325    0.9958 N   0  0  0  0  0  0  0  0  0  0  0  0
   -7.8058   -0.5638    0.2553 C   0  0  0  0  0  0  0  0  0  0  0  0
   -6.7763    0.1671    1.9867 H   0  0  0  0  0  0  0  0  0  0  0  0
   -8.0197    0.0604   -0.6187 H   0  0  0  0  0  0  0  0  0  0  0  0
   -7.6009   -1.5855   -0.0813 H   0  0  0  0  0  0  0  0  0  0  0  0
   -8.6961   -0.5818    0.8914 H   0  0  0  0  0  0  0  0  0  0  0  0
  1  2  2  0  0  0  0
  1  3  1  0  0  0  0
  1  7  1  0  0  0  0
  3  4  1  0  0  0  0
  3  5  1  0  0  0  0
  3  6  1  0  0  0  0
  7  8  1  0  0  0  0
  7 12  1  0  0  0  0
  8  9  1  0  0  0  0
  8 11  1  0  0  0  0
  8 13  1  0  0  0  0
  9 10  2  0  0  0  0
  9 17  1  0  0  0  0
 11 14  1  0  0  0  0
 11 15  1  0  0  0  0
 11 16  1  0  0  0  0
 17 18  1  0  0  0  0
 17 21  1  0  0  0  0
 18 19  1  0  0  0  0
 18 22  1  0  0  0  0
 18 23  1  0  0  0  0
 19 20  2  0  0  0  0
 19 24  1  0  0  0  0
 24 25  1  0  0  0  0
 24 29  1  0  0  0  0
 25 26  1  0  0  0  0
 25 28  1  0  0  0  0
 25 30  1  0  0  0  0
 26 27  2  0  0  0  0
 26 34  1  0  0  0  0
 28 31  1  0  0  0  0
 28 32  1  0  0  0  0
 28 33  1  0  0  0  0
 34 35  1  0  0  0  0
 34 36  1  0  0  0  0
 35 37  1  0  0  0  0
 35 38  1  0  0  0  0
 35 39  1  0  0  0  0
M  END
$$$$

  -OEChem-05262216283D

 39 38  0     1  0  0  0  0  0999 V2000
   -3.1130   -2.9315   -2.0626 C   0  0  0  0  0  0  0  0  0  0  0  0
   -1.9851   -3.3926   -2.1725 O   0  0  0  0  0  0  0  0  0  0  0  0
   -4.2372   -3.7735   -1.4919 C   0  0  0  0  0  0  0  0  0  0  0  0
   -3.9496   -4.8283   -1.4740 H   0  0  0  0  0  0  0  0  0  0  0  0
   -4.4629   -3.4490   -0.4729 H   0  0  0  0  0  0  0  0  0  0  0  0
   -5.1349   -3.6635   -2.1055 H   0  0  0  0  0  0  0  0  0  0  0  0
   -3.3266   -1.6037   -2.3659 N   0  0  0  0  0  0  0  0  0  0  0  0
   -2.2627   -0.6830   -2.7998 C   0  0  2  0  0  0  0  0  0  0  0  0
   -1.4114   -0.2150   -1.5968 C   0  0  0  0  0  0  0  0  0  0  0  0
   -1.5646    0.8993   -1.1164 O   0  0  0  0  0  0  0  0  0  0  0  0
   -2.9385    0.4748   -3.5438 C   0  0  0  0  0  0  0  0  0  0  0  0
   -4.2298   -1.2138   -2.0750 H   0  0  0  0  0  0  0  0  0  0  0  0
   -1.5927   -1.1884   -3.5038 H   0  0  0  0  0  0  0  0  0  0  0  0
   -3.6430    0.9977   -2.8884 H   0  0  0  0  0  0  0  0  0  0  0  0
   -2.1883    1.1930   -3.8894 H   0  0  0  0  0  0  0  0  0  0  0  0
   -3.4852    0.0992   -4.4140 H   0  0  0  0  0  0  0  0  0  0  0  0
   -0.6604   -1.1460   -0.8998 N   0  0  0  0  0  0  0  0  0  0  0  0
   -0.7018   -1.3228    0.5743 C   0  0  0  0  0  0  0  0  0  0  0  0
   -1.8580   -0.7054    1.3917 C   0  0  0  0  0  0  0  0  0  0  0  0
   -1.7505   -0.5871    2.6043 O   0  0  0  0  0  0  0  0  0  0  0  0
   -0.6340   -2.0362   -1.4067 H   0  0  0  0  0  0  0  0  0  0  0  0
    0.2272   -0.9148    0.9841 H   0  0  0  0  0  0  0  0  0  0  0  0
   -0.7104   -2.3959    0.7852 H   0  0  0  0  0  0  0  0  0  0  0  0
   -3.1043   -0.5513    0.8181 N   0  0  0  0  0  0  0  0  0  0  0  0
   -4.3153   -0.0594    1.4740 C   0  0  2  0  0  0  0  0  0  0  0  0
   -5.5617   -0.3899    0.6221 C   0  0  0  0  0  0  0  0  0  0  0  0
   -5.4454   -0.7347   -0.5545 O   0  0  0  0  0  0  0  0  0  0  0  0
   -4.1909    1.4559    1.6676 C   0  0  0  0  0  0  0  0  0  0  0  0
   -3.1066   -0.5259   -0.1985 H   0  0  0  0  0  0  0  0  0  0  0  0
   -4.4257   -0.5460    2.4487 H   0  0  0  0  0  0  0  0  0  0  0  0
   -4.0491    1.9537    0.7026 H   0  0  0  0  0  0  0  0  0  0  0  0
   -5.0905    1.8597    2.1406 H   0  0  0  0  0  0  0  0  0  0  0  0
   -3.3333    1.6903    2.3060 H   0  0  0  0  0  0  0  0  0  0  0  0
   -6.8245   -0.3240    1.1805 N   0  0  0  0  0  0  0  0  0  0  0  0
   -8.0467   -0.6329    0.4480 C   0  0  0  0  0  0  0  0  0  0  0  0
   -6.8927   -0.0416    2.1546 H   0  0  0  0  0  0  0  0  0  0  0  0
   -8.1611    0.0387   -0.4094 H   0  0  0  0  0  0  0  0  0  0  0  0
   -8.0264   -1.6664    0.0867 H   0  0  0  0  0  0  0  0  0  0  0  0
   -8.9182   -0.5122    1.0991 H   0  0  0  0  0  0  0  0  0  0  0  0
  1  2  2  0  0  0  0
  1  3  1  0  0  0  0
  1  7  1  0  0  0  0
  3  4  1  0  0  0  0
  3  5  1  0  0  0  0
  3  6  1  0  0  0  0
  7  8  1  0  0  0  0
  7 12  1  0  0  0  0
  8  9  1  0  0  0  0
  8 11  1  0  0  0  0
  8 13  1  0  0  0  0
  9 10  2  0  0  0  0
  9 17  1  0  0  0  0
 11 14  1  0  0  0  0
 11 15  1  0  0  0  0
 11 16  1  0  0  0  0
 17 18  1  0  0  0  0
 17 21  1  0  0  0  0
 18 19  1  0  0  0  0
 18 22  1  0  0  0  0
 18 23  1  0  0  0  0
 19 20  2  0  0  0  0
 19 24  1  0  0  0  0
 24 25  1  0  0  0  0
 24 29  1  0  0  0  0
 25 26  1  0  0  0  0
 25 28  1  0  0  0  0
 25 30  1  0  0  0  0
 26 27  2  0  0  0  0
 26 34  1  0  0  0  0
 28 31  1  0  0  0  0
 28 32  1  0  0  0  0
 28 33  1  0  0  0  0
 34 35  1  0  0  0  0
 34 36  1  0  0  0  0
 35 37  1  0  0  0  0
 35 38  1  0  0  0  0
 35 39  1  0  0  0  0
M  END
$$$$

  -OEChem-05262216283D

 39 38  0     1  0  0  0  0  0999 V2000
   -2.9427   -3.0294   -2.0595 C   0  0  0  0  0  0  0  0  0  0  0  0
   -1.7771   -3.3147   -2.2937 O   0  0  0  0  0  0  0  0  0  0  0  0
   -3.9054   -4.0815   -1.5450 C   0  0  0  0  0  0  0  0  0  0  0  0
   -4.8193   -4.0752   -2.1440 H   0  0  0  0  0  0  0  0  0  0  0  0
   -3.4498   -5.0735   -1.6070 H   0  0  0  0  0  0  0  0  0  0  0  0
   -4.1635   -3.8745   -0.5035 H   0  0  0  0  0  0  0  0  0  0  0  0
   -3.3424   -1.7149   -2.1711 N   0  0  0  0  0  0  0  0  0  0  0  0
   -2.4715   -0.6204   -2.6345 C   0  0  2  0  0  0  0  0  0  0  0  0
   -1.5278   -0.1291   -1.5109 C   0  0  0  0  0  0  0  0  0  0  0  0
   -1.6757    0.9717   -0.9989 O   0  0  0  0  0  0  0  0  0  0  0  0
   -3.3892    0.4845   -3.1727 C   0  0  0  0  0  0  0  0  0  0  0  0
   -4.2720   -1.4860   -1.8029 H   0  0  0  0  0  0  0  0  0  0  0  0
   -1.8439   -0.9684   -3.4622 H   0  0  0  0  0  0  0  0  0  0  0  0
   -4.0480    0.8585   -2.3819 H   0  0  0  0  0  0  0  0  0  0  0  0
   -2.7942    1.3214   -3.5521 H   0  0  0  0  0  0  0  0  0  0  0  0
   -4.0076    0.1018   -3.9904 H   0  0  0  0  0  0  0  0  0  0  0  0
   -0.6501   -1.0307   -0.9305 N   0  0  0  0  0  0  0  0  0  0  0  0
   -0.5239   -1.2235    0.5346 C   0  0  0  0  0  0  0  0  0  0  0  0
   -1.6451   -0.6561    1.4262 C   0  0  0  0  0  0  0  0  0  0  0  0
   -1.4052   -0.2361    2.5495 O   0  0  0  0  0  0  0  0  0  0  0  0
   -0.6138   -1.9040   -1.4660 H   0  0  0  0  0  0  0  0  0  0  0  0
    0.4141   -0.7634    0.8600 H   0  0  0  0  0  0  0  0  0  0  0  0
   -0.4562   -2.2950    0.7416 H   0  0  0  0  0  0  0  0  0  0  0  0
   -2.9560   -0.8675    1.0433 N   0  0  0  0  0  0  0  0  0  0  0  0
   -4.1438   -0.2992    1.6857 C   0  0  2  0  0  0  0  0  0  0  0  0
   -5.4237   -0.8232    0.9970 C   0  0  0  0  0  0  0  0  0  0  0  0
   -5.3695   -1.3072   -0.1344 O   0  0  0  0  0  0  0  0  0  0  0  0
   -4.1090    1.2328    1.5848 C   0  0  0  0  0  0  0  0  0  0  0  0
   -3.0772   -1.1693    0.0797 H   0  0  0  0  0  0  0  0  0  0  0  0
   -4.1633   -0.5985    2.7387 H   0  0  0  0  0  0  0  0  0  0  0  0
   -4.0557    1.5454    0.5368 H   0  0  0  0  0  0  0  0  0  0  0  0
   -5.0064    1.6686    2.0334 H   0  0  0  0  0  0  0  0  0  0  0  0
   -3.2375    1.6368    2.1089 H   0  0  0  0  0  0  0  0  0  0  0  0
   -6.6442   -0.7515    1.6414 N   0  0  0  0  0  0  0  0  0  0  0  0
   -7.8958   -1.2098    1.0508 C   0  0  0  0  0  0  0  0  0  0  0  0
   -6.6613   -0.3345    2.5684 H   0  0  0  0  0  0  0  0  0  0  0  0
   -8.1226   -0.6416    0.1425 H   0  0  0  0  0  0  0  0  0  0  0  0
   -7.8334   -2.2729    0.7958 H   0  0  0  0  0  0  0  0  0  0  0  0
   -8.7195   -1.0734    1.7582 H   0  0  0  0  0  0  0  0  0  0  0  0
  1  2  2  0  0  0  0
  1  3  1  0  0  0  0
  1  7  1  0  0  0  0
  3  4  1  0  0  0  0
  3  5  1  0  0  0  0
  3  6  1  0  0  0  0
  7  8  1  0  0  0  0
  7 12  1  0  0  0  0
  8  9  1  0  0  0  0
  8 11  1  0  0  0  0
  8 13  1  0  0  0  0
  9 10  2  0  0  0  0
  9 17  1  0  0  0  0
 11 14  1  0  0  0  0
 11 15  1  0  0  0  0
 11 16  1  0  0  0  0
 17 18  1  0  0  0  0
 17 21  1  0  0  0  0
 18 19  1  0  0  0  0
 18 22  1  0  0  0  0
 18 23  1  0  0  0  0
 19 20  2  0  0  0  0
 19 24  1  0  0  0  0
 24 25  1  0  0  0  0
 24 29  1  0  0  0  0
 25 26  1  0  0  0  0
 25 28  1  0  0  0  0
 25 30  1  0  0  0  0
 26 27  2  0  0  0  0
 26 34  1  0  0  0  0
 28 31  1  0  0  0  0
 28 32  1  0  0  0  0
 28 33  1  0  0  0  0
 34 35  1  0  0  0  0
 34 36  1  0  0  0  0
 35 37  1  0  0  0  0
 35 38  1  0  0  0  0
 35 39  1  0  0  0  0
M  END
$$$$

  -OEChem-05262216283D

 39 38  0     1  0  0  0  0  0999 V2000
   -2.9095   -3.0283   -1.9947 C   0  0  0  0  0  0  0  0  0  0  0  0
   -1.7621   -3.2422   -2.3579 O   0  0  0  0  0  0  0  0  0  0  0  0
   -3.7474   -4.1474   -1.4078 C   0  0  0  0  0  0  0  0  0  0  0  0
   -4.7741   -4.0793   -1.7763 H   0  0  0  0  0  0  0  0  0  0  0  0
   -3.3343   -5.1184   -1.6947 H   0  0  0  0  0  0  0  0  0  0  0  0
   -3.7580   -4.0734   -0.3175 H   0  0  0  0  0  0  0  0  0  0  0  0
   -3.3852   -1.7345   -2.0135 N   0  0  0  0  0  0  0  0  0  0  0  0
   -2.6288   -0.5794   -2.5324 C   0  0  2  0  0  0  0  0  0  0  0  0
   -1.5962   -0.0582   -1.5037 C   0  0  0  0  0  0  0  0  0  0  0  0
   -1.7193    1.0440   -0.9887 O   0  0  0  0  0  0  0  0  0  0  0  0
   -3.6553    0.4840   -2.9419 C   0  0  0  0  0  0  0  0  0  0  0  0
   -4.2717   -1.5682   -1.5267 H   0  0  0  0  0  0  0  0  0  0  0  0
   -2.0747   -0.8725   -3.4306 H   0  0  0  0  0  0  0  0  0  0  0  0
   -4.2458    0.8039   -2.0772 H   0  0  0  0  0  0  0  0  0  0  0  0
   -3.1484    1.3605   -3.3578 H   0  0  0  0  0  0  0  0  0  0  0  0
   -4.3350    0.0855   -3.7011 H   0  0  0  0  0  0  0  0  0  0  0  0
   -0.6541   -0.9452   -1.0072 N   0  0  0  0  0  0  0  0  0  0  0  0
   -0.3819   -1.1167    0.4385 C   0  0  0  0  0  0  0  0  0  0  0  0
   -1.4356   -0.5323    1.3946 C   0  0  0  0  0  0  0  0  0  0  0  0
   -1.1120    0.1082    2.3849 O   0  0  0  0  0  0  0  0  0  0  0  0
   -0.6440   -1.8182   -1.5443 H   0  0  0  0  0  0  0  0  0  0  0  0
    0.5757   -0.6398    0.6691 H   0  0  0  0  0  0  0  0  0  0  0  0
   -0.2840   -2.1826    0.6614 H   0  0  0  0  0  0  0  0  0  0  0  0
   -2.7224   -1.0235    1.2871 N   0  0  0  0  0  0  0  0  0  0  0  0
   -3.9066   -0.4659    1.9507 C   0  0  2  0  0  0  0  0  0  0  0  0
   -5.1760   -1.1654    1.4187 C   0  0  0  0  0  0  0  0  0  0  0  0
   -5.1727   -1.6850    0.3020 O   0  0  0  0  0  0  0  0  0  0  0  0
   -4.0407    1.0396    1.6679 C   0  0  0  0  0  0  0  0  0  0  0  0
   -2.9080   -1.5310    0.4253 H   0  0  0  0  0  0  0  0  0  0  0  0
   -3.8286   -0.6336    3.0296 H   0  0  0  0  0  0  0  0  0  0  0  0
   -4.0603    1.2259    0.5893 H   0  0  0  0  0  0  0  0  0  0  0  0
   -4.9640    1.4314    2.1047 H   0  0  0  0  0  0  0  0  0  0  0  0
   -3.2034    1.5967    2.0980 H   0  0  0  0  0  0  0  0  0  0  0  0
   -6.3316   -1.1947    2.1757 N   0  0  0  0  0  0  0  0  0  0  0  0
   -7.5748   -1.8067    1.7229 C   0  0  0  0  0  0  0  0  0  0  0  0
   -6.3090   -0.7421    3.0860 H   0  0  0  0  0  0  0  0  0  0  0  0
   -7.9271   -1.3260    0.8041 H   0  0  0  0  0  0  0  0  0  0  0  0
   -7.4284   -2.8745    1.5292 H   0  0  0  0  0  0  0  0  0  0  0  0
   -8.3498   -1.6978    2.4877 H   0  0  0  0  0  0  0  0  0  0  0  0
  1  2  2  0  0  0  0
  1  3  1  0  0  0  0
  1  7  1  0  0  0  0
  3  4  1  0  0  0  0
  3  5  1  0  0  0  0
  3  6  1  0  0  0  0
  7  8  1  0  0  0  0
  7 12  1  0  0  0  0
  8  9  1  0  0  0  0
  8 11  1  0  0  0  0
  8 13  1  0  0  0  0
  9 10  2  0  0  0  0
  9 17  1  0  0  0  0
 11 14  1  0  0  0  0
 11 15  1  0  0  0  0
 11 16  1  0  0  0  0
 17 18  1  0  0  0  0
 17 21  1  0  0  0  0
 18 19  1  0  0  0  0
 18 22  1  0  0  0  0
 18 23  1  0  0  0  0
 19 20  2  0  0  0  0
 19 24  1  0  0  0  0
 24 25  1  0  0  0  0
 24 29  1  0  0  0  0
 25 26  1  0  0  0  0
 25 28  1  0  0  0  0
 25 30  1  0  0  0  0
 26 27  2  0  0  0  0
 26 34  1  0  0  0  0
 28 31  1  0  0  0  0
 28 32  1  0  0  0  0
 28 33  1  0  0  0  0
 34 35  1  0  0  0  0
 34 36  1  0  0  0  0
 35 37  1  0  0  0  0
 35 38  1  0  0  0  0
 35 39  1  0  0  0  0
M  END
$$$$

  -OEChem-05262216283D

 39 38  0     1  0  0  0  0  0999 V2000
   -2.9198   -2.9764   -2.2246 C   0  0  0  0  0  0  0  0  0  0  0  0
   -1.7330   -3.2705   -2.1903 O   0  0  0  0  0  0  0  0  0  0  0  0
   -3.9739   -3.9811   -1.8005 C   0  0  0  0  0  0  0  0  0  0  0  0
   -4.6800   -4.1510   -2.6168 H   0  0  0  0  0  0  0  0  0  0  0  0
   -3.5043   -4.9330   -1.5374 H   0  0  0  0  0  0  0  0  0  0  0  0
   -4.5190   -3.6067   -0.9297 H   0  0  0  0  0  0  0  0  0  0  0  0
   -3.2868   -1.6929   -2.5745 N   0  0  0  0  0  0  0  0  0  0  0  0
   -2.3241   -0.6148   -2.8527 C   0  0  2  0  0  0  0  0  0  0  0  0
   -1.6728   -0.0916   -1.5502 C   0  0  0  0  0  0  0  0  0  0  0  0
   -2.0615    0.9458   -1.0337 O   0  0  0  0  0  0  0  0  0  0  0  0
   -3.0645    0.4793   -3.6323 C   0  0  0  0  0  0  0  0  0  0  0  0
   -4.2650   -1.4447   -2.4485 H   0  0  0  0  0  0  0  0  0  0  0  0
   -1.5205   -0.9925   -3.4944 H   0  0  0  0  0  0  0  0  0  0  0  0
   -3.8955    0.8808   -3.0429 H   0  0  0  0  0  0  0  0  0  0  0  0
   -2.3821    1.3014   -3.8711 H   0  0  0  0  0  0  0  0  0  0  0  0
   -3.4621    0.0772   -4.5691 H   0  0  0  0  0  0  0  0  0  0  0  0
   -0.7320   -0.8952   -0.9247 N   0  0  0  0  0  0  0  0  0  0  0  0
   -0.4445   -0.9340    0.5261 C   0  0  0  0  0  0  0  0  0  0  0  0
   -1.4779   -0.2846    1.4601 C   0  0  0  0  0  0  0  0  0  0  0  0
   -1.1625    0.6280    2.2122 O   0  0  0  0  0  0  0  0  0  0  0  0
   -0.6042   -1.7852   -1.4157 H   0  0  0  0  0  0  0  0  0  0  0  0
    0.5125   -0.4319    0.6987 H   0  0  0  0  0  0  0  0  0  0  0  0
   -0.3269   -1.9762    0.8353 H   0  0  0  0  0  0  0  0  0  0  0  0
   -2.6602   -0.9631    1.6800 N   0  0  0  0  0  0  0  0  0  0  0  0
   -3.7987   -0.4577    2.4543 C   0  0  2  0  0  0  0  0  0  0  0  0
   -4.9404   -1.4963    2.4572 C   0  0  0  0  0  0  0  0  0  0  0  0
   -4.9975   -2.3521    1.5766 O   0  0  0  0  0  0  0  0  0  0  0  0
   -4.3190    0.8500    1.8372 C   0  0  0  0  0  0  0  0  0  0  0  0
   -2.8627   -1.7288    1.0402 H   0  0  0  0  0  0  0  0  0  0  0  0
   -3.4831   -0.2772    3.4869 H   0  0  0  0  0  0  0  0  0  0  0  0
   -4.5906    0.6963    0.7878 H   0  0  0  0  0  0  0  0  0  0  0  0
   -5.2007    1.2062    2.3779 H   0  0  0  0  0  0  0  0  0  0  0  0
   -3.5564    1.6334    1.8829 H   0  0  0  0  0  0  0  0  0  0  0  0
   -5.9196   -1.4619    3.4327 N   0  0  0  0  0  0  0  0  0  0  0  0
   -7.0386   -2.3952    3.4798 C   0  0  0  0  0  0  0  0  0  0  0  0
   -5.8484   -0.7406    4.1452 H   0  0  0  0  0  0  0  0  0  0  0  0
   -7.6507   -2.3048    2.5763 H   0  0  0  0  0  0  0  0  0  0  0  0
   -6.6757   -3.4255    3.5584 H   0  0  0  0  0  0  0  0  0  0  0  0
   -7.6708   -2.1851    4.3481 H   0  0  0  0  0  0  0  0  0  0  0  0
  1  2  2  0  0  0  0
  1  3  1  0  0  0  0
  1  7  1  0  0  0  0
  3  4  1  0  0  0  0
  3  5  1  0  0  0  0
  3  6  1  0  0  0  0
  7  8  1  0  0  0  0
  7 12  1  0  0  0  0
  8  9  1  0  0  0  0
  8 11  1  0  0  0  0
  8 13  1  0  0  0  0
  9 10  2  0  0  0  0
  9 17  1  0  0  0  0
 11 14  1  0  0  0  0
 11 15  1  0  0  0  0
 11 16  1  0  0  0  0
 17 18  1  0  0  0  0
 17 21  1  0  0  0  0
 18 19  1  0  0  0  0
 18 22  1  0  0  0  0
 18 23  1  0  0  0  0
 19 20  2  0  0  0  0
 19 24  1  0  0  0  0
 24 25  1  0  0  0  0
 24 29  1  0  0  0  0
 25 26  1  0  0  0  0
 25 28  1  0  0  0  0
 25 30  1  0  0  0  0
 26 27  2  0  0  0  0
 26 34  1  0  0  0  0
 28 31  1  0  0  0  0
 28 32  1  0  0  0  0
 28 33  1  0  0  0  0
 34 35  1  0  0  0  0
 34 36  1  0  0  0  0
 35 37  1  0  0  0  0
 35 38  1  0  0  0  0
 35 39  1  0  0  0  0
M  END
$$$$

  -OEChem-05262216283D

 39 38  0     1  0  0  0  0  0999 V2000
   -2.6055   -2.9295   -3.6577 C   0  0  0  0  0  0  0  0  0  0  0  0
   -1.4425   -3.0984   -3.3215 O   0  0  0  0  0  0  0  0  0  0  0  0
   -3.4370   -4.0970   -4.1548 C   0  0  0  0  0  0  0  0  0  0  0  0
   -3.8191   -3.8845   -5.1564 H   0  0  0  0  0  0  0  0  0  0  0  0
   -2.8269   -5.0039   -4.1963 H   0  0  0  0  0  0  0  0  0  0  0  0
   -4.2792   -4.2715   -3.4807 H   0  0  0  0  0  0  0  0  0  0  0  0
   -3.1729   -1.6783   -3.5282 N   0  0  0  0  0  0  0  0  0  0  0  0
   -2.4486   -0.4867   -3.0565 C   0  0  2  0  0  0  0  0  0  0  0  0
   -2.2580   -0.4713   -1.5185 C   0  0  0  0  0  0  0  0  0  0  0  0
   -2.7925    0.3882   -0.8333 O   0  0  0  0  0  0  0  0  0  0  0  0
   -3.2067    0.7411   -3.5791 C   0  0  0  0  0  0  0  0  0  0  0  0
   -4.1622   -1.5892   -3.7430 H   0  0  0  0  0  0  0  0  0  0  0  0
   -1.4476   -0.4696   -3.5011 H   0  0  0  0  0  0  0  0  0  0  0  0
   -4.2179    0.7775   -3.1608 H   0  0  0  0  0  0  0  0  0  0  0  0
   -2.6828    1.6595   -3.2946 H   0  0  0  0  0  0  0  0  0  0  0  0
   -3.2787    0.7105   -4.6705 H   0  0  0  0  0  0  0  0  0  0  0  0
   -1.5172   -1.4902   -0.9405 N   0  0  0  0  0  0  0  0  0  0  0  0
   -1.0642   -1.6253    0.4610 C   0  0  0  0  0  0  0  0  0  0  0  0
   -1.7060   -0.7273    1.5322 C   0  0  0  0  0  0  0  0  0  0  0  0
   -1.0834    0.2260    1.9841 O   0  0  0  0  0  0  0  0  0  0  0  0
   -1.1622   -2.1741   -1.6160 H   0  0  0  0  0  0  0  0  0  0  0  0
    0.0125   -1.4321    0.4883 H   0  0  0  0  0  0  0  0  0  0  0  0
   -1.2157   -2.6617    0.7740 H   0  0  0  0  0  0  0  0  0  0  0  0
   -2.8367   -1.1612    2.1960 N   0  0  0  0  0  0  0  0  0  0  0  0
   -3.5244   -0.4123    3.2533 C   0  0  2  0  0  0  0  0  0  0  0  0
   -4.5112   -1.3085    4.0309 C   0  0  0  0  0  0  0  0  0  0  0  0
   -4.8615   -2.3914    3.5719 O   0  0  0  0  0  0  0  0  0  0  0  0
   -4.2737    0.7643    2.6145 C   0  0  0  0  0  0  0  0  0  0  0  0
   -3.3248   -1.9677    1.8114 H   0  0  0  0  0  0  0  0  0  0  0  0
   -2.7853   -0.0300    3.9652 H   0  0  0  0  0  0  0  0  0  0  0  0
   -5.0075    0.4002    1.8882 H   0  0  0  0  0  0  0  0  0  0  0  0
   -4.7964    1.3489    3.3771 H   0  0  0  0  0  0  0  0  0  0  0  0
   -3.5744    1.4271    2.0944 H   0  0  0  0  0  0  0  0  0  0  0  0
   -5.0174   -0.8979    5.2505 N   0  0  0  0  0  0  0  0  0  0  0  0
   -5.9606   -1.6881    6.0322 C   0  0  0  0  0  0  0  0  0  0  0  0
   -4.7086    0.0011    5.6090 H   0  0  0  0  0  0  0  0  0  0  0  0
   -6.8764   -1.8678    5.4593 H   0  0  0  0  0  0  0  0  0  0  0  0
   -5.5194   -2.6531    6.3031 H   0  0  0  0  0  0  0  0  0  0  0  0
   -6.2269   -1.1593    6.9522 H   0  0  0  0  0  0  0  0  0  0  0  0
  1  2  2  0  0  0  0
  1  3  1  0  0  0  0
  1  7  1  0  0  0  0
  3  4  1  0  0  0  0
  3  5  1  0  0  0  0
  3  6  1  0  0  0  0
  7  8  1  0  0  0  0
  7 12  1  0  0  0  0
  8  9  1  0  0  0  0
  8 11  1  0  0  0  0
  8 13  1  0  0  0  0
  9 10  2  0  0  0  0
  9 17  1  0  0  0  0
 11 14  1  0  0  0  0
 11 15  1  0  0  0  0
 11 16  1  0  0  0  0
 17 18  1  0  0  0  0
 17 21  1  0  0  0  0
 18 19  1  0  0  0  0
 18 22  1  0  0  0  0
 18 23  1  0  0  0  0
 19 20  2  0  0  0  0
 19 24  1  0  0  0  0
 24 25  1  0  0  0  0
 24 29  1  0  0  0  0
 25 26  1  0  0  0  0
 25 28  1  0  0  0  0
 25 30  1  0  0  0  0
 26 27  2  0  0  0  0
 26 34  1  0  0  0  0
 28 31  1  0  0  0  0
 28 32  1  0  0  0  0
 28 33  1  0  0  0  0
 34 35  1  0  0  0  0
 34 36  1  0  0  0  0
 35 37  1  0  0  0  0
 35 38  1  0  0  0  0
 35 39  1  0  0  0  0
M  END
$$$$

  -OEChem-05262216283D

 39 38  0     1  0  0  0  0  0999 V2000
   -2.7255   -2.8412   -3.9238 C   0  0  0  0  0  0  0  0  0  0  0  0
   -1.6375   -3.1209   -3.4425 O   0  0  0  0  0  0  0  0  0  0  0  0
   -3.5107   -3.8806   -4.7018 C   0  0  0  0  0  0  0  0  0  0  0  0
   -3.6818   -3.5323   -5.7233 H   0  0  0  0  0  0  0  0  0  0  0  0
   -2.9551   -4.8219   -4.7408 H   0  0  0  0  0  0  0  0  0  0  0  0
   -4.4745   -4.0607   -4.2194 H   0  0  0  0  0  0  0  0  0  0  0  0
   -3.2549   -1.5845   -3.7142 N   0  0  0  0  0  0  0  0  0  0  0  0
   -2.5540   -0.4982   -3.0099 C   0  0  2  0  0  0  0  0  0  0  0  0
   -2.5778   -0.6595   -1.4684 C   0  0  0  0  0  0  0  0  0  0  0  0
   -3.1473    0.1610   -0.7630 O   0  0  0  0  0  0  0  0  0  0  0  0
   -3.1719    0.8245   -3.4833 C   0  0  0  0  0  0  0  0  0  0  0  0
   -4.1878   -1.4037   -4.0739 H   0  0  0  0  0  0  0  0  0  0  0  0
   -1.5004   -0.4933   -3.3097 H   0  0  0  0  0  0  0  0  0  0  0  0
   -4.2286    0.8802   -3.2026 H   0  0  0  0  0  0  0  0  0  0  0  0
   -2.6491    1.6711   -3.0263 H   0  0  0  0  0  0  0  0  0  0  0  0
   -3.0916    0.9170   -4.5705 H   0  0  0  0  0  0  0  0  0  0  0  0
   -2.0090   -1.7957   -0.9146 N   0  0  0  0  0  0  0  0  0  0  0  0
   -1.4991   -1.9663    0.4639 C   0  0  0  0  0  0  0  0  0  0  0  0
   -1.8831   -0.9297    1.5348 C   0  0  0  0  0  0  0  0  0  0  0  0
   -1.1716    0.0535    1.7033 O   0  0  0  0  0  0  0  0  0  0  0  0
   -1.6251   -2.4301   -1.6218 H   0  0  0  0  0  0  0  0  0  0  0  0
   -0.4059   -1.9802    0.4210 H   0  0  0  0  0  0  0  0  0  0  0  0
   -1.8205   -2.9460    0.8273 H   0  0  0  0  0  0  0  0  0  0  0  0
   -2.8276   -1.2365    2.4954 N   0  0  0  0  0  0  0  0  0  0  0  0
   -3.2228   -0.3392    3.5872 C   0  0  2  0  0  0  0  0  0  0  0  0
   -3.9271   -1.0992    4.7302 C   0  0  0  0  0  0  0  0  0  0  0  0
   -4.3610   -2.2325    4.5493 O   0  0  0  0  0  0  0  0  0  0  0  0
   -4.1504    0.7411    3.0170 C   0  0  0  0  0  0  0  0  0  0  0  0
   -3.3753   -2.0855    2.3699 H   0  0  0  0  0  0  0  0  0  0  0  0
   -2.3295    0.1348    4.0073 H   0  0  0  0  0  0  0  0  0  0  0  0
   -5.0517    0.2865    2.5934 H   0  0  0  0  0  0  0  0  0  0  0  0
   -4.4485    1.4448    3.7996 H   0  0  0  0  0  0  0  0  0  0  0  0
   -3.6429    1.3028    2.2257 H   0  0  0  0  0  0  0  0  0  0  0  0
   -4.0747   -0.5095    5.9727 N   0  0  0  0  0  0  0  0  0  0  0  0
   -4.7184   -1.1696    7.1021 C   0  0  0  0  0  0  0  0  0  0  0  0
   -3.6993    0.4266    6.0958 H   0  0  0  0  0  0  0  0  0  0  0  0
   -5.7622   -1.4022    6.8662 H   0  0  0  0  0  0  0  0  0  0  0  0
   -4.1975   -2.1005    7.3502 H   0  0  0  0  0  0  0  0  0  0  0  0
   -4.6994   -0.5192    7.9819 H   0  0  0  0  0  0  0  0  0  0  0  0
  1  2  2  0  0  0  0
  1  3  1  0  0  0  0
  1  7  1  0  0  0  0
  3  4  1  0  0  0  0
  3  5  1  0  0  0  0
  3  6  1  0  0  0  0
  7  8  1  0  0  0  0
  7 12  1  0  0  0  0
  8  9  1  0  0  0  0
  8 11  1  0  0  0  0
  8 13  1  0  0  0  0
  9 10  2  0  0  0  0
  9 17  1  0  0  0  0
 11 14  1  0  0  0  0
 11 15  1  0  0  0  0
 11 16  1  0  0  0  0
 17 18  1  0  0  0  0
 17 21  1  0  0  0  0
 18 19  1  0  0  0  0
 18 22  1  0  0  0  0
 18 23  1  0  0  0  0
 19 20  2  0  0  0  0
 19 24  1  0  0  0  0
 24 25  1  0  0  0  0
 24 29  1  0  0  0  0
 25 26  1  0  0  0  0
 25 28  1  0  0  0  0
 25 30  1  0  0  0  0
 26 27  2  0  0  0  0
 26 34  1  0  0  0  0
 28 31  1  0  0  0  0
 28 32  1  0  0  0  0
 28 33  1  0  0  0  0
 34 35  1  0  0  0  0
 34 36  1  0  0  0  0
 35 37  1  0  0  0  0
 35 38  1  0  0  0  0
 35 39  1  0  0  0  0
M  END
$$$$

  -OEChem-05262216283D

 39 38  0     1  0  0  0  0  0999 V2000
   -2.7829   -2.9357   -3.8399 C   0  0  0  0  0  0  0  0  0  0  0  0
   -1.7447   -3.2328   -3.2676 O   0  0  0  0  0  0  0  0  0  0  0  0
   -3.5644   -3.9863   -4.6053 C   0  0  0  0  0  0  0  0  0  0  0  0
   -3.6954   -3.6721   -5.6436 H   0  0  0  0  0  0  0  0  0  0  0  0
   -3.0275   -4.9391   -4.5923 H   0  0  0  0  0  0  0  0  0  0  0  0
   -4.5465   -4.1293   -4.1479 H   0  0  0  0  0  0  0  0  0  0  0  0
   -3.2676   -1.6482   -3.7381 N   0  0  0  0  0  0  0  0  0  0  0  0
   -2.5757   -0.5577   -3.0319 C   0  0  2  0  0  0  0  0  0  0  0  0
   -2.7353   -0.6373   -1.4924 C   0  0  0  0  0  0  0  0  0  0  0  0
   -3.3428    0.2281   -0.8787 O   0  0  0  0  0  0  0  0  0  0  0  0
   -3.0903    0.7627   -3.6204 C   0  0  0  0  0  0  0  0  0  0  0  0
   -4.1722   -1.4544   -4.1583 H   0  0  0  0  0  0  0  0  0  0  0  0
   -1.5018   -0.6139   -3.2407 H   0  0  0  0  0  0  0  0  0  0  0  0
   -4.1656    0.8707   -3.4455 H   0  0  0  0  0  0  0  0  0  0  0  0
   -2.5782    1.6104   -3.1534 H   0  0  0  0  0  0  0  0  0  0  0  0
   -2.9038    0.7996   -4.6981 H   0  0  0  0  0  0  0  0  0  0  0  0
   -2.2830   -1.7725   -0.8403 N   0  0  0  0  0  0  0  0  0  0  0  0
   -1.8201   -1.8667    0.5611 C   0  0  0  0  0  0  0  0  0  0  0  0
   -2.1248   -0.7201    1.5437 C   0  0  0  0  0  0  0  0  0  0  0  0
   -1.4387    0.2948    1.5140 O   0  0  0  0  0  0  0  0  0  0  0  0
   -1.8779   -2.4543   -1.4887 H   0  0  0  0  0  0  0  0  0  0  0  0
   -0.7322   -1.9812    0.5492 H   0  0  0  0  0  0  0  0  0  0  0  0
   -2.2369   -2.7822    0.9891 H   0  0  0  0  0  0  0  0  0  0  0  0
   -2.8724   -0.9671    2.6803 N   0  0  0  0  0  0  0  0  0  0  0  0
   -3.0176   -0.0408    3.8099 C   0  0  2  0  0  0  0  0  0  0  0  0
   -3.4035   -0.7823    5.1074 C   0  0  0  0  0  0  0  0  0  0  0  0
   -3.7967   -1.9438    5.0630 O   0  0  0  0  0  0  0  0  0  0  0  0
   -4.0818    1.0032    3.4506 C   0  0  0  0  0  0  0  0  0  0  0  0
   -3.3385   -1.8692    2.7593 H   0  0  0  0  0  0  0  0  0  0  0  0
   -2.0624    0.4629    3.9918 H   0  0  0  0  0  0  0  0  0  0  0  0
   -5.0489    0.5194    3.2804 H   0  0  0  0  0  0  0  0  0  0  0  0
   -4.1937    1.7336    4.2573 H   0  0  0  0  0  0  0  0  0  0  0  0
   -3.7975    1.5394    2.5389 H   0  0  0  0  0  0  0  0  0  0  0  0
   -3.3000   -0.1503    6.3333 N   0  0  0  0  0  0  0  0  0  0  0  0
   -3.6519   -0.7879    7.5963 C   0  0  0  0  0  0  0  0  0  0  0  0
   -2.9702    0.8105    6.3402 H   0  0  0  0  0  0  0  0  0  0  0  0
   -4.7183   -1.0355    7.6157 H   0  0  0  0  0  0  0  0  0  0  0  0
   -3.0743   -1.7077    7.7362 H   0  0  0  0  0  0  0  0  0  0  0  0
   -3.4371   -0.1157    8.4326 H   0  0  0  0  0  0  0  0  0  0  0  0
  1  2  2  0  0  0  0
  1  3  1  0  0  0  0
  1  7  1  0  0  0  0
  3  4  1  0  0  0  0
  3  5  1  0  0  0  0
  3  6  1  0  0  0  0
  7  8  1  0  0  0  0
  7 12  1  0  0  0  0
  8  9  1  0  0  0  0
  8 11  1  0  0  0  0
  8 13  1  0  0  0  0
  9 10  2  0  0  0  0
  9 17  1  0  0  0  0
 11 14  1  0  0  0  0
 11 15  1  0  0  0  0
 11 16  1  0  0  0  0
 17 18  1  0  0  0  0
 17 21  1  0  0  0  0
 18 19  1  0  0  0  0
 18 22  1  0  0  0  0
 18 23  1  0  0  0  0
 19 20  2  0  0  0  0
 19 24  1  0  0  0  0
 24 25  1  0  0  0  0
 24 29  1  0  0  0  0
 25 26  1  0  0  0  0
 25 28  1  0  0  0  0
 25 30  1  0  0  0  0
 26 27  2  0  0  0  0
 26 34  1  0  0  0  0
 28 31  1  0  0  0  0
 28 32  1  0  0  0  0
 28 33  1  0  0  0  0
 34 35  1  0  0  0  0
 34 36  1  0  0  0  0
 35 37  1  0  0  0  0
 35 38  1  0  0  0  0
 35 39  1  0  0  0  0
M  END
$$$$

  -OEChem-05262216283D

 39 38  0     1  0  0  0  0  0999 V2000
   -2.6360   -2.9826   -3.6978 C   0  0  0  0  0  0  0  0  0  0  0  0
   -1.8334   -3.3927   -2.8716 O   0  0  0  0  0  0  0  0  0  0  0  0
   -3.3473   -3.9500   -4.6246 C   0  0  0  0  0  0  0  0  0  0  0  0
   -3.1728   -3.6673   -5.6657 H   0  0  0  0  0  0  0  0  0  0  0  0
   -2.9731   -4.9657   -4.4685 H   0  0  0  0  0  0  0  0  0  0  0  0
   -4.4219   -3.9361   -4.4256 H   0  0  0  0  0  0  0  0  0  0  0  0
   -2.9375   -1.6373   -3.7392 N   0  0  0  0  0  0  0  0  0  0  0  0
   -2.3342   -0.6324   -2.8503 C   0  0  2  0  0  0  0  0  0  0  0  0
   -2.9362   -0.6588   -1.4236 C   0  0  0  0  0  0  0  0  0  0  0  0
   -3.6872    0.2277   -1.0407 O   0  0  0  0  0  0  0  0  0  0  0  0
   -2.4799    0.7321   -3.5362 C   0  0  0  0  0  0  0  0  0  0  0  0
   -3.6882   -1.3449   -4.3587 H   0  0  0  0  0  0  0  0  0  0  0  0
   -1.2624   -0.8334   -2.7459 H   0  0  0  0  0  0  0  0  0  0  0  0
   -3.5357    0.9819   -3.6834 H   0  0  0  0  0  0  0  0  0  0  0  0
   -2.0230    1.5143   -2.9211 H   0  0  0  0  0  0  0  0  0  0  0  0
   -1.9815    0.7244   -4.5105 H   0  0  0  0  0  0  0  0  0  0  0  0
   -2.7694   -1.7941   -0.6488 N   0  0  0  0  0  0  0  0  0  0  0  0
   -2.5555   -1.8137    0.8150 C   0  0  0  0  0  0  0  0  0  0  0  0
   -2.8386   -0.5471    1.6474 C   0  0  0  0  0  0  0  0  0  0  0  0
   -2.1405    0.4463    1.4817 O   0  0  0  0  0  0  0  0  0  0  0  0
   -2.2845   -2.5333   -1.1663 H   0  0  0  0  0  0  0  0  0  0  0  0
   -1.5109   -2.0778    1.0024 H   0  0  0  0  0  0  0  0  0  0  0  0
   -3.1710   -2.6179    1.2263 H   0  0  0  0  0  0  0  0  0  0  0  0
   -3.5413   -0.6595    2.8348 N   0  0  0  0  0  0  0  0  0  0  0  0
   -3.5195    0.3328    3.9191 C   0  0  2  0  0  0  0  0  0  0  0  0
   -2.9231   -0.2540    5.2143 C   0  0  0  0  0  0  0  0  0  0  0  0
   -3.0184   -1.4546    5.4476 O   0  0  0  0  0  0  0  0  0  0  0  0
   -4.9594    0.7947    4.1540 C   0  0  0  0  0  0  0  0  0  0  0  0
   -3.8619   -1.5922    3.0839 H   0  0  0  0  0  0  0  0  0  0  0  0
   -2.9173    1.2034    3.6401 H   0  0  0  0  0  0  0  0  0  0  0  0
   -5.5886   -0.0478    4.4593 H   0  0  0  0  0  0  0  0  0  0  0  0
   -4.9935    1.5575    4.9379 H   0  0  0  0  0  0  0  0  0  0  0  0
   -5.3723    1.2241    3.2355 H   0  0  0  0  0  0  0  0  0  0  0  0
   -2.3130    0.5725    6.1396 N   0  0  0  0  0  0  0  0  0  0  0  0
   -1.7215    0.0862    7.3800 C   0  0  0  0  0  0  0  0  0  0  0  0
   -2.1963    1.5499    5.8880 H   0  0  0  0  0  0  0  0  0  0  0  0
   -2.4771   -0.4140    7.9950 H   0  0  0  0  0  0  0  0  0  0  0  0
   -0.9148   -0.6230    7.1674 H   0  0  0  0  0  0  0  0  0  0  0  0
   -1.3071    0.9206    7.9540 H   0  0  0  0  0  0  0  0  0  0  0  0
  1  2  2  0  0  0  0
  1  3  1  0  0  0  0
  1  7  1  0  0  0  0
  3  4  1  0  0  0  0
  3  5  1  0  0  0  0
  3  6  1  0  0  0  0
  7  8  1  0  0  0  0
  7 12  1  0  0  0  0
  8  9  1  0  0  0  0
  8 11  1  0  0  0  0
  8 13  1  0  0  0  0
  9 10  2  0  0  0  0
  9 17  1  0  0  0  0
 11 14  1  0  0  0  0
 11 15  1  0  0  0  0
 11 16  1  0  0  0  0
 17 18  1  0  0  0  0
 17 21  1  0  0  0  0
 18 19  1  0  0  0  0
 18 22  1  0  0  0  0
 18 23  1  0  0  0  0
 19 20  2  0  0  0  0
 19 24  1  0  0  0  0
 24 25  1  0  0  0  0
 24 29  1  0  0  0  0
 25 26  1  0  0  0  0
 25 28  1  0  0  0  0
 25 30  1  0  0  0  0
 26 27  2  0  0  0  0
 26 34  1  0  0  0  0
 28 31  1  0  0  0  0
 28 32  1  0  0  0  0
 28 33  1  0  0  0  0
 34 35  1  0  0  0  0
 34 36  1  0  0  0  0
 35 37  1  0  0  0  0
 35 38  1  0  0  0  0
 35 39  1  0  0  0  0
M  END
$$$$

  -OEChem-05262216283D

 39 38  0     1  0  0  0  0  0999 V2000
   -3.4434   -2.9155   -2.8183 C   0  0  0  0  0  0  0  0  0  0  0  0
   -2.4668   -3.4708   -2.3363 O   0  0  0  0  0  0  0  0  0  0  0  0
   -4.7721   -3.6413   -2.9081 C   0  0  0  0  0  0  0  0  0  0  0  0
   -5.0640   -3.7550   -3.9550 H   0  0  0  0  0  0  0  0  0  0  0  0
   -4.6908   -4.6334   -2.4552 H   0  0  0  0  0  0  0  0  0  0  0  0
   -5.5450   -3.0766   -2.3809 H   0  0  0  0  0  0  0  0  0  0  0  0
   -3.3396   -1.6060   -3.2386 N   0  0  0  0  0  0  0  0  0  0  0  0
   -2.0981   -0.8174   -3.1877 C   0  0  2  0  0  0  0  0  0  0  0  0
   -1.7740   -0.3098   -1.7596 C   0  0  0  0  0  0  0  0  0  0  0  0
   -1.7347    0.8859   -1.5324 O   0  0  0  0  0  0  0  0  0  0  0  0
   -2.2367    0.3136   -4.2157 C   0  0  0  0  0  0  0  0  0  0  0  0
   -4.1919   -1.1434   -3.5424 H   0  0  0  0  0  0  0  0  0  0  0  0
   -1.2558   -1.4431   -3.5020 H   0  0  0  0  0  0  0  0  0  0  0  0
   -3.0680    0.9758   -3.9525 H   0  0  0  0  0  0  0  0  0  0  0  0
   -1.3186    0.9090   -4.2481 H   0  0  0  0  0  0  0  0  0  0  0  0
   -2.4161   -0.0968   -5.2139 H   0  0  0  0  0  0  0  0  0  0  0  0
   -1.4350   -1.2602   -0.8098 N   0  0  0  0  0  0  0  0  0  0  0  0
   -1.4045   -1.1831    0.6706 C   0  0  0  0  0  0  0  0  0  0  0  0
   -2.0803   -0.0692    1.5085 C   0  0  0  0  0  0  0  0  0  0  0  0
   -2.1280    1.1120    1.2099 O   0  0  0  0  0  0  0  0  0  0  0  0
   -1.5115   -2.2083   -1.1900 H   0  0  0  0  0  0  0  0  0  0  0  0
   -0.3508   -1.1668    0.9631 H   0  0  0  0  0  0  0  0  0  0  0  0
   -1.8243   -2.1260    1.0309 H   0  0  0  0  0  0  0  0  0  0  0  0
   -2.5280   -0.4048    2.7747 N   0  0  0  0  0  0  0  0  0  0  0  0
   -2.9869    0.5585    3.7854 C   0  0  2  0  0  0  0  0  0  0  0  0
   -2.7035    0.0538    5.2155 C   0  0  0  0  0  0  0  0  0  0  0  0
   -2.3840   -1.1158    5.4044 O   0  0  0  0  0  0  0  0  0  0  0  0
   -4.4862    0.7995    3.5830 C   0  0  0  0  0  0  0  0  0  0  0  0
   -2.3381   -1.3494    3.1069 H   0  0  0  0  0  0  0  0  0  0  0  0
   -2.4509    1.5060    3.6647 H   0  0  0  0  0  0  0  0  0  0  0  0
   -5.0446   -0.1341    3.7043 H   0  0  0  0  0  0  0  0  0  0  0  0
   -4.8597    1.5272    4.3094 H   0  0  0  0  0  0  0  0  0  0  0  0
   -4.6741    1.1904    2.5778 H   0  0  0  0  0  0  0  0  0  0  0  0
   -2.7903    0.9178    6.2919 N   0  0  0  0  0  0  0  0  0  0  0  0
   -2.4819    0.5259    7.6621 C   0  0  0  0  0  0  0  0  0  0  0  0
   -3.0139    1.8897    6.0960 H   0  0  0  0  0  0  0  0  0  0  0  0
   -3.1065   -0.3193    7.9701 H   0  0  0  0  0  0  0  0  0  0  0  0
   -1.4291    0.2371    7.7501 H   0  0  0  0  0  0  0  0  0  0  0  0
   -2.6702    1.3597    8.3455 H   0  0  0  0  0  0  0  0  0  0  0  0
  1  2  2  0  0  0  0
  1  3  1  0  0  0  0
  1  7  1  0  0  0  0
  3  4  1  0  0  0  0
  3  5  1  0  0  0  0
  3  6  1  0  0  0  0
  7  8  1  0  0  0  0
  7 12  1  0  0  0  0
  8  9  1  0  0  0  0
  8 11  1  0  0  0  0
  8 13  1  0  0  0  0
  9 10  2  0  0  0  0
  9 17  1  0  0  0  0
 11 14  1  0  0  0  0
 11 15  1  0  0  0  0
 11 16  1  0  0  0  0
 17 18  1  0  0  0  0
 17 21  1  0  0  0  0
 18 19  1  0  0  0  0
 18 22  1  0  0  0  0
 18 23  1  0  0  0  0
 19 20  2  0  0  0  0
 19 24  1  0  0  0  0
 24 25  1  0  0  0  0
 24 29  1  0  0  0  0
 25 26  1  0  0  0  0
 25 28  1  0  0  0  0
 25 30  1  0  0  0  0
 26 27  2  0  0  0  0
 26 34  1  0  0  0  0
 28 31  1  0  0  0  0
 28 32  1  0  0  0  0
 28 33  1  0  0  0  0
 34 35  1  0  0  0  0
 34 36  1  0  0  0  0
 35 37  1  0  0  0  0
 35 38  1  0  0  0  0
 35 39  1  0  0  0  0
M  END
$$$$

  -OEChem-05262216283D

 39 38  0     1  0  0  0  0  0999 V2000
   -3.4891   -2.3511   -1.7582 C   0  0  0  0  0  0  0  0  0  0  0  0
   -2.6072   -3.1928   -1.8676 O   0  0  0  0  0  0  0  0  0  0  0  0
   -4.7002   -2.6231   -0.8881 C   0  0  0  0  0  0  0  0  0  0  0  0
   -5.6141   -2.4926   -1.4720 H   0  0  0  0  0  0  0  0  0  0  0  0
   -4.6700   -3.6466   -0.5048 H   0  0  0  0  0  0  0  0  0  0  0  0
   -4.7131   -1.9296   -0.0438 H   0  0  0  0  0  0  0  0  0  0  0  0
   -3.3279   -1.1096   -2.3361 N   0  0  0  0  0  0  0  0  0  0  0  0
   -2.0613   -0.6790   -2.9434 C   0  0  2  0  0  0  0  0  0  0  0  0
   -1.0402   -0.3114   -1.8437 C   0  0  0  0  0  0  0  0  0  0  0  0
   -0.6398    0.8334   -1.6734 O   0  0  0  0  0  0  0  0  0  0  0  0
   -2.3718    0.4882   -3.8874 C   0  0  0  0  0  0  0  0  0  0  0  0
   -3.9126   -0.3746   -1.9417 H   0  0  0  0  0  0  0  0  0  0  0  0
   -1.6332   -1.4899   -3.5420 H   0  0  0  0  0  0  0  0  0  0  0  0
   -2.8038    1.3273   -3.3324 H   0  0  0  0  0  0  0  0  0  0  0  0
   -1.4557    0.8329   -4.3776 H   0  0  0  0  0  0  0  0  0  0  0  0
   -3.0816    0.1756   -4.6592 H   0  0  0  0  0  0  0  0  0  0  0  0
   -0.5560   -1.2912   -0.9983 N   0  0  0  0  0  0  0  0  0  0  0  0
   -0.7817   -1.2339    0.4625 C   0  0  0  0  0  0  0  0  0  0  0  0
   -1.8499   -0.2972    1.0831 C   0  0  0  0  0  0  0  0  0  0  0  0
   -2.6887    0.3015    0.4174 O   0  0  0  0  0  0  0  0  0  0  0  0
   -0.8106   -2.2072   -1.3755 H   0  0  0  0  0  0  0  0  0  0  0  0
    0.1714   -0.9580    0.9223 H   0  0  0  0  0  0  0  0  0  0  0  0
   -1.0225   -2.2479    0.7945 H   0  0  0  0  0  0  0  0  0  0  0  0
   -2.2014   -0.5358    2.3992 N   0  0  0  0  0  0  0  0  0  0  0  0
   -3.1908    0.2540    3.1465 C   0  0  2  0  0  0  0  0  0  0  0  0
   -2.6710    0.6023    4.5566 C   0  0  0  0  0  0  0  0  0  0  0  0
   -1.7294   -0.0231    5.0327 O   0  0  0  0  0  0  0  0  0  0  0  0
   -4.4856   -0.5572    3.2323 C   0  0  0  0  0  0  0  0  0  0  0  0
   -1.5040   -1.0122    2.9715 H   0  0  0  0  0  0  0  0  0  0  0  0
   -3.3902    1.1998    2.6311 H   0  0  0  0  0  0  0  0  0  0  0  0
   -4.3092   -1.5071    3.7474 H   0  0  0  0  0  0  0  0  0  0  0  0
   -5.2522   -0.0007    3.7795 H   0  0  0  0  0  0  0  0  0  0  0  0
   -4.8640   -0.7695    2.2279 H   0  0  0  0  0  0  0  0  0  0  0  0
   -3.2467    1.6266    5.2854 N   0  0  0  0  0  0  0  0  0  0  0  0
   -2.7504    2.0568    6.5871 C   0  0  0  0  0  0  0  0  0  0  0  0
   -3.9829    2.1654    4.8383 H   0  0  0  0  0  0  0  0  0  0  0  0
   -2.7271    1.2152    7.2874 H   0  0  0  0  0  0  0  0  0  0  0  0
   -1.7391    2.4660    6.4945 H   0  0  0  0  0  0  0  0  0  0  0  0
   -3.4013    2.8318    7.0029 H   0  0  0  0  0  0  0  0  0  0  0  0
  1  2  2  0  0  0  0
  1  3  1  0  0  0  0
  1  7  1  0  0  0  0
  3  4  1  0  0  0  0
  3  5  1  0  0  0  0
  3  6  1  0  0  0  0
  7  8  1  0  0  0  0
  7 12  1  0  0  0  0
  8  9  1  0  0  0  0
  8 11  1  0  0  0  0
  8 13  1  0  0  0  0
  9 10  2  0  0  0  0
  9 17  1  0  0  0  0
 11 14  1  0  0  0  0
 11 15  1  0  0  0  0
 11 16  1  0  0  0  0
 17 18  1  0  0  0  0
 17 21  1  0  0  0  0
 18 19  1  0  0  0  0
 18 22  1  0  0  0  0
 18 23  1  0  0  0  0
 19 20  2  0  0  0  0
 19 24  1  0  0  0  0
 24 25  1  0  0  0  0
 24 29  1  0  0  0  0
 25 26  1  0  0  0  0
 25 28  1  0  0  0  0
 25 30  1  0  0  0  0
 26 27  2  0  0  0  0
 26 34  1  0  0  0  0
 28 31  1  0  0  0  0
 28 32  1  0  0  0  0
 28 33  1  0  0  0  0
 34 35  1  0  0  0  0
 34 36  1  0  0  0  0
 35 37  1  0  0  0  0
 35 38  1  0  0  0  0
 35 39  1  0  0  0  0
M  END
$$$$

  -OEChem-05262216283D

 39 38  0     1  0  0  0  0  0999 V2000
   -3.4785   -2.5436   -1.8746 C   0  0  0  0  0  0  0  0  0  0  0  0
   -2.5576   -3.3158   -2.1070 O   0  0  0  0  0  0  0  0  0  0  0  0
   -4.6623   -2.9971   -1.0426 C   0  0  0  0  0  0  0  0  0  0  0  0
   -4.6519   -2.4884   -0.0751 H   0  0  0  0  0  0  0  0  0  0  0  0
   -5.5950   -2.7606   -1.5600 H   0  0  0  0  0  0  0  0  0  0  0  0
   -4.6163   -4.0768   -0.8766 H   0  0  0  0  0  0  0  0  0  0  0  0
   -3.3867   -1.2282   -2.2794 N   0  0  0  0  0  0  0  0  0  0  0  0
   -2.1530   -0.6555   -2.8389 C   0  0  2  0  0  0  0  0  0  0  0  0
   -1.1288   -0.3826   -1.7141 C   0  0  0  0  0  0  0  0  0  0  0  0
   -0.8010    0.7528   -1.3880 O   0  0  0  0  0  0  0  0  0  0  0  0
   -2.5377    0.6079   -3.6176 C   0  0  0  0  0  0  0  0  0  0  0  0
   -3.9942   -0.5872   -1.7719 H   0  0  0  0  0  0  0  0  0  0  0  0
   -1.6960   -1.3578   -3.5441 H   0  0  0  0  0  0  0  0  0  0  0  0
   -3.0003    1.3447   -2.9530 H   0  0  0  0  0  0  0  0  0  0  0  0
   -1.6489    1.0600   -4.0689 H   0  0  0  0  0  0  0  0  0  0  0  0
   -3.2452    0.3634   -4.4155 H   0  0  0  0  0  0  0  0  0  0  0  0
   -0.6244   -1.4427   -0.9828 N   0  0  0  0  0  0  0  0  0  0  0  0
   -0.6274   -1.4048    0.4937 C   0  0  0  0  0  0  0  0  0  0  0  0
   -1.7511   -0.6190    1.2121 C   0  0  0  0  0  0  0  0  0  0  0  0
   -2.8184   -0.3636    0.6582 O   0  0  0  0  0  0  0  0  0  0  0  0
   -0.9554   -2.3308   -1.3707 H   0  0  0  0  0  0  0  0  0  0  0  0
    0.3248   -0.9730    0.8155 H   0  0  0  0  0  0  0  0  0  0  0  0
   -0.6618   -2.4332    0.8635 H   0  0  0  0  0  0  0  0  0  0  0  0
   -1.7447   -0.5833    2.5937 N   0  0  0  0  0  0  0  0  0  0  0  0
   -2.7551    0.1086    3.4054 C   0  0  2  0  0  0  0  0  0  0  0  0
   -2.1163    0.7854    4.6358 C   0  0  0  0  0  0  0  0  0  0  0  0
   -0.9855    0.4703    4.9910 O   0  0  0  0  0  0  0  0  0  0  0  0
   -3.8116   -0.9121    3.8390 C   0  0  0  0  0  0  0  0  0  0  0  0
   -0.8504   -0.7567    3.0530 H   0  0  0  0  0  0  0  0  0  0  0  0
   -3.2331    0.8959    2.8127 H   0  0  0  0  0  0  0  0  0  0  0  0
   -3.3587   -1.6909    4.4611 H   0  0  0  0  0  0  0  0  0  0  0  0
   -4.6043   -0.4236    4.4134 H   0  0  0  0  0  0  0  0  0  0  0  0
   -4.2634   -1.3858    2.9617 H   0  0  0  0  0  0  0  0  0  0  0  0
   -2.8055    1.7549    5.3407 N   0  0  0  0  0  0  0  0  0  0  0  0
   -2.2380    2.4703    6.4772 C   0  0  0  0  0  0  0  0  0  0  0  0
   -3.7170    2.0338    4.9896 H   0  0  0  0  0  0  0  0  0  0  0  0
   -1.3800    3.0721    6.1597 H   0  0  0  0  0  0  0  0  0  0  0  0
   -2.9861    3.1369    6.9172 H   0  0  0  0  0  0  0  0  0  0  0  0
   -1.9086    1.7667    7.2491 H   0  0  0  0  0  0  0  0  0  0  0  0
  1  2  2  0  0  0  0
  1  3  1  0  0  0  0
  1  7  1  0  0  0  0
  3  4  1  0  0  0  0
  3  5  1  0  0  0  0
  3  6  1  0  0  0  0
  7  8  1  0  0  0  0
  7 12  1  0  0  0  0
  8  9  1  0  0  0  0
  8 11  1  0  0  0  0
  8 13  1  0  0  0  0
  9 10  2  0  0  0  0
  9 17  1  0  0  0  0
 11 14  1  0  0  0  0
 11 15  1  0  0  0  0
 11 16  1  0  0  0  0
 17 18  1  0  0  0  0
 17 21  1  0  0  0  0
 18 19  1  0  0  0  0
 18 22  1  0  0  0  0
 18 23  1  0  0  0  0
 19 20  2  0  0  0  0
 19 24  1  0  0  0  0
 24 25  1  0  0  0  0
 24 29  1  0  0  0  0
 25 26  1  0  0  0  0
 25 28  1  0  0  0  0
 25 30  1  0  0  0  0
 26 27  2  0  0  0  0
 26 34  1  0  0  0  0
 28 31  1  0  0  0  0
 28 32  1  0  0  0  0
 28 33  1  0  0  0  0
 34 35  1  0  0  0  0
 34 36  1  0  0  0  0
 35 37  1  0  0  0  0
 35 38  1  0  0  0  0
 35 39  1  0  0  0  0
M  END
$$$$

  -OEChem-05262216283D

 39 38  0     1  0  0  0  0  0999 V2000
   -3.5455   -2.5312   -1.9523 C   0  0  0  0  0  0  0  0  0  0  0  0
   -2.6376   -3.3338   -2.1249 O   0  0  0  0  0  0  0  0  0  0  0  0
   -4.8057   -2.9482   -1.2188 C   0  0  0  0  0  0  0  0  0  0  0  0
   -4.9109   -2.3652   -0.3000 H   0  0  0  0  0  0  0  0  0  0  0  0
   -5.6799   -2.7775   -1.8516 H   0  0  0  0  0  0  0  0  0  0  0  0
   -4.7589   -4.0094   -0.9593 H   0  0  0  0  0  0  0  0  0  0  0  0
   -3.3778   -1.2172   -2.3365 N   0  0  0  0  0  0  0  0  0  0  0  0
   -2.0878   -0.6817   -2.7976 C   0  0  2  0  0  0  0  0  0  0  0  0
   -1.1388   -0.4535   -1.5991 C   0  0  0  0  0  0  0  0  0  0  0  0
   -0.8002    0.6684   -1.2385 O   0  0  0  0  0  0  0  0  0  0  0  0
   -2.3769    0.5999   -3.5876 C   0  0  0  0  0  0  0  0  0  0  0  0
   -4.0069   -0.5598   -1.8796 H   0  0  0  0  0  0  0  0  0  0  0  0
   -1.6038   -1.3922   -3.4760 H   0  0  0  0  0  0  0  0  0  0  0  0
   -2.8717    1.3413   -2.9520 H   0  0  0  0  0  0  0  0  0  0  0  0
   -1.4448    1.0338   -3.9628 H   0  0  0  0  0  0  0  0  0  0  0  0
   -3.0254    0.3818   -4.4415 H   0  0  0  0  0  0  0  0  0  0  0  0
   -0.7398   -1.5372   -0.8372 N   0  0  0  0  0  0  0  0  0  0  0  0
   -0.8115   -1.4828    0.6366 C   0  0  0  0  0  0  0  0  0  0  0  0
   -1.9224   -0.6097    1.2642 C   0  0  0  0  0  0  0  0  0  0  0  0
   -3.0048   -0.4589    0.7006 O   0  0  0  0  0  0  0  0  0  0  0  0
   -1.0890   -2.4118   -1.2406 H   0  0  0  0  0  0  0  0  0  0  0  0
    0.1485   -1.1076    1.0034 H   0  0  0  0  0  0  0  0  0  0  0  0
   -0.9350   -2.4988    1.0217 H   0  0  0  0  0  0  0  0  0  0  0  0
   -1.8394   -0.2752    2.6020 N   0  0  0  0  0  0  0  0  0  0  0  0
   -2.8254    0.5493    3.3118 C   0  0  2  0  0  0  0  0  0  0  0  0
   -2.1597    1.3740    4.4340 C   0  0  0  0  0  0  0  0  0  0  0  0
   -1.0230    1.1002    4.8049 O   0  0  0  0  0  0  0  0  0  0  0  0
   -3.9056   -0.3702    3.8904 C   0  0  0  0  0  0  0  0  0  0  0  0
   -0.9223   -0.3518    3.0426 H   0  0  0  0  0  0  0  0  0  0  0  0
   -3.2844    1.2567    2.6126 H   0  0  0  0  0  0  0  0  0  0  0  0
   -3.4621   -1.0862    4.5900 H   0  0  0  0  0  0  0  0  0  0  0  0
   -4.6639    0.2134    4.4207 H   0  0  0  0  0  0  0  0  0  0  0  0
   -4.3995   -0.9272    3.0880 H   0  0  0  0  0  0  0  0  0  0  0  0
   -2.8310    2.4273    5.0278 N   0  0  0  0  0  0  0  0  0  0  0  0
   -2.2418    3.2663    6.0649 C   0  0  0  0  0  0  0  0  0  0  0  0
   -3.7517    2.6624    4.6687 H   0  0  0  0  0  0  0  0  0  0  0  0
   -1.3902    3.8270    5.6651 H   0  0  0  0  0  0  0  0  0  0  0  0
   -2.9818    3.9796    6.4409 H   0  0  0  0  0  0  0  0  0  0  0  0
   -1.8967    2.6541    6.9052 H   0  0  0  0  0  0  0  0  0  0  0  0
  1  2  2  0  0  0  0
  1  3  1  0  0  0  0
  1  7  1  0  0  0  0
  3  4  1  0  0  0  0
  3  5  1  0  0  0  0
  3  6  1  0  0  0  0
  7  8  1  0  0  0  0
  7 12  1  0  0  0  0
  8  9  1  0  0  0  0
  8 11  1  0  0  0  0
  8 13  1  0  0  0  0
  9 10  2  0  0  0  0
  9 17  1  0  0  0  0
 11 14  1  0  0  0  0
 11 15  1  0  0  0  0
 11 16  1  0  0  0  0
 17 18  1  0  0  0  0
 17 21  1  0  0  0  0
 18 19  1  0  0  0  0
 18 22  1  0  0  0  0
 18 23  1  0  0  0  0
 19 20  2  0  0  0  0
 19 24  1  0  0  0  0
 24 25  1  0  0  0  0
 24 29  1  0  0  0  0
 25 26  1  0  0  0  0
 25 28  1  0  0  0  0
 25 30  1  0  0  0  0
 26 27  2  0  0  0  0
 26 34  1  0  0  0  0
 28 31  1  0  0  0  0
 28 32  1  0  0  0  0
 28 33  1  0  0  0  0
 34 35  1  0  0  0  0
 34 36  1  0  0  0  0
 35 37  1  0  0  0  0
 35 38  1  0  0  0  0
 35 39  1  0  0  0  0
M  END
$$$$

  -OEChem-05262216283D

 39 38  0     1  0  0  0  0  0999 V2000
   -3.5315   -2.4680   -2.0741 C   0  0  0  0  0  0  0  0  0  0  0  0
   -2.5805   -3.2161   -2.2584 O   0  0  0  0  0  0  0  0  0  0  0  0
   -4.8135   -2.9990   -1.4616 C   0  0  0  0  0  0  0  0  0  0  0  0
   -5.6574   -2.7958   -2.1251 H   0  0  0  0  0  0  0  0  0  0  0  0
   -4.7397   -4.0788   -1.3058 H   0  0  0  0  0  0  0  0  0  0  0  0
   -4.9931   -2.5155   -0.4978 H   0  0  0  0  0  0  0  0  0  0  0  0
   -3.4015   -1.1207   -2.3424 N   0  0  0  0  0  0  0  0  0  0  0  0
   -2.1152   -0.4977   -2.6922 C   0  0  2  0  0  0  0  0  0  0  0  0
   -1.2327   -0.3312   -1.4339 C   0  0  0  0  0  0  0  0  0  0  0  0
   -0.9680    0.7704   -0.9648 O   0  0  0  0  0  0  0  0  0  0  0  0
   -2.4185    0.8335   -3.3904 C   0  0  0  0  0  0  0  0  0  0  0  0
   -4.0923   -0.5266   -1.8888 H   0  0  0  0  0  0  0  0  0  0  0  0
   -1.5705   -1.1316   -3.4002 H   0  0  0  0  0  0  0  0  0  0  0  0
   -2.9652    1.5053   -2.7205 H   0  0  0  0  0  0  0  0  0  0  0  0
   -1.4873    1.3256   -3.6883 H   0  0  0  0  0  0  0  0  0  0  0  0
   -3.0226    0.6642   -4.2868 H   0  0  0  0  0  0  0  0  0  0  0  0
   -0.8316   -1.4587   -0.7395 N   0  0  0  0  0  0  0  0  0  0  0  0
   -0.9542   -1.5134    0.7298 C   0  0  0  0  0  0  0  0  0  0  0  0
   -2.1138   -0.7052    1.3517 C   0  0  0  0  0  0  0  0  0  0  0  0
   -3.2204   -0.6944    0.8158 O   0  0  0  0  0  0  0  0  0  0  0  0
   -1.1366   -2.3107   -1.2198 H   0  0  0  0  0  0  0  0  0  0  0  0
   -0.0189   -1.1446    1.1601 H   0  0  0  0  0  0  0  0  0  0  0  0
   -1.0708   -2.5553    1.0403 H   0  0  0  0  0  0  0  0  0  0  0  0
   -1.9862   -0.1759    2.6209 N   0  0  0  0  0  0  0  0  0  0  0  0
   -2.9869    0.6975    3.2457 C   0  0  2  0  0  0  0  0  0  0  0  0
   -2.3154    1.7922    4.1003 C   0  0  0  0  0  0  0  0  0  0  0  0
   -1.1626    1.6442    4.4916 O   0  0  0  0  0  0  0  0  0  0  0  0
   -3.9138   -0.1658    4.1058 C   0  0  0  0  0  0  0  0  0  0  0  0
   -1.0403   -0.1086    2.9976 H   0  0  0  0  0  0  0  0  0  0  0  0
   -3.5746    1.2022    2.4714 H   0  0  0  0  0  0  0  0  0  0  0  0
   -3.3423   -0.6794    4.8855 H   0  0  0  0  0  0  0  0  0  0  0  0
   -4.6803    0.4512    4.5841 H   0  0  0  0  0  0  0  0  0  0  0  0
   -4.4128   -0.9180    3.4868 H   0  0  0  0  0  0  0  0  0  0  0  0
   -2.9999    2.9493    4.4238 N   0  0  0  0  0  0  0  0  0  0  0  0
   -2.3976    4.0509    5.1650 C   0  0  0  0  0  0  0  0  0  0  0  0
   -3.9281    3.0718    4.0300 H   0  0  0  0  0  0  0  0  0  0  0  0
   -1.5696    4.4866    4.5960 H   0  0  0  0  0  0  0  0  0  0  0  0
   -3.1399    4.8331    5.3514 H   0  0  0  0  0  0  0  0  0  0  0  0
   -2.0162    3.7016    6.1304 H   0  0  0  0  0  0  0  0  0  0  0  0
  1  2  2  0  0  0  0
  1  3  1  0  0  0  0
  1  7  1  0  0  0  0
  3  4  1  0  0  0  0
  3  5  1  0  0  0  0
  3  6  1  0  0  0  0
  7  8  1  0  0  0  0
  7 12  1  0  0  0  0
  8  9  1  0  0  0  0
  8 11  1  0  0  0  0
  8 13  1  0  0  0  0
  9 10  2  0  0  0  0
  9 17  1  0  0  0  0
 11 14  1  0  0  0  0
 11 15  1  0  0  0  0
 11 16  1  0  0  0  0
 17 18  1  0  0  0  0
 17 21  1  0  0  0  0
 18 19  1  0  0  0  0
 18 22  1  0  0  0  0
 18 23  1  0  0  0  0
 19 20  2  0  0  0  0
 19 24  1  0  0  0  0
 24 25  1  0  0  0  0
 24 29  1  0  0  0  0
 25 26  1  0  0  0  0
 25 28  1  0  0  0  0
 25 30  1  0  0  0  0
 26 27  2  0  0  0  0
 26 34  1  0  0  0  0
 28 31  1  0  0  0  0
 28 32  1  0  0  0  0
 28 33  1  0  0  0  0
 34 35  1  0  0  0  0
 34 36  1  0  0  0  0
 35 37  1  0  0  0  0
 35 38  1  0  0  0  0
 35 39  1  0  0  0  0
M  END
$$$$

  -OEChem-05262216283D

 39 38  0     1  0  0  0  0  0999 V2000
   -3.4842   -2.5119   -2.1105 C   0  0  0  0  0  0  0  0  0  0  0  0
   -2.4827   -3.1983   -2.2650 O   0  0  0  0  0  0  0  0  0  0  0  0
   -4.7594   -3.1268   -1.5670 C   0  0  0  0  0  0  0  0  0  0  0  0
   -5.5743   -2.9880   -2.2813 H   0  0  0  0  0  0  0  0  0  0  0  0
   -4.6196   -4.1974   -1.3943 H   0  0  0  0  0  0  0  0  0  0  0  0
   -5.0283   -2.6497   -0.6208 H   0  0  0  0  0  0  0  0  0  0  0  0
   -3.4251   -1.1558   -2.3582 N   0  0  0  0  0  0  0  0  0  0  0  0
   -2.1678   -0.4503   -2.6510 C   0  0  2  0  0  0  0  0  0  0  0  0
   -1.3452   -0.2463   -1.3587 C   0  0  0  0  0  0  0  0  0  0  0  0
   -1.1879    0.8617   -0.8576 O   0  0  0  0  0  0  0  0  0  0  0  0
   -2.5256    0.8664   -3.3493 C   0  0  0  0  0  0  0  0  0  0  0  0
   -4.1796   -0.6101   -1.9481 H   0  0  0  0  0  0  0  0  0  0  0  0
   -1.5578   -1.0414   -3.3424 H   0  0  0  0  0  0  0  0  0  0  0  0
   -3.1419    1.4946   -2.6982 H   0  0  0  0  0  0  0  0  0  0  0  0
   -1.6158    1.4192   -3.6030 H   0  0  0  0  0  0  0  0  0  0  0  0
   -3.0796    0.6693   -4.2719 H   0  0  0  0  0  0  0  0  0  0  0  0
   -0.8886   -1.3597   -0.6757 N   0  0  0  0  0  0  0  0  0  0  0  0
   -1.0213   -1.4501    0.7904 C   0  0  0  0  0  0  0  0  0  0  0  0
   -2.2348   -0.7152    1.3954 C   0  0  0  0  0  0  0  0  0  0  0  0
   -3.3562   -0.8955    0.9253 O   0  0  0  0  0  0  0  0  0  0  0  0
   -1.1272   -2.2215   -1.1759 H   0  0  0  0  0  0  0  0  0  0  0  0
   -0.1131   -1.0414    1.2424 H   0  0  0  0  0  0  0  0  0  0  0  0
   -1.0887   -2.5016    1.0827 H   0  0  0  0  0  0  0  0  0  0  0  0
   -2.0889    0.0667    2.5240 N   0  0  0  0  0  0  0  0  0  0  0  0
   -3.1409    0.9460    3.0460 C   0  0  2  0  0  0  0  0  0  0  0  0
   -2.5427    2.2243    3.6691 C   0  0  0  0  0  0  0  0  0  0  0  0
   -1.3600    2.2567    3.9922 O   0  0  0  0  0  0  0  0  0  0  0  0
   -3.9530    0.1694    4.0861 C   0  0  0  0  0  0  0  0  0  0  0  0
   -1.1344    0.3122    2.7887 H   0  0  0  0  0  0  0  0  0  0  0  0
   -3.8000    1.2582    2.2291 H   0  0  0  0  0  0  0  0  0  0  0  0
   -3.3124   -0.1362    4.9196 H   0  0  0  0  0  0  0  0  0  0  0  0
   -4.7654    0.7880    4.4786 H   0  0  0  0  0  0  0  0  0  0  0  0
   -4.3891   -0.7274    3.6346 H   0  0  0  0  0  0  0  0  0  0  0  0
   -3.3318    3.3422    3.8672 N   0  0  0  0  0  0  0  0  0  0  0  0
   -2.8171    4.5971    4.4013 C   0  0  0  0  0  0  0  0  0  0  0  0
   -4.2913    3.3046    3.5367 H   0  0  0  0  0  0  0  0  0  0  0  0
   -2.0583    5.0155    3.7317 H   0  0  0  0  0  0  0  0  0  0  0  0
   -3.6273    5.3251    4.5051 H   0  0  0  0  0  0  0  0  0  0  0  0
   -2.3685    4.4385    5.3876 H   0  0  0  0  0  0  0  0  0  0  0  0
  1  2  2  0  0  0  0
  1  3  1  0  0  0  0
  1  7  1  0  0  0  0
  3  4  1  0  0  0  0
  3  5  1  0  0  0  0
  3  6  1  0  0  0  0
  7  8  1  0  0  0  0
  7 12  1  0  0  0  0
  8  9  1  0  0  0  0
  8 11  1  0  0  0  0
  8 13  1  0  0  0  0
  9 10  2  0  0  0  0
  9 17  1  0  0  0  0
 11 14  1  0  0  0  0
 11 15  1  0  0  0  0
 11 16  1  0  0  0  0
 17 18  1  0  0  0  0
 17 21  1  0  0  0  0
 18 19  1  0  0  0  0
 18 22  1  0  0  0  0
 18 23  1  0  0  0  0
 19 20  2  0  0  0  0
 19 24  1  0  0  0  0
 24 25  1  0  0  0  0
 24 29  1  0  0  0  0
 25 26  1  0  0  0  0
 25 28  1  0  0  0  0
 25 30  1  0  0  0  0
 26 27  2  0  0  0  0
 26 34  1  0  0  0  0
 28 31  1  0  0  0  0
 28 32  1  0  0  0  0
 28 33  1  0  0  0  0
 34 35  1  0  0  0  0
 34 36  1  0  0  0  0
 35 37  1  0  0  0  0
 35 38  1  0  0  0  0
 35 39  1  0  0  0  0
M  END
$$$$

  -OEChem-05262216283D

 39 38  0     1  0  0  0  0  0999 V2000
   -3.5036   -2.5956   -2.1015 C   0  0  0  0  0  0  0  0  0  0  0  0
   -2.4537   -3.2000   -2.2748 O   0  0  0  0  0  0  0  0  0  0  0  0
   -4.7128   -3.3068   -1.5262 C   0  0  0  0  0  0  0  0  0  0  0  0
   -5.5739   -3.1741   -2.1855 H   0  0  0  0  0  0  0  0  0  0  0  0
   -4.5091   -4.3762   -1.4237 H   0  0  0  0  0  0  0  0  0  0  0  0
   -4.9497   -2.8971   -0.5405 H   0  0  0  0  0  0  0  0  0  0  0  0
   -3.5577   -1.2408   -2.3576 N   0  0  0  0  0  0  0  0  0  0  0  0
   -2.3672   -0.4388   -2.6810 C   0  0  2  0  0  0  0  0  0  0  0  0
   -1.5362   -0.1620   -1.4076 C   0  0  0  0  0  0  0  0  0  0  0  0
   -1.4729    0.9546   -0.9059 O   0  0  0  0  0  0  0  0  0  0  0  0
   -2.8423    0.8397   -3.3808 C   0  0  0  0  0  0  0  0  0  0  0  0
   -4.3578   -0.7539   -1.9611 H   0  0  0  0  0  0  0  0  0  0  0  0
   -1.7263   -0.9844   -3.3819 H   0  0  0  0  0  0  0  0  0  0  0  0
   -3.4967    1.4206   -2.7230 H   0  0  0  0  0  0  0  0  0  0  0  0
   -1.9845    1.4627   -3.6533 H   0  0  0  0  0  0  0  0  0  0  0  0
   -3.3934    0.5912   -4.2929 H   0  0  0  0  0  0  0  0  0  0  0  0
   -0.9688   -1.2332   -0.7407 N   0  0  0  0  0  0  0  0  0  0  0  0
   -1.0245   -1.3339    0.7292 C   0  0  0  0  0  0  0  0  0  0  0  0
   -2.2611   -0.6898    1.3852 C   0  0  0  0  0  0  0  0  0  0  0  0
   -3.3826   -1.0873    1.0805 O   0  0  0  0  0  0  0  0  0  0  0  0
   -1.1465   -2.1138   -1.2338 H   0  0  0  0  0  0  0  0  0  0  0  0
   -0.1287   -0.8631    1.1435 H   0  0  0  0  0  0  0  0  0  0  0  0
   -1.0036   -2.3881    1.0190 H   0  0  0  0  0  0  0  0  0  0  0  0
   -2.1216    0.3338    2.3013 N   0  0  0  0  0  0  0  0  0  0  0  0
   -3.2373    1.1444    2.8014 C   0  0  2  0  0  0  0  0  0  0  0  0
   -2.7679    2.5585    3.2034 C   0  0  0  0  0  0  0  0  0  0  0  0
   -1.5785    2.7825    3.4007 O   0  0  0  0  0  0  0  0  0  0  0  0
   -3.8676    0.4308    4.0021 C   0  0  0  0  0  0  0  0  0  0  0  0
   -1.1970    0.7606    2.3695 H   0  0  0  0  0  0  0  0  0  0  0  0
   -3.9860    1.2603    2.0108 H   0  0  0  0  0  0  0  0  0  0  0  0
   -3.1287    0.3026    4.7997 H   0  0  0  0  0  0  0  0  0  0  0  0
   -4.7090    1.0093    4.3952 H   0  0  0  0  0  0  0  0  0  0  0  0
   -4.2371   -0.5564    3.7077 H   0  0  0  0  0  0  0  0  0  0  0  0
   -3.6835    3.5845    3.3509 N   0  0  0  0  0  0  0  0  0  0  0  0
   -3.3033    4.9527    3.6826 C   0  0  0  0  0  0  0  0  0  0  0  0
   -4.6548    3.3820    3.1341 H   0  0  0  0  0  0  0  0  0  0  0  0
   -2.6816    5.3806    2.8890 H   0  0  0  0  0  0  0  0  0  0  0  0
   -4.1952    5.5760    3.7987 H   0  0  0  0  0  0  0  0  0  0  0  0
   -2.7410    4.9780    4.6222 H   0  0  0  0  0  0  0  0  0  0  0  0
  1  2  2  0  0  0  0
  1  3  1  0  0  0  0
  1  7  1  0  0  0  0
  3  4  1  0  0  0  0
  3  5  1  0  0  0  0
  3  6  1  0  0  0  0
  7  8  1  0  0  0  0
  7 12  1  0  0  0  0
  8  9  1  0  0  0  0
  8 11  1  0  0  0  0
  8 13  1  0  0  0  0
  9 10  2  0  0  0  0
  9 17  1  0  0  0  0
 11 14  1  0  0  0  0
 11 15  1  0  0  0  0
 11 16  1  0  0  0  0
 17 18  1  0  0  0  0
 17 21  1  0  0  0  0
 18 19  1  0  0  0  0
 18 22  1  0  0  0  0
 18 23  1  0  0  0  0
 19 20  2  0  0  0  0
 19 24  1  0  0  0  0
 24 25  1  0  0  0  0
 24 29  1  0  0  0  0
 25 26  1  0  0  0  0
 25 28  1  0  0  0  0
 25 30  1  0  0  0  0
 26 27  2  0  0  0  0
 26 34  1  0  0  0  0
 28 31  1  0  0  0  0
 28 32  1  0  0  0  0
 28 33  1  0  0  0  0
 34 35  1  0  0  0  0
 34 36  1  0  0  0  0
 35 37  1  0  0  0  0
 35 38  1  0  0  0  0
 35 39  1  0  0  0  0
M  END
$$$$

  -OEChem-05262216283D

 39 38  0     1  0  0  0  0  0999 V2000
   -3.9425   -1.9440   -2.0534 C   0  0  0  0  0  0  0  0  0  0  0  0
   -2.9714   -2.6075   -2.3919 O   0  0  0  0  0  0  0  0  0  0  0  0
   -5.2176   -2.6234   -1.5933 C   0  0  0  0  0  0  0  0  0  0  0  0
   -6.0677   -2.2584   -2.1746 H   0  0  0  0  0  0  0  0  0  0  0  0
   -5.1379   -3.7058   -1.7265 H   0  0  0  0  0  0  0  0  0  0  0  0
   -5.3910   -2.4113   -0.5348 H   0  0  0  0  0  0  0  0  0  0  0  0
   -3.8392   -0.5679   -2.0215 N   0  0  0  0  0  0  0  0  0  0  0  0
   -2.5770    0.1533   -2.2537 C   0  0  2  0  0  0  0  0  0  0  0  0
   -1.6592    0.0634   -1.0127 C   0  0  0  0  0  0  0  0  0  0  0  0
   -1.4376    1.0342   -0.2941 O   0  0  0  0  0  0  0  0  0  0  0  0
   -2.9322    1.5933   -2.6404 C   0  0  0  0  0  0  0  0  0  0  0  0
   -4.5852   -0.0803   -1.5303 H   0  0  0  0  0  0  0  0  0  0  0  0
   -2.0387   -0.2957   -3.0957 H   0  0  0  0  0  0  0  0  0  0  0  0
   -3.5061    2.0763   -1.8441 H   0  0  0  0  0  0  0  0  0  0  0  0
   -2.0224    2.1760   -2.8166 H   0  0  0  0  0  0  0  0  0  0  0  0
   -3.5312    1.6031   -3.5562 H   0  0  0  0  0  0  0  0  0  0  0  0
   -1.2185   -1.1802   -0.5992 N   0  0  0  0  0  0  0  0  0  0  0  0
   -1.2852   -1.5804    0.8180 C   0  0  0  0  0  0  0  0  0  0  0  0
   -2.4415   -0.9496    1.6159 C   0  0  0  0  0  0  0  0  0  0  0  0
   -3.5884   -1.3137    1.3897 O   0  0  0  0  0  0  0  0  0  0  0  0
   -1.5150   -1.9121   -1.2541 H   0  0  0  0  0  0  0  0  0  0  0  0
   -0.3413   -1.3194    1.3045 H   0  0  0  0  0  0  0  0  0  0  0  0
   -1.3929   -2.6675    0.8787 H   0  0  0  0  0  0  0  0  0  0  0  0
   -2.2131    0.0728    2.5175 N   0  0  0  0  0  0  0  0  0  0  0  0
   -3.2820    0.7567    3.2650 C   0  0  2  0  0  0  0  0  0  0  0  0
   -3.9024    1.9699    2.5335 C   0  0  0  0  0  0  0  0  0  0  0  0
   -4.8329    2.5767    3.0488 O   0  0  0  0  0  0  0  0  0  0  0  0
   -2.6867    1.1833    4.6103 C   0  0  0  0  0  0  0  0  0  0  0  0
   -1.2876    0.4941    2.4984 H   0  0  0  0  0  0  0  0  0  0  0  0
   -4.0984    0.0535    3.4629 H   0  0  0  0  0  0  0  0  0  0  0  0
   -1.8827    1.9112    4.4627 H   0  0  0  0  0  0  0  0  0  0  0  0
   -3.4577    1.6414    5.2384 H   0  0  0  0  0  0  0  0  0  0  0  0
   -2.2832    0.3157    5.1413 H   0  0  0  0  0  0  0  0  0  0  0  0
   -3.3726    2.4514    1.3501 N   0  0  0  0  0  0  0  0  0  0  0  0
   -3.8673    3.6401    0.6687 C   0  0  0  0  0  0  0  0  0  0  0  0
   -2.6154    1.9150    0.9191 H   0  0  0  0  0  0  0  0  0  0  0  0
   -3.8938    4.4939    1.3539 H   0  0  0  0  0  0  0  0  0  0  0  0
   -3.2107    3.8951   -0.1688 H   0  0  0  0  0  0  0  0  0  0  0  0
   -4.8765    3.4665    0.2818 H   0  0  0  0  0  0  0  0  0  0  0  0
  1  2  2  0  0  0  0
  1  3  1  0  0  0  0
  1  7  1  0  0  0  0
  3  4  1  0  0  0  0
  3  5  1  0  0  0  0
  3  6  1  0  0  0  0
  7  8  1  0  0  0  0
  7 12  1  0  0  0  0
  8  9  1  0  0  0  0
  8 11  1  0  0  0  0
  8 13  1  0  0  0  0
  9 10  2  0  0  0  0
  9 17  1  0  0  0  0
 11 14  1  0  0  0  0
 11 15  1  0  0  0  0
 11 16  1  0  0  0  0
 17 18  1  0  0  0  0
 17 21  1  0  0  0  0
 18 19  1  0  0  0  0
 18 22  1  0  0  0  0
 18 23  1  0  0  0  0
 19 20  2  0  0  0  0
 19 24  1  0  0  0  0
 24 25  1  0  0  0  0
 24 29  1  0  0  0  0
 25 26  1  0  0  0  0
 25 28  1  0  0  0  0
 25 30  1  0  0  0  0
 26 27  2  0  0  0  0
 26 34  1  0  0  0  0
 28 31  1  0  0  0  0
 28 32  1  0  0  0  0
 28 33  1  0  0  0  0
 34 35  1  0  0  0  0
 34 36  1  0  0  0  0
 35 37  1  0  0  0  0
 35 38  1  0  0  0  0
 35 39  1  0  0  0  0
M  END
$$$$

  -OEChem-05262216283D

 39 38  0     1  0  0  0  0  0999 V2000
   -4.2209   -1.8278   -2.2883 C   0  0  0  0  0  0  0  0  0  0  0  0
   -3.3980   -2.7311   -2.2629 O   0  0  0  0  0  0  0  0  0  0  0  0
   -5.7050   -2.1389   -2.2628 C   0  0  0  0  0  0  0  0  0  0  0  0
   -5.8623   -3.2204   -2.2195 H   0  0  0  0  0  0  0  0  0  0  0  0
   -6.1680   -1.6817   -1.3846 H   0  0  0  0  0  0  0  0  0  0  0  0
   -6.1842   -1.7497   -3.1644 H   0  0  0  0  0  0  0  0  0  0  0  0
   -3.7848   -0.5187   -2.2820 N   0  0  0  0  0  0  0  0  0  0  0  0
   -2.3682   -0.1201   -2.2725 C   0  0  2  0  0  0  0  0  0  0  0  0
   -1.7215   -0.3014   -0.8779 C   0  0  0  0  0  0  0  0  0  0  0  0
   -1.2558    0.6447   -0.2529 O   0  0  0  0  0  0  0  0  0  0  0  0
   -2.3015    1.3281   -2.7739 C   0  0  0  0  0  0  0  0  0  0  0  0
   -4.4925    0.2079   -2.2204 H   0  0  0  0  0  0  0  0  0  0  0  0
   -1.8062   -0.7446   -2.9755 H   0  0  0  0  0  0  0  0  0  0  0  0
   -2.8431    1.9967   -2.0966 H   0  0  0  0  0  0  0  0  0  0  0  0
   -1.2606    1.6629   -2.8290 H   0  0  0  0  0  0  0  0  0  0  0  0
   -2.7418    1.4075   -3.7725 H   0  0  0  0  0  0  0  0  0  0  0  0
   -1.6583   -1.5607   -0.3074 N   0  0  0  0  0  0  0  0  0  0  0  0
   -1.7584   -1.7917    1.1470 C   0  0  0  0  0  0  0  0  0  0  0  0
   -2.6168   -0.7806    1.9285 C   0  0  0  0  0  0  0  0  0  0  0  0
   -3.8145   -0.9973    2.0774 O   0  0  0  0  0  0  0  0  0  0  0  0
   -2.0925   -2.2768   -0.8999 H   0  0  0  0  0  0  0  0  0  0  0  0
   -0.7520   -1.7845    1.5750 H   0  0  0  0  0  0  0  0  0  0  0  0
   -2.1764   -2.7878    1.3201 H   0  0  0  0  0  0  0  0  0  0  0  0
   -2.0571    0.3647    2.4603 N   0  0  0  0  0  0  0  0  0  0  0  0
   -2.8441    1.4200    3.1178 C   0  0  2  0  0  0  0  0  0  0  0  0
   -3.6633    2.2798    2.1198 C   0  0  0  0  0  0  0  0  0  0  0  0
   -3.5672    3.5010    2.0831 O   0  0  0  0  0  0  0  0  0  0  0  0
   -1.8627    2.2535    3.9508 C   0  0  0  0  0  0  0  0  0  0  0  0
   -1.2140    0.6641    1.9663 H   0  0  0  0  0  0  0  0  0  0  0  0
   -3.5607    0.9606    3.8066 H   0  0  0  0  0  0  0  0  0  0  0  0
   -1.1329    2.7491    3.3022 H   0  0  0  0  0  0  0  0  0  0  0  0
   -2.4005    3.0206    4.5170 H   0  0  0  0  0  0  0  0  0  0  0  0
   -1.3258    1.6149    4.6588 H   0  0  0  0  0  0  0  0  0  0  0  0
   -4.5797    1.6636    1.2894 N   0  0  0  0  0  0  0  0  0  0  0  0
   -5.4744    2.3768    0.3897 C   0  0  0  0  0  0  0  0  0  0  0  0
   -4.6647    0.6497    1.3963 H   0  0  0  0  0  0  0  0  0  0  0  0
   -6.1038    3.0754    0.9514 H   0  0  0  0  0  0  0  0  0  0  0  0
   -4.8990    2.9388   -0.3535 H   0  0  0  0  0  0  0  0  0  0  0  0
   -6.1245    1.6700   -0.1346 H   0  0  0  0  0  0  0  0  0  0  0  0
  1  2  2  0  0  0  0
  1  3  1  0  0  0  0
  1  7  1  0  0  0  0
  3  4  1  0  0  0  0
  3  5  1  0  0  0  0
  3  6  1  0  0  0  0
  7  8  1  0  0  0  0
  7 12  1  0  0  0  0
  8  9  1  0  0  0  0
  8 11  1  0  0  0  0
  8 13  1  0  0  0  0
  9 10  2  0  0  0  0
  9 17  1  0  0  0  0
 11 14  1  0  0  0  0
 11 15  1  0  0  0  0
 11 16  1  0  0  0  0
 17 18  1  0  0  0  0
 17 21  1  0  0  0  0
 18 19  1  0  0  0  0
 18 22  1  0  0  0  0
 18 23  1  0  0  0  0
 19 20  2  0  0  0  0
 19 24  1  0  0  0  0
 24 25  1  0  0  0  0
 24 29  1  0  0  0  0
 25 26  1  0  0  0  0
 25 28  1  0  0  0  0
 25 30  1  0  0  0  0
 26 27  2  0  0  0  0
 26 34  1  0  0  0  0
 28 31  1  0  0  0  0
 28 32  1  0  0  0  0
 28 33  1  0  0  0  0
 34 35  1  0  0  0  0
 34 36  1  0  0  0  0
 35 37  1  0  0  0  0
 35 38  1  0  0  0  0
 35 39  1  0  0  0  0
M  END
$$$$

  -OEChem-05262216283D

 39 38  0     1  0  0  0  0  0999 V2000
   -4.1271   -1.5299   -1.9673 C   0  0  0  0  0  0  0  0  0  0  0  0
   -3.5426   -2.5736   -2.2298 O   0  0  0  0  0  0  0  0  0  0  0  0
   -5.5404   -1.5549   -1.4181 C   0  0  0  0  0  0  0  0  0  0  0  0
   -6.2063   -0.9915   -2.0759 H   0  0  0  0  0  0  0  0  0  0  0  0
   -5.8997   -2.5850   -1.3461 H   0  0  0  0  0  0  0  0  0  0  0  0
   -5.5599   -1.1063   -0.4216 H   0  0  0  0  0  0  0  0  0  0  0  0
   -3.4538   -0.3326   -2.0866 N   0  0  0  0  0  0  0  0  0  0  0  0
   -2.0094   -0.2530   -2.3377 C   0  0  2  0  0  0  0  0  0  0  0  0
   -1.2311   -0.5869   -1.0465 C   0  0  0  0  0  0  0  0  0  0  0  0
   -0.6482    0.2731   -0.3924 O   0  0  0  0  0  0  0  0  0  0  0  0
   -1.7118    1.1538   -2.8697 C   0  0  0  0  0  0  0  0  0  0  0  0
   -3.8720    0.4535   -1.5765 H   0  0  0  0  0  0  0  0  0  0  0  0
   -1.7165   -0.9752   -3.1073 H   0  0  0  0  0  0  0  0  0  0  0  0
   -2.0065    1.9135   -2.1378 H   0  0  0  0  0  0  0  0  0  0  0  0
   -0.6422    1.2647   -3.0732 H   0  0  0  0  0  0  0  0  0  0  0  0
   -2.2627    1.3328   -3.7979 H   0  0  0  0  0  0  0  0  0  0  0  0
   -1.2767   -1.8681   -0.5261 N   0  0  0  0  0  0  0  0  0  0  0  0
   -1.6654   -2.1005    0.8804 C   0  0  0  0  0  0  0  0  0  0  0  0
   -2.6584   -1.0915    1.4921 C   0  0  0  0  0  0  0  0  0  0  0  0
   -3.8029   -1.4577    1.7313 O   0  0  0  0  0  0  0  0  0  0  0  0
   -1.7632   -2.4928   -1.1769 H   0  0  0  0  0  0  0  0  0  0  0  0
   -0.7625   -2.0943    1.4975 H   0  0  0  0  0  0  0  0  0  0  0  0
   -2.1068   -3.0986    0.9618 H   0  0  0  0  0  0  0  0  0  0  0  0
   -2.2787    0.1826    1.8630 N   0  0  0  0  0  0  0  0  0  0  0  0
   -3.2687    1.1901    2.2678 C   0  0  2  0  0  0  0  0  0  0  0  0
   -4.3302    1.5157    1.1857 C   0  0  0  0  0  0  0  0  0  0  0  0
   -4.0505    1.5366   -0.0101 O   0  0  0  0  0  0  0  0  0  0  0  0
   -2.5014    2.4603    2.6387 C   0  0  0  0  0  0  0  0  0  0  0  0
   -1.4494    0.5151    1.3604 H   0  0  0  0  0  0  0  0  0  0  0  0
   -3.7932    0.8234    3.1559 H   0  0  0  0  0  0  0  0  0  0  0  0
   -1.9573    2.8452    1.7695 H   0  0  0  0  0  0  0  0  0  0  0  0
   -3.1905    3.2352    2.9885 H   0  0  0  0  0  0  0  0  0  0  0  0
   -1.7820    2.2514    3.4366 H   0  0  0  0  0  0  0  0  0  0  0  0
   -5.6251    1.8207    1.5634 N   0  0  0  0  0  0  0  0  0  0  0  0
   -6.6981    2.0826    0.6116 C   0  0  0  0  0  0  0  0  0  0  0  0
   -5.8624    1.6934    2.5431 H   0  0  0  0  0  0  0  0  0  0  0  0
   -6.4327    2.9167   -0.0467 H   0  0  0  0  0  0  0  0  0  0  0  0
   -6.8912    1.1964   -0.0017 H   0  0  0  0  0  0  0  0  0  0  0  0
   -7.6187    2.3441    1.1424 H   0  0  0  0  0  0  0  0  0  0  0  0
  1  2  2  0  0  0  0
  1  3  1  0  0  0  0
  1  7  1  0  0  0  0
  3  4  1  0  0  0  0
  3  5  1  0  0  0  0
  3  6  1  0  0  0  0
  7  8  1  0  0  0  0
  7 12  1  0  0  0  0
  8  9  1  0  0  0  0
  8 11  1  0  0  0  0
  8 13  1  0  0  0  0
  9 10  2  0  0  0  0
  9 17  1  0  0  0  0
 11 14  1  0  0  0  0
 11 15  1  0  0  0  0
 11 16  1  0  0  0  0
 17 18  1  0  0  0  0
 17 21  1  0  0  0  0
 18 19  1  0  0  0  0
 18 22  1  0  0  0  0
 18 23  1  0  0  0  0
 19 20  2  0  0  0  0
 19 24  1  0  0  0  0
 24 25  1  0  0  0  0
 24 29  1  0  0  0  0
 25 26  1  0  0  0  0
 25 28  1  0  0  0  0
 25 30  1  0  0  0  0
 26 27  2  0  0  0  0
 26 34  1  0  0  0  0
 28 31  1  0  0  0  0
 28 32  1  0  0  0  0
 28 33  1  0  0  0  0
 34 35  1  0  0  0  0
 34 36  1  0  0  0  0
 35 37  1  0  0  0  0
 35 38  1  0  0  0  0
 35 39  1  0  0  0  0
M  END
$$$$

  -OEChem-05262216283D

 39 38  0     1  0  0  0  0  0999 V2000
   -4.1311   -1.7394   -2.0470 C   0  0  0  0  0  0  0  0  0  0  0  0
   -3.5052   -2.7718   -2.2496 O   0  0  0  0  0  0  0  0  0  0  0  0
   -5.5432   -1.7932   -1.4978 C   0  0  0  0  0  0  0  0  0  0  0  0
   -6.1926   -1.1272   -2.0711 H   0  0  0  0  0  0  0  0  0  0  0  0
   -5.9357   -2.8116   -1.5619 H   0  0  0  0  0  0  0  0  0  0  0  0
   -5.5448   -1.4788   -0.4508 H   0  0  0  0  0  0  0  0  0  0  0  0
   -3.4964   -0.5257   -2.2009 N   0  0  0  0  0  0  0  0  0  0  0  0
   -2.0525   -0.3981   -2.4371 C   0  0  2  0  0  0  0  0  0  0  0  0
   -1.2739   -0.6498   -1.1268 C   0  0  0  0  0  0  0  0  0  0  0  0
   -0.6803    0.2478   -0.5379 O   0  0  0  0  0  0  0  0  0  0  0  0
   -1.8070    0.9965   -3.0243 C   0  0  0  0  0  0  0  0  0  0  0  0
   -3.9638    0.2692   -1.7504 H   0  0  0  0  0  0  0  0  0  0  0  0
   -1.7222   -1.1382   -3.1737 H   0  0  0  0  0  0  0  0  0  0  0  0
   -2.1355    1.7725   -2.3250 H   0  0  0  0  0  0  0  0  0  0  0  0
   -0.7418    1.1417   -3.2288 H   0  0  0  0  0  0  0  0  0  0  0  0
   -2.3592    1.1162   -3.9612 H   0  0  0  0  0  0  0  0  0  0  0  0
   -1.3377   -1.8936   -0.5262 N   0  0  0  0  0  0  0  0  0  0  0  0
   -1.7073   -2.0761    0.8946 C   0  0  0  0  0  0  0  0  0  0  0  0
   -2.6773   -1.0541    1.5276 C   0  0  0  0  0  0  0  0  0  0  0  0
   -3.7490   -1.4527    1.9672 O   0  0  0  0  0  0  0  0  0  0  0  0
   -1.8151   -2.5572   -1.1451 H   0  0  0  0  0  0  0  0  0  0  0  0
   -0.7898   -2.0633    1.4896 H   0  0  0  0  0  0  0  0  0  0  0  0
   -2.1520   -3.0696    1.0088 H   0  0  0  0  0  0  0  0  0  0  0  0
   -2.4039    0.2965    1.6086 N   0  0  0  0  0  0  0  0  0  0  0  0
   -3.4295    1.2876    1.9569 C   0  0  2  0  0  0  0  0  0  0  0  0
   -4.6052    1.3473    0.9506 C   0  0  0  0  0  0  0  0  0  0  0  0
   -4.4096    1.3540   -0.2624 O   0  0  0  0  0  0  0  0  0  0  0  0
   -2.7408    2.6513    2.0390 C   0  0  0  0  0  0  0  0  0  0  0  0
   -1.6174    0.6045    1.0278 H   0  0  0  0  0  0  0  0  0  0  0  0
   -3.8356    1.0411    2.9433 H   0  0  0  0  0  0  0  0  0  0  0  0
   -2.3181    2.9262    1.0666 H   0  0  0  0  0  0  0  0  0  0  0  0
   -3.4566    3.4236    2.3372 H   0  0  0  0  0  0  0  0  0  0  0  0
   -1.9318    2.6257    2.7756 H   0  0  0  0  0  0  0  0  0  0  0  0
   -5.9051    1.4297    1.4146 N   0  0  0  0  0  0  0  0  0  0  0  0
   -7.0727    1.4332    0.5412 C   0  0  0  0  0  0  0  0  0  0  0  0
   -6.0445    1.2773    2.4096 H   0  0  0  0  0  0  0  0  0  0  0  0
   -6.9944    2.2315   -0.2044 H   0  0  0  0  0  0  0  0  0  0  0  0
   -7.1670    0.4738    0.0229 H   0  0  0  0  0  0  0  0  0  0  0  0
   -7.9814    1.6014    1.1273 H   0  0  0  0  0  0  0  0  0  0  0  0
  1  2  2  0  0  0  0
  1  3  1  0  0  0  0
  1  7  1  0  0  0  0
  3  4  1  0  0  0  0
  3  5  1  0  0  0  0
  3  6  1  0  0  0  0
  7  8  1  0  0  0  0
  7 12  1  0  0  0  0
  8  9  1  0  0  0  0
  8 11  1  0  0  0  0
  8 13  1  0  0  0  0
  9 10  2  0  0  0  0
  9 17  1  0  0  0  0
 11 14  1  0  0  0  0
 11 15  1  0  0  0  0
 11 16  1  0  0  0  0
 17 18  1  0  0  0  0
 17 21  1  0  0  0  0
 18 19  1  0  0  0  0
 18 22  1  0  0  0  0
 18 23  1  0  0  0  0
 19 20  2  0  0  0  0
 19 24  1  0  0  0  0
 24 25  1  0  0  0  0
 24 29  1  0  0  0  0
 25 26  1  0  0  0  0
 25 28  1  0  0  0  0
 25 30  1  0  0  0  0
 26 27  2  0  0  0  0
 26 34  1  0  0  0  0
 28 31  1  0  0  0  0
 28 32  1  0  0  0  0
 28 33  1  0  0  0  0
 34 35  1  0  0  0  0
 34 36  1  0  0  0  0
 35 37  1  0  0  0  0
 35 38  1  0  0  0  0
 35 39  1  0  0  0  0
M  END
$$$$

  -OEChem-05262216283D

 39 38  0     1  0  0  0  0  0999 V2000
   -4.0880   -2.0091   -2.1250 C   0  0  0  0  0  0  0  0  0  0  0  0
   -3.3898   -3.0028   -2.2754 O   0  0  0  0  0  0  0  0  0  0  0  0
   -5.4972   -2.1402   -1.5816 C   0  0  0  0  0  0  0  0  0  0  0  0
   -6.1749   -1.4879   -2.1375 H   0  0  0  0  0  0  0  0  0  0  0  0
   -5.8450   -3.1726   -1.6751 H   0  0  0  0  0  0  0  0  0  0  0  0
   -5.5128   -1.8542   -0.5265 H   0  0  0  0  0  0  0  0  0  0  0  0
   -3.5340   -0.7610   -2.3123 N   0  0  0  0  0  0  0  0  0  0  0  0
   -2.0995   -0.5409   -2.5467 C   0  0  2  0  0  0  0  0  0  0  0  0
   -1.3068   -0.6902   -1.2278 C   0  0  0  0  0  0  0  0  0  0  0  0
   -0.7365    0.2592   -0.7018 O   0  0  0  0  0  0  0  0  0  0  0  0
   -1.9501    0.8459   -3.1836 C   0  0  0  0  0  0  0  0  0  0  0  0
   -4.0661    0.0150   -1.9025 H   0  0  0  0  0  0  0  0  0  0  0  0
   -1.7147   -1.2820   -3.2557 H   0  0  0  0  0  0  0  0  0  0  0  0
   -2.3302    1.6217   -2.5108 H   0  0  0  0  0  0  0  0  0  0  0  0
   -0.8970    1.0552   -3.3957 H   0  0  0  0  0  0  0  0  0  0  0  0
   -2.5091    0.8957   -4.1231 H   0  0  0  0  0  0  0  0  0  0  0  0
   -1.3343   -1.8983   -0.5561 N   0  0  0  0  0  0  0  0  0  0  0  0
   -1.6395   -2.0442    0.8859 C   0  0  0  0  0  0  0  0  0  0  0  0
   -2.5931   -1.0336    1.5644 C   0  0  0  0  0  0  0  0  0  0  0  0
   -3.5298   -1.4671    2.2236 O   0  0  0  0  0  0  0  0  0  0  0  0
   -1.7908   -2.6123   -1.1338 H   0  0  0  0  0  0  0  0  0  0  0  0
   -0.6935   -2.0001    1.4332 H   0  0  0  0  0  0  0  0  0  0  0  0
   -2.0568   -3.0435    1.0441 H   0  0  0  0  0  0  0  0  0  0  0  0
   -2.5244    0.3320    1.3793 N   0  0  0  0  0  0  0  0  0  0  0  0
   -3.6227    1.2436    1.7143 C   0  0  2  0  0  0  0  0  0  0  0  0
   -4.8477    1.0765    0.7849 C   0  0  0  0  0  0  0  0  0  0  0  0
   -4.7191    1.0337   -0.4366 O   0  0  0  0  0  0  0  0  0  0  0  0
   -3.0780    2.6701    1.6289 C   0  0  0  0  0  0  0  0  0  0  0  0
   -1.8198    0.6482    0.7070 H   0  0  0  0  0  0  0  0  0  0  0  0
   -3.9428    1.0555    2.7444 H   0  0  0  0  0  0  0  0  0  0  0  0
   -2.7376    2.8904    0.6116 H   0  0  0  0  0  0  0  0  0  0  0  0
   -3.8545    3.3916    1.9003 H   0  0  0  0  0  0  0  0  0  0  0  0
   -2.2336    2.7950    2.3137 H   0  0  0  0  0  0  0  0  0  0  0  0
   -6.1178    1.0042    1.3254 N   0  0  0  0  0  0  0  0  0  0  0  0
   -7.3217    0.7974    0.5298 C   0  0  0  0  0  0  0  0  0  0  0  0
   -6.1780    0.8948    2.3342 H   0  0  0  0  0  0  0  0  0  0  0  0
   -7.3950    1.5506   -0.2620 H   0  0  0  0  0  0  0  0  0  0  0  0
   -7.3135   -0.1968    0.0722 H   0  0  0  0  0  0  0  0  0  0  0  0
   -8.2105    0.8804    1.1631 H   0  0  0  0  0  0  0  0  0  0  0  0
  1  2  2  0  0  0  0
  1  3  1  0  0  0  0
  1  7  1  0  0  0  0
  3  4  1  0  0  0  0
  3  5  1  0  0  0  0
  3  6  1  0  0  0  0
  7  8  1  0  0  0  0
  7 12  1  0  0  0  0
  8  9  1  0  0  0  0
  8 11  1  0  0  0  0
  8 13  1  0  0  0  0
  9 10  2  0  0  0  0
  9 17  1  0  0  0  0
 11 14  1  0  0  0  0
 11 15  1  0  0  0  0
 11 16  1  0  0  0  0
 17 18  1  0  0  0  0
 17 21  1  0  0  0  0
 18 19  1  0  0  0  0
 18 22  1  0  0  0  0
 18 23  1  0  0  0  0
 19 20  2  0  0  0  0
 19 24  1  0  0  0  0
 24 25  1  0  0  0  0
 24 29  1  0  0  0  0
 25 26  1  0  0  0  0
 25 28  1  0  0  0  0
 25 30  1  0  0  0  0
 26 27  2  0  0  0  0
 26 34  1  0  0  0  0
 28 31  1  0  0  0  0
 28 32  1  0  0  0  0
 28 33  1  0  0  0  0
 34 35  1  0  0  0  0
 34 36  1  0  0  0  0
 35 37  1  0  0  0  0
 35 38  1  0  0  0  0
 35 39  1  0  0  0  0
M  END
$$$$

  -OEChem-05262216283D

 39 38  0     1  0  0  0  0  0999 V2000
   -3.7261   -2.9944   -1.0613 C   0  0  0  0  0  0  0  0  0  0  0  0
   -2.5556   -3.3479   -1.0157 O   0  0  0  0  0  0  0  0  0  0  0  0
   -4.7772   -3.6919   -0.2197 C   0  0  0  0  0  0  0  0  0  0  0  0
   -5.5127   -4.1731   -0.8690 H   0  0  0  0  0  0  0  0  0  0  0  0
   -4.3123   -4.4533    0.4124 H   0  0  0  0  0  0  0  0  0  0  0  0
   -5.2891   -2.9673    0.4187 H   0  0  0  0  0  0  0  0  0  0  0  0
   -4.0619   -1.8831   -1.8036 N   0  0  0  0  0  0  0  0  0  0  0  0
   -3.0725   -1.0714   -2.5229 C   0  0  2  0  0  0  0  0  0  0  0  0
   -2.2414   -0.1957   -1.5561 C   0  0  0  0  0  0  0  0  0  0  0  0
   -2.4324    1.0090   -1.4553 O   0  0  0  0  0  0  0  0  0  0  0  0
   -3.8292   -0.2527   -3.5742 C   0  0  0  0  0  0  0  0  0  0  0  0
   -4.9739   -1.4602   -1.6041 H   0  0  0  0  0  0  0  0  0  0  0  0
   -2.3750   -1.7263   -3.0557 H   0  0  0  0  0  0  0  0  0  0  0  0
   -4.5756    0.3892   -3.0979 H   0  0  0  0  0  0  0  0  0  0  0  0
   -3.1344    0.3787   -4.1367 H   0  0  0  0  0  0  0  0  0  0  0  0
   -4.3405   -0.9172   -4.2771 H   0  0  0  0  0  0  0  0  0  0  0  0
   -1.1599   -0.7385   -0.8916 N   0  0  0  0  0  0  0  0  0  0  0  0
   -0.6908   -0.3207    0.4492 C   0  0  0  0  0  0  0  0  0  0  0  0
   -1.6380    0.2240    1.5491 C   0  0  0  0  0  0  0  0  0  0  0  0
   -1.1730    0.3715    2.6665 O   0  0  0  0  0  0  0  0  0  0  0  0
   -1.1008   -1.7469   -1.0562 H   0  0  0  0  0  0  0  0  0  0  0  0
    0.0582    0.4604    0.2899 H   0  0  0  0  0  0  0  0  0  0  0  0
   -0.1731   -1.1767    0.8917 H   0  0  0  0  0  0  0  0  0  0  0  0
   -2.8178    0.9202    1.4309 N   0  0  0  0  0  0  0  0  0  0  0  0
   -4.0264    0.1124    1.1873 C   0  0  2  0  0  0  0  0  0  0  0  0
   -5.0134    0.6943    0.1537 C   0  0  0  0  0  0  0  0  0  0  0  0
   -5.8390   -0.0531   -0.3647 O   0  0  0  0  0  0  0  0  0  0  0  0
   -4.7368   -0.0704    2.5324 C   0  0  0  0  0  0  0  0  0  0  0  0
   -2.9047    1.5361    2.2355 H   0  0  0  0  0  0  0  0  0  0  0  0
   -3.7358   -0.8766    0.8224 H   0  0  0  0  0  0  0  0  0  0  0  0
   -5.0702    0.8948    2.9269 H   0  0  0  0  0  0  0  0  0  0  0  0
   -5.6121   -0.7176    2.4158 H   0  0  0  0  0  0  0  0  0  0  0  0
   -4.0635   -0.5322    3.2618 H   0  0  0  0  0  0  0  0  0  0  0  0
   -4.9773    2.0348   -0.1740 N   0  0  0  0  0  0  0  0  0  0  0  0
   -5.8096    2.6235   -1.2152 C   0  0  0  0  0  0  0  0  0  0  0  0
   -4.0876    2.4869    0.0321 H   0  0  0  0  0  0  0  0  0  0  0  0
   -5.4210    2.3683   -2.2054 H   0  0  0  0  0  0  0  0  0  0  0  0
   -6.8425    2.2675   -1.1385 H   0  0  0  0  0  0  0  0  0  0  0  0
   -5.8185    3.7131   -1.1150 H   0  0  0  0  0  0  0  0  0  0  0  0
  1  2  2  0  0  0  0
  1  3  1  0  0  0  0
  1  7  1  0  0  0  0
  3  4  1  0  0  0  0
  3  5  1  0  0  0  0
  3  6  1  0  0  0  0
  7  8  1  0  0  0  0
  7 12  1  0  0  0  0
  8  9  1  0  0  0  0
  8 11  1  0  0  0  0
  8 13  1  0  0  0  0
  9 10  2  0  0  0  0
  9 17  1  0  0  0  0
 11 14  1  0  0  0  0
 11 15  1  0  0  0  0
 11 16  1  0  0  0  0
 17 18  1  0  0  0  0
 17 21  1  0  0  0  0
 18 19  1  0  0  0  0
 18 22  1  0  0  0  0
 18 23  1  0  0  0  0
 19 20  2  0  0  0  0
 19 24  1  0  0  0  0
 24 25  1  0  0  0  0
 24 29  1  0  0  0  0
 25 26  1  0  0  0  0
 25 28  1  0  0  0  0
 25 30  1  0  0  0  0
 26 27  2  0  0  0  0
 26 34  1  0  0  0  0
 28 31  1  0  0  0  0
 28 32  1  0  0  0  0
 28 33  1  0  0  0  0
 34 35  1  0  0  0  0
 34 36  1  0  0  0  0
 35 37  1  0  0  0  0
 35 38  1  0  0  0  0
 35 39  1  0  0  0  0
M  END
$$$$

  -OEChem-05262216283D

 39 38  0     1  0  0  0  0  0999 V2000
   -3.0506   -3.2960   -1.6405 C   0  0  0  0  0  0  0  0  0  0  0  0
   -1.8821   -3.1446   -1.3197 O   0  0  0  0  0  0  0  0  0  0  0  0
   -3.8989   -4.3583   -0.9687 C   0  0  0  0  0  0  0  0  0  0  0  0
   -4.3366   -5.0184   -1.7214 H   0  0  0  0  0  0  0  0  0  0  0  0
   -3.2853   -4.9573   -0.2898 H   0  0  0  0  0  0  0  0  0  0  0  0
   -4.7006   -3.8865   -0.3953 H   0  0  0  0  0  0  0  0  0  0  0  0
   -3.6150   -2.4497   -2.5731 N   0  0  0  0  0  0  0  0  0  0  0  0
   -2.9327   -1.2277   -3.0138 C   0  0  2  0  0  0  0  0  0  0  0  0
   -3.0095   -0.1402   -1.9218 C   0  0  0  0  0  0  0  0  0  0  0  0
   -4.0940    0.3104   -1.5771 O   0  0  0  0  0  0  0  0  0  0  0  0
   -3.5787   -0.7601   -4.3206 C   0  0  0  0  0  0  0  0  0  0  0  0
   -4.6269   -2.4854   -2.6604 H   0  0  0  0  0  0  0  0  0  0  0  0
   -1.8782   -1.4448   -3.2165 H   0  0  0  0  0  0  0  0  0  0  0  0
   -4.6393   -0.5350   -4.1687 H   0  0  0  0  0  0  0  0  0  0  0  0
   -3.0816    0.1434   -4.6872 H   0  0  0  0  0  0  0  0  0  0  0  0
   -3.4928   -1.5374   -5.0864 H   0  0  0  0  0  0  0  0  0  0  0  0
   -1.8704    0.4582   -1.4266 N   0  0  0  0  0  0  0  0  0  0  0  0
   -1.6436    0.7856   -0.0001 C   0  0  0  0  0  0  0  0  0  0  0  0
   -2.2578   -0.0525    1.1515 C   0  0  0  0  0  0  0  0  0  0  0  0
   -1.5491   -0.2518    2.1226 O   0  0  0  0  0  0  0  0  0  0  0  0
   -1.0353    0.0999   -1.8840 H   0  0  0  0  0  0  0  0  0  0  0  0
   -1.9933    1.8102    0.1552 H   0  0  0  0  0  0  0  0  0  0  0  0
   -0.5617    0.7927    0.1634 H   0  0  0  0  0  0  0  0  0  0  0  0
   -3.2719   -0.9824    1.1051 N   0  0  0  0  0  0  0  0  0  0  0  0
   -4.6864   -0.5882    1.2575 C   0  0  2  0  0  0  0  0  0  0  0  0
   -4.9425    0.8950    1.6440 C   0  0  0  0  0  0  0  0  0  0  0  0
   -5.2735    1.2192    2.7775 O   0  0  0  0  0  0  0  0  0  0  0  0
   -5.2779   -1.5463    2.3003 C   0  0  0  0  0  0  0  0  0  0  0  0
   -3.0152   -1.7179    1.7593 H   0  0  0  0  0  0  0  0  0  0  0  0
   -5.2142   -0.7684    0.3182 H   0  0  0  0  0  0  0  0  0  0  0  0
   -4.7759   -1.4218    3.2660 H   0  0  0  0  0  0  0  0  0  0  0  0
   -6.3452   -1.3454    2.4379 H   0  0  0  0  0  0  0  0  0  0  0  0
   -5.1617   -2.5853    1.9774 H   0  0  0  0  0  0  0  0  0  0  0  0
   -4.8252    1.8800    0.6838 N   0  0  0  0  0  0  0  0  0  0  0  0
   -5.0973    3.2900    0.9272 C   0  0  0  0  0  0  0  0  0  0  0  0
   -4.6151    1.5655   -0.2680 H   0  0  0  0  0  0  0  0  0  0  0  0
   -6.1501    3.4367    1.1893 H   0  0  0  0  0  0  0  0  0  0  0  0
   -4.4745    3.6649    1.7461 H   0  0  0  0  0  0  0  0  0  0  0  0
   -4.8780    3.8765    0.0301 H   0  0  0  0  0  0  0  0  0  0  0  0
  1  2  2  0  0  0  0
  1  3  1  0  0  0  0
  1  7  1  0  0  0  0
  3  4  1  0  0  0  0
  3  5  1  0  0  0  0
  3  6  1  0  0  0  0
  7  8  1  0  0  0  0
  7 12  1  0  0  0  0
  8  9  1  0  0  0  0
  8 11  1  0  0  0  0
  8 13  1  0  0  0  0
  9 10  2  0  0  0  0
  9 17  1  0  0  0  0
 11 14  1  0  0  0  0
 11 15  1  0  0  0  0
 11 16  1  0  0  0  0
 17 18  1  0  0  0  0
 17 21  1  0  0  0  0
 18 19  1  0  0  0  0
 18 22  1  0  0  0  0
 18 23  1  0  0  0  0
 19 20  2  0  0  0  0
 19 24  1  0  0  0  0
 24 25  1  0  0  0  0
 24 29  1  0  0  0  0
 25 26  1  0  0  0  0
 25 28  1  0  0  0  0
 25 30  1  0  0  0  0
 26 27  2  0  0  0  0
 26 34  1  0  0  0  0
 28 31  1  0  0  0  0
 28 32  1  0  0  0  0
 28 33  1  0  0  0  0
 34 35  1  0  0  0  0
 34 36  1  0  0  0  0
 35 37  1  0  0  0  0
 35 38  1  0  0  0  0
 35 39  1  0  0  0  0
M  END
$$$$

  -OEChem-05262216283D

 39 38  0     1  0  0  0  0  0999 V2000
   -3.5704   -2.7108   -2.3288 C   0  0  0  0  0  0  0  0  0  0  0  0
   -2.5847   -3.4150   -2.4993 O   0  0  0  0  0  0  0  0  0  0  0  0
   -4.8771   -3.3242   -1.8642 C   0  0  0  0  0  0  0  0  0  0  0  0
   -4.8766   -4.4014   -2.0518 H   0  0  0  0  0  0  0  0  0  0  0  0
   -5.0087   -3.1495   -0.7937 H   0  0  0  0  0  0  0  0  0  0  0  0
   -5.7142   -2.8726   -2.4025 H   0  0  0  0  0  0  0  0  0  0  0  0
   -3.4495   -1.3436   -2.4557 N   0  0  0  0  0  0  0  0  0  0  0  0
   -2.1799   -0.6605   -2.7570 C   0  0  2  0  0  0  0  0  0  0  0  0
   -1.2992   -0.5396   -1.4916 C   0  0  0  0  0  0  0  0  0  0  0  0
   -1.0705    0.5467   -0.9751 O   0  0  0  0  0  0  0  0  0  0  0  0
   -2.5313    0.6959   -3.3799 C   0  0  0  0  0  0  0  0  0  0  0  0
   -4.2059   -0.7978   -2.0286 H   0  0  0  0  0  0  0  0  0  0  0  0
   -1.6132   -1.2335   -3.4989 H   0  0  0  0  0  0  0  0  0  0  0  0
   -3.1092    1.3056   -2.6776 H   0  0  0  0  0  0  0  0  0  0  0  0
   -1.6194    1.2406   -3.6440 H   0  0  0  0  0  0  0  0  0  0  0  0
   -3.1249    0.5546   -4.2883 H   0  0  0  0  0  0  0  0  0  0  0  0
   -0.9624   -1.6927   -0.8082 N   0  0  0  0  0  0  0  0  0  0  0  0
   -0.9565   -1.8647    0.6647 C   0  0  0  0  0  0  0  0  0  0  0  0
   -1.9394   -1.0628    1.5515 C   0  0  0  0  0  0  0  0  0  0  0  0
   -2.1222   -1.4557    2.6956 O   0  0  0  0  0  0  0  0  0  0  0  0
   -1.2375   -2.5300   -1.3325 H   0  0  0  0  0  0  0  0  0  0  0  0
    0.0492   -1.6235    1.0206 H   0  0  0  0  0  0  0  0  0  0  0  0
   -1.1315   -2.9233    0.8782 H   0  0  0  0  0  0  0  0  0  0  0  0
   -2.8486   -0.1645    1.0294 N   0  0  0  0  0  0  0  0  0  0  0  0
   -4.1228    0.2445    1.6255 C   0  0  2  0  0  0  0  0  0  0  0  0
   -5.3215   -0.2745    0.8025 C   0  0  0  0  0  0  0  0  0  0  0  0
   -5.2576   -0.3496   -0.4238 O   0  0  0  0  0  0  0  0  0  0  0  0
   -4.1336    1.7727    1.6848 C   0  0  0  0  0  0  0  0  0  0  0  0
   -2.5995    0.2275    0.1205 H   0  0  0  0  0  0  0  0  0  0  0  0
   -4.2121   -0.1449    2.6446 H   0  0  0  0  0  0  0  0  0  0  0  0
   -4.0527    2.1970    0.6783 H   0  0  0  0  0  0  0  0  0  0  0  0
   -5.0609    2.1315    2.1415 H   0  0  0  0  0  0  0  0  0  0  0  0
   -3.2902    2.1327    2.2828 H   0  0  0  0  0  0  0  0  0  0  0  0
   -6.4908   -0.6495    1.4371 N   0  0  0  0  0  0  0  0  0  0  0  0
   -7.6606   -1.1631    0.7348 C   0  0  0  0  0  0  0  0  0  0  0  0
   -6.5003   -0.6224    2.4534 H   0  0  0  0  0  0  0  0  0  0  0  0
   -8.0423   -0.4169    0.0301 H   0  0  0  0  0  0  0  0  0  0  0  0
   -7.4081   -2.0742    0.1824 H   0  0  0  0  0  0  0  0  0  0  0  0
   -8.4552   -1.4012    1.4485 H   0  0  0  0  0  0  0  0  0  0  0  0
  1  2  2  0  0  0  0
  1  3  1  0  0  0  0
  1  7  1  0  0  0  0
  3  4  1  0  0  0  0
  3  5  1  0  0  0  0
  3  6  1  0  0  0  0
  7  8  1  0  0  0  0
  7 12  1  0  0  0  0
  8  9  1  0  0  0  0
  8 11  1  0  0  0  0
  8 13  1  0  0  0  0
  9 10  2  0  0  0  0
  9 17  1  0  0  0  0
 11 14  1  0  0  0  0
 11 15  1  0  0  0  0
 11 16  1  0  0  0  0
 17 18  1  0  0  0  0
 17 21  1  0  0  0  0
 18 19  1  0  0  0  0
 18 22  1  0  0  0  0
 18 23  1  0  0  0  0
 19 20  2  0  0  0  0
 19 24  1  0  0  0  0
 24 25  1  0  0  0  0
 24 29  1  0  0  0  0
 25 26  1  0  0  0  0
 25 28  1  0  0  0  0
 25 30  1  0  0  0  0
 26 27  2  0  0  0  0
 26 34  1  0  0  0  0
 28 31  1  0  0  0  0
 28 32  1  0  0  0  0
 28 33  1  0  0  0  0
 34 35  1  0  0  0  0
 34 36  1  0  0  0  0
 35 37  1  0  0  0  0
 35 38  1  0  0  0  0
 35 39  1  0  0  0  0
M  END
$$$$

  -OEChem-05262216283D

 39 38  0     1  0  0  0  0  0999 V2000
   -3.0975   -2.9882   -2.1781 C   0  0  0  0  0  0  0  0  0  0  0  0
   -1.9708   -3.4101   -2.4007 O   0  0  0  0  0  0  0  0  0  0  0  0
   -4.1536   -3.9000   -1.5842 C   0  0  0  0  0  0  0  0  0  0  0  0
   -3.8497   -4.9456   -1.6835 H   0  0  0  0  0  0  0  0  0  0  0  0
   -4.2903   -3.6687   -0.5248 H   0  0  0  0  0  0  0  0  0  0  0  0
   -5.1049   -3.7590   -2.1032 H   0  0  0  0  0  0  0  0  0  0  0  0
   -3.3611   -1.6482   -2.3679 N   0  0  0  0  0  0  0  0  0  0  0  0
   -2.3430   -0.6668   -2.7784 C   0  0  2  0  0  0  0  0  0  0  0  0
   -1.4409   -0.2749   -1.5853 C   0  0  0  0  0  0  0  0  0  0  0  0
   -1.5852    0.7962   -1.0119 O   0  0  0  0  0  0  0  0  0  0  0  0
   -3.0825    0.5300   -3.3874 C   0  0  0  0  0  0  0  0  0  0  0  0
   -4.2368   -1.3038   -1.9587 H   0  0  0  0  0  0  0  0  0  0  0  0
   -1.7005   -1.0951   -3.5552 H   0  0  0  0  0  0  0  0  0  0  0  0
   -3.7655    0.9751   -2.6560 H   0  0  0  0  0  0  0  0  0  0  0  0
   -2.3676    1.2956   -3.7054 H   0  0  0  0  0  0  0  0  0  0  0  0
   -3.6634    0.2152   -4.2598 H   0  0  0  0  0  0  0  0  0  0  0  0
   -0.6647   -1.2505   -0.9861 N   0  0  0  0  0  0  0  0  0  0  0  0
   -0.5103   -1.4227    0.4794 C   0  0  0  0  0  0  0  0  0  0  0  0
   -1.6765   -1.0275    1.4142 C   0  0  0  0  0  0  0  0  0  0  0  0
   -1.5364   -1.1429    2.6238 O   0  0  0  0  0  0  0  0  0  0  0  0
   -0.6974   -2.1294   -1.5130 H   0  0  0  0  0  0  0  0  0  0  0  0
    0.3594   -0.8396    0.7958 H   0  0  0  0  0  0  0  0  0  0  0  0
   -0.2879   -2.4753    0.6762 H   0  0  0  0  0  0  0  0  0  0  0  0
   -2.9473   -0.8117    0.9191 N   0  0  0  0  0  0  0  0  0  0  0  0
   -4.1608   -0.5691    1.7016 C   0  0  2  0  0  0  0  0  0  0  0  0
   -5.4278   -0.8265    0.8538 C   0  0  0  0  0  0  0  0  0  0  0  0
   -5.3513   -0.9807   -0.3651 O   0  0  0  0  0  0  0  0  0  0  0  0
   -4.1400    0.8792    2.2043 C   0  0  0  0  0  0  0  0  0  0  0  0
   -2.9806   -0.5418   -0.0618 H   0  0  0  0  0  0  0  0  0  0  0  0
   -4.1838   -1.2513    2.5578 H   0  0  0  0  0  0  0  0  0  0  0  0
   -4.1054    1.5760    1.3602 H   0  0  0  0  0  0  0  0  0  0  0  0
   -5.0322    1.0949    2.7997 H   0  0  0  0  0  0  0  0  0  0  0  0
   -3.2601    1.0529    2.8321 H   0  0  0  0  0  0  0  0  0  0  0  0
   -6.6676   -0.9048    1.4604 N   0  0  0  0  0  0  0  0  0  0  0  0
   -7.9099   -1.1245    0.7291 C   0  0  0  0  0  0  0  0  0  0  0  0
   -6.7076   -0.7616    2.4659 H   0  0  0  0  0  0  0  0  0  0  0  0
   -8.0850   -0.3097    0.0184 H   0  0  0  0  0  0  0  0  0  0  0  0
   -7.8701   -2.0706    0.1790 H   0  0  0  0  0  0  0  0  0  0  0  0
   -8.7550   -1.1655    1.4233 H   0  0  0  0  0  0  0  0  0  0  0  0
  1  2  2  0  0  0  0
  1  3  1  0  0  0  0
  1  7  1  0  0  0  0
  3  4  1  0  0  0  0
  3  5  1  0  0  0  0
  3  6  1  0  0  0  0
  7  8  1  0  0  0  0
  7 12  1  0  0  0  0
  8  9  1  0  0  0  0
  8 11  1  0  0  0  0
  8 13  1  0  0  0  0
  9 10  2  0  0  0  0
  9 17  1  0  0  0  0
 11 14  1  0  0  0  0
 11 15  1  0  0  0  0
 11 16  1  0  0  0  0
 17 18  1  0  0  0  0
 17 21  1  0  0  0  0
 18 19  1  0  0  0  0
 18 22  1  0  0  0  0
 18 23  1  0  0  0  0
 19 20  2  0  0  0  0
 19 24  1  0  0  0  0
 24 25  1  0  0  0  0
 24 29  1  0  0  0  0
 25 26  1  0  0  0  0
 25 28  1  0  0  0  0
 25 30  1  0  0  0  0
 26 27  2  0  0  0  0
 26 34  1  0  0  0  0
 28 31  1  0  0  0  0
 28 32  1  0  0  0  0
 28 33  1  0  0  0  0
 34 35  1  0  0  0  0
 34 36  1  0  0  0  0
 35 37  1  0  0  0  0
 35 38  1  0  0  0  0
 35 39  1  0  0  0  0
M  END
$$$$

  -OEChem-05262216283D

 39 38  0     1  0  0  0  0  0999 V2000
   -2.9841   -3.0125   -2.2945 C   0  0  0  0  0  0  0  0  0  0  0  0
   -1.8353   -3.2624   -2.6303 O   0  0  0  0  0  0  0  0  0  0  0  0
   -3.9079   -4.1208   -1.8287 C   0  0  0  0  0  0  0  0  0  0  0  0
   -3.5006   -5.0958   -2.1102 H   0  0  0  0  0  0  0  0  0  0  0  0
   -4.0180   -4.0819   -0.7421 H   0  0  0  0  0  0  0  0  0  0  0  0
   -4.8926   -4.0045   -2.2880 H   0  0  0  0  0  0  0  0  0  0  0  0
   -3.3918   -1.6967   -2.2395 N   0  0  0  0  0  0  0  0  0  0  0  0
   -2.5472   -0.5496   -2.6163 C   0  0  2  0  0  0  0  0  0  0  0  0
   -1.5505   -0.1860   -1.4907 C   0  0  0  0  0  0  0  0  0  0  0  0
   -1.6774    0.8406   -0.8379 O   0  0  0  0  0  0  0  0  0  0  0  0
   -3.4904    0.6043   -2.9778 C   0  0  0  0  0  0  0  0  0  0  0  0
   -4.2881   -1.5190   -1.7730 H   0  0  0  0  0  0  0  0  0  0  0  0
   -1.9601   -0.7963   -3.5077 H   0  0  0  0  0  0  0  0  0  0  0  0
   -4.1126    0.8781   -2.1190 H   0  0  0  0  0  0  0  0  0  0  0  0
   -2.9158    1.4847   -3.2831 H   0  0  0  0  0  0  0  0  0  0  0  0
   -4.1447    0.3148   -3.8058 H   0  0  0  0  0  0  0  0  0  0  0  0
   -0.6493   -1.1462   -1.0624 N   0  0  0  0  0  0  0  0  0  0  0  0
   -0.3248   -1.3903    0.3628 C   0  0  0  0  0  0  0  0  0  0  0  0
   -1.4372   -1.1134    1.3950 C   0  0  0  0  0  0  0  0  0  0  0  0
   -1.1572   -0.9379    2.5725 O   0  0  0  0  0  0  0  0  0  0  0  0
   -0.6704   -1.9839   -1.6534 H   0  0  0  0  0  0  0  0  0  0  0  0
    0.5323   -0.7653    0.6316 H   0  0  0  0  0  0  0  0  0  0  0  0
   -0.0214   -2.4341    0.4800 H   0  0  0  0  0  0  0  0  0  0  0  0
   -2.7623   -1.2682    1.0326 N   0  0  0  0  0  0  0  0  0  0  0  0
   -3.9235   -0.9098    1.8522 C   0  0  2  0  0  0  0  0  0  0  0  0
   -5.2335   -1.3555    1.1651 C   0  0  0  0  0  0  0  0  0  0  0  0
   -5.2516   -1.6084   -0.0395 O   0  0  0  0  0  0  0  0  0  0  0  0
   -3.9527    0.6111    2.0593 C   0  0  0  0  0  0  0  0  0  0  0  0
   -2.9283   -1.3426    0.0322 H   0  0  0  0  0  0  0  0  0  0  0  0
   -3.8502   -1.4121    2.8223 H   0  0  0  0  0  0  0  0  0  0  0  0
   -3.9861    1.1273    1.0942 H   0  0  0  0  0  0  0  0  0  0  0  0
   -4.8308    0.9035    2.6424 H   0  0  0  0  0  0  0  0  0  0  0  0
   -3.0608    0.9463    2.5973 H   0  0  0  0  0  0  0  0  0  0  0  0
   -6.4042   -1.4691    1.8913 N   0  0  0  0  0  0  0  0  0  0  0  0
   -7.6781   -1.8669    1.3042 C   0  0  0  0  0  0  0  0  0  0  0  0
   -6.3681   -1.2399    2.8810 H   0  0  0  0  0  0  0  0  0  0  0  0
   -7.9651   -1.1743    0.5060 H   0  0  0  0  0  0  0  0  0  0  0  0
   -7.6091   -2.8770    0.8871 H   0  0  0  0  0  0  0  0  0  0  0  0
   -8.4647   -1.8609    2.0649 H   0  0  0  0  0  0  0  0  0  0  0  0
  1  2  2  0  0  0  0
  1  3  1  0  0  0  0
  1  7  1  0  0  0  0
  3  4  1  0  0  0  0
  3  5  1  0  0  0  0
  3  6  1  0  0  0  0
  7  8  1  0  0  0  0
  7 12  1  0  0  0  0
  8  9  1  0  0  0  0
  8 11  1  0  0  0  0
  8 13  1  0  0  0  0
  9 10  2  0  0  0  0
  9 17  1  0  0  0  0
 11 14  1  0  0  0  0
 11 15  1  0  0  0  0
 11 16  1  0  0  0  0
 17 18  1  0  0  0  0
 17 21  1  0  0  0  0
 18 19  1  0  0  0  0
 18 22  1  0  0  0  0
 18 23  1  0  0  0  0
 19 20  2  0  0  0  0
 19 24  1  0  0  0  0
 24 25  1  0  0  0  0
 24 29  1  0  0  0  0
 25 26  1  0  0  0  0
 25 28  1  0  0  0  0
 25 30  1  0  0  0  0
 26 27  2  0  0  0  0
 26 34  1  0  0  0  0
 28 31  1  0  0  0  0
 28 32  1  0  0  0  0
 28 33  1  0  0  0  0
 34 35  1  0  0  0  0
 34 36  1  0  0  0  0
 35 37  1  0  0  0  0
 35 38  1  0  0  0  0
 35 39  1  0  0  0  0
M  END
$$$$

  -OEChem-05262216283D

 39 38  0     1  0  0  0  0  0999 V2000
   -2.8571   -3.0586   -2.2739 C   0  0  0  0  0  0  0  0  0  0  0  0
   -1.7218   -3.1669   -2.7134 O   0  0  0  0  0  0  0  0  0  0  0  0
   -3.6199   -4.2854   -1.8132 C   0  0  0  0  0  0  0  0  0  0  0  0
   -3.1732   -5.1885   -2.2377 H   0  0  0  0  0  0  0  0  0  0  0  0
   -3.5927   -4.3539   -0.7229 H   0  0  0  0  0  0  0  0  0  0  0  0
   -4.6615   -4.2232   -2.1376 H   0  0  0  0  0  0  0  0  0  0  0  0
   -3.3835   -1.7975   -2.0925 N   0  0  0  0  0  0  0  0  0  0  0  0
   -2.7066   -0.5477   -2.4862 C   0  0  2  0  0  0  0  0  0  0  0  0
   -1.6400   -0.1157   -1.4503 C   0  0  0  0  0  0  0  0  0  0  0  0
   -1.7574    0.9196   -0.8095 O   0  0  0  0  0  0  0  0  0  0  0  0
   -3.7999    0.5075   -2.6939 C   0  0  0  0  0  0  0  0  0  0  0  0
   -4.2472   -1.7408   -1.5431 H   0  0  0  0  0  0  0  0  0  0  0  0
   -2.1922   -0.6910   -3.4427 H   0  0  0  0  0  0  0  0  0  0  0  0
   -4.3429    0.6888   -1.7605 H   0  0  0  0  0  0  0  0  0  0  0  0
   -3.3571    1.4519   -3.0261 H   0  0  0  0  0  0  0  0  0  0  0  0
   -4.5129    0.1740   -3.4540 H   0  0  0  0  0  0  0  0  0  0  0  0
   -0.6609   -1.0276   -1.0925 N   0  0  0  0  0  0  0  0  0  0  0  0
   -0.1852   -1.2182    0.2958 C   0  0  0  0  0  0  0  0  0  0  0  0
   -1.2315   -0.9408    1.3898 C   0  0  0  0  0  0  0  0  0  0  0  0
   -0.9002   -0.4966    2.4801 O   0  0  0  0  0  0  0  0  0  0  0  0
   -0.6718   -1.8665   -1.6818 H   0  0  0  0  0  0  0  0  0  0  0  0
    0.6651   -0.5516    0.4692 H   0  0  0  0  0  0  0  0  0  0  0  0
    0.1668   -2.2459    0.4192 H   0  0  0  0  0  0  0  0  0  0  0  0
   -2.5059   -1.4477    1.2180 N   0  0  0  0  0  0  0  0  0  0  0  0
   -3.6729   -1.0964    2.0362 C   0  0  2  0  0  0  0  0  0  0  0  0
   -4.9408   -1.7796    1.4803 C   0  0  0  0  0  0  0  0  0  0  0  0
   -4.9973   -2.1128    0.2967 O   0  0  0  0  0  0  0  0  0  0  0  0
   -3.9007    0.4238    2.0213 C   0  0  0  0  0  0  0  0  0  0  0  0
   -2.7101   -1.7678    0.2744 H   0  0  0  0  0  0  0  0  0  0  0  0
   -3.5084   -1.4346    3.0642 H   0  0  0  0  0  0  0  0  0  0  0  0
   -4.0037    0.7849    0.9928 H   0  0  0  0  0  0  0  0  0  0  0  0
   -4.8092    0.6823    2.5734 H   0  0  0  0  0  0  0  0  0  0  0  0
   -3.0626    0.9497    2.4880 H   0  0  0  0  0  0  0  0  0  0  0  0
   -6.0374   -1.9918    2.2942 N   0  0  0  0  0  0  0  0  0  0  0  0
   -7.2859   -2.5797    1.8246 C   0  0  0  0  0  0  0  0  0  0  0  0
   -5.9698   -1.6896    3.2624 H   0  0  0  0  0  0  0  0  0  0  0  0
   -7.7241   -1.9662    1.0303 H   0  0  0  0  0  0  0  0  0  0  0  0
   -7.1132   -3.5889    1.4367 H   0  0  0  0  0  0  0  0  0  0  0  0
   -8.0053   -2.6448    2.6466 H   0  0  0  0  0  0  0  0  0  0  0  0
  1  2  2  0  0  0  0
  1  3  1  0  0  0  0
  1  7  1  0  0  0  0
  3  4  1  0  0  0  0
  3  5  1  0  0  0  0
  3  6  1  0  0  0  0
  7  8  1  0  0  0  0
  7 12  1  0  0  0  0
  8  9  1  0  0  0  0
  8 11  1  0  0  0  0
  8 13  1  0  0  0  0
  9 10  2  0  0  0  0
  9 17  1  0  0  0  0
 11 14  1  0  0  0  0
 11 15  1  0  0  0  0
 11 16  1  0  0  0  0
 17 18  1  0  0  0  0
 17 21  1  0  0  0  0
 18 19  1  0  0  0  0
 18 22  1  0  0  0  0
 18 23  1  0  0  0  0
 19 20  2  0  0  0  0
 19 24  1  0  0  0  0
 24 25  1  0  0  0  0
 24 29  1  0  0  0  0
 25 26  1  0  0  0  0
 25 28  1  0  0  0  0
 25 30  1  0  0  0  0
 26 27  2  0  0  0  0
 26 34  1  0  0  0  0
 28 31  1  0  0  0  0
 28 32  1  0  0  0  0
 28 33  1  0  0  0  0
 34 35  1  0  0  0  0
 34 36  1  0  0  0  0
 35 37  1  0  0  0  0
 35 38  1  0  0  0  0
 35 39  1  0  0  0  0
M  END
$$$$

  -OEChem-05262216283D

 39 38  0     1  0  0  0  0  0999 V2000
   -2.8457   -2.9885   -2.3085 C   0  0  0  0  0  0  0  0  0  0  0  0
   -1.6431   -3.2091   -2.3416 O   0  0  0  0  0  0  0  0  0  0  0  0
   -3.8272   -4.1168   -2.0562 C   0  0  0  0  0  0  0  0  0  0  0  0
   -4.3343   -4.3848   -2.9861 H   0  0  0  0  0  0  0  0  0  0  0  0
   -3.3011   -4.9957   -1.6732 H   0  0  0  0  0  0  0  0  0  0  0  0
   -4.5743   -3.8100   -1.3201 H   0  0  0  0  0  0  0  0  0  0  0  0
   -3.2957   -1.6946   -2.4747 N   0  0  0  0  0  0  0  0  0  0  0  0
   -2.4158   -0.5408   -2.7252 C   0  0  2  0  0  0  0  0  0  0  0  0
   -1.6703   -0.0919   -1.4455 C   0  0  0  0  0  0  0  0  0  0  0  0
   -2.0057    0.9146   -0.8375 O   0  0  0  0  0  0  0  0  0  0  0  0
   -3.2764    0.5726   -3.3351 C   0  0  0  0  0  0  0  0  0  0  0  0
   -4.2873   -1.5271   -2.3233 H   0  0  0  0  0  0  0  0  0  0  0  0
   -1.6559   -0.8143   -3.4655 H   0  0  0  0  0  0  0  0  0  0  0  0
   -4.0684    0.8740   -2.6416 H   0  0  0  0  0  0  0  0  0  0  0  0
   -2.6593    1.4495   -3.5561 H   0  0  0  0  0  0  0  0  0  0  0  0
   -3.7376    0.2314   -4.2671 H   0  0  0  0  0  0  0  0  0  0  0  0
   -0.6704   -0.9105   -0.9478 N   0  0  0  0  0  0  0  0  0  0  0  0
   -0.2170   -0.9515    0.4581 C   0  0  0  0  0  0  0  0  0  0  0  0
   -1.2844   -0.6169    1.5108 C   0  0  0  0  0  0  0  0  0  0  0  0
   -1.0367    0.1404    2.4397 O   0  0  0  0  0  0  0  0  0  0  0  0
   -0.5754   -1.7827   -1.4776 H   0  0  0  0  0  0  0  0  0  0  0  0
    0.6051   -0.2397    0.5792 H   0  0  0  0  0  0  0  0  0  0  0  0
    0.1736   -1.9480    0.6807 H   0  0  0  0  0  0  0  0  0  0  0  0
   -2.4147   -1.4083    1.5668 N   0  0  0  0  0  0  0  0  0  0  0  0
   -3.5721   -1.1630    2.4334 C   0  0  2  0  0  0  0  0  0  0  0  0
   -4.6231   -2.2798    2.2639 C   0  0  0  0  0  0  0  0  0  0  0  0
   -4.6597   -2.9399    1.2280 O   0  0  0  0  0  0  0  0  0  0  0  0
   -4.2165    0.1842    2.0732 C   0  0  0  0  0  0  0  0  0  0  0  0
   -2.5663   -2.0301    0.7751 H   0  0  0  0  0  0  0  0  0  0  0  0
   -3.2431   -1.1476    3.4777 H   0  0  0  0  0  0  0  0  0  0  0  0
   -4.5022    0.1999    1.0165 H   0  0  0  0  0  0  0  0  0  0  0  0
   -5.1105    0.3569    2.6796 H   0  0  0  0  0  0  0  0  0  0  0  0
   -3.5210    1.0096    2.2531 H   0  0  0  0  0  0  0  0  0  0  0  0
   -5.5480   -2.5298    3.2610 N   0  0  0  0  0  0  0  0  0  0  0  0
   -6.5739   -3.5610    3.1647 C   0  0  0  0  0  0  0  0  0  0  0  0
   -5.4891   -1.9708    4.1078 H   0  0  0  0  0  0  0  0  0  0  0  0
   -7.2413   -3.3601    2.3201 H   0  0  0  0  0  0  0  0  0  0  0  0
   -6.1156   -4.5458    3.0260 H   0  0  0  0  0  0  0  0  0  0  0  0
   -7.1730   -3.5853    4.0800 H   0  0  0  0  0  0  0  0  0  0  0  0
  1  2  2  0  0  0  0
  1  3  1  0  0  0  0
  1  7  1  0  0  0  0
  3  4  1  0  0  0  0
  3  5  1  0  0  0  0
  3  6  1  0  0  0  0
  7  8  1  0  0  0  0
  7 12  1  0  0  0  0
  8  9  1  0  0  0  0
  8 11  1  0  0  0  0
  8 13  1  0  0  0  0
  9 10  2  0  0  0  0
  9 17  1  0  0  0  0
 11 14  1  0  0  0  0
 11 15  1  0  0  0  0
 11 16  1  0  0  0  0
 17 18  1  0  0  0  0
 17 21  1  0  0  0  0
 18 19  1  0  0  0  0
 18 22  1  0  0  0  0
 18 23  1  0  0  0  0
 19 20  2  0  0  0  0
 19 24  1  0  0  0  0
 24 25  1  0  0  0  0
 24 29  1  0  0  0  0
 25 26  1  0  0  0  0
 25 28  1  0  0  0  0
 25 30  1  0  0  0  0
 26 27  2  0  0  0  0
 26 34  1  0  0  0  0
 28 31  1  0  0  0  0
 28 32  1  0  0  0  0
 28 33  1  0  0  0  0
 34 35  1  0  0  0  0
 34 36  1  0  0  0  0
 35 37  1  0  0  0  0
 35 38  1  0  0  0  0
 35 39  1  0  0  0  0
M  END
$$$$

  -OEChem-05262216283D

 39 38  0     1  0  0  0  0  0999 V2000
   -3.0233   -2.9275   -2.2343 C   0  0  0  0  0  0  0  0  0  0  0  0
   -1.8397   -3.2057   -2.3671 O   0  0  0  0  0  0  0  0  0  0  0  0
   -4.0154   -3.9818   -1.7830 C   0  0  0  0  0  0  0  0  0  0  0  0
   -4.8024   -4.0991   -2.5317 H   0  0  0  0  0  0  0  0  0  0  0  0
   -3.5104   -4.9425   -1.6495 H   0  0  0  0  0  0  0  0  0  0  0  0
   -4.4678   -3.6896   -0.8317 H   0  0  0  0  0  0  0  0  0  0  0  0
   -3.4372   -1.6274   -2.4422 N   0  0  0  0  0  0  0  0  0  0  0  0
   -2.5342   -0.5236   -2.8090 C   0  0  2  0  0  0  0  0  0  0  0  0
   -1.6869   -0.0523   -1.6028 C   0  0  0  0  0  0  0  0  0  0  0  0
   -1.9505    0.9861   -1.0149 O   0  0  0  0  0  0  0  0  0  0  0  0
   -3.3945    0.5962   -3.4072 C   0  0  0  0  0  0  0  0  0  0  0  0
   -4.4012   -1.4057   -2.2075 H   0  0  0  0  0  0  0  0  0  0  0  0
   -1.8389   -0.8598   -3.5861 H   0  0  0  0  0  0  0  0  0  0  0  0
   -4.1190    0.9624   -2.6723 H   0  0  0  0  0  0  0  0  0  0  0  0
   -2.7624    1.4351   -3.7157 H   0  0  0  0  0  0  0  0  0  0  0  0
   -3.9381    0.2324   -4.2844 H   0  0  0  0  0  0  0  0  0  0  0  0
   -0.6929   -0.8950   -1.1351 N   0  0  0  0  0  0  0  0  0  0  0  0
   -0.1754   -0.9220    0.2476 C   0  0  0  0  0  0  0  0  0  0  0  0
   -1.1809   -0.5271    1.3401 C   0  0  0  0  0  0  0  0  0  0  0  0
   -0.9498    0.4013    2.1029 O   0  0  0  0  0  0  0  0  0  0  0  0
   -0.6682   -1.7867   -1.6396 H   0  0  0  0  0  0  0  0  0  0  0  0
    0.6742   -0.2354    0.3134 H   0  0  0  0  0  0  0  0  0  0  0  0
    0.1954   -1.9251    0.4751 H   0  0  0  0  0  0  0  0  0  0  0  0
   -2.1626   -1.4376    1.6780 N   0  0  0  0  0  0  0  0  0  0  0  0
   -3.2178   -1.2167    2.6730 C   0  0  2  0  0  0  0  0  0  0  0  0
   -4.0931   -2.4789    2.8163 C   0  0  0  0  0  0  0  0  0  0  0  0
   -4.1507   -3.2932    1.8984 O   0  0  0  0  0  0  0  0  0  0  0  0
   -4.1045   -0.0376    2.2439 C   0  0  0  0  0  0  0  0  0  0  0  0
   -2.2965   -2.2221    1.0421 H   0  0  0  0  0  0  0  0  0  0  0  0
   -2.7587   -0.9975    3.6426 H   0  0  0  0  0  0  0  0  0  0  0  0
   -4.5281   -0.2196    1.2510 H   0  0  0  0  0  0  0  0  0  0  0  0
   -4.9254    0.1038    2.9531 H   0  0  0  0  0  0  0  0  0  0  0  0
   -3.5262    0.8909    2.2068 H   0  0  0  0  0  0  0  0  0  0  0  0
   -4.8328   -2.6967    3.9637 N   0  0  0  0  0  0  0  0  0  0  0  0
   -5.6704   -3.8727    4.1654 C   0  0  0  0  0  0  0  0  0  0  0  0
   -4.7556   -2.0115    4.7103 H   0  0  0  0  0  0  0  0  0  0  0  0
   -6.4292   -3.9421    3.3790 H   0  0  0  0  0  0  0  0  0  0  0  0
   -5.0628   -4.7836    4.1500 H   0  0  0  0  0  0  0  0  0  0  0  0
   -6.1802   -3.8138    5.1318 H   0  0  0  0  0  0  0  0  0  0  0  0
  1  2  2  0  0  0  0
  1  3  1  0  0  0  0
  1  7  1  0  0  0  0
  3  4  1  0  0  0  0
  3  5  1  0  0  0  0
  3  6  1  0  0  0  0
  7  8  1  0  0  0  0
  7 12  1  0  0  0  0
  8  9  1  0  0  0  0
  8 11  1  0  0  0  0
  8 13  1  0  0  0  0
  9 10  2  0  0  0  0
  9 17  1  0  0  0  0
 11 14  1  0  0  0  0
 11 15  1  0  0  0  0
 11 16  1  0  0  0  0
 17 18  1  0  0  0  0
 17 21  1  0  0  0  0
 18 19  1  0  0  0  0
 18 22  1  0  0  0  0
 18 23  1  0  0  0  0
 19 20  2  0  0  0  0
 19 24  1  0  0  0  0
 24 25  1  0  0  0  0
 24 29  1  0  0  0  0
 25 26  1  0  0  0  0
 25 28  1  0  0  0  0
 25 30  1  0  0  0  0
 26 27  2  0  0  0  0
 26 34  1  0  0  0  0
 28 31  1  0  0  0  0
 28 32  1  0  0  0  0
 28 33  1  0  0  0  0
 34 35  1  0  0  0  0
 34 36  1  0  0  0  0
 35 37  1  0  0  0  0
 35 38  1  0  0  0  0
 35 39  1  0  0  0  0
M  END
$$$$

  -OEChem-05262216283D

 39 38  0     1  0  0  0  0  0999 V2000
   -2.9058   -2.7778   -3.6141 C   0  0  0  0  0  0  0  0  0  0  0  0
   -1.7135   -3.0004   -3.4632 O   0  0  0  0  0  0  0  0  0  0  0  0
   -3.8544   -3.9000   -3.9903 C   0  0  0  0  0  0  0  0  0  0  0  0
   -4.3474   -3.6709   -4.9383 H   0  0  0  0  0  0  0  0  0  0  0  0
   -3.3040   -4.8390   -4.0985 H   0  0  0  0  0  0  0  0  0  0  0  0
   -4.6127   -4.0246   -3.2134 H   0  0  0  0  0  0  0  0  0  0  0  0
   -3.3926   -1.5074   -3.3844 N   0  0  0  0  0  0  0  0  0  0  0  0
   -2.5548   -0.3504   -3.0280 C   0  0  2  0  0  0  0  0  0  0  0  0
   -2.1201   -0.3582   -1.5404 C   0  0  0  0  0  0  0  0  0  0  0  0
   -2.4480    0.5456   -0.7872 O   0  0  0  0  0  0  0  0  0  0  0  0
   -3.3367    0.9108   -3.4194 C   0  0  0  0  0  0  0  0  0  0  0  0
   -4.3981   -1.3752   -3.4468 H   0  0  0  0  0  0  0  0  0  0  0  0
   -1.6369   -0.3683   -3.6257 H   0  0  0  0  0  0  0  0  0  0  0  0
   -4.2715    0.9775   -2.8532 H   0  0  0  0  0  0  0  0  0  0  0  0
   -2.7422    1.8061   -3.2096 H   0  0  0  0  0  0  0  0  0  0  0  0
   -3.5726    0.8974   -4.4879 H   0  0  0  0  0  0  0  0  0  0  0  0
   -1.3700   -1.4282   -1.0820 N   0  0  0  0  0  0  0  0  0  0  0  0
   -0.7395   -1.6012    0.2432 C   0  0  0  0  0  0  0  0  0  0  0  0
   -1.4102   -0.9363    1.4582 C   0  0  0  0  0  0  0  0  0  0  0  0
   -0.8895    0.0390    1.9851 O   0  0  0  0  0  0  0  0  0  0  0  0
   -1.1609   -2.1265   -1.8023 H   0  0  0  0  0  0  0  0  0  0  0  0
    0.2811   -1.2107    0.1863 H   0  0  0  0  0  0  0  0  0  0  0  0
   -0.6654   -2.6709    0.4554 H   0  0  0  0  0  0  0  0  0  0  0  0
   -2.3648   -1.6335    2.1742 N   0  0  0  0  0  0  0  0  0  0  0  0
   -2.9393   -1.1984    3.4525 C   0  0  2  0  0  0  0  0  0  0  0  0
   -3.5810   -2.3744    4.2174 C   0  0  0  0  0  0  0  0  0  0  0  0
   -3.8323   -3.4271    3.6388 O   0  0  0  0  0  0  0  0  0  0  0  0
   -3.9815   -0.1078    3.1781 C   0  0  0  0  0  0  0  0  0  0  0  0
   -2.7205   -2.5000    1.7746 H   0  0  0  0  0  0  0  0  0  0  0  0
   -2.1444   -0.7885    4.0843 H   0  0  0  0  0  0  0  0  0  0  0  0
   -4.7868   -0.4981    2.5478 H   0  0  0  0  0  0  0  0  0  0  0  0
   -4.4151    0.2547    4.1147 H   0  0  0  0  0  0  0  0  0  0  0  0
   -3.5190    0.7406    2.6629 H   0  0  0  0  0  0  0  0  0  0  0  0
   -3.8688   -2.2575    5.5650 N   0  0  0  0  0  0  0  0  0  0  0  0
   -4.4400   -3.3384    6.3591 C   0  0  0  0  0  0  0  0  0  0  0  0
   -3.6321   -1.3812    6.0217 H   0  0  0  0  0  0  0  0  0  0  0  0
   -5.4193   -3.6281    5.9641 H   0  0  0  0  0  0  0  0  0  0  0  0
   -3.7816   -4.2134    6.3454 H   0  0  0  0  0  0  0  0  0  0  0  0
   -4.5673   -3.0184    7.3977 H   0  0  0  0  0  0  0  0  0  0  0  0
  1  2  2  0  0  0  0
  1  3  1  0  0  0  0
  1  7  1  0  0  0  0
  3  4  1  0  0  0  0
  3  5  1  0  0  0  0
  3  6  1  0  0  0  0
  7  8  1  0  0  0  0
  7 12  1  0  0  0  0
  8  9  1  0  0  0  0
  8 11  1  0  0  0  0
  8 13  1  0  0  0  0
  9 10  2  0  0  0  0
  9 17  1  0  0  0  0
 11 14  1  0  0  0  0
 11 15  1  0  0  0  0
 11 16  1  0  0  0  0
 17 18  1  0  0  0  0
 17 21  1  0  0  0  0
 18 19  1  0  0  0  0
 18 22  1  0  0  0  0
 18 23  1  0  0  0  0
 19 20  2  0  0  0  0
 19 24  1  0  0  0  0
 24 25  1  0  0  0  0
 24 29  1  0  0  0  0
 25 26  1  0  0  0  0
 25 28  1  0  0  0  0
 25 30  1  0  0  0  0
 26 27  2  0  0  0  0
 26 34  1  0  0  0  0
 28 31  1  0  0  0  0
 28 32  1  0  0  0  0
 28 33  1  0  0  0  0
 34 35  1  0  0  0  0
 34 36  1  0  0  0  0
 35 37  1  0  0  0  0
 35 38  1  0  0  0  0
 35 39  1  0  0  0  0
M  END
$$$$

  -OEChem-05262216283D

 39 38  0     1  0  0  0  0  0999 V2000
   -3.0266   -2.8183   -3.6480 C   0  0  0  0  0  0  0  0  0  0  0  0
   -1.8741   -3.1364   -3.3935 O   0  0  0  0  0  0  0  0  0  0  0  0
   -4.0307   -3.8656   -4.0913 C   0  0  0  0  0  0  0  0  0  0  0  0
   -4.4423   -3.5994   -5.0682 H   0  0  0  0  0  0  0  0  0  0  0  0
   -3.5460   -4.8430   -4.1694 H   0  0  0  0  0  0  0  0  0  0  0  0
   -4.8458   -3.9345   -3.3663 H   0  0  0  0  0  0  0  0  0  0  0  0
   -3.4208   -1.5070   -3.4786 N   0  0  0  0  0  0  0  0  0  0  0  0
   -2.5169   -0.4173   -3.0745 C   0  0  2  0  0  0  0  0  0  0  0  0
   -2.2023   -0.4228   -1.5565 C   0  0  0  0  0  0  0  0  0  0  0  0
   -2.5229    0.5190   -0.8494 O   0  0  0  0  0  0  0  0  0  0  0  0
   -3.1513    0.8969   -3.5494 C   0  0  0  0  0  0  0  0  0  0  0  0
   -4.4017   -1.2897   -3.6317 H   0  0  0  0  0  0  0  0  0  0  0  0
   -1.5597   -0.5275   -3.5957 H   0  0  0  0  0  0  0  0  0  0  0  0
   -4.1141    1.0614   -3.0548 H   0  0  0  0  0  0  0  0  0  0  0  0
   -2.4944    1.7410   -3.3144 H   0  0  0  0  0  0  0  0  0  0  0  0
   -3.3108    0.8763   -4.6318 H   0  0  0  0  0  0  0  0  0  0  0  0
   -1.5794   -1.5365   -1.0189 N   0  0  0  0  0  0  0  0  0  0  0  0
   -0.9833   -1.6959    0.3246 C   0  0  0  0  0  0  0  0  0  0  0  0
   -1.5693   -0.8960    1.5034 C   0  0  0  0  0  0  0  0  0  0  0  0
   -1.0612    0.1682    1.8334 O   0  0  0  0  0  0  0  0  0  0  0  0
   -1.3824   -2.2678   -1.7088 H   0  0  0  0  0  0  0  0  0  0  0  0
    0.0746   -1.4248    0.2575 H   0  0  0  0  0  0  0  0  0  0  0  0
   -1.0281   -2.7547    0.5934 H   0  0  0  0  0  0  0  0  0  0  0  0
   -2.3596   -1.5454    2.4338 N   0  0  0  0  0  0  0  0  0  0  0  0
   -2.7369   -1.0028    3.7444 C   0  0  2  0  0  0  0  0  0  0  0  0
   -3.0640   -2.1269    4.7490 C   0  0  0  0  0  0  0  0  0  0  0  0
   -3.2420   -3.2761    4.3571 O   0  0  0  0  0  0  0  0  0  0  0  0
   -3.9431   -0.0765    3.5582 C   0  0  0  0  0  0  0  0  0  0  0  0
   -2.6530   -2.4986    2.2269 H   0  0  0  0  0  0  0  0  0  0  0  0
   -1.9015   -0.4280    4.1582 H   0  0  0  0  0  0  0  0  0  0  0  0
   -4.7873   -0.6286    3.1333 H   0  0  0  0  0  0  0  0  0  0  0  0
   -4.2516    0.3513    4.5165 H   0  0  0  0  0  0  0  0  0  0  0  0
   -3.6891    0.7454    2.8806 H   0  0  0  0  0  0  0  0  0  0  0  0
   -3.1385   -1.8534    6.1023 N   0  0  0  0  0  0  0  0  0  0  0  0
   -3.3812   -2.8748    7.1137 C   0  0  0  0  0  0  0  0  0  0  0  0
   -2.9489   -0.9002    6.3985 H   0  0  0  0  0  0  0  0  0  0  0  0
   -4.3232   -3.3965    6.9142 H   0  0  0  0  0  0  0  0  0  0  0  0
   -2.5671   -3.6071    7.1199 H   0  0  0  0  0  0  0  0  0  0  0  0
   -3.4442   -2.4185    8.1062 H   0  0  0  0  0  0  0  0  0  0  0  0
  1  2  2  0  0  0  0
  1  3  1  0  0  0  0
  1  7  1  0  0  0  0
  3  4  1  0  0  0  0
  3  5  1  0  0  0  0
  3  6  1  0  0  0  0
  7  8  1  0  0  0  0
  7 12  1  0  0  0  0
  8  9  1  0  0  0  0
  8 11  1  0  0  0  0
  8 13  1  0  0  0  0
  9 10  2  0  0  0  0
  9 17  1  0  0  0  0
 11 14  1  0  0  0  0
 11 15  1  0  0  0  0
 11 16  1  0  0  0  0
 17 18  1  0  0  0  0
 17 21  1  0  0  0  0
 18 19  1  0  0  0  0
 18 22  1  0  0  0  0
 18 23  1  0  0  0  0
 19 20  2  0  0  0  0
 19 24  1  0  0  0  0
 24 25  1  0  0  0  0
 24 29  1  0  0  0  0
 25 26  1  0  0  0  0
 25 28  1  0  0  0  0
 25 30  1  0  0  0  0
 26 27  2  0  0  0  0
 26 34  1  0  0  0  0
 28 31  1  0  0  0  0
 28 32  1  0  0  0  0
 28 33  1  0  0  0  0
 34 35  1  0  0  0  0
 34 36  1  0  0  0  0
 35 37  1  0  0  0  0
 35 38  1  0  0  0  0
 35 39  1  0  0  0  0
M  END
$$$$

  -OEChem-05262216283D

 39 38  0     1  0  0  0  0  0999 V2000
   -3.2992   -2.8836   -3.0098 C   0  0  0  0  0  0  0  0  0  0  0  0
   -2.1778   -3.3328   -2.8211 O   0  0  0  0  0  0  0  0  0  0  0  0
   -4.5068   -3.8012   -2.9822 C   0  0  0  0  0  0  0  0  0  0  0  0
   -5.0748   -3.7003   -3.9102 H   0  0  0  0  0  0  0  0  0  0  0  0
   -4.1870   -4.8417   -2.8777 H   0  0  0  0  0  0  0  0  0  0  0  0
   -5.1518   -3.5451   -2.1379 H   0  0  0  0  0  0  0  0  0  0  0  0
   -3.4658   -1.5247   -3.1816 N   0  0  0  0  0  0  0  0  0  0  0  0
   -2.3631   -0.5513   -3.1433 C   0  0  2  0  0  0  0  0  0  0  0  0
   -1.8810   -0.2728   -1.6977 C   0  0  0  0  0  0  0  0  0  0  0  0
   -2.1152    0.7964   -1.1610 O   0  0  0  0  0  0  0  0  0  0  0  0
   -2.8356    0.7120   -3.8746 C   0  0  0  0  0  0  0  0  0  0  0  0
   -4.4183   -1.1725   -3.2199 H   0  0  0  0  0  0  0  0  0  0  0  0
   -1.5065   -0.9493   -3.6980 H   0  0  0  0  0  0  0  0  0  0  0  0
   -3.6921    1.1602   -3.3606 H   0  0  0  0  0  0  0  0  0  0  0  0
   -2.0291    1.4515   -3.9099 H   0  0  0  0  0  0  0  0  0  0  0  0
   -3.1283    0.4724   -4.9012 H   0  0  0  0  0  0  0  0  0  0  0  0
   -1.2153   -1.2898   -1.0347 N   0  0  0  0  0  0  0  0  0  0  0  0
   -0.7622   -1.3514    0.3718 C   0  0  0  0  0  0  0  0  0  0  0  0
   -1.5436   -0.5927    1.4645 C   0  0  0  0  0  0  0  0  0  0  0  0
   -1.3594    0.5993    1.6662 O   0  0  0  0  0  0  0  0  0  0  0  0
   -1.1806   -2.1626   -1.5699 H   0  0  0  0  0  0  0  0  0  0  0  0
    0.2635   -0.9716    0.4079 H   0  0  0  0  0  0  0  0  0  0  0  0
   -0.7234   -2.4038    0.6650 H   0  0  0  0  0  0  0  0  0  0  0  0
   -2.0944   -1.3199    2.5048 N   0  0  0  0  0  0  0  0  0  0  0  0
   -2.5933   -0.7542    3.7649 C   0  0  2  0  0  0  0  0  0  0  0  0
   -2.6425   -1.8214    4.8784 C   0  0  0  0  0  0  0  0  0  0  0  0
   -2.5048   -3.0089    4.6014 O   0  0  0  0  0  0  0  0  0  0  0  0
   -3.9890   -0.1694    3.5216 C   0  0  0  0  0  0  0  0  0  0  0  0
   -2.0852   -2.3363    2.4329 H   0  0  0  0  0  0  0  0  0  0  0  0
   -1.9198    0.0418    4.1007 H   0  0  0  0  0  0  0  0  0  0  0  0
   -4.6741   -0.9486    3.1727 H   0  0  0  0  0  0  0  0  0  0  0  0
   -4.3910    0.2638    4.4420 H   0  0  0  0  0  0  0  0  0  0  0  0
   -3.9432    0.6192    2.7638 H   0  0  0  0  0  0  0  0  0  0  0  0
   -2.8341   -1.4512    6.1968 N   0  0  0  0  0  0  0  0  0  0  0  0
   -2.8571   -2.4022    7.3015 C   0  0  0  0  0  0  0  0  0  0  0  0
   -2.9167   -0.4588    6.3984 H   0  0  0  0  0  0  0  0  0  0  0  0
   -3.6164   -3.1724    7.1301 H   0  0  0  0  0  0  0  0  0  0  0  0
   -1.8814   -2.8871    7.4089 H   0  0  0  0  0  0  0  0  0  0  0  0
   -3.0943   -1.8887    8.2381 H   0  0  0  0  0  0  0  0  0  0  0  0
  1  2  2  0  0  0  0
  1  3  1  0  0  0  0
  1  7  1  0  0  0  0
  3  4  1  0  0  0  0
  3  5  1  0  0  0  0
  3  6  1  0  0  0  0
  7  8  1  0  0  0  0
  7 12  1  0  0  0  0
  8  9  1  0  0  0  0
  8 11  1  0  0  0  0
  8 13  1  0  0  0  0
  9 10  2  0  0  0  0
  9 17  1  0  0  0  0
 11 14  1  0  0  0  0
 11 15  1  0  0  0  0
 11 16  1  0  0  0  0
 17 18  1  0  0  0  0
 17 21  1  0  0  0  0
 18 19  1  0  0  0  0
 18 22  1  0  0  0  0
 18 23  1  0  0  0  0
 19 20  2  0  0  0  0
 19 24  1  0  0  0  0
 24 25  1  0  0  0  0
 24 29  1  0  0  0  0
 25 26  1  0  0  0  0
 25 28  1  0  0  0  0
 25 30  1  0  0  0  0
 26 27  2  0  0  0  0
 26 34  1  0  0  0  0
 28 31  1  0  0  0  0
 28 32  1  0  0  0  0
 28 33  1  0  0  0  0
 34 35  1  0  0  0  0
 34 36  1  0  0  0  0
 35 37  1  0  0  0  0
 35 38  1  0  0  0  0
 35 39  1  0  0  0  0
M  END
$$$$

  -OEChem-05262216283D

 39 38  0     1  0  0  0  0  0999 V2000
   -3.5464   -2.1933   -1.8362 C   0  0  0  0  0  0  0  0  0  0  0  0
   -2.7088   -3.0368   -2.1273 O   0  0  0  0  0  0  0  0  0  0  0  0
   -4.7404   -2.5651   -0.9801 C   0  0  0  0  0  0  0  0  0  0  0  0
   -5.6637   -2.4210   -1.5466 H   0  0  0  0  0  0  0  0  0  0  0  0
   -4.6738   -3.6119   -0.6710 H   0  0  0  0  0  0  0  0  0  0  0  0
   -4.7661   -1.9343   -0.0884 H   0  0  0  0  0  0  0  0  0  0  0  0
   -3.3532   -0.8787   -2.2041 N   0  0  0  0  0  0  0  0  0  0  0  0
   -2.1032   -0.3963   -2.8066 C   0  0  2  0  0  0  0  0  0  0  0  0
   -0.9912   -0.2922   -1.7385 C   0  0  0  0  0  0  0  0  0  0  0  0
   -0.5267    0.7825   -1.3819 O   0  0  0  0  0  0  0  0  0  0  0  0
   -2.4028    0.9424   -3.4918 C   0  0  0  0  0  0  0  0  0  0  0  0
   -3.9168   -0.1951   -1.7031 H   0  0  0  0  0  0  0  0  0  0  0  0
   -1.7620   -1.0970   -3.5760 H   0  0  0  0  0  0  0  0  0  0  0  0
   -2.7516    1.6809   -2.7622 H   0  0  0  0  0  0  0  0  0  0  0  0
   -1.4992    1.3317   -3.9717 H   0  0  0  0  0  0  0  0  0  0  0  0
   -3.1736    0.8149   -4.2577 H   0  0  0  0  0  0  0  0  0  0  0  0
   -0.4647   -1.4410   -1.1789 N   0  0  0  0  0  0  0  0  0  0  0  0
   -0.5129   -1.6749    0.2798 C   0  0  0  0  0  0  0  0  0  0  0  0
   -1.6776   -1.0998    1.1275 C   0  0  0  0  0  0  0  0  0  0  0  0
   -2.2793   -0.0671    0.8660 O   0  0  0  0  0  0  0  0  0  0  0  0
   -0.8071   -2.2527   -1.6988 H   0  0  0  0  0  0  0  0  0  0  0  0
    0.4088   -1.2698    0.7083 H   0  0  0  0  0  0  0  0  0  0  0  0
   -0.4918   -2.7567    0.4375 H   0  0  0  0  0  0  0  0  0  0  0  0
   -2.2609   -1.9367    2.0639 N   0  0  0  0  0  0  0  0  0  0  0  0
   -3.2017   -1.4658    3.0932 C   0  0  2  0  0  0  0  0  0  0  0  0
   -2.4929   -1.3014    4.4536 C   0  0  0  0  0  0  0  0  0  0  0  0
   -1.5647   -2.0467    4.7477 O   0  0  0  0  0  0  0  0  0  0  0  0
   -4.3304   -2.4926    3.2088 C   0  0  0  0  0  0  0  0  0  0  0  0
   -1.6880   -2.7325    2.3391 H   0  0  0  0  0  0  0  0  0  0  0  0
   -3.6380   -0.4998    2.8190 H   0  0  0  0  0  0  0  0  0  0  0  0
   -3.9313   -3.4699    3.4995 H   0  0  0  0  0  0  0  0  0  0  0  0
   -5.0575   -2.1766    3.9633 H   0  0  0  0  0  0  0  0  0  0  0  0
   -4.8492   -2.5983    2.2520 H   0  0  0  0  0  0  0  0  0  0  0  0
   -2.9130   -0.3444    5.3584 N   0  0  0  0  0  0  0  0  0  0  0  0
   -2.2439   -0.1073    6.6322 C   0  0  0  0  0  0  0  0  0  0  0  0
   -3.6234    0.3126    5.0487 H   0  0  0  0  0  0  0  0  0  0  0  0
   -2.2322   -1.0208    7.2362 H   0  0  0  0  0  0  0  0  0  0  0  0
   -1.2116    0.2191    6.4674 H   0  0  0  0  0  0  0  0  0  0  0  0
   -2.7681    0.6705    7.1961 H   0  0  0  0  0  0  0  0  0  0  0  0
  1  2  2  0  0  0  0
  1  3  1  0  0  0  0
  1  7  1  0  0  0  0
  3  4  1  0  0  0  0
  3  5  1  0  0  0  0
  3  6  1  0  0  0  0
  7  8  1  0  0  0  0
  7 12  1  0  0  0  0
  8  9  1  0  0  0  0
  8 11  1  0  0  0  0
  8 13  1  0  0  0  0
  9 10  2  0  0  0  0
  9 17  1  0  0  0  0
 11 14  1  0  0  0  0
 11 15  1  0  0  0  0
 11 16  1  0  0  0  0
 17 18  1  0  0  0  0
 17 21  1  0  0  0  0
 18 19  1  0  0  0  0
 18 22  1  0  0  0  0
 18 23  1  0  0  0  0
 19 20  2  0  0  0  0
 19 24  1  0  0  0  0
 24 25  1  0  0  0  0
 24 29  1  0  0  0  0
 25 26  1  0  0  0  0
 25 28  1  0  0  0  0
 25 30  1  0  0  0  0
 26 27  2  0  0  0  0
 26 34  1  0  0  0  0
 28 31  1  0  0  0  0
 28 32  1  0  0  0  0
 28 33  1  0  0  0  0
 34 35  1  0  0  0  0
 34 36  1  0  0  0  0
 35 37  1  0  0  0  0
 35 38  1  0  0  0  0
 35 39  1  0  0  0  0
M  END
$$$$

  -OEChem-05262216283D

 39 38  0     1  0  0  0  0  0999 V2000
   -3.3350   -2.4934   -1.7666 C   0  0  0  0  0  0  0  0  0  0  0  0
   -2.3526   -3.1970   -1.9630 O   0  0  0  0  0  0  0  0  0  0  0  0
   -4.4588   -2.9835   -0.8746 C   0  0  0  0  0  0  0  0  0  0  0  0
   -5.3754   -3.0973   -1.4582 H   0  0  0  0  0  0  0  0  0  0  0  0
   -4.1978   -3.9495   -0.4337 H   0  0  0  0  0  0  0  0  0  0  0  0
   -4.6342   -2.2648   -0.0706 H   0  0  0  0  0  0  0  0  0  0  0  0
   -3.3791   -1.2170   -2.2875 N   0  0  0  0  0  0  0  0  0  0  0  0
   -2.2165   -0.5837   -2.9248 C   0  0  2  0  0  0  0  0  0  0  0  0
   -1.1820   -0.1594   -1.8582 C   0  0  0  0  0  0  0  0  0  0  0  0
   -0.9548    1.0156   -1.5966 O   0  0  0  0  0  0  0  0  0  0  0  0
   -2.7243    0.5926   -3.7668 C   0  0  0  0  0  0  0  0  0  0  0  0
   -4.0576   -0.5954   -1.8523 H   0  0  0  0  0  0  0  0  0  0  0  0
   -1.7275   -1.2919   -3.6020 H   0  0  0  0  0  0  0  0  0  0  0  0
   -3.2201    1.3357   -3.1335 H   0  0  0  0  0  0  0  0  0  0  0  0
   -1.8878    1.0784   -4.2794 H   0  0  0  0  0  0  0  0  0  0  0  0
   -3.4366    0.2428   -4.5202 H   0  0  0  0  0  0  0  0  0  0  0  0
   -0.4647   -1.1242   -1.1762 N   0  0  0  0  0  0  0  0  0  0  0  0
   -0.4211   -1.1459    0.3006 C   0  0  0  0  0  0  0  0  0  0  0  0
   -1.6239   -0.6310    1.1334 C   0  0  0  0  0  0  0  0  0  0  0  0
   -2.5931   -0.0536    0.6535 O   0  0  0  0  0  0  0  0  0  0  0  0
   -0.6758   -2.0449   -1.5695 H   0  0  0  0  0  0  0  0  0  0  0  0
    0.4450   -0.5539    0.6105 H   0  0  0  0  0  0  0  0  0  0  0  0
   -0.2335   -2.1789    0.6063 H   0  0  0  0  0  0  0  0  0  0  0  0
   -1.8242   -1.2117    2.3729 N   0  0  0  0  0  0  0  0  0  0  0  0
   -2.8610   -0.7873    3.3247 C   0  0  2  0  0  0  0  0  0  0  0  0
   -2.2700   -0.5994    4.7372 C   0  0  0  0  0  0  0  0  0  0  0  0
   -1.1956   -1.1170    5.0241 O   0  0  0  0  0  0  0  0  0  0  0  0
   -3.9641   -1.8477    3.3408 C   0  0  0  0  0  0  0  0  0  0  0  0
   -1.0098   -1.6612    2.7919 H   0  0  0  0  0  0  0  0  0  0  0  0
   -3.2890    0.1739    3.0207 H   0  0  0  0  0  0  0  0  0  0  0  0
   -3.5590   -2.8169    3.6488 H   0  0  0  0  0  0  0  0  0  0  0  0
   -4.7577   -1.5644    4.0384 H   0  0  0  0  0  0  0  0  0  0  0  0
   -4.4021   -1.9525    2.3441 H   0  0  0  0  0  0  0  0  0  0  0  0
   -2.9356    0.1568    5.6840 N   0  0  0  0  0  0  0  0  0  0  0  0
   -2.4000    0.4191    7.0147 C   0  0  0  0  0  0  0  0  0  0  0  0
   -3.7917    0.6226    5.3975 H   0  0  0  0  0  0  0  0  0  0  0  0
   -2.2181   -0.5204    7.5474 H   0  0  0  0  0  0  0  0  0  0  0  0
   -1.4580    0.9735    6.9455 H   0  0  0  0  0  0  0  0  0  0  0  0
   -3.1096    1.0136    7.5983 H   0  0  0  0  0  0  0  0  0  0  0  0
  1  2  2  0  0  0  0
  1  3  1  0  0  0  0
  1  7  1  0  0  0  0
  3  4  1  0  0  0  0
  3  5  1  0  0  0  0
  3  6  1  0  0  0  0
  7  8  1  0  0  0  0
  7 12  1  0  0  0  0
  8  9  1  0  0  0  0
  8 11  1  0  0  0  0
  8 13  1  0  0  0  0
  9 10  2  0  0  0  0
  9 17  1  0  0  0  0
 11 14  1  0  0  0  0
 11 15  1  0  0  0  0
 11 16  1  0  0  0  0
 17 18  1  0  0  0  0
 17 21  1  0  0  0  0
 18 19  1  0  0  0  0
 18 22  1  0  0  0  0
 18 23  1  0  0  0  0
 19 20  2  0  0  0  0
 19 24  1  0  0  0  0
 24 25  1  0  0  0  0
 24 29  1  0  0  0  0
 25 26  1  0  0  0  0
 25 28  1  0  0  0  0
 25 30  1  0  0  0  0
 26 27  2  0  0  0  0
 26 34  1  0  0  0  0
 28 31  1  0  0  0  0
 28 32  1  0  0  0  0
 28 33  1  0  0  0  0
 34 35  1  0  0  0  0
 34 36  1  0  0  0  0
 35 37  1  0  0  0  0
 35 38  1  0  0  0  0
 35 39  1  0  0  0  0
M  END
$$$$

  -OEChem-05262216283D

 39 38  0     1  0  0  0  0  0999 V2000
   -3.3946   -2.5180   -1.7464 C   0  0  0  0  0  0  0  0  0  0  0  0
   -2.4559   -3.2687   -1.9793 O   0  0  0  0  0  0  0  0  0  0  0  0
   -4.5097   -2.9532   -0.8154 C   0  0  0  0  0  0  0  0  0  0  0  0
   -5.4580   -2.9767   -1.3576 H   0  0  0  0  0  0  0  0  0  0  0  0
   -4.3042   -3.9510   -0.4178 H   0  0  0  0  0  0  0  0  0  0  0  0
   -4.5921   -2.2516    0.0188 H   0  0  0  0  0  0  0  0  0  0  0  0
   -3.3877   -1.2346   -2.2513 N   0  0  0  0  0  0  0  0  0  0  0  0
   -2.2110   -0.6505   -2.9100 C   0  0  2  0  0  0  0  0  0  0  0  0
   -1.1413   -0.2735   -1.8601 C   0  0  0  0  0  0  0  0  0  0  0  0
   -0.8561    0.8901   -1.6022 O   0  0  0  0  0  0  0  0  0  0  0  0
   -2.6904    0.5495   -3.7347 C   0  0  0  0  0  0  0  0  0  0  0  0
   -4.0020   -0.5844   -1.7645 H   0  0  0  0  0  0  0  0  0  0  0  0
   -1.7644   -1.3751   -3.5991 H   0  0  0  0  0  0  0  0  0  0  0  0
   -3.1401    1.3083   -3.0858 H   0  0  0  0  0  0  0  0  0  0  0  0
   -1.8487    1.0042   -4.2664 H   0  0  0  0  0  0  0  0  0  0  0  0
   -3.4352    0.2327   -4.4710 H   0  0  0  0  0  0  0  0  0  0  0  0
   -0.5125   -1.2709   -1.1380 N   0  0  0  0  0  0  0  0  0  0  0  0
   -0.4622   -1.2206    0.3377 C   0  0  0  0  0  0  0  0  0  0  0  0
   -1.6145   -0.5458    1.1243 C   0  0  0  0  0  0  0  0  0  0  0  0
   -2.6522   -0.1588    0.5937 O   0  0  0  0  0  0  0  0  0  0  0  0
   -0.7957   -2.1879   -1.4944 H   0  0  0  0  0  0  0  0  0  0  0  0
    0.4574   -0.6984    0.6174 H   0  0  0  0  0  0  0  0  0  0  0  0
   -0.3775   -2.2474    0.7044 H   0  0  0  0  0  0  0  0  0  0  0  0
   -1.6847   -0.7917    2.4828 N   0  0  0  0  0  0  0  0  0  0  0  0
   -2.7281   -0.2634    3.3722 C   0  0  2  0  0  0  0  0  0  0  0  0
   -2.1503    0.0907    4.7585 C   0  0  0  0  0  0  0  0  0  0  0  0
   -1.0427   -0.3232    5.0849 O   0  0  0  0  0  0  0  0  0  0  0  0
   -3.8343   -1.3148    3.5036 C   0  0  0  0  0  0  0  0  0  0  0  0
   -0.8230   -1.0892    2.9412 H   0  0  0  0  0  0  0  0  0  0  0  0
   -3.1480    0.6555    2.9491 H   0  0  0  0  0  0  0  0  0  0  0  0
   -3.4333   -2.2405    3.9287 H   0  0  0  0  0  0  0  0  0  0  0  0
   -4.6358   -0.9509    4.1533 H   0  0  0  0  0  0  0  0  0  0  0  0
   -4.2622   -1.5390    2.5218 H   0  0  0  0  0  0  0  0  0  0  0  0
   -2.8670    0.8805    5.6383 N   0  0  0  0  0  0  0  0  0  0  0  0
   -2.3658    1.2724    6.9502 C   0  0  0  0  0  0  0  0  0  0  0  0
   -3.7645    1.2399    5.3260 H   0  0  0  0  0  0  0  0  0  0  0  0
   -2.1505    0.3873    7.5581 H   0  0  0  0  0  0  0  0  0  0  0  0
   -1.4488    1.8623    6.8493 H   0  0  0  0  0  0  0  0  0  0  0  0
   -3.1112    1.8779    7.4748 H   0  0  0  0  0  0  0  0  0  0  0  0
  1  2  2  0  0  0  0
  1  3  1  0  0  0  0
  1  7  1  0  0  0  0
  3  4  1  0  0  0  0
  3  5  1  0  0  0  0
  3  6  1  0  0  0  0
  7  8  1  0  0  0  0
  7 12  1  0  0  0  0
  8  9  1  0  0  0  0
  8 11  1  0  0  0  0
  8 13  1  0  0  0  0
  9 10  2  0  0  0  0
  9 17  1  0  0  0  0
 11 14  1  0  0  0  0
 11 15  1  0  0  0  0
 11 16  1  0  0  0  0
 17 18  1  0  0  0  0
 17 21  1  0  0  0  0
 18 19  1  0  0  0  0
 18 22  1  0  0  0  0
 18 23  1  0  0  0  0
 19 20  2  0  0  0  0
 19 24  1  0  0  0  0
 24 25  1  0  0  0  0
 24 29  1  0  0  0  0
 25 26  1  0  0  0  0
 25 28  1  0  0  0  0
 25 30  1  0  0  0  0
 26 27  2  0  0  0  0
 26 34  1  0  0  0  0
 28 31  1  0  0  0  0
 28 32  1  0  0  0  0
 28 33  1  0  0  0  0
 34 35  1  0  0  0  0
 34 36  1  0  0  0  0
 35 37  1  0  0  0  0
 35 38  1  0  0  0  0
 35 39  1  0  0  0  0
M  END
$$$$

  -OEChem-05262216283D

 39 38  0     1  0  0  0  0  0999 V2000
   -3.3879   -2.6669   -1.9292 C   0  0  0  0  0  0  0  0  0  0  0  0
   -2.4196   -3.3051   -2.3200 O   0  0  0  0  0  0  0  0  0  0  0  0
   -4.4497   -3.3370   -1.0790 C   0  0  0  0  0  0  0  0  0  0  0  0
   -5.4380   -3.1657   -1.5122 H   0  0  0  0  0  0  0  0  0  0  0  0
   -4.2693   -4.4143   -1.0280 H   0  0  0  0  0  0  0  0  0  0  0  0
   -4.4270   -2.9264   -0.0662 H   0  0  0  0  0  0  0  0  0  0  0  0
   -3.4592   -1.3120   -2.1780 N   0  0  0  0  0  0  0  0  0  0  0  0
   -2.3468   -0.5488   -2.7648 C   0  0  2  0  0  0  0  0  0  0  0  0
   -1.2499   -0.2844   -1.7078 C   0  0  0  0  0  0  0  0  0  0  0  0
   -0.9997    0.8421   -1.2928 O   0  0  0  0  0  0  0  0  0  0  0  0
   -2.9329    0.7382   -3.3571 C   0  0  0  0  0  0  0  0  0  0  0  0
   -4.0930   -0.8003   -1.5675 H   0  0  0  0  0  0  0  0  0  0  0  0
   -1.8896   -1.1170   -3.5820 H   0  0  0  0  0  0  0  0  0  0  0  0
   -3.4048    1.3425   -2.5755 H   0  0  0  0  0  0  0  0  0  0  0  0
   -2.1429    1.3337   -3.8253 H   0  0  0  0  0  0  0  0  0  0  0  0
   -3.6837    0.5004   -4.1168 H   0  0  0  0  0  0  0  0  0  0  0  0
   -0.6054   -1.3612   -1.1261 N   0  0  0  0  0  0  0  0  0  0  0  0
   -0.3319   -1.3622    0.3221 C   0  0  0  0  0  0  0  0  0  0  0  0
   -1.4907   -0.9212    1.2465 C   0  0  0  0  0  0  0  0  0  0  0  0
   -2.6509   -0.8471    0.8470 O   0  0  0  0  0  0  0  0  0  0  0  0
   -0.9410   -2.2501   -1.5086 H   0  0  0  0  0  0  0  0  0  0  0  0
    0.5164   -0.6978    0.5118 H   0  0  0  0  0  0  0  0  0  0  0  0
   -0.0306   -2.3700    0.6207 H   0  0  0  0  0  0  0  0  0  0  0  0
   -1.2797   -0.9025    2.6117 N   0  0  0  0  0  0  0  0  0  0  0  0
   -2.2661   -0.4368    3.5951 C   0  0  2  0  0  0  0  0  0  0  0  0
   -1.5745    0.2875    4.7698 C   0  0  0  0  0  0  0  0  0  0  0  0
   -0.3665    0.1614    4.9413 O   0  0  0  0  0  0  0  0  0  0  0  0
   -3.0625   -1.6446    4.0973 C   0  0  0  0  0  0  0  0  0  0  0  0
   -0.3089   -0.9037    2.9263 H   0  0  0  0  0  0  0  0  0  0  0  0
   -2.9499    0.2787    3.1256 H   0  0  0  0  0  0  0  0  0  0  0  0
   -2.3948   -2.3733    4.5677 H   0  0  0  0  0  0  0  0  0  0  0  0
   -3.8119   -1.3334    4.8310 H   0  0  0  0  0  0  0  0  0  0  0  0
   -3.5778   -2.1313    3.2634 H   0  0  0  0  0  0  0  0  0  0  0  0
   -2.2998    1.0949    5.6266 N   0  0  0  0  0  0  0  0  0  0  0  0
   -1.6944    1.8457    6.7208 C   0  0  0  0  0  0  0  0  0  0  0  0
   -3.2897    1.2170    5.4340 H   0  0  0  0  0  0  0  0  0  0  0  0
   -1.2054    1.1673    7.4280 H   0  0  0  0  0  0  0  0  0  0  0  0
   -0.9488    2.5502    6.3368 H   0  0  0  0  0  0  0  0  0  0  0  0
   -2.4597    2.4124    7.2597 H   0  0  0  0  0  0  0  0  0  0  0  0
  1  2  2  0  0  0  0
  1  3  1  0  0  0  0
  1  7  1  0  0  0  0
  3  4  1  0  0  0  0
  3  5  1  0  0  0  0
  3  6  1  0  0  0  0
  7  8  1  0  0  0  0
  7 12  1  0  0  0  0
  8  9  1  0  0  0  0
  8 11  1  0  0  0  0
  8 13  1  0  0  0  0
  9 10  2  0  0  0  0
  9 17  1  0  0  0  0
 11 14  1  0  0  0  0
 11 15  1  0  0  0  0
 11 16  1  0  0  0  0
 17 18  1  0  0  0  0
 17 21  1  0  0  0  0
 18 19  1  0  0  0  0
 18 22  1  0  0  0  0
 18 23  1  0  0  0  0
 19 20  2  0  0  0  0
 19 24  1  0  0  0  0
 24 25  1  0  0  0  0
 24 29  1  0  0  0  0
 25 26  1  0  0  0  0
 25 28  1  0  0  0  0
 25 30  1  0  0  0  0
 26 27  2  0  0  0  0
 26 34  1  0  0  0  0
 28 31  1  0  0  0  0
 28 32  1  0  0  0  0
 28 33  1  0  0  0  0
 34 35  1  0  0  0  0
 34 36  1  0  0  0  0
 35 37  1  0  0  0  0
 35 38  1  0  0  0  0
 35 39  1  0  0  0  0
M  END
$$$$

  -OEChem-05262216283D

 39 38  0     1  0  0  0  0  0999 V2000
   -3.4701   -2.6483   -1.9463 C   0  0  0  0  0  0  0  0  0  0  0  0
   -2.5004   -3.2801   -2.3436 O   0  0  0  0  0  0  0  0  0  0  0  0
   -4.5558   -3.3429   -1.1467 C   0  0  0  0  0  0  0  0  0  0  0  0
   -5.5365   -3.1177   -1.5723 H   0  0  0  0  0  0  0  0  0  0  0  0
   -4.4037   -4.4257   -1.1650 H   0  0  0  0  0  0  0  0  0  0  0  0
   -4.5297   -3.0005   -0.1089 H   0  0  0  0  0  0  0  0  0  0  0  0
   -3.5235   -1.2842   -2.1475 N   0  0  0  0  0  0  0  0  0  0  0  0
   -2.3953   -0.5117   -2.6928 C   0  0  2  0  0  0  0  0  0  0  0  0
   -1.3079   -0.2918   -1.6155 C   0  0  0  0  0  0  0  0  0  0  0  0
   -1.0549    0.8191   -1.1617 O   0  0  0  0  0  0  0  0  0  0  0  0
   -2.9593    0.8004   -3.2504 C   0  0  0  0  0  0  0  0  0  0  0  0
   -4.1679   -0.7882   -1.5354 H   0  0  0  0  0  0  0  0  0  0  0  0
   -1.9335   -1.0567   -3.5229 H   0  0  0  0  0  0  0  0  0  0  0  0
   -3.4274    1.3886   -2.4543 H   0  0  0  0  0  0  0  0  0  0  0  0
   -2.1574    1.3973   -3.6962 H   0  0  0  0  0  0  0  0  0  0  0  0
   -3.7083    0.5956   -4.0213 H   0  0  0  0  0  0  0  0  0  0  0  0
   -0.6978   -1.3944   -1.0450 N   0  0  0  0  0  0  0  0  0  0  0  0
   -0.4403   -1.4234    0.4052 C   0  0  0  0  0  0  0  0  0  0  0  0
   -1.6111   -0.9601    1.3000 C   0  0  0  0  0  0  0  0  0  0  0  0
   -2.7767   -1.0283    0.9150 O   0  0  0  0  0  0  0  0  0  0  0  0
   -1.0447   -2.2697   -1.4484 H   0  0  0  0  0  0  0  0  0  0  0  0
    0.4197   -0.7807    0.6151 H   0  0  0  0  0  0  0  0  0  0  0  0
   -0.1701   -2.4407    0.7010 H   0  0  0  0  0  0  0  0  0  0  0  0
   -1.3742   -0.6539    2.6258 N   0  0  0  0  0  0  0  0  0  0  0  0
   -2.3815   -0.0952    3.5363 C   0  0  2  0  0  0  0  0  0  0  0  0
   -1.7296    0.8342    4.5819 C   0  0  0  0  0  0  0  0  0  0  0  0
   -0.5183    0.7912    4.7699 O   0  0  0  0  0  0  0  0  0  0  0  0
   -3.1181   -1.2486    4.2245 C   0  0  0  0  0  0  0  0  0  0  0  0
   -0.4012   -0.5246    2.9048 H   0  0  0  0  0  0  0  0  0  0  0  0
   -3.0992    0.5049    2.9667 H   0  0  0  0  0  0  0  0  0  0  0  0
   -2.4163   -1.8621    4.7987 H   0  0  0  0  0  0  0  0  0  0  0  0
   -3.8835   -0.8640    4.9051 H   0  0  0  0  0  0  0  0  0  0  0  0
   -3.6076   -1.8840    3.4797 H   0  0  0  0  0  0  0  0  0  0  0  0
   -2.4963    1.7314    5.3023 N   0  0  0  0  0  0  0  0  0  0  0  0
   -1.9331    2.6645    6.2710 C   0  0  0  0  0  0  0  0  0  0  0  0
   -3.4896    1.7763    5.0941 H   0  0  0  0  0  0  0  0  0  0  0  0
   -1.4323    2.1220    7.0798 H   0  0  0  0  0  0  0  0  0  0  0  0
   -1.2060    3.3261    5.7882 H   0  0  0  0  0  0  0  0  0  0  0  0
   -2.7246    3.2808    6.7077 H   0  0  0  0  0  0  0  0  0  0  0  0
  1  2  2  0  0  0  0
  1  3  1  0  0  0  0
  1  7  1  0  0  0  0
  3  4  1  0  0  0  0
  3  5  1  0  0  0  0
  3  6  1  0  0  0  0
  7  8  1  0  0  0  0
  7 12  1  0  0  0  0
  8  9  1  0  0  0  0
  8 11  1  0  0  0  0
  8 13  1  0  0  0  0
  9 10  2  0  0  0  0
  9 17  1  0  0  0  0
 11 14  1  0  0  0  0
 11 15  1  0  0  0  0
 11 16  1  0  0  0  0
 17 18  1  0  0  0  0
 17 21  1  0  0  0  0
 18 19  1  0  0  0  0
 18 22  1  0  0  0  0
 18 23  1  0  0  0  0
 19 20  2  0  0  0  0
 19 24  1  0  0  0  0
 24 25  1  0  0  0  0
 24 29  1  0  0  0  0
 25 26  1  0  0  0  0
 25 28  1  0  0  0  0
 25 30  1  0  0  0  0
 26 27  2  0  0  0  0
 26 34  1  0  0  0  0
 28 31  1  0  0  0  0
 28 32  1  0  0  0  0
 28 33  1  0  0  0  0
 34 35  1  0  0  0  0
 34 36  1  0  0  0  0
 35 37  1  0  0  0  0
 35 38  1  0  0  0  0
 35 39  1  0  0  0  0
M  END
$$$$

  -OEChem-05262216283D

 39 38  0     1  0  0  0  0  0999 V2000
   -3.4791   -2.6243   -2.0104 C   0  0  0  0  0  0  0  0  0  0  0  0
   -2.4865   -3.2592   -2.3409 O   0  0  0  0  0  0  0  0  0  0  0  0
   -4.6394   -3.3194   -1.3243 C   0  0  0  0  0  0  0  0  0  0  0  0
   -5.5622   -3.1446   -1.8825 H   0  0  0  0  0  0  0  0  0  0  0  0
   -4.4570   -4.3962   -1.2710 H   0  0  0  0  0  0  0  0  0  0  0  0
   -4.7565   -2.9325   -0.3086 H   0  0  0  0  0  0  0  0  0  0  0  0
   -3.5054   -1.2570   -2.1954 N   0  0  0  0  0  0  0  0  0  0  0  0
   -2.3328   -0.4837   -2.6351 C   0  0  2  0  0  0  0  0  0  0  0  0
   -1.3336   -0.2925   -1.4709 C   0  0  0  0  0  0  0  0  0  0  0  0
   -1.1361    0.8031   -0.9562 O   0  0  0  0  0  0  0  0  0  0  0  0
   -2.8424    0.8415   -3.2134 C   0  0  0  0  0  0  0  0  0  0  0  0
   -4.2128   -0.7626   -1.6571 H   0  0  0  0  0  0  0  0  0  0  0  0
   -1.8090   -1.0188   -3.4344 H   0  0  0  0  0  0  0  0  0  0  0  0
   -3.3797    1.4144   -2.4507 H   0  0  0  0  0  0  0  0  0  0  0  0
   -2.0034    1.4457   -3.5729 H   0  0  0  0  0  0  0  0  0  0  0  0
   -3.5189    0.6547   -4.0529 H   0  0  0  0  0  0  0  0  0  0  0  0
   -0.7575   -1.4130   -0.9001 N   0  0  0  0  0  0  0  0  0  0  0  0
   -0.5495   -1.4802    0.5560 C   0  0  0  0  0  0  0  0  0  0  0  0
   -1.7533   -1.0181    1.4027 C   0  0  0  0  0  0  0  0  0  0  0  0
   -2.9034   -1.2417    1.0309 O   0  0  0  0  0  0  0  0  0  0  0  0
   -1.0830   -2.2781   -1.3427 H   0  0  0  0  0  0  0  0  0  0  0  0
    0.3132   -0.8580    0.8122 H   0  0  0  0  0  0  0  0  0  0  0  0
   -0.3095   -2.5079    0.8407 H   0  0  0  0  0  0  0  0  0  0  0  0
   -1.5479   -0.4464    2.6430 N   0  0  0  0  0  0  0  0  0  0  0  0
   -2.6097    0.1538    3.4594 C   0  0  2  0  0  0  0  0  0  0  0  0
   -2.0652    1.3150    4.3176 C   0  0  0  0  0  0  0  0  0  0  0  0
   -0.8591    1.4232    4.5115 O   0  0  0  0  0  0  0  0  0  0  0  0
   -3.2182   -0.9326    4.3518 C   0  0  0  0  0  0  0  0  0  0  0  0
   -0.5949   -0.1599    2.8689 H   0  0  0  0  0  0  0  0  0  0  0  0
   -3.3867    0.5644    2.8061 H   0  0  0  0  0  0  0  0  0  0  0  0
   -2.4562   -1.3516    5.0168 H   0  0  0  0  0  0  0  0  0  0  0  0
   -4.0262   -0.5201    4.9636 H   0  0  0  0  0  0  0  0  0  0  0  0
   -3.6288   -1.7416    3.7393 H   0  0  0  0  0  0  0  0  0  0  0  0
   -2.9276    2.2442    4.8696 N   0  0  0  0  0  0  0  0  0  0  0  0
   -2.4747    3.3899    5.6493 C   0  0  0  0  0  0  0  0  0  0  0  0
   -3.9159    2.1560    4.6526 H   0  0  0  0  0  0  0  0  0  0  0  0
   -1.8487    4.0473    5.0366 H   0  0  0  0  0  0  0  0  0  0  0  0
   -3.3332    3.9652    6.0087 H   0  0  0  0  0  0  0  0  0  0  0  0
   -1.8942    3.0589    6.5169 H   0  0  0  0  0  0  0  0  0  0  0  0
  1  2  2  0  0  0  0
  1  3  1  0  0  0  0
  1  7  1  0  0  0  0
  3  4  1  0  0  0  0
  3  5  1  0  0  0  0
  3  6  1  0  0  0  0
  7  8  1  0  0  0  0
  7 12  1  0  0  0  0
  8  9  1  0  0  0  0
  8 11  1  0  0  0  0
  8 13  1  0  0  0  0
  9 10  2  0  0  0  0
  9 17  1  0  0  0  0
 11 14  1  0  0  0  0
 11 15  1  0  0  0  0
 11 16  1  0  0  0  0
 17 18  1  0  0  0  0
 17 21  1  0  0  0  0
 18 19  1  0  0  0  0
 18 22  1  0  0  0  0
 18 23  1  0  0  0  0
 19 20  2  0  0  0  0
 19 24  1  0  0  0  0
 24 25  1  0  0  0  0
 24 29  1  0  0  0  0
 25 26  1  0  0  0  0
 25 28  1  0  0  0  0
 25 30  1  0  0  0  0
 26 27  2  0  0  0  0
 26 34  1  0  0  0  0
 28 31  1  0  0  0  0
 28 32  1  0  0  0  0
 28 33  1  0  0  0  0
 34 35  1  0  0  0  0
 34 36  1  0  0  0  0
 35 37  1  0  0  0  0
 35 38  1  0  0  0  0
 35 39  1  0  0  0  0
M  END
$$$$

  -OEChem-05262216283D

 39 38  0     1  0  0  0  0  0999 V2000
   -3.4044   -2.6301   -2.0248 C   0  0  0  0  0  0  0  0  0  0  0  0
   -2.3662   -3.1646   -2.3903 O   0  0  0  0  0  0  0  0  0  0  0  0
   -4.5125   -3.4560   -1.4002 C   0  0  0  0  0  0  0  0  0  0  0  0
   -5.4567   -3.2681   -1.9170 H   0  0  0  0  0  0  0  0  0  0  0  0
   -4.2757   -4.5210   -1.4741 H   0  0  0  0  0  0  0  0  0  0  0  0
   -4.6231   -3.1919   -0.3450 H   0  0  0  0  0  0  0  0  0  0  0  0
   -3.5315   -1.2590   -2.1188 N   0  0  0  0  0  0  0  0  0  0  0  0
   -2.4220   -0.3727   -2.5065 C   0  0  2  0  0  0  0  0  0  0  0  0
   -1.4334   -0.1833   -1.3332 C   0  0  0  0  0  0  0  0  0  0  0  0
   -1.3247    0.8870   -0.7446 O   0  0  0  0  0  0  0  0  0  0  0  0
   -3.0345    0.9455   -2.9940 C   0  0  0  0  0  0  0  0  0  0  0  0
   -4.2853   -0.8528   -1.5703 H   0  0  0  0  0  0  0  0  0  0  0  0
   -1.8638   -0.8126   -3.3399 H   0  0  0  0  0  0  0  0  0  0  0  0
   -3.6089    1.4234   -2.1938 H   0  0  0  0  0  0  0  0  0  0  0  0
   -2.2465    1.6349   -3.3133 H   0  0  0  0  0  0  0  0  0  0  0  0
   -3.7005    0.7640   -3.8429 H   0  0  0  0  0  0  0  0  0  0  0  0
   -0.7823   -1.2936   -0.8272 N   0  0  0  0  0  0  0  0  0  0  0  0
   -0.5641   -1.4294    0.6224 C   0  0  0  0  0  0  0  0  0  0  0  0
   -1.8020   -1.0914    1.4769 C   0  0  0  0  0  0  0  0  0  0  0  0
   -2.9057   -1.5315    1.1640 O   0  0  0  0  0  0  0  0  0  0  0  0
   -1.0426   -2.1529   -1.3216 H   0  0  0  0  0  0  0  0  0  0  0  0
    0.2578   -0.7701    0.9171 H   0  0  0  0  0  0  0  0  0  0  0  0
   -0.2614   -2.4547    0.8516 H   0  0  0  0  0  0  0  0  0  0  0  0
   -1.6808   -0.3010    2.6029 N   0  0  0  0  0  0  0  0  0  0  0  0
   -2.8213    0.2614    3.3359 C   0  0  2  0  0  0  0  0  0  0  0  0
   -2.4886    1.6587    3.8988 C   0  0  0  0  0  0  0  0  0  0  0  0
   -1.3206    1.9928    4.0647 O   0  0  0  0  0  0  0  0  0  0  0  0
   -3.1974   -0.6991    4.4676 C   0  0  0  0  0  0  0  0  0  0  0  0
   -0.7921    0.1859    2.7234 H   0  0  0  0  0  0  0  0  0  0  0  0
   -3.6747    0.3769    2.6597 H   0  0  0  0  0  0  0  0  0  0  0  0
   -2.3568   -0.8244    5.1576 H   0  0  0  0  0  0  0  0  0  0  0  0
   -4.0543   -0.3149    5.0288 H   0  0  0  0  0  0  0  0  0  0  0  0
   -3.4633   -1.6795    4.0600 H   0  0  0  0  0  0  0  0  0  0  0  0
   -3.5004    2.5485    4.2094 N   0  0  0  0  0  0  0  0  0  0  0  0
   -3.2506    3.9138    4.6557 C   0  0  0  0  0  0  0  0  0  0  0  0
   -4.4542    2.2644    4.0069 H   0  0  0  0  0  0  0  0  0  0  0  0
   -2.6752    3.9138    5.5875 H   0  0  0  0  0  0  0  0  0  0  0  0
   -2.6896    4.4679    3.8955 H   0  0  0  0  0  0  0  0  0  0  0  0
   -4.1971    4.4331    4.8343 H   0  0  0  0  0  0  0  0  0  0  0  0
  1  2  2  0  0  0  0
  1  3  1  0  0  0  0
  1  7  1  0  0  0  0
  3  4  1  0  0  0  0
  3  5  1  0  0  0  0
  3  6  1  0  0  0  0
  7  8  1  0  0  0  0
  7 12  1  0  0  0  0
  8  9  1  0  0  0  0
  8 11  1  0  0  0  0
  8 13  1  0  0  0  0
  9 10  2  0  0  0  0
  9 17  1  0  0  0  0
 11 14  1  0  0  0  0
 11 15  1  0  0  0  0
 11 16  1  0  0  0  0
 17 18  1  0  0  0  0
 17 21  1  0  0  0  0
 18 19  1  0  0  0  0
 18 22  1  0  0  0  0
 18 23  1  0  0  0  0
 19 20  2  0  0  0  0
 19 24  1  0  0  0  0
 24 25  1  0  0  0  0
 24 29  1  0  0  0  0
 25 26  1  0  0  0  0
 25 28  1  0  0  0  0
 25 30  1  0  0  0  0
 26 27  2  0  0  0  0
 26 34  1  0  0  0  0
 28 31  1  0  0  0  0
 28 32  1  0  0  0  0
 28 33  1  0  0  0  0
 34 35  1  0  0  0  0
 34 36  1  0  0  0  0
 35 37  1  0  0  0  0
 35 38  1  0  0  0  0
 35 39  1  0  0  0  0
M  END
$$$$

  -OEChem-05262216283D

 39 38  0     1  0  0  0  0  0999 V2000
   -4.3645   -2.2542   -2.2656 C   0  0  0  0  0  0  0  0  0  0  0  0
   -3.7355   -3.2857   -2.4424 O   0  0  0  0  0  0  0  0  0  0  0  0
   -5.8192   -2.3141   -1.8389 C   0  0  0  0  0  0  0  0  0  0  0  0
   -6.4334   -1.7120   -2.5129 H   0  0  0  0  0  0  0  0  0  0  0  0
   -6.1777   -3.3471   -1.8653 H   0  0  0  0  0  0  0  0  0  0  0  0
   -5.9234   -1.9307   -0.8208 H   0  0  0  0  0  0  0  0  0  0  0  0
   -3.7500   -1.0297   -2.4299 N   0  0  0  0  0  0  0  0  0  0  0  0
   -2.2960   -0.8723   -2.5613 C   0  0  2  0  0  0  0  0  0  0  0  0
   -1.6702   -0.4437   -1.2194 C   0  0  0  0  0  0  0  0  0  0  0  0
   -2.0679    0.5727   -0.6610 O   0  0  0  0  0  0  0  0  0  0  0  0
   -2.0277    0.1694   -3.6508 C   0  0  0  0  0  0  0  0  0  0  0  0
   -4.2674   -0.2229   -2.0888 H   0  0  0  0  0  0  0  0  0  0  0  0
   -1.8288   -1.8119   -2.8738 H   0  0  0  0  0  0  0  0  0  0  0  0
   -2.4742    1.1326   -3.3828 H   0  0  0  0  0  0  0  0  0  0  0  0
   -0.9506    0.3116   -3.7837 H   0  0  0  0  0  0  0  0  0  0  0  0
   -2.4537   -0.1600   -4.6036 H   0  0  0  0  0  0  0  0  0  0  0  0
   -0.6266   -1.1630   -0.6634 N   0  0  0  0  0  0  0  0  0  0  0  0
   -0.2102   -0.9920    0.7409 C   0  0  0  0  0  0  0  0  0  0  0  0
   -1.3613   -0.9481    1.7615 C   0  0  0  0  0  0  0  0  0  0  0  0
   -2.0670   -1.9373    1.9151 O   0  0  0  0  0  0  0  0  0  0  0  0
   -0.4782   -2.0806   -1.0769 H   0  0  0  0  0  0  0  0  0  0  0  0
    0.3642   -0.0651    0.8275 H   0  0  0  0  0  0  0  0  0  0  0  0
    0.4539   -1.8134    1.0246 H   0  0  0  0  0  0  0  0  0  0  0  0
   -1.5550    0.1604    2.5624 N   0  0  0  0  0  0  0  0  0  0  0  0
   -2.6930    0.3168    3.4758 C   0  0  2  0  0  0  0  0  0  0  0  0
   -3.1361    1.7905    3.5852 C   0  0  0  0  0  0  0  0  0  0  0  0
   -2.3644    2.6930    3.2800 O   0  0  0  0  0  0  0  0  0  0  0  0
   -2.2853   -0.2256    4.8485 C   0  0  0  0  0  0  0  0  0  0  0  0
   -1.1053    1.0240    2.2561 H   0  0  0  0  0  0  0  0  0  0  0  0
   -3.5490   -0.2533    3.0997 H   0  0  0  0  0  0  0  0  0  0  0  0
   -1.4267    0.3305    5.2383 H   0  0  0  0  0  0  0  0  0  0  0  0
   -3.1120   -0.1348    5.5591 H   0  0  0  0  0  0  0  0  0  0  0  0
   -2.0105   -1.2824    4.7715 H   0  0  0  0  0  0  0  0  0  0  0  0
   -4.4061    2.1065    4.0325 N   0  0  0  0  0  0  0  0  0  0  0  0
   -4.9094    3.4726    4.1118 C   0  0  0  0  0  0  0  0  0  0  0  0
   -5.0362    1.3367    4.2373 H   0  0  0  0  0  0  0  0  0  0  0  0
   -4.9601    3.9203    3.1136 H   0  0  0  0  0  0  0  0  0  0  0  0
   -5.9132    3.4812    4.5473 H   0  0  0  0  0  0  0  0  0  0  0  0
   -4.2565    4.0872    4.7408 H   0  0  0  0  0  0  0  0  0  0  0  0
  1  2  2  0  0  0  0
  1  3  1  0  0  0  0
  1  7  1  0  0  0  0
  3  4  1  0  0  0  0
  3  5  1  0  0  0  0
  3  6  1  0  0  0  0
  7  8  1  0  0  0  0
  7 12  1  0  0  0  0
  8  9  1  0  0  0  0
  8 11  1  0  0  0  0
  8 13  1  0  0  0  0
  9 10  2  0  0  0  0
  9 17  1  0  0  0  0
 11 14  1  0  0  0  0
 11 15  1  0  0  0  0
 11 16  1  0  0  0  0
 17 18  1  0  0  0  0
 17 21  1  0  0  0  0
 18 19  1  0  0  0  0
 18 22  1  0  0  0  0
 18 23  1  0  0  0  0
 19 20  2  0  0  0  0
 19 24  1  0  0  0  0
 24 25  1  0  0  0  0
 24 29  1  0  0  0  0
 25 26  1  0  0  0  0
 25 28  1  0  0  0  0
 25 30  1  0  0  0  0
 26 27  2  0  0  0  0
 26 34  1  0  0  0  0
 28 31  1  0  0  0  0
 28 32  1  0  0  0  0
 28 33  1  0  0  0  0
 34 35  1  0  0  0  0
 34 36  1  0  0  0  0
 35 37  1  0  0  0  0
 35 38  1  0  0  0  0
 35 39  1  0  0  0  0
M  END
$$$$

  -OEChem-05262216283D

 39 38  0     1  0  0  0  0  0999 V2000
   -3.5168   -2.6532   -2.0562 C   0  0  0  0  0  0  0  0  0  0  0  0
   -2.4576   -3.1633   -2.3933 O   0  0  0  0  0  0  0  0  0  0  0  0
   -4.6169   -3.5009   -1.4475 C   0  0  0  0  0  0  0  0  0  0  0  0
   -4.3335   -4.5568   -1.4681 H   0  0  0  0  0  0  0  0  0  0  0  0
   -4.7826   -3.2032   -0.4087 H   0  0  0  0  0  0  0  0  0  0  0  0
   -5.5447   -3.3741   -2.0100 H   0  0  0  0  0  0  0  0  0  0  0  0
   -3.6698   -1.2847   -2.1575 N   0  0  0  0  0  0  0  0  0  0  0  0
   -2.5688   -0.3722   -2.5091 C   0  0  2  0  0  0  0  0  0  0  0  0
   -1.6057   -0.1805   -1.3140 C   0  0  0  0  0  0  0  0  0  0  0  0
   -1.5394    0.8775   -0.6990 O   0  0  0  0  0  0  0  0  0  0  0  0
   -3.1904    0.9438   -2.9928 C   0  0  0  0  0  0  0  0  0  0  0  0
   -4.4878   -0.8904   -1.7015 H   0  0  0  0  0  0  0  0  0  0  0  0
   -1.9872   -0.7925   -3.3368 H   0  0  0  0  0  0  0  0  0  0  0  0
   -3.7857    1.4056   -2.1984 H   0  0  0  0  0  0  0  0  0  0  0  0
   -2.4051    1.6468   -3.2890 H   0  0  0  0  0  0  0  0  0  0  0  0
   -3.8377    0.7649   -3.8567 H   0  0  0  0  0  0  0  0  0  0  0  0
   -0.9307   -1.2820   -0.8224 N   0  0  0  0  0  0  0  0  0  0  0  0
   -0.6941   -1.4503    0.6202 C   0  0  0  0  0  0  0  0  0  0  0  0
   -1.9317   -1.1565    1.4864 C   0  0  0  0  0  0  0  0  0  0  0  0
   -2.8824   -1.9314    1.4620 O   0  0  0  0  0  0  0  0  0  0  0  0
   -1.1574   -2.1391   -1.3374 H   0  0  0  0  0  0  0  0  0  0  0  0
    0.1203   -0.7895    0.9318 H   0  0  0  0  0  0  0  0  0  0  0  0
   -0.3746   -2.4771    0.8192 H   0  0  0  0  0  0  0  0  0  0  0  0
   -2.0230    0.0132    2.2146 N   0  0  0  0  0  0  0  0  0  0  0  0
   -3.2359    0.4589    2.9105 C   0  0  2  0  0  0  0  0  0  0  0  0
   -3.2931    1.9964    3.0298 C   0  0  0  0  0  0  0  0  0  0  0  0
   -2.2645    2.6609    2.9872 O   0  0  0  0  0  0  0  0  0  0  0  0
   -3.2646   -0.1823    4.3018 C   0  0  0  0  0  0  0  0  0  0  0  0
   -1.3461    0.7415    1.9768 H   0  0  0  0  0  0  0  0  0  0  0  0
   -4.1180    0.1412    2.3455 H   0  0  0  0  0  0  0  0  0  0  0  0
   -2.3854    0.1212    4.8794 H   0  0  0  0  0  0  0  0  0  0  0  0
   -4.1625    0.1227    4.8474 H   0  0  0  0  0  0  0  0  0  0  0  0
   -3.2663   -1.2737    4.2185 H   0  0  0  0  0  0  0  0  0  0  0  0
   -4.5062    2.6402    3.1963 N   0  0  0  0  0  0  0  0  0  0  0  0
   -4.6342    4.0897    3.2924 C   0  0  0  0  0  0  0  0  0  0  0  0
   -5.3450    2.0684    3.2171 H   0  0  0  0  0  0  0  0  0  0  0  0
   -4.1219    4.4609    4.1864 H   0  0  0  0  0  0  0  0  0  0  0  0
   -4.1985    4.5726    2.4110 H   0  0  0  0  0  0  0  0  0  0  0  0
   -5.6890    4.3741    3.3547 H   0  0  0  0  0  0  0  0  0  0  0  0
  1  2  2  0  0  0  0
  1  3  1  0  0  0  0
  1  7  1  0  0  0  0
  3  4  1  0  0  0  0
  3  5  1  0  0  0  0
  3  6  1  0  0  0  0
  7  8  1  0  0  0  0
  7 12  1  0  0  0  0
  8  9  1  0  0  0  0
  8 11  1  0  0  0  0
  8 13  1  0  0  0  0
  9 10  2  0  0  0  0
  9 17  1  0  0  0  0
 11 14  1  0  0  0  0
 11 15  1  0  0  0  0
 11 16  1  0  0  0  0
 17 18  1  0  0  0  0
 17 21  1  0  0  0  0
 18 19  1  0  0  0  0
 18 22  1  0  0  0  0
 18 23  1  0  0  0  0
 19 20  2  0  0  0  0
 19 24  1  0  0  0  0
 24 25  1  0  0  0  0
 24 29  1  0  0  0  0
 25 26  1  0  0  0  0
 25 28  1  0  0  0  0
 25 30  1  0  0  0  0
 26 27  2  0  0  0  0
 26 34  1  0  0  0  0
 28 31  1  0  0  0  0
 28 32  1  0  0  0  0
 28 33  1  0  0  0  0
 34 35  1  0  0  0  0
 34 36  1  0  0  0  0
 35 37  1  0  0  0  0
 35 38  1  0  0  0  0
 35 39  1  0  0  0  0
M  END
$$$$

  -OEChem-05262216283D

 39 38  0     1  0  0  0  0  0999 V2000
   -4.1667   -1.5966   -1.6614 C   0  0  0  0  0  0  0  0  0  0  0  0
   -3.5825   -2.5495   -2.1617 O   0  0  0  0  0  0  0  0  0  0  0  0
   -5.4782   -1.7962   -0.9267 C   0  0  0  0  0  0  0  0  0  0  0  0
   -6.2715   -1.2287   -1.4183 H   0  0  0  0  0  0  0  0  0  0  0  0
   -5.7501   -2.8552   -0.9200 H   0  0  0  0  0  0  0  0  0  0  0  0
   -5.3819   -1.4532    0.1064 H   0  0  0  0  0  0  0  0  0  0  0  0
   -3.5790   -0.3499   -1.7005 N   0  0  0  0  0  0  0  0  0  0  0  0
   -2.2007   -0.1331   -2.1588 C   0  0  2  0  0  0  0  0  0  0  0  0
   -1.2057   -0.5710   -1.0628 C   0  0  0  0  0  0  0  0  0  0  0  0
   -0.5977    0.2425   -0.3705 O   0  0  0  0  0  0  0  0  0  0  0  0
   -2.0673    1.3473   -2.5321 C   0  0  0  0  0  0  0  0  0  0  0  0
   -3.9434    0.3223   -1.0164 H   0  0  0  0  0  0  0  0  0  0  0  0
   -1.9991   -0.7282   -3.0557 H   0  0  0  0  0  0  0  0  0  0  0  0
   -2.2786    1.9835   -1.6661 H   0  0  0  0  0  0  0  0  0  0  0  0
   -1.0524    1.5613   -2.8809 H   0  0  0  0  0  0  0  0  0  0  0  0
   -2.7701    1.6018   -3.3310 H   0  0  0  0  0  0  0  0  0  0  0  0
   -1.1190   -1.9089   -0.7161 N   0  0  0  0  0  0  0  0  0  0  0  0
   -1.1025   -2.2785    0.7101 C   0  0  0  0  0  0  0  0  0  0  0  0
   -2.1649   -1.5397    1.5438 C   0  0  0  0  0  0  0  0  0  0  0  0
   -3.2423   -2.0787    1.7665 O   0  0  0  0  0  0  0  0  0  0  0  0
   -1.7375   -2.4852   -1.2965 H   0  0  0  0  0  0  0  0  0  0  0  0
   -0.1155   -2.0655    1.1311 H   0  0  0  0  0  0  0  0  0  0  0  0
   -1.2732   -3.3546    0.8080 H   0  0  0  0  0  0  0  0  0  0  0  0
   -1.8809   -0.3276    2.1389 N   0  0  0  0  0  0  0  0  0  0  0  0
   -2.9233    0.4518    2.8208 C   0  0  2  0  0  0  0  0  0  0  0  0
   -4.0980    0.8916    1.9100 C   0  0  0  0  0  0  0  0  0  0  0  0
   -3.9367    1.1407    0.7184 O   0  0  0  0  0  0  0  0  0  0  0  0
   -2.2459    1.6837    3.4232 C   0  0  0  0  0  0  0  0  0  0  0  0
   -1.1553    0.1959    1.6408 H   0  0  0  0  0  0  0  0  0  0  0  0
   -3.3363   -0.1557    3.6326 H   0  0  0  0  0  0  0  0  0  0  0  0
   -1.8289    2.3152    2.6314 H   0  0  0  0  0  0  0  0  0  0  0  0
   -2.9667    2.2752    3.9961 H   0  0  0  0  0  0  0  0  0  0  0  0
   -1.4346    1.3824    4.0934 H   0  0  0  0  0  0  0  0  0  0  0  0
   -5.3630    1.0459    2.4472 N   0  0  0  0  0  0  0  0  0  0  0  0
   -6.5266    1.4421    1.6630 C   0  0  0  0  0  0  0  0  0  0  0  0
   -5.4971    0.7567    3.4119 H   0  0  0  0  0  0  0  0  0  0  0  0
   -6.3585    2.4178    1.1947 H   0  0  0  0  0  0  0  0  0  0  0  0
   -6.7309    0.7050    0.8795 H   0  0  0  0  0  0  0  0  0  0  0  0
   -7.4085    1.5169    2.3066 H   0  0  0  0  0  0  0  0  0  0  0  0
  1  2  2  0  0  0  0
  1  3  1  0  0  0  0
  1  7  1  0  0  0  0
  3  4  1  0  0  0  0
  3  5  1  0  0  0  0
  3  6  1  0  0  0  0
  7  8  1  0  0  0  0
  7 12  1  0  0  0  0
  8  9  1  0  0  0  0
  8 11  1  0  0  0  0
  8 13  1  0  0  0  0
  9 10  2  0  0  0  0
  9 17  1  0  0  0  0
 11 14  1  0  0  0  0
 11 15  1  0  0  0  0
 11 16  1  0  0  0  0
 17 18  1  0  0  0  0
 17 21  1  0  0  0  0
 18 19  1  0  0  0  0
 18 22  1  0  0  0  0
 18 23  1  0  0  0  0
 19 20  2  0  0  0  0
 19 24  1  0  0  0  0
 24 25  1  0  0  0  0
 24 29  1  0  0  0  0
 25 26  1  0  0  0  0
 25 28  1  0  0  0  0
 25 30  1  0  0  0  0
 26 27  2  0  0  0  0
 26 34  1  0  0  0  0
 28 31  1  0  0  0  0
 28 32  1  0  0  0  0
 28 33  1  0  0  0  0
 34 35  1  0  0  0  0
 34 36  1  0  0  0  0
 35 37  1  0  0  0  0
 35 38  1  0  0  0  0
 35 39  1  0  0  0  0
M  END
$$$$

  -OEChem-05262216283D

 39 38  0     1  0  0  0  0  0999 V2000
   -4.1681   -1.7381   -1.8140 C   0  0  0  0  0  0  0  0  0  0  0  0
   -3.5347   -2.6920   -2.2464 O   0  0  0  0  0  0  0  0  0  0  0  0
   -5.4977   -1.9534   -1.1189 C   0  0  0  0  0  0  0  0  0  0  0  0
   -6.2354   -1.2400   -1.4936 H   0  0  0  0  0  0  0  0  0  0  0  0
   -5.8614   -2.9677   -1.3040 H   0  0  0  0  0  0  0  0  0  0  0  0
   -5.3774   -1.8119   -0.0416 H   0  0  0  0  0  0  0  0  0  0  0  0
   -3.6043   -0.4808   -1.8534 N   0  0  0  0  0  0  0  0  0  0  0  0
   -2.2074   -0.2394   -2.2392 C   0  0  2  0  0  0  0  0  0  0  0  0
   -1.2589   -0.6312   -1.0845 C   0  0  0  0  0  0  0  0  0  0  0  0
   -0.6550    0.2097   -0.4239 O   0  0  0  0  0  0  0  0  0  0  0  0
   -2.0918    1.2369   -2.6345 C   0  0  0  0  0  0  0  0  0  0  0  0
   -4.0359    0.2081   -1.2271 H   0  0  0  0  0  0  0  0  0  0  0  0
   -1.9448   -0.8460   -3.1124 H   0  0  0  0  0  0  0  0  0  0  0  0
   -2.3629    1.8831   -1.7928 H   0  0  0  0  0  0  0  0  0  0  0  0
   -1.0659    1.4707   -2.9355 H   0  0  0  0  0  0  0  0  0  0  0  0
   -2.7593    1.4585   -3.4727 H   0  0  0  0  0  0  0  0  0  0  0  0
   -1.2127   -1.9489   -0.6647 N   0  0  0  0  0  0  0  0  0  0  0  0
   -1.2240   -2.2908    0.7704 C   0  0  0  0  0  0  0  0  0  0  0  0
   -2.2666   -1.5245    1.6074 C   0  0  0  0  0  0  0  0  0  0  0  0
   -3.2731   -2.1024    1.9990 O   0  0  0  0  0  0  0  0  0  0  0  0
   -1.8042   -2.5487   -1.2500 H   0  0  0  0  0  0  0  0  0  0  0  0
   -0.2342   -2.0943    1.1930 H   0  0  0  0  0  0  0  0  0  0  0  0
   -1.4170   -3.3621    0.8810 H   0  0  0  0  0  0  0  0  0  0  0  0
   -2.0849   -0.1992    1.9477 N   0  0  0  0  0  0  0  0  0  0  0  0
   -3.1509    0.6040    2.5592 C   0  0  2  0  0  0  0  0  0  0  0  0
   -4.4028    0.7729    1.6634 C   0  0  0  0  0  0  0  0  0  0  0  0
   -4.3051    1.0243    0.4649 O   0  0  0  0  0  0  0  0  0  0  0  0
   -2.5586    1.9748    2.8928 C   0  0  0  0  0  0  0  0  0  0  0  0
   -1.3966    0.2862    1.3632 H   0  0  0  0  0  0  0  0  0  0  0  0
   -3.4615    0.1210    3.4913 H   0  0  0  0  0  0  0  0  0  0  0  0
   -2.2354    2.4846    1.9789 H   0  0  0  0  0  0  0  0  0  0  0  0
   -3.3027    2.6005    3.3952 H   0  0  0  0  0  0  0  0  0  0  0  0
   -1.6945    1.8656    3.5553 H   0  0  0  0  0  0  0  0  0  0  0  0
   -5.6649    0.6836    2.2211 N   0  0  0  0  0  0  0  0  0  0  0  0
   -6.8969    0.8015    1.4508 C   0  0  0  0  0  0  0  0  0  0  0  0
   -5.7206    0.3534    3.1806 H   0  0  0  0  0  0  0  0  0  0  0  0
   -6.9243    1.7549    0.9126 H   0  0  0  0  0  0  0  0  0  0  0  0
   -6.9777   -0.0149    0.7267 H   0  0  0  0  0  0  0  0  0  0  0  0
   -7.7638    0.7585    2.1171 H   0  0  0  0  0  0  0  0  0  0  0  0
  1  2  2  0  0  0  0
  1  3  1  0  0  0  0
  1  7  1  0  0  0  0
  3  4  1  0  0  0  0
  3  5  1  0  0  0  0
  3  6  1  0  0  0  0
  7  8  1  0  0  0  0
  7 12  1  0  0  0  0
  8  9  1  0  0  0  0
  8 11  1  0  0  0  0
  8 13  1  0  0  0  0
  9 10  2  0  0  0  0
  9 17  1  0  0  0  0
 11 14  1  0  0  0  0
 11 15  1  0  0  0  0
 11 16  1  0  0  0  0
 17 18  1  0  0  0  0
 17 21  1  0  0  0  0
 18 19  1  0  0  0  0
 18 22  1  0  0  0  0
 18 23  1  0  0  0  0
 19 20  2  0  0  0  0
 19 24  1  0  0  0  0
 24 25  1  0  0  0  0
 24 29  1  0  0  0  0
 25 26  1  0  0  0  0
 25 28  1  0  0  0  0
 25 30  1  0  0  0  0
 26 27  2  0  0  0  0
 26 34  1  0  0  0  0
 28 31  1  0  0  0  0
 28 32  1  0  0  0  0
 28 33  1  0  0  0  0
 34 35  1  0  0  0  0
 34 36  1  0  0  0  0
 35 37  1  0  0  0  0
 35 38  1  0  0  0  0
 35 39  1  0  0  0  0
M  END
$$$$

  -OEChem-05262216283D

 39 38  0     1  0  0  0  0  0999 V2000
   -4.1329   -2.0170   -1.9088 C   0  0  0  0  0  0  0  0  0  0  0  0
   -3.4217   -2.9458   -2.2684 O   0  0  0  0  0  0  0  0  0  0  0  0
   -5.4547   -2.2919   -1.2204 C   0  0  0  0  0  0  0  0  0  0  0  0
   -6.2177   -1.6007   -1.5860 H   0  0  0  0  0  0  0  0  0  0  0  0
   -5.7800   -3.3160   -1.4218 H   0  0  0  0  0  0  0  0  0  0  0  0
   -5.3417   -2.1613   -0.1409 H   0  0  0  0  0  0  0  0  0  0  0  0
   -3.6574   -0.7266   -2.0042 N   0  0  0  0  0  0  0  0  0  0  0  0
   -2.2728   -0.4053   -2.3790 C   0  0  2  0  0  0  0  0  0  0  0  0
   -1.3194   -0.6606   -1.1898 C   0  0  0  0  0  0  0  0  0  0  0  0
   -0.7587    0.2558   -0.5970 O   0  0  0  0  0  0  0  0  0  0  0  0
   -2.2542    1.0497   -2.8606 C   0  0  0  0  0  0  0  0  0  0  0  0
   -4.1572   -0.0384   -1.4297 H   0  0  0  0  0  0  0  0  0  0  0  0
   -1.9497   -1.0407   -3.2108 H   0  0  0  0  0  0  0  0  0  0  0  0
   -2.5828    1.7238   -2.0625 H   0  0  0  0  0  0  0  0  0  0  0  0
   -1.2422    1.3364   -3.1634 H   0  0  0  0  0  0  0  0  0  0  0  0
   -2.9215    1.1741   -3.7188 H   0  0  0  0  0  0  0  0  0  0  0  0
   -1.2164   -1.9406   -0.6764 N   0  0  0  0  0  0  0  0  0  0  0  0
   -1.1723   -2.2250    0.7725 C   0  0  0  0  0  0  0  0  0  0  0  0
   -2.2006   -1.4770    1.6469 C   0  0  0  0  0  0  0  0  0  0  0  0
   -3.0504   -2.1156    2.2549 O   0  0  0  0  0  0  0  0  0  0  0  0
   -1.7636   -2.6106   -1.2275 H   0  0  0  0  0  0  0  0  0  0  0  0
   -0.1753   -1.9765    1.1473 H   0  0  0  0  0  0  0  0  0  0  0  0
   -1.3166   -3.2988    0.9245 H   0  0  0  0  0  0  0  0  0  0  0  0
   -2.2449   -0.0994    1.7185 N   0  0  0  0  0  0  0  0  0  0  0  0
   -3.3697    0.6347    2.3080 C   0  0  2  0  0  0  0  0  0  0  0  0
   -4.6627    0.5541    1.4627 C   0  0  0  0  0  0  0  0  0  0  0  0
   -4.6403    0.7249    0.2460 O   0  0  0  0  0  0  0  0  0  0  0  0
   -2.9321    2.0914    2.4724 C   0  0  0  0  0  0  0  0  0  0  0  0
   -1.6519    0.3863    1.0381 H   0  0  0  0  0  0  0  0  0  0  0  0
   -3.5817    0.2239    3.3005 H   0  0  0  0  0  0  0  0  0  0  0  0
   -2.7047    2.5351    1.4974 H   0  0  0  0  0  0  0  0  0  0  0  0
   -3.7265    2.6776    2.9445 H   0  0  0  0  0  0  0  0  0  0  0  0
   -2.0372    2.1509    3.0999 H   0  0  0  0  0  0  0  0  0  0  0  0
   -5.8789    0.3324    2.0816 N   0  0  0  0  0  0  0  0  0  0  0  0
   -7.1448    0.2359    1.3650 C   0  0  0  0  0  0  0  0  0  0  0  0
   -5.8532    0.0717    3.0637 H   0  0  0  0  0  0  0  0  0  0  0  0
   -7.3210    1.1395    0.7719 H   0  0  0  0  0  0  0  0  0  0  0  0
   -7.1438   -0.6303    0.6965 H   0  0  0  0  0  0  0  0  0  0  0  0
   -7.9712    0.1243    2.0734 H   0  0  0  0  0  0  0  0  0  0  0  0
  1  2  2  0  0  0  0
  1  3  1  0  0  0  0
  1  7  1  0  0  0  0
  3  4  1  0  0  0  0
  3  5  1  0  0  0  0
  3  6  1  0  0  0  0
  7  8  1  0  0  0  0
  7 12  1  0  0  0  0
  8  9  1  0  0  0  0
  8 11  1  0  0  0  0
  8 13  1  0  0  0  0
  9 10  2  0  0  0  0
  9 17  1  0  0  0  0
 11 14  1  0  0  0  0
 11 15  1  0  0  0  0
 11 16  1  0  0  0  0
 17 18  1  0  0  0  0
 17 21  1  0  0  0  0
 18 19  1  0  0  0  0
 18 22  1  0  0  0  0
 18 23  1  0  0  0  0
 19 20  2  0  0  0  0
 19 24  1  0  0  0  0
 24 25  1  0  0  0  0
 24 29  1  0  0  0  0
 25 26  1  0  0  0  0
 25 28  1  0  0  0  0
 25 30  1  0  0  0  0
 26 27  2  0  0  0  0
 26 34  1  0  0  0  0
 28 31  1  0  0  0  0
 28 32  1  0  0  0  0
 28 33  1  0  0  0  0
 34 35  1  0  0  0  0
 34 36  1  0  0  0  0
 35 37  1  0  0  0  0
 35 38  1  0  0  0  0
 35 39  1  0  0  0  0
M  END
$$$$

  -OEChem-05262216283D

 39 38  0     1  0  0  0  0  0999 V2000
   -4.0266   -2.2778   -2.0790 C   0  0  0  0  0  0  0  0  0  0  0  0
   -3.2129   -3.1274   -2.4140 O   0  0  0  0  0  0  0  0  0  0  0  0
   -5.3451   -2.6896   -1.4544 C   0  0  0  0  0  0  0  0  0  0  0  0
   -5.5640   -3.7351   -1.6882 H   0  0  0  0  0  0  0  0  0  0  0  0
   -5.2906   -2.5718   -0.3692 H   0  0  0  0  0  0  0  0  0  0  0  0
   -6.1543   -2.0647   -1.8403 H   0  0  0  0  0  0  0  0  0  0  0  0
   -3.6742   -0.9468   -2.1377 N   0  0  0  0  0  0  0  0  0  0  0  0
   -2.3238   -0.4791   -2.4855 C   0  0  2  0  0  0  0  0  0  0  0  0
   -1.3611   -0.6385   -1.2858 C   0  0  0  0  0  0  0  0  0  0  0  0
   -0.8547    0.3294   -0.7281 O   0  0  0  0  0  0  0  0  0  0  0  0
   -2.4558    0.9723   -2.9624 C   0  0  0  0  0  0  0  0  0  0  0  0
   -4.2578   -0.3210   -1.5714 H   0  0  0  0  0  0  0  0  0  0  0  0
   -1.9230   -1.0716   -3.3149 H   0  0  0  0  0  0  0  0  0  0  0  0
   -2.8640    1.6040   -2.1665 H   0  0  0  0  0  0  0  0  0  0  0  0
   -1.4776    1.3681   -3.2532 H   0  0  0  0  0  0  0  0  0  0  0  0
   -3.1227    1.0285   -3.8282 H   0  0  0  0  0  0  0  0  0  0  0  0
   -1.1896   -1.8924   -0.7290 N   0  0  0  0  0  0  0  0  0  0  0  0
   -1.0663   -2.1575    0.7210 C   0  0  0  0  0  0  0  0  0  0  0  0
   -2.0642   -1.4450    1.6613 C   0  0  0  0  0  0  0  0  0  0  0  0
   -2.7120   -2.1147    2.4554 O   0  0  0  0  0  0  0  0  0  0  0  0
   -1.6831   -2.6160   -1.2624 H   0  0  0  0  0  0  0  0  0  0  0  0
   -0.0597   -1.8709    1.0381 H   0  0  0  0  0  0  0  0  0  0  0  0
   -1.1617   -3.2352    0.8859 H   0  0  0  0  0  0  0  0  0  0  0  0
   -2.3784   -0.1062    1.5416 N   0  0  0  0  0  0  0  0  0  0  0  0
   -3.5669    0.5121    2.1367 C   0  0  2  0  0  0  0  0  0  0  0  0
   -4.8573    0.2088    1.3424 C   0  0  0  0  0  0  0  0  0  0  0  0
   -4.8853    0.3058    0.1176 O   0  0  0  0  0  0  0  0  0  0  0  0
   -3.3188    2.0205    2.1977 C   0  0  0  0  0  0  0  0  0  0  0  0
   -1.8927    0.3938    0.7916 H   0  0  0  0  0  0  0  0  0  0  0  0
   -3.6964    0.1429    3.1594 H   0  0  0  0  0  0  0  0  0  0  0  0
   -3.1683    2.4258    1.1916 H   0  0  0  0  0  0  0  0  0  0  0  0
   -4.1730    2.5305    2.6537 H   0  0  0  0  0  0  0  0  0  0  0  0
   -2.4277    2.2345    2.7961 H   0  0  0  0  0  0  0  0  0  0  0  0
   -6.0170   -0.1358    2.0110 N   0  0  0  0  0  0  0  0  0  0  0  0
   -7.2694   -0.4586    1.3380 C   0  0  0  0  0  0  0  0  0  0  0  0
   -5.9350   -0.3248    3.0066 H   0  0  0  0  0  0  0  0  0  0  0  0
   -7.5417    0.3315    0.6302 H   0  0  0  0  0  0  0  0  0  0  0  0
   -7.1797   -1.4041    0.7942 H   0  0  0  0  0  0  0  0  0  0  0  0
   -8.0773   -0.5541    2.0697 H   0  0  0  0  0  0  0  0  0  0  0  0
  1  2  2  0  0  0  0
  1  3  1  0  0  0  0
  1  7  1  0  0  0  0
  3  4  1  0  0  0  0
  3  5  1  0  0  0  0
  3  6  1  0  0  0  0
  7  8  1  0  0  0  0
  7 12  1  0  0  0  0
  8  9  1  0  0  0  0
  8 11  1  0  0  0  0
  8 13  1  0  0  0  0
  9 10  2  0  0  0  0
  9 17  1  0  0  0  0
 11 14  1  0  0  0  0
 11 15  1  0  0  0  0
 11 16  1  0  0  0  0
 17 18  1  0  0  0  0
 17 21  1  0  0  0  0
 18 19  1  0  0  0  0
 18 22  1  0  0  0  0
 18 23  1  0  0  0  0
 19 20  2  0  0  0  0
 19 24  1  0  0  0  0
 24 25  1  0  0  0  0
 24 29  1  0  0  0  0
 25 26  1  0  0  0  0
 25 28  1  0  0  0  0
 25 30  1  0  0  0  0
 26 27  2  0  0  0  0
 26 34  1  0  0  0  0
 28 31  1  0  0  0  0
 28 32  1  0  0  0  0
 28 33  1  0  0  0  0
 34 35  1  0  0  0  0
 34 36  1  0  0  0  0
 35 37  1  0  0  0  0
 35 38  1  0  0  0  0
 35 39  1  0  0  0  0
M  END
$$$$

  -OEChem-05262216283D

 39 38  0     1  0  0  0  0  0999 V2000
   -3.7226   -3.3917   -1.5956 C   0  0  0  0  0  0  0  0  0  0  0  0
   -2.7903   -3.5868   -0.8329 O   0  0  0  0  0  0  0  0  0  0  0  0
   -4.9727   -4.2459   -1.5004 C   0  0  0  0  0  0  0  0  0  0  0  0
   -5.1729   -4.7232   -2.4629 H   0  0  0  0  0  0  0  0  0  0  0  0
   -4.8407   -5.0242   -0.7430 H   0  0  0  0  0  0  0  0  0  0  0  0
   -5.8288   -3.6258   -1.2231 H   0  0  0  0  0  0  0  0  0  0  0  0
   -3.6613   -2.3643   -2.5152 N   0  0  0  0  0  0  0  0  0  0  0  0
   -2.6042   -1.3425   -2.4860 C   0  0  2  0  0  0  0  0  0  0  0  0
   -2.9072   -0.2112   -1.4790 C   0  0  0  0  0  0  0  0  0  0  0  0
   -4.0620    0.0576   -1.1697 O   0  0  0  0  0  0  0  0  0  0  0  0
   -2.4593   -0.7829   -3.9032 C   0  0  0  0  0  0  0  0  0  0  0  0
   -4.5410   -2.1166   -2.9595 H   0  0  0  0  0  0  0  0  0  0  0  0
   -1.6531   -1.8040   -2.1975 H   0  0  0  0  0  0  0  0  0  0  0  0
   -3.3865   -0.2946   -4.2201 H   0  0  0  0  0  0  0  0  0  0  0  0
   -1.6489   -0.0487   -3.9446 H   0  0  0  0  0  0  0  0  0  0  0  0
   -2.2298   -1.5888   -4.6077 H   0  0  0  0  0  0  0  0  0  0  0  0
   -1.9261    0.6677   -1.0705 N   0  0  0  0  0  0  0  0  0  0  0  0
   -1.7715    1.1448    0.3215 C   0  0  0  0  0  0  0  0  0  0  0  0
   -1.8484    0.1429    1.5019 C   0  0  0  0  0  0  0  0  0  0  0  0
   -0.8872    0.1198    2.2512 O   0  0  0  0  0  0  0  0  0  0  0  0
   -1.0371    0.4854   -1.5285 H   0  0  0  0  0  0  0  0  0  0  0  0
   -2.5444    1.8971    0.5037 H   0  0  0  0  0  0  0  0  0  0  0  0
   -0.8096    1.6622    0.3954 H   0  0  0  0  0  0  0  0  0  0  0  0
   -2.5582   -1.0323    1.6022 N   0  0  0  0  0  0  0  0  0  0  0  0
   -4.0271   -1.0937    1.6817 C   0  0  2  0  0  0  0  0  0  0  0  0
   -4.7113    0.2182    2.1461 C   0  0  0  0  0  0  0  0  0  0  0  0
   -4.8053    0.5037    3.3328 O   0  0  0  0  0  0  0  0  0  0  0  0
   -4.3533   -2.2422    2.6430 C   0  0  0  0  0  0  0  0  0  0  0  0
   -2.0893   -1.6379    2.2716 H   0  0  0  0  0  0  0  0  0  0  0  0
   -4.4416   -1.3715    0.7123 H   0  0  0  0  0  0  0  0  0  0  0  0
   -3.9377   -2.0466    3.6372 H   0  0  0  0  0  0  0  0  0  0  0  0
   -5.4371   -2.3604    2.7383 H   0  0  0  0  0  0  0  0  0  0  0  0
   -3.9347   -3.1816    2.2678 H   0  0  0  0  0  0  0  0  0  0  0  0
   -5.2094    1.1024    1.2102 N   0  0  0  0  0  0  0  0  0  0  0  0
   -5.7872    2.3968    1.5455 C   0  0  0  0  0  0  0  0  0  0  0  0
   -5.0292    0.8760    0.2277 H   0  0  0  0  0  0  0  0  0  0  0  0
   -6.6741    2.2686    2.1749 H   0  0  0  0  0  0  0  0  0  0  0  0
   -5.0591    3.0140    2.0824 H   0  0  0  0  0  0  0  0  0  0  0  0
   -6.0836    2.9243    0.6339 H   0  0  0  0  0  0  0  0  0  0  0  0
  1  2  2  0  0  0  0
  1  3  1  0  0  0  0
  1  7  1  0  0  0  0
  3  4  1  0  0  0  0
  3  5  1  0  0  0  0
  3  6  1  0  0  0  0
  7  8  1  0  0  0  0
  7 12  1  0  0  0  0
  8  9  1  0  0  0  0
  8 11  1  0  0  0  0
  8 13  1  0  0  0  0
  9 10  2  0  0  0  0
  9 17  1  0  0  0  0
 11 14  1  0  0  0  0
 11 15  1  0  0  0  0
 11 16  1  0  0  0  0
 17 18  1  0  0  0  0
 17 21  1  0  0  0  0
 18 19  1  0  0  0  0
 18 22  1  0  0  0  0
 18 23  1  0  0  0  0
 19 20  2  0  0  0  0
 19 24  1  0  0  0  0
 24 25  1  0  0  0  0
 24 29  1  0  0  0  0
 25 26  1  0  0  0  0
 25 28  1  0  0  0  0
 25 30  1  0  0  0  0
 26 27  2  0  0  0  0
 26 34  1  0  0  0  0
 28 31  1  0  0  0  0
 28 32  1  0  0  0  0
 28 33  1  0  0  0  0
 34 35  1  0  0  0  0
 34 36  1  0  0  0  0
 35 37  1  0  0  0  0
 35 38  1  0  0  0  0
 35 39  1  0  0  0  0
M  END
$$$$

  -OEChem-05262216283D

 39 38  0     1  0  0  0  0  0999 V2000
   -3.6808   -2.6950   -2.2877 C   0  0  0  0  0  0  0  0  0  0  0  0
   -2.7096   -3.3701   -2.5994 O   0  0  0  0  0  0  0  0  0  0  0  0
   -4.9386   -3.3652   -1.7705 C   0  0  0  0  0  0  0  0  0  0  0  0
   -4.9755   -4.4060   -2.1038 H   0  0  0  0  0  0  0  0  0  0  0  0
   -4.9487   -3.3402   -0.6781 H   0  0  0  0  0  0  0  0  0  0  0  0
   -5.8228   -2.8437   -2.1457 H   0  0  0  0  0  0  0  0  0  0  0  0
   -3.5764   -1.3203   -2.3004 N   0  0  0  0  0  0  0  0  0  0  0  0
   -2.3370   -0.5997   -2.6395 C   0  0  2  0  0  0  0  0  0  0  0  0
   -1.3545   -0.5811   -1.4448 C   0  0  0  0  0  0  0  0  0  0  0  0
   -1.0593    0.4615   -0.8733 O   0  0  0  0  0  0  0  0  0  0  0  0
   -2.7394    0.8038   -3.1088 C   0  0  0  0  0  0  0  0  0  0  0  0
   -4.2898   -0.8261   -1.7538 H   0  0  0  0  0  0  0  0  0  0  0  0
   -1.8315   -1.0997   -3.4728 H   0  0  0  0  0  0  0  0  0  0  0  0
   -3.2568    1.3448   -2.3097 H   0  0  0  0  0  0  0  0  0  0  0  0
   -1.8523    1.3764   -3.3979 H   0  0  0  0  0  0  0  0  0  0  0  0
   -3.4058    0.7390   -3.9743 H   0  0  0  0  0  0  0  0  0  0  0  0
   -0.9877   -1.7835   -0.8705 N   0  0  0  0  0  0  0  0  0  0  0  0
   -0.7069   -2.0091    0.5656 C   0  0  0  0  0  0  0  0  0  0  0  0
   -1.6807   -1.4095    1.6062 C   0  0  0  0  0  0  0  0  0  0  0  0
   -1.8156   -1.9892    2.6751 O   0  0  0  0  0  0  0  0  0  0  0  0
   -1.3481   -2.5913   -1.3891 H   0  0  0  0  0  0  0  0  0  0  0  0
    0.2845   -1.6025    0.7849 H   0  0  0  0  0  0  0  0  0  0  0  0
   -0.6613   -3.0878    0.7415 H   0  0  0  0  0  0  0  0  0  0  0  0
   -2.6033   -0.4366    1.2765 N   0  0  0  0  0  0  0  0  0  0  0  0
   -3.8455   -0.1360    1.9929 C   0  0  2  0  0  0  0  0  0  0  0  0
   -5.0809   -0.6678    1.2356 C   0  0  0  0  0  0  0  0  0  0  0  0
   -5.1520   -0.5863    0.0103 O   0  0  0  0  0  0  0  0  0  0  0  0
   -3.9282    1.3825    2.1555 C   0  0  0  0  0  0  0  0  0  0  0  0
   -2.4118    0.0701    0.4105 H   0  0  0  0  0  0  0  0  0  0  0  0
   -3.8306   -0.5903    2.9888 H   0  0  0  0  0  0  0  0  0  0  0  0
   -3.9511    1.8728    1.1767 H   0  0  0  0  0  0  0  0  0  0  0  0
   -4.8329    1.6592    2.7052 H   0  0  0  0  0  0  0  0  0  0  0  0
   -3.0589    1.7513    2.7092 H   0  0  0  0  0  0  0  0  0  0  0  0
   -6.1349   -1.2263    1.9340 N   0  0  0  0  0  0  0  0  0  0  0  0
   -7.3251   -1.7750    1.2957 C   0  0  0  0  0  0  0  0  0  0  0  0
   -6.0204   -1.3390    2.9381 H   0  0  0  0  0  0  0  0  0  0  0  0
   -7.8231   -1.0106    0.6900 H   0  0  0  0  0  0  0  0  0  0  0  0
   -7.0603   -2.6195    0.6511 H   0  0  0  0  0  0  0  0  0  0  0  0
   -8.0320   -2.1265    2.0538 H   0  0  0  0  0  0  0  0  0  0  0  0
  1  2  2  0  0  0  0
  1  3  1  0  0  0  0
  1  7  1  0  0  0  0
  3  4  1  0  0  0  0
  3  5  1  0  0  0  0
  3  6  1  0  0  0  0
  7  8  1  0  0  0  0
  7 12  1  0  0  0  0
  8  9  1  0  0  0  0
  8 11  1  0  0  0  0
  8 13  1  0  0  0  0
  9 10  2  0  0  0  0
  9 17  1  0  0  0  0
 11 14  1  0  0  0  0
 11 15  1  0  0  0  0
 11 16  1  0  0  0  0
 17 18  1  0  0  0  0
 17 21  1  0  0  0  0
 18 19  1  0  0  0  0
 18 22  1  0  0  0  0
 18 23  1  0  0  0  0
 19 20  2  0  0  0  0
 19 24  1  0  0  0  0
 24 25  1  0  0  0  0
 24 29  1  0  0  0  0
 25 26  1  0  0  0  0
 25 28  1  0  0  0  0
 25 30  1  0  0  0  0
 26 27  2  0  0  0  0
 26 34  1  0  0  0  0
 28 31  1  0  0  0  0
 28 32  1  0  0  0  0
 28 33  1  0  0  0  0
 34 35  1  0  0  0  0
 34 36  1  0  0  0  0
 35 37  1  0  0  0  0
 35 38  1  0  0  0  0
 35 39  1  0  0  0  0
M  END
$$$$

  -OEChem-05262216283D

 39 38  0     1  0  0  0  0  0999 V2000
   -3.1665   -2.9956   -2.2181 C   0  0  0  0  0  0  0  0  0  0  0  0
   -2.0630   -3.4035   -2.5539 O   0  0  0  0  0  0  0  0  0  0  0  0
   -4.1773   -3.9444   -1.6038 C   0  0  0  0  0  0  0  0  0  0  0  0
   -3.9172   -4.9794   -1.8416 H   0  0  0  0  0  0  0  0  0  0  0  0
   -4.1889   -3.8212   -0.5179 H   0  0  0  0  0  0  0  0  0  0  0  0
   -5.1754   -3.7328   -1.9956 H   0  0  0  0  0  0  0  0  0  0  0  0
   -3.4369   -1.6459   -2.2956 N   0  0  0  0  0  0  0  0  0  0  0  0
   -2.4465   -0.6374   -2.7081 C   0  0  2  0  0  0  0  0  0  0  0  0
   -1.4587   -0.3295   -1.5587 C   0  0  0  0  0  0  0  0  0  0  0  0
   -1.5438    0.7057   -0.9112 O   0  0  0  0  0  0  0  0  0  0  0  0
   -3.2230    0.5986   -3.1776 C   0  0  0  0  0  0  0  0  0  0  0  0
   -4.2636   -1.3318   -1.7755 H   0  0  0  0  0  0  0  0  0  0  0  0
   -1.8636   -1.0104   -3.5573 H   0  0  0  0  0  0  0  0  0  0  0  0
   -3.8362    1.0019   -2.3647 H   0  0  0  0  0  0  0  0  0  0  0  0
   -2.5301    1.3785   -3.5091 H   0  0  0  0  0  0  0  0  0  0  0  0
   -3.8800    0.3405   -4.0139 H   0  0  0  0  0  0  0  0  0  0  0  0
   -0.6681   -1.3521   -1.0674 N   0  0  0  0  0  0  0  0  0  0  0  0
   -0.2955   -1.5130    0.3572 C   0  0  0  0  0  0  0  0  0  0  0  0
   -1.4083   -1.3414    1.4155 C   0  0  0  0  0  0  0  0  0  0  0  0
   -1.1873   -1.6752    2.5712 O   0  0  0  0  0  0  0  0  0  0  0  0
   -0.7815   -2.2224   -1.5980 H   0  0  0  0  0  0  0  0  0  0  0  0
    0.4872   -0.7851    0.5908 H   0  0  0  0  0  0  0  0  0  0  0  0
    0.1336   -2.5098    0.4930 H   0  0  0  0  0  0  0  0  0  0  0  0
   -2.7079   -1.0461    1.0537 N   0  0  0  0  0  0  0  0  0  0  0  0
   -3.8700   -1.0044    1.9443 C   0  0  2  0  0  0  0  0  0  0  0  0
   -5.1892   -1.2041    1.1633 C   0  0  0  0  0  0  0  0  0  0  0  0
   -5.2094   -1.1634   -0.0663 O   0  0  0  0  0  0  0  0  0  0  0  0
   -3.8747    0.3452    2.6695 C   0  0  0  0  0  0  0  0  0  0  0  0
   -2.8059   -0.5905    0.1472 H   0  0  0  0  0  0  0  0  0  0  0  0
   -3.7926   -1.8118    2.6803 H   0  0  0  0  0  0  0  0  0  0  0  0
   -3.9428    1.1659    1.9480 H   0  0  0  0  0  0  0  0  0  0  0  0
   -4.7233    0.4118    3.3564 H   0  0  0  0  0  0  0  0  0  0  0  0
   -2.9544    0.4687    3.2491 H   0  0  0  0  0  0  0  0  0  0  0  0
   -6.3683   -1.4521    1.8410 N   0  0  0  0  0  0  0  0  0  0  0  0
   -7.6559   -1.6267    1.1795 C   0  0  0  0  0  0  0  0  0  0  0  0
   -6.3305   -1.4726    2.8565 H   0  0  0  0  0  0  0  0  0  0  0  0
   -7.9172   -0.7303    0.6072 H   0  0  0  0  0  0  0  0  0  0  0  0
   -7.6248   -2.4841    0.4990 H   0  0  0  0  0  0  0  0  0  0  0  0
   -8.4412   -1.8031    1.9209 H   0  0  0  0  0  0  0  0  0  0  0  0
  1  2  2  0  0  0  0
  1  3  1  0  0  0  0
  1  7  1  0  0  0  0
  3  4  1  0  0  0  0
  3  5  1  0  0  0  0
  3  6  1  0  0  0  0
  7  8  1  0  0  0  0
  7 12  1  0  0  0  0
  8  9  1  0  0  0  0
  8 11  1  0  0  0  0
  8 13  1  0  0  0  0
  9 10  2  0  0  0  0
  9 17  1  0  0  0  0
 11 14  1  0  0  0  0
 11 15  1  0  0  0  0
 11 16  1  0  0  0  0
 17 18  1  0  0  0  0
 17 21  1  0  0  0  0
 18 19  1  0  0  0  0
 18 22  1  0  0  0  0
 18 23  1  0  0  0  0
 19 20  2  0  0  0  0
 19 24  1  0  0  0  0
 24 25  1  0  0  0  0
 24 29  1  0  0  0  0
 25 26  1  0  0  0  0
 25 28  1  0  0  0  0
 25 30  1  0  0  0  0
 26 27  2  0  0  0  0
 26 34  1  0  0  0  0
 28 31  1  0  0  0  0
 28 32  1  0  0  0  0
 28 33  1  0  0  0  0
 34 35  1  0  0  0  0
 34 36  1  0  0  0  0
 35 37  1  0  0  0  0
 35 38  1  0  0  0  0
 35 39  1  0  0  0  0
M  END
$$$$

  -OEChem-05262216283D

 39 38  0     1  0  0  0  0  0999 V2000
   -3.0321   -3.0180   -2.3493 C   0  0  0  0  0  0  0  0  0  0  0  0
   -1.9038   -3.2678   -2.7485 O   0  0  0  0  0  0  0  0  0  0  0  0
   -3.9478   -4.1359   -1.8906 C   0  0  0  0  0  0  0  0  0  0  0  0
   -3.6102   -5.0922   -2.2989 H   0  0  0  0  0  0  0  0  0  0  0  0
   -3.9450   -4.1953   -0.7996 H   0  0  0  0  0  0  0  0  0  0  0  0
   -4.9684   -3.9472   -2.2328 H   0  0  0  0  0  0  0  0  0  0  0  0
   -3.4182   -1.7006   -2.2210 N   0  0  0  0  0  0  0  0  0  0  0  0
   -2.5694   -0.5509   -2.5807 C   0  0  2  0  0  0  0  0  0  0  0  0
   -1.5242   -0.2514   -1.4803 C   0  0  0  0  0  0  0  0  0  0  0  0
   -1.6166    0.7377   -0.7665 O   0  0  0  0  0  0  0  0  0  0  0  0
   -3.5034    0.6327   -2.8608 C   0  0  0  0  0  0  0  0  0  0  0  0
   -4.2787   -1.5334   -1.6884 H   0  0  0  0  0  0  0  0  0  0  0  0
   -2.0201   -0.7693   -3.5030 H   0  0  0  0  0  0  0  0  0  0  0  0
   -4.0882    0.8835   -1.9695 H   0  0  0  0  0  0  0  0  0  0  0  0
   -2.9226    1.5131   -3.1537 H   0  0  0  0  0  0  0  0  0  0  0  0
   -4.1943    0.3888   -3.6737 H   0  0  0  0  0  0  0  0  0  0  0  0
   -0.6291   -1.2462   -1.1269 N   0  0  0  0  0  0  0  0  0  0  0  0
   -0.1387   -1.4541    0.2538 C   0  0  0  0  0  0  0  0  0  0  0  0
   -1.2029   -1.4119    1.3695 C   0  0  0  0  0  0  0  0  0  0  0  0
   -0.8621   -1.4473    2.5435 O   0  0  0  0  0  0  0  0  0  0  0  0
   -0.7082   -2.0838   -1.7134 H   0  0  0  0  0  0  0  0  0  0  0  0
    0.6062   -0.6847    0.4785 H   0  0  0  0  0  0  0  0  0  0  0  0
    0.3621   -2.4246    0.3091 H   0  0  0  0  0  0  0  0  0  0  0  0
   -2.5464   -1.5000    1.0586 N   0  0  0  0  0  0  0  0  0  0  0  0
   -3.6573   -1.3398    1.9997 C   0  0  2  0  0  0  0  0  0  0  0  0
   -4.9946   -1.7446    1.3425 C   0  0  0  0  0  0  0  0  0  0  0  0
   -5.1088   -1.7691    0.1173 O   0  0  0  0  0  0  0  0  0  0  0  0
   -3.7278    0.1246    2.4515 C   0  0  0  0  0  0  0  0  0  0  0  0
   -2.7701   -1.3785    0.0743 H   0  0  0  0  0  0  0  0  0  0  0  0
   -3.4919   -1.9839    2.8694 H   0  0  0  0  0  0  0  0  0  0  0  0
   -3.8439    0.7860    1.5865 H   0  0  0  0  0  0  0  0  0  0  0  0
   -4.5753    0.2793    3.1256 H   0  0  0  0  0  0  0  0  0  0  0  0
   -2.8136    0.4080    2.9820 H   0  0  0  0  0  0  0  0  0  0  0  0
   -6.0780   -2.0956    2.1252 N   0  0  0  0  0  0  0  0  0  0  0  0
   -7.3651   -2.5075    1.5786 C   0  0  0  0  0  0  0  0  0  0  0  0
   -5.9562   -2.0719    3.1342 H   0  0  0  0  0  0  0  0  0  0  0  0
   -7.8020   -1.7023    0.9787 H   0  0  0  0  0  0  0  0  0  0  0  0
   -7.2472   -3.3947    0.9474 H   0  0  0  0  0  0  0  0  0  0  0  0
   -8.0596   -2.7509    2.3885 H   0  0  0  0  0  0  0  0  0  0  0  0
  1  2  2  0  0  0  0
  1  3  1  0  0  0  0
  1  7  1  0  0  0  0
  3  4  1  0  0  0  0
  3  5  1  0  0  0  0
  3  6  1  0  0  0  0
  7  8  1  0  0  0  0
  7 12  1  0  0  0  0
  8  9  1  0  0  0  0
  8 11  1  0  0  0  0
  8 13  1  0  0  0  0
  9 10  2  0  0  0  0
  9 17  1  0  0  0  0
 11 14  1  0  0  0  0
 11 15  1  0  0  0  0
 11 16  1  0  0  0  0
 17 18  1  0  0  0  0
 17 21  1  0  0  0  0
 18 19  1  0  0  0  0
 18 22  1  0  0  0  0
 18 23  1  0  0  0  0
 19 20  2  0  0  0  0
 19 24  1  0  0  0  0
 24 25  1  0  0  0  0
 24 29  1  0  0  0  0
 25 26  1  0  0  0  0
 25 28  1  0  0  0  0
 25 30  1  0  0  0  0
 26 27  2  0  0  0  0
 26 34  1  0  0  0  0
 28 31  1  0  0  0  0
 28 32  1  0  0  0  0
 28 33  1  0  0  0  0
 34 35  1  0  0  0  0
 34 36  1  0  0  0  0
 35 37  1  0  0  0  0
 35 38  1  0  0  0  0
 35 39  1  0  0  0  0
M  END
$$$$

  -OEChem-05262216283D

 39 38  0     1  0  0  0  0  0999 V2000
   -2.8466   -3.0608   -2.3924 C   0  0  0  0  0  0  0  0  0  0  0  0
   -1.7224   -3.1469   -2.8644 O   0  0  0  0  0  0  0  0  0  0  0  0
   -3.6107   -4.3117   -2.0041 C   0  0  0  0  0  0  0  0  0  0  0  0
   -3.2250   -5.1751   -2.5532 H   0  0  0  0  0  0  0  0  0  0  0  0
   -3.5045   -4.4949   -0.9318 H   0  0  0  0  0  0  0  0  0  0  0  0
   -4.6713   -4.1915   -2.2392 H   0  0  0  0  0  0  0  0  0  0  0  0
   -3.3571   -1.8105   -2.1133 N   0  0  0  0  0  0  0  0  0  0  0  0
   -2.6817   -0.5421   -2.4477 C   0  0  2  0  0  0  0  0  0  0  0  0
   -1.5916   -0.1770   -1.4119 C   0  0  0  0  0  0  0  0  0  0  0  0
   -1.6918    0.8119   -0.6986 O   0  0  0  0  0  0  0  0  0  0  0  0
   -3.7706    0.5301   -2.5730 C   0  0  0  0  0  0  0  0  0  0  0  0
   -4.1991   -1.7862   -1.5289 H   0  0  0  0  0  0  0  0  0  0  0  0
   -2.1868   -0.6316   -3.4209 H   0  0  0  0  0  0  0  0  0  0  0  0
   -4.3009    0.6539   -1.6232 H   0  0  0  0  0  0  0  0  0  0  0  0
   -3.3261    1.4917   -2.8493 H   0  0  0  0  0  0  0  0  0  0  0  0
   -4.4948    0.2502   -3.3441 H   0  0  0  0  0  0  0  0  0  0  0  0
   -0.6168   -1.1164   -1.1239 N   0  0  0  0  0  0  0  0  0  0  0  0
   -0.0062   -1.2740    0.2129 C   0  0  0  0  0  0  0  0  0  0  0  0
   -1.0145   -1.2623    1.3759 C   0  0  0  0  0  0  0  0  0  0  0  0
   -0.6505   -1.0103    2.5159 O   0  0  0  0  0  0  0  0  0  0  0  0
   -0.6530   -1.9458   -1.7258 H   0  0  0  0  0  0  0  0  0  0  0  0
    0.7083   -0.4611    0.3760 H   0  0  0  0  0  0  0  0  0  0  0  0
    0.5464   -2.2165    0.2508 H   0  0  0  0  0  0  0  0  0  0  0  0
   -2.2980   -1.7272    1.1585 N   0  0  0  0  0  0  0  0  0  0  0  0
   -3.4213   -1.5558    2.0857 C   0  0  2  0  0  0  0  0  0  0  0  0
   -4.6914   -2.2354    1.5323 C   0  0  0  0  0  0  0  0  0  0  0  0
   -4.8460   -2.3658    0.3186 O   0  0  0  0  0  0  0  0  0  0  0  0
   -3.7076   -0.0600    2.2851 C   0  0  0  0  0  0  0  0  0  0  0  0
   -2.5425   -1.8574    0.1799 H   0  0  0  0  0  0  0  0  0  0  0  0
   -3.1684   -2.0134    3.0476 H   0  0  0  0  0  0  0  0  0  0  0  0
   -3.9067    0.4229    1.3227 H   0  0  0  0  0  0  0  0  0  0  0  0
   -4.5775    0.0812    2.9331 H   0  0  0  0  0  0  0  0  0  0  0  0
   -2.8537    0.4408    2.7510 H   0  0  0  0  0  0  0  0  0  0  0  0
   -5.6731   -2.6902    2.3922 N   0  0  0  0  0  0  0  0  0  0  0  0
   -6.8976   -3.3432    1.9453 C   0  0  0  0  0  0  0  0  0  0  0  0
   -5.5230   -2.5564    3.3887 H   0  0  0  0  0  0  0  0  0  0  0  0
   -7.4977   -2.6590    1.3364 H   0  0  0  0  0  0  0  0  0  0  0  0
   -6.6637   -4.2326    1.3506 H   0  0  0  0  0  0  0  0  0  0  0  0
   -7.4962   -3.6538    2.8072 H   0  0  0  0  0  0  0  0  0  0  0  0
  1  2  2  0  0  0  0
  1  3  1  0  0  0  0
  1  7  1  0  0  0  0
  3  4  1  0  0  0  0
  3  5  1  0  0  0  0
  3  6  1  0  0  0  0
  7  8  1  0  0  0  0
  7 12  1  0  0  0  0
  8  9  1  0  0  0  0
  8 11  1  0  0  0  0
  8 13  1  0  0  0  0
  9 10  2  0  0  0  0
  9 17  1  0  0  0  0
 11 14  1  0  0  0  0
 11 15  1  0  0  0  0
 11 16  1  0  0  0  0
 17 18  1  0  0  0  0
 17 21  1  0  0  0  0
 18 19  1  0  0  0  0
 18 22  1  0  0  0  0
 18 23  1  0  0  0  0
 19 20  2  0  0  0  0
 19 24  1  0  0  0  0
 24 25  1  0  0  0  0
 24 29  1  0  0  0  0
 25 26  1  0  0  0  0
 25 28  1  0  0  0  0
 25 30  1  0  0  0  0
 26 27  2  0  0  0  0
 26 34  1  0  0  0  0
 28 31  1  0  0  0  0
 28 32  1  0  0  0  0
 28 33  1  0  0  0  0
 34 35  1  0  0  0  0
 34 36  1  0  0  0  0
 35 37  1  0  0  0  0
 35 38  1  0  0  0  0
 35 39  1  0  0  0  0
M  END
$$$$

  -OEChem-05262216283D

 39 38  0     1  0  0  0  0  0999 V2000
   -2.6420   -3.1081   -2.3874 C   0  0  0  0  0  0  0  0  0  0  0  0
   -1.5559   -3.0260   -2.9412 O   0  0  0  0  0  0  0  0  0  0  0  0
   -3.2080   -4.4659   -2.0192 C   0  0  0  0  0  0  0  0  0  0  0  0
   -2.7588   -5.2436   -2.6428 H   0  0  0  0  0  0  0  0  0  0  0  0
   -2.9980   -4.6872   -0.9701 H   0  0  0  0  0  0  0  0  0  0  0  0
   -4.2899   -4.4738   -2.1723 H   0  0  0  0  0  0  0  0  0  0  0  0
   -3.2839   -1.9496   -2.0039 N   0  0  0  0  0  0  0  0  0  0  0  0
   -2.8156   -0.5875   -2.3285 C   0  0  2  0  0  0  0  0  0  0  0  0
   -1.6975   -0.1063   -1.3711 C   0  0  0  0  0  0  0  0  0  0  0  0
   -1.8296    0.8956   -0.6820 O   0  0  0  0  0  0  0  0  0  0  0  0
   -4.0496    0.3233   -2.3119 C   0  0  0  0  0  0  0  0  0  0  0  0
   -4.0600   -2.0622   -1.3453 H   0  0  0  0  0  0  0  0  0  0  0  0
   -2.4011   -0.5734   -3.3422 H   0  0  0  0  0  0  0  0  0  0  0  0
   -4.4923    0.3544   -1.3110 H   0  0  0  0  0  0  0  0  0  0  0  0
   -3.7736    1.3426   -2.6003 H   0  0  0  0  0  0  0  0  0  0  0  0
   -4.8028   -0.0423   -3.0165 H   0  0  0  0  0  0  0  0  0  0  0  0
   -0.6435   -0.9661   -1.1190 N   0  0  0  0  0  0  0  0  0  0  0  0
    0.0860   -1.0296    0.1628 C   0  0  0  0  0  0  0  0  0  0  0  0
   -0.8505   -1.0228    1.3811 C   0  0  0  0  0  0  0  0  0  0  0  0
   -0.5032   -0.5144    2.4375 O   0  0  0  0  0  0  0  0  0  0  0  0
   -0.6263   -1.7942   -1.7226 H   0  0  0  0  0  0  0  0  0  0  0  0
    0.7598   -0.1701    0.2387 H   0  0  0  0  0  0  0  0  0  0  0  0
    0.6947   -1.9370    0.1979 H   0  0  0  0  0  0  0  0  0  0  0  0
   -1.9695   -1.8333    1.3467 N   0  0  0  0  0  0  0  0  0  0  0  0
   -3.1074   -1.7350    2.2713 C   0  0  2  0  0  0  0  0  0  0  0  0
   -4.2775   -2.6034    1.7615 C   0  0  0  0  0  0  0  0  0  0  0  0
   -4.3980   -2.8327    0.5583 O   0  0  0  0  0  0  0  0  0  0  0  0
   -3.6154   -0.2863    2.3752 C   0  0  0  0  0  0  0  0  0  0  0  0
   -2.1915   -2.1944    0.4218 H   0  0  0  0  0  0  0  0  0  0  0  0
   -2.8014   -2.0899    3.2605 H   0  0  0  0  0  0  0  0  0  0  0  0
   -3.8396    0.1124    1.3803 H   0  0  0  0  0  0  0  0  0  0  0  0
   -4.5250   -0.2409    2.9816 H   0  0  0  0  0  0  0  0  0  0  0  0
   -2.8692    0.3603    2.8456 H   0  0  0  0  0  0  0  0  0  0  0  0
   -5.2226   -3.0945    2.6420 N   0  0  0  0  0  0  0  0  0  0  0  0
   -6.3820   -3.8748    2.2269 C   0  0  0  0  0  0  0  0  0  0  0  0
   -5.1101   -2.8667    3.6264 H   0  0  0  0  0  0  0  0  0  0  0  0
   -7.0108   -3.2937    1.5438 H   0  0  0  0  0  0  0  0  0  0  0  0
   -6.0657   -4.7933    1.7212 H   0  0  0  0  0  0  0  0  0  0  0  0
   -6.9828   -4.1508    3.0990 H   0  0  0  0  0  0  0  0  0  0  0  0
  1  2  2  0  0  0  0
  1  3  1  0  0  0  0
  1  7  1  0  0  0  0
  3  4  1  0  0  0  0
  3  5  1  0  0  0  0
  3  6  1  0  0  0  0
  7  8  1  0  0  0  0
  7 12  1  0  0  0  0
  8  9  1  0  0  0  0
  8 11  1  0  0  0  0
  8 13  1  0  0  0  0
  9 10  2  0  0  0  0
  9 17  1  0  0  0  0
 11 14  1  0  0  0  0
 11 15  1  0  0  0  0
 11 16  1  0  0  0  0
 17 18  1  0  0  0  0
 17 21  1  0  0  0  0
 18 19  1  0  0  0  0
 18 22  1  0  0  0  0
 18 23  1  0  0  0  0
 19 20  2  0  0  0  0
 19 24  1  0  0  0  0
 24 25  1  0  0  0  0
 24 29  1  0  0  0  0
 25 26  1  0  0  0  0
 25 28  1  0  0  0  0
 25 30  1  0  0  0  0
 26 27  2  0  0  0  0
 26 34  1  0  0  0  0
 28 31  1  0  0  0  0
 28 32  1  0  0  0  0
 28 33  1  0  0  0  0
 34 35  1  0  0  0  0
 34 36  1  0  0  0  0
 35 37  1  0  0  0  0
 35 38  1  0  0  0  0
 35 39  1  0  0  0  0
M  END
$$$$

  -OEChem-05262216283D

 39 38  0     1  0  0  0  0  0999 V2000
   -2.9465   -2.8911   -2.1475 C   0  0  0  0  0  0  0  0  0  0  0  0
   -1.7523   -3.1340   -2.2523 O   0  0  0  0  0  0  0  0  0  0  0  0
   -3.9356   -3.9989   -1.8422 C   0  0  0  0  0  0  0  0  0  0  0  0
   -3.4085   -4.8835   -1.4733 H   0  0  0  0  0  0  0  0  0  0  0  0
   -4.6432   -3.6725   -1.0762 H   0  0  0  0  0  0  0  0  0  0  0  0
   -4.4878   -4.2660   -2.7461 H   0  0  0  0  0  0  0  0  0  0  0  0
   -3.3831   -1.5910   -2.3021 N   0  0  0  0  0  0  0  0  0  0  0  0
   -2.5090   -0.4600   -2.6556 C   0  0  2  0  0  0  0  0  0  0  0  0
   -1.6193   -0.0105   -1.4716 C   0  0  0  0  0  0  0  0  0  0  0  0
   -1.8716    1.0008   -0.8323 O   0  0  0  0  0  0  0  0  0  0  0  0
   -3.4050    0.6670   -3.1832 C   0  0  0  0  0  0  0  0  0  0  0  0
   -4.3684   -1.4090   -2.1323 H   0  0  0  0  0  0  0  0  0  0  0  0
   -1.8384   -0.7585   -3.4686 H   0  0  0  0  0  0  0  0  0  0  0  0
   -4.1060    0.9984   -2.4101 H   0  0  0  0  0  0  0  0  0  0  0  0
   -2.7949    1.5241   -3.4855 H   0  0  0  0  0  0  0  0  0  0  0  0
   -3.9764    0.3258   -4.0517 H   0  0  0  0  0  0  0  0  0  0  0  0
   -0.5682   -0.8246   -1.0891 N   0  0  0  0  0  0  0  0  0  0  0  0
    0.0483   -0.8025    0.2506 C   0  0  0  0  0  0  0  0  0  0  0  0
   -0.9684   -0.7692    1.4004 C   0  0  0  0  0  0  0  0  0  0  0  0
   -0.8451    0.0149    2.3316 O   0  0  0  0  0  0  0  0  0  0  0  0
   -0.5542   -1.7198   -1.5880 H   0  0  0  0  0  0  0  0  0  0  0  0
    0.6881    0.0818    0.3337 H   0  0  0  0  0  0  0  0  0  0  0  0
    0.6833   -1.6834    0.3768 H   0  0  0  0  0  0  0  0  0  0  0  0
   -1.8736   -1.8066    1.5116 N   0  0  0  0  0  0  0  0  0  0  0  0
   -2.9518   -1.8733    2.5039 C   0  0  2  0  0  0  0  0  0  0  0  0
   -3.6527   -3.2464    2.4705 C   0  0  0  0  0  0  0  0  0  0  0  0
   -3.6392   -3.9183    1.4435 O   0  0  0  0  0  0  0  0  0  0  0  0
   -3.9813   -0.7730    2.2100 C   0  0  0  0  0  0  0  0  0  0  0  0
   -1.9157   -2.4666    0.7362 H   0  0  0  0  0  0  0  0  0  0  0  0
   -2.5307   -1.7246    3.5036 H   0  0  0  0  0  0  0  0  0  0  0  0
   -4.3890   -0.8910    1.2010 H   0  0  0  0  0  0  0  0  0  0  0  0
   -4.8056   -0.8179    2.9277 H   0  0  0  0  0  0  0  0  0  0  0  0
   -3.5208    0.2172    2.2824 H   0  0  0  0  0  0  0  0  0  0  0  0
   -4.3331   -3.7163    3.5785 N   0  0  0  0  0  0  0  0  0  0  0  0
   -5.0096   -5.0073    3.6139 C   0  0  0  0  0  0  0  0  0  0  0  0
   -4.3045   -3.1509    4.4226 H   0  0  0  0  0  0  0  0  0  0  0  0
   -5.7540   -5.0728    2.8133 H   0  0  0  0  0  0  0  0  0  0  0  0
   -4.2870   -5.8208    3.4915 H   0  0  0  0  0  0  0  0  0  0  0  0
   -5.5220   -5.1402    4.5715 H   0  0  0  0  0  0  0  0  0  0  0  0
  1  2  2  0  0  0  0
  1  3  1  0  0  0  0
  1  7  1  0  0  0  0
  3  4  1  0  0  0  0
  3  5  1  0  0  0  0
  3  6  1  0  0  0  0
  7  8  1  0  0  0  0
  7 12  1  0  0  0  0
  8  9  1  0  0  0  0
  8 11  1  0  0  0  0
  8 13  1  0  0  0  0
  9 10  2  0  0  0  0
  9 17  1  0  0  0  0
 11 14  1  0  0  0  0
 11 15  1  0  0  0  0
 11 16  1  0  0  0  0
 17 18  1  0  0  0  0
 17 21  1  0  0  0  0
 18 19  1  0  0  0  0
 18 22  1  0  0  0  0
 18 23  1  0  0  0  0
 19 20  2  0  0  0  0
 19 24  1  0  0  0  0
 24 25  1  0  0  0  0
 24 29  1  0  0  0  0
 25 26  1  0  0  0  0
 25 28  1  0  0  0  0
 25 30  1  0  0  0  0
 26 27  2  0  0  0  0
 26 34  1  0  0  0  0
 28 31  1  0  0  0  0
 28 32  1  0  0  0  0
 28 33  1  0  0  0  0
 34 35  1  0  0  0  0
 34 36  1  0  0  0  0
 35 37  1  0  0  0  0
 35 38  1  0  0  0  0
 35 39  1  0  0  0  0
M  END
$$$$

  -OEChem-05262216283D

 39 38  0     1  0  0  0  0  0999 V2000
   -4.2109   -2.3240   -3.0282 C   0  0  0  0  0  0  0  0  0  0  0  0
   -3.4722   -3.2856   -2.8820 O   0  0  0  0  0  0  0  0  0  0  0  0
   -5.7159   -2.5019   -2.9611 C   0  0  0  0  0  0  0  0  0  0  0  0
   -5.9650   -3.5567   -2.8152 H   0  0  0  0  0  0  0  0  0  0  0  0
   -6.1228   -1.9254   -2.1267 H   0  0  0  0  0  0  0  0  0  0  0  0
   -6.1744   -2.1576   -3.8913 H   0  0  0  0  0  0  0  0  0  0  0  0
   -3.6790   -1.0662   -3.2225 N   0  0  0  0  0  0  0  0  0  0  0  0
   -2.2537   -0.7740   -3.0218 C   0  0  2  0  0  0  0  0  0  0  0  0
   -1.9668   -0.3389   -1.5698 C   0  0  0  0  0  0  0  0  0  0  0  0
   -2.7430    0.4191   -1.0062 O   0  0  0  0  0  0  0  0  0  0  0  0
   -1.8577    0.3295   -4.0053 C   0  0  0  0  0  0  0  0  0  0  0  0
   -4.3258   -0.2923   -3.0892 H   0  0  0  0  0  0  0  0  0  0  0  0
   -1.6492   -1.6597   -3.2436 H   0  0  0  0  0  0  0  0  0  0  0  0
   -2.4238    1.2451   -3.8045 H   0  0  0  0  0  0  0  0  0  0  0  0
   -0.7904    0.5553   -3.9157 H   0  0  0  0  0  0  0  0  0  0  0  0
   -2.0602    0.0116   -5.0330 H   0  0  0  0  0  0  0  0  0  0  0  0
   -0.8169   -0.7665   -0.9277 N   0  0  0  0  0  0  0  0  0  0  0  0
   -0.4547   -0.4668    0.4726 C   0  0  0  0  0  0  0  0  0  0  0  0
   -1.5735   -0.6263    1.5171 C   0  0  0  0  0  0  0  0  0  0  0  0
   -1.9203    0.3280    2.2004 O   0  0  0  0  0  0  0  0  0  0  0  0
   -0.2380   -1.4256   -1.4409 H   0  0  0  0  0  0  0  0  0  0  0  0
   -0.1005    0.5676    0.5246 H   0  0  0  0  0  0  0  0  0  0  0  0
    0.3753   -1.1110    0.7749 H   0  0  0  0  0  0  0  0  0  0  0  0
   -1.9586   -1.8951    1.9066 N   0  0  0  0  0  0  0  0  0  0  0  0
   -2.8026   -2.1972    3.0688 C   0  0  2  0  0  0  0  0  0  0  0  0
   -2.4458   -3.5613    3.6959 C   0  0  0  0  0  0  0  0  0  0  0  0
   -1.7354   -4.3558    3.0885 O   0  0  0  0  0  0  0  0  0  0  0  0
   -4.2641   -2.1732    2.6126 C   0  0  0  0  0  0  0  0  0  0  0  0
   -1.5470   -2.6874    1.4162 H   0  0  0  0  0  0  0  0  0  0  0  0
   -2.6537   -1.4368    3.8428 H   0  0  0  0  0  0  0  0  0  0  0  0
   -4.4365   -2.9313    1.8417 H   0  0  0  0  0  0  0  0  0  0  0  0
   -4.9341   -2.3720    3.4544 H   0  0  0  0  0  0  0  0  0  0  0  0
   -4.5133   -1.1910    2.1974 H   0  0  0  0  0  0  0  0  0  0  0  0
   -2.9071   -3.8928    4.9570 N   0  0  0  0  0  0  0  0  0  0  0  0
   -2.5818   -5.1473    5.6249 C   0  0  0  0  0  0  0  0  0  0  0  0
   -3.4693   -3.2037    5.4483 H   0  0  0  0  0  0  0  0  0  0  0  0
   -2.9400   -5.9988    5.0367 H   0  0  0  0  0  0  0  0  0  0  0  0
   -1.4986   -5.2409    5.7576 H   0  0  0  0  0  0  0  0  0  0  0  0
   -3.0555   -5.1852    6.6107 H   0  0  0  0  0  0  0  0  0  0  0  0
  1  2  2  0  0  0  0
  1  3  1  0  0  0  0
  1  7  1  0  0  0  0
  3  4  1  0  0  0  0
  3  5  1  0  0  0  0
  3  6  1  0  0  0  0
  7  8  1  0  0  0  0
  7 12  1  0  0  0  0
  8  9  1  0  0  0  0
  8 11  1  0  0  0  0
  8 13  1  0  0  0  0
  9 10  2  0  0  0  0
  9 17  1  0  0  0  0
 11 14  1  0  0  0  0
 11 15  1  0  0  0  0
 11 16  1  0  0  0  0
 17 18  1  0  0  0  0
 17 21  1  0  0  0  0
 18 19  1  0  0  0  0
 18 22  1  0  0  0  0
 18 23  1  0  0  0  0
 19 20  2  0  0  0  0
 19 24  1  0  0  0  0
 24 25  1  0  0  0  0
 24 29  1  0  0  0  0
 25 26  1  0  0  0  0
 25 28  1  0  0  0  0
 25 30  1  0  0  0  0
 26 27  2  0  0  0  0
 26 34  1  0  0  0  0
 28 31  1  0  0  0  0
 28 32  1  0  0  0  0
 28 33  1  0  0  0  0
 34 35  1  0  0  0  0
 34 36  1  0  0  0  0
 35 37  1  0  0  0  0
 35 38  1  0  0  0  0
 35 39  1  0  0  0  0
M  END
$$$$

  -OEChem-05262216283D

 39 38  0     1  0  0  0  0  0999 V2000
   -3.3886   -2.4835   -2.1944 C   0  0  0  0  0  0  0  0  0  0  0  0
   -2.3272   -3.0915   -2.1962 O   0  0  0  0  0  0  0  0  0  0  0  0
   -4.6451   -3.1420   -1.6576 C   0  0  0  0  0  0  0  0  0  0  0  0
   -5.3904   -3.2285   -2.4521 H   0  0  0  0  0  0  0  0  0  0  0  0
   -4.4152   -4.1424   -1.2794 H   0  0  0  0  0  0  0  0  0  0  0  0
   -5.0602   -2.5448   -0.8421 H   0  0  0  0  0  0  0  0  0  0  0  0
   -3.4219   -1.1692   -2.6142 N   0  0  0  0  0  0  0  0  0  0  0  0
   -2.2219   -0.4048   -2.9865 C   0  0  2  0  0  0  0  0  0  0  0  0
   -1.3578   -0.0722   -1.7474 C   0  0  0  0  0  0  0  0  0  0  0  0
   -1.4152    1.0227   -1.2093 O   0  0  0  0  0  0  0  0  0  0  0  0
   -2.6805    0.8476   -3.7442 C   0  0  0  0  0  0  0  0  0  0  0  0
   -4.2829   -0.6545   -2.4491 H   0  0  0  0  0  0  0  0  0  0  0  0
   -1.6046   -0.9986   -3.6693 H   0  0  0  0  0  0  0  0  0  0  0  0
   -3.3175    1.4733   -3.1107 H   0  0  0  0  0  0  0  0  0  0  0  0
   -1.8136    1.4406   -4.0529 H   0  0  0  0  0  0  0  0  0  0  0  0
   -3.2442    0.5677   -4.6394 H   0  0  0  0  0  0  0  0  0  0  0  0
   -0.5519   -1.0645   -1.2201 N   0  0  0  0  0  0  0  0  0  0  0  0
   -0.2130   -1.1567    0.2114 C   0  0  0  0  0  0  0  0  0  0  0  0
   -1.3936   -0.9626    1.1801 C   0  0  0  0  0  0  0  0  0  0  0  0
   -1.5440    0.0773    1.8051 O   0  0  0  0  0  0  0  0  0  0  0  0
   -0.7095   -1.9627   -1.6852 H   0  0  0  0  0  0  0  0  0  0  0  0
    0.5342   -0.3907    0.4421 H   0  0  0  0  0  0  0  0  0  0  0  0
    0.2481   -2.1271    0.4135 H   0  0  0  0  0  0  0  0  0  0  0  0
   -2.1169   -2.0785    1.5631 N   0  0  0  0  0  0  0  0  0  0  0  0
   -2.9577   -2.1537    2.7667 C   0  0  2  0  0  0  0  0  0  0  0  0
   -2.4546   -3.2444    3.7339 C   0  0  0  0  0  0  0  0  0  0  0  0
   -1.8638   -4.2254    3.2955 O   0  0  0  0  0  0  0  0  0  0  0  0
   -4.3904   -2.4528    2.3213 C   0  0  0  0  0  0  0  0  0  0  0  0
   -1.7930   -2.9686    1.1872 H   0  0  0  0  0  0  0  0  0  0  0  0
   -2.9512   -1.2023    3.3082 H   0  0  0  0  0  0  0  0  0  0  0  0
   -4.4353   -3.4083    1.7886 H   0  0  0  0  0  0  0  0  0  0  0  0
   -5.0565   -2.5058    3.1881 H   0  0  0  0  0  0  0  0  0  0  0  0
   -4.7505   -1.6621    1.6559 H   0  0  0  0  0  0  0  0  0  0  0  0
   -2.6844   -3.1383    5.0932 N   0  0  0  0  0  0  0  0  0  0  0  0
   -2.1869   -4.1058    6.0638 C   0  0  0  0  0  0  0  0  0  0  0  0
   -3.1144   -2.2813    5.4297 H   0  0  0  0  0  0  0  0  0  0  0  0
   -2.5798   -5.1046    5.8460 H   0  0  0  0  0  0  0  0  0  0  0  0
   -1.0927   -4.1446    6.0401 H   0  0  0  0  0  0  0  0  0  0  0  0
   -2.5014   -3.8247    7.0734 H   0  0  0  0  0  0  0  0  0  0  0  0
  1  2  2  0  0  0  0
  1  3  1  0  0  0  0
  1  7  1  0  0  0  0
  3  4  1  0  0  0  0
  3  5  1  0  0  0  0
  3  6  1  0  0  0  0
  7  8  1  0  0  0  0
  7 12  1  0  0  0  0
  8  9  1  0  0  0  0
  8 11  1  0  0  0  0
  8 13  1  0  0  0  0
  9 10  2  0  0  0  0
  9 17  1  0  0  0  0
 11 14  1  0  0  0  0
 11 15  1  0  0  0  0
 11 16  1  0  0  0  0
 17 18  1  0  0  0  0
 17 21  1  0  0  0  0
 18 19  1  0  0  0  0
 18 22  1  0  0  0  0
 18 23  1  0  0  0  0
 19 20  2  0  0  0  0
 19 24  1  0  0  0  0
 24 25  1  0  0  0  0
 24 29  1  0  0  0  0
 25 26  1  0  0  0  0
 25 28  1  0  0  0  0
 25 30  1  0  0  0  0
 26 27  2  0  0  0  0
 26 34  1  0  0  0  0
 28 31  1  0  0  0  0
 28 32  1  0  0  0  0
 28 33  1  0  0  0  0
 34 35  1  0  0  0  0
 34 36  1  0  0  0  0
 35 37  1  0  0  0  0
 35 38  1  0  0  0  0
 35 39  1  0  0  0  0
M  END
$$$$

  -OEChem-05262216283D

 39 38  0     1  0  0  0  0  0999 V2000
   -3.2436   -2.6459   -2.1017 C   0  0  0  0  0  0  0  0  0  0  0  0
   -2.1463   -3.1672   -2.2412 O   0  0  0  0  0  0  0  0  0  0  0  0
   -4.3966   -3.4336   -1.5091 C   0  0  0  0  0  0  0  0  0  0  0  0
   -5.2465   -3.4266   -2.1965 H   0  0  0  0  0  0  0  0  0  0  0  0
   -4.0944   -4.4700   -1.3337 H   0  0  0  0  0  0  0  0  0  0  0  0
   -4.7024   -2.9906   -0.5583 H   0  0  0  0  0  0  0  0  0  0  0  0
   -3.4107   -1.3167   -2.4310 N   0  0  0  0  0  0  0  0  0  0  0  0
   -2.3314   -0.4514   -2.9314 C   0  0  2  0  0  0  0  0  0  0  0  0
   -1.3438   -0.0561   -1.8080 C   0  0  0  0  0  0  0  0  0  0  0  0
   -1.2725    1.0913   -1.3944 O   0  0  0  0  0  0  0  0  0  0  0  0
   -2.9881    0.7624   -3.6002 C   0  0  0  0  0  0  0  0  0  0  0  0
   -4.2931   -0.8821   -2.1747 H   0  0  0  0  0  0  0  0  0  0  0  0
   -1.7584   -0.9842   -3.6979 H   0  0  0  0  0  0  0  0  0  0  0  0
   -3.5782    1.3310   -2.8740 H   0  0  0  0  0  0  0  0  0  0  0  0
   -2.2221    1.4250   -4.0156 H   0  0  0  0  0  0  0  0  0  0  0  0
   -3.6459    0.4418   -4.4135 H   0  0  0  0  0  0  0  0  0  0  0  0
   -0.4981   -1.0215   -1.2938 N   0  0  0  0  0  0  0  0  0  0  0  0
   -0.1156   -1.0689    0.1293 C   0  0  0  0  0  0  0  0  0  0  0  0
   -1.2592   -0.8820    1.1468 C   0  0  0  0  0  0  0  0  0  0  0  0
   -1.6910    0.2152    1.4660 O   0  0  0  0  0  0  0  0  0  0  0  0
   -0.6820   -1.9361   -1.7168 H   0  0  0  0  0  0  0  0  0  0  0  0
    0.6168   -0.2775    0.3162 H   0  0  0  0  0  0  0  0  0  0  0  0
    0.3823   -2.0208    0.3328 H   0  0  0  0  0  0  0  0  0  0  0  0
   -1.7274   -1.9905    1.8283 N   0  0  0  0  0  0  0  0  0  0  0  0
   -2.5983   -1.9371    3.0107 C   0  0  2  0  0  0  0  0  0  0  0  0
   -2.0933   -2.8818    4.1199 C   0  0  0  0  0  0  0  0  0  0  0  0
   -1.3976   -3.8488    3.8290 O   0  0  0  0  0  0  0  0  0  0  0  0
   -4.0125   -2.3239    2.5713 C   0  0  0  0  0  0  0  0  0  0  0  0
   -1.2313   -2.8676    1.6742 H   0  0  0  0  0  0  0  0  0  0  0  0
   -2.6165   -0.9252    3.4292 H   0  0  0  0  0  0  0  0  0  0  0  0
   -4.0194   -3.3358    2.1529 H   0  0  0  0  0  0  0  0  0  0  0  0
   -4.7005   -2.2931    3.4216 H   0  0  0  0  0  0  0  0  0  0  0  0
   -4.3742   -1.6269    1.8086 H   0  0  0  0  0  0  0  0  0  0  0  0
   -2.4136   -2.6461    5.4441 N   0  0  0  0  0  0  0  0  0  0  0  0
   -1.9080   -3.4583    6.5444 C   0  0  0  0  0  0  0  0  0  0  0  0
   -2.9396   -1.8033    5.6569 H   0  0  0  0  0  0  0  0  0  0  0  0
   -2.2234   -4.5007    6.4291 H   0  0  0  0  0  0  0  0  0  0  0  0
   -0.8139   -3.4226    6.5751 H   0  0  0  0  0  0  0  0  0  0  0  0
   -2.2927   -3.0848    7.4985 H   0  0  0  0  0  0  0  0  0  0  0  0
  1  2  2  0  0  0  0
  1  3  1  0  0  0  0
  1  7  1  0  0  0  0
  3  4  1  0  0  0  0
  3  5  1  0  0  0  0
  3  6  1  0  0  0  0
  7  8  1  0  0  0  0
  7 12  1  0  0  0  0
  8  9  1  0  0  0  0
  8 11  1  0  0  0  0
  8 13  1  0  0  0  0
  9 10  2  0  0  0  0
  9 17  1  0  0  0  0
 11 14  1  0  0  0  0
 11 15  1  0  0  0  0
 11 16  1  0  0  0  0
 17 18  1  0  0  0  0
 17 21  1  0  0  0  0
 18 19  1  0  0  0  0
 18 22  1  0  0  0  0
 18 23  1  0  0  0  0
 19 20  2  0  0  0  0
 19 24  1  0  0  0  0
 24 25  1  0  0  0  0
 24 29  1  0  0  0  0
 25 26  1  0  0  0  0
 25 28  1  0  0  0  0
 25 30  1  0  0  0  0
 26 27  2  0  0  0  0
 26 34  1  0  0  0  0
 28 31  1  0  0  0  0
 28 32  1  0  0  0  0
 28 33  1  0  0  0  0
 34 35  1  0  0  0  0
 34 36  1  0  0  0  0
 35 37  1  0  0  0  0
 35 38  1  0  0  0  0
 35 39  1  0  0  0  0
M  END
$$$$

  -OEChem-05262216283D

 39 38  0     1  0  0  0  0  0999 V2000
   -3.2592   -2.5721   -1.8786 C   0  0  0  0  0  0  0  0  0  0  0  0
   -2.2146   -3.1635   -2.1151 O   0  0  0  0  0  0  0  0  0  0  0  0
   -4.3613   -3.2538   -1.0912 C   0  0  0  0  0  0  0  0  0  0  0  0
   -5.1350   -3.6162   -1.7726 H   0  0  0  0  0  0  0  0  0  0  0  0
   -3.9549   -4.1007   -0.5315 H   0  0  0  0  0  0  0  0  0  0  0  0
   -4.8100   -2.5502   -0.3862 H   0  0  0  0  0  0  0  0  0  0  0  0
   -3.4085   -1.2615   -2.2817 N   0  0  0  0  0  0  0  0  0  0  0  0
   -2.3340   -0.4788   -2.9084 C   0  0  2  0  0  0  0  0  0  0  0  0
   -1.2550   -0.0769   -1.8766 C   0  0  0  0  0  0  0  0  0  0  0  0
   -1.0714    1.0885   -1.5516 O   0  0  0  0  0  0  0  0  0  0  0  0
   -2.9844    0.7292   -3.5930 C   0  0  0  0  0  0  0  0  0  0  0  0
   -4.1926   -0.7504   -1.8843 H   0  0  0  0  0  0  0  0  0  0  0  0
   -1.8423   -1.0773   -3.6827 H   0  0  0  0  0  0  0  0  0  0  0  0
   -3.4940    1.3608   -2.8578 H   0  0  0  0  0  0  0  0  0  0  0  0
   -2.2237    1.3335   -4.0975 H   0  0  0  0  0  0  0  0  0  0  0  0
   -3.7139    0.3980   -4.3384 H   0  0  0  0  0  0  0  0  0  0  0  0
   -0.4148   -1.0459   -1.3607 N   0  0  0  0  0  0  0  0  0  0  0  0
   -0.0995   -1.0937    0.0791 C   0  0  0  0  0  0  0  0  0  0  0  0
   -1.2705   -0.9366    1.0777 C   0  0  0  0  0  0  0  0  0  0  0  0
   -2.0796   -0.0207    1.0405 O   0  0  0  0  0  0  0  0  0  0  0  0
   -0.6446   -1.9612   -1.7581 H   0  0  0  0  0  0  0  0  0  0  0  0
    0.6159   -0.2952    0.2984 H   0  0  0  0  0  0  0  0  0  0  0  0
    0.4052   -2.0410    0.2870 H   0  0  0  0  0  0  0  0  0  0  0  0
   -1.5194   -1.9683    1.9651 N   0  0  0  0  0  0  0  0  0  0  0  0
   -2.4303   -1.8634    3.1147 C   0  0  2  0  0  0  0  0  0  0  0  0
   -1.7512   -2.3554    4.4094 C   0  0  0  0  0  0  0  0  0  0  0  0
   -0.7578   -3.0718    4.3457 O   0  0  0  0  0  0  0  0  0  0  0  0
   -3.6806   -2.6915    2.8140 C   0  0  0  0  0  0  0  0  0  0  0  0
   -0.7858   -2.6714    2.0523 H   0  0  0  0  0  0  0  0  0  0  0  0
   -2.7233   -0.8212    3.2796 H   0  0  0  0  0  0  0  0  0  0  0  0
   -3.4126   -3.7350    2.6194 H   0  0  0  0  0  0  0  0  0  0  0  0
   -4.3735   -2.6618    3.6604 H   0  0  0  0  0  0  0  0  0  0  0  0
   -4.1919   -2.2895    1.9349 H   0  0  0  0  0  0  0  0  0  0  0  0
   -2.2510   -1.9909    5.6460 N   0  0  0  0  0  0  0  0  0  0  0  0
   -1.6292   -2.3825    6.9050 C   0  0  0  0  0  0  0  0  0  0  0  0
   -3.0383   -1.3490    5.6650 H   0  0  0  0  0  0  0  0  0  0  0  0
   -1.5726   -3.4735    6.9813 H   0  0  0  0  0  0  0  0  0  0  0  0
   -0.6167   -1.9713    6.9766 H   0  0  0  0  0  0  0  0  0  0  0  0
   -2.2157   -2.0077    7.7495 H   0  0  0  0  0  0  0  0  0  0  0  0
  1  2  2  0  0  0  0
  1  3  1  0  0  0  0
  1  7  1  0  0  0  0
  3  4  1  0  0  0  0
  3  5  1  0  0  0  0
  3  6  1  0  0  0  0
  7  8  1  0  0  0  0
  7 12  1  0  0  0  0
  8  9  1  0  0  0  0
  8 11  1  0  0  0  0
  8 13  1  0  0  0  0
  9 10  2  0  0  0  0
  9 17  1  0  0  0  0
 11 14  1  0  0  0  0
 11 15  1  0  0  0  0
 11 16  1  0  0  0  0
 17 18  1  0  0  0  0
 17 21  1  0  0  0  0
 18 19  1  0  0  0  0
 18 22  1  0  0  0  0
 18 23  1  0  0  0  0
 19 20  2  0  0  0  0
 19 24  1  0  0  0  0
 24 25  1  0  0  0  0
 24 29  1  0  0  0  0
 25 26  1  0  0  0  0
 25 28  1  0  0  0  0
 25 30  1  0  0  0  0
 26 27  2  0  0  0  0
 26 34  1  0  0  0  0
 28 31  1  0  0  0  0
 28 32  1  0  0  0  0
 28 33  1  0  0  0  0
 34 35  1  0  0  0  0
 34 36  1  0  0  0  0
 35 37  1  0  0  0  0
 35 38  1  0  0  0  0
 35 39  1  0  0  0  0
M  END
$$$$

  -OEChem-05262216283D

 39 38  0     1  0  0  0  0  0999 V2000
   -3.1870   -2.5778   -1.7401 C   0  0  0  0  0  0  0  0  0  0  0  0
   -2.1534   -3.1685   -2.0257 O   0  0  0  0  0  0  0  0  0  0  0  0
   -4.2058   -3.2180   -0.8179 C   0  0  0  0  0  0  0  0  0  0  0  0
   -5.0966   -3.4970   -1.3855 H   0  0  0  0  0  0  0  0  0  0  0  0
   -3.7850   -4.1141   -0.3533 H   0  0  0  0  0  0  0  0  0  0  0  0
   -4.4902   -2.5134   -0.0324 H   0  0  0  0  0  0  0  0  0  0  0  0
   -3.3963   -1.2963   -2.2048 N   0  0  0  0  0  0  0  0  0  0  0  0
   -2.3549   -0.5218   -2.8926 C   0  0  2  0  0  0  0  0  0  0  0  0
   -1.2829   -0.0434   -1.8884 C   0  0  0  0  0  0  0  0  0  0  0  0
   -1.1821    1.1302   -1.5523 O   0  0  0  0  0  0  0  0  0  0  0  0
   -3.0418    0.6340   -3.6293 C   0  0  0  0  0  0  0  0  0  0  0  0
   -4.1150   -0.7684   -1.7150 H   0  0  0  0  0  0  0  0  0  0  0  0
   -1.8564   -1.1466   -3.6413 H   0  0  0  0  0  0  0  0  0  0  0  0
   -3.5507    1.2953   -2.9205 H   0  0  0  0  0  0  0  0  0  0  0  0
   -2.3024    1.2228   -4.1812 H   0  0  0  0  0  0  0  0  0  0  0  0
   -3.7789    0.2492   -4.3405 H   0  0  0  0  0  0  0  0  0  0  0  0
   -0.3930   -0.9558   -1.3531 N   0  0  0  0  0  0  0  0  0  0  0  0
   -0.1218   -0.9710    0.0969 C   0  0  0  0  0  0  0  0  0  0  0  0
   -1.3204   -0.8889    1.0761 C   0  0  0  0  0  0  0  0  0  0  0  0
   -2.3829   -0.3381    0.8121 O   0  0  0  0  0  0  0  0  0  0  0  0
   -0.5716   -1.8868   -1.7390 H   0  0  0  0  0  0  0  0  0  0  0  0
    0.5338   -0.1255    0.3266 H   0  0  0  0  0  0  0  0  0  0  0  0
    0.4390   -1.8820    0.3221 H   0  0  0  0  0  0  0  0  0  0  0  0
   -1.3231   -1.7520    2.1573 N   0  0  0  0  0  0  0  0  0  0  0  0
   -2.3031   -1.7043    3.2524 C   0  0  2  0  0  0  0  0  0  0  0  0
   -1.5972   -1.6705    4.6241 C   0  0  0  0  0  0  0  0  0  0  0  0
   -0.4210   -2.0066    4.7136 O   0  0  0  0  0  0  0  0  0  0  0  0
   -3.2000   -2.9389    3.1456 C   0  0  0  0  0  0  0  0  0  0  0  0
   -0.4195   -2.1551    2.4049 H   0  0  0  0  0  0  0  0  0  0  0  0
   -2.9197   -0.8022    3.1793 H   0  0  0  0  0  0  0  0  0  0  0  0
   -2.6037   -3.8532    3.2287 H   0  0  0  0  0  0  0  0  0  0  0  0
   -3.9509   -2.9386    3.9415 H   0  0  0  0  0  0  0  0  0  0  0  0
   -3.7177   -2.9467    2.1830 H   0  0  0  0  0  0  0  0  0  0  0  0
   -2.2779   -1.2705    5.7593 N   0  0  0  0  0  0  0  0  0  0  0  0
   -1.6518   -1.1783    7.0730 C   0  0  0  0  0  0  0  0  0  0  0  0
   -3.2368   -0.9536    5.6479 H   0  0  0  0  0  0  0  0  0  0  0  0
   -1.2022   -2.1369    7.3527 H   0  0  0  0  0  0  0  0  0  0  0  0
   -0.8709   -0.4105    7.0716 H   0  0  0  0  0  0  0  0  0  0  0  0
   -2.3960   -0.9148    7.8306 H   0  0  0  0  0  0  0  0  0  0  0  0
  1  2  2  0  0  0  0
  1  3  1  0  0  0  0
  1  7  1  0  0  0  0
  3  4  1  0  0  0  0
  3  5  1  0  0  0  0
  3  6  1  0  0  0  0
  7  8  1  0  0  0  0
  7 12  1  0  0  0  0
  8  9  1  0  0  0  0
  8 11  1  0  0  0  0
  8 13  1  0  0  0  0
  9 10  2  0  0  0  0
  9 17  1  0  0  0  0
 11 14  1  0  0  0  0
 11 15  1  0  0  0  0
 11 16  1  0  0  0  0
 17 18  1  0  0  0  0
 17 21  1  0  0  0  0
 18 19  1  0  0  0  0
 18 22  1  0  0  0  0
 18 23  1  0  0  0  0
 19 20  2  0  0  0  0
 19 24  1  0  0  0  0
 24 25  1  0  0  0  0
 24 29  1  0  0  0  0
 25 26  1  0  0  0  0
 25 28  1  0  0  0  0
 25 30  1  0  0  0  0
 26 27  2  0  0  0  0
 26 34  1  0  0  0  0
 28 31  1  0  0  0  0
 28 32  1  0  0  0  0
 28 33  1  0  0  0  0
 34 35  1  0  0  0  0
 34 36  1  0  0  0  0
 35 37  1  0  0  0  0
 35 38  1  0  0  0  0
 35 39  1  0  0  0  0
M  END
$$$$

  -OEChem-05262216283D

 39 38  0     1  0  0  0  0  0999 V2000
   -3.2264   -2.6272   -1.7381 C   0  0  0  0  0  0  0  0  0  0  0  0
   -2.2313   -3.2400   -2.1029 O   0  0  0  0  0  0  0  0  0  0  0  0
   -4.1967   -3.2572   -0.7582 C   0  0  0  0  0  0  0  0  0  0  0  0
   -5.1763   -3.3737   -1.2280 H   0  0  0  0  0  0  0  0  0  0  0  0
   -3.8342   -4.2401   -0.4452 H   0  0  0  0  0  0  0  0  0  0  0  0
   -4.2973   -2.6207    0.1245 H   0  0  0  0  0  0  0  0  0  0  0  0
   -3.4209   -1.3256   -2.1497 N   0  0  0  0  0  0  0  0  0  0  0  0
   -2.3918   -0.5611   -2.8671 C   0  0  2  0  0  0  0  0  0  0  0  0
   -1.2717   -0.1221   -1.8973 C   0  0  0  0  0  0  0  0  0  0  0  0
   -1.1181    1.0468   -1.5626 O   0  0  0  0  0  0  0  0  0  0  0  0
   -3.0873    0.6191   -3.5546 C   0  0  0  0  0  0  0  0  0  0  0  0
   -4.0683   -0.7895   -1.5754 H   0  0  0  0  0  0  0  0  0  0  0  0
   -1.9355   -1.1818   -3.6454 H   0  0  0  0  0  0  0  0  0  0  0  0
   -3.5680    1.2676   -2.8149 H   0  0  0  0  0  0  0  0  0  0  0  0
   -2.3588    1.2140   -4.1144 H   0  0  0  0  0  0  0  0  0  0  0  0
   -3.8494    0.2580   -4.2518 H   0  0  0  0  0  0  0  0  0  0  0  0
   -0.4369   -1.0767   -1.3457 N   0  0  0  0  0  0  0  0  0  0  0  0
   -0.1295   -1.0497    0.0969 C   0  0  0  0  0  0  0  0  0  0  0  0
   -1.2959   -0.8341    1.0938 C   0  0  0  0  0  0  0  0  0  0  0  0
   -2.4246   -0.4956    0.7504 O   0  0  0  0  0  0  0  0  0  0  0  0
   -0.6738   -2.0072   -1.7011 H   0  0  0  0  0  0  0  0  0  0  0  0
    0.5952   -0.2495    0.2743 H   0  0  0  0  0  0  0  0  0  0  0  0
    0.3603   -1.9930    0.3540 H   0  0  0  0  0  0  0  0  0  0  0  0
   -1.1801   -1.4035    2.3485 N   0  0  0  0  0  0  0  0  0  0  0  0
   -2.1778   -1.2667    3.4188 C   0  0  2  0  0  0  0  0  0  0  0  0
   -1.5009   -1.0119    4.7815 C   0  0  0  0  0  0  0  0  0  0  0  0
   -0.3058   -1.2478    4.9245 O   0  0  0  0  0  0  0  0  0  0  0  0
   -3.0116   -2.5496    3.4645 C   0  0  0  0  0  0  0  0  0  0  0  0
   -0.2363   -1.6398    2.6555 H   0  0  0  0  0  0  0  0  0  0  0  0
   -2.8348   -0.4140    3.2168 H   0  0  0  0  0  0  0  0  0  0  0  0
   -2.3739   -3.4126    3.6813 H   0  0  0  0  0  0  0  0  0  0  0  0
   -3.7809   -2.4809    4.2395 H   0  0  0  0  0  0  0  0  0  0  0  0
   -3.5047   -2.7139    2.5020 H   0  0  0  0  0  0  0  0  0  0  0  0
   -2.2279   -0.5125    5.8460 N   0  0  0  0  0  0  0  0  0  0  0  0
   -1.6382   -0.2153    7.1459 C   0  0  0  0  0  0  0  0  0  0  0  0
   -3.2061   -0.2898    5.6862 H   0  0  0  0  0  0  0  0  0  0  0  0
   -1.1930   -1.1166    7.5804 H   0  0  0  0  0  0  0  0  0  0  0  0
   -0.8602    0.5491    7.0477 H   0  0  0  0  0  0  0  0  0  0  0  0
   -2.4039    0.1565    7.8334 H   0  0  0  0  0  0  0  0  0  0  0  0
  1  2  2  0  0  0  0
  1  3  1  0  0  0  0
  1  7  1  0  0  0  0
  3  4  1  0  0  0  0
  3  5  1  0  0  0  0
  3  6  1  0  0  0  0
  7  8  1  0  0  0  0
  7 12  1  0  0  0  0
  8  9  1  0  0  0  0
  8 11  1  0  0  0  0
  8 13  1  0  0  0  0
  9 10  2  0  0  0  0
  9 17  1  0  0  0  0
 11 14  1  0  0  0  0
 11 15  1  0  0  0  0
 11 16  1  0  0  0  0
 17 18  1  0  0  0  0
 17 21  1  0  0  0  0
 18 19  1  0  0  0  0
 18 22  1  0  0  0  0
 18 23  1  0  0  0  0
 19 20  2  0  0  0  0
 19 24  1  0  0  0  0
 24 25  1  0  0  0  0
 24 29  1  0  0  0  0
 25 26  1  0  0  0  0
 25 28  1  0  0  0  0
 25 30  1  0  0  0  0
 26 27  2  0  0  0  0
 26 34  1  0  0  0  0
 28 31  1  0  0  0  0
 28 32  1  0  0  0  0
 28 33  1  0  0  0  0
 34 35  1  0  0  0  0
 34 36  1  0  0  0  0
 35 37  1  0  0  0  0
 35 38  1  0  0  0  0
 35 39  1  0  0  0  0
M  END
$$$$

  -OEChem-05262216283D

 39 38  0     1  0  0  0  0  0999 V2000
   -3.3295   -2.6450   -1.8062 C   0  0  0  0  0  0  0  0  0  0  0  0
   -2.3704   -3.2879   -2.2124 O   0  0  0  0  0  0  0  0  0  0  0  0
   -4.3362   -3.2860   -0.8702 C   0  0  0  0  0  0  0  0  0  0  0  0
   -5.3468   -3.1560   -1.2646 H   0  0  0  0  0  0  0  0  0  0  0  0
   -4.1319   -4.3554   -0.7710 H   0  0  0  0  0  0  0  0  0  0  0  0
   -4.2757   -2.8214    0.1175 H   0  0  0  0  0  0  0  0  0  0  0  0
   -3.4442   -1.3088   -2.1282 N   0  0  0  0  0  0  0  0  0  0  0  0
   -2.3793   -0.5596   -2.8119 C   0  0  2  0  0  0  0  0  0  0  0  0
   -1.2299   -0.2283   -1.8329 C   0  0  0  0  0  0  0  0  0  0  0  0
   -0.9869    0.9184   -1.4727 O   0  0  0  0  0  0  0  0  0  0  0  0
   -3.0183    0.6908   -3.4270 C   0  0  0  0  0  0  0  0  0  0  0  0
   -4.0503   -0.7742   -1.5090 H   0  0  0  0  0  0  0  0  0  0  0  0
   -1.9593   -1.1591   -3.6266 H   0  0  0  0  0  0  0  0  0  0  0  0
   -3.4614    1.3201   -2.6480 H   0  0  0  0  0  0  0  0  0  0  0  0
   -2.2643    1.2793   -3.9591 H   0  0  0  0  0  0  0  0  0  0  0  0
   -3.8017    0.4083   -4.1366 H   0  0  0  0  0  0  0  0  0  0  0  0
   -0.5049   -1.2617   -1.2679 N   0  0  0  0  0  0  0  0  0  0  0  0
   -0.1961   -1.2408    0.1737 C   0  0  0  0  0  0  0  0  0  0  0  0
   -1.3442   -0.8744    1.1452 C   0  0  0  0  0  0  0  0  0  0  0  0
   -2.4935   -0.6625    0.7657 O   0  0  0  0  0  0  0  0  0  0  0  0
   -0.8221   -2.1687   -1.6228 H   0  0  0  0  0  0  0  0  0  0  0  0
    0.6138   -0.5236    0.3390 H   0  0  0  0  0  0  0  0  0  0  0  0
    0.1791   -2.2277    0.4579 H   0  0  0  0  0  0  0  0  0  0  0  0
   -1.1715   -1.1468    2.4889 N   0  0  0  0  0  0  0  0  0  0  0  0
   -2.1634   -0.8422    3.5286 C   0  0  2  0  0  0  0  0  0  0  0  0
   -1.4838   -0.3423    4.8205 C   0  0  0  0  0  0  0  0  0  0  0  0
   -0.2797   -0.5089    4.9846 O   0  0  0  0  0  0  0  0  0  0  0  0
   -2.9797   -2.1087    3.8018 C   0  0  0  0  0  0  0  0  0  0  0  0
   -0.2120   -1.2692    2.8132 H   0  0  0  0  0  0  0  0  0  0  0  0
   -2.8334   -0.0466    3.1848 H   0  0  0  0  0  0  0  0  0  0  0  0
   -2.3286   -2.9139    4.1574 H   0  0  0  0  0  0  0  0  0  0  0  0
   -3.7447   -1.9178    4.5604 H   0  0  0  0  0  0  0  0  0  0  0  0
   -3.4784   -2.4417    2.8861 H   0  0  0  0  0  0  0  0  0  0  0  0
   -2.2201    0.3069    5.7941 N   0  0  0  0  0  0  0  0  0  0  0  0
   -1.6324    0.8477    7.0139 C   0  0  0  0  0  0  0  0  0  0  0  0
   -3.2062    0.4667    5.6100 H   0  0  0  0  0  0  0  0  0  0  0  0
   -1.1438    0.0540    7.5888 H   0  0  0  0  0  0  0  0  0  0  0  0
   -0.8912    1.6173    6.7735 H   0  0  0  0  0  0  0  0  0  0  0  0
   -2.4085    1.2982    7.6401 H   0  0  0  0  0  0  0  0  0  0  0  0
  1  2  2  0  0  0  0
  1  3  1  0  0  0  0
  1  7  1  0  0  0  0
  3  4  1  0  0  0  0
  3  5  1  0  0  0  0
  3  6  1  0  0  0  0
  7  8  1  0  0  0  0
  7 12  1  0  0  0  0
  8  9  1  0  0  0  0
  8 11  1  0  0  0  0
  8 13  1  0  0  0  0
  9 10  2  0  0  0  0
  9 17  1  0  0  0  0
 11 14  1  0  0  0  0
 11 15  1  0  0  0  0
 11 16  1  0  0  0  0
 17 18  1  0  0  0  0
 17 21  1  0  0  0  0
 18 19  1  0  0  0  0
 18 22  1  0  0  0  0
 18 23  1  0  0  0  0
 19 20  2  0  0  0  0
 19 24  1  0  0  0  0
 24 25  1  0  0  0  0
 24 29  1  0  0  0  0
 25 26  1  0  0  0  0
 25 28  1  0  0  0  0
 25 30  1  0  0  0  0
 26 27  2  0  0  0  0
 26 34  1  0  0  0  0
 28 31  1  0  0  0  0
 28 32  1  0  0  0  0
 28 33  1  0  0  0  0
 34 35  1  0  0  0  0
 34 36  1  0  0  0  0
 35 37  1  0  0  0  0
 35 38  1  0  0  0  0
 35 39  1  0  0  0  0
M  END
$$$$

  -OEChem-05262216283D

 39 38  0     1  0  0  0  0  0999 V2000
   -4.9672   -2.1930   -2.7888 C   0  0  0  0  0  0  0  0  0  0  0  0
   -4.5899   -3.2352   -3.3014 O   0  0  0  0  0  0  0  0  0  0  0  0
   -6.4497   -1.9202   -2.6189 C   0  0  0  0  0  0  0  0  0  0  0  0
   -6.7291   -1.0195   -3.1712 H   0  0  0  0  0  0  0  0  0  0  0  0
   -7.0345   -2.7626   -2.9988 H   0  0  0  0  0  0  0  0  0  0  0  0
   -6.6825   -1.7779   -1.5607 H   0  0  0  0  0  0  0  0  0  0  0  0
   -4.0486   -1.2580   -2.3627 N   0  0  0  0  0  0  0  0  0  0  0  0
   -2.5963   -1.4690   -2.3438 C   0  0  2  0  0  0  0  0  0  0  0  0
   -1.9156   -0.6119   -1.2554 C   0  0  0  0  0  0  0  0  0  0  0  0
   -2.5350    0.2943   -0.7048 O   0  0  0  0  0  0  0  0  0  0  0  0
   -2.0362   -1.1213   -3.7271 C   0  0  0  0  0  0  0  0  0  0  0  0
   -4.4002   -0.4627   -1.8302 H   0  0  0  0  0  0  0  0  0  0  0  0
   -2.3823   -2.5189   -2.1157 H   0  0  0  0  0  0  0  0  0  0  0  0
   -2.2358   -0.0719   -3.9666 H   0  0  0  0  0  0  0  0  0  0  0  0
   -0.9555   -1.2871   -3.7577 H   0  0  0  0  0  0  0  0  0  0  0  0
   -2.5013   -1.7479   -4.4946 H   0  0  0  0  0  0  0  0  0  0  0  0
   -0.5860   -0.8154   -0.9244 N   0  0  0  0  0  0  0  0  0  0  0  0
   -0.0474   -0.3398    0.3626 C   0  0  0  0  0  0  0  0  0  0  0  0
   -0.7197   -0.9347    1.6156 C   0  0  0  0  0  0  0  0  0  0  0  0
   -1.4793   -1.8933    1.5325 O   0  0  0  0  0  0  0  0  0  0  0  0
   -0.1872   -1.6717   -1.2987 H   0  0  0  0  0  0  0  0  0  0  0  0
   -0.1481    0.7491    0.4086 H   0  0  0  0  0  0  0  0  0  0  0  0
    1.0204   -0.5697    0.4098 H   0  0  0  0  0  0  0  0  0  0  0  0
   -0.2826   -0.5454    2.8668 N   0  0  0  0  0  0  0  0  0  0  0  0
   -0.8664   -1.0149    4.1295 C   0  0  2  0  0  0  0  0  0  0  0  0
   -0.8067    0.0828    5.2121 C   0  0  0  0  0  0  0  0  0  0  0  0
   -0.0771    1.0568    5.0573 O   0  0  0  0  0  0  0  0  0  0  0  0
   -0.1014   -2.2617    4.5839 C   0  0  0  0  0  0  0  0  0  0  0  0
    0.2777    0.3054    2.9222 H   0  0  0  0  0  0  0  0  0  0  0  0
   -1.9207   -1.2706    3.9780 H   0  0  0  0  0  0  0  0  0  0  0  0
    0.9537   -2.0227    4.7515 H   0  0  0  0  0  0  0  0  0  0  0  0
   -0.5229   -2.6543    5.5140 H   0  0  0  0  0  0  0  0  0  0  0  0
   -0.1646   -3.0438    3.8207 H   0  0  0  0  0  0  0  0  0  0  0  0
   -1.5753   -0.0144    6.3573 N   0  0  0  0  0  0  0  0  0  0  0  0
   -1.5756    0.9978    7.4067 C   0  0  0  0  0  0  0  0  0  0  0  0
   -2.1922   -0.8170    6.4453 H   0  0  0  0  0  0  0  0  0  0  0  0
   -0.5747    1.0997    7.8393 H   0  0  0  0  0  0  0  0  0  0  0  0
   -1.8855    1.9680    7.0041 H   0  0  0  0  0  0  0  0  0  0  0  0
   -2.2702    0.7173    8.2044 H   0  0  0  0  0  0  0  0  0  0  0  0
  1  2  2  0  0  0  0
  1  3  1  0  0  0  0
  1  7  1  0  0  0  0
  3  4  1  0  0  0  0
  3  5  1  0  0  0  0
  3  6  1  0  0  0  0
  7  8  1  0  0  0  0
  7 12  1  0  0  0  0
  8  9  1  0  0  0  0
  8 11  1  0  0  0  0
  8 13  1  0  0  0  0
  9 10  2  0  0  0  0
  9 17  1  0  0  0  0
 11 14  1  0  0  0  0
 11 15  1  0  0  0  0
 11 16  1  0  0  0  0
 17 18  1  0  0  0  0
 17 21  1  0  0  0  0
 18 19  1  0  0  0  0
 18 22  1  0  0  0  0
 18 23  1  0  0  0  0
 19 20  2  0  0  0  0
 19 24  1  0  0  0  0
 24 25  1  0  0  0  0
 24 29  1  0  0  0  0
 25 26  1  0  0  0  0
 25 28  1  0  0  0  0
 25 30  1  0  0  0  0
 26 27  2  0  0  0  0
 26 34  1  0  0  0  0
 28 31  1  0  0  0  0
 28 32  1  0  0  0  0
 28 33  1  0  0  0  0
 34 35  1  0  0  0  0
 34 36  1  0  0  0  0
 35 37  1  0  0  0  0
 35 38  1  0  0  0  0
 35 39  1  0  0  0  0
M  END
$$$$

  -OEChem-05262216283D

 39 38  0     1  0  0  0  0  0999 V2000
   -4.9601   -2.2218   -2.7495 C   0  0  0  0  0  0  0  0  0  0  0  0
   -4.6020   -3.2983   -3.2010 O   0  0  0  0  0  0  0  0  0  0  0  0
   -6.4380   -1.8980   -2.6384 C   0  0  0  0  0  0  0  0  0  0  0  0
   -6.7160   -1.7841   -1.5879 H   0  0  0  0  0  0  0  0  0  0  0  0
   -6.6574   -0.9685   -3.1694 H   0  0  0  0  0  0  0  0  0  0  0  0
   -7.0348   -2.7030   -3.0762 H   0  0  0  0  0  0  0  0  0  0  0  0
   -4.0243   -1.2981   -2.3354 N   0  0  0  0  0  0  0  0  0  0  0  0
   -2.5815   -1.5580   -2.2520 C   0  0  2  0  0  0  0  0  0  0  0  0
   -1.9031   -0.6487   -1.2043 C   0  0  0  0  0  0  0  0  0  0  0  0
   -2.5352    0.2563   -0.6662 O   0  0  0  0  0  0  0  0  0  0  0  0
   -1.9607   -1.3407   -3.6372 C   0  0  0  0  0  0  0  0  0  0  0  0
   -4.3668   -0.4722   -1.8451 H   0  0  0  0  0  0  0  0  0  0  0  0
   -2.4169   -2.5947   -1.9383 H   0  0  0  0  0  0  0  0  0  0  0  0
   -2.0930   -0.3021   -3.9565 H   0  0  0  0  0  0  0  0  0  0  0  0
   -0.8907   -1.5673   -3.6203 H   0  0  0  0  0  0  0  0  0  0  0  0
   -2.4360   -1.9946   -4.3750 H   0  0  0  0  0  0  0  0  0  0  0  0
   -0.5679   -0.8208   -0.8803 N   0  0  0  0  0  0  0  0  0  0  0  0
   -0.0148   -0.2844    0.3758 C   0  0  0  0  0  0  0  0  0  0  0  0
   -0.6714   -0.8387    1.6535 C   0  0  0  0  0  0  0  0  0  0  0  0
   -1.2485   -1.9202    1.6382 O   0  0  0  0  0  0  0  0  0  0  0  0
   -0.1579   -1.6827   -1.2295 H   0  0  0  0  0  0  0  0  0  0  0  0
   -0.1280    0.8044    0.3770 H   0  0  0  0  0  0  0  0  0  0  0  0
    1.0557   -0.5011    0.4229 H   0  0  0  0  0  0  0  0  0  0  0  0
   -0.4700   -0.2020    2.8627 N   0  0  0  0  0  0  0  0  0  0  0  0
   -1.0884   -0.6147    4.1286 C   0  0  2  0  0  0  0  0  0  0  0  0
   -1.3085    0.5922    5.0652 C   0  0  0  0  0  0  0  0  0  0  0  0
   -0.7379    1.6549    4.8425 O   0  0  0  0  0  0  0  0  0  0  0  0
   -0.1833   -1.6545    4.7973 C   0  0  0  0  0  0  0  0  0  0  0  0
   -0.0756    0.7386    2.8388 H   0  0  0  0  0  0  0  0  0  0  0  0
   -2.0689   -1.0607    3.9295 H   0  0  0  0  0  0  0  0  0  0  0  0
    0.8026   -1.2261    5.0038 H   0  0  0  0  0  0  0  0  0  0  0  0
   -0.6205   -1.9947    5.7406 H   0  0  0  0  0  0  0  0  0  0  0  0
   -0.0556   -2.5239    4.1444 H   0  0  0  0  0  0  0  0  0  0  0  0
   -2.1489    0.4888    6.1583 N   0  0  0  0  0  0  0  0  0  0  0  0
   -2.4110    1.5917    7.0750 C   0  0  0  0  0  0  0  0  0  0  0  0
   -2.6262   -0.3961    6.3029 H   0  0  0  0  0  0  0  0  0  0  0  0
   -1.4842    1.9164    7.5595 H   0  0  0  0  0  0  0  0  0  0  0  0
   -2.8452    2.4420    6.5386 H   0  0  0  0  0  0  0  0  0  0  0  0
   -3.1146    1.2783    7.8521 H   0  0  0  0  0  0  0  0  0  0  0  0
  1  2  2  0  0  0  0
  1  3  1  0  0  0  0
  1  7  1  0  0  0  0
  3  4  1  0  0  0  0
  3  5  1  0  0  0  0
  3  6  1  0  0  0  0
  7  8  1  0  0  0  0
  7 12  1  0  0  0  0
  8  9  1  0  0  0  0
  8 11  1  0  0  0  0
  8 13  1  0  0  0  0
  9 10  2  0  0  0  0
  9 17  1  0  0  0  0
 11 14  1  0  0  0  0
 11 15  1  0  0  0  0
 11 16  1  0  0  0  0
 17 18  1  0  0  0  0
 17 21  1  0  0  0  0
 18 19  1  0  0  0  0
 18 22  1  0  0  0  0
 18 23  1  0  0  0  0
 19 20  2  0  0  0  0
 19 24  1  0  0  0  0
 24 25  1  0  0  0  0
 24 29  1  0  0  0  0
 25 26  1  0  0  0  0
 25 28  1  0  0  0  0
 25 30  1  0  0  0  0
 26 27  2  0  0  0  0
 26 34  1  0  0  0  0
 28 31  1  0  0  0  0
 28 32  1  0  0  0  0
 28 33  1  0  0  0  0
 34 35  1  0  0  0  0
 34 36  1  0  0  0  0
 35 37  1  0  0  0  0
 35 38  1  0  0  0  0
 35 39  1  0  0  0  0
M  END
$$$$

  -OEChem-05262216283D

 39 38  0     1  0  0  0  0  0999 V2000
   -4.9136   -2.2491   -2.6638 C   0  0  0  0  0  0  0  0  0  0  0  0
   -4.5462   -3.3164   -3.1290 O   0  0  0  0  0  0  0  0  0  0  0  0
   -6.3941   -1.9441   -2.5336 C   0  0  0  0  0  0  0  0  0  0  0  0
   -6.6586   -1.8197   -1.4807 H   0  0  0  0  0  0  0  0  0  0  0  0
   -6.6334   -1.0247   -3.0734 H   0  0  0  0  0  0  0  0  0  0  0  0
   -6.9865   -2.7625   -2.9521 H   0  0  0  0  0  0  0  0  0  0  0  0
   -3.9852   -1.3152   -2.2561 N   0  0  0  0  0  0  0  0  0  0  0  0
   -2.5356   -1.5463   -2.2092 C   0  0  2  0  0  0  0  0  0  0  0  0
   -1.8524   -0.6445   -1.1575 C   0  0  0  0  0  0  0  0  0  0  0  0
   -2.4823    0.2567   -0.6110 O   0  0  0  0  0  0  0  0  0  0  0  0
   -1.9535   -1.2847   -3.6030 C   0  0  0  0  0  0  0  0  0  0  0  0
   -4.3327   -0.4920   -1.7651 H   0  0  0  0  0  0  0  0  0  0  0  0
   -2.3409   -2.5861   -1.9239 H   0  0  0  0  0  0  0  0  0  0  0  0
   -2.1335   -0.2475   -3.9030 H   0  0  0  0  0  0  0  0  0  0  0  0
   -0.8752   -1.4692   -3.6114 H   0  0  0  0  0  0  0  0  0  0  0  0
   -2.4191   -1.9462   -4.3405 H   0  0  0  0  0  0  0  0  0  0  0  0
   -0.5186   -0.8245   -0.8324 N   0  0  0  0  0  0  0  0  0  0  0  0
    0.0512   -0.2597    0.4034 C   0  0  0  0  0  0  0  0  0  0  0  0
   -0.6148   -0.7736    1.6917 C   0  0  0  0  0  0  0  0  0  0  0  0
   -1.0212   -1.9283    1.7527 O   0  0  0  0  0  0  0  0  0  0  0  0
   -0.1129   -1.6936   -1.1690 H   0  0  0  0  0  0  0  0  0  0  0  0
   -0.0431    0.8303    0.3732 H   0  0  0  0  0  0  0  0  0  0  0  0
    1.1181   -0.4922    0.4549 H   0  0  0  0  0  0  0  0  0  0  0  0
   -0.6743    0.0260    2.8162 N   0  0  0  0  0  0  0  0  0  0  0  0
   -1.3796   -0.3368    4.0516 C   0  0  2  0  0  0  0  0  0  0  0  0
   -1.8779    0.9168    4.8007 C   0  0  0  0  0  0  0  0  0  0  0  0
   -1.4344    2.0231    4.5109 O   0  0  0  0  0  0  0  0  0  0  0  0
   -0.4307   -1.1470    4.9408 C   0  0  0  0  0  0  0  0  0  0  0  0
   -0.4507    1.0145    2.6996 H   0  0  0  0  0  0  0  0  0  0  0  0
   -2.2570   -0.9454    3.8076 H   0  0  0  0  0  0  0  0  0  0  0  0
    0.4498   -0.5511    5.2019 H   0  0  0  0  0  0  0  0  0  0  0  0
   -0.9337   -1.4497    5.8641 H   0  0  0  0  0  0  0  0  0  0  0  0
   -0.0986   -2.0500    4.4189 H   0  0  0  0  0  0  0  0  0  0  0  0
   -2.8252    0.8058    5.8021 N   0  0  0  0  0  0  0  0  0  0  0  0
   -3.3421    1.9486    6.5457 C   0  0  0  0  0  0  0  0  0  0  0  0
   -3.1830   -0.1217    6.0114 H   0  0  0  0  0  0  0  0  0  0  0  0
   -2.5381    2.4360    7.1072 H   0  0  0  0  0  0  0  0  0  0  0  0
   -3.7893    2.6803    5.8644 H   0  0  0  0  0  0  0  0  0  0  0  0
   -4.1102    1.6234    7.2540 H   0  0  0  0  0  0  0  0  0  0  0  0
  1  2  2  0  0  0  0
  1  3  1  0  0  0  0
  1  7  1  0  0  0  0
  3  4  1  0  0  0  0
  3  5  1  0  0  0  0
  3  6  1  0  0  0  0
  7  8  1  0  0  0  0
  7 12  1  0  0  0  0
  8  9  1  0  0  0  0
  8 11  1  0  0  0  0
  8 13  1  0  0  0  0
  9 10  2  0  0  0  0
  9 17  1  0  0  0  0
 11 14  1  0  0  0  0
 11 15  1  0  0  0  0
 11 16  1  0  0  0  0
 17 18  1  0  0  0  0
 17 21  1  0  0  0  0
 18 19  1  0  0  0  0
 18 22  1  0  0  0  0
 18 23  1  0  0  0  0
 19 20  2  0  0  0  0
 19 24  1  0  0  0  0
 24 25  1  0  0  0  0
 24 29  1  0  0  0  0
 25 26  1  0  0  0  0
 25 28  1  0  0  0  0
 25 30  1  0  0  0  0
 26 27  2  0  0  0  0
 26 34  1  0  0  0  0
 28 31  1  0  0  0  0
 28 32  1  0  0  0  0
 28 33  1  0  0  0  0
 34 35  1  0  0  0  0
 34 36  1  0  0  0  0
 35 37  1  0  0  0  0
 35 38  1  0  0  0  0
 35 39  1  0  0  0  0
M  END
$$$$

  -OEChem-05262216283D

 39 38  0     1  0  0  0  0  0999 V2000
   -4.8785   -2.1541   -2.5076 C   0  0  0  0  0  0  0  0  0  0  0  0
   -4.5461   -3.2591   -2.9064 O   0  0  0  0  0  0  0  0  0  0  0  0
   -6.3471   -1.8189   -2.3296 C   0  0  0  0  0  0  0  0  0  0  0  0
   -6.6015   -0.9327   -2.9163 H   0  0  0  0  0  0  0  0  0  0  0  0
   -6.9679   -2.6541   -2.6657 H   0  0  0  0  0  0  0  0  0  0  0  0
   -6.5587   -1.6238   -1.2755 H   0  0  0  0  0  0  0  0  0  0  0  0
   -3.9209   -1.2093   -2.2080 N   0  0  0  0  0  0  0  0  0  0  0  0
   -2.4782   -1.4788   -2.1670 C   0  0  2  0  0  0  0  0  0  0  0  0
   -1.7644   -0.5689   -1.1447 C   0  0  0  0  0  0  0  0  0  0  0  0
   -2.3683    0.3587   -0.6133 O   0  0  0  0  0  0  0  0  0  0  0  0
   -1.9036   -1.2722   -3.5721 C   0  0  0  0  0  0  0  0  0  0  0  0
   -4.2366   -0.3520   -1.7550 H   0  0  0  0  0  0  0  0  0  0  0  0
   -2.3073   -2.5147   -1.8540 H   0  0  0  0  0  0  0  0  0  0  0  0
   -2.0532   -0.2378   -3.8971 H   0  0  0  0  0  0  0  0  0  0  0  0
   -0.8318   -1.4910   -3.5865 H   0  0  0  0  0  0  0  0  0  0  0  0
   -2.3996   -1.9373   -4.2864 H   0  0  0  0  0  0  0  0  0  0  0  0
   -0.4417   -0.7908   -0.8031 N   0  0  0  0  0  0  0  0  0  0  0  0
    0.1293   -0.2274    0.4321 C   0  0  0  0  0  0  0  0  0  0  0  0
   -0.5841   -0.7119    1.7051 C   0  0  0  0  0  0  0  0  0  0  0  0
   -0.8311   -1.9047    1.8384 O   0  0  0  0  0  0  0  0  0  0  0  0
   -0.0607   -1.6779   -1.1225 H   0  0  0  0  0  0  0  0  0  0  0  0
    0.0760    0.8651    0.3891 H   0  0  0  0  0  0  0  0  0  0  0  0
    1.1859   -0.4979    0.5069 H   0  0  0  0  0  0  0  0  0  0  0  0
   -0.9232    0.1722    2.7102 N   0  0  0  0  0  0  0  0  0  0  0  0
   -1.7325   -0.1855    3.8818 C   0  0  2  0  0  0  0  0  0  0  0  0
   -2.5050    1.0339    4.4287 C   0  0  0  0  0  0  0  0  0  0  0  0
   -2.1952    2.1677    4.0786 O   0  0  0  0  0  0  0  0  0  0  0  0
   -0.8075   -0.7581    4.9612 C   0  0  0  0  0  0  0  0  0  0  0  0
   -0.8575    1.1677    2.4951 H   0  0  0  0  0  0  0  0  0  0  0  0
   -2.4717   -0.9424    3.5977 H   0  0  0  0  0  0  0  0  0  0  0  0
   -0.0634   -0.0129    5.2602 H   0  0  0  0  0  0  0  0  0  0  0  0
   -1.3824   -1.0511    5.8447 H   0  0  0  0  0  0  0  0  0  0  0  0
   -0.2837   -1.6422    4.5840 H   0  0  0  0  0  0  0  0  0  0  0  0
   -3.5483    0.8624    5.3205 N   0  0  0  0  0  0  0  0  0  0  0  0
   -4.3153    1.9704    5.8779 C   0  0  0  0  0  0  0  0  0  0  0  0
   -3.7896   -0.0878    5.5871 H   0  0  0  0  0  0  0  0  0  0  0  0
   -3.6620    2.6393    6.4482 H   0  0  0  0  0  0  0  0  0  0  0  0
   -4.7961    2.5450    5.0790 H   0  0  0  0  0  0  0  0  0  0  0  0
   -5.0937    1.5932    6.5484 H   0  0  0  0  0  0  0  0  0  0  0  0
  1  2  2  0  0  0  0
  1  3  1  0  0  0  0
  1  7  1  0  0  0  0
  3  4  1  0  0  0  0
  3  5  1  0  0  0  0
  3  6  1  0  0  0  0
  7  8  1  0  0  0  0
  7 12  1  0  0  0  0
  8  9  1  0  0  0  0
  8 11  1  0  0  0  0
  8 13  1  0  0  0  0
  9 10  2  0  0  0  0
  9 17  1  0  0  0  0
 11 14  1  0  0  0  0
 11 15  1  0  0  0  0
 11 16  1  0  0  0  0
 17 18  1  0  0  0  0
 17 21  1  0  0  0  0
 18 19  1  0  0  0  0
 18 22  1  0  0  0  0
 18 23  1  0  0  0  0
 19 20  2  0  0  0  0
 19 24  1  0  0  0  0
 24 25  1  0  0  0  0
 24 29  1  0  0  0  0
 25 26  1  0  0  0  0
 25 28  1  0  0  0  0
 25 30  1  0  0  0  0
 26 27  2  0  0  0  0
 26 34  1  0  0  0  0
 28 31  1  0  0  0  0
 28 32  1  0  0  0  0
 28 33  1  0  0  0  0
 34 35  1  0  0  0  0
 34 36  1  0  0  0  0
 35 37  1  0  0  0  0
 35 38  1  0  0  0  0
 35 39  1  0  0  0  0
M  END
$$$$

  -OEChem-05262216283D

 39 38  0     1  0  0  0  0  0999 V2000
   -4.9085   -2.1140   -2.5444 C   0  0  0  0  0  0  0  0  0  0  0  0
   -4.5835   -3.2188   -2.9495 O   0  0  0  0  0  0  0  0  0  0  0  0
   -6.3751   -1.7457   -2.4260 C   0  0  0  0  0  0  0  0  0  0  0  0
   -6.6030   -0.9072   -3.0885 H   0  0  0  0  0  0  0  0  0  0  0  0
   -7.0015   -2.5970   -2.7066 H   0  0  0  0  0  0  0  0  0  0  0  0
   -6.6070   -1.4622   -1.3965 H   0  0  0  0  0  0  0  0  0  0  0  0
   -3.9430   -1.1969   -2.1887 N   0  0  0  0  0  0  0  0  0  0  0  0
   -2.5043   -1.4848   -2.1325 C   0  0  2  0  0  0  0  0  0  0  0  0
   -1.7924   -0.6113   -1.0773 C   0  0  0  0  0  0  0  0  0  0  0  0
   -2.3829    0.3238   -0.5453 O   0  0  0  0  0  0  0  0  0  0  0  0
   -1.9088   -1.2458   -3.5244 C   0  0  0  0  0  0  0  0  0  0  0  0
   -4.2560   -0.3351   -1.7429 H   0  0  0  0  0  0  0  0  0  0  0  0
   -2.3508   -2.5311   -1.8462 H   0  0  0  0  0  0  0  0  0  0  0  0
   -2.0482   -0.2027   -3.8261 H   0  0  0  0  0  0  0  0  0  0  0  0
   -0.8383   -1.4713   -3.5312 H   0  0  0  0  0  0  0  0  0  0  0  0
   -2.3986   -1.8895   -4.2619 H   0  0  0  0  0  0  0  0  0  0  0  0
   -0.4813   -0.8659   -0.7151 N   0  0  0  0  0  0  0  0  0  0  0  0
    0.1166   -0.2798    0.4962 C   0  0  0  0  0  0  0  0  0  0  0  0
   -0.6086   -0.6795    1.7905 C   0  0  0  0  0  0  0  0  0  0  0  0
   -0.6619   -1.8627    2.1020 O   0  0  0  0  0  0  0  0  0  0  0  0
   -0.1041   -1.7538   -1.0368 H   0  0  0  0  0  0  0  0  0  0  0  0
    0.1148    0.8112    0.4100 H   0  0  0  0  0  0  0  0  0  0  0  0
    1.1602   -0.5955    0.5804 H   0  0  0  0  0  0  0  0  0  0  0  0
   -1.1758    0.2727    2.6143 N   0  0  0  0  0  0  0  0  0  0  0  0
   -1.9906   -0.0441    3.7941 C   0  0  2  0  0  0  0  0  0  0  0  0
   -3.0449    1.0485    4.0684 C   0  0  0  0  0  0  0  0  0  0  0  0
   -2.9214    2.1645    3.5762 O   0  0  0  0  0  0  0  0  0  0  0  0
   -1.0624   -0.2015    5.0026 C   0  0  0  0  0  0  0  0  0  0  0  0
   -1.2978    1.2064    2.2193 H   0  0  0  0  0  0  0  0  0  0  0  0
   -2.5286   -0.9829    3.6253 H   0  0  0  0  0  0  0  0  0  0  0  0
   -0.5216    0.7312    5.1926 H   0  0  0  0  0  0  0  0  0  0  0  0
   -1.6374   -0.4600    5.8968 H   0  0  0  0  0  0  0  0  0  0  0  0
   -0.3328   -0.9970    4.8211 H   0  0  0  0  0  0  0  0  0  0  0  0
   -4.1382    0.7811    4.8720 N   0  0  0  0  0  0  0  0  0  0  0  0
   -5.1848    1.7579    5.1474 C   0  0  0  0  0  0  0  0  0  0  0  0
   -4.2283   -0.1580    5.2484 H   0  0  0  0  0  0  0  0  0  0  0  0
   -4.7741    2.6180    5.6865 H   0  0  0  0  0  0  0  0  0  0  0  0
   -5.6356    2.1100    4.2134 H   0  0  0  0  0  0  0  0  0  0  0  0
   -5.9703    1.3077    5.7618 H   0  0  0  0  0  0  0  0  0  0  0  0
  1  2  2  0  0  0  0
  1  3  1  0  0  0  0
  1  7  1  0  0  0  0
  3  4  1  0  0  0  0
  3  5  1  0  0  0  0
  3  6  1  0  0  0  0
  7  8  1  0  0  0  0
  7 12  1  0  0  0  0
  8  9  1  0  0  0  0
  8 11  1  0  0  0  0
  8 13  1  0  0  0  0
  9 10  2  0  0  0  0
  9 17  1  0  0  0  0
 11 14  1  0  0  0  0
 11 15  1  0  0  0  0
 11 16  1  0  0  0  0
 17 18  1  0  0  0  0
 17 21  1  0  0  0  0
 18 19  1  0  0  0  0
 18 22  1  0  0  0  0
 18 23  1  0  0  0  0
 19 20  2  0  0  0  0
 19 24  1  0  0  0  0
 24 25  1  0  0  0  0
 24 29  1  0  0  0  0
 25 26  1  0  0  0  0
 25 28  1  0  0  0  0
 25 30  1  0  0  0  0
 26 27  2  0  0  0  0
 26 34  1  0  0  0  0
 28 31  1  0  0  0  0
 28 32  1  0  0  0  0
 28 33  1  0  0  0  0
 34 35  1  0  0  0  0
 34 36  1  0  0  0  0
 35 37  1  0  0  0  0
 35 38  1  0  0  0  0
 35 39  1  0  0  0  0
M  END
$$$$

  -OEChem-05262216283D

 39 38  0     1  0  0  0  0  0999 V2000
   -4.9168   -2.0727   -2.5223 C   0  0  0  0  0  0  0  0  0  0  0  0
   -4.6575   -3.2230   -2.8393 O   0  0  0  0  0  0  0  0  0  0  0  0
   -6.3583   -1.6042   -2.4605 C   0  0  0  0  0  0  0  0  0  0  0  0
   -6.5260   -0.8163   -3.1988 H   0  0  0  0  0  0  0  0  0  0  0  0
   -7.0351   -2.4367   -2.6723 H   0  0  0  0  0  0  0  0  0  0  0  0
   -6.5816   -1.2137   -1.4646 H   0  0  0  0  0  0  0  0  0  0  0  0
   -3.8996   -1.1960   -2.2124 N   0  0  0  0  0  0  0  0  0  0  0  0
   -2.4865   -1.5751   -2.0874 C   0  0  2  0  0  0  0  0  0  0  0  0
   -1.7616   -0.6972   -1.0457 C   0  0  0  0  0  0  0  0  0  0  0  0
   -2.3156    0.2936   -0.5792 O   0  0  0  0  0  0  0  0  0  0  0  0
   -1.8262   -1.4404   -3.4630 C   0  0  0  0  0  0  0  0  0  0  0  0
   -4.1653   -0.2899   -1.8263 H   0  0  0  0  0  0  0  0  0  0  0  0
   -2.4106   -2.6147   -1.7501 H   0  0  0  0  0  0  0  0  0  0  0  0
   -1.8809   -0.4047   -3.8137 H   0  0  0  0  0  0  0  0  0  0  0  0
   -0.7745   -1.7384   -3.4170 H   0  0  0  0  0  0  0  0  0  0  0  0
   -2.3329   -2.0819   -4.1912 H   0  0  0  0  0  0  0  0  0  0  0  0
   -0.4801   -1.0011   -0.6202 N   0  0  0  0  0  0  0  0  0  0  0  0
    0.1044   -0.3736    0.5766 C   0  0  0  0  0  0  0  0  0  0  0  0
   -0.6905   -0.6556    1.8601 C   0  0  0  0  0  0  0  0  0  0  0  0
   -0.5636   -1.7419    2.4102 O   0  0  0  0  0  0  0  0  0  0  0  0
   -0.1237   -1.9131   -0.8957 H   0  0  0  0  0  0  0  0  0  0  0  0
    0.1677    0.7093    0.4299 H   0  0  0  0  0  0  0  0  0  0  0  0
    1.1255   -0.7384    0.7209 H   0  0  0  0  0  0  0  0  0  0  0  0
   -1.4878    0.3170    2.4297 N   0  0  0  0  0  0  0  0  0  0  0  0
   -2.3245    0.0930    3.6159 C   0  0  2  0  0  0  0  0  0  0  0  0
   -3.6255    0.9217    3.5794 C   0  0  0  0  0  0  0  0  0  0  0  0
   -3.7297    1.8861    2.8305 O   0  0  0  0  0  0  0  0  0  0  0  0
   -1.5002    0.4527    4.8556 C   0  0  0  0  0  0  0  0  0  0  0  0
   -1.7735    1.0783    1.8085 H   0  0  0  0  0  0  0  0  0  0  0  0
   -2.6155   -0.9616    3.6682 H   0  0  0  0  0  0  0  0  0  0  0  0
   -1.2036    1.5062    4.8239 H   0  0  0  0  0  0  0  0  0  0  0  0
   -2.0810    0.2811    5.7668 H   0  0  0  0  0  0  0  0  0  0  0  0
   -0.5961   -0.1627    4.9021 H   0  0  0  0  0  0  0  0  0  0  0  0
   -4.6863    0.5868    4.4016 N   0  0  0  0  0  0  0  0  0  0  0  0
   -5.9474    1.3178    4.4156 C   0  0  0  0  0  0  0  0  0  0  0  0
   -4.5790   -0.2250    5.0031 H   0  0  0  0  0  0  0  0  0  0  0  0
   -5.7783    2.3681    4.6759 H   0  0  0  0  0  0  0  0  0  0  0  0
   -6.4279    1.2704    3.4327 H   0  0  0  0  0  0  0  0  0  0  0  0
   -6.6284    0.8849    5.1544 H   0  0  0  0  0  0  0  0  0  0  0  0
  1  2  2  0  0  0  0
  1  3  1  0  0  0  0
  1  7  1  0  0  0  0
  3  4  1  0  0  0  0
  3  5  1  0  0  0  0
  3  6  1  0  0  0  0
  7  8  1  0  0  0  0
  7 12  1  0  0  0  0
  8  9  1  0  0  0  0
  8 11  1  0  0  0  0
  8 13  1  0  0  0  0
  9 10  2  0  0  0  0
  9 17  1  0  0  0  0
 11 14  1  0  0  0  0
 11 15  1  0  0  0  0
 11 16  1  0  0  0  0
 17 18  1  0  0  0  0
 17 21  1  0  0  0  0
 18 19  1  0  0  0  0
 18 22  1  0  0  0  0
 18 23  1  0  0  0  0
 19 20  2  0  0  0  0
 19 24  1  0  0  0  0
 24 25  1  0  0  0  0
 24 29  1  0  0  0  0
 25 26  1  0  0  0  0
 25 28  1  0  0  0  0
 25 30  1  0  0  0  0
 26 27  2  0  0  0  0
 26 34  1  0  0  0  0
 28 31  1  0  0  0  0
 28 32  1  0  0  0  0
 28 33  1  0  0  0  0
 34 35  1  0  0  0  0
 34 36  1  0  0  0  0
 35 37  1  0  0  0  0
 35 38  1  0  0  0  0
 35 39  1  0  0  0  0
M  END
$$$$

  -OEChem-05262216283D

 39 38  0     1  0  0  0  0  0999 V2000
   -3.6809   -3.4915   -2.8026 C   0  0  0  0  0  0  0  0  0  0  0  0
   -2.7787   -4.3135   -2.7959 O   0  0  0  0  0  0  0  0  0  0  0  0
   -5.1051   -3.9214   -3.0980 C   0  0  0  0  0  0  0  0  0  0  0  0
   -5.4985   -3.3544   -3.9453 H   0  0  0  0  0  0  0  0  0  0  0  0
   -5.1339   -4.9867   -3.3437 H   0  0  0  0  0  0  0  0  0  0  0  0
   -5.7367   -3.7437   -2.2241 H   0  0  0  0  0  0  0  0  0  0  0  0
   -3.4076   -2.1686   -2.5262 N   0  0  0  0  0  0  0  0  0  0  0  0
   -2.0940   -1.6630   -2.1070 C   0  0  2  0  0  0  0  0  0  0  0  0
   -2.2228   -0.4578   -1.1517 C   0  0  0  0  0  0  0  0  0  0  0  0
   -3.2870    0.1486   -1.0526 O   0  0  0  0  0  0  0  0  0  0  0  0
   -1.3068   -1.2740   -3.3624 C   0  0  0  0  0  0  0  0  0  0  0  0
   -4.1998   -1.5333   -2.4415 H   0  0  0  0  0  0  0  0  0  0  0  0
   -1.5505   -2.4483   -1.5702 H   0  0  0  0  0  0  0  0  0  0  0  0
   -1.8334   -0.4910   -3.9177 H   0  0  0  0  0  0  0  0  0  0  0  0
   -0.3127   -0.9035   -3.0947 H   0  0  0  0  0  0  0  0  0  0  0  0
   -1.1845   -2.1428   -4.0173 H   0  0  0  0  0  0  0  0  0  0  0  0
   -1.1391   -0.0266   -0.4060 N   0  0  0  0  0  0  0  0  0  0  0  0
   -1.2469    0.9901    0.6544 C   0  0  0  0  0  0  0  0  0  0  0  0
   -2.1928    0.6008    1.8009 C   0  0  0  0  0  0  0  0  0  0  0  0
   -1.7248    0.0858    2.8075 O   0  0  0  0  0  0  0  0  0  0  0  0
   -0.3131   -0.6206   -0.4186 H   0  0  0  0  0  0  0  0  0  0  0  0
   -1.5922    1.9341    0.2216 H   0  0  0  0  0  0  0  0  0  0  0  0
   -0.2560    1.1765    1.0791 H   0  0  0  0  0  0  0  0  0  0  0  0
   -3.5323    0.9372    1.7261 N   0  0  0  0  0  0  0  0  0  0  0  0
   -4.5921    0.5997    2.6986 C   0  0  2  0  0  0  0  0  0  0  0  0
   -4.4911    1.3204    4.0633 C   0  0  0  0  0  0  0  0  0  0  0  0
   -5.4828    1.8655    4.5307 O   0  0  0  0  0  0  0  0  0  0  0  0
   -4.6977   -0.9193    2.8896 C   0  0  0  0  0  0  0  0  0  0  0  0
   -3.8379    1.1595    0.7763 H   0  0  0  0  0  0  0  0  0  0  0  0
   -5.5376    0.9323    2.2576 H   0  0  0  0  0  0  0  0  0  0  0  0
   -3.8232   -1.3150    3.4147 H   0  0  0  0  0  0  0  0  0  0  0  0
   -5.5876   -1.1605    3.4793 H   0  0  0  0  0  0  0  0  0  0  0  0
   -4.7795   -1.4194    1.9199 H   0  0  0  0  0  0  0  0  0  0  0  0
   -3.3109    1.3461    4.7787 N   0  0  0  0  0  0  0  0  0  0  0  0
   -3.1524    1.9898    6.0746 C   0  0  0  0  0  0  0  0  0  0  0  0
   -2.5170    0.8580    4.3556 H   0  0  0  0  0  0  0  0  0  0  0  0
   -3.3571    3.0623    5.9955 H   0  0  0  0  0  0  0  0  0  0  0  0
   -3.8390    1.5513    6.8061 H   0  0  0  0  0  0  0  0  0  0  0  0
   -2.1288    1.8584    6.4384 H   0  0  0  0  0  0  0  0  0  0  0  0
  1  2  2  0  0  0  0
  1  3  1  0  0  0  0
  1  7  1  0  0  0  0
  3  4  1  0  0  0  0
  3  5  1  0  0  0  0
  3  6  1  0  0  0  0
  7  8  1  0  0  0  0
  7 12  1  0  0  0  0
  8  9  1  0  0  0  0
  8 11  1  0  0  0  0
  8 13  1  0  0  0  0
  9 10  2  0  0  0  0
  9 17  1  0  0  0  0
 11 14  1  0  0  0  0
 11 15  1  0  0  0  0
 11 16  1  0  0  0  0
 17 18  1  0  0  0  0
 17 21  1  0  0  0  0
 18 19  1  0  0  0  0
 18 22  1  0  0  0  0
 18 23  1  0  0  0  0
 19 20  2  0  0  0  0
 19 24  1  0  0  0  0
 24 25  1  0  0  0  0
 24 29  1  0  0  0  0
 25 26  1  0  0  0  0
 25 28  1  0  0  0  0
 25 30  1  0  0  0  0
 26 27  2  0  0  0  0
 26 34  1  0  0  0  0
 28 31  1  0  0  0  0
 28 32  1  0  0  0  0
 28 33  1  0  0  0  0
 34 35  1  0  0  0  0
 34 36  1  0  0  0  0
 35 37  1  0  0  0  0
 35 38  1  0  0  0  0
 35 39  1  0  0  0  0
M  END
$$$$

  -OEChem-05262216283D

 39 38  0     1  0  0  0  0  0999 V2000
   -3.6813   -3.0470   -1.7107 C   0  0  0  0  0  0  0  0  0  0  0  0
   -2.9907   -3.4677   -0.7959 O   0  0  0  0  0  0  0  0  0  0  0  0
   -5.1454   -3.4338   -1.8035 C   0  0  0  0  0  0  0  0  0  0  0  0
   -5.3567   -3.8676   -2.7839 H   0  0  0  0  0  0  0  0  0  0  0  0
   -5.3910   -4.1701   -1.0328 H   0  0  0  0  0  0  0  0  0  0  0  0
   -5.7740   -2.5512   -1.6595 H   0  0  0  0  0  0  0  0  0  0  0  0
   -3.1429   -2.1631   -2.6233 N   0  0  0  0  0  0  0  0  0  0  0  0
   -1.8398   -1.5205   -2.4038 C   0  0  2  0  0  0  0  0  0  0  0  0
   -1.9503   -0.3255   -1.4337 C   0  0  0  0  0  0  0  0  0  0  0  0
   -2.9256    0.4195   -1.4823 O   0  0  0  0  0  0  0  0  0  0  0  0
   -1.2999   -1.0654   -3.7608 C   0  0  0  0  0  0  0  0  0  0  0  0
   -3.8119   -1.6748   -3.2129 H   0  0  0  0  0  0  0  0  0  0  0  0
   -1.1360   -2.2455   -1.9809 H   0  0  0  0  0  0  0  0  0  0  0  0
   -1.9692   -0.3260   -4.2128 H   0  0  0  0  0  0  0  0  0  0  0  0
   -0.3104   -0.6124   -3.6443 H   0  0  0  0  0  0  0  0  0  0  0  0
   -1.2115   -1.9190   -4.4402 H   0  0  0  0  0  0  0  0  0  0  0  0
   -0.9476   -0.0561   -0.5179 N   0  0  0  0  0  0  0  0  0  0  0  0
   -1.1413    0.8453    0.6335 C   0  0  0  0  0  0  0  0  0  0  0  0
   -2.2476    0.4001    1.6043 C   0  0  0  0  0  0  0  0  0  0  0  0
   -1.9297   -0.0229    2.7075 O   0  0  0  0  0  0  0  0  0  0  0  0
   -0.2385   -0.7798   -0.4232 H   0  0  0  0  0  0  0  0  0  0  0  0
   -1.3813    1.8508    0.2744 H   0  0  0  0  0  0  0  0  0  0  0  0
   -0.2040    0.9210    1.1925 H   0  0  0  0  0  0  0  0  0  0  0  0
   -3.5780    0.5560    1.2598 N   0  0  0  0  0  0  0  0  0  0  0  0
   -4.7514    0.0138    1.9749 C   0  0  2  0  0  0  0  0  0  0  0  0
   -5.0730    0.6835    3.3308 C   0  0  0  0  0  0  0  0  0  0  0  0
   -6.2349    0.9552    3.6071 O   0  0  0  0  0  0  0  0  0  0  0  0
   -4.6362   -1.5090    2.1332 C   0  0  0  0  0  0  0  0  0  0  0  0
   -3.7133    0.7982    0.2738 H   0  0  0  0  0  0  0  0  0  0  0  0
   -5.6206    0.2047    1.3375 H   0  0  0  0  0  0  0  0  0  0  0  0
   -3.8431   -1.7756    2.8379 H   0  0  0  0  0  0  0  0  0  0  0  0
   -5.5780   -1.9194    2.5102 H   0  0  0  0  0  0  0  0  0  0  0  0
   -4.4158   -1.9768    1.1693 H   0  0  0  0  0  0  0  0  0  0  0  0
   -4.0834    0.9518    4.2547 N   0  0  0  0  0  0  0  0  0  0  0  0
   -4.3295    1.5016    5.5801 C   0  0  0  0  0  0  0  0  0  0  0  0
   -3.1428    0.6327    4.0071 H   0  0  0  0  0  0  0  0  0  0  0  0
   -4.8258    2.4748    5.5042 H   0  0  0  0  0  0  0  0  0  0  0  0
   -4.9635    0.8257    6.1634 H   0  0  0  0  0  0  0  0  0  0  0  0
   -3.3837    1.6368    6.1134 H   0  0  0  0  0  0  0  0  0  0  0  0
  1  2  2  0  0  0  0
  1  3  1  0  0  0  0
  1  7  1  0  0  0  0
  3  4  1  0  0  0  0
  3  5  1  0  0  0  0
  3  6  1  0  0  0  0
  7  8  1  0  0  0  0
  7 12  1  0  0  0  0
  8  9  1  0  0  0  0
  8 11  1  0  0  0  0
  8 13  1  0  0  0  0
  9 10  2  0  0  0  0
  9 17  1  0  0  0  0
 11 14  1  0  0  0  0
 11 15  1  0  0  0  0
 11 16  1  0  0  0  0
 17 18  1  0  0  0  0
 17 21  1  0  0  0  0
 18 19  1  0  0  0  0
 18 22  1  0  0  0  0
 18 23  1  0  0  0  0
 19 20  2  0  0  0  0
 19 24  1  0  0  0  0
 24 25  1  0  0  0  0
 24 29  1  0  0  0  0
 25 26  1  0  0  0  0
 25 28  1  0  0  0  0
 25 30  1  0  0  0  0
 26 27  2  0  0  0  0
 26 34  1  0  0  0  0
 28 31  1  0  0  0  0
 28 32  1  0  0  0  0
 28 33  1  0  0  0  0
 34 35  1  0  0  0  0
 34 36  1  0  0  0  0
 35 37  1  0  0  0  0
 35 38  1  0  0  0  0
 35 39  1  0  0  0  0
M  END
$$$$

  -OEChem-05262216283D

 39 38  0     1  0  0  0  0  0999 V2000
   -3.9702   -2.2998   -1.8616 C   0  0  0  0  0  0  0  0  0  0  0  0
   -3.1608   -3.0624   -2.3712 O   0  0  0  0  0  0  0  0  0  0  0  0
   -5.1851   -2.8513   -1.1418 C   0  0  0  0  0  0  0  0  0  0  0  0
   -6.0622   -2.2378   -1.3619 H   0  0  0  0  0  0  0  0  0  0  0  0
   -5.3822   -3.8772   -1.4646 H   0  0  0  0  0  0  0  0  0  0  0  0
   -5.0077   -2.8462   -0.0634 H   0  0  0  0  0  0  0  0  0  0  0  0
   -3.6939   -0.9498   -1.8228 N   0  0  0  0  0  0  0  0  0  0  0  0
   -2.4159   -0.3731   -2.2689 C   0  0  2  0  0  0  0  0  0  0  0  0
   -1.3198   -0.5768   -1.1977 C   0  0  0  0  0  0  0  0  0  0  0  0
   -0.8352    0.3657   -0.5784 O   0  0  0  0  0  0  0  0  0  0  0  0
   -2.6714    1.1031   -2.5940 C   0  0  0  0  0  0  0  0  0  0  0  0
   -4.2259   -0.4241   -1.1203 H   0  0  0  0  0  0  0  0  0  0  0  0
   -2.0795   -0.8674   -3.1867 H   0  0  0  0  0  0  0  0  0  0  0  0
   -3.0171    1.6394   -1.7039 H   0  0  0  0  0  0  0  0  0  0  0  0
   -1.7523    1.5785   -2.9511 H   0  0  0  0  0  0  0  0  0  0  0  0
   -3.4337    1.1940   -3.3737 H   0  0  0  0  0  0  0  0  0  0  0  0
   -1.0304   -1.8627   -0.7794 N   0  0  0  0  0  0  0  0  0  0  0  0
   -0.5951   -2.1868    0.5914 C   0  0  0  0  0  0  0  0  0  0  0  0
   -1.6145   -1.7993    1.6784 C   0  0  0  0  0  0  0  0  0  0  0  0
   -2.1532   -2.6669    2.3533 O   0  0  0  0  0  0  0  0  0  0  0  0
   -1.5675   -2.5810   -1.2765 H   0  0  0  0  0  0  0  0  0  0  0  0
    0.3482   -1.6754    0.8056 H   0  0  0  0  0  0  0  0  0  0  0  0
   -0.4044   -3.2617    0.6630 H   0  0  0  0  0  0  0  0  0  0  0  0
   -2.0115   -0.4873    1.8418 N   0  0  0  0  0  0  0  0  0  0  0  0
   -3.1764   -0.0878    2.6381 C   0  0  2  0  0  0  0  0  0  0  0  0
   -4.5208   -0.3224    1.9121 C   0  0  0  0  0  0  0  0  0  0  0  0
   -4.6526   -0.0711    0.7164 O   0  0  0  0  0  0  0  0  0  0  0  0
   -3.0128    1.3931    2.9839 C   0  0  0  0  0  0  0  0  0  0  0  0
   -1.6567    0.1635    1.1344 H   0  0  0  0  0  0  0  0  0  0  0  0
   -3.1871   -0.6601    3.5716 H   0  0  0  0  0  0  0  0  0  0  0  0
   -2.9884    1.9989    2.0720 H   0  0  0  0  0  0  0  0  0  0  0  0
   -3.8460    1.7341    3.6062 H   0  0  0  0  0  0  0  0  0  0  0  0
   -2.0808    1.5537    3.5346 H   0  0  0  0  0  0  0  0  0  0  0  0
   -5.6187   -0.7667    2.6257 N   0  0  0  0  0  0  0  0  0  0  0  0
   -6.9280   -1.0074    2.0316 C   0  0  0  0  0  0  0  0  0  0  0  0
   -5.4596   -1.0511    3.5885 H   0  0  0  0  0  0  0  0  0  0  0  0
   -7.2838   -0.1136    1.5082 H   0  0  0  0  0  0  0  0  0  0  0  0
   -6.8810   -1.8383    1.3207 H   0  0  0  0  0  0  0  0  0  0  0  0
   -7.6540   -1.2592    2.8108 H   0  0  0  0  0  0  0  0  0  0  0  0
  1  2  2  0  0  0  0
  1  3  1  0  0  0  0
  1  7  1  0  0  0  0
  3  4  1  0  0  0  0
  3  5  1  0  0  0  0
  3  6  1  0  0  0  0
  7  8  1  0  0  0  0
  7 12  1  0  0  0  0
  8  9  1  0  0  0  0
  8 11  1  0  0  0  0
  8 13  1  0  0  0  0
  9 10  2  0  0  0  0
  9 17  1  0  0  0  0
 11 14  1  0  0  0  0
 11 15  1  0  0  0  0
 11 16  1  0  0  0  0
 17 18  1  0  0  0  0
 17 21  1  0  0  0  0
 18 19  1  0  0  0  0
 18 22  1  0  0  0  0
 18 23  1  0  0  0  0
 19 20  2  0  0  0  0
 19 24  1  0  0  0  0
 24 25  1  0  0  0  0
 24 29  1  0  0  0  0
 25 26  1  0  0  0  0
 25 28  1  0  0  0  0
 25 30  1  0  0  0  0
 26 27  2  0  0  0  0
 26 34  1  0  0  0  0
 28 31  1  0  0  0  0
 28 32  1  0  0  0  0
 28 33  1  0  0  0  0
 34 35  1  0  0  0  0
 34 36  1  0  0  0  0
 35 37  1  0  0  0  0
 35 38  1  0  0  0  0
 35 39  1  0  0  0  0
M  END
$$$$

  -OEChem-05262216283D

 39 38  0     1  0  0  0  0  0999 V2000
   -3.8861   -2.4906   -2.0339 C   0  0  0  0  0  0  0  0  0  0  0  0
   -3.0079   -3.1615   -2.5574 O   0  0  0  0  0  0  0  0  0  0  0  0
   -5.0465   -3.1713   -1.3352 C   0  0  0  0  0  0  0  0  0  0  0  0
   -5.1566   -4.1967   -1.6976 H   0  0  0  0  0  0  0  0  0  0  0  0
   -4.8659   -3.1930   -0.2578 H   0  0  0  0  0  0  0  0  0  0  0  0
   -5.9736   -2.6269   -1.5295 H   0  0  0  0  0  0  0  0  0  0  0  0
   -3.7338   -1.1231   -1.9548 N   0  0  0  0  0  0  0  0  0  0  0  0
   -2.5185   -0.4132   -2.3848 C   0  0  2  0  0  0  0  0  0  0  0  0
   -1.3991   -0.5404   -1.3251 C   0  0  0  0  0  0  0  0  0  0  0  0
   -0.9847    0.4300   -0.6997 O   0  0  0  0  0  0  0  0  0  0  0  0
   -2.9203    1.0401   -2.6621 C   0  0  0  0  0  0  0  0  0  0  0  0
   -4.3186   -0.6673   -1.2459 H   0  0  0  0  0  0  0  0  0  0  0  0
   -2.1413   -0.8442   -3.3184 H   0  0  0  0  0  0  0  0  0  0  0  0
   -3.3118    1.5109   -1.7542 H   0  0  0  0  0  0  0  0  0  0  0  0
   -2.0552    1.6151   -3.0069 H   0  0  0  0  0  0  0  0  0  0  0  0
   -3.6927    1.0800   -3.4361 H   0  0  0  0  0  0  0  0  0  0  0  0
   -1.0132   -1.8037   -0.9179 N   0  0  0  0  0  0  0  0  0  0  0  0
   -0.4835   -2.1261    0.4217 C   0  0  0  0  0  0  0  0  0  0  0  0
   -1.4393   -1.8172    1.5913 C   0  0  0  0  0  0  0  0  0  0  0  0
   -1.7113   -2.6966    2.3975 O   0  0  0  0  0  0  0  0  0  0  0  0
   -1.4867   -2.5583   -1.4255 H   0  0  0  0  0  0  0  0  0  0  0  0
    0.4416   -1.5652    0.5848 H   0  0  0  0  0  0  0  0  0  0  0  0
   -0.2284   -3.1894    0.4572 H   0  0  0  0  0  0  0  0  0  0  0  0
   -2.1325   -0.6247    1.6534 N   0  0  0  0  0  0  0  0  0  0  0  0
   -3.3031   -0.3774    2.5014 C   0  0  2  0  0  0  0  0  0  0  0  0
   -4.6358   -0.6898    1.7854 C   0  0  0  0  0  0  0  0  0  0  0  0
   -4.7944   -0.4252    0.5960 O   0  0  0  0  0  0  0  0  0  0  0  0
   -3.2579    1.0920    2.9231 C   0  0  0  0  0  0  0  0  0  0  0  0
   -1.9218    0.0431    0.9064 H   0  0  0  0  0  0  0  0  0  0  0  0
   -3.2456   -0.9956    3.4032 H   0  0  0  0  0  0  0  0  0  0  0  0
   -3.3121    1.7442    2.0453 H   0  0  0  0  0  0  0  0  0  0  0  0
   -4.0984    1.3259    3.5833 H   0  0  0  0  0  0  0  0  0  0  0  0
   -2.3271    1.3049    3.4581 H   0  0  0  0  0  0  0  0  0  0  0  0
   -5.6942   -1.2293    2.4925 N   0  0  0  0  0  0  0  0  0  0  0  0
   -6.9896   -1.5380    1.8984 C   0  0  0  0  0  0  0  0  0  0  0  0
   -5.5189   -1.5033    3.4555 H   0  0  0  0  0  0  0  0  0  0  0  0
   -7.4091   -0.6531    1.4079 H   0  0  0  0  0  0  0  0  0  0  0  0
   -6.8920   -2.3388    1.1585 H   0  0  0  0  0  0  0  0  0  0  0  0
   -7.6914   -1.8649    2.6718 H   0  0  0  0  0  0  0  0  0  0  0  0
  1  2  2  0  0  0  0
  1  3  1  0  0  0  0
  1  7  1  0  0  0  0
  3  4  1  0  0  0  0
  3  5  1  0  0  0  0
  3  6  1  0  0  0  0
  7  8  1  0  0  0  0
  7 12  1  0  0  0  0
  8  9  1  0  0  0  0
  8 11  1  0  0  0  0
  8 13  1  0  0  0  0
  9 10  2  0  0  0  0
  9 17  1  0  0  0  0
 11 14  1  0  0  0  0
 11 15  1  0  0  0  0
 11 16  1  0  0  0  0
 17 18  1  0  0  0  0
 17 21  1  0  0  0  0
 18 19  1  0  0  0  0
 18 22  1  0  0  0  0
 18 23  1  0  0  0  0
 19 20  2  0  0  0  0
 19 24  1  0  0  0  0
 24 25  1  0  0  0  0
 24 29  1  0  0  0  0
 25 26  1  0  0  0  0
 25 28  1  0  0  0  0
 25 30  1  0  0  0  0
 26 27  2  0  0  0  0
 26 34  1  0  0  0  0
 28 31  1  0  0  0  0
 28 32  1  0  0  0  0
 28 33  1  0  0  0  0
 34 35  1  0  0  0  0
 34 36  1  0  0  0  0
 35 37  1  0  0  0  0
 35 38  1  0  0  0  0
 35 39  1  0  0  0  0
M  END
$$$$

  -OEChem-05262216283D

 39 38  0     1  0  0  0  0  0999 V2000
   -3.7081   -2.7214   -2.1778 C   0  0  0  0  0  0  0  0  0  0  0  0
   -2.7488   -3.2935   -2.6764 O   0  0  0  0  0  0  0  0  0  0  0  0
   -4.8270   -3.5251   -1.5442 C   0  0  0  0  0  0  0  0  0  0  0  0
   -4.8271   -4.5461   -1.9353 H   0  0  0  0  0  0  0  0  0  0  0  0
   -4.6905   -3.5589   -0.4606 H   0  0  0  0  0  0  0  0  0  0  0  0
   -5.7919   -3.0631   -1.7664 H   0  0  0  0  0  0  0  0  0  0  0  0
   -3.6980   -1.3461   -2.0819 N   0  0  0  0  0  0  0  0  0  0  0  0
   -2.5600   -0.5080   -2.4957 C   0  0  2  0  0  0  0  0  0  0  0  0
   -1.4446   -0.5138   -1.4246 C   0  0  0  0  0  0  0  0  0  0  0  0
   -1.1448    0.4961   -0.7982 O   0  0  0  0  0  0  0  0  0  0  0  0
   -3.1102    0.8942   -2.7828 C   0  0  0  0  0  0  0  0  0  0  0  0
   -4.3436   -0.9603   -1.3843 H   0  0  0  0  0  0  0  0  0  0  0  0
   -2.1272   -0.8965   -3.4238 H   0  0  0  0  0  0  0  0  0  0  0  0
   -3.5689    1.3199   -1.8844 H   0  0  0  0  0  0  0  0  0  0  0  0
   -2.3051    1.5595   -3.1098 H   0  0  0  0  0  0  0  0  0  0  0  0
   -3.8656    0.8512   -3.5733 H   0  0  0  0  0  0  0  0  0  0  0  0
   -0.9449   -1.7293   -0.9974 N   0  0  0  0  0  0  0  0  0  0  0  0
   -0.3279   -1.9856    0.3204 C   0  0  0  0  0  0  0  0  0  0  0  0
   -1.2322   -1.7240    1.5425 C   0  0  0  0  0  0  0  0  0  0  0  0
   -1.2123   -2.5114    2.4786 O   0  0  0  0  0  0  0  0  0  0  0  0
   -1.3294   -2.5343   -1.5026 H   0  0  0  0  0  0  0  0  0  0  0  0
    0.5615   -1.3568    0.4229 H   0  0  0  0  0  0  0  0  0  0  0  0
    0.0042   -3.0274    0.3590 H   0  0  0  0  0  0  0  0  0  0  0  0
   -2.2212   -0.7607    1.5074 N   0  0  0  0  0  0  0  0  0  0  0  0
   -3.3841   -0.6842    2.3981 C   0  0  2  0  0  0  0  0  0  0  0  0
   -4.6930   -1.1018    1.6927 C   0  0  0  0  0  0  0  0  0  0  0  0
   -4.8652   -0.8879    0.4944 O   0  0  0  0  0  0  0  0  0  0  0  0
   -3.4862    0.7572    2.8995 C   0  0  0  0  0  0  0  0  0  0  0  0
   -2.1792   -0.1222    0.7096 H   0  0  0  0  0  0  0  0  0  0  0  0
   -3.2417   -1.3413    3.2621 H   0  0  0  0  0  0  0  0  0  0  0  0
   -3.6324    1.4463    2.0611 H   0  0  0  0  0  0  0  0  0  0  0  0
   -4.3290    0.8633    3.5891 H   0  0  0  0  0  0  0  0  0  0  0  0
   -2.5696    1.0399    3.4268 H   0  0  0  0  0  0  0  0  0  0  0  0
   -5.7092   -1.6978    2.4160 N   0  0  0  0  0  0  0  0  0  0  0  0
   -6.9740   -2.1258    1.8304 C   0  0  0  0  0  0  0  0  0  0  0  0
   -5.5276   -1.9017    3.3952 H   0  0  0  0  0  0  0  0  0  0  0  0
   -7.4789   -1.2823    1.3476 H   0  0  0  0  0  0  0  0  0  0  0  0
   -6.8060   -2.9105    1.0855 H   0  0  0  0  0  0  0  0  0  0  0  0
   -7.6348   -2.5228    2.6073 H   0  0  0  0  0  0  0  0  0  0  0  0
  1  2  2  0  0  0  0
  1  3  1  0  0  0  0
  1  7  1  0  0  0  0
  3  4  1  0  0  0  0
  3  5  1  0  0  0  0
  3  6  1  0  0  0  0
  7  8  1  0  0  0  0
  7 12  1  0  0  0  0
  8  9  1  0  0  0  0
  8 11  1  0  0  0  0
  8 13  1  0  0  0  0
  9 10  2  0  0  0  0
  9 17  1  0  0  0  0
 11 14  1  0  0  0  0
 11 15  1  0  0  0  0
 11 16  1  0  0  0  0
 17 18  1  0  0  0  0
 17 21  1  0  0  0  0
 18 19  1  0  0  0  0
 18 22  1  0  0  0  0
 18 23  1  0  0  0  0
 19 20  2  0  0  0  0
 19 24  1  0  0  0  0
 24 25  1  0  0  0  0
 24 29  1  0  0  0  0
 25 26  1  0  0  0  0
 25 28  1  0  0  0  0
 25 30  1  0  0  0  0
 26 27  2  0  0  0  0
 26 34  1  0  0  0  0
 28 31  1  0  0  0  0
 28 32  1  0  0  0  0
 28 33  1  0  0  0  0
 34 35  1  0  0  0  0
 34 36  1  0  0  0  0
 35 37  1  0  0  0  0
 35 38  1  0  0  0  0
 35 39  1  0  0  0  0
M  END
$$$$

  -OEChem-05262216283D

 39 38  0     1  0  0  0  0  0999 V2000
   -3.2415   -3.0271   -2.1738 C   0  0  0  0  0  0  0  0  0  0  0  0
   -2.1762   -3.4129   -2.6350 O   0  0  0  0  0  0  0  0  0  0  0  0
   -4.2012   -4.0154   -1.5397 C   0  0  0  0  0  0  0  0  0  0  0  0
   -3.9733   -5.0309   -1.8747 H   0  0  0  0  0  0  0  0  0  0  0  0
   -4.1139   -3.9723   -0.4513 H   0  0  0  0  0  0  0  0  0  0  0  0
   -5.2285   -3.7736   -1.8233 H   0  0  0  0  0  0  0  0  0  0  0  0
   -3.5108   -1.6753   -2.1408 N   0  0  0  0  0  0  0  0  0  0  0  0
   -2.5628   -0.6424   -2.5910 C   0  0  2  0  0  0  0  0  0  0  0  0
   -1.4732   -0.3844   -1.5251 C   0  0  0  0  0  0  0  0  0  0  0  0
   -1.4748    0.6340   -0.8451 O   0  0  0  0  0  0  0  0  0  0  0  0
   -3.3811    0.6099   -2.9263 C   0  0  0  0  0  0  0  0  0  0  0  0
   -4.2656   -1.3945   -1.5054 H   0  0  0  0  0  0  0  0  0  0  0  0
   -2.0592   -0.9698   -3.5069 H   0  0  0  0  0  0  0  0  0  0  0  0
   -3.9222    0.9654   -2.0430 H   0  0  0  0  0  0  0  0  0  0  0  0
   -2.7227    1.4114   -3.2758 H   0  0  0  0  0  0  0  0  0  0  0  0
   -4.1073    0.3893   -3.7146 H   0  0  0  0  0  0  0  0  0  0  0  0
   -0.6754   -1.4391   -1.1226 N   0  0  0  0  0  0  0  0  0  0  0  0
   -0.0629   -1.5547    0.2182 C   0  0  0  0  0  0  0  0  0  0  0  0
   -1.0537   -1.5907    1.4001 C   0  0  0  0  0  0  0  0  0  0  0  0
   -0.7227   -2.1230    2.4503 O   0  0  0  0  0  0  0  0  0  0  0  0
   -0.8616   -2.3114   -1.6288 H   0  0  0  0  0  0  0  0  0  0  0  0
    0.6126   -0.7082    0.3742 H   0  0  0  0  0  0  0  0  0  0  0  0
    0.5416   -2.4657    0.2548 H   0  0  0  0  0  0  0  0  0  0  0  0
   -2.3713   -1.2126    1.2338 N   0  0  0  0  0  0  0  0  0  0  0  0
   -3.4502   -1.3670    2.2130 C   0  0  2  0  0  0  0  0  0  0  0  0
   -4.8287   -1.5226    1.5308 C   0  0  0  0  0  0  0  0  0  0  0  0
   -4.9658   -1.3306    0.3237 O   0  0  0  0  0  0  0  0  0  0  0  0
   -3.4335   -0.1447    3.1354 C   0  0  0  0  0  0  0  0  0  0  0  0
   -2.5563   -0.6313    0.4154 H   0  0  0  0  0  0  0  0  0  0  0  0
   -3.2757   -2.2693    2.8086 H   0  0  0  0  0  0  0  0  0  0  0  0
   -3.5988    0.7716    2.5592 H   0  0  0  0  0  0  0  0  0  0  0  0
   -4.2142   -0.2248    3.8974 H   0  0  0  0  0  0  0  0  0  0  0  0
   -2.4658   -0.0671    3.6416 H   0  0  0  0  0  0  0  0  0  0  0  0
   -5.9300   -1.9105    2.2709 N   0  0  0  0  0  0  0  0  0  0  0  0
   -7.2680   -2.0535    1.7091 C   0  0  0  0  0  0  0  0  0  0  0  0
   -5.7978   -2.0547    3.2682 H   0  0  0  0  0  0  0  0  0  0  0  0
   -7.6217   -1.0948    1.3148 H   0  0  0  0  0  0  0  0  0  0  0  0
   -7.2686   -2.7905    0.8989 H   0  0  0  0  0  0  0  0  0  0  0  0
   -7.9682   -2.3893    2.4804 H   0  0  0  0  0  0  0  0  0  0  0  0
  1  2  2  0  0  0  0
  1  3  1  0  0  0  0
  1  7  1  0  0  0  0
  3  4  1  0  0  0  0
  3  5  1  0  0  0  0
  3  6  1  0  0  0  0
  7  8  1  0  0  0  0
  7 12  1  0  0  0  0
  8  9  1  0  0  0  0
  8 11  1  0  0  0  0
  8 13  1  0  0  0  0
  9 10  2  0  0  0  0
  9 17  1  0  0  0  0
 11 14  1  0  0  0  0
 11 15  1  0  0  0  0
 11 16  1  0  0  0  0
 17 18  1  0  0  0  0
 17 21  1  0  0  0  0
 18 19  1  0  0  0  0
 18 22  1  0  0  0  0
 18 23  1  0  0  0  0
 19 20  2  0  0  0  0
 19 24  1  0  0  0  0
 24 25  1  0  0  0  0
 24 29  1  0  0  0  0
 25 26  1  0  0  0  0
 25 28  1  0  0  0  0
 25 30  1  0  0  0  0
 26 27  2  0  0  0  0
 26 34  1  0  0  0  0
 28 31  1  0  0  0  0
 28 32  1  0  0  0  0
 28 33  1  0  0  0  0
 34 35  1  0  0  0  0
 34 36  1  0  0  0  0
 35 37  1  0  0  0  0
 35 38  1  0  0  0  0
 35 39  1  0  0  0  0
M  END
$$$$

  -OEChem-05262216283D

 39 38  0     1  0  0  0  0  0999 V2000
   -3.0264   -3.0714   -2.2646 C   0  0  0  0  0  0  0  0  0  0  0  0
   -1.9269   -3.3400   -2.7273 O   0  0  0  0  0  0  0  0  0  0  0  0
   -3.9218   -4.1753   -1.7370 C   0  0  0  0  0  0  0  0  0  0  0  0
   -3.6967   -5.1168   -2.2448 H   0  0  0  0  0  0  0  0  0  0  0  0
   -3.7630   -4.3017   -0.6633 H   0  0  0  0  0  0  0  0  0  0  0  0
   -4.9707   -3.9236   -1.9119 H   0  0  0  0  0  0  0  0  0  0  0  0
   -3.3931   -1.7483   -2.1358 N   0  0  0  0  0  0  0  0  0  0  0  0
   -2.5478   -0.6145   -2.5511 C   0  0  2  0  0  0  0  0  0  0  0  0
   -1.4530   -0.3109   -1.5018 C   0  0  0  0  0  0  0  0  0  0  0  0
   -1.5024    0.6881   -0.7972 O   0  0  0  0  0  0  0  0  0  0  0  0
   -3.4781    0.5762   -2.8096 C   0  0  0  0  0  0  0  0  0  0  0  0
   -4.2042   -1.5662   -1.5358 H   0  0  0  0  0  0  0  0  0  0  0  0
   -2.0411   -0.8532   -3.4926 H   0  0  0  0  0  0  0  0  0  0  0  0
   -4.0236    0.8457   -1.8991 H   0  0  0  0  0  0  0  0  0  0  0  0
   -2.8994    1.4457   -3.1372 H   0  0  0  0  0  0  0  0  0  0  0  0
   -4.2034    0.3288   -3.5908 H   0  0  0  0  0  0  0  0  0  0  0  0
   -0.5797   -1.3224   -1.1478 N   0  0  0  0  0  0  0  0  0  0  0  0
    0.0540   -1.4268    0.1829 C   0  0  0  0  0  0  0  0  0  0  0  0
   -0.9292   -1.5608    1.3623 C   0  0  0  0  0  0  0  0  0  0  0  0
   -0.5073   -1.8126    2.4822 O   0  0  0  0  0  0  0  0  0  0  0  0
   -0.7071   -2.1887   -1.6818 H   0  0  0  0  0  0  0  0  0  0  0  0
    0.6694   -0.5389    0.3573 H   0  0  0  0  0  0  0  0  0  0  0  0
    0.7189   -2.2948    0.1957 H   0  0  0  0  0  0  0  0  0  0  0  0
   -2.2936   -1.5750    1.1429 N   0  0  0  0  0  0  0  0  0  0  0  0
   -3.3319   -1.7015    2.1688 C   0  0  2  0  0  0  0  0  0  0  0  0
   -4.6975   -2.0573    1.5399 C   0  0  0  0  0  0  0  0  0  0  0  0
   -4.9058   -1.8664    0.3422 O   0  0  0  0  0  0  0  0  0  0  0  0
   -3.4375   -0.3784    2.9366 C   0  0  0  0  0  0  0  0  0  0  0  0
   -2.5905   -1.2392    0.2294 H   0  0  0  0  0  0  0  0  0  0  0  0
   -3.0572   -2.5037    2.8617 H   0  0  0  0  0  0  0  0  0  0  0  0
   -3.6916    0.4401    2.2551 H   0  0  0  0  0  0  0  0  0  0  0  0
   -4.2092   -0.4425    3.7096 H   0  0  0  0  0  0  0  0  0  0  0  0
   -2.4859   -0.1407    3.4224 H   0  0  0  0  0  0  0  0  0  0  0  0
   -5.6990   -2.6099    2.3159 N   0  0  0  0  0  0  0  0  0  0  0  0
   -7.0180   -2.9572    1.8007 C   0  0  0  0  0  0  0  0  0  0  0  0
   -5.5032   -2.7524    3.3032 H   0  0  0  0  0  0  0  0  0  0  0  0
   -7.5303   -2.0648    1.4262 H   0  0  0  0  0  0  0  0  0  0  0  0
   -6.9327   -3.6834    0.9857 H   0  0  0  0  0  0  0  0  0  0  0  0
   -7.6294   -3.3998    2.5930 H   0  0  0  0  0  0  0  0  0  0  0  0
  1  2  2  0  0  0  0
  1  3  1  0  0  0  0
  1  7  1  0  0  0  0
  3  4  1  0  0  0  0
  3  5  1  0  0  0  0
  3  6  1  0  0  0  0
  7  8  1  0  0  0  0
  7 12  1  0  0  0  0
  8  9  1  0  0  0  0
  8 11  1  0  0  0  0
  8 13  1  0  0  0  0
  9 10  2  0  0  0  0
  9 17  1  0  0  0  0
 11 14  1  0  0  0  0
 11 15  1  0  0  0  0
 11 16  1  0  0  0  0
 17 18  1  0  0  0  0
 17 21  1  0  0  0  0
 18 19  1  0  0  0  0
 18 22  1  0  0  0  0
 18 23  1  0  0  0  0
 19 20  2  0  0  0  0
 19 24  1  0  0  0  0
 24 25  1  0  0  0  0
 24 29  1  0  0  0  0
 25 26  1  0  0  0  0
 25 28  1  0  0  0  0
 25 30  1  0  0  0  0
 26 27  2  0  0  0  0
 26 34  1  0  0  0  0
 28 31  1  0  0  0  0
 28 32  1  0  0  0  0
 28 33  1  0  0  0  0
 34 35  1  0  0  0  0
 34 36  1  0  0  0  0
 35 37  1  0  0  0  0
 35 38  1  0  0  0  0
 35 39  1  0  0  0  0
M  END
$$$$

  -OEChem-05262216283D

 39 38  0     1  0  0  0  0  0999 V2000
   -2.8572   -3.0740   -2.4268 C   0  0  0  0  0  0  0  0  0  0  0  0
   -1.7656   -3.1498   -2.9710 O   0  0  0  0  0  0  0  0  0  0  0  0
   -3.6008   -4.3341   -2.0285 C   0  0  0  0  0  0  0  0  0  0  0  0
   -3.2474   -5.1834   -2.6193 H   0  0  0  0  0  0  0  0  0  0  0  0
   -3.4350   -4.5449   -0.9693 H   0  0  0  0  0  0  0  0  0  0  0  0
   -4.6726   -4.2070   -2.2007 H   0  0  0  0  0  0  0  0  0  0  0  0
   -3.3433   -1.8310   -2.0799 N   0  0  0  0  0  0  0  0  0  0  0  0
   -2.6804   -0.5538   -2.4060 C   0  0  2  0  0  0  0  0  0  0  0  0
   -1.5243   -0.2333   -1.4278 C   0  0  0  0  0  0  0  0  0  0  0  0
   -1.5637    0.7342   -0.6800 O   0  0  0  0  0  0  0  0  0  0  0  0
   -3.7691    0.5259   -2.4167 C   0  0  0  0  0  0  0  0  0  0  0  0
   -4.1426   -1.8241   -1.4380 H   0  0  0  0  0  0  0  0  0  0  0  0
   -2.2496   -0.6076   -3.4117 H   0  0  0  0  0  0  0  0  0  0  0  0
   -4.2309    0.6172   -1.4280 H   0  0  0  0  0  0  0  0  0  0  0  0
   -3.3401    1.4953   -2.6897 H   0  0  0  0  0  0  0  0  0  0  0  0
   -4.5470    0.2757   -3.1443 H   0  0  0  0  0  0  0  0  0  0  0  0
   -0.5686   -1.2064   -1.2006 N   0  0  0  0  0  0  0  0  0  0  0  0
    0.1860   -1.3294    0.0620 C   0  0  0  0  0  0  0  0  0  0  0  0
   -0.7100   -1.5671    1.2908 C   0  0  0  0  0  0  0  0  0  0  0  0
   -0.2340   -1.5541    2.4171 O   0  0  0  0  0  0  0  0  0  0  0  0
   -0.6494   -2.0335   -1.8012 H   0  0  0  0  0  0  0  0  0  0  0  0
    0.7646   -0.4155    0.2306 H   0  0  0  0  0  0  0  0  0  0  0  0
    0.8925   -2.1602   -0.0151 H   0  0  0  0  0  0  0  0  0  0  0  0
   -2.0269   -1.9491    1.1141 N   0  0  0  0  0  0  0  0  0  0  0  0
   -3.0445   -2.0043    2.1687 C   0  0  2  0  0  0  0  0  0  0  0  0
   -4.3746   -2.5625    1.6180 C   0  0  0  0  0  0  0  0  0  0  0  0
   -4.6432   -2.4638    0.4216 O   0  0  0  0  0  0  0  0  0  0  0  0
   -3.2884   -0.5937    2.7236 C   0  0  0  0  0  0  0  0  0  0  0  0
   -2.3716   -1.8574    0.1613 H   0  0  0  0  0  0  0  0  0  0  0  0
   -2.6954   -2.6605    2.9727 H   0  0  0  0  0  0  0  0  0  0  0  0
   -3.5855    0.0874    1.9190 H   0  0  0  0  0  0  0  0  0  0  0  0
   -4.0806   -0.6093    3.4780 H   0  0  0  0  0  0  0  0  0  0  0  0
   -2.3821   -0.1984    3.1924 H   0  0  0  0  0  0  0  0  0  0  0  0
   -5.2831   -3.1717    2.4627 N   0  0  0  0  0  0  0  0  0  0  0  0
   -6.5599   -3.7146    2.0145 C   0  0  0  0  0  0  0  0  0  0  0  0
   -5.0427   -3.2301    3.4486 H   0  0  0  0  0  0  0  0  0  0  0  0
   -7.1825   -2.9243    1.5822 H   0  0  0  0  0  0  0  0  0  0  0  0
   -6.4028   -4.4923    1.2597 H   0  0  0  0  0  0  0  0  0  0  0  0
   -7.0999   -4.1569    2.8573 H   0  0  0  0  0  0  0  0  0  0  0  0
  1  2  2  0  0  0  0
  1  3  1  0  0  0  0
  1  7  1  0  0  0  0
  3  4  1  0  0  0  0
  3  5  1  0  0  0  0
  3  6  1  0  0  0  0
  7  8  1  0  0  0  0
  7 12  1  0  0  0  0
  8  9  1  0  0  0  0
  8 11  1  0  0  0  0
  8 13  1  0  0  0  0
  9 10  2  0  0  0  0
  9 17  1  0  0  0  0
 11 14  1  0  0  0  0
 11 15  1  0  0  0  0
 11 16  1  0  0  0  0
 17 18  1  0  0  0  0
 17 21  1  0  0  0  0
 18 19  1  0  0  0  0
 18 22  1  0  0  0  0
 18 23  1  0  0  0  0
 19 20  2  0  0  0  0
 19 24  1  0  0  0  0
 24 25  1  0  0  0  0
 24 29  1  0  0  0  0
 25 26  1  0  0  0  0
 25 28  1  0  0  0  0
 25 30  1  0  0  0  0
 26 27  2  0  0  0  0
 26 34  1  0  0  0  0
 28 31  1  0  0  0  0
 28 32  1  0  0  0  0
 28 33  1  0  0  0  0
 34 35  1  0  0  0  0
 34 36  1  0  0  0  0
 35 37  1  0  0  0  0
 35 38  1  0  0  0  0
 35 39  1  0  0  0  0
M  END
$$$$

  -OEChem-05262216283D

 39 38  0     1  0  0  0  0  0999 V2000
   -2.6324   -3.0888   -2.5484 C   0  0  0  0  0  0  0  0  0  0  0  0
   -1.5876   -2.9339   -3.1628 O   0  0  0  0  0  0  0  0  0  0  0  0
   -3.1383   -4.4859   -2.2456 C   0  0  0  0  0  0  0  0  0  0  0  0
   -2.6670   -5.2115   -2.9140 H   0  0  0  0  0  0  0  0  0  0  0  0
   -2.9037   -4.7526   -1.2123 H   0  0  0  0  0  0  0  0  0  0  0  0
   -4.2211   -4.5307   -2.3865 H   0  0  0  0  0  0  0  0  0  0  0  0
   -3.2723   -1.9815   -2.0329 N   0  0  0  0  0  0  0  0  0  0  0  0
   -2.8489   -0.5870   -2.2707 C   0  0  2  0  0  0  0  0  0  0  0  0
   -1.6798   -0.1604   -1.3489 C   0  0  0  0  0  0  0  0  0  0  0  0
   -1.7704    0.7968   -0.5925 O   0  0  0  0  0  0  0  0  0  0  0  0
   -4.0943    0.2907   -2.0975 C   0  0  0  0  0  0  0  0  0  0  0  0
   -3.9919   -2.1661   -1.3275 H   0  0  0  0  0  0  0  0  0  0  0  0
   -2.5009   -0.4790   -3.3038 H   0  0  0  0  0  0  0  0  0  0  0  0
   -4.4749    0.2211   -1.0730 H   0  0  0  0  0  0  0  0  0  0  0  0
   -3.8536    1.3379   -2.3071 H   0  0  0  0  0  0  0  0  0  0  0  0
   -4.8832   -0.0264   -2.7863 H   0  0  0  0  0  0  0  0  0  0  0  0
   -0.6206   -1.0346   -1.1917 N   0  0  0  0  0  0  0  0  0  0  0  0
    0.2635   -1.0618   -0.0115 C   0  0  0  0  0  0  0  0  0  0  0  0
   -0.5171   -1.3471    1.2810 C   0  0  0  0  0  0  0  0  0  0  0  0
   -0.0565   -1.0470    2.3731 O   0  0  0  0  0  0  0  0  0  0  0  0
   -0.6128   -1.8299   -1.8380 H   0  0  0  0  0  0  0  0  0  0  0  0
    0.7730   -0.0984    0.0915 H   0  0  0  0  0  0  0  0  0  0  0  0
    1.0276   -1.8334   -0.1372 H   0  0  0  0  0  0  0  0  0  0  0  0
   -1.6624   -2.1172    1.2067 N   0  0  0  0  0  0  0  0  0  0  0  0
   -2.6913   -2.1937    2.2516 C   0  0  2  0  0  0  0  0  0  0  0  0
   -3.9078   -2.9976    1.7440 C   0  0  0  0  0  0  0  0  0  0  0  0
   -4.1595   -3.0463    0.5402 O   0  0  0  0  0  0  0  0  0  0  0  0
   -3.1812   -0.7869    2.6353 C   0  0  0  0  0  0  0  0  0  0  0  0
   -1.9916   -2.2765    0.2572 H   0  0  0  0  0  0  0  0  0  0  0  0
   -2.2757   -2.6935    3.1322 H   0  0  0  0  0  0  0  0  0  0  0  0
   -3.5211   -0.2445    1.7467 H   0  0  0  0  0  0  0  0  0  0  0  0
   -4.0123   -0.8497    3.3441 H   0  0  0  0  0  0  0  0  0  0  0  0
   -2.3825   -0.2079    3.1077 H   0  0  0  0  0  0  0  0  0  0  0  0
   -4.7487   -3.6351    2.6366 N   0  0  0  0  0  0  0  0  0  0  0  0
   -5.9503   -4.3575    2.2362 C   0  0  0  0  0  0  0  0  0  0  0  0
   -4.5338   -3.5501    3.6266 H   0  0  0  0  0  0  0  0  0  0  0  0
   -6.6650   -3.6785    1.7591 H   0  0  0  0  0  0  0  0  0  0  0  0
   -5.7008   -5.1593    1.5330 H   0  0  0  0  0  0  0  0  0  0  0  0
   -6.4312   -4.8054    3.1116 H   0  0  0  0  0  0  0  0  0  0  0  0
  1  2  2  0  0  0  0
  1  3  1  0  0  0  0
  1  7  1  0  0  0  0
  3  4  1  0  0  0  0
  3  5  1  0  0  0  0
  3  6  1  0  0  0  0
  7  8  1  0  0  0  0
  7 12  1  0  0  0  0
  8  9  1  0  0  0  0
  8 11  1  0  0  0  0
  8 13  1  0  0  0  0
  9 10  2  0  0  0  0
  9 17  1  0  0  0  0
 11 14  1  0  0  0  0
 11 15  1  0  0  0  0
 11 16  1  0  0  0  0
 17 18  1  0  0  0  0
 17 21  1  0  0  0  0
 18 19  1  0  0  0  0
 18 22  1  0  0  0  0
 18 23  1  0  0  0  0
 19 20  2  0  0  0  0
 19 24  1  0  0  0  0
 24 25  1  0  0  0  0
 24 29  1  0  0  0  0
 25 26  1  0  0  0  0
 25 28  1  0  0  0  0
 25 30  1  0  0  0  0
 26 27  2  0  0  0  0
 26 34  1  0  0  0  0
 28 31  1  0  0  0  0
 28 32  1  0  0  0  0
 28 33  1  0  0  0  0
 34 35  1  0  0  0  0
 34 36  1  0  0  0  0
 35 37  1  0  0  0  0
 35 38  1  0  0  0  0
 35 39  1  0  0  0  0
M  END
$$$$

  -OEChem-05262216283D

 39 38  0     1  0  0  0  0  0999 V2000
   -2.9702   -2.8807   -2.2853 C   0  0  0  0  0  0  0  0  0  0  0  0
   -1.7827   -3.1224   -2.4515 O   0  0  0  0  0  0  0  0  0  0  0  0
   -3.9664   -4.0070   -2.0883 C   0  0  0  0  0  0  0  0  0  0  0  0
   -3.4458   -4.9220   -1.7918 H   0  0  0  0  0  0  0  0  0  0  0  0
   -4.6808   -3.7471   -1.3034 H   0  0  0  0  0  0  0  0  0  0  0  0
   -4.5094   -4.1923   -3.0180 H   0  0  0  0  0  0  0  0  0  0  0  0
   -3.3954   -1.5672   -2.2924 N   0  0  0  0  0  0  0  0  0  0  0  0
   -2.5318   -0.4153   -2.6033 C   0  0  2  0  0  0  0  0  0  0  0  0
   -1.5647   -0.0619   -1.4471 C   0  0  0  0  0  0  0  0  0  0  0  0
   -1.7293    0.9284   -0.7482 O   0  0  0  0  0  0  0  0  0  0  0  0
   -3.4481    0.7538   -2.9846 C   0  0  0  0  0  0  0  0  0  0  0  0
   -4.3781   -1.3979   -2.0959 H   0  0  0  0  0  0  0  0  0  0  0  0
   -1.9145   -0.6509   -3.4769 H   0  0  0  0  0  0  0  0  0  0  0  0
   -4.0994    1.0243   -2.1470 H   0  0  0  0  0  0  0  0  0  0  0  0
   -2.8503    1.6307   -3.2534 H   0  0  0  0  0  0  0  0  0  0  0  0
   -4.0724    0.4858   -3.8424 H   0  0  0  0  0  0  0  0  0  0  0  0
   -0.5306   -0.9317   -1.1575 N   0  0  0  0  0  0  0  0  0  0  0  0
    0.2500   -0.8945    0.0910 C   0  0  0  0  0  0  0  0  0  0  0  0
   -0.6109   -1.1035    1.3435 C   0  0  0  0  0  0  0  0  0  0  0  0
   -0.3412   -0.5304    2.3902 O   0  0  0  0  0  0  0  0  0  0  0  0
   -0.5638   -1.8128   -1.6804 H   0  0  0  0  0  0  0  0  0  0  0  0
    0.7564    0.0723    0.1757 H   0  0  0  0  0  0  0  0  0  0  0  0
    1.0192   -1.6708    0.0657 H   0  0  0  0  0  0  0  0  0  0  0  0
   -1.5606   -2.1069    1.3495 N   0  0  0  0  0  0  0  0  0  0  0  0
   -2.4880   -2.3763    2.4537 C   0  0  2  0  0  0  0  0  0  0  0  0
   -3.2327   -3.7099    2.2464 C   0  0  0  0  0  0  0  0  0  0  0  0
   -3.4153   -4.1434    1.1130 O   0  0  0  0  0  0  0  0  0  0  0  0
   -3.5073   -1.2335    2.5497 C   0  0  0  0  0  0  0  0  0  0  0  0
   -1.7349   -2.5821    0.4650 H   0  0  0  0  0  0  0  0  0  0  0  0
   -1.9239   -2.4414    3.3897 H   0  0  0  0  0  0  0  0  0  0  0  0
   -4.0599   -1.1340    1.6102 H   0  0  0  0  0  0  0  0  0  0  0  0
   -4.2212   -1.4243    3.3563 H   0  0  0  0  0  0  0  0  0  0  0  0
   -3.0038   -0.2840    2.7568 H   0  0  0  0  0  0  0  0  0  0  0  0
   -3.7289   -4.4111    3.3297 N   0  0  0  0  0  0  0  0  0  0  0  0
   -4.4246   -5.6866    3.2082 C   0  0  0  0  0  0  0  0  0  0  0  0
   -3.5353   -4.0416    4.2565 H   0  0  0  0  0  0  0  0  0  0  0  0
   -5.2863   -5.5929    2.5390 H   0  0  0  0  0  0  0  0  0  0  0  0
   -3.7518   -6.4534    2.8104 H   0  0  0  0  0  0  0  0  0  0  0  0
   -4.7853   -6.0156    4.1875 H   0  0  0  0  0  0  0  0  0  0  0  0
  1  2  2  0  0  0  0
  1  3  1  0  0  0  0
  1  7  1  0  0  0  0
  3  4  1  0  0  0  0
  3  5  1  0  0  0  0
  3  6  1  0  0  0  0
  7  8  1  0  0  0  0
  7 12  1  0  0  0  0
  8  9  1  0  0  0  0
  8 11  1  0  0  0  0
  8 13  1  0  0  0  0
  9 10  2  0  0  0  0
  9 17  1  0  0  0  0
 11 14  1  0  0  0  0
 11 15  1  0  0  0  0
 11 16  1  0  0  0  0
 17 18  1  0  0  0  0
 17 21  1  0  0  0  0
 18 19  1  0  0  0  0
 18 22  1  0  0  0  0
 18 23  1  0  0  0  0
 19 20  2  0  0  0  0
 19 24  1  0  0  0  0
 24 25  1  0  0  0  0
 24 29  1  0  0  0  0
 25 26  1  0  0  0  0
 25 28  1  0  0  0  0
 25 30  1  0  0  0  0
 26 27  2  0  0  0  0
 26 34  1  0  0  0  0
 28 31  1  0  0  0  0
 28 32  1  0  0  0  0
 28 33  1  0  0  0  0
 34 35  1  0  0  0  0
 34 36  1  0  0  0  0
 35 37  1  0  0  0  0
 35 38  1  0  0  0  0
 35 39  1  0  0  0  0
M  END
$$$$

  -OEChem-05262216283D

 39 38  0     1  0  0  0  0  0999 V2000
   -3.7418   -2.1555   -2.1966 C   0  0  0  0  0  0  0  0  0  0  0  0
   -2.8013   -2.9030   -1.9596 O   0  0  0  0  0  0  0  0  0  0  0  0
   -5.1629   -2.6864   -2.1727 C   0  0  0  0  0  0  0  0  0  0  0  0
   -5.1779   -3.7127   -1.7953 H   0  0  0  0  0  0  0  0  0  0  0  0
   -5.7861   -2.0649   -1.5252 H   0  0  0  0  0  0  0  0  0  0  0  0
   -5.5803   -2.6782   -3.1827 H   0  0  0  0  0  0  0  0  0  0  0  0
   -3.5136   -0.8243   -2.4832 N   0  0  0  0  0  0  0  0  0  0  0  0
   -2.1848   -0.2163   -2.6573 C   0  0  2  0  0  0  0  0  0  0  0  0
   -1.3370   -0.2190   -1.3625 C   0  0  0  0  0  0  0  0  0  0  0  0
   -1.3380    0.7264   -0.5874 O   0  0  0  0  0  0  0  0  0  0  0  0
   -2.3992    1.2022   -3.1986 C   0  0  0  0  0  0  0  0  0  0  0  0
   -4.3303   -0.2312   -2.6026 H   0  0  0  0  0  0  0  0  0  0  0  0
   -1.6288   -0.7814   -3.4127 H   0  0  0  0  0  0  0  0  0  0  0  0
   -2.9763    1.8040   -2.4887 H   0  0  0  0  0  0  0  0  0  0  0  0
   -1.4353    1.6942   -3.3628 H   0  0  0  0  0  0  0  0  0  0  0  0
   -2.9379    1.1718   -4.1506 H   0  0  0  0  0  0  0  0  0  0  0  0
   -0.6086   -1.3532   -1.0614 N   0  0  0  0  0  0  0  0  0  0  0  0
   -0.1203   -1.6570    0.2918 C   0  0  0  0  0  0  0  0  0  0  0  0
   -1.2492   -1.7888    1.3229 C   0  0  0  0  0  0  0  0  0  0  0  0
   -1.1296   -1.2985    2.4388 O   0  0  0  0  0  0  0  0  0  0  0  0
   -0.8733   -2.1550   -1.6375 H   0  0  0  0  0  0  0  0  0  0  0  0
    0.5591   -0.8629    0.6186 H   0  0  0  0  0  0  0  0  0  0  0  0
    0.4490   -2.5902    0.2780 H   0  0  0  0  0  0  0  0  0  0  0  0
   -2.2205   -2.7550    1.1309 N   0  0  0  0  0  0  0  0  0  0  0  0
   -3.2367   -3.1144    2.1318 C   0  0  2  0  0  0  0  0  0  0  0  0
   -2.6923   -4.0998    3.1942 C   0  0  0  0  0  0  0  0  0  0  0  0
   -3.1786   -5.2136    3.3533 O   0  0  0  0  0  0  0  0  0  0  0  0
   -4.4548   -3.6613    1.3797 C   0  0  0  0  0  0  0  0  0  0  0  0
   -2.2917   -3.1553    0.1944 H   0  0  0  0  0  0  0  0  0  0  0  0
   -3.5551   -2.2133    2.6672 H   0  0  0  0  0  0  0  0  0  0  0  0
   -4.1799   -4.5421    0.7904 H   0  0  0  0  0  0  0  0  0  0  0  0
   -5.2412   -3.9476    2.0857 H   0  0  0  0  0  0  0  0  0  0  0  0
   -4.8572   -2.8975    0.7098 H   0  0  0  0  0  0  0  0  0  0  0  0
   -1.6357   -3.7080    3.9917 N   0  0  0  0  0  0  0  0  0  0  0  0
   -1.0287   -4.5467    5.0155 C   0  0  0  0  0  0  0  0  0  0  0  0
   -1.2445   -2.7820    3.7967 H   0  0  0  0  0  0  0  0  0  0  0  0
   -1.7711   -4.8271    5.7701 H   0  0  0  0  0  0  0  0  0  0  0  0
   -0.6171   -5.4578    4.5690 H   0  0  0  0  0  0  0  0  0  0  0  0
   -0.2170   -4.0070    5.5128 H   0  0  0  0  0  0  0  0  0  0  0  0
  1  2  2  0  0  0  0
  1  3  1  0  0  0  0
  1  7  1  0  0  0  0
  3  4  1  0  0  0  0
  3  5  1  0  0  0  0
  3  6  1  0  0  0  0
  7  8  1  0  0  0  0
  7 12  1  0  0  0  0
  8  9  1  0  0  0  0
  8 11  1  0  0  0  0
  8 13  1  0  0  0  0
  9 10  2  0  0  0  0
  9 17  1  0  0  0  0
 11 14  1  0  0  0  0
 11 15  1  0  0  0  0
 11 16  1  0  0  0  0
 17 18  1  0  0  0  0
 17 21  1  0  0  0  0
 18 19  1  0  0  0  0
 18 22  1  0  0  0  0
 18 23  1  0  0  0  0
 19 20  2  0  0  0  0
 19 24  1  0  0  0  0
 24 25  1  0  0  0  0
 24 29  1  0  0  0  0
 25 26  1  0  0  0  0
 25 28  1  0  0  0  0
 25 30  1  0  0  0  0
 26 27  2  0  0  0  0
 26 34  1  0  0  0  0
 28 31  1  0  0  0  0
 28 32  1  0  0  0  0
 28 33  1  0  0  0  0
 34 35  1  0  0  0  0
 34 36  1  0  0  0  0
 35 37  1  0  0  0  0
 35 38  1  0  0  0  0
 35 39  1  0  0  0  0
M  END
$$$$

  -OEChem-05262216283D

 39 38  0     1  0  0  0  0  0999 V2000
   -3.3297   -2.5335   -2.1104 C   0  0  0  0  0  0  0  0  0  0  0  0
   -2.2377   -3.0840   -2.1411 O   0  0  0  0  0  0  0  0  0  0  0  0
   -4.5414   -3.2684   -1.5700 C   0  0  0  0  0  0  0  0  0  0  0  0
   -5.2796   -3.4027   -2.3645 H   0  0  0  0  0  0  0  0  0  0  0  0
   -4.2492   -4.2519   -1.1908 H   0  0  0  0  0  0  0  0  0  0  0  0
   -4.9930   -2.6971   -0.7552 H   0  0  0  0  0  0  0  0  0  0  0  0
   -3.4451   -1.2207   -2.5211 N   0  0  0  0  0  0  0  0  0  0  0  0
   -2.3083   -0.3959   -2.9586 C   0  0  2  0  0  0  0  0  0  0  0  0
   -1.3840   -0.0208   -1.7767 C   0  0  0  0  0  0  0  0  0  0  0  0
   -1.4544    1.0699   -1.2294 O   0  0  0  0  0  0  0  0  0  0  0  0
   -2.8744    0.8349   -3.6774 C   0  0  0  0  0  0  0  0  0  0  0  0
   -4.3341   -0.7587   -2.3499 H   0  0  0  0  0  0  0  0  0  0  0  0
   -1.7058   -0.9568   -3.6813 H   0  0  0  0  0  0  0  0  0  0  0  0
   -3.5065    1.4209   -3.0019 H   0  0  0  0  0  0  0  0  0  0  0  0
   -2.0598    1.4765   -4.0293 H   0  0  0  0  0  0  0  0  0  0  0  0
   -3.4728    0.5308   -4.5418 H   0  0  0  0  0  0  0  0  0  0  0  0
   -0.5196   -0.9820   -1.2892 N   0  0  0  0  0  0  0  0  0  0  0  0
   -0.0217   -0.9726    0.0953 C   0  0  0  0  0  0  0  0  0  0  0  0
   -1.1388   -1.0678    1.1462 C   0  0  0  0  0  0  0  0  0  0  0  0
   -1.3198   -0.1715    1.9581 O   0  0  0  0  0  0  0  0  0  0  0  0
   -0.6864   -1.9037   -1.7038 H   0  0  0  0  0  0  0  0  0  0  0  0
    0.5394   -0.0489    0.2715 H   0  0  0  0  0  0  0  0  0  0  0  0
    0.6707   -1.8057    0.2428 H   0  0  0  0  0  0  0  0  0  0  0  0
   -1.7559   -2.2898    1.3440 N   0  0  0  0  0  0  0  0  0  0  0  0
   -2.4483   -2.6759    2.5817 C   0  0  2  0  0  0  0  0  0  0  0  0
   -1.7758   -3.9008    3.2348 C   0  0  0  0  0  0  0  0  0  0  0  0
   -1.1631   -4.7050    2.5409 O   0  0  0  0  0  0  0  0  0  0  0  0
   -3.9046   -2.9836    2.2316 C   0  0  0  0  0  0  0  0  0  0  0  0
   -1.4130   -3.0562    0.7650 H   0  0  0  0  0  0  0  0  0  0  0  0
   -2.4289   -1.8595    3.3110 H   0  0  0  0  0  0  0  0  0  0  0  0
   -3.9599   -3.8118    1.5180 H   0  0  0  0  0  0  0  0  0  0  0  0
   -4.4634   -3.2607    3.1308 H   0  0  0  0  0  0  0  0  0  0  0  0
   -4.3787   -2.1030    1.7867 H   0  0  0  0  0  0  0  0  0  0  0  0
   -1.8648   -4.1104    4.5988 N   0  0  0  0  0  0  0  0  0  0  0  0
   -1.1925   -5.2107    5.2802 C   0  0  0  0  0  0  0  0  0  0  0  0
   -2.3100   -3.3866    5.1559 H   0  0  0  0  0  0  0  0  0  0  0  0
   -1.5153   -6.1727    4.8676 H   0  0  0  0  0  0  0  0  0  0  0  0
   -0.1064   -5.1252    5.1663 H   0  0  0  0  0  0  0  0  0  0  0  0
   -1.4311   -5.1974    6.3480 H   0  0  0  0  0  0  0  0  0  0  0  0
  1  2  2  0  0  0  0
  1  3  1  0  0  0  0
  1  7  1  0  0  0  0
  3  4  1  0  0  0  0
  3  5  1  0  0  0  0
  3  6  1  0  0  0  0
  7  8  1  0  0  0  0
  7 12  1  0  0  0  0
  8  9  1  0  0  0  0
  8 11  1  0  0  0  0
  8 13  1  0  0  0  0
  9 10  2  0  0  0  0
  9 17  1  0  0  0  0
 11 14  1  0  0  0  0
 11 15  1  0  0  0  0
 11 16  1  0  0  0  0
 17 18  1  0  0  0  0
 17 21  1  0  0  0  0
 18 19  1  0  0  0  0
 18 22  1  0  0  0  0
 18 23  1  0  0  0  0
 19 20  2  0  0  0  0
 19 24  1  0  0  0  0
 24 25  1  0  0  0  0
 24 29  1  0  0  0  0
 25 26  1  0  0  0  0
 25 28  1  0  0  0  0
 25 30  1  0  0  0  0
 26 27  2  0  0  0  0
 26 34  1  0  0  0  0
 28 31  1  0  0  0  0
 28 32  1  0  0  0  0
 28 33  1  0  0  0  0
 34 35  1  0  0  0  0
 34 36  1  0  0  0  0
 35 37  1  0  0  0  0
 35 38  1  0  0  0  0
 35 39  1  0  0  0  0
M  END
$$$$

  -OEChem-05262216283D

 39 38  0     1  0  0  0  0  0999 V2000
   -3.2568   -2.5702   -2.0623 C   0  0  0  0  0  0  0  0  0  0  0  0
   -2.1604   -3.0905   -2.2162 O   0  0  0  0  0  0  0  0  0  0  0  0
   -4.3879   -3.3449   -1.4146 C   0  0  0  0  0  0  0  0  0  0  0  0
   -5.1610   -3.5629   -2.1553 H   0  0  0  0  0  0  0  0  0  0  0  0
   -4.0140   -4.2877   -1.0056 H   0  0  0  0  0  0  0  0  0  0  0  0
   -4.8263   -2.7587   -0.6034 H   0  0  0  0  0  0  0  0  0  0  0  0
   -3.4451   -1.2531   -2.4288 N   0  0  0  0  0  0  0  0  0  0  0  0
   -2.3727   -0.3851   -2.9383 C   0  0  2  0  0  0  0  0  0  0  0  0
   -1.3812    0.0111   -1.8191 C   0  0  0  0  0  0  0  0  0  0  0  0
   -1.4023    1.1214   -1.3079 O   0  0  0  0  0  0  0  0  0  0  0  0
   -3.0321    0.8298   -3.6026 C   0  0  0  0  0  0  0  0  0  0  0  0
   -4.3175   -0.8162   -2.1431 H   0  0  0  0  0  0  0  0  0  0  0  0
   -1.8036   -0.9179   -3.7079 H   0  0  0  0  0  0  0  0  0  0  0  0
   -3.6291    1.3917   -2.8768 H   0  0  0  0  0  0  0  0  0  0  0  0
   -2.2671    1.4983   -4.0104 H   0  0  0  0  0  0  0  0  0  0  0  0
   -3.6842    0.5107   -4.4212 H   0  0  0  0  0  0  0  0  0  0  0  0
   -0.4802   -0.9356   -1.3691 N   0  0  0  0  0  0  0  0  0  0  0  0
    0.0195   -0.9433    0.0151 C   0  0  0  0  0  0  0  0  0  0  0  0
   -1.0833   -1.1085    1.0749 C   0  0  0  0  0  0  0  0  0  0  0  0
   -1.5550   -0.1515    1.6707 O   0  0  0  0  0  0  0  0  0  0  0  0
   -0.6527   -1.8560   -1.7844 H   0  0  0  0  0  0  0  0  0  0  0  0
    0.5433   -0.0024    0.2142 H   0  0  0  0  0  0  0  0  0  0  0  0
    0.7494   -1.7481    0.1352 H   0  0  0  0  0  0  0  0  0  0  0  0
   -1.4327   -2.3842    1.4781 N   0  0  0  0  0  0  0  0  0  0  0  0
   -2.1340   -2.6911    2.7328 C   0  0  2  0  0  0  0  0  0  0  0  0
   -1.2941   -3.6296    3.6225 C   0  0  0  0  0  0  0  0  0  0  0  0
   -0.4687   -4.3803    3.1135 O   0  0  0  0  0  0  0  0  0  0  0  0
   -3.4724   -3.3410    2.3785 C   0  0  0  0  0  0  0  0  0  0  0  0
   -0.8798   -3.1431    1.0812 H   0  0  0  0  0  0  0  0  0  0  0  0
   -2.3268   -1.7789    3.3071 H   0  0  0  0  0  0  0  0  0  0  0  0
   -3.3128   -4.2566    1.7995 H   0  0  0  0  0  0  0  0  0  0  0  0
   -4.0275   -3.5959    3.2866 H   0  0  0  0  0  0  0  0  0  0  0  0
   -4.0786   -2.6504    1.7846 H   0  0  0  0  0  0  0  0  0  0  0  0
   -1.4702   -3.6414    4.9934 N   0  0  0  0  0  0  0  0  0  0  0  0
   -0.6721   -4.4663    5.8922 C   0  0  0  0  0  0  0  0  0  0  0  0
   -2.1088   -2.9579    5.3901 H   0  0  0  0  0  0  0  0  0  0  0  0
   -0.7851   -5.5263    5.6415 H   0  0  0  0  0  0  0  0  0  0  0  0
    0.3872   -4.1984    5.8199 H   0  0  0  0  0  0  0  0  0  0  0  0
   -0.9960   -4.3205    6.9271 H   0  0  0  0  0  0  0  0  0  0  0  0
  1  2  2  0  0  0  0
  1  3  1  0  0  0  0
  1  7  1  0  0  0  0
  3  4  1  0  0  0  0
  3  5  1  0  0  0  0
  3  6  1  0  0  0  0
  7  8  1  0  0  0  0
  7 12  1  0  0  0  0
  8  9  1  0  0  0  0
  8 11  1  0  0  0  0
  8 13  1  0  0  0  0
  9 10  2  0  0  0  0
  9 17  1  0  0  0  0
 11 14  1  0  0  0  0
 11 15  1  0  0  0  0
 11 16  1  0  0  0  0
 17 18  1  0  0  0  0
 17 21  1  0  0  0  0
 18 19  1  0  0  0  0
 18 22  1  0  0  0  0
 18 23  1  0  0  0  0
 19 20  2  0  0  0  0
 19 24  1  0  0  0  0
 24 25  1  0  0  0  0
 24 29  1  0  0  0  0
 25 26  1  0  0  0  0
 25 28  1  0  0  0  0
 25 30  1  0  0  0  0
 26 27  2  0  0  0  0
 26 34  1  0  0  0  0
 28 31  1  0  0  0  0
 28 32  1  0  0  0  0
 28 33  1  0  0  0  0
 34 35  1  0  0  0  0
 34 36  1  0  0  0  0
 35 37  1  0  0  0  0
 35 38  1  0  0  0  0
 35 39  1  0  0  0  0
M  END
$$$$

  -OEChem-05262216283D

 39 38  0     1  0  0  0  0  0999 V2000
   -3.3971   -2.3317   -1.4775 C   0  0  0  0  0  0  0  0  0  0  0  0
   -2.4284   -2.9247   -1.9349 O   0  0  0  0  0  0  0  0  0  0  0  0
   -4.4150   -3.0680   -0.6282 C   0  0  0  0  0  0  0  0  0  0  0  0
   -5.3998   -3.0191   -1.0995 H   0  0  0  0  0  0  0  0  0  0  0  0
   -4.1291   -4.1176   -0.5193 H   0  0  0  0  0  0  0  0  0  0  0  0
   -4.4714   -2.6122    0.3635 H   0  0  0  0  0  0  0  0  0  0  0  0
   -3.5298   -0.9739   -1.6843 N   0  0  0  0  0  0  0  0  0  0  0  0
   -2.5040   -0.1502   -2.3397 C   0  0  2  0  0  0  0  0  0  0  0  0
   -1.2629    0.0213   -1.4347 C   0  0  0  0  0  0  0  0  0  0  0  0
   -1.0795    1.0365   -0.7768 O   0  0  0  0  0  0  0  0  0  0  0  0
   -3.1480    1.1886   -2.7179 C   0  0  0  0  0  0  0  0  0  0  0  0
   -4.2321   -0.4970   -1.1244 H   0  0  0  0  0  0  0  0  0  0  0  0
   -2.1768   -0.6360   -3.2649 H   0  0  0  0  0  0  0  0  0  0  0  0
   -3.5088    1.7108   -1.8258 H   0  0  0  0  0  0  0  0  0  0  0  0
   -2.4178    1.8303   -3.2209 H   0  0  0  0  0  0  0  0  0  0  0  0
   -3.9923    1.0282   -3.3950 H   0  0  0  0  0  0  0  0  0  0  0  0
   -0.3557   -1.0180   -1.3404 N   0  0  0  0  0  0  0  0  0  0  0  0
    0.2426   -1.3633   -0.0408 C   0  0  0  0  0  0  0  0  0  0  0  0
   -0.7839   -1.7812    1.0303 C   0  0  0  0  0  0  0  0  0  0  0  0
   -1.5357   -0.9860    1.5784 O   0  0  0  0  0  0  0  0  0  0  0  0
   -0.6761   -1.8258   -1.8809 H   0  0  0  0  0  0  0  0  0  0  0  0
    0.7982   -0.5011    0.3432 H   0  0  0  0  0  0  0  0  0  0  0  0
    0.9649   -2.1718   -0.1801 H   0  0  0  0  0  0  0  0  0  0  0  0
   -0.9030   -3.1183    1.3638 N   0  0  0  0  0  0  0  0  0  0  0  0
   -1.8882   -3.6568    2.3143 C   0  0  2  0  0  0  0  0  0  0  0  0
   -1.4947   -3.4081    3.7916 C   0  0  0  0  0  0  0  0  0  0  0  0
   -1.3215   -4.3331    4.5760 O   0  0  0  0  0  0  0  0  0  0  0  0
   -2.0663   -5.1445    1.9856 C   0  0  0  0  0  0  0  0  0  0  0  0
   -0.2951   -3.7735    0.8804 H   0  0  0  0  0  0  0  0  0  0  0  0
   -2.8521   -3.1634    2.1563 H   0  0  0  0  0  0  0  0  0  0  0  0
   -1.1304   -5.6893    2.1471 H   0  0  0  0  0  0  0  0  0  0  0  0
   -2.8367   -5.5846    2.6269 H   0  0  0  0  0  0  0  0  0  0  0  0
   -2.3710   -5.2730    0.9425 H   0  0  0  0  0  0  0  0  0  0  0  0
   -1.3482   -2.1104    4.2395 N   0  0  0  0  0  0  0  0  0  0  0  0
   -0.9589   -1.7526    5.5962 C   0  0  0  0  0  0  0  0  0  0  0  0
   -1.4607   -1.3741    3.5367 H   0  0  0  0  0  0  0  0  0  0  0  0
   -1.6759   -2.1552    6.3190 H   0  0  0  0  0  0  0  0  0  0  0  0
    0.0351   -2.1489    5.8269 H   0  0  0  0  0  0  0  0  0  0  0  0
   -0.9320   -0.6643    5.7056 H   0  0  0  0  0  0  0  0  0  0  0  0
  1  2  2  0  0  0  0
  1  3  1  0  0  0  0
  1  7  1  0  0  0  0
  3  4  1  0  0  0  0
  3  5  1  0  0  0  0
  3  6  1  0  0  0  0
  7  8  1  0  0  0  0
  7 12  1  0  0  0  0
  8  9  1  0  0  0  0
  8 11  1  0  0  0  0
  8 13  1  0  0  0  0
  9 10  2  0  0  0  0
  9 17  1  0  0  0  0
 11 14  1  0  0  0  0
 11 15  1  0  0  0  0
 11 16  1  0  0  0  0
 17 18  1  0  0  0  0
 17 21  1  0  0  0  0
 18 19  1  0  0  0  0
 18 22  1  0  0  0  0
 18 23  1  0  0  0  0
 19 20  2  0  0  0  0
 19 24  1  0  0  0  0
 24 25  1  0  0  0  0
 24 29  1  0  0  0  0
 25 26  1  0  0  0  0
 25 28  1  0  0  0  0
 25 30  1  0  0  0  0
 26 27  2  0  0  0  0
 26 34  1  0  0  0  0
 28 31  1  0  0  0  0
 28 32  1  0  0  0  0
 28 33  1  0  0  0  0
 34 35  1  0  0  0  0
 34 36  1  0  0  0  0
 35 37  1  0  0  0  0
 35 38  1  0  0  0  0
 35 39  1  0  0  0  0
M  END
$$$$

  -OEChem-05262216283D

 39 38  0     1  0  0  0  0  0999 V2000
   -3.1636   -2.6150   -1.7599 C   0  0  0  0  0  0  0  0  0  0  0  0
   -2.1257   -3.1520   -2.1240 O   0  0  0  0  0  0  0  0  0  0  0  0
   -4.1277   -3.3468   -0.8471 C   0  0  0  0  0  0  0  0  0  0  0  0
   -5.0438   -3.5888   -1.3913 H   0  0  0  0  0  0  0  0  0  0  0  0
   -3.6745   -4.2737   -0.4845 H   0  0  0  0  0  0  0  0  0  0  0  0
   -4.3785   -2.7167    0.0099 H   0  0  0  0  0  0  0  0  0  0  0  0
   -3.4355   -1.3186   -2.1440 N   0  0  0  0  0  0  0  0  0  0  0  0
   -2.4744   -0.4785   -2.8713 C   0  0  2  0  0  0  0  0  0  0  0  0
   -1.3354   -0.0064   -1.9394 C   0  0  0  0  0  0  0  0  0  0  0  0
   -1.2479    1.1555   -1.5614 O   0  0  0  0  0  0  0  0  0  0  0  0
   -3.2539    0.6840   -3.4976 C   0  0  0  0  0  0  0  0  0  0  0  0
   -4.1698   -0.8452   -1.6233 H   0  0  0  0  0  0  0  0  0  0  0  0
   -2.0194   -1.0526   -3.6856 H   0  0  0  0  0  0  0  0  0  0  0  0
   -3.7329    1.2902   -2.7214 H   0  0  0  0  0  0  0  0  0  0  0  0
   -2.5781    1.3269   -4.0705 H   0  0  0  0  0  0  0  0  0  0  0  0
   -4.0265    0.3055   -4.1736 H   0  0  0  0  0  0  0  0  0  0  0  0
   -0.3816   -0.9178   -1.5238 N   0  0  0  0  0  0  0  0  0  0  0  0
    0.1196   -0.8782   -0.1395 C   0  0  0  0  0  0  0  0  0  0  0  0
   -0.9405   -1.0902    0.9641 C   0  0  0  0  0  0  0  0  0  0  0  0
   -2.0114   -0.4962    0.9834 O   0  0  0  0  0  0  0  0  0  0  0  0
   -0.5967   -1.8568   -1.8714 H   0  0  0  0  0  0  0  0  0  0  0  0
    0.5973    0.0899    0.0418 H   0  0  0  0  0  0  0  0  0  0  0  0
    0.8950   -1.6411   -0.0314 H   0  0  0  0  0  0  0  0  0  0  0  0
   -0.7848   -2.1584    1.8284 N   0  0  0  0  0  0  0  0  0  0  0  0
   -1.5969   -2.3672    3.0355 C   0  0  2  0  0  0  0  0  0  0  0  0
   -0.7058   -2.5806    4.2770 C   0  0  0  0  0  0  0  0  0  0  0  0
    0.4744   -2.8838    4.1381 O   0  0  0  0  0  0  0  0  0  0  0  0
   -2.4856   -3.5896    2.8028 C   0  0  0  0  0  0  0  0  0  0  0  0
    0.1416   -2.5840    1.8483 H   0  0  0  0  0  0  0  0  0  0  0  0
   -2.2275   -1.4934    3.2313 H   0  0  0  0  0  0  0  0  0  0  0  0
   -1.8730   -4.4756    2.6062 H   0  0  0  0  0  0  0  0  0  0  0  0
   -3.1102   -3.7840    3.6798 H   0  0  0  0  0  0  0  0  0  0  0  0
   -3.1400   -3.4201    1.9442 H   0  0  0  0  0  0  0  0  0  0  0  0
   -1.2276   -2.4441    5.5502 N   0  0  0  0  0  0  0  0  0  0  0  0
   -0.4326   -2.6110    6.7611 C   0  0  0  0  0  0  0  0  0  0  0  0
   -2.1966   -2.1507    5.6341 H   0  0  0  0  0  0  0  0  0  0  0  0
    0.0363   -3.6007    6.7793 H   0  0  0  0  0  0  0  0  0  0  0  0
    0.3518   -1.8487    6.8120 H   0  0  0  0  0  0  0  0  0  0  0  0
   -1.0673   -2.5150    7.6474 H   0  0  0  0  0  0  0  0  0  0  0  0
  1  2  2  0  0  0  0
  1  3  1  0  0  0  0
  1  7  1  0  0  0  0
  3  4  1  0  0  0  0
  3  5  1  0  0  0  0
  3  6  1  0  0  0  0
  7  8  1  0  0  0  0
  7 12  1  0  0  0  0
  8  9  1  0  0  0  0
  8 11  1  0  0  0  0
  8 13  1  0  0  0  0
  9 10  2  0  0  0  0
  9 17  1  0  0  0  0
 11 14  1  0  0  0  0
 11 15  1  0  0  0  0
 11 16  1  0  0  0  0
 17 18  1  0  0  0  0
 17 21  1  0  0  0  0
 18 19  1  0  0  0  0
 18 22  1  0  0  0  0
 18 23  1  0  0  0  0
 19 20  2  0  0  0  0
 19 24  1  0  0  0  0
 24 25  1  0  0  0  0
 24 29  1  0  0  0  0
 25 26  1  0  0  0  0
 25 28  1  0  0  0  0
 25 30  1  0  0  0  0
 26 27  2  0  0  0  0
 26 34  1  0  0  0  0
 28 31  1  0  0  0  0
 28 32  1  0  0  0  0
 28 33  1  0  0  0  0
 34 35  1  0  0  0  0
 34 36  1  0  0  0  0
 35 37  1  0  0  0  0
 35 38  1  0  0  0  0
 35 39  1  0  0  0  0
M  END
$$$$

  -OEChem-05262216283D

 39 38  0     1  0  0  0  0  0999 V2000
   -3.2217   -2.6566   -1.6443 C   0  0  0  0  0  0  0  0  0  0  0  0
   -2.2585   -3.2490   -2.1137 O   0  0  0  0  0  0  0  0  0  0  0  0
   -4.0861   -3.3171   -0.5880 C   0  0  0  0  0  0  0  0  0  0  0  0
   -3.6780   -4.2964   -0.3238 H   0  0  0  0  0  0  0  0  0  0  0  0
   -4.1168   -2.6939    0.3095 H   0  0  0  0  0  0  0  0  0  0  0  0
   -5.1026   -3.4476   -0.9670 H   0  0  0  0  0  0  0  0  0  0  0  0
   -3.4777   -1.3552   -2.0229 N   0  0  0  0  0  0  0  0  0  0  0  0
   -2.5451   -0.5669   -2.8407 C   0  0  2  0  0  0  0  0  0  0  0  0
   -1.3247   -0.1216   -2.0028 C   0  0  0  0  0  0  0  0  0  0  0  0
   -1.1633    1.0439   -1.6595 O   0  0  0  0  0  0  0  0  0  0  0  0
   -3.3267    0.6134   -3.4295 C   0  0  0  0  0  0  0  0  0  0  0  0
   -4.0931   -0.8374   -1.3997 H   0  0  0  0  0  0  0  0  0  0  0  0
   -2.1739   -1.1728   -3.6741 H   0  0  0  0  0  0  0  0  0  0  0  0
   -3.7224    1.2504   -2.6318 H   0  0  0  0  0  0  0  0  0  0  0  0
   -2.6735    1.2204   -4.0643 H   0  0  0  0  0  0  0  0  0  0  0  0
   -4.1625    0.2528   -4.0366 H   0  0  0  0  0  0  0  0  0  0  0  0
   -0.4134   -1.0720   -1.5787 N   0  0  0  0  0  0  0  0  0  0  0  0
    0.1304   -1.0030   -0.2113 C   0  0  0  0  0  0  0  0  0  0  0  0
   -0.9023   -1.1034    0.9354 C   0  0  0  0  0  0  0  0  0  0  0  0
   -2.0575   -0.7047    0.8299 O   0  0  0  0  0  0  0  0  0  0  0  0
   -0.6918   -2.0100   -1.8817 H   0  0  0  0  0  0  0  0  0  0  0  0
    0.6724   -0.0599   -0.0882 H   0  0  0  0  0  0  0  0  0  0  0  0
    0.8591   -1.8092   -0.0922 H   0  0  0  0  0  0  0  0  0  0  0  0
   -0.6114   -1.9265    2.0075 N   0  0  0  0  0  0  0  0  0  0  0  0
   -1.4442   -2.0481    3.2123 C   0  0  2  0  0  0  0  0  0  0  0  0
   -0.5903   -1.9287    4.4923 C   0  0  0  0  0  0  0  0  0  0  0  0
    0.6246   -2.0849    4.4331 O   0  0  0  0  0  0  0  0  0  0  0  0
   -2.1527   -3.4038    3.1638 C   0  0  0  0  0  0  0  0  0  0  0  0
    0.3684   -2.1839    2.1249 H   0  0  0  0  0  0  0  0  0  0  0  0
   -2.1932   -1.2497    3.2430 H   0  0  0  0  0  0  0  0  0  0  0  0
   -1.4205   -4.2179    3.1506 H   0  0  0  0  0  0  0  0  0  0  0  0
   -2.7998   -3.5311    4.0369 H   0  0  0  0  0  0  0  0  0  0  0  0
   -2.7692   -3.4760    2.2630 H   0  0  0  0  0  0  0  0  0  0  0  0
   -1.1803   -1.6451    5.7104 N   0  0  0  0  0  0  0  0  0  0  0  0
   -0.4223   -1.4752    6.9447 C   0  0  0  0  0  0  0  0  0  0  0  0
   -2.1815   -1.4732    5.7205 H   0  0  0  0  0  0  0  0  0  0  0  0
    0.1629   -2.3748    7.1641 H   0  0  0  0  0  0  0  0  0  0  0  0
    0.2604   -0.6230    6.8604 H   0  0  0  0  0  0  0  0  0  0  0  0
   -1.1012   -1.2936    7.7835 H   0  0  0  0  0  0  0  0  0  0  0  0
  1  2  2  0  0  0  0
  1  3  1  0  0  0  0
  1  7  1  0  0  0  0
  3  4  1  0  0  0  0
  3  5  1  0  0  0  0
  3  6  1  0  0  0  0
  7  8  1  0  0  0  0
  7 12  1  0  0  0  0
  8  9  1  0  0  0  0
  8 11  1  0  0  0  0
  8 13  1  0  0  0  0
  9 10  2  0  0  0  0
  9 17  1  0  0  0  0
 11 14  1  0  0  0  0
 11 15  1  0  0  0  0
 11 16  1  0  0  0  0
 17 18  1  0  0  0  0
 17 21  1  0  0  0  0
 18 19  1  0  0  0  0
 18 22  1  0  0  0  0
 18 23  1  0  0  0  0
 19 20  2  0  0  0  0
 19 24  1  0  0  0  0
 24 25  1  0  0  0  0
 24 29  1  0  0  0  0
 25 26  1  0  0  0  0
 25 28  1  0  0  0  0
 25 30  1  0  0  0  0
 26 27  2  0  0  0  0
 26 34  1  0  0  0  0
 28 31  1  0  0  0  0
 28 32  1  0  0  0  0
 28 33  1  0  0  0  0
 34 35  1  0  0  0  0
 34 36  1  0  0  0  0
 35 37  1  0  0  0  0
 35 38  1  0  0  0  0
 35 39  1  0  0  0  0
M  END
$$$$

  -OEChem-05262216283D

 39 38  0     1  0  0  0  0  0999 V2000
   -4.7697   -2.3115   -2.3069 C   0  0  0  0  0  0  0  0  0  0  0  0
   -4.3549   -3.3870   -2.7116 O   0  0  0  0  0  0  0  0  0  0  0  0
   -6.1762   -2.2004   -1.7487 C   0  0  0  0  0  0  0  0  0  0  0  0
   -6.1444   -1.7726   -0.7434 H   0  0  0  0  0  0  0  0  0  0  0  0
   -6.7837   -1.5588   -2.3917 H   0  0  0  0  0  0  0  0  0  0  0  0
   -6.6402   -3.1892   -1.6951 H   0  0  0  0  0  0  0  0  0  0  0  0
   -3.9636   -1.1940   -2.3480 N   0  0  0  0  0  0  0  0  0  0  0  0
   -2.5157   -1.2403   -2.5831 C   0  0  2  0  0  0  0  0  0  0  0  0
   -1.7751   -0.3471   -1.5687 C   0  0  0  0  0  0  0  0  0  0  0  0
   -2.3214    0.6568   -1.1208 O   0  0  0  0  0  0  0  0  0  0  0  0
   -2.2423   -0.7811   -4.0163 C   0  0  0  0  0  0  0  0  0  0  0  0
   -4.3055   -0.3716   -1.8513 H   0  0  0  0  0  0  0  0  0  0  0  0
   -2.1431   -2.2621   -2.4550 H   0  0  0  0  0  0  0  0  0  0  0  0
   -2.6024    0.2421   -4.1653 H   0  0  0  0  0  0  0  0  0  0  0  0
   -1.1693   -0.8081   -4.2293 H   0  0  0  0  0  0  0  0  0  0  0  0
   -2.7542   -1.4386   -4.7263 H   0  0  0  0  0  0  0  0  0  0  0  0
   -0.4884   -0.6535   -1.1580 N   0  0  0  0  0  0  0  0  0  0  0  0
   -0.0357   -0.2757    0.1949 C   0  0  0  0  0  0  0  0  0  0  0  0
   -0.8357   -0.8877    1.3673 C   0  0  0  0  0  0  0  0  0  0  0  0
   -1.9349   -1.4038    1.2054 O   0  0  0  0  0  0  0  0  0  0  0  0
   -0.1496   -1.5439   -1.5110 H   0  0  0  0  0  0  0  0  0  0  0  0
   -0.0778    0.8135    0.2960 H   0  0  0  0  0  0  0  0  0  0  0  0
    1.0120   -0.5686    0.3045 H   0  0  0  0  0  0  0  0  0  0  0  0
   -0.1908   -1.1260    2.5661 N   0  0  0  0  0  0  0  0  0  0  0  0
   -0.8291   -1.7281    3.7444 C   0  0  2  0  0  0  0  0  0  0  0  0
   -0.2425   -1.1597    5.0530 C   0  0  0  0  0  0  0  0  0  0  0  0
    0.8054   -0.5223    5.0296 O   0  0  0  0  0  0  0  0  0  0  0  0
   -0.6330   -3.2458    3.6792 C   0  0  0  0  0  0  0  0  0  0  0  0
    0.6893   -0.6380    2.7320 H   0  0  0  0  0  0  0  0  0  0  0  0
   -1.9009   -1.5015    3.7419 H   0  0  0  0  0  0  0  0  0  0  0  0
    0.4329   -3.4946    3.6909 H   0  0  0  0  0  0  0  0  0  0  0  0
   -1.1147   -3.7329    4.5322 H   0  0  0  0  0  0  0  0  0  0  0  0
   -1.0737   -3.6458    2.7604 H   0  0  0  0  0  0  0  0  0  0  0  0
   -0.8966   -1.3501    6.2563 N   0  0  0  0  0  0  0  0  0  0  0  0
   -0.4098   -0.8204    7.5241 C   0  0  0  0  0  0  0  0  0  0  0  0
   -1.7753   -1.8601    6.2400 H   0  0  0  0  0  0  0  0  0  0  0  0
    0.5827   -1.2236    7.7508 H   0  0  0  0  0  0  0  0  0  0  0  0
   -0.3453    0.2720    7.4837 H   0  0  0  0  0  0  0  0  0  0  0  0
   -1.0897   -1.0970    8.3359 H   0  0  0  0  0  0  0  0  0  0  0  0
  1  2  2  0  0  0  0
  1  3  1  0  0  0  0
  1  7  1  0  0  0  0
  3  4  1  0  0  0  0
  3  5  1  0  0  0  0
  3  6  1  0  0  0  0
  7  8  1  0  0  0  0
  7 12  1  0  0  0  0
  8  9  1  0  0  0  0
  8 11  1  0  0  0  0
  8 13  1  0  0  0  0
  9 10  2  0  0  0  0
  9 17  1  0  0  0  0
 11 14  1  0  0  0  0
 11 15  1  0  0  0  0
 11 16  1  0  0  0  0
 17 18  1  0  0  0  0
 17 21  1  0  0  0  0
 18 19  1  0  0  0  0
 18 22  1  0  0  0  0
 18 23  1  0  0  0  0
 19 20  2  0  0  0  0
 19 24  1  0  0  0  0
 24 25  1  0  0  0  0
 24 29  1  0  0  0  0
 25 26  1  0  0  0  0
 25 28  1  0  0  0  0
 25 30  1  0  0  0  0
 26 27  2  0  0  0  0
 26 34  1  0  0  0  0
 28 31  1  0  0  0  0
 28 32  1  0  0  0  0
 28 33  1  0  0  0  0
 34 35  1  0  0  0  0
 34 36  1  0  0  0  0
 35 37  1  0  0  0  0
 35 38  1  0  0  0  0
 35 39  1  0  0  0  0
M  END
$$$$

  -OEChem-05262216283D

 39 38  0     1  0  0  0  0  0999 V2000
   -4.9228   -2.2042   -2.7528 C   0  0  0  0  0  0  0  0  0  0  0  0
   -4.5264   -3.2286   -3.2867 O   0  0  0  0  0  0  0  0  0  0  0  0
   -6.3978   -2.0275   -2.4460 C   0  0  0  0  0  0  0  0  0  0  0  0
   -6.7769   -1.1293   -2.9394 H   0  0  0  0  0  0  0  0  0  0  0  0
   -6.9636   -2.8922   -2.8035 H   0  0  0  0  0  0  0  0  0  0  0  0
   -6.5446   -1.9321   -1.3673 H   0  0  0  0  0  0  0  0  0  0  0  0
   -4.0308   -1.2080   -2.4186 N   0  0  0  0  0  0  0  0  0  0  0  0
   -2.5718   -1.3564   -2.4744 C   0  0  2  0  0  0  0  0  0  0  0  0
   -1.8819   -0.5236   -1.3744 C   0  0  0  0  0  0  0  0  0  0  0  0
   -2.4686    0.4231   -0.8578 O   0  0  0  0  0  0  0  0  0  0  0  0
   -2.0874   -0.9230   -3.8616 C   0  0  0  0  0  0  0  0  0  0  0  0
   -4.3858   -0.4320   -1.8605 H   0  0  0  0  0  0  0  0  0  0  0  0
   -2.3031   -2.4048   -2.3071 H   0  0  0  0  0  0  0  0  0  0  0  0
   -2.3361    0.1276   -4.0429 H   0  0  0  0  0  0  0  0  0  0  0  0
   -1.0032   -1.0440   -3.9451 H   0  0  0  0  0  0  0  0  0  0  0  0
   -2.5628   -1.5325   -4.6366 H   0  0  0  0  0  0  0  0  0  0  0  0
   -0.5775   -0.7966   -0.9969 N   0  0  0  0  0  0  0  0  0  0  0  0
   -0.0706   -0.3831    0.3249 C   0  0  0  0  0  0  0  0  0  0  0  0
   -0.8067   -0.9735    1.5462 C   0  0  0  0  0  0  0  0  0  0  0  0
   -1.7757   -1.7128    1.4203 O   0  0  0  0  0  0  0  0  0  0  0  0
   -0.2074   -1.6633   -1.3765 H   0  0  0  0  0  0  0  0  0  0  0  0
   -0.1250    0.7074    0.3990 H   0  0  0  0  0  0  0  0  0  0  0  0
    0.9842   -0.6607    0.3981 H   0  0  0  0  0  0  0  0  0  0  0  0
   -0.2127   -0.8879    2.7908 N   0  0  0  0  0  0  0  0  0  0  0  0
   -0.8244   -1.3700    4.0364 C   0  0  2  0  0  0  0  0  0  0  0  0
   -0.4094   -0.4919    5.2362 C   0  0  0  0  0  0  0  0  0  0  0  0
    0.5133    0.3082    5.1194 O   0  0  0  0  0  0  0  0  0  0  0  0
   -0.3995   -2.8252    4.2598 C   0  0  0  0  0  0  0  0  0  0  0  0
    0.5471   -0.2160    2.8994 H   0  0  0  0  0  0  0  0  0  0  0  0
   -1.9158   -1.3204    3.9562 H   0  0  0  0  0  0  0  0  0  0  0  0
    0.6890   -2.8971    4.3505 H   0  0  0  0  0  0  0  0  0  0  0  0
   -0.8528   -3.2229    5.1727 H   0  0  0  0  0  0  0  0  0  0  0  0
   -0.7205   -3.4477    3.4184 H   0  0  0  0  0  0  0  0  0  0  0  0
   -1.0724   -0.5897    6.4457 N   0  0  0  0  0  0  0  0  0  0  0  0
   -0.7279    0.2137    7.6130 C   0  0  0  0  0  0  0  0  0  0  0  0
   -1.8412   -1.2509    6.5109 H   0  0  0  0  0  0  0  0  0  0  0  0
    0.2998    0.0071    7.9299 H   0  0  0  0  0  0  0  0  0  0  0  0
   -0.8173    1.2809    7.3843 H   0  0  0  0  0  0  0  0  0  0  0  0
   -1.3993   -0.0174    8.4455 H   0  0  0  0  0  0  0  0  0  0  0  0
  1  2  2  0  0  0  0
  1  3  1  0  0  0  0
  1  7  1  0  0  0  0
  3  4  1  0  0  0  0
  3  5  1  0  0  0  0
  3  6  1  0  0  0  0
  7  8  1  0  0  0  0
  7 12  1  0  0  0  0
  8  9  1  0  0  0  0
  8 11  1  0  0  0  0
  8 13  1  0  0  0  0
  9 10  2  0  0  0  0
  9 17  1  0  0  0  0
 11 14  1  0  0  0  0
 11 15  1  0  0  0  0
 11 16  1  0  0  0  0
 17 18  1  0  0  0  0
 17 21  1  0  0  0  0
 18 19  1  0  0  0  0
 18 22  1  0  0  0  0
 18 23  1  0  0  0  0
 19 20  2  0  0  0  0
 19 24  1  0  0  0  0
 24 25  1  0  0  0  0
 24 29  1  0  0  0  0
 25 26  1  0  0  0  0
 25 28  1  0  0  0  0
 25 30  1  0  0  0  0
 26 27  2  0  0  0  0
 26 34  1  0  0  0  0
 28 31  1  0  0  0  0
 28 32  1  0  0  0  0
 28 33  1  0  0  0  0
 34 35  1  0  0  0  0
 34 36  1  0  0  0  0
 35 37  1  0  0  0  0
 35 38  1  0  0  0  0
 35 39  1  0  0  0  0
M  END
$$$$

  -OEChem-05262216283D

 39 38  0     1  0  0  0  0  0999 V2000
   -3.7491   -3.3489   -2.4961 C   0  0  0  0  0  0  0  0  0  0  0  0
   -2.8616   -4.1572   -2.7190 O   0  0  0  0  0  0  0  0  0  0  0  0
   -5.2040   -3.7584   -2.6294 C   0  0  0  0  0  0  0  0  0  0  0  0
   -5.6872   -3.1702   -3.4135 H   0  0  0  0  0  0  0  0  0  0  0  0
   -5.2748   -4.8185   -2.8890 H   0  0  0  0  0  0  0  0  0  0  0  0
   -5.7265   -3.5920   -1.6842 H   0  0  0  0  0  0  0  0  0  0  0  0
   -3.4319   -2.0612   -2.1200 N   0  0  0  0  0  0  0  0  0  0  0  0
   -2.0731   -1.5960   -1.8127 C   0  0  2  0  0  0  0  0  0  0  0  0
   -2.0936   -0.3943   -0.8429 C   0  0  0  0  0  0  0  0  0  0  0  0
   -3.1594    0.1255   -0.5241 O   0  0  0  0  0  0  0  0  0  0  0  0
   -1.3749   -1.2178   -3.1241 C   0  0  0  0  0  0  0  0  0  0  0  0
   -4.1983   -1.4598   -1.8191 H   0  0  0  0  0  0  0  0  0  0  0  0
   -1.5144   -2.4014   -1.3229 H   0  0  0  0  0  0  0  0  0  0  0  0
   -1.9151   -0.4082   -3.6250 H   0  0  0  0  0  0  0  0  0  0  0  0
   -0.3493   -0.8884   -2.9341 H   0  0  0  0  0  0  0  0  0  0  0  0
   -1.3373   -2.0798   -3.7975 H   0  0  0  0  0  0  0  0  0  0  0  0
   -0.9149    0.1210   -0.3306 N   0  0  0  0  0  0  0  0  0  0  0  0
   -0.9199    1.0021    0.8501 C   0  0  0  0  0  0  0  0  0  0  0  0
   -1.1597    0.2669    2.1811 C   0  0  0  0  0  0  0  0  0  0  0  0
   -1.1300   -0.9579    2.2210 O   0  0  0  0  0  0  0  0  0  0  0  0
   -0.0984   -0.4701   -0.4648 H   0  0  0  0  0  0  0  0  0  0  0  0
   -1.6883    1.7734    0.7348 H   0  0  0  0  0  0  0  0  0  0  0  0
    0.0428    1.5163    0.9116 H   0  0  0  0  0  0  0  0  0  0  0  0
   -1.1873    0.9963    3.3591 N   0  0  0  0  0  0  0  0  0  0  0  0
   -1.3235    0.4679    4.7335 C   0  0  2  0  0  0  0  0  0  0  0  0
   -0.0935   -0.3158    5.2477 C   0  0  0  0  0  0  0  0  0  0  0  0
    0.4667    0.0503    6.2725 O   0  0  0  0  0  0  0  0  0  0  0  0
   -2.6081   -0.3585    4.8907 C   0  0  0  0  0  0  0  0  0  0  0  0
   -1.1497    2.0065    3.2566 H   0  0  0  0  0  0  0  0  0  0  0  0
   -1.4262    1.3335    5.3963 H   0  0  0  0  0  0  0  0  0  0  0  0
   -2.5497   -1.2974    4.3325 H   0  0  0  0  0  0  0  0  0  0  0  0
   -2.7700   -0.6005    5.9460 H   0  0  0  0  0  0  0  0  0  0  0  0
   -3.4715    0.2079    4.5292 H   0  0  0  0  0  0  0  0  0  0  0  0
    0.3985   -1.4088    4.5628 N   0  0  0  0  0  0  0  0  0  0  0  0
    1.5809   -2.1593    4.9623 C   0  0  0  0  0  0  0  0  0  0  0  0
   -0.0667   -1.6322    3.6786 H   0  0  0  0  0  0  0  0  0  0  0  0
    2.4723   -1.5259    4.9091 H   0  0  0  0  0  0  0  0  0  0  0  0
    1.4715   -2.5299    5.9869 H   0  0  0  0  0  0  0  0  0  0  0  0
    1.7245   -3.0178    4.2992 H   0  0  0  0  0  0  0  0  0  0  0  0
  1  2  2  0  0  0  0
  1  3  1  0  0  0  0
  1  7  1  0  0  0  0
  3  4  1  0  0  0  0
  3  5  1  0  0  0  0
  3  6  1  0  0  0  0
  7  8  1  0  0  0  0
  7 12  1  0  0  0  0
  8  9  1  0  0  0  0
  8 11  1  0  0  0  0
  8 13  1  0  0  0  0
  9 10  2  0  0  0  0
  9 17  1  0  0  0  0
 11 14  1  0  0  0  0
 11 15  1  0  0  0  0
 11 16  1  0  0  0  0
 17 18  1  0  0  0  0
 17 21  1  0  0  0  0
 18 19  1  0  0  0  0
 18 22  1  0  0  0  0
 18 23  1  0  0  0  0
 19 20  2  0  0  0  0
 19 24  1  0  0  0  0
 24 25  1  0  0  0  0
 24 29  1  0  0  0  0
 25 26  1  0  0  0  0
 25 28  1  0  0  0  0
 25 30  1  0  0  0  0
 26 27  2  0  0  0  0
 26 34  1  0  0  0  0
 28 31  1  0  0  0  0
 28 32  1  0  0  0  0
 28 33  1  0  0  0  0
 34 35  1  0  0  0  0
 34 36  1  0  0  0  0
 35 37  1  0  0  0  0
 35 38  1  0  0  0  0
 35 39  1  0  0  0  0
M  END
$$$$

  -OEChem-05262216283D

 39 38  0     1  0  0  0  0  0999 V2000
   -3.6418   -3.3562   -2.4667 C   0  0  0  0  0  0  0  0  0  0  0  0
   -2.7072   -4.1069   -2.6976 O   0  0  0  0  0  0  0  0  0  0  0  0
   -5.0686   -3.8608   -2.5707 C   0  0  0  0  0  0  0  0  0  0  0  0
   -5.5958   -3.3247   -3.3636 H   0  0  0  0  0  0  0  0  0  0  0  0
   -5.0744   -4.9294   -2.8030 H   0  0  0  0  0  0  0  0  0  0  0  0
   -5.5911   -3.7034   -1.6239 H   0  0  0  0  0  0  0  0  0  0  0  0
   -3.4033   -2.0455   -2.1125 N   0  0  0  0  0  0  0  0  0  0  0  0
   -2.0712   -1.4829   -1.8571 C   0  0  2  0  0  0  0  0  0  0  0  0
   -2.1383   -0.2922   -0.8764 C   0  0  0  0  0  0  0  0  0  0  0  0
   -3.2230    0.1839   -0.5529 O   0  0  0  0  0  0  0  0  0  0  0  0
   -1.4631   -1.0471   -3.1950 C   0  0  0  0  0  0  0  0  0  0  0  0
   -4.2017   -1.4872   -1.8121 H   0  0  0  0  0  0  0  0  0  0  0  0
   -1.4325   -2.2470   -1.4003 H   0  0  0  0  0  0  0  0  0  0  0  0
   -2.0865   -0.2807   -3.6664 H   0  0  0  0  0  0  0  0  0  0  0  0
   -0.4587   -0.6391   -3.0482 H   0  0  0  0  0  0  0  0  0  0  0  0
   -1.3889   -1.9018   -3.8750 H   0  0  0  0  0  0  0  0  0  0  0  0
   -0.9815    0.2503   -0.3440 N   0  0  0  0  0  0  0  0  0  0  0  0
   -1.0246    1.1373    0.8311 C   0  0  0  0  0  0  0  0  0  0  0  0
   -1.2749    0.3949    2.1553 C   0  0  0  0  0  0  0  0  0  0  0  0
   -1.0111   -0.7989    2.2428 O   0  0  0  0  0  0  0  0  0  0  0  0
   -0.1464   -0.3171   -0.4663 H   0  0  0  0  0  0  0  0  0  0  0  0
   -1.8069    1.8909    0.6973 H   0  0  0  0  0  0  0  0  0  0  0  0
   -0.0745    1.6725    0.9124 H   0  0  0  0  0  0  0  0  0  0  0  0
   -1.6492    1.1116    3.2806 N   0  0  0  0  0  0  0  0  0  0  0  0
   -1.9387    0.5720    4.6267 C   0  0  2  0  0  0  0  0  0  0  0  0
   -0.7109    0.0282    5.3937 C   0  0  0  0  0  0  0  0  0  0  0  0
   -0.4799    0.4372    6.5239 O   0  0  0  0  0  0  0  0  0  0  0  0
   -3.0571   -0.4780    4.5721 C   0  0  0  0  0  0  0  0  0  0  0  0
   -1.8367    2.0993    3.1318 H   0  0  0  0  0  0  0  0  0  0  0  0
   -2.3187    1.4068    5.2247 H   0  0  0  0  0  0  0  0  0  0  0  0
   -2.7176   -1.3962    4.0839 H   0  0  0  0  0  0  0  0  0  0  0  0
   -3.3810   -0.7322    5.5862 H   0  0  0  0  0  0  0  0  0  0  0  0
   -3.9183   -0.0886    4.0210 H   0  0  0  0  0  0  0  0  0  0  0  0
    0.1299   -0.9111    4.8315 N   0  0  0  0  0  0  0  0  0  0  0  0
    1.2951   -1.4732    5.5004 C   0  0  0  0  0  0  0  0  0  0  0  0
   -0.1019   -1.2124    3.8811 H   0  0  0  0  0  0  0  0  0  0  0  0
    2.0009   -0.6808    5.7709 H   0  0  0  0  0  0  0  0  0  0  0  0
    0.9957   -2.0053    6.4095 H   0  0  0  0  0  0  0  0  0  0  0  0
    1.8052   -2.1797    4.8384 H   0  0  0  0  0  0  0  0  0  0  0  0
  1  2  2  0  0  0  0
  1  3  1  0  0  0  0
  1  7  1  0  0  0  0
  3  4  1  0  0  0  0
  3  5  1  0  0  0  0
  3  6  1  0  0  0  0
  7  8  1  0  0  0  0
  7 12  1  0  0  0  0
  8  9  1  0  0  0  0
  8 11  1  0  0  0  0
  8 13  1  0  0  0  0
  9 10  2  0  0  0  0
  9 17  1  0  0  0  0
 11 14  1  0  0  0  0
 11 15  1  0  0  0  0
 11 16  1  0  0  0  0
 17 18  1  0  0  0  0
 17 21  1  0  0  0  0
 18 19  1  0  0  0  0
 18 22  1  0  0  0  0
 18 23  1  0  0  0  0
 19 20  2  0  0  0  0
 19 24  1  0  0  0  0
 24 25  1  0  0  0  0
 24 29  1  0  0  0  0
 25 26  1  0  0  0  0
 25 28  1  0  0  0  0
 25 30  1  0  0  0  0
 26 27  2  0  0  0  0
 26 34  1  0  0  0  0
 28 31  1  0  0  0  0
 28 32  1  0  0  0  0
 28 33  1  0  0  0  0
 34 35  1  0  0  0  0
 34 36  1  0  0  0  0
 35 37  1  0  0  0  0
 35 38  1  0  0  0  0
 35 39  1  0  0  0  0
M  END
$$$$

  -OEChem-05262216283D

 39 38  0     1  0  0  0  0  0999 V2000
   -4.9710   -2.2336   -2.5041 C   0  0  0  0  0  0  0  0  0  0  0  0
   -4.7078   -3.3836   -2.8183 O   0  0  0  0  0  0  0  0  0  0  0  0
   -6.4164   -1.7808   -2.4149 C   0  0  0  0  0  0  0  0  0  0  0  0
   -6.5937   -0.9591   -3.1132 H   0  0  0  0  0  0  0  0  0  0  0  0
   -7.0865   -2.6077   -2.6663 H   0  0  0  0  0  0  0  0  0  0  0  0
   -6.6399   -1.4423   -1.4002 H   0  0  0  0  0  0  0  0  0  0  0  0
   -3.9564   -1.3429   -2.2266 N   0  0  0  0  0  0  0  0  0  0  0  0
   -2.5370   -1.7072   -2.1276 C   0  0  2  0  0  0  0  0  0  0  0  0
   -1.7752   -0.7578   -1.1771 C   0  0  0  0  0  0  0  0  0  0  0  0
   -2.3453    0.2117   -0.6851 O   0  0  0  0  0  0  0  0  0  0  0  0
   -1.9259   -1.6771   -3.5332 C   0  0  0  0  0  0  0  0  0  0  0  0
   -4.2222   -0.4380   -1.8389 H   0  0  0  0  0  0  0  0  0  0  0  0
   -2.4466   -2.7187   -1.7165 H   0  0  0  0  0  0  0  0  0  0  0  0
   -1.9989   -0.6723   -3.9612 H   0  0  0  0  0  0  0  0  0  0  0  0
   -0.8718   -1.9684   -3.5023 H   0  0  0  0  0  0  0  0  0  0  0  0
   -2.4535   -2.3747   -4.1915 H   0  0  0  0  0  0  0  0  0  0  0  0
   -0.4509   -0.9953   -0.8542 N   0  0  0  0  0  0  0  0  0  0  0  0
    0.1858   -0.3443    0.3028 C   0  0  0  0  0  0  0  0  0  0  0  0
   -0.2502   -0.9520    1.6444 C   0  0  0  0  0  0  0  0  0  0  0  0
   -0.5018   -2.1493    1.7173 O   0  0  0  0  0  0  0  0  0  0  0  0
   -0.1114   -1.9221   -1.0999 H   0  0  0  0  0  0  0  0  0  0  0  0
   -0.0472    0.7252    0.3036 H   0  0  0  0  0  0  0  0  0  0  0  0
    1.2722   -0.4364    0.2223 H   0  0  0  0  0  0  0  0  0  0  0  0
   -0.2934   -0.1783    2.7872 N   0  0  0  0  0  0  0  0  0  0  0  0
   -0.7774   -0.6533    4.0891 C   0  0  2  0  0  0  0  0  0  0  0  0
   -1.3942    0.4948    4.9147 C   0  0  0  0  0  0  0  0  0  0  0  0
   -1.1638    1.6615    4.6149 O   0  0  0  0  0  0  0  0  0  0  0  0
    0.3974   -1.2812    4.8457 C   0  0  0  0  0  0  0  0  0  0  0  0
   -0.2190    0.8329    2.6736 H   0  0  0  0  0  0  0  0  0  0  0  0
   -1.5576   -1.4076    3.9395 H   0  0  0  0  0  0  0  0  0  0  0  0
    1.1879   -0.5406    5.0048 H   0  0  0  0  0  0  0  0  0  0  0  0
    0.0702   -1.6571    5.8198 H   0  0  0  0  0  0  0  0  0  0  0  0
    0.8134   -2.1184    4.2762 H   0  0  0  0  0  0  0  0  0  0  0  0
   -2.2095    0.2190    5.9967 N   0  0  0  0  0  0  0  0  0  0  0  0
   -2.8452    1.2526    6.8046 C   0  0  0  0  0  0  0  0  0  0  0  0
   -2.4018   -0.7566    6.2048 H   0  0  0  0  0  0  0  0  0  0  0  0
   -2.0890    1.8733    7.2969 H   0  0  0  0  0  0  0  0  0  0  0  0
   -3.4762    1.8937    6.1798 H   0  0  0  0  0  0  0  0  0  0  0  0
   -3.4742    0.7964    7.5754 H   0  0  0  0  0  0  0  0  0  0  0  0
  1  2  2  0  0  0  0
  1  3  1  0  0  0  0
  1  7  1  0  0  0  0
  3  4  1  0  0  0  0
  3  5  1  0  0  0  0
  3  6  1  0  0  0  0
  7  8  1  0  0  0  0
  7 12  1  0  0  0  0
  8  9  1  0  0  0  0
  8 11  1  0  0  0  0
  8 13  1  0  0  0  0
  9 10  2  0  0  0  0
  9 17  1  0  0  0  0
 11 14  1  0  0  0  0
 11 15  1  0  0  0  0
 11 16  1  0  0  0  0
 17 18  1  0  0  0  0
 17 21  1  0  0  0  0
 18 19  1  0  0  0  0
 18 22  1  0  0  0  0
 18 23  1  0  0  0  0
 19 20  2  0  0  0  0
 19 24  1  0  0  0  0
 24 25  1  0  0  0  0
 24 29  1  0  0  0  0
 25 26  1  0  0  0  0
 25 28  1  0  0  0  0
 25 30  1  0  0  0  0
 26 27  2  0  0  0  0
 26 34  1  0  0  0  0
 28 31  1  0  0  0  0
 28 32  1  0  0  0  0
 28 33  1  0  0  0  0
 34 35  1  0  0  0  0
 34 36  1  0  0  0  0
 35 37  1  0  0  0  0
 35 38  1  0  0  0  0
 35 39  1  0  0  0  0
M  END
$$$$

  -OEChem-05262216283D

 39 38  0     1  0  0  0  0  0999 V2000
   -4.9213   -2.3035   -2.4671 C   0  0  0  0  0  0  0  0  0  0  0  0
   -4.6077   -3.4370   -2.7948 O   0  0  0  0  0  0  0  0  0  0  0  0
   -6.3847   -1.9193   -2.3554 C   0  0  0  0  0  0  0  0  0  0  0  0
   -6.6110   -1.1068   -3.0501 H   0  0  0  0  0  0  0  0  0  0  0  0
   -7.0193   -2.7764   -2.5971 H   0  0  0  0  0  0  0  0  0  0  0  0
   -6.6080   -1.5912   -1.3374 H   0  0  0  0  0  0  0  0  0  0  0  0
   -3.9464   -1.3680   -2.1938 N   0  0  0  0  0  0  0  0  0  0  0  0
   -2.5093   -1.6623   -2.1205 C   0  0  2  0  0  0  0  0  0  0  0  0
   -1.7853   -0.7023   -1.1517 C   0  0  0  0  0  0  0  0  0  0  0  0
   -2.3899    0.2397   -0.6481 O   0  0  0  0  0  0  0  0  0  0  0  0
   -1.9187   -1.5593   -3.5313 C   0  0  0  0  0  0  0  0  0  0  0  0
   -4.2496   -0.4784   -1.7985 H   0  0  0  0  0  0  0  0  0  0  0  0
   -2.3617   -2.6794   -1.7410 H   0  0  0  0  0  0  0  0  0  0  0  0
   -2.0460   -0.5464   -3.9268 H   0  0  0  0  0  0  0  0  0  0  0  0
   -0.8512   -1.7989   -3.5215 H   0  0  0  0  0  0  0  0  0  0  0  0
   -2.4202   -2.2618   -4.2048 H   0  0  0  0  0  0  0  0  0  0  0  0
   -0.4578   -0.9028   -0.8187 N   0  0  0  0  0  0  0  0  0  0  0  0
    0.1630   -0.2224    0.3293 C   0  0  0  0  0  0  0  0  0  0  0  0
   -0.2666   -0.8249    1.6746 C   0  0  0  0  0  0  0  0  0  0  0  0
   -0.2755   -2.0423    1.8122 O   0  0  0  0  0  0  0  0  0  0  0  0
   -0.0780   -1.8106   -1.0765 H   0  0  0  0  0  0  0  0  0  0  0  0
   -0.0905    0.8423    0.3144 H   0  0  0  0  0  0  0  0  0  0  0  0
    1.2513   -0.2933    0.2534 H   0  0  0  0  0  0  0  0  0  0  0  0
   -0.6301   -0.0162    2.7334 N   0  0  0  0  0  0  0  0  0  0  0  0
   -1.1582   -0.5118    4.0110 C   0  0  2  0  0  0  0  0  0  0  0  0
   -2.0473    0.5426    4.7035 C   0  0  0  0  0  0  0  0  0  0  0  0
   -2.0088    1.7141    4.3430 O   0  0  0  0  0  0  0  0  0  0  0  0
    0.0189   -0.8919    4.9161 C   0  0  0  0  0  0  0  0  0  0  0  0
   -0.7674    0.9765    2.5401 H   0  0  0  0  0  0  0  0  0  0  0  0
   -1.7774   -1.3970    3.8308 H   0  0  0  0  0  0  0  0  0  0  0  0
    0.6486   -0.0178    5.1110 H   0  0  0  0  0  0  0  0  0  0  0  0
   -0.3417   -1.2825    5.8723 H   0  0  0  0  0  0  0  0  0  0  0  0
    0.6322   -1.6635    4.4403 H   0  0  0  0  0  0  0  0  0  0  0  0
   -2.8938    0.1782    5.7346 N   0  0  0  0  0  0  0  0  0  0  0  0
   -3.7643    1.1209    6.4268 C   0  0  0  0  0  0  0  0  0  0  0  0
   -2.9197   -0.8022    5.9989 H   0  0  0  0  0  0  0  0  0  0  0  0
   -3.1718    1.9046    6.9105 H   0  0  0  0  0  0  0  0  0  0  0  0
   -4.4601    1.5894    5.7228 H   0  0  0  0  0  0  0  0  0  0  0  0
   -4.3466    0.6037    7.1955 H   0  0  0  0  0  0  0  0  0  0  0  0
  1  2  2  0  0  0  0
  1  3  1  0  0  0  0
  1  7  1  0  0  0  0
  3  4  1  0  0  0  0
  3  5  1  0  0  0  0
  3  6  1  0  0  0  0
  7  8  1  0  0  0  0
  7 12  1  0  0  0  0
  8  9  1  0  0  0  0
  8 11  1  0  0  0  0
  8 13  1  0  0  0  0
  9 10  2  0  0  0  0
  9 17  1  0  0  0  0
 11 14  1  0  0  0  0
 11 15  1  0  0  0  0
 11 16  1  0  0  0  0
 17 18  1  0  0  0  0
 17 21  1  0  0  0  0
 18 19  1  0  0  0  0
 18 22  1  0  0  0  0
 18 23  1  0  0  0  0
 19 20  2  0  0  0  0
 19 24  1  0  0  0  0
 24 25  1  0  0  0  0
 24 29  1  0  0  0  0
 25 26  1  0  0  0  0
 25 28  1  0  0  0  0
 25 30  1  0  0  0  0
 26 27  2  0  0  0  0
 26 34  1  0  0  0  0
 28 31  1  0  0  0  0
 28 32  1  0  0  0  0
 28 33  1  0  0  0  0
 34 35  1  0  0  0  0
 34 36  1  0  0  0  0
 35 37  1  0  0  0  0
 35 38  1  0  0  0  0
 35 39  1  0  0  0  0
M  END
$$$$

  -OEChem-05262216283D

 39 38  0     1  0  0  0  0  0999 V2000
   -3.6110   -3.3537   -2.6808 C   0  0  0  0  0  0  0  0  0  0  0  0
   -2.6301   -4.0666   -2.8205 O   0  0  0  0  0  0  0  0  0  0  0  0
   -5.0033   -3.9264   -2.8709 C   0  0  0  0  0  0  0  0  0  0  0  0
   -4.9412   -4.9650   -3.2088 H   0  0  0  0  0  0  0  0  0  0  0  0
   -5.5517   -3.8950   -1.9261 H   0  0  0  0  0  0  0  0  0  0  0  0
   -5.5475   -3.3459   -3.6198 H   0  0  0  0  0  0  0  0  0  0  0  0
   -3.4549   -2.0274   -2.3370 N   0  0  0  0  0  0  0  0  0  0  0  0
   -2.1702   -1.4076   -1.9850 C   0  0  2  0  0  0  0  0  0  0  0  0
   -2.3537   -0.2386   -0.9934 C   0  0  0  0  0  0  0  0  0  0  0  0
   -3.4781    0.1640   -0.7062 O   0  0  0  0  0  0  0  0  0  0  0  0
   -1.4936   -0.9275   -3.2730 C   0  0  0  0  0  0  0  0  0  0  0  0
   -4.2979   -1.4990   -2.1150 H   0  0  0  0  0  0  0  0  0  0  0  0
   -1.5275   -2.1482   -1.4966 H   0  0  0  0  0  0  0  0  0  0  0  0
   -2.1152   -0.1807   -3.7772 H   0  0  0  0  0  0  0  0  0  0  0  0
   -0.5191   -0.4811   -3.0536 H   0  0  0  0  0  0  0  0  0  0  0  0
   -1.3384   -1.7695   -3.9553 H   0  0  0  0  0  0  0  0  0  0  0  0
   -1.2633    0.3436   -0.3715 N   0  0  0  0  0  0  0  0  0  0  0  0
   -1.4232    1.2721    0.7578 C   0  0  0  0  0  0  0  0  0  0  0  0
   -1.7873    0.5407    2.0559 C   0  0  0  0  0  0  0  0  0  0  0  0
   -0.9926   -0.2654    2.5224 O   0  0  0  0  0  0  0  0  0  0  0  0
   -0.3755   -0.1452   -0.4640 H   0  0  0  0  0  0  0  0  0  0  0  0
   -2.1892    2.0200    0.5294 H   0  0  0  0  0  0  0  0  0  0  0  0
   -0.4879    1.8151    0.9220 H   0  0  0  0  0  0  0  0  0  0  0  0
   -2.9731    0.8338    2.7070 N   0  0  0  0  0  0  0  0  0  0  0  0
   -3.5267    0.1494    3.8948 C   0  0  2  0  0  0  0  0  0  0  0  0
   -2.7544    0.3837    5.2142 C   0  0  0  0  0  0  0  0  0  0  0  0
   -3.3754    0.6687    6.2300 O   0  0  0  0  0  0  0  0  0  0  0  0
   -3.7102   -1.3512    3.6284 C   0  0  0  0  0  0  0  0  0  0  0  0
   -3.6120    1.4272    2.1830 H   0  0  0  0  0  0  0  0  0  0  0  0
   -4.5256    0.5667    4.0587 H   0  0  0  0  0  0  0  0  0  0  0  0
   -2.7460   -1.8627    3.5550 H   0  0  0  0  0  0  0  0  0  0  0  0
   -4.2772   -1.8095    4.4449 H   0  0  0  0  0  0  0  0  0  0  0  0
   -4.2600   -1.5069    2.6952 H   0  0  0  0  0  0  0  0  0  0  0  0
   -1.3803    0.2674    5.2767 N   0  0  0  0  0  0  0  0  0  0  0  0
   -0.6015    0.4223    6.4972 C   0  0  0  0  0  0  0  0  0  0  0  0
   -0.9144   -0.0301    4.4154 H   0  0  0  0  0  0  0  0  0  0  0  0
   -0.8024    1.3944    6.9601 H   0  0  0  0  0  0  0  0  0  0  0  0
   -0.8511   -0.3681    7.2127 H   0  0  0  0  0  0  0  0  0  0  0  0
    0.4675    0.3627    6.2715 H   0  0  0  0  0  0  0  0  0  0  0  0
  1  2  2  0  0  0  0
  1  3  1  0  0  0  0
  1  7  1  0  0  0  0
  3  4  1  0  0  0  0
  3  5  1  0  0  0  0
  3  6  1  0  0  0  0
  7  8  1  0  0  0  0
  7 12  1  0  0  0  0
  8  9  1  0  0  0  0
  8 11  1  0  0  0  0
  8 13  1  0  0  0  0
  9 10  2  0  0  0  0
  9 17  1  0  0  0  0
 11 14  1  0  0  0  0
 11 15  1  0  0  0  0
 11 16  1  0  0  0  0
 17 18  1  0  0  0  0
 17 21  1  0  0  0  0
 18 19  1  0  0  0  0
 18 22  1  0  0  0  0
 18 23  1  0  0  0  0
 19 20  2  0  0  0  0
 19 24  1  0  0  0  0
 24 25  1  0  0  0  0
 24 29  1  0  0  0  0
 25 26  1  0  0  0  0
 25 28  1  0  0  0  0
 25 30  1  0  0  0  0
 26 27  2  0  0  0  0
 26 34  1  0  0  0  0
 28 31  1  0  0  0  0
 28 32  1  0  0  0  0
 28 33  1  0  0  0  0
 34 35  1  0  0  0  0
 34 36  1  0  0  0  0
 35 37  1  0  0  0  0
 35 38  1  0  0  0  0
 35 39  1  0  0  0  0
M  END
$$$$

  -OEChem-05262216283D

 39 38  0     1  0  0  0  0  0999 V2000
   -3.7121   -3.3975   -2.8514 C   0  0  0  0  0  0  0  0  0  0  0  0
   -2.8044   -4.2094   -2.9326 O   0  0  0  0  0  0  0  0  0  0  0  0
   -5.1363   -3.8109   -3.1731 C   0  0  0  0  0  0  0  0  0  0  0  0
   -5.5138   -3.2244   -4.0142 H   0  0  0  0  0  0  0  0  0  0  0  0
   -5.1698   -4.8711   -3.4397 H   0  0  0  0  0  0  0  0  0  0  0  0
   -5.7794   -3.6465   -2.3051 H   0  0  0  0  0  0  0  0  0  0  0  0
   -3.4423   -2.1019   -2.4633 N   0  0  0  0  0  0  0  0  0  0  0  0
   -2.1243   -1.6247   -2.0225 C   0  0  2  0  0  0  0  0  0  0  0  0
   -2.2433   -0.4570   -1.0197 C   0  0  0  0  0  0  0  0  0  0  0  0
   -3.3312    0.0714   -0.8015 O   0  0  0  0  0  0  0  0  0  0  0  0
   -1.3268   -1.1945   -3.2584 C   0  0  0  0  0  0  0  0  0  0  0  0
   -4.2373   -1.4855   -2.2994 H   0  0  0  0  0  0  0  0  0  0  0  0
   -1.5923   -2.4365   -1.5141 H   0  0  0  0  0  0  0  0  0  0  0  0
   -1.8432   -0.3858   -3.7853 H   0  0  0  0  0  0  0  0  0  0  0  0
   -0.3305   -0.8446   -2.9724 H   0  0  0  0  0  0  0  0  0  0  0  0
   -1.2090   -2.0380   -3.9461 H   0  0  0  0  0  0  0  0  0  0  0  0
   -1.1400   -0.0077   -0.3153 N   0  0  0  0  0  0  0  0  0  0  0  0
   -1.2576    0.9868    0.7610 C   0  0  0  0  0  0  0  0  0  0  0  0
   -1.8399    0.3776    2.0411 C   0  0  0  0  0  0  0  0  0  0  0  0
   -1.1130   -0.2835    2.7710 O   0  0  0  0  0  0  0  0  0  0  0  0
   -0.2939   -0.5708   -0.3677 H   0  0  0  0  0  0  0  0  0  0  0  0
   -1.8791    1.8285    0.4391 H   0  0  0  0  0  0  0  0  0  0  0  0
   -0.2688    1.3932    0.9924 H   0  0  0  0  0  0  0  0  0  0  0  0
   -3.1523    0.6476    2.3863 N   0  0  0  0  0  0  0  0  0  0  0  0
   -3.9114    0.0584    3.5091 C   0  0  2  0  0  0  0  0  0  0  0  0
   -3.4706    0.5207    4.9174 C   0  0  0  0  0  0  0  0  0  0  0  0
   -4.3187    0.8745    5.7264 O   0  0  0  0  0  0  0  0  0  0  0  0
   -3.9268   -1.4743    3.4176 C   0  0  0  0  0  0  0  0  0  0  0  0
   -3.6992    1.0755    1.6403 H   0  0  0  0  0  0  0  0  0  0  0  0
   -4.9475    0.3945    3.3973 H   0  0  0  0  0  0  0  0  0  0  0  0
   -2.9391   -1.8942    3.6296 H   0  0  0  0  0  0  0  0  0  0  0  0
   -4.6341   -1.8855    4.1447 H   0  0  0  0  0  0  0  0  0  0  0  0
   -4.2344   -1.7927    2.4169 H   0  0  0  0  0  0  0  0  0  0  0  0
   -2.1419    0.5231    5.2922 N   0  0  0  0  0  0  0  0  0  0  0  0
   -1.6690    0.8919    6.6191 C   0  0  0  0  0  0  0  0  0  0  0  0
   -1.4769    0.1745    4.5967 H   0  0  0  0  0  0  0  0  0  0  0  0
   -1.9667    1.9176    6.8604 H   0  0  0  0  0  0  0  0  0  0  0  0
   -2.0842    0.2168    7.3746 H   0  0  0  0  0  0  0  0  0  0  0  0
   -0.5774    0.8301    6.6608 H   0  0  0  0  0  0  0  0  0  0  0  0
  1  2  2  0  0  0  0
  1  3  1  0  0  0  0
  1  7  1  0  0  0  0
  3  4  1  0  0  0  0
  3  5  1  0  0  0  0
  3  6  1  0  0  0  0
  7  8  1  0  0  0  0
  7 12  1  0  0  0  0
  8  9  1  0  0  0  0
  8 11  1  0  0  0  0
  8 13  1  0  0  0  0
  9 10  2  0  0  0  0
  9 17  1  0  0  0  0
 11 14  1  0  0  0  0
 11 15  1  0  0  0  0
 11 16  1  0  0  0  0
 17 18  1  0  0  0  0
 17 21  1  0  0  0  0
 18 19  1  0  0  0  0
 18 22  1  0  0  0  0
 18 23  1  0  0  0  0
 19 20  2  0  0  0  0
 19 24  1  0  0  0  0
 24 25  1  0  0  0  0
 24 29  1  0  0  0  0
 25 26  1  0  0  0  0
 25 28  1  0  0  0  0
 25 30  1  0  0  0  0
 26 27  2  0  0  0  0
 26 34  1  0  0  0  0
 28 31  1  0  0  0  0
 28 32  1  0  0  0  0
 28 33  1  0  0  0  0
 34 35  1  0  0  0  0
 34 36  1  0  0  0  0
 35 37  1  0  0  0  0
 35 38  1  0  0  0  0
 35 39  1  0  0  0  0
M  END
$$$$

  -OEChem-05262216283D

 39 38  0     1  0  0  0  0  0999 V2000
   -3.6073   -3.4433   -2.7421 C   0  0  0  0  0  0  0  0  0  0  0  0
   -2.7013   -4.2593   -2.6908 O   0  0  0  0  0  0  0  0  0  0  0  0
   -5.0399   -3.9069   -2.9286 C   0  0  0  0  0  0  0  0  0  0  0  0
   -5.4613   -3.4665   -3.8357 H   0  0  0  0  0  0  0  0  0  0  0  0
   -5.0750   -4.9964   -3.0176 H   0  0  0  0  0  0  0  0  0  0  0  0
   -5.6446   -3.6054   -2.0698 H   0  0  0  0  0  0  0  0  0  0  0  0
   -3.3339   -2.0978   -2.6115 N   0  0  0  0  0  0  0  0  0  0  0  0
   -2.0237   -1.5544   -2.2270 C   0  0  2  0  0  0  0  0  0  0  0  0
   -2.1522   -0.4884   -1.1204 C   0  0  0  0  0  0  0  0  0  0  0  0
   -3.2245    0.0786   -0.9207 O   0  0  0  0  0  0  0  0  0  0  0  0
   -1.3747   -0.9536   -3.4755 C   0  0  0  0  0  0  0  0  0  0  0  0
   -4.1345   -1.4746   -2.5211 H   0  0  0  0  0  0  0  0  0  0  0  0
   -1.3803   -2.3511   -1.8385 H   0  0  0  0  0  0  0  0  0  0  0  0
   -1.9890   -0.1396   -3.8740 H   0  0  0  0  0  0  0  0  0  0  0  0
   -0.3823   -0.5579   -3.2392 H   0  0  0  0  0  0  0  0  0  0  0  0
   -1.2650   -1.7193   -4.2500 H   0  0  0  0  0  0  0  0  0  0  0  0
   -1.0774   -0.1702   -0.3090 N   0  0  0  0  0  0  0  0  0  0  0  0
   -1.1897    0.7847    0.8036 C   0  0  0  0  0  0  0  0  0  0  0  0
   -1.9256    0.1803    2.0044 C   0  0  0  0  0  0  0  0  0  0  0  0
   -1.2868   -0.3400    2.9090 O   0  0  0  0  0  0  0  0  0  0  0  0
   -0.2402   -0.7441   -0.3846 H   0  0  0  0  0  0  0  0  0  0  0  0
   -1.7090    1.6921    0.4793 H   0  0  0  0  0  0  0  0  0  0  0  0
   -0.1893    1.0885    1.1266 H   0  0  0  0  0  0  0  0  0  0  0  0
   -3.3003    0.3142    2.0728 N   0  0  0  0  0  0  0  0  0  0  0  0
   -4.2046   -0.2935    3.0705 C   0  0  2  0  0  0  0  0  0  0  0  0
   -4.0983    0.2824    4.5014 C   0  0  0  0  0  0  0  0  0  0  0  0
   -5.1206    0.5603    5.1151 O   0  0  0  0  0  0  0  0  0  0  0  0
   -4.0519   -1.8207    3.0870 C   0  0  0  0  0  0  0  0  0  0  0  0
   -3.7227    0.6053    1.1885 H   0  0  0  0  0  0  0  0  0  0  0  0
   -5.2256   -0.0774    2.7393 H   0  0  0  0  0  0  0  0  0  0  0  0
   -3.0904   -2.1180    3.5160 H   0  0  0  0  0  0  0  0  0  0  0  0
   -4.8471   -2.2697    3.6906 H   0  0  0  0  0  0  0  0  0  0  0  0
   -4.1200   -2.2213    2.0710 H   0  0  0  0  0  0  0  0  0  0  0  0
   -2.8761    0.4594    5.1177 N   0  0  0  0  0  0  0  0  0  0  0  0
   -2.7122    0.9292    6.4859 C   0  0  0  0  0  0  0  0  0  0  0  0
   -2.0551    0.1640    4.5827 H   0  0  0  0  0  0  0  0  0  0  0  0
   -3.1455    1.9280    6.6018 H   0  0  0  0  0  0  0  0  0  0  0  0
   -3.2052    0.2473    7.1867 H   0  0  0  0  0  0  0  0  0  0  0  0
   -1.6497    0.9808    6.7417 H   0  0  0  0  0  0  0  0  0  0  0  0
  1  2  2  0  0  0  0
  1  3  1  0  0  0  0
  1  7  1  0  0  0  0
  3  4  1  0  0  0  0
  3  5  1  0  0  0  0
  3  6  1  0  0  0  0
  7  8  1  0  0  0  0
  7 12  1  0  0  0  0
  8  9  1  0  0  0  0
  8 11  1  0  0  0  0
  8 13  1  0  0  0  0
  9 10  2  0  0  0  0
  9 17  1  0  0  0  0
 11 14  1  0  0  0  0
 11 15  1  0  0  0  0
 11 16  1  0  0  0  0
 17 18  1  0  0  0  0
 17 21  1  0  0  0  0
 18 19  1  0  0  0  0
 18 22  1  0  0  0  0
 18 23  1  0  0  0  0
 19 20  2  0  0  0  0
 19 24  1  0  0  0  0
 24 25  1  0  0  0  0
 24 29  1  0  0  0  0
 25 26  1  0  0  0  0
 25 28  1  0  0  0  0
 25 30  1  0  0  0  0
 26 27  2  0  0  0  0
 26 34  1  0  0  0  0
 28 31  1  0  0  0  0
 28 32  1  0  0  0  0
 28 33  1  0  0  0  0
 34 35  1  0  0  0  0
 34 36  1  0  0  0  0
 35 37  1  0  0  0  0
 35 38  1  0  0  0  0
 35 39  1  0  0  0  0
M  END
$$$$

  -OEChem-05262216283D

 39 38  0     1  0  0  0  0  0999 V2000
   -2.3851   -3.4310   -1.8083 C   0  0  0  0  0  0  0  0  0  0  0  0
   -1.2067   -3.4825   -1.4891 O   0  0  0  0  0  0  0  0  0  0  0  0
   -3.3113   -4.5973   -1.5211 C   0  0  0  0  0  0  0  0  0  0  0  0
   -3.7699   -4.9500   -2.4481 H   0  0  0  0  0  0  0  0  0  0  0  0
   -2.7512   -5.4217   -1.0705 H   0  0  0  0  0  0  0  0  0  0  0  0
   -4.0975   -4.2877   -0.8279 H   0  0  0  0  0  0  0  0  0  0  0  0
   -2.8806   -2.2724   -2.3720 N   0  0  0  0  0  0  0  0  0  0  0  0
   -2.0682   -1.0725   -2.6303 C   0  0  2  0  0  0  0  0  0  0  0  0
   -1.7718   -0.2798   -1.3342 C   0  0  0  0  0  0  0  0  0  0  0  0
   -2.3008    0.8025   -1.0974 O   0  0  0  0  0  0  0  0  0  0  0  0
   -2.8009   -0.2344   -3.6852 C   0  0  0  0  0  0  0  0  0  0  0  0
   -3.8785   -2.2355   -2.5611 H   0  0  0  0  0  0  0  0  0  0  0  0
   -1.1029   -1.3699   -3.0548 H   0  0  0  0  0  0  0  0  0  0  0  0
   -3.7790    0.0877   -3.3136 H   0  0  0  0  0  0  0  0  0  0  0  0
   -2.2153    0.6566   -3.9343 H   0  0  0  0  0  0  0  0  0  0  0  0
   -2.9482   -0.8163   -4.6001 H   0  0  0  0  0  0  0  0  0  0  0  0
   -0.9858   -0.8541   -0.3536 N   0  0  0  0  0  0  0  0  0  0  0  0
   -0.8127   -0.2826    0.9901 C   0  0  0  0  0  0  0  0  0  0  0  0
   -2.0504   -0.5003    1.8674 C   0  0  0  0  0  0  0  0  0  0  0  0
   -2.0289   -1.3340    2.7627 O   0  0  0  0  0  0  0  0  0  0  0  0
   -0.7272   -1.8342   -0.5128 H   0  0  0  0  0  0  0  0  0  0  0  0
   -0.6030    0.7897    0.9242 H   0  0  0  0  0  0  0  0  0  0  0  0
    0.0490   -0.7498    1.4764 H   0  0  0  0  0  0  0  0  0  0  0  0
   -3.1747    0.2716    1.6354 N   0  0  0  0  0  0  0  0  0  0  0  0
   -4.5166    0.0989    2.2279 C   0  0  2  0  0  0  0  0  0  0  0  0
   -4.6328    0.4032    3.7404 C   0  0  0  0  0  0  0  0  0  0  0  0
   -5.6159    1.0036    4.1554 O   0  0  0  0  0  0  0  0  0  0  0  0
   -5.0670   -1.2988    1.9156 C   0  0  0  0  0  0  0  0  0  0  0  0
   -3.1092    0.8445    0.7886 H   0  0  0  0  0  0  0  0  0  0  0  0
   -5.1711    0.8225    1.7311 H   0  0  0  0  0  0  0  0  0  0  0  0
   -4.5114   -2.0713    2.4555 H   0  0  0  0  0  0  0  0  0  0  0  0
   -6.1181   -1.3615    2.2143 H   0  0  0  0  0  0  0  0  0  0  0  0
   -4.9991   -1.5033    0.8433 H   0  0  0  0  0  0  0  0  0  0  0  0
   -3.6839   -0.0326    4.6435 N   0  0  0  0  0  0  0  0  0  0  0  0
   -3.7902    0.1364    6.0858 C   0  0  0  0  0  0  0  0  0  0  0  0
   -2.9330   -0.6125    4.2595 H   0  0  0  0  0  0  0  0  0  0  0  0
   -3.8577    1.1988    6.3429 H   0  0  0  0  0  0  0  0  0  0  0  0
   -4.6789   -0.3771    6.4671 H   0  0  0  0  0  0  0  0  0  0  0  0
   -2.9087   -0.2834    6.5798 H   0  0  0  0  0  0  0  0  0  0  0  0
  1  2  2  0  0  0  0
  1  3  1  0  0  0  0
  1  7  1  0  0  0  0
  3  4  1  0  0  0  0
  3  5  1  0  0  0  0
  3  6  1  0  0  0  0
  7  8  1  0  0  0  0
  7 12  1  0  0  0  0
  8  9  1  0  0  0  0
  8 11  1  0  0  0  0
  8 13  1  0  0  0  0
  9 10  2  0  0  0  0
  9 17  1  0  0  0  0
 11 14  1  0  0  0  0
 11 15  1  0  0  0  0
 11 16  1  0  0  0  0
 17 18  1  0  0  0  0
 17 21  1  0  0  0  0
 18 19  1  0  0  0  0
 18 22  1  0  0  0  0
 18 23  1  0  0  0  0
 19 20  2  0  0  0  0
 19 24  1  0  0  0  0
 24 25  1  0  0  0  0
 24 29  1  0  0  0  0
 25 26  1  0  0  0  0
 25 28  1  0  0  0  0
 25 30  1  0  0  0  0
 26 27  2  0  0  0  0
 26 34  1  0  0  0  0
 28 31  1  0  0  0  0
 28 32  1  0  0  0  0
 28 33  1  0  0  0  0
 34 35  1  0  0  0  0
 34 36  1  0  0  0  0
 35 37  1  0  0  0  0
 35 38  1  0  0  0  0
 35 39  1  0  0  0  0
M  END
$$$$

  -OEChem-05262216283D

 39 38  0     1  0  0  0  0  0999 V2000
   -2.3324   -3.4389   -1.9825 C   0  0  0  0  0  0  0  0  0  0  0  0
   -1.1748   -3.5181   -1.5996 O   0  0  0  0  0  0  0  0  0  0  0  0
   -3.2801   -4.6104   -1.8096 C   0  0  0  0  0  0  0  0  0  0  0  0
   -3.6318   -4.9531   -2.7857 H   0  0  0  0  0  0  0  0  0  0  0  0
   -2.7689   -5.4380   -1.3094 H   0  0  0  0  0  0  0  0  0  0  0  0
   -4.1391   -4.3123   -1.2033 H   0  0  0  0  0  0  0  0  0  0  0  0
   -2.7846   -2.2497   -2.5182 N   0  0  0  0  0  0  0  0  0  0  0  0
   -1.9474   -1.0491   -2.6767 C   0  0  2  0  0  0  0  0  0  0  0  0
   -1.7130   -0.3232   -1.3299 C   0  0  0  0  0  0  0  0  0  0  0  0
   -2.2614    0.7413   -1.0635 O   0  0  0  0  0  0  0  0  0  0  0  0
   -2.6170   -0.1535   -3.7266 C   0  0  0  0  0  0  0  0  0  0  0  0
   -3.7688   -2.1942   -2.7661 H   0  0  0  0  0  0  0  0  0  0  0  0
   -0.9638   -1.3372   -3.0640 H   0  0  0  0  0  0  0  0  0  0  0  0
   -3.6151    0.1518   -3.3956 H   0  0  0  0  0  0  0  0  0  0  0  0
   -2.0179    0.7477   -3.8933 H   0  0  0  0  0  0  0  0  0  0  0  0
   -2.7102   -0.6858   -4.6784 H   0  0  0  0  0  0  0  0  0  0  0  0
   -0.9842   -0.9543   -0.3400 N   0  0  0  0  0  0  0  0  0  0  0  0
   -0.8753   -0.4752    1.0477 C   0  0  0  0  0  0  0  0  0  0  0  0
   -2.1487   -0.7340    1.8639 C   0  0  0  0  0  0  0  0  0  0  0  0
   -2.1050   -1.4546    2.8517 O   0  0  0  0  0  0  0  0  0  0  0  0
   -0.7121   -1.9219   -0.5469 H   0  0  0  0  0  0  0  0  0  0  0  0
   -0.6612    0.5981    1.0584 H   0  0  0  0  0  0  0  0  0  0  0  0
   -0.0361   -0.9770    1.5387 H   0  0  0  0  0  0  0  0  0  0  0  0
   -3.3424   -0.1715    1.4478 N   0  0  0  0  0  0  0  0  0  0  0  0
   -4.7022   -0.4646    1.9438 C   0  0  2  0  0  0  0  0  0  0  0  0
   -5.0059   -0.0127    3.3914 C   0  0  0  0  0  0  0  0  0  0  0  0
   -6.1023    0.4677    3.6493 O   0  0  0  0  0  0  0  0  0  0  0  0
   -5.0279   -1.9535    1.7655 C   0  0  0  0  0  0  0  0  0  0  0  0
   -3.2605    0.3946    0.5974 H   0  0  0  0  0  0  0  0  0  0  0  0
   -5.3944    0.0972    1.3080 H   0  0  0  0  0  0  0  0  0  0  0  0
   -4.4311   -2.5708    2.4434 H   0  0  0  0  0  0  0  0  0  0  0  0
   -6.0853   -2.1342    1.9824 H   0  0  0  0  0  0  0  0  0  0  0  0
   -4.8259   -2.2676    0.7375 H   0  0  0  0  0  0  0  0  0  0  0  0
   -4.0950   -0.1931    4.4126 N   0  0  0  0  0  0  0  0  0  0  0  0
   -4.3727    0.0952    5.8122 C   0  0  0  0  0  0  0  0  0  0  0  0
   -3.2374   -0.6930    4.1631 H   0  0  0  0  0  0  0  0  0  0  0  0
   -4.6308    1.1513    5.9413 H   0  0  0  0  0  0  0  0  0  0  0  0
   -5.2049   -0.5186    6.1719 H   0  0  0  0  0  0  0  0  0  0  0  0
   -3.4916   -0.1228    6.4230 H   0  0  0  0  0  0  0  0  0  0  0  0
  1  2  2  0  0  0  0
  1  3  1  0  0  0  0
  1  7  1  0  0  0  0
  3  4  1  0  0  0  0
  3  5  1  0  0  0  0
  3  6  1  0  0  0  0
  7  8  1  0  0  0  0
  7 12  1  0  0  0  0
  8  9  1  0  0  0  0
  8 11  1  0  0  0  0
  8 13  1  0  0  0  0
  9 10  2  0  0  0  0
  9 17  1  0  0  0  0
 11 14  1  0  0  0  0
 11 15  1  0  0  0  0
 11 16  1  0  0  0  0
 17 18  1  0  0  0  0
 17 21  1  0  0  0  0
 18 19  1  0  0  0  0
 18 22  1  0  0  0  0
 18 23  1  0  0  0  0
 19 20  2  0  0  0  0
 19 24  1  0  0  0  0
 24 25  1  0  0  0  0
 24 29  1  0  0  0  0
 25 26  1  0  0  0  0
 25 28  1  0  0  0  0
 25 30  1  0  0  0  0
 26 27  2  0  0  0  0
 26 34  1  0  0  0  0
 28 31  1  0  0  0  0
 28 32  1  0  0  0  0
 28 33  1  0  0  0  0
 34 35  1  0  0  0  0
 34 36  1  0  0  0  0
 35 37  1  0  0  0  0
 35 38  1  0  0  0  0
 35 39  1  0  0  0  0
M  END
$$$$

  -OEChem-05262216283D

 39 38  0     1  0  0  0  0  0999 V2000
   -3.7594   -2.5992   -2.0208 C   0  0  0  0  0  0  0  0  0  0  0  0
   -2.8749   -3.1344   -2.6740 O   0  0  0  0  0  0  0  0  0  0  0  0
   -4.8214   -3.4459   -1.3477 C   0  0  0  0  0  0  0  0  0  0  0  0
   -5.0198   -4.3420   -1.9416 H   0  0  0  0  0  0  0  0  0  0  0  0
   -4.4800   -3.7436   -0.3531 H   0  0  0  0  0  0  0  0  0  0  0  0
   -5.7490   -2.8768   -1.2485 H   0  0  0  0  0  0  0  0  0  0  0  0
   -3.7004   -1.2421   -1.7867 N   0  0  0  0  0  0  0  0  0  0  0  0
   -2.5831   -0.3908   -2.2274 C   0  0  2  0  0  0  0  0  0  0  0  0
   -1.3731   -0.5198   -1.2723 C   0  0  0  0  0  0  0  0  0  0  0  0
   -0.9803    0.4215   -0.5914 O   0  0  0  0  0  0  0  0  0  0  0  0
   -3.1182    1.0424   -2.3281 C   0  0  0  0  0  0  0  0  0  0  0  0
   -4.2396   -0.9282   -0.9729 H   0  0  0  0  0  0  0  0  0  0  0  0
   -2.2499   -0.6968   -3.2250 H   0  0  0  0  0  0  0  0  0  0  0  0
   -3.4694    1.3920   -1.3516 H   0  0  0  0  0  0  0  0  0  0  0  0
   -2.3312    1.7186   -2.6767 H   0  0  0  0  0  0  0  0  0  0  0  0
   -3.9517    1.0881   -3.0358 H   0  0  0  0  0  0  0  0  0  0  0  0
   -0.8946   -1.7815   -0.9760 N   0  0  0  0  0  0  0  0  0  0  0  0
   -0.0440   -2.1075    0.1830 C   0  0  0  0  0  0  0  0  0  0  0  0
   -0.8346   -2.1301    1.5010 C   0  0  0  0  0  0  0  0  0  0  0  0
   -0.8022   -3.1158    2.2249 O   0  0  0  0  0  0  0  0  0  0  0  0
   -1.3460   -2.5475   -1.4856 H   0  0  0  0  0  0  0  0  0  0  0  0
    0.7665   -1.3775    0.2720 H   0  0  0  0  0  0  0  0  0  0  0  0
    0.4171   -3.0883    0.0321 H   0  0  0  0  0  0  0  0  0  0  0  0
   -1.7286   -1.1128    1.7734 N   0  0  0  0  0  0  0  0  0  0  0  0
   -2.8194   -1.1871    2.7512 C   0  0  2  0  0  0  0  0  0  0  0  0
   -4.1810   -1.5142    2.0992 C   0  0  0  0  0  0  0  0  0  0  0  0
   -4.4612   -1.1110    0.9723 O   0  0  0  0  0  0  0  0  0  0  0  0
   -2.8863    0.1626    3.4690 C   0  0  0  0  0  0  0  0  0  0  0  0
   -1.7524   -0.3620    1.0781 H   0  0  0  0  0  0  0  0  0  0  0  0
   -2.6047   -1.9626    3.4937 H   0  0  0  0  0  0  0  0  0  0  0  0
   -3.1030    0.9656    2.7565 H   0  0  0  0  0  0  0  0  0  0  0  0
   -3.6712    0.1530    4.2317 H   0  0  0  0  0  0  0  0  0  0  0  0
   -1.9313    0.3792    3.9579 H   0  0  0  0  0  0  0  0  0  0  0  0
   -5.1288   -2.2320    2.8045 N   0  0  0  0  0  0  0  0  0  0  0  0
   -6.4489   -2.5609    2.2809 C   0  0  0  0  0  0  0  0  0  0  0  0
   -4.8611   -2.5866    3.7189 H   0  0  0  0  0  0  0  0  0  0  0  0
   -6.9889   -1.6499    2.0024 H   0  0  0  0  0  0  0  0  0  0  0  0
   -6.3631   -3.2042    1.3995 H   0  0  0  0  0  0  0  0  0  0  0  0
   -7.0349   -3.0900    3.0387 H   0  0  0  0  0  0  0  0  0  0  0  0
  1  2  2  0  0  0  0
  1  3  1  0  0  0  0
  1  7  1  0  0  0  0
  3  4  1  0  0  0  0
  3  5  1  0  0  0  0
  3  6  1  0  0  0  0
  7  8  1  0  0  0  0
  7 12  1  0  0  0  0
  8  9  1  0  0  0  0
  8 11  1  0  0  0  0
  8 13  1  0  0  0  0
  9 10  2  0  0  0  0
  9 17  1  0  0  0  0
 11 14  1  0  0  0  0
 11 15  1  0  0  0  0
 11 16  1  0  0  0  0
 17 18  1  0  0  0  0
 17 21  1  0  0  0  0
 18 19  1  0  0  0  0
 18 22  1  0  0  0  0
 18 23  1  0  0  0  0
 19 20  2  0  0  0  0
 19 24  1  0  0  0  0
 24 25  1  0  0  0  0
 24 29  1  0  0  0  0
 25 26  1  0  0  0  0
 25 28  1  0  0  0  0
 25 30  1  0  0  0  0
 26 27  2  0  0  0  0
 26 34  1  0  0  0  0
 28 31  1  0  0  0  0
 28 32  1  0  0  0  0
 28 33  1  0  0  0  0
 34 35  1  0  0  0  0
 34 36  1  0  0  0  0
 35 37  1  0  0  0  0
 35 38  1  0  0  0  0
 35 39  1  0  0  0  0
M  END
$$$$

  -OEChem-05262216283D

 39 38  0     1  0  0  0  0  0999 V2000
   -3.5105   -2.9484   -2.0857 C   0  0  0  0  0  0  0  0  0  0  0  0
   -2.5476   -3.3913   -2.6952 O   0  0  0  0  0  0  0  0  0  0  0  0
   -4.4777   -3.8977   -1.4060 C   0  0  0  0  0  0  0  0  0  0  0  0
   -4.5107   -4.8498   -1.9424 H   0  0  0  0  0  0  0  0  0  0  0  0
   -4.1556   -4.0786   -0.3775 H   0  0  0  0  0  0  0  0  0  0  0  0
   -5.4815   -3.4654   -1.3931 H   0  0  0  0  0  0  0  0  0  0  0  0
   -3.6278   -1.5861   -1.9073 N   0  0  0  0  0  0  0  0  0  0  0  0
   -2.6290   -0.6126   -2.3833 C   0  0  2  0  0  0  0  0  0  0  0  0
   -1.4173   -0.5338   -1.4245 C   0  0  0  0  0  0  0  0  0  0  0  0
   -1.1455    0.4881   -0.8059 O   0  0  0  0  0  0  0  0  0  0  0  0
   -3.3499    0.7302   -2.5537 C   0  0  0  0  0  0  0  0  0  0  0  0
   -4.2334   -1.3075   -1.1283 H   0  0  0  0  0  0  0  0  0  0  0  0
   -2.2500   -0.9168   -3.3650 H   0  0  0  0  0  0  0  0  0  0  0  0
   -3.7545    1.0755   -1.5967 H   0  0  0  0  0  0  0  0  0  0  0  0
   -2.6573    1.4889   -2.9318 H   0  0  0  0  0  0  0  0  0  0  0  0
   -4.1748    0.6305   -3.2655 H   0  0  0  0  0  0  0  0  0  0  0  0
   -0.8162   -1.7111   -1.0258 N   0  0  0  0  0  0  0  0  0  0  0  0
    0.0804   -1.8618    0.1356 C   0  0  0  0  0  0  0  0  0  0  0  0
   -0.6704   -1.8436    1.4785 C   0  0  0  0  0  0  0  0  0  0  0  0
   -0.3658   -2.6325    2.3621 O   0  0  0  0  0  0  0  0  0  0  0  0
   -1.1552   -2.5540   -1.4998 H   0  0  0  0  0  0  0  0  0  0  0  0
    0.8200   -1.0556    0.1404 H   0  0  0  0  0  0  0  0  0  0  0  0
    0.6265   -2.8061    0.0524 H   0  0  0  0  0  0  0  0  0  0  0  0
   -1.8371   -1.1134    1.5943 N   0  0  0  0  0  0  0  0  0  0  0  0
   -2.8851   -1.3073    2.6005 C   0  0  2  0  0  0  0  0  0  0  0  0
   -4.1963   -1.8269    1.9720 C   0  0  0  0  0  0  0  0  0  0  0  0
   -4.5201   -1.5070    0.8298 O   0  0  0  0  0  0  0  0  0  0  0  0
   -3.1187    0.0388    3.2882 C   0  0  0  0  0  0  0  0  0  0  0  0
   -2.0324   -0.4850    0.8127 H   0  0  0  0  0  0  0  0  0  0  0  0
   -2.5600   -2.0329    3.3530 H   0  0  0  0  0  0  0  0  0  0  0  0
   -3.4310    0.7935    2.5590 H   0  0  0  0  0  0  0  0  0  0  0  0
   -3.8971   -0.0507    4.0519 H   0  0  0  0  0  0  0  0  0  0  0  0
   -2.1975    0.3809    3.7702 H   0  0  0  0  0  0  0  0  0  0  0  0
   -5.0372   -2.6479    2.6999 N   0  0  0  0  0  0  0  0  0  0  0  0
   -6.2842   -3.1940    2.1776 C   0  0  0  0  0  0  0  0  0  0  0  0
   -4.7280   -2.9293    3.6267 H   0  0  0  0  0  0  0  0  0  0  0  0
   -6.9296   -2.3920    1.8042 H   0  0  0  0  0  0  0  0  0  0  0  0
   -6.0834   -3.8946    1.3609 H   0  0  0  0  0  0  0  0  0  0  0  0
   -6.8223   -3.7278    2.9668 H   0  0  0  0  0  0  0  0  0  0  0  0
  1  2  2  0  0  0  0
  1  3  1  0  0  0  0
  1  7  1  0  0  0  0
  3  4  1  0  0  0  0
  3  5  1  0  0  0  0
  3  6  1  0  0  0  0
  7  8  1  0  0  0  0
  7 12  1  0  0  0  0
  8  9  1  0  0  0  0
  8 11  1  0  0  0  0
  8 13  1  0  0  0  0
  9 10  2  0  0  0  0
  9 17  1  0  0  0  0
 11 14  1  0  0  0  0
 11 15  1  0  0  0  0
 11 16  1  0  0  0  0
 17 18  1  0  0  0  0
 17 21  1  0  0  0  0
 18 19  1  0  0  0  0
 18 22  1  0  0  0  0
 18 23  1  0  0  0  0
 19 20  2  0  0  0  0
 19 24  1  0  0  0  0
 24 25  1  0  0  0  0
 24 29  1  0  0  0  0
 25 26  1  0  0  0  0
 25 28  1  0  0  0  0
 25 30  1  0  0  0  0
 26 27  2  0  0  0  0
 26 34  1  0  0  0  0
 28 31  1  0  0  0  0
 28 32  1  0  0  0  0
 28 33  1  0  0  0  0
 34 35  1  0  0  0  0
 34 36  1  0  0  0  0
 35 37  1  0  0  0  0
 35 38  1  0  0  0  0
 35 39  1  0  0  0  0
M  END
$$$$

  -OEChem-05262216283D

 39 38  0     1  0  0  0  0  0999 V2000
   -3.0288   -3.1326   -2.1393 C   0  0  0  0  0  0  0  0  0  0  0  0
   -1.9786   -3.3783   -2.7150 O   0  0  0  0  0  0  0  0  0  0  0  0
   -3.8248   -4.2545   -1.5007 C   0  0  0  0  0  0  0  0  0  0  0  0
   -3.6576   -5.1895   -2.0422 H   0  0  0  0  0  0  0  0  0  0  0  0
   -3.5142   -4.3841   -0.4612 H   0  0  0  0  0  0  0  0  0  0  0  0
   -4.8920   -4.0198   -1.5248 H   0  0  0  0  0  0  0  0  0  0  0  0
   -3.4149   -1.8181   -1.9805 N   0  0  0  0  0  0  0  0  0  0  0  0
   -2.6375   -0.6671   -2.4754 C   0  0  2  0  0  0  0  0  0  0  0  0
   -1.4594   -0.3285   -1.5310 C   0  0  0  0  0  0  0  0  0  0  0  0
   -1.4496    0.6934   -0.8579 O   0  0  0  0  0  0  0  0  0  0  0  0
   -3.6166    0.4991   -2.6553 C   0  0  0  0  0  0  0  0  0  0  0  0
   -4.1358   -1.6533   -1.2706 H   0  0  0  0  0  0  0  0  0  0  0  0
   -2.2117   -0.9014   -3.4571 H   0  0  0  0  0  0  0  0  0  0  0  0
   -4.0812    0.7647   -1.7000 H   0  0  0  0  0  0  0  0  0  0  0  0
   -3.0920    1.3784   -3.0422 H   0  0  0  0  0  0  0  0  0  0  0  0
   -4.4054    0.2274   -3.3633 H   0  0  0  0  0  0  0  0  0  0  0  0
   -0.5746   -1.3361   -1.1986 N   0  0  0  0  0  0  0  0  0  0  0  0
    0.2582   -1.3417    0.0202 C   0  0  0  0  0  0  0  0  0  0  0  0
   -0.5428   -1.6698    1.2924 C   0  0  0  0  0  0  0  0  0  0  0  0
    0.0172   -2.1306    2.2770 O   0  0  0  0  0  0  0  0  0  0  0  0
   -0.7326   -2.2245   -1.6853 H   0  0  0  0  0  0  0  0  0  0  0  0
    0.7352   -0.3656    0.1522 H   0  0  0  0  0  0  0  0  0  0  0  0
    1.0551   -2.0827   -0.0891 H   0  0  0  0  0  0  0  0  0  0  0  0
   -1.9225   -1.6099    1.2669 N   0  0  0  0  0  0  0  0  0  0  0  0
   -2.8319   -1.9954    2.3486 C   0  0  2  0  0  0  0  0  0  0  0  0
   -4.2488   -2.2968    1.8107 C   0  0  0  0  0  0  0  0  0  0  0  0
   -4.5773   -1.9573    0.6747 O   0  0  0  0  0  0  0  0  0  0  0  0
   -2.8820   -0.8612    3.3778 C   0  0  0  0  0  0  0  0  0  0  0  0
   -2.3254   -1.1232    0.4674 H   0  0  0  0  0  0  0  0  0  0  0  0
   -2.4559   -2.9049    2.8288 H   0  0  0  0  0  0  0  0  0  0  0  0
   -3.2322    0.0643    2.9092 H   0  0  0  0  0  0  0  0  0  0  0  0
   -3.5589   -1.1145    4.1993 H   0  0  0  0  0  0  0  0  0  0  0  0
   -1.8864   -0.6836    3.7968 H   0  0  0  0  0  0  0  0  0  0  0  0
   -5.1580   -2.9843    2.5924 N   0  0  0  0  0  0  0  0  0  0  0  0
   -6.5115   -3.3084    2.1580 C   0  0  0  0  0  0  0  0  0  0  0  0
   -4.8636   -3.2543    3.5271 H   0  0  0  0  0  0  0  0  0  0  0  0
   -7.0760   -2.3939    1.9478 H   0  0  0  0  0  0  0  0  0  0  0  0
   -6.4865   -3.9245    1.2530 H   0  0  0  0  0  0  0  0  0  0  0  0
   -7.0363   -3.8656    2.9401 H   0  0  0  0  0  0  0  0  0  0  0  0
  1  2  2  0  0  0  0
  1  3  1  0  0  0  0
  1  7  1  0  0  0  0
  3  4  1  0  0  0  0
  3  5  1  0  0  0  0
  3  6  1  0  0  0  0
  7  8  1  0  0  0  0
  7 12  1  0  0  0  0
  8  9  1  0  0  0  0
  8 11  1  0  0  0  0
  8 13  1  0  0  0  0
  9 10  2  0  0  0  0
  9 17  1  0  0  0  0
 11 14  1  0  0  0  0
 11 15  1  0  0  0  0
 11 16  1  0  0  0  0
 17 18  1  0  0  0  0
 17 21  1  0  0  0  0
 18 19  1  0  0  0  0
 18 22  1  0  0  0  0
 18 23  1  0  0  0  0
 19 20  2  0  0  0  0
 19 24  1  0  0  0  0
 24 25  1  0  0  0  0
 24 29  1  0  0  0  0
 25 26  1  0  0  0  0
 25 28  1  0  0  0  0
 25 30  1  0  0  0  0
 26 27  2  0  0  0  0
 26 34  1  0  0  0  0
 28 31  1  0  0  0  0
 28 32  1  0  0  0  0
 28 33  1  0  0  0  0
 34 35  1  0  0  0  0
 34 36  1  0  0  0  0
 35 37  1  0  0  0  0
 35 38  1  0  0  0  0
 35 39  1  0  0  0  0
M  END
$$$$

  -OEChem-05262216283D

 39 38  0     1  0  0  0  0  0999 V2000
   -2.7614   -3.1392   -2.3826 C   0  0  0  0  0  0  0  0  0  0  0  0
   -1.7021   -3.1698   -2.9914 O   0  0  0  0  0  0  0  0  0  0  0  0
   -3.4228   -4.4300   -1.9403 C   0  0  0  0  0  0  0  0  0  0  0  0
   -3.0834   -5.2606   -2.5652 H   0  0  0  0  0  0  0  0  0  0  0  0
   -3.1682   -4.6412   -0.8989 H   0  0  0  0  0  0  0  0  0  0  0  0
   -4.5086   -4.3442   -2.0293 H   0  0  0  0  0  0  0  0  0  0  0  0
   -3.2811   -1.9173   -2.0097 N   0  0  0  0  0  0  0  0  0  0  0  0
   -2.6896   -0.6156   -2.3758 C   0  0  2  0  0  0  0  0  0  0  0  0
   -1.5011   -0.2396   -1.4583 C   0  0  0  0  0  0  0  0  0  0  0  0
   -1.5307    0.7481   -0.7368 O   0  0  0  0  0  0  0  0  0  0  0  0
   -3.8212    0.4184   -2.3412 C   0  0  0  0  0  0  0  0  0  0  0  0
   -4.0271   -1.9428   -1.3075 H   0  0  0  0  0  0  0  0  0  0  0  0
   -2.3055   -0.6599   -3.4009 H   0  0  0  0  0  0  0  0  0  0  0  0
   -4.2410    0.4973   -1.3328 H   0  0  0  0  0  0  0  0  0  0  0  0
   -3.4455    1.4027   -2.6381 H   0  0  0  0  0  0  0  0  0  0  0  0
   -4.6204    0.1324   -3.0313 H   0  0  0  0  0  0  0  0  0  0  0  0
   -0.5248   -1.1908   -1.2317 N   0  0  0  0  0  0  0  0  0  0  0  0
    0.3488   -1.2080   -0.0432 C   0  0  0  0  0  0  0  0  0  0  0  0
   -0.3860   -1.6911    1.2185 C   0  0  0  0  0  0  0  0  0  0  0  0
    0.2180   -1.8540    2.2689 O   0  0  0  0  0  0  0  0  0  0  0  0
   -0.5975   -2.0377   -1.8051 H   0  0  0  0  0  0  0  0  0  0  0  0
    0.7456   -0.2054    0.1456 H   0  0  0  0  0  0  0  0  0  0  0  0
    1.2004   -1.8695   -0.2251 H   0  0  0  0  0  0  0  0  0  0  0  0
   -1.7203   -2.0426    1.1357 N   0  0  0  0  0  0  0  0  0  0  0  0
   -2.6078   -2.3387    2.2641 C   0  0  2  0  0  0  0  0  0  0  0  0
   -3.9848   -2.8312    1.7647 C   0  0  0  0  0  0  0  0  0  0  0  0
   -4.3473   -2.6084    0.6098 O   0  0  0  0  0  0  0  0  0  0  0  0
   -2.7998   -1.0710    3.1088 C   0  0  0  0  0  0  0  0  0  0  0  0
   -2.1719   -1.8047    0.2552 H   0  0  0  0  0  0  0  0  0  0  0  0
   -2.1594   -3.1254    2.8796 H   0  0  0  0  0  0  0  0  0  0  0  0
   -3.2026   -0.2596    2.4934 H   0  0  0  0  0  0  0  0  0  0  0  0
   -3.4921   -1.2594    3.9348 H   0  0  0  0  0  0  0  0  0  0  0  0
   -1.8470   -0.7412    3.5343 H   0  0  0  0  0  0  0  0  0  0  0  0
   -4.8296   -3.5219    2.6131 N   0  0  0  0  0  0  0  0  0  0  0  0
   -6.1625   -3.9739    2.2314 C   0  0  0  0  0  0  0  0  0  0  0  0
   -4.5121   -3.6782    3.5660 H   0  0  0  0  0  0  0  0  0  0  0  0
   -6.7894   -3.1225    1.9463 H   0  0  0  0  0  0  0  0  0  0  0  0
   -6.1060   -4.6691    1.3873 H   0  0  0  0  0  0  0  0  0  0  0  0
   -6.6414   -4.4886    3.0700 H   0  0  0  0  0  0  0  0  0  0  0  0
  1  2  2  0  0  0  0
  1  3  1  0  0  0  0
  1  7  1  0  0  0  0
  3  4  1  0  0  0  0
  3  5  1  0  0  0  0
  3  6  1  0  0  0  0
  7  8  1  0  0  0  0
  7 12  1  0  0  0  0
  8  9  1  0  0  0  0
  8 11  1  0  0  0  0
  8 13  1  0  0  0  0
  9 10  2  0  0  0  0
  9 17  1  0  0  0  0
 11 14  1  0  0  0  0
 11 15  1  0  0  0  0
 11 16  1  0  0  0  0
 17 18  1  0  0  0  0
 17 21  1  0  0  0  0
 18 19  1  0  0  0  0
 18 22  1  0  0  0  0
 18 23  1  0  0  0  0
 19 20  2  0  0  0  0
 19 24  1  0  0  0  0
 24 25  1  0  0  0  0
 24 29  1  0  0  0  0
 25 26  1  0  0  0  0
 25 28  1  0  0  0  0
 25 30  1  0  0  0  0
 26 27  2  0  0  0  0
 26 34  1  0  0  0  0
 28 31  1  0  0  0  0
 28 32  1  0  0  0  0
 28 33  1  0  0  0  0
 34 35  1  0  0  0  0
 34 36  1  0  0  0  0
 35 37  1  0  0  0  0
 35 38  1  0  0  0  0
 35 39  1  0  0  0  0
M  END
$$$$

  -OEChem-05262216283D

 39 38  0     1  0  0  0  0  0999 V2000
   -2.6181   -3.1119   -2.5366 C   0  0  0  0  0  0  0  0  0  0  0  0
   -1.6043   -2.9599   -3.2014 O   0  0  0  0  0  0  0  0  0  0  0  0
   -3.1021   -4.5088   -2.1987 C   0  0  0  0  0  0  0  0  0  0  0  0
   -2.7649   -5.2184   -2.9591 H   0  0  0  0  0  0  0  0  0  0  0  0
   -2.7075   -4.8145   -1.2267 H   0  0  0  0  0  0  0  0  0  0  0  0
   -4.1940   -4.5291   -2.1599 H   0  0  0  0  0  0  0  0  0  0  0  0
   -3.2359   -2.0007   -2.0015 N   0  0  0  0  0  0  0  0  0  0  0  0
   -2.8237   -0.6080   -2.2708 C   0  0  2  0  0  0  0  0  0  0  0  0
   -1.6150   -0.1742   -1.4050 C   0  0  0  0  0  0  0  0  0  0  0  0
   -1.6675    0.7927   -0.6572 O   0  0  0  0  0  0  0  0  0  0  0  0
   -4.0585    0.2752   -2.0544 C   0  0  0  0  0  0  0  0  0  0  0  0
   -3.9151   -2.1806   -1.2564 H   0  0  0  0  0  0  0  0  0  0  0  0
   -2.5205   -0.5107   -3.3189 H   0  0  0  0  0  0  0  0  0  0  0  0
   -4.3922    0.2218   -1.0129 H   0  0  0  0  0  0  0  0  0  0  0  0
   -3.8257    1.3186   -2.2902 H   0  0  0  0  0  0  0  0  0  0  0  0
   -4.8782   -0.0500   -2.7022 H   0  0  0  0  0  0  0  0  0  0  0  0
   -0.5639   -1.0595   -1.2675 N   0  0  0  0  0  0  0  0  0  0  0  0
    0.4182   -1.0237   -0.1684 C   0  0  0  0  0  0  0  0  0  0  0  0
   -0.1869   -1.5510    1.1418 C   0  0  0  0  0  0  0  0  0  0  0  0
    0.4190   -1.4513    2.1987 O   0  0  0  0  0  0  0  0  0  0  0  0
   -0.5730   -1.8596   -1.9080 H   0  0  0  0  0  0  0  0  0  0  0  0
    0.7719    0.0000   -0.0087 H   0  0  0  0  0  0  0  0  0  0  0  0
    1.2852   -1.6373   -0.4269 H   0  0  0  0  0  0  0  0  0  0  0  0
   -1.3765   -2.2535    1.0919 N   0  0  0  0  0  0  0  0  0  0  0  0
   -2.2443   -2.5449    2.2387 C   0  0  2  0  0  0  0  0  0  0  0  0
   -3.5294   -3.2616    1.7696 C   0  0  0  0  0  0  0  0  0  0  0  0
   -3.9285   -3.1284    0.6129 O   0  0  0  0  0  0  0  0  0  0  0  0
   -2.6504   -1.2417    2.9450 C   0  0  0  0  0  0  0  0  0  0  0  0
   -1.8383   -2.2236    0.1853 H   0  0  0  0  0  0  0  0  0  0  0  0
   -1.7115   -3.1949    2.9402 H   0  0  0  0  0  0  0  0  0  0  0  0
   -3.1178   -0.5521    2.2343 H   0  0  0  0  0  0  0  0  0  0  0  0
   -3.3618   -1.4464    3.7506 H   0  0  0  0  0  0  0  0  0  0  0  0
   -1.7795   -0.7466    3.3843 H   0  0  0  0  0  0  0  0  0  0  0  0
   -4.2609   -4.0360    2.6500 N   0  0  0  0  0  0  0  0  0  0  0  0
   -5.5073   -4.7025    2.2919 C   0  0  0  0  0  0  0  0  0  0  0  0
   -3.9192   -4.1119    3.6044 H   0  0  0  0  0  0  0  0  0  0  0  0
   -6.2541   -3.9708    1.9658 H   0  0  0  0  0  0  0  0  0  0  0  0
   -5.3398   -5.4205    1.4823 H   0  0  0  0  0  0  0  0  0  0  0  0
   -5.9084   -5.2428    3.1549 H   0  0  0  0  0  0  0  0  0  0  0  0
  1  2  2  0  0  0  0
  1  3  1  0  0  0  0
  1  7  1  0  0  0  0
  3  4  1  0  0  0  0
  3  5  1  0  0  0  0
  3  6  1  0  0  0  0
  7  8  1  0  0  0  0
  7 12  1  0  0  0  0
  8  9  1  0  0  0  0
  8 11  1  0  0  0  0
  8 13  1  0  0  0  0
  9 10  2  0  0  0  0
  9 17  1  0  0  0  0
 11 14  1  0  0  0  0
 11 15  1  0  0  0  0
 11 16  1  0  0  0  0
 17 18  1  0  0  0  0
 17 21  1  0  0  0  0
 18 19  1  0  0  0  0
 18 22  1  0  0  0  0
 18 23  1  0  0  0  0
 19 20  2  0  0  0  0
 19 24  1  0  0  0  0
 24 25  1  0  0  0  0
 24 29  1  0  0  0  0
 25 26  1  0  0  0  0
 25 28  1  0  0  0  0
 25 30  1  0  0  0  0
 26 27  2  0  0  0  0
 26 34  1  0  0  0  0
 28 31  1  0  0  0  0
 28 32  1  0  0  0  0
 28 33  1  0  0  0  0
 34 35  1  0  0  0  0
 34 36  1  0  0  0  0
 35 37  1  0  0  0  0
 35 38  1  0  0  0  0
 35 39  1  0  0  0  0
M  END
$$$$

  -OEChem-05262216283D

 39 38  0     1  0  0  0  0  0999 V2000
   -2.8159   -2.9326   -2.4305 C   0  0  0  0  0  0  0  0  0  0  0  0
   -1.6303   -3.0571   -2.7039 O   0  0  0  0  0  0  0  0  0  0  0  0
   -3.7007   -4.1542   -2.2758 C   0  0  0  0  0  0  0  0  0  0  0  0
   -3.0975   -5.0198   -1.9879 H   0  0  0  0  0  0  0  0  0  0  0  0
   -4.4514   -3.9832   -1.5003 H   0  0  0  0  0  0  0  0  0  0  0  0
   -4.2070   -4.3694   -3.2195 H   0  0  0  0  0  0  0  0  0  0  0  0
   -3.3402   -1.6639   -2.2827 N   0  0  0  0  0  0  0  0  0  0  0  0
   -2.6009   -0.4201   -2.5613 C   0  0  2  0  0  0  0  0  0  0  0  0
   -1.5917   -0.0556   -1.4442 C   0  0  0  0  0  0  0  0  0  0  0  0
   -1.7314    0.9355   -0.7405 O   0  0  0  0  0  0  0  0  0  0  0  0
   -3.6380    0.6832   -2.8063 C   0  0  0  0  0  0  0  0  0  0  0  0
   -4.3141   -1.5975   -1.9990 H   0  0  0  0  0  0  0  0  0  0  0  0
   -2.0240   -0.5429   -3.4844 H   0  0  0  0  0  0  0  0  0  0  0  0
   -4.2418    0.8518   -1.9087 H   0  0  0  0  0  0  0  0  0  0  0  0
   -3.1375    1.6213   -3.0669 H   0  0  0  0  0  0  0  0  0  0  0  0
   -4.3030    0.4077   -3.6306 H   0  0  0  0  0  0  0  0  0  0  0  0
   -0.5422   -0.9159   -1.1880 N   0  0  0  0  0  0  0  0  0  0  0  0
    0.3752   -0.7979   -0.0412 C   0  0  0  0  0  0  0  0  0  0  0  0
   -0.2647   -1.2416    1.2804 C   0  0  0  0  0  0  0  0  0  0  0  0
    0.2051   -0.8780    2.3495 O   0  0  0  0  0  0  0  0  0  0  0  0
   -0.5367   -1.7773   -1.7444 H   0  0  0  0  0  0  0  0  0  0  0  0
    0.7080    0.2399    0.0638 H   0  0  0  0  0  0  0  0  0  0  0  0
    1.2622   -1.4114   -0.2191 H   0  0  0  0  0  0  0  0  0  0  0  0
   -1.2451   -2.2144    1.2673 N   0  0  0  0  0  0  0  0  0  0  0  0
   -1.9531   -2.7340    2.4415 C   0  0  2  0  0  0  0  0  0  0  0  0
   -2.8174   -3.9547    2.0646 C   0  0  0  0  0  0  0  0  0  0  0  0
   -3.1896   -4.1136    0.9053 O   0  0  0  0  0  0  0  0  0  0  0  0
   -2.8527   -1.6381    3.0291 C   0  0  0  0  0  0  0  0  0  0  0  0
   -1.5941   -2.4957    0.3526 H   0  0  0  0  0  0  0  0  0  0  0  0
   -1.2209   -3.0481    3.1925 H   0  0  0  0  0  0  0  0  0  0  0  0
   -3.5676   -1.2872    2.2778 H   0  0  0  0  0  0  0  0  0  0  0  0
   -3.4093   -2.0201    3.8901 H   0  0  0  0  0  0  0  0  0  0  0  0
   -2.2549   -0.7845    3.3628 H   0  0  0  0  0  0  0  0  0  0  0  0
   -3.2020   -4.8672    3.0292 N   0  0  0  0  0  0  0  0  0  0  0  0
   -4.0252   -6.0363    2.7444 C   0  0  0  0  0  0  0  0  0  0  0  0
   -2.8739   -4.7143    3.9788 H   0  0  0  0  0  0  0  0  0  0  0  0
   -5.0034   -5.7315    2.3576 H   0  0  0  0  0  0  0  0  0  0  0  0
   -3.5370   -6.6774    2.0029 H   0  0  0  0  0  0  0  0  0  0  0  0
   -4.1813   -6.6208    3.6563 H   0  0  0  0  0  0  0  0  0  0  0  0
  1  2  2  0  0  0  0
  1  3  1  0  0  0  0
  1  7  1  0  0  0  0
  3  4  1  0  0  0  0
  3  5  1  0  0  0  0
  3  6  1  0  0  0  0
  7  8  1  0  0  0  0
  7 12  1  0  0  0  0
  8  9  1  0  0  0  0
  8 11  1  0  0  0  0
  8 13  1  0  0  0  0
  9 10  2  0  0  0  0
  9 17  1  0  0  0  0
 11 14  1  0  0  0  0
 11 15  1  0  0  0  0
 11 16  1  0  0  0  0
 17 18  1  0  0  0  0
 17 21  1  0  0  0  0
 18 19  1  0  0  0  0
 18 22  1  0  0  0  0
 18 23  1  0  0  0  0
 19 20  2  0  0  0  0
 19 24  1  0  0  0  0
 24 25  1  0  0  0  0
 24 29  1  0  0  0  0
 25 26  1  0  0  0  0
 25 28  1  0  0  0  0
 25 30  1  0  0  0  0
 26 27  2  0  0  0  0
 26 34  1  0  0  0  0
 28 31  1  0  0  0  0
 28 32  1  0  0  0  0
 28 33  1  0  0  0  0
 34 35  1  0  0  0  0
 34 36  1  0  0  0  0
 35 37  1  0  0  0  0
 35 38  1  0  0  0  0
 35 39  1  0  0  0  0
M  END
$$$$

  -OEChem-05262216283D

 39 38  0     1  0  0  0  0  0999 V2000
   -3.7884   -2.1813   -2.0730 C   0  0  0  0  0  0  0  0  0  0  0  0
   -2.8336   -2.9365   -1.9393 O   0  0  0  0  0  0  0  0  0  0  0  0
   -5.2033   -2.6996   -1.8991 C   0  0  0  0  0  0  0  0  0  0  0  0
   -5.1878   -3.7503   -1.5960 H   0  0  0  0  0  0  0  0  0  0  0  0
   -5.7248   -2.1197   -1.1336 H   0  0  0  0  0  0  0  0  0  0  0  0
   -5.7487   -2.6155   -2.8422 H   0  0  0  0  0  0  0  0  0  0  0  0
   -3.5796   -0.8501   -2.3725 N   0  0  0  0  0  0  0  0  0  0  0  0
   -2.2726   -0.2567   -2.6971 C   0  0  2  0  0  0  0  0  0  0  0  0
   -1.2907   -0.2470   -1.5007 C   0  0  0  0  0  0  0  0  0  0  0  0
   -1.1691    0.7263   -0.7706 O   0  0  0  0  0  0  0  0  0  0  0  0
   -2.5353    1.1541   -3.2376 C   0  0  0  0  0  0  0  0  0  0  0  0
   -4.3998   -0.2509   -2.4099 H   0  0  0  0  0  0  0  0  0  0  0  0
   -1.8034   -0.8389   -3.4972 H   0  0  0  0  0  0  0  0  0  0  0  0
   -3.0256    1.7736   -2.4794 H   0  0  0  0  0  0  0  0  0  0  0  0
   -1.5922    1.6343   -3.5172 H   0  0  0  0  0  0  0  0  0  0  0  0
   -3.1765    1.1116   -4.1232 H   0  0  0  0  0  0  0  0  0  0  0  0
   -0.5764   -1.3976   -1.2311 N   0  0  0  0  0  0  0  0  0  0  0  0
    0.1317   -1.6330    0.0363 C   0  0  0  0  0  0  0  0  0  0  0  0
   -0.8171   -1.9771    1.1916 C   0  0  0  0  0  0  0  0  0  0  0  0
   -0.5289   -1.6571    2.3380 O   0  0  0  0  0  0  0  0  0  0  0  0
   -0.9175   -2.2173   -1.7384 H   0  0  0  0  0  0  0  0  0  0  0  0
    0.7101   -0.7444    0.3112 H   0  0  0  0  0  0  0  0  0  0  0  0
    0.8394   -2.4568   -0.0884 H   0  0  0  0  0  0  0  0  0  0  0  0
   -1.8430   -2.8856    0.9976 N   0  0  0  0  0  0  0  0  0  0  0  0
   -2.7234   -3.3770    2.0695 C   0  0  2  0  0  0  0  0  0  0  0  0
   -2.0742   -4.5113    2.8998 C   0  0  0  0  0  0  0  0  0  0  0  0
   -2.5925   -5.6175    3.0002 O   0  0  0  0  0  0  0  0  0  0  0  0
   -4.0486   -3.7939    1.4231 C   0  0  0  0  0  0  0  0  0  0  0  0
   -2.0516   -3.1503    0.0332 H   0  0  0  0  0  0  0  0  0  0  0  0
   -2.9391   -2.5589    2.7650 H   0  0  0  0  0  0  0  0  0  0  0  0
   -3.8859   -4.5896    0.6888 H   0  0  0  0  0  0  0  0  0  0  0  0
   -4.7441   -4.1613    2.1845 H   0  0  0  0  0  0  0  0  0  0  0  0
   -4.5091   -2.9380    0.9233 H   0  0  0  0  0  0  0  0  0  0  0  0
   -0.8876   -4.2645    3.5611 N   0  0  0  0  0  0  0  0  0  0  0  0
   -0.1839   -5.2461    4.3745 C   0  0  0  0  0  0  0  0  0  0  0  0
   -0.4917   -3.3279    3.4412 H   0  0  0  0  0  0  0  0  0  0  0  0
   -0.8046   -5.5581    5.2208 H   0  0  0  0  0  0  0  0  0  0  0  0
    0.0679   -6.1284    3.7771 H   0  0  0  0  0  0  0  0  0  0  0  0
    0.7435   -4.8162    4.7650 H   0  0  0  0  0  0  0  0  0  0  0  0
  1  2  2  0  0  0  0
  1  3  1  0  0  0  0
  1  7  1  0  0  0  0
  3  4  1  0  0  0  0
  3  5  1  0  0  0  0
  3  6  1  0  0  0  0
  7  8  1  0  0  0  0
  7 12  1  0  0  0  0
  8  9  1  0  0  0  0
  8 11  1  0  0  0  0
  8 13  1  0  0  0  0
  9 10  2  0  0  0  0
  9 17  1  0  0  0  0
 11 14  1  0  0  0  0
 11 15  1  0  0  0  0
 11 16  1  0  0  0  0
 17 18  1  0  0  0  0
 17 21  1  0  0  0  0
 18 19  1  0  0  0  0
 18 22  1  0  0  0  0
 18 23  1  0  0  0  0
 19 20  2  0  0  0  0
 19 24  1  0  0  0  0
 24 25  1  0  0  0  0
 24 29  1  0  0  0  0
 25 26  1  0  0  0  0
 25 28  1  0  0  0  0
 25 30  1  0  0  0  0
 26 27  2  0  0  0  0
 26 34  1  0  0  0  0
 28 31  1  0  0  0  0
 28 32  1  0  0  0  0
 28 33  1  0  0  0  0
 34 35  1  0  0  0  0
 34 36  1  0  0  0  0
 35 37  1  0  0  0  0
 35 38  1  0  0  0  0
 35 39  1  0  0  0  0
M  END
$$$$

  -OEChem-05262216283D

 39 38  0     1  0  0  0  0  0999 V2000
   -4.6888   -2.1881   -2.8066 C   0  0  0  0  0  0  0  0  0  0  0  0
   -4.1092   -3.2608   -2.8746 O   0  0  0  0  0  0  0  0  0  0  0  0
   -6.1865   -2.1481   -2.5686 C   0  0  0  0  0  0  0  0  0  0  0  0
   -6.5923   -3.1634   -2.5438 H   0  0  0  0  0  0  0  0  0  0  0  0
   -6.3989   -1.6600   -1.6140 H   0  0  0  0  0  0  0  0  0  0  0  0
   -6.6774   -1.5928   -3.3716 H   0  0  0  0  0  0  0  0  0  0  0  0
   -3.9864   -1.0062   -2.9227 N   0  0  0  0  0  0  0  0  0  0  0  0
   -2.5196   -0.9296   -2.8684 C   0  0  2  0  0  0  0  0  0  0  0  0
   -2.0344   -0.3890   -1.5069 C   0  0  0  0  0  0  0  0  0  0  0  0
   -2.7256    0.4083   -0.8868 O   0  0  0  0  0  0  0  0  0  0  0  0
   -2.0571   -0.0164   -4.0064 C   0  0  0  0  0  0  0  0  0  0  0  0
   -4.4896   -0.1701   -2.6321 H   0  0  0  0  0  0  0  0  0  0  0  0
   -2.0745   -1.9186   -3.0180 H   0  0  0  0  0  0  0  0  0  0  0  0
   -2.4719    0.9895   -3.8846 H   0  0  0  0  0  0  0  0  0  0  0  0
   -0.9654    0.0572   -4.0189 H   0  0  0  0  0  0  0  0  0  0  0  0
   -2.3876   -0.4152   -4.9707 H   0  0  0  0  0  0  0  0  0  0  0  0
   -0.8075   -0.7685   -0.9919 N   0  0  0  0  0  0  0  0  0  0  0  0
   -0.2932   -0.3181    0.3153 C   0  0  0  0  0  0  0  0  0  0  0  0
   -0.9594   -1.0033    1.5175 C   0  0  0  0  0  0  0  0  0  0  0  0
   -1.3699   -0.3422    2.4608 O   0  0  0  0  0  0  0  0  0  0  0  0
   -0.2793   -1.4592   -1.5182 H   0  0  0  0  0  0  0  0  0  0  0  0
   -0.4385    0.7633    0.4128 H   0  0  0  0  0  0  0  0  0  0  0  0
    0.7827   -0.5045    0.3687 H   0  0  0  0  0  0  0  0  0  0  0  0
   -0.8795   -2.3763    1.6486 N   0  0  0  0  0  0  0  0  0  0  0  0
   -1.2267   -3.1274    2.8607 C   0  0  2  0  0  0  0  0  0  0  0  0
   -0.3874   -4.4176    2.9780 C   0  0  0  0  0  0  0  0  0  0  0  0
    0.2948   -4.7960    2.0306 O   0  0  0  0  0  0  0  0  0  0  0  0
   -2.7233   -3.4512    2.8151 C   0  0  0  0  0  0  0  0  0  0  0  0
   -0.3969   -2.8928    0.9153 H   0  0  0  0  0  0  0  0  0  0  0  0
   -1.0158   -2.5187    3.7464 H   0  0  0  0  0  0  0  0  0  0  0  0
   -2.9551   -4.0661    1.9395 H   0  0  0  0  0  0  0  0  0  0  0  0
   -3.0276   -3.9945    3.7145 H   0  0  0  0  0  0  0  0  0  0  0  0
   -3.3090   -2.5280    2.7564 H   0  0  0  0  0  0  0  0  0  0  0  0
   -0.3750   -5.1464    4.1532 N   0  0  0  0  0  0  0  0  0  0  0  0
    0.4055   -6.3653    4.3293 C   0  0  0  0  0  0  0  0  0  0  0  0
   -0.9363   -4.8031    4.9274 H   0  0  0  0  0  0  0  0  0  0  0  0
    0.0851   -7.1312    3.6151 H   0  0  0  0  0  0  0  0  0  0  0  0
    1.4710   -6.1642    4.1754 H   0  0  0  0  0  0  0  0  0  0  0  0
    0.2716   -6.7587    5.3414 H   0  0  0  0  0  0  0  0  0  0  0  0
  1  2  2  0  0  0  0
  1  3  1  0  0  0  0
  1  7  1  0  0  0  0
  3  4  1  0  0  0  0
  3  5  1  0  0  0  0
  3  6  1  0  0  0  0
  7  8  1  0  0  0  0
  7 12  1  0  0  0  0
  8  9  1  0  0  0  0
  8 11  1  0  0  0  0
  8 13  1  0  0  0  0
  9 10  2  0  0  0  0
  9 17  1  0  0  0  0
 11 14  1  0  0  0  0
 11 15  1  0  0  0  0
 11 16  1  0  0  0  0
 17 18  1  0  0  0  0
 17 21  1  0  0  0  0
 18 19  1  0  0  0  0
 18 22  1  0  0  0  0
 18 23  1  0  0  0  0
 19 20  2  0  0  0  0
 19 24  1  0  0  0  0
 24 25  1  0  0  0  0
 24 29  1  0  0  0  0
 25 26  1  0  0  0  0
 25 28  1  0  0  0  0
 25 30  1  0  0  0  0
 26 27  2  0  0  0  0
 26 34  1  0  0  0  0
 28 31  1  0  0  0  0
 28 32  1  0  0  0  0
 28 33  1  0  0  0  0
 34 35  1  0  0  0  0
 34 36  1  0  0  0  0
 35 37  1  0  0  0  0
 35 38  1  0  0  0  0
 35 39  1  0  0  0  0
M  END
$$$$

  -OEChem-05262216283D

 39 38  0     1  0  0  0  0  0999 V2000
   -3.1313   -2.6605   -2.0324 C   0  0  0  0  0  0  0  0  0  0  0  0
   -2.0013   -3.0750   -2.2495 O   0  0  0  0  0  0  0  0  0  0  0  0
   -4.1598   -3.5576   -1.3714 C   0  0  0  0  0  0  0  0  0  0  0  0
   -5.0124   -3.7027   -2.0392 H   0  0  0  0  0  0  0  0  0  0  0  0
   -3.7202   -4.5334   -1.1448 H   0  0  0  0  0  0  0  0  0  0  0  0
   -4.5089   -3.1032   -0.4412 H   0  0  0  0  0  0  0  0  0  0  0  0
   -3.4506   -1.3540   -2.3419 N   0  0  0  0  0  0  0  0  0  0  0  0
   -2.5014   -0.3868   -2.9153 C   0  0  2  0  0  0  0  0  0  0  0  0
   -1.4615    0.0921   -1.8744 C   0  0  0  0  0  0  0  0  0  0  0  0
   -1.5135    1.2101   -1.3813 O   0  0  0  0  0  0  0  0  0  0  0  0
   -3.3196    0.7655   -3.5101 C   0  0  0  0  0  0  0  0  0  0  0  0
   -4.3538   -1.0104   -2.0266 H   0  0  0  0  0  0  0  0  0  0  0  0
   -1.9483   -0.8591   -3.7341 H   0  0  0  0  0  0  0  0  0  0  0  0
   -3.9039    1.2678   -2.7320 H   0  0  0  0  0  0  0  0  0  0  0  0
   -2.6543    1.5024   -3.9714 H   0  0  0  0  0  0  0  0  0  0  0  0
   -4.0046    0.3913   -4.2770 H   0  0  0  0  0  0  0  0  0  0  0  0
   -0.4928   -0.7998   -1.4559 N   0  0  0  0  0  0  0  0  0  0  0  0
    0.2028   -0.6703   -0.1664 C   0  0  0  0  0  0  0  0  0  0  0  0
   -0.6784   -1.0861    1.0205 C   0  0  0  0  0  0  0  0  0  0  0  0
   -1.0670   -0.2657    1.8395 O   0  0  0  0  0  0  0  0  0  0  0  0
   -0.6424   -1.7491   -1.8113 H   0  0  0  0  0  0  0  0  0  0  0  0
    0.5256    0.3656   -0.0163 H   0  0  0  0  0  0  0  0  0  0  0  0
    1.1037   -1.2899   -0.1720 H   0  0  0  0  0  0  0  0  0  0  0  0
   -0.9182   -2.4284    1.2491 N   0  0  0  0  0  0  0  0  0  0  0  0
   -1.4417   -2.9735    2.5087 C   0  0  2  0  0  0  0  0  0  0  0  0
   -0.5930   -4.1629    3.0008 C   0  0  0  0  0  0  0  0  0  0  0  0
    0.0827   -4.8071    2.2058 O   0  0  0  0  0  0  0  0  0  0  0  0
   -2.8910   -3.4019    2.2737 C   0  0  0  0  0  0  0  0  0  0  0  0
   -0.4471   -3.0889    0.6310 H   0  0  0  0  0  0  0  0  0  0  0  0
   -1.4193   -2.2119    3.2950 H   0  0  0  0  0  0  0  0  0  0  0  0
   -2.9395   -4.1815    1.5067 H   0  0  0  0  0  0  0  0  0  0  0  0
   -3.3296   -3.7930    3.1968 H   0  0  0  0  0  0  0  0  0  0  0  0
   -3.4874   -2.5455    1.9432 H   0  0  0  0  0  0  0  0  0  0  0  0
   -0.5811   -4.5080    4.3395 N   0  0  0  0  0  0  0  0  0  0  0  0
    0.2537   -5.5735    4.8807 C   0  0  0  0  0  0  0  0  0  0  0  0
   -1.1003   -3.9162    4.9818 H   0  0  0  0  0  0  0  0  0  0  0  0
    0.0106   -6.5300    4.4060 H   0  0  0  0  0  0  0  0  0  0  0  0
    1.3132   -5.3545    4.7099 H   0  0  0  0  0  0  0  0  0  0  0  0
    0.0898   -5.6718    5.9583 H   0  0  0  0  0  0  0  0  0  0  0  0
  1  2  2  0  0  0  0
  1  3  1  0  0  0  0
  1  7  1  0  0  0  0
  3  4  1  0  0  0  0
  3  5  1  0  0  0  0
  3  6  1  0  0  0  0
  7  8  1  0  0  0  0
  7 12  1  0  0  0  0
  8  9  1  0  0  0  0
  8 11  1  0  0  0  0
  8 13  1  0  0  0  0
  9 10  2  0  0  0  0
  9 17  1  0  0  0  0
 11 14  1  0  0  0  0
 11 15  1  0  0  0  0
 11 16  1  0  0  0  0
 17 18  1  0  0  0  0
 17 21  1  0  0  0  0
 18 19  1  0  0  0  0
 18 22  1  0  0  0  0
 18 23  1  0  0  0  0
 19 20  2  0  0  0  0
 19 24  1  0  0  0  0
 24 25  1  0  0  0  0
 24 29  1  0  0  0  0
 25 26  1  0  0  0  0
 25 28  1  0  0  0  0
 25 30  1  0  0  0  0
 26 27  2  0  0  0  0
 26 34  1  0  0  0  0
 28 31  1  0  0  0  0
 28 32  1  0  0  0  0
 28 33  1  0  0  0  0
 34 35  1  0  0  0  0
 34 36  1  0  0  0  0
 35 37  1  0  0  0  0
 35 38  1  0  0  0  0
 35 39  1  0  0  0  0
M  END
$$$$

  -OEChem-05262216283D

 39 38  0     1  0  0  0  0  0999 V2000
   -3.0346   -2.7206   -1.9213 C   0  0  0  0  0  0  0  0  0  0  0  0
   -1.9076   -3.0895   -2.2202 O   0  0  0  0  0  0  0  0  0  0  0  0
   -3.9688   -3.6485   -1.1689 C   0  0  0  0  0  0  0  0  0  0  0  0
   -4.8129   -3.9222   -1.8065 H   0  0  0  0  0  0  0  0  0  0  0  0
   -3.4401   -4.5590   -0.8731 H   0  0  0  0  0  0  0  0  0  0  0  0
   -4.3458   -3.1536   -0.2708 H   0  0  0  0  0  0  0  0  0  0  0  0
   -3.4380   -1.4386   -2.2337 N   0  0  0  0  0  0  0  0  0  0  0  0
   -2.5777   -0.4422   -2.8905 C   0  0  2  0  0  0  0  0  0  0  0  0
   -1.5045    0.1182   -1.9276 C   0  0  0  0  0  0  0  0  0  0  0  0
   -1.5614    1.2623   -1.4977 O   0  0  0  0  0  0  0  0  0  0  0  0
   -3.4907    0.6497   -3.4621 C   0  0  0  0  0  0  0  0  0  0  0  0
   -4.3213   -1.1236   -1.8413 H   0  0  0  0  0  0  0  0  0  0  0  0
   -2.0504   -0.9091   -3.7292 H   0  0  0  0  0  0  0  0  0  0  0  0
   -4.0473    1.1460   -2.6602 H   0  0  0  0  0  0  0  0  0  0  0  0
   -2.8958    1.4044   -3.9867 H   0  0  0  0  0  0  0  0  0  0  0  0
   -4.2048    0.2191   -4.1707 H   0  0  0  0  0  0  0  0  0  0  0  0
   -0.4743   -0.7133   -1.5301 N   0  0  0  0  0  0  0  0  0  0  0  0
    0.2165   -0.5332   -0.2443 C   0  0  0  0  0  0  0  0  0  0  0  0
   -0.6231   -1.0091    0.9517 C   0  0  0  0  0  0  0  0  0  0  0  0
   -1.3709   -0.2527    1.5545 O   0  0  0  0  0  0  0  0  0  0  0  0
   -0.6022   -1.6785   -1.8498 H   0  0  0  0  0  0  0  0  0  0  0  0
    0.4648    0.5232   -0.0949 H   0  0  0  0  0  0  0  0  0  0  0  0
    1.1613   -1.0827   -0.2582 H   0  0  0  0  0  0  0  0  0  0  0  0
   -0.5180   -2.3195    1.3784 N   0  0  0  0  0  0  0  0  0  0  0  0
   -1.0725   -2.8278    2.6396 C   0  0  2  0  0  0  0  0  0  0  0  0
   -0.1005   -3.8067    3.3297 C   0  0  0  0  0  0  0  0  0  0  0  0
    0.7961   -4.3398    2.6851 O   0  0  0  0  0  0  0  0  0  0  0  0
   -2.4064   -3.5115    2.3330 C   0  0  0  0  0  0  0  0  0  0  0  0
    0.1852   -2.9019    0.9242 H   0  0  0  0  0  0  0  0  0  0  0  0
   -1.2453   -1.9997    3.3353 H   0  0  0  0  0  0  0  0  0  0  0  0
   -2.2609   -4.3376    1.6294 H   0  0  0  0  0  0  0  0  0  0  0  0
   -2.8547   -3.9076    3.2490 H   0  0  0  0  0  0  0  0  0  0  0  0
   -3.1023   -2.7919    1.8910 H   0  0  0  0  0  0  0  0  0  0  0  0
   -0.2200   -4.0759    4.6807 N   0  0  0  0  0  0  0  0  0  0  0  0
    0.7097   -4.9305    5.4094 C   0  0  0  0  0  0  0  0  0  0  0  0
   -0.9334   -3.5712    5.1991 H   0  0  0  0  0  0  0  0  0  0  0  0
    0.7467   -5.9287    4.9606 H   0  0  0  0  0  0  0  0  0  0  0  0
    1.7166   -4.5004    5.3949 H   0  0  0  0  0  0  0  0  0  0  0  0
    0.3921   -5.0338    6.4514 H   0  0  0  0  0  0  0  0  0  0  0  0
  1  2  2  0  0  0  0
  1  3  1  0  0  0  0
  1  7  1  0  0  0  0
  3  4  1  0  0  0  0
  3  5  1  0  0  0  0
  3  6  1  0  0  0  0
  7  8  1  0  0  0  0
  7 12  1  0  0  0  0
  8  9  1  0  0  0  0
  8 11  1  0  0  0  0
  8 13  1  0  0  0  0
  9 10  2  0  0  0  0
  9 17  1  0  0  0  0
 11 14  1  0  0  0  0
 11 15  1  0  0  0  0
 11 16  1  0  0  0  0
 17 18  1  0  0  0  0
 17 21  1  0  0  0  0
 18 19  1  0  0  0  0
 18 22  1  0  0  0  0
 18 23  1  0  0  0  0
 19 20  2  0  0  0  0
 19 24  1  0  0  0  0
 24 25  1  0  0  0  0
 24 29  1  0  0  0  0
 25 26  1  0  0  0  0
 25 28  1  0  0  0  0
 25 30  1  0  0  0  0
 26 27  2  0  0  0  0
 26 34  1  0  0  0  0
 28 31  1  0  0  0  0
 28 32  1  0  0  0  0
 28 33  1  0  0  0  0
 34 35  1  0  0  0  0
 34 36  1  0  0  0  0
 35 37  1  0  0  0  0
 35 38  1  0  0  0  0
 35 39  1  0  0  0  0
M  END
$$$$

  -OEChem-05262216283D

 39 38  0     1  0  0  0  0  0999 V2000
   -3.2670   -2.4685   -1.4068 C   0  0  0  0  0  0  0  0  0  0  0  0
   -2.4127   -3.1139   -2.0007 O   0  0  0  0  0  0  0  0  0  0  0  0
   -4.0209   -3.0839   -0.2437 C   0  0  0  0  0  0  0  0  0  0  0  0
   -3.8659   -4.1658   -0.2238 H   0  0  0  0  0  0  0  0  0  0  0  0
   -3.6651   -2.6554    0.6966 H   0  0  0  0  0  0  0  0  0  0  0  0
   -5.0908   -2.8853   -0.3430 H   0  0  0  0  0  0  0  0  0  0  0  0
   -3.4988   -1.1546   -1.7576 N   0  0  0  0  0  0  0  0  0  0  0  0
   -2.6654   -0.4253   -2.7237 C   0  0  2  0  0  0  0  0  0  0  0  0
   -1.3079   -0.0444   -2.0921 C   0  0  0  0  0  0  0  0  0  0  0  0
   -1.0745    1.0964   -1.7128 O   0  0  0  0  0  0  0  0  0  0  0  0
   -3.4657    0.7908   -3.2046 C   0  0  0  0  0  0  0  0  0  0  0  0
   -4.0118   -0.6014   -1.0753 H   0  0  0  0  0  0  0  0  0  0  0  0
   -2.4620   -1.0569   -3.5950 H   0  0  0  0  0  0  0  0  0  0  0  0
   -3.7081    1.4519   -2.3659 H   0  0  0  0  0  0  0  0  0  0  0  0
   -2.8846    1.3607   -3.9364 H   0  0  0  0  0  0  0  0  0  0  0  0
   -4.3986    0.4689   -3.6771 H   0  0  0  0  0  0  0  0  0  0  0  0
   -0.3780   -1.0424   -1.8625 N   0  0  0  0  0  0  0  0  0  0  0  0
    0.3890   -1.0421   -0.6069 C   0  0  0  0  0  0  0  0  0  0  0  0
   -0.4492   -1.5114    0.5965 C   0  0  0  0  0  0  0  0  0  0  0  0
   -1.4143   -0.8731    0.9988 O   0  0  0  0  0  0  0  0  0  0  0  0
   -0.7422   -1.9582   -2.1406 H   0  0  0  0  0  0  0  0  0  0  0  0
    0.7720   -0.0395   -0.3906 H   0  0  0  0  0  0  0  0  0  0  0  0
    1.2587   -1.6951   -0.7170 H   0  0  0  0  0  0  0  0  0  0  0  0
   -0.2348   -2.7783    1.1076 N   0  0  0  0  0  0  0  0  0  0  0  0
   -0.8541   -3.2742    2.3444 C   0  0  2  0  0  0  0  0  0  0  0  0
    0.1095   -3.1704    3.5447 C   0  0  0  0  0  0  0  0  0  0  0  0
    1.3167   -3.2966    3.3729 O   0  0  0  0  0  0  0  0  0  0  0  0
   -1.2553   -4.7318    2.1086 C   0  0  0  0  0  0  0  0  0  0  0  0
    0.6452   -3.2148    0.8420 H   0  0  0  0  0  0  0  0  0  0  0  0
   -1.7556   -2.7013    2.5823 H   0  0  0  0  0  0  0  0  0  0  0  0
   -0.3715   -5.3456    1.9058 H   0  0  0  0  0  0  0  0  0  0  0  0
   -1.7632   -5.1352    2.9898 H   0  0  0  0  0  0  0  0  0  0  0  0
   -1.9327   -4.8059    1.2530 H   0  0  0  0  0  0  0  0  0  0  0  0
   -0.3807   -2.9768    4.8230 N   0  0  0  0  0  0  0  0  0  0  0  0
    0.4782   -2.8300    5.9920 C   0  0  0  0  0  0  0  0  0  0  0  0
   -1.3757   -2.7973    4.9207 H   0  0  0  0  0  0  0  0  0  0  0  0
    1.1278   -3.7046    6.1043 H   0  0  0  0  0  0  0  0  0  0  0  0
    1.1035   -1.9360    5.8974 H   0  0  0  0  0  0  0  0  0  0  0  0
   -0.1287   -2.7351    6.8978 H   0  0  0  0  0  0  0  0  0  0  0  0
  1  2  2  0  0  0  0
  1  3  1  0  0  0  0
  1  7  1  0  0  0  0
  3  4  1  0  0  0  0
  3  5  1  0  0  0  0
  3  6  1  0  0  0  0
  7  8  1  0  0  0  0
  7 12  1  0  0  0  0
  8  9  1  0  0  0  0
  8 11  1  0  0  0  0
  8 13  1  0  0  0  0
  9 10  2  0  0  0  0
  9 17  1  0  0  0  0
 11 14  1  0  0  0  0
 11 15  1  0  0  0  0
 11 16  1  0  0  0  0
 17 18  1  0  0  0  0
 17 21  1  0  0  0  0
 18 19  1  0  0  0  0
 18 22  1  0  0  0  0
 18 23  1  0  0  0  0
 19 20  2  0  0  0  0
 19 24  1  0  0  0  0
 24 25  1  0  0  0  0
 24 29  1  0  0  0  0
 25 26  1  0  0  0  0
 25 28  1  0  0  0  0
 25 30  1  0  0  0  0
 26 27  2  0  0  0  0
 26 34  1  0  0  0  0
 28 31  1  0  0  0  0
 28 32  1  0  0  0  0
 28 33  1  0  0  0  0
 34 35  1  0  0  0  0
 34 36  1  0  0  0  0
 35 37  1  0  0  0  0
 35 38  1  0  0  0  0
 35 39  1  0  0  0  0
M  END
$$$$

  -OEChem-05262216283D

 39 38  0     1  0  0  0  0  0999 V2000
   -4.7170   -2.4341   -2.2449 C   0  0  0  0  0  0  0  0  0  0  0  0
   -4.2015   -3.4787   -2.6134 O   0  0  0  0  0  0  0  0  0  0  0  0
   -6.1092   -2.4453   -1.6423 C   0  0  0  0  0  0  0  0  0  0  0  0
   -6.0741   -2.0660   -0.6177 H   0  0  0  0  0  0  0  0  0  0  0  0
   -6.7777   -1.8155   -2.2342 H   0  0  0  0  0  0  0  0  0  0  0  0
   -6.5056   -3.4644   -1.6280 H   0  0  0  0  0  0  0  0  0  0  0  0
   -4.0375   -1.2404   -2.3687 N   0  0  0  0  0  0  0  0  0  0  0  0
   -2.6001   -1.1460   -2.6537 C   0  0  2  0  0  0  0  0  0  0  0  0
   -1.8941   -0.2699   -1.6003 C   0  0  0  0  0  0  0  0  0  0  0  0
   -2.4864    0.6852   -1.1095 O   0  0  0  0  0  0  0  0  0  0  0  0
   -2.4253   -0.5610   -4.0567 C   0  0  0  0  0  0  0  0  0  0  0  0
   -4.4488   -0.4386   -1.8919 H   0  0  0  0  0  0  0  0  0  0  0  0
   -2.1369   -2.1375   -2.6213 H   0  0  0  0  0  0  0  0  0  0  0  0
   -2.8716    0.4371   -4.1134 H   0  0  0  0  0  0  0  0  0  0  0  0
   -1.3638   -0.4830   -4.3107 H   0  0  0  0  0  0  0  0  0  0  0  0
   -2.9121   -1.2042   -4.7966 H   0  0  0  0  0  0  0  0  0  0  0  0
   -0.5927   -0.5444   -1.2139 N   0  0  0  0  0  0  0  0  0  0  0  0
   -0.0995   -0.1387    0.1147 C   0  0  0  0  0  0  0  0  0  0  0  0
   -0.6209   -1.0223    1.2638 C   0  0  0  0  0  0  0  0  0  0  0  0
   -1.8122   -1.2684    1.3914 O   0  0  0  0  0  0  0  0  0  0  0  0
   -0.2142   -1.4050   -1.5995 H   0  0  0  0  0  0  0  0  0  0  0  0
   -0.3867    0.8969    0.3244 H   0  0  0  0  0  0  0  0  0  0  0  0
    0.9932   -0.1685    0.1114 H   0  0  0  0  0  0  0  0  0  0  0  0
    0.2780   -1.7101    2.0564 N   0  0  0  0  0  0  0  0  0  0  0  0
   -0.0990   -2.5528    3.1991 C   0  0  2  0  0  0  0  0  0  0  0  0
    0.9685   -2.4936    4.3116 C   0  0  0  0  0  0  0  0  0  0  0  0
    2.0720   -2.0119    4.0762 O   0  0  0  0  0  0  0  0  0  0  0  0
   -0.2844   -3.9900    2.7026 C   0  0  0  0  0  0  0  0  0  0  0  0
    1.2573   -1.4296    2.0095 H   0  0  0  0  0  0  0  0  0  0  0  0
   -1.0404   -2.1952    3.6302 H   0  0  0  0  0  0  0  0  0  0  0  0
    0.6513   -4.3734    2.2834 H   0  0  0  0  0  0  0  0  0  0  0  0
   -0.5928   -4.6439    3.5237 H   0  0  0  0  0  0  0  0  0  0  0  0
   -1.0556   -4.0267    1.9264 H   0  0  0  0  0  0  0  0  0  0  0  0
    0.6880   -2.9628    5.5814 N   0  0  0  0  0  0  0  0  0  0  0  0
    1.6437   -2.9159    6.6813 C   0  0  0  0  0  0  0  0  0  0  0  0
   -0.2393   -3.3425    5.7500 H   0  0  0  0  0  0  0  0  0  0  0  0
    2.5182   -3.5347    6.4544 H   0  0  0  0  0  0  0  0  0  0  0  0
    1.9762   -1.8875    6.8584 H   0  0  0  0  0  0  0  0  0  0  0  0
    1.1821   -3.2917    7.5995 H   0  0  0  0  0  0  0  0  0  0  0  0
  1  2  2  0  0  0  0
  1  3  1  0  0  0  0
  1  7  1  0  0  0  0
  3  4  1  0  0  0  0
  3  5  1  0  0  0  0
  3  6  1  0  0  0  0
  7  8  1  0  0  0  0
  7 12  1  0  0  0  0
  8  9  1  0  0  0  0
  8 11  1  0  0  0  0
  8 13  1  0  0  0  0
  9 10  2  0  0  0  0
  9 17  1  0  0  0  0
 11 14  1  0  0  0  0
 11 15  1  0  0  0  0
 11 16  1  0  0  0  0
 17 18  1  0  0  0  0
 17 21  1  0  0  0  0
 18 19  1  0  0  0  0
 18 22  1  0  0  0  0
 18 23  1  0  0  0  0
 19 20  2  0  0  0  0
 19 24  1  0  0  0  0
 24 25  1  0  0  0  0
 24 29  1  0  0  0  0
 25 26  1  0  0  0  0
 25 28  1  0  0  0  0
 25 30  1  0  0  0  0
 26 27  2  0  0  0  0
 26 34  1  0  0  0  0
 28 31  1  0  0  0  0
 28 32  1  0  0  0  0
 28 33  1  0  0  0  0
 34 35  1  0  0  0  0
 34 36  1  0  0  0  0
 35 37  1  0  0  0  0
 35 38  1  0  0  0  0
 35 39  1  0  0  0  0
M  END
$$$$

  -OEChem-05262216283D

 39 38  0     1  0  0  0  0  0999 V2000
   -5.0192   -2.2479   -2.5783 C   0  0  0  0  0  0  0  0  0  0  0  0
   -4.6210   -3.2794   -3.0974 O   0  0  0  0  0  0  0  0  0  0  0  0
   -6.4795   -2.1049   -2.1924 C   0  0  0  0  0  0  0  0  0  0  0  0
   -6.9148   -1.2369   -2.6935 H   0  0  0  0  0  0  0  0  0  0  0  0
   -7.0365   -2.9985   -2.4877 H   0  0  0  0  0  0  0  0  0  0  0  0
   -6.5679   -1.9756   -1.1107 H   0  0  0  0  0  0  0  0  0  0  0  0
   -4.1424   -1.2121   -2.3365 N   0  0  0  0  0  0  0  0  0  0  0  0
   -2.6847   -1.3200   -2.4695 C   0  0  2  0  0  0  0  0  0  0  0  0
   -1.9603   -0.4272   -1.4402 C   0  0  0  0  0  0  0  0  0  0  0  0
   -2.5577    0.5018   -0.9051 O   0  0  0  0  0  0  0  0  0  0  0  0
   -2.2950   -0.9302   -3.8981 C   0  0  0  0  0  0  0  0  0  0  0  0
   -4.4889   -0.4266   -1.7859 H   0  0  0  0  0  0  0  0  0  0  0  0
   -2.3752   -2.3530   -2.2783 H   0  0  0  0  0  0  0  0  0  0  0  0
   -2.5982    0.1002   -4.1092 H   0  0  0  0  0  0  0  0  0  0  0  0
   -1.2130   -1.0117   -4.0374 H   0  0  0  0  0  0  0  0  0  0  0  0
   -2.7861   -1.5928   -4.6180 H   0  0  0  0  0  0  0  0  0  0  0  0
   -0.6309   -0.6565   -1.1237 N   0  0  0  0  0  0  0  0  0  0  0  0
   -0.0765   -0.2211    0.1719 C   0  0  0  0  0  0  0  0  0  0  0  0
   -0.4973   -1.1005    1.3666 C   0  0  0  0  0  0  0  0  0  0  0  0
   -1.5971   -1.6362    1.4068 O   0  0  0  0  0  0  0  0  0  0  0  0
   -0.2469   -1.5083   -1.5229 H   0  0  0  0  0  0  0  0  0  0  0  0
   -0.3790    0.8095    0.3844 H   0  0  0  0  0  0  0  0  0  0  0  0
    1.0146   -0.2223    0.1023 H   0  0  0  0  0  0  0  0  0  0  0  0
    0.4486   -1.4900    2.2964 N   0  0  0  0  0  0  0  0  0  0  0  0
    0.1486   -2.2859    3.4948 C   0  0  2  0  0  0  0  0  0  0  0  0
    1.0185   -1.8480    4.6915 C   0  0  0  0  0  0  0  0  0  0  0  0
    1.9927   -1.1251    4.5090 O   0  0  0  0  0  0  0  0  0  0  0  0
    0.3829   -3.7636    3.1675 C   0  0  0  0  0  0  0  0  0  0  0  0
    1.3303   -0.9775    2.3099 H   0  0  0  0  0  0  0  0  0  0  0  0
   -0.8981   -2.1423    3.7843 H   0  0  0  0  0  0  0  0  0  0  0  0
    1.4277   -3.9328    2.8879 H   0  0  0  0  0  0  0  0  0  0  0  0
    0.1470   -4.3912    4.0320 H   0  0  0  0  0  0  0  0  0  0  0  0
   -0.2560   -4.0726    2.3340 H   0  0  0  0  0  0  0  0  0  0  0  0
    0.7002   -2.2498    5.9756 N   0  0  0  0  0  0  0  0  0  0  0  0
    1.4564   -1.8399    7.1528 C   0  0  0  0  0  0  0  0  0  0  0  0
   -0.1294   -2.8236    6.0982 H   0  0  0  0  0  0  0  0  0  0  0  0
    2.4977   -2.1707    7.0745 H   0  0  0  0  0  0  0  0  0  0  0  0
    1.4394   -0.7498    7.2589 H   0  0  0  0  0  0  0  0  0  0  0  0
    1.0210   -2.2817    8.0543 H   0  0  0  0  0  0  0  0  0  0  0  0
  1  2  2  0  0  0  0
  1  3  1  0  0  0  0
  1  7  1  0  0  0  0
  3  4  1  0  0  0  0
  3  5  1  0  0  0  0
  3  6  1  0  0  0  0
  7  8  1  0  0  0  0
  7 12  1  0  0  0  0
  8  9  1  0  0  0  0
  8 11  1  0  0  0  0
  8 13  1  0  0  0  0
  9 10  2  0  0  0  0
  9 17  1  0  0  0  0
 11 14  1  0  0  0  0
 11 15  1  0  0  0  0
 11 16  1  0  0  0  0
 17 18  1  0  0  0  0
 17 21  1  0  0  0  0
 18 19  1  0  0  0  0
 18 22  1  0  0  0  0
 18 23  1  0  0  0  0
 19 20  2  0  0  0  0
 19 24  1  0  0  0  0
 24 25  1  0  0  0  0
 24 29  1  0  0  0  0
 25 26  1  0  0  0  0
 25 28  1  0  0  0  0
 25 30  1  0  0  0  0
 26 27  2  0  0  0  0
 26 34  1  0  0  0  0
 28 31  1  0  0  0  0
 28 32  1  0  0  0  0
 28 33  1  0  0  0  0
 34 35  1  0  0  0  0
 34 36  1  0  0  0  0
 35 37  1  0  0  0  0
 35 38  1  0  0  0  0
 35 39  1  0  0  0  0
M  END
$$$$

  -OEChem-05262216283D

 39 38  0     1  0  0  0  0  0999 V2000
   -4.3206   -2.9168   -2.5350 C   0  0  0  0  0  0  0  0  0  0  0  0
   -3.6692   -3.9236   -2.7676 O   0  0  0  0  0  0  0  0  0  0  0  0
   -5.8218   -3.0103   -2.3384 C   0  0  0  0  0  0  0  0  0  0  0  0
   -6.3327   -2.3698   -3.0610 H   0  0  0  0  0  0  0  0  0  0  0  0
   -6.1579   -4.0410   -2.4812 H   0  0  0  0  0  0  0  0  0  0  0  0
   -6.0857   -2.6902   -1.3273 H   0  0  0  0  0  0  0  0  0  0  0  0
   -3.6951   -1.6924   -2.4413 N   0  0  0  0  0  0  0  0  0  0  0  0
   -2.2399   -1.5162   -2.3743 C   0  0  2  0  0  0  0  0  0  0  0  0
   -1.8673   -0.3574   -1.4279 C   0  0  0  0  0  0  0  0  0  0  0  0
   -2.6643    0.5561   -1.2340 O   0  0  0  0  0  0  0  0  0  0  0  0
   -1.7135   -1.2506   -3.7866 C   0  0  0  0  0  0  0  0  0  0  0  0
   -4.2592   -0.9084   -2.1146 H   0  0  0  0  0  0  0  0  0  0  0  0
   -1.7749   -2.4259   -1.9793 H   0  0  0  0  0  0  0  0  0  0  0  0
   -2.1532   -0.3336   -4.1921 H   0  0  0  0  0  0  0  0  0  0  0  0
   -0.6249   -1.1407   -3.7758 H   0  0  0  0  0  0  0  0  0  0  0  0
   -1.9705   -2.0837   -4.4484 H   0  0  0  0  0  0  0  0  0  0  0  0
   -0.6412   -0.3432   -0.7845 N   0  0  0  0  0  0  0  0  0  0  0  0
   -0.4628    0.4063    0.4724 C   0  0  0  0  0  0  0  0  0  0  0  0
   -1.0904   -0.2698    1.7090 C   0  0  0  0  0  0  0  0  0  0  0  0
   -1.9706   -1.1067    1.5662 O   0  0  0  0  0  0  0  0  0  0  0  0
   -0.1055   -1.2010   -0.8838 H   0  0  0  0  0  0  0  0  0  0  0  0
   -0.8881    1.4105    0.3772 H   0  0  0  0  0  0  0  0  0  0  0  0
    0.6089    0.5296    0.6521 H   0  0  0  0  0  0  0  0  0  0  0  0
   -0.4935   -0.0469    2.9411 N   0  0  0  0  0  0  0  0  0  0  0  0
   -0.6281   -0.7736    4.2259 C   0  0  2  0  0  0  0  0  0  0  0  0
    0.7846   -1.1786    4.7189 C   0  0  0  0  0  0  0  0  0  0  0  0
    1.7684   -0.6001    4.2670 O   0  0  0  0  0  0  0  0  0  0  0  0
   -1.5738   -1.9899    4.2266 C   0  0  0  0  0  0  0  0  0  0  0  0
    0.3453    0.5310    2.8931 H   0  0  0  0  0  0  0  0  0  0  0  0
   -1.0302   -0.0654    4.9568 H   0  0  0  0  0  0  0  0  0  0  0  0
   -1.2212   -2.7545    3.5266 H   0  0  0  0  0  0  0  0  0  0  0  0
   -1.6396   -2.4336    5.2238 H   0  0  0  0  0  0  0  0  0  0  0  0
   -2.5854   -1.6864    3.9397 H   0  0  0  0  0  0  0  0  0  0  0  0
    0.9723   -2.1313    5.7049 N   0  0  0  0  0  0  0  0  0  0  0  0
    2.2882   -2.5512    6.1721 C   0  0  0  0  0  0  0  0  0  0  0  0
    0.1521   -2.6300    6.0368 H   0  0  0  0  0  0  0  0  0  0  0  0
    2.8709   -2.9739    5.3468 H   0  0  0  0  0  0  0  0  0  0  0  0
    2.8362   -1.7007    6.5911 H   0  0  0  0  0  0  0  0  0  0  0  0
    2.1880   -3.3136    6.9503 H   0  0  0  0  0  0  0  0  0  0  0  0
  1  2  2  0  0  0  0
  1  3  1  0  0  0  0
  1  7  1  0  0  0  0
  3  4  1  0  0  0  0
  3  5  1  0  0  0  0
  3  6  1  0  0  0  0
  7  8  1  0  0  0  0
  7 12  1  0  0  0  0
  8  9  1  0  0  0  0
  8 11  1  0  0  0  0
  8 13  1  0  0  0  0
  9 10  2  0  0  0  0
  9 17  1  0  0  0  0
 11 14  1  0  0  0  0
 11 15  1  0  0  0  0
 11 16  1  0  0  0  0
 17 18  1  0  0  0  0
 17 21  1  0  0  0  0
 18 19  1  0  0  0  0
 18 22  1  0  0  0  0
 18 23  1  0  0  0  0
 19 20  2  0  0  0  0
 19 24  1  0  0  0  0
 24 25  1  0  0  0  0
 24 29  1  0  0  0  0
 25 26  1  0  0  0  0
 25 28  1  0  0  0  0
 25 30  1  0  0  0  0
 26 27  2  0  0  0  0
 26 34  1  0  0  0  0
 28 31  1  0  0  0  0
 28 32  1  0  0  0  0
 28 33  1  0  0  0  0
 34 35  1  0  0  0  0
 34 36  1  0  0  0  0
 35 37  1  0  0  0  0
 35 38  1  0  0  0  0
 35 39  1  0  0  0  0
M  END
$$$$

  -OEChem-05262216283D

 39 38  0     1  0  0  0  0  0999 V2000
   -3.7265   -3.3840   -2.4166 C   0  0  0  0  0  0  0  0  0  0  0  0
   -2.8358   -4.1913   -2.6306 O   0  0  0  0  0  0  0  0  0  0  0  0
   -5.1796   -3.8145   -2.4896 C   0  0  0  0  0  0  0  0  0  0  0  0
   -5.7119   -3.2084   -3.2265 H   0  0  0  0  0  0  0  0  0  0  0  0
   -5.2468   -4.8658   -2.7827 H   0  0  0  0  0  0  0  0  0  0  0  0
   -5.6556   -3.6902   -1.5139 H   0  0  0  0  0  0  0  0  0  0  0  0
   -3.4157   -2.0782   -2.1023 N   0  0  0  0  0  0  0  0  0  0  0  0
   -2.0567   -1.5947   -1.8267 C   0  0  2  0  0  0  0  0  0  0  0  0
   -2.0694   -0.3993   -0.8488 C   0  0  0  0  0  0  0  0  0  0  0  0
   -3.1330    0.1141   -0.5134 O   0  0  0  0  0  0  0  0  0  0  0  0
   -1.3983   -1.2049   -3.1553 C   0  0  0  0  0  0  0  0  0  0  0  0
   -4.1817   -1.4784   -1.7971 H   0  0  0  0  0  0  0  0  0  0  0  0
   -1.4741   -2.3932   -1.3541 H   0  0  0  0  0  0  0  0  0  0  0  0
   -1.9545   -0.3933   -3.6350 H   0  0  0  0  0  0  0  0  0  0  0  0
   -0.3681   -0.8744   -2.9928 H   0  0  0  0  0  0  0  0  0  0  0  0
   -1.3791   -2.0626   -3.8355 H   0  0  0  0  0  0  0  0  0  0  0  0
   -0.8848    0.1187   -0.3516 N   0  0  0  0  0  0  0  0  0  0  0  0
   -0.8677    0.9507    0.8653 C   0  0  0  0  0  0  0  0  0  0  0  0
   -1.0490    0.1664    2.1792 C   0  0  0  0  0  0  0  0  0  0  0  0
   -1.2462   -1.0429    2.1591 O   0  0  0  0  0  0  0  0  0  0  0  0
   -0.0650   -0.4546   -0.5314 H   0  0  0  0  0  0  0  0  0  0  0  0
   -1.6530    1.7114    0.8069 H   0  0  0  0  0  0  0  0  0  0  0  0
    0.0877    1.4800    0.9119 H   0  0  0  0  0  0  0  0  0  0  0  0
   -0.7410    0.7906    3.3782 N   0  0  0  0  0  0  0  0  0  0  0  0
   -0.7493    0.1874    4.7286 C   0  0  2  0  0  0  0  0  0  0  0  0
    0.3711   -0.8477    4.9806 C   0  0  0  0  0  0  0  0  0  0  0  0
    1.1544   -0.6728    5.9046 O   0  0  0  0  0  0  0  0  0  0  0  0
   -2.1260   -0.4004    5.0708 C   0  0  0  0  0  0  0  0  0  0  0  0
   -0.5154    1.7796    3.3186 H   0  0  0  0  0  0  0  0  0  0  0  0
   -0.5702    1.0009    5.4395 H   0  0  0  0  0  0  0  0  0  0  0  0
   -2.3407   -1.2895    4.4705 H   0  0  0  0  0  0  0  0  0  0  0  0
   -2.1567   -0.6879    6.1266 H   0  0  0  0  0  0  0  0  0  0  0  0
   -2.9116    0.3395    4.8904 H   0  0  0  0  0  0  0  0  0  0  0  0
    0.5160   -1.9574    4.1733 N   0  0  0  0  0  0  0  0  0  0  0  0
    1.5633   -2.9559    4.3353 C   0  0  0  0  0  0  0  0  0  0  0  0
   -0.1288   -2.0240    3.3808 H   0  0  0  0  0  0  0  0  0  0  0  0
    2.5513   -2.4988    4.2185 H   0  0  0  0  0  0  0  0  0  0  0  0
    1.5026   -3.4158    5.3270 H   0  0  0  0  0  0  0  0  0  0  0  0
    1.4535   -3.7421    3.5824 H   0  0  0  0  0  0  0  0  0  0  0  0
  1  2  2  0  0  0  0
  1  3  1  0  0  0  0
  1  7  1  0  0  0  0
  3  4  1  0  0  0  0
  3  5  1  0  0  0  0
  3  6  1  0  0  0  0
  7  8  1  0  0  0  0
  7 12  1  0  0  0  0
  8  9  1  0  0  0  0
  8 11  1  0  0  0  0
  8 13  1  0  0  0  0
  9 10  2  0  0  0  0
  9 17  1  0  0  0  0
 11 14  1  0  0  0  0
 11 15  1  0  0  0  0
 11 16  1  0  0  0  0
 17 18  1  0  0  0  0
 17 21  1  0  0  0  0
 18 19  1  0  0  0  0
 18 22  1  0  0  0  0
 18 23  1  0  0  0  0
 19 20  2  0  0  0  0
 19 24  1  0  0  0  0
 24 25  1  0  0  0  0
 24 29  1  0  0  0  0
 25 26  1  0  0  0  0
 25 28  1  0  0  0  0
 25 30  1  0  0  0  0
 26 27  2  0  0  0  0
 26 34  1  0  0  0  0
 28 31  1  0  0  0  0
 28 32  1  0  0  0  0
 28 33  1  0  0  0  0
 34 35  1  0  0  0  0
 34 36  1  0  0  0  0
 35 37  1  0  0  0  0
 35 38  1  0  0  0  0
 35 39  1  0  0  0  0
M  END
$$$$

  -OEChem-05262216283D

 39 38  0     1  0  0  0  0  0999 V2000
   -3.6776   -3.3376   -2.6560 C   0  0  0  0  0  0  0  0  0  0  0  0
   -2.7763   -4.1329   -2.8695 O   0  0  0  0  0  0  0  0  0  0  0  0
   -5.1233   -3.7508   -2.8566 C   0  0  0  0  0  0  0  0  0  0  0  0
   -5.5909   -3.1153   -3.6125 H   0  0  0  0  0  0  0  0  0  0  0  0
   -5.1756   -4.7913   -3.1891 H   0  0  0  0  0  0  0  0  0  0  0  0
   -5.6728   -3.6527   -1.9173 H   0  0  0  0  0  0  0  0  0  0  0  0
   -3.3857   -2.0602   -2.2280 N   0  0  0  0  0  0  0  0  0  0  0  0
   -2.0431   -1.5949   -1.8570 C   0  0  2  0  0  0  0  0  0  0  0  0
   -2.1063   -0.4444   -0.8286 C   0  0  0  0  0  0  0  0  0  0  0  0
   -3.1896    0.0279   -0.4965 O   0  0  0  0  0  0  0  0  0  0  0  0
   -1.3125   -1.1472   -3.1282 C   0  0  0  0  0  0  0  0  0  0  0  0
   -4.1680   -1.4751   -1.9360 H   0  0  0  0  0  0  0  0  0  0  0  0
   -1.4869   -2.4166   -1.3922 H   0  0  0  0  0  0  0  0  0  0  0  0
   -1.8441   -0.3166   -3.6033 H   0  0  0  0  0  0  0  0  0  0  0  0
   -0.2944   -0.8224   -2.8941 H   0  0  0  0  0  0  0  0  0  0  0  0
   -1.2510   -1.9752   -3.8417 H   0  0  0  0  0  0  0  0  0  0  0  0
   -0.9458    0.0599   -0.2679 N   0  0  0  0  0  0  0  0  0  0  0  0
   -0.9608    0.8997    0.9429 C   0  0  0  0  0  0  0  0  0  0  0  0
   -0.8519    0.0954    2.2488 C   0  0  0  0  0  0  0  0  0  0  0  0
   -0.6075   -1.1052    2.2103 O   0  0  0  0  0  0  0  0  0  0  0  0
   -0.1174   -0.5109   -0.4192 H   0  0  0  0  0  0  0  0  0  0  0  0
   -1.8721    1.5047    0.9826 H   0  0  0  0  0  0  0  0  0  0  0  0
   -0.1188    1.5957    0.8977 H   0  0  0  0  0  0  0  0  0  0  0  0
   -0.8561    0.7664    3.4608 N   0  0  0  0  0  0  0  0  0  0  0  0
   -0.6925    0.1772    4.8068 C   0  0  2  0  0  0  0  0  0  0  0  0
    0.7196   -0.3806    5.0994 C   0  0  0  0  0  0  0  0  0  0  0  0
    1.3565    0.0642    6.0450 O   0  0  0  0  0  0  0  0  0  0  0  0
   -1.7692   -0.8806    5.0893 C   0  0  0  0  0  0  0  0  0  0  0  0
   -1.0155    1.7692    3.4133 H   0  0  0  0  0  0  0  0  0  0  0  0
   -0.8509    0.9870    5.5268 H   0  0  0  0  0  0  0  0  0  0  0  0
   -1.6225   -1.7744    4.4758 H   0  0  0  0  0  0  0  0  0  0  0  0
   -1.7296   -1.1809    6.1411 H   0  0  0  0  0  0  0  0  0  0  0  0
   -2.7644   -0.4761    4.8820 H   0  0  0  0  0  0  0  0  0  0  0  0
    1.2827   -1.3591    4.3052 N   0  0  0  0  0  0  0  0  0  0  0  0
    2.6277   -1.8863    4.4890 C   0  0  0  0  0  0  0  0  0  0  0  0
    0.7367   -1.6426    3.4869 H   0  0  0  0  0  0  0  0  0  0  0  0
    3.3724   -1.1029    4.3153 H   0  0  0  0  0  0  0  0  0  0  0  0
    2.7527   -2.2729    5.5058 H   0  0  0  0  0  0  0  0  0  0  0  0
    2.8118   -2.7035    3.7852 H   0  0  0  0  0  0  0  0  0  0  0  0
  1  2  2  0  0  0  0
  1  3  1  0  0  0  0
  1  7  1  0  0  0  0
  3  4  1  0  0  0  0
  3  5  1  0  0  0  0
  3  6  1  0  0  0  0
  7  8  1  0  0  0  0
  7 12  1  0  0  0  0
  8  9  1  0  0  0  0
  8 11  1  0  0  0  0
  8 13  1  0  0  0  0
  9 10  2  0  0  0  0
  9 17  1  0  0  0  0
 11 14  1  0  0  0  0
 11 15  1  0  0  0  0
 11 16  1  0  0  0  0
 17 18  1  0  0  0  0
 17 21  1  0  0  0  0
 18 19  1  0  0  0  0
 18 22  1  0  0  0  0
 18 23  1  0  0  0  0
 19 20  2  0  0  0  0
 19 24  1  0  0  0  0
 24 25  1  0  0  0  0
 24 29  1  0  0  0  0
 25 26  1  0  0  0  0
 25 28  1  0  0  0  0
 25 30  1  0  0  0  0
 26 27  2  0  0  0  0
 26 34  1  0  0  0  0
 28 31  1  0  0  0  0
 28 32  1  0  0  0  0
 28 33  1  0  0  0  0
 34 35  1  0  0  0  0
 34 36  1  0  0  0  0
 35 37  1  0  0  0  0
 35 38  1  0  0  0  0
 35 39  1  0  0  0  0
M  END
$$$$

  -OEChem-05262216283D

 39 38  0     1  0  0  0  0  0999 V2000
   -3.7162   -3.3278   -2.6427 C   0  0  0  0  0  0  0  0  0  0  0  0
   -2.8377   -4.1602   -2.8024 O   0  0  0  0  0  0  0  0  0  0  0  0
   -5.1713   -3.7040   -2.8510 C   0  0  0  0  0  0  0  0  0  0  0  0
   -5.7391   -3.5227   -1.9351 H   0  0  0  0  0  0  0  0  0  0  0  0
   -5.5986   -3.1066   -3.6602 H   0  0  0  0  0  0  0  0  0  0  0  0
   -5.2532   -4.7627   -3.1126 H   0  0  0  0  0  0  0  0  0  0  0  0
   -3.3905   -2.0424   -2.2663 N   0  0  0  0  0  0  0  0  0  0  0  0
   -2.0405   -1.6033   -1.8893 C   0  0  2  0  0  0  0  0  0  0  0  0
   -2.0879   -0.4335   -0.8824 C   0  0  0  0  0  0  0  0  0  0  0  0
   -3.1606    0.0923   -0.5997 O   0  0  0  0  0  0  0  0  0  0  0  0
   -1.2903   -1.1924   -3.1611 C   0  0  0  0  0  0  0  0  0  0  0  0
   -4.1591   -1.4206   -2.0170 H   0  0  0  0  0  0  0  0  0  0  0  0
   -1.5078   -2.4292   -1.4050 H   0  0  0  0  0  0  0  0  0  0  0  0
   -1.8060   -0.3650   -3.6589 H   0  0  0  0  0  0  0  0  0  0  0  0
   -0.2706   -0.8755   -2.9227 H   0  0  0  0  0  0  0  0  0  0  0  0
   -1.2330   -2.0357   -3.8567 H   0  0  0  0  0  0  0  0  0  0  0  0
   -0.9308    0.0256   -0.2772 N   0  0  0  0  0  0  0  0  0  0  0  0
   -0.9601    0.9127    0.8992 C   0  0  0  0  0  0  0  0  0  0  0  0
   -0.9686    0.1474    2.2319 C   0  0  0  0  0  0  0  0  0  0  0  0
   -0.5455   -1.0023    2.2709 O   0  0  0  0  0  0  0  0  0  0  0  0
   -0.1240   -0.5883   -0.3686 H   0  0  0  0  0  0  0  0  0  0  0  0
   -1.8341    1.5707    0.8649 H   0  0  0  0  0  0  0  0  0  0  0  0
   -0.0771    1.5574    0.8804 H   0  0  0  0  0  0  0  0  0  0  0  0
   -1.3075    0.8087    3.4014 N   0  0  0  0  0  0  0  0  0  0  0  0
   -1.3431    0.2446    4.7681 C   0  0  2  0  0  0  0  0  0  0  0  0
    0.0432   -0.0910    5.3652 C   0  0  0  0  0  0  0  0  0  0  0  0
    0.3552    0.3680    6.4557 O   0  0  0  0  0  0  0  0  0  0  0  0
   -2.2829   -0.9674    4.8496 C   0  0  0  0  0  0  0  0  0  0  0  0
   -1.6214    1.7692    3.2918 H   0  0  0  0  0  0  0  0  0  0  0  0
   -1.7696    1.0171    5.4167 H   0  0  0  0  0  0  0  0  0  0  0  0
   -1.8735   -1.8269    4.3108 H   0  0  0  0  0  0  0  0  0  0  0  0
   -2.4257   -1.2595    5.8949 H   0  0  0  0  0  0  0  0  0  0  0  0
   -3.2600   -0.7223    4.4224 H   0  0  0  0  0  0  0  0  0  0  0  0
    0.9434   -0.8861    4.6849 N   0  0  0  0  0  0  0  0  0  0  0  0
    2.2710   -1.2256    5.1775 C   0  0  0  0  0  0  0  0  0  0  0  0
    0.6397   -1.2299    3.7700 H   0  0  0  0  0  0  0  0  0  0  0  0
    2.8568   -0.3181    5.3569 H   0  0  0  0  0  0  0  0  0  0  0  0
    2.2004   -1.7907    6.1126 H   0  0  0  0  0  0  0  0  0  0  0  0
    2.7997   -1.8387    4.4415 H   0  0  0  0  0  0  0  0  0  0  0  0
  1  2  2  0  0  0  0
  1  3  1  0  0  0  0
  1  7  1  0  0  0  0
  3  4  1  0  0  0  0
  3  5  1  0  0  0  0
  3  6  1  0  0  0  0
  7  8  1  0  0  0  0
  7 12  1  0  0  0  0
  8  9  1  0  0  0  0
  8 11  1  0  0  0  0
  8 13  1  0  0  0  0
  9 10  2  0  0  0  0
  9 17  1  0  0  0  0
 11 14  1  0  0  0  0
 11 15  1  0  0  0  0
 11 16  1  0  0  0  0
 17 18  1  0  0  0  0
 17 21  1  0  0  0  0
 18 19  1  0  0  0  0
 18 22  1  0  0  0  0
 18 23  1  0  0  0  0
 19 20  2  0  0  0  0
 19 24  1  0  0  0  0
 24 25  1  0  0  0  0
 24 29  1  0  0  0  0
 25 26  1  0  0  0  0
 25 28  1  0  0  0  0
 25 30  1  0  0  0  0
 26 27  2  0  0  0  0
 26 34  1  0  0  0  0
 28 31  1  0  0  0  0
 28 32  1  0  0  0  0
 28 33  1  0  0  0  0
 34 35  1  0  0  0  0
 34 36  1  0  0  0  0
 35 37  1  0  0  0  0
 35 38  1  0  0  0  0
 35 39  1  0  0  0  0
M  END
$$$$

  -OEChem-05262216283D

 39 38  0     1  0  0  0  0  0999 V2000
   -3.6266   -3.2916   -2.7949 C   0  0  0  0  0  0  0  0  0  0  0  0
   -2.6842   -4.0426   -2.9891 O   0  0  0  0  0  0  0  0  0  0  0  0
   -5.0455   -3.7691   -3.0394 C   0  0  0  0  0  0  0  0  0  0  0  0
   -5.5390   -3.1176   -3.7646 H   0  0  0  0  0  0  0  0  0  0  0  0
   -5.0377   -4.7902   -3.4311 H   0  0  0  0  0  0  0  0  0  0  0  0
   -5.6095   -3.7549   -2.1037 H   0  0  0  0  0  0  0  0  0  0  0  0
   -3.4046   -2.0081   -2.3437 N   0  0  0  0  0  0  0  0  0  0  0  0
   -2.0947   -1.4909   -1.9257 C   0  0  2  0  0  0  0  0  0  0  0  0
   -2.2364   -0.3831   -0.8589 C   0  0  0  0  0  0  0  0  0  0  0  0
   -3.3461    0.0456   -0.5566 O   0  0  0  0  0  0  0  0  0  0  0  0
   -1.3610   -0.9603   -3.1626 C   0  0  0  0  0  0  0  0  0  0  0  0
   -4.2208   -1.4617   -2.0703 H   0  0  0  0  0  0  0  0  0  0  0  0
   -1.5075   -2.3008   -1.4787 H   0  0  0  0  0  0  0  0  0  0  0  0
   -1.9265   -0.1438   -3.6229 H   0  0  0  0  0  0  0  0  0  0  0  0
   -0.3684   -0.5887   -2.8916 H   0  0  0  0  0  0  0  0  0  0  0  0
   -1.2370   -1.7581   -3.9019 H   0  0  0  0  0  0  0  0  0  0  0  0
   -1.1207    0.1234   -0.2163 N   0  0  0  0  0  0  0  0  0  0  0  0
   -1.2132    0.9773    0.9796 C   0  0  0  0  0  0  0  0  0  0  0  0
   -1.2030    0.1702    2.2853 C   0  0  0  0  0  0  0  0  0  0  0  0
   -0.5289   -0.8511    2.3513 O   0  0  0  0  0  0  0  0  0  0  0  0
   -0.2664   -0.4182   -0.3305 H   0  0  0  0  0  0  0  0  0  0  0  0
   -2.1185    1.5913    0.9452 H   0  0  0  0  0  0  0  0  0  0  0  0
   -0.3640    1.6659    0.9969 H   0  0  0  0  0  0  0  0  0  0  0  0
   -1.8706    0.6493    3.4004 N   0  0  0  0  0  0  0  0  0  0  0  0
   -1.9562    0.0112    4.7314 C   0  0  2  0  0  0  0  0  0  0  0  0
   -0.6273   -0.0245    5.5216 C   0  0  0  0  0  0  0  0  0  0  0  0
   -0.5978    0.4042    6.6675 O   0  0  0  0  0  0  0  0  0  0  0  0
   -2.5728   -1.3915    4.6374 C   0  0  0  0  0  0  0  0  0  0  0  0
   -2.4074    1.5015    3.2624 H   0  0  0  0  0  0  0  0  0  0  0  0
   -2.6446    0.6183    5.3286 H   0  0  0  0  0  0  0  0  0  0  0  0
   -1.8893   -2.0953    4.1534 H   0  0  0  0  0  0  0  0  0  0  0  0
   -2.7953   -1.7693    5.6404 H   0  0  0  0  0  0  0  0  0  0  0  0
   -3.5046   -1.3609    4.0646 H   0  0  0  0  0  0  0  0  0  0  0  0
    0.5296   -0.5246    4.9584 N   0  0  0  0  0  0  0  0  0  0  0  0
    1.8110   -0.5976    5.6459 C   0  0  0  0  0  0  0  0  0  0  0  0
    0.4488   -0.8781    4.0013 H   0  0  0  0  0  0  0  0  0  0  0  0
    2.1217    0.3960    5.9850 H   0  0  0  0  0  0  0  0  0  0  0  0
    1.7426   -1.2616    6.5137 H   0  0  0  0  0  0  0  0  0  0  0  0
    2.5784   -0.9875    4.9705 H   0  0  0  0  0  0  0  0  0  0  0  0
  1  2  2  0  0  0  0
  1  3  1  0  0  0  0
  1  7  1  0  0  0  0
  3  4  1  0  0  0  0
  3  5  1  0  0  0  0
  3  6  1  0  0  0  0
  7  8  1  0  0  0  0
  7 12  1  0  0  0  0
  8  9  1  0  0  0  0
  8 11  1  0  0  0  0
  8 13  1  0  0  0  0
  9 10  2  0  0  0  0
  9 17  1  0  0  0  0
 11 14  1  0  0  0  0
 11 15  1  0  0  0  0
 11 16  1  0  0  0  0
 17 18  1  0  0  0  0
 17 21  1  0  0  0  0
 18 19  1  0  0  0  0
 18 22  1  0  0  0  0
 18 23  1  0  0  0  0
 19 20  2  0  0  0  0
 19 24  1  0  0  0  0
 24 25  1  0  0  0  0
 24 29  1  0  0  0  0
 25 26  1  0  0  0  0
 25 28  1  0  0  0  0
 25 30  1  0  0  0  0
 26 27  2  0  0  0  0
 26 34  1  0  0  0  0
 28 31  1  0  0  0  0
 28 32  1  0  0  0  0
 28 33  1  0  0  0  0
 34 35  1  0  0  0  0
 34 36  1  0  0  0  0
 35 37  1  0  0  0  0
 35 38  1  0  0  0  0
 35 39  1  0  0  0  0
M  END
$$$$

  -OEChem-05262216283D

 39 38  0     1  0  0  0  0  0999 V2000
   -4.9433   -2.3353   -2.2519 C   0  0  0  0  0  0  0  0  0  0  0  0
   -4.6859   -3.5070   -2.4782 O   0  0  0  0  0  0  0  0  0  0  0  0
   -6.3853   -1.8856   -2.1078 C   0  0  0  0  0  0  0  0  0  0  0  0
   -6.6392   -1.1865   -2.9085 H   0  0  0  0  0  0  0  0  0  0  0  0
   -7.0567   -2.7472   -2.1648 H   0  0  0  0  0  0  0  0  0  0  0  0
   -6.5285   -1.3918   -1.1435 H   0  0  0  0  0  0  0  0  0  0  0  0
   -3.9238   -1.4172   -2.1178 N   0  0  0  0  0  0  0  0  0  0  0  0
   -2.4968   -1.7623   -2.0724 C   0  0  2  0  0  0  0  0  0  0  0  0
   -1.7049   -0.7699   -1.1942 C   0  0  0  0  0  0  0  0  0  0  0  0
   -2.2544    0.2346   -0.7531 O   0  0  0  0  0  0  0  0  0  0  0  0
   -1.9536   -1.7727   -3.5046 C   0  0  0  0  0  0  0  0  0  0  0  0
   -4.1770   -0.4839   -1.7944 H   0  0  0  0  0  0  0  0  0  0  0  0
   -2.3720   -2.7574   -1.6315 H   0  0  0  0  0  0  0  0  0  0  0  0
   -2.0565   -0.7826   -3.9599 H   0  0  0  0  0  0  0  0  0  0  0  0
   -0.8962   -2.0535   -3.5134 H   0  0  0  0  0  0  0  0  0  0  0  0
   -2.5054   -2.4959   -4.1136 H   0  0  0  0  0  0  0  0  0  0  0  0
   -0.3860   -1.0198   -0.8602 N   0  0  0  0  0  0  0  0  0  0  0  0
    0.3160   -0.2759    0.1986 C   0  0  0  0  0  0  0  0  0  0  0  0
    0.1647   -0.9482    1.5688 C   0  0  0  0  0  0  0  0  0  0  0  0
    0.3090   -2.1612    1.6634 O   0  0  0  0  0  0  0  0  0  0  0  0
   -0.0510   -1.9604   -1.0590 H   0  0  0  0  0  0  0  0  0  0  0  0
   -0.0488    0.7544    0.2585 H   0  0  0  0  0  0  0  0  0  0  0  0
    1.3815   -0.2205   -0.0400 H   0  0  0  0  0  0  0  0  0  0  0  0
   -0.1336   -0.2048    2.6933 N   0  0  0  0  0  0  0  0  0  0  0  0
   -0.4532   -0.7859    4.0034 C   0  0  2  0  0  0  0  0  0  0  0  0
   -1.4756    0.0778    4.7707 C   0  0  0  0  0  0  0  0  0  0  0  0
   -1.6793    1.2377    4.4293 O   0  0  0  0  0  0  0  0  0  0  0  0
    0.8458   -0.9199    4.8035 C   0  0  0  0  0  0  0  0  0  0  0  0
   -0.4218    0.7636    2.5472 H   0  0  0  0  0  0  0  0  0  0  0  0
   -0.8993   -1.7771    3.8708 H   0  0  0  0  0  0  0  0  0  0  0  0
    1.3055    0.0623    4.9538 H   0  0  0  0  0  0  0  0  0  0  0  0
    0.6499   -1.3670    5.7827 H   0  0  0  0  0  0  0  0  0  0  0  0
    1.5557   -1.5595    4.2692 H   0  0  0  0  0  0  0  0  0  0  0  0
   -2.1733   -0.4482    5.8425 N   0  0  0  0  0  0  0  0  0  0  0  0
   -3.1697    0.3050    6.5942 C   0  0  0  0  0  0  0  0  0  0  0  0
   -2.0003   -1.4189    6.0872 H   0  0  0  0  0  0  0  0  0  0  0  0
   -2.7124    1.1826    7.0630 H   0  0  0  0  0  0  0  0  0  0  0  0
   -3.9770    0.6387    5.9339 H   0  0  0  0  0  0  0  0  0  0  0  0
   -3.6038   -0.3205    7.3800 H   0  0  0  0  0  0  0  0  0  0  0  0
  1  2  2  0  0  0  0
  1  3  1  0  0  0  0
  1  7  1  0  0  0  0
  3  4  1  0  0  0  0
  3  5  1  0  0  0  0
  3  6  1  0  0  0  0
  7  8  1  0  0  0  0
  7 12  1  0  0  0  0
  8  9  1  0  0  0  0
  8 11  1  0  0  0  0
  8 13  1  0  0  0  0
  9 10  2  0  0  0  0
  9 17  1  0  0  0  0
 11 14  1  0  0  0  0
 11 15  1  0  0  0  0
 11 16  1  0  0  0  0
 17 18  1  0  0  0  0
 17 21  1  0  0  0  0
 18 19  1  0  0  0  0
 18 22  1  0  0  0  0
 18 23  1  0  0  0  0
 19 20  2  0  0  0  0
 19 24  1  0  0  0  0
 24 25  1  0  0  0  0
 24 29  1  0  0  0  0
 25 26  1  0  0  0  0
 25 28  1  0  0  0  0
 25 30  1  0  0  0  0
 26 27  2  0  0  0  0
 26 34  1  0  0  0  0
 28 31  1  0  0  0  0
 28 32  1  0  0  0  0
 28 33  1  0  0  0  0
 34 35  1  0  0  0  0
 34 36  1  0  0  0  0
 35 37  1  0  0  0  0
 35 38  1  0  0  0  0
 35 39  1  0  0  0  0
M  END
$$$$

  -OEChem-05262216283D

 39 38  0     1  0  0  0  0  0999 V2000
   -4.9002   -2.4071   -2.4102 C   0  0  0  0  0  0  0  0  0  0  0  0
   -4.5677   -3.5468   -2.6947 O   0  0  0  0  0  0  0  0  0  0  0  0
   -6.3695   -2.0496   -2.2894 C   0  0  0  0  0  0  0  0  0  0  0  0
   -6.6254   -1.2755   -3.0167 H   0  0  0  0  0  0  0  0  0  0  0  0
   -6.9886   -2.9309   -2.4792 H   0  0  0  0  0  0  0  0  0  0  0  0
   -6.5821   -1.6795   -1.2835 H   0  0  0  0  0  0  0  0  0  0  0  0
   -3.9401   -1.4429   -2.1895 N   0  0  0  0  0  0  0  0  0  0  0  0
   -2.4976   -1.7107   -2.1221 C   0  0  2  0  0  0  0  0  0  0  0  0
   -1.7824   -0.7240   -1.1743 C   0  0  0  0  0  0  0  0  0  0  0  0
   -2.3893    0.2344   -0.7072 O   0  0  0  0  0  0  0  0  0  0  0  0
   -1.9177   -1.6175   -3.5374 C   0  0  0  0  0  0  0  0  0  0  0  0
   -4.2553   -0.5438   -1.8260 H   0  0  0  0  0  0  0  0  0  0  0  0
   -2.3300   -2.7193   -1.7289 H   0  0  0  0  0  0  0  0  0  0  0  0
   -2.0502   -0.6080   -3.9389 H   0  0  0  0  0  0  0  0  0  0  0  0
   -0.8495   -1.8539   -3.5325 H   0  0  0  0  0  0  0  0  0  0  0  0
   -2.4222   -2.3256   -4.2026 H   0  0  0  0  0  0  0  0  0  0  0  0
   -0.4642   -0.9270   -0.8094 N   0  0  0  0  0  0  0  0  0  0  0  0
    0.1967   -0.1635    0.2607 C   0  0  0  0  0  0  0  0  0  0  0  0
    0.0404   -0.8404    1.6270 C   0  0  0  0  0  0  0  0  0  0  0  0
    0.4486   -1.9853    1.7763 O   0  0  0  0  0  0  0  0  0  0  0  0
   -0.0639   -1.8306   -1.0530 H   0  0  0  0  0  0  0  0  0  0  0  0
   -0.1969    0.8566    0.3130 H   0  0  0  0  0  0  0  0  0  0  0  0
    1.2643   -0.0783    0.0404 H   0  0  0  0  0  0  0  0  0  0  0  0
   -0.5866   -0.1953    2.6746 N   0  0  0  0  0  0  0  0  0  0  0  0
   -0.8823   -0.8157    3.9725 C   0  0  2  0  0  0  0  0  0  0  0  0
   -2.0806   -0.1389    4.6708 C   0  0  0  0  0  0  0  0  0  0  0  0
   -2.4745    0.9592    4.2945 O   0  0  0  0  0  0  0  0  0  0  0  0
    0.3670   -0.7239    4.8553 C   0  0  0  0  0  0  0  0  0  0  0  0
   -1.0702    0.6794    2.4649 H   0  0  0  0  0  0  0  0  0  0  0  0
   -1.1426   -1.8686    3.8224 H   0  0  0  0  0  0  0  0  0  0  0  0
    0.6435    0.3228    5.0180 H   0  0  0  0  0  0  0  0  0  0  0  0
    0.1869   -1.1924    5.8274 H   0  0  0  0  0  0  0  0  0  0  0  0
    1.2084   -1.2364    4.3784 H   0  0  0  0  0  0  0  0  0  0  0  0
   -2.7187   -0.7633    5.7270 N   0  0  0  0  0  0  0  0  0  0  0  0
   -3.8477   -0.1777    6.4398 C   0  0  0  0  0  0  0  0  0  0  0  0
   -2.3829   -1.6811    6.0041 H   0  0  0  0  0  0  0  0  0  0  0  0
   -3.5611    0.7779    6.8913 H   0  0  0  0  0  0  0  0  0  0  0  0
   -4.6865   -0.0073    5.7570 H   0  0  0  0  0  0  0  0  0  0  0  0
   -4.1824   -0.8492    7.2364 H   0  0  0  0  0  0  0  0  0  0  0  0
  1  2  2  0  0  0  0
  1  3  1  0  0  0  0
  1  7  1  0  0  0  0
  3  4  1  0  0  0  0
  3  5  1  0  0  0  0
  3  6  1  0  0  0  0
  7  8  1  0  0  0  0
  7 12  1  0  0  0  0
  8  9  1  0  0  0  0
  8 11  1  0  0  0  0
  8 13  1  0  0  0  0
  9 10  2  0  0  0  0
  9 17  1  0  0  0  0
 11 14  1  0  0  0  0
 11 15  1  0  0  0  0
 11 16  1  0  0  0  0
 17 18  1  0  0  0  0
 17 21  1  0  0  0  0
 18 19  1  0  0  0  0
 18 22  1  0  0  0  0
 18 23  1  0  0  0  0
 19 20  2  0  0  0  0
 19 24  1  0  0  0  0
 24 25  1  0  0  0  0
 24 29  1  0  0  0  0
 25 26  1  0  0  0  0
 25 28  1  0  0  0  0
 25 30  1  0  0  0  0
 26 27  2  0  0  0  0
 26 34  1  0  0  0  0
 28 31  1  0  0  0  0
 28 32  1  0  0  0  0
 28 33  1  0  0  0  0
 34 35  1  0  0  0  0
 34 36  1  0  0  0  0
 35 37  1  0  0  0  0
 35 38  1  0  0  0  0
 35 39  1  0  0  0  0
M  END
$$$$

  -OEChem-05262216283D

 39 38  0     1  0  0  0  0  0999 V2000
   -3.6197   -3.3178   -3.1762 C   0  0  0  0  0  0  0  0  0  0  0  0
   -2.6653   -4.0574   -3.3546 O   0  0  0  0  0  0  0  0  0  0  0  0
   -5.0176   -3.7731   -3.5508 C   0  0  0  0  0  0  0  0  0  0  0  0
   -5.4508   -3.0861   -4.2817 H   0  0  0  0  0  0  0  0  0  0  0  0
   -4.9826   -4.7752   -3.9876 H   0  0  0  0  0  0  0  0  0  0  0  0
   -5.6532   -3.7983   -2.6624 H   0  0  0  0  0  0  0  0  0  0  0  0
   -3.4270   -2.0675   -2.6277 N   0  0  0  0  0  0  0  0  0  0  0  0
   -2.1392   -1.5750   -2.1203 C   0  0  2  0  0  0  0  0  0  0  0  0
   -2.3274   -0.5593   -0.9735 C   0  0  0  0  0  0  0  0  0  0  0  0
   -3.4465   -0.1435   -0.6856 O   0  0  0  0  0  0  0  0  0  0  0  0
   -1.3709   -0.9404   -3.2845 C   0  0  0  0  0  0  0  0  0  0  0  0
   -4.2572   -1.5283   -2.3845 H   0  0  0  0  0  0  0  0  0  0  0  0
   -1.5580   -2.4130   -1.7198 H   0  0  0  0  0  0  0  0  0  0  0  0
   -1.9336   -0.0988   -3.7010 H   0  0  0  0  0  0  0  0  0  0  0  0
   -0.3944   -0.5767   -2.9510 H   0  0  0  0  0  0  0  0  0  0  0  0
   -1.2087   -1.6777   -4.0775 H   0  0  0  0  0  0  0  0  0  0  0  0
   -1.2517   -0.1424   -0.2106 N   0  0  0  0  0  0  0  0  0  0  0  0
   -1.3913    0.7614    0.9406 C   0  0  0  0  0  0  0  0  0  0  0  0
   -1.6217   -0.0094    2.2434 C   0  0  0  0  0  0  0  0  0  0  0  0
   -0.6725   -0.5533    2.7919 O   0  0  0  0  0  0  0  0  0  0  0  0
   -0.3613   -0.6137   -0.3557 H   0  0  0  0  0  0  0  0  0  0  0  0
   -2.2081    1.4733    0.7857 H   0  0  0  0  0  0  0  0  0  0  0  0
   -0.4776    1.3530    1.0485 H   0  0  0  0  0  0  0  0  0  0  0  0
   -2.8870   -0.0383    2.8031 N   0  0  0  0  0  0  0  0  0  0  0  0
   -3.3170   -0.7982    3.9960 C   0  0  2  0  0  0  0  0  0  0  0  0
   -2.7365   -0.2997    5.3398 C   0  0  0  0  0  0  0  0  0  0  0  0
   -3.4852   -0.1423    6.2952 O   0  0  0  0  0  0  0  0  0  0  0  0
   -3.0566   -2.3008    3.8178 C   0  0  0  0  0  0  0  0  0  0  0  0
   -3.6213    0.3584    2.2194 H   0  0  0  0  0  0  0  0  0  0  0  0
   -4.4016   -0.6697    4.0746 H   0  0  0  0  0  0  0  0  0  0  0  0
   -1.9851   -2.5212    3.8189 H   0  0  0  0  0  0  0  0  0  0  0  0
   -3.5188   -2.8607    4.6371 H   0  0  0  0  0  0  0  0  0  0  0  0
   -3.4840   -2.6525    2.8740 H   0  0  0  0  0  0  0  0  0  0  0  0
   -1.3881   -0.0477    5.4937 N   0  0  0  0  0  0  0  0  0  0  0  0
   -0.7729    0.3636    6.7474 C   0  0  0  0  0  0  0  0  0  0  0  0
   -0.7972   -0.2439    4.6816 H   0  0  0  0  0  0  0  0  0  0  0  0
   -1.2445    1.2770    7.1245 H   0  0  0  0  0  0  0  0  0  0  0  0
   -0.8765   -0.4241    7.5004 H   0  0  0  0  0  0  0  0  0  0  0  0
    0.2921    0.5628    6.5966 H   0  0  0  0  0  0  0  0  0  0  0  0
  1  2  2  0  0  0  0
  1  3  1  0  0  0  0
  1  7  1  0  0  0  0
  3  4  1  0  0  0  0
  3  5  1  0  0  0  0
  3  6  1  0  0  0  0
  7  8  1  0  0  0  0
  7 12  1  0  0  0  0
  8  9  1  0  0  0  0
  8 11  1  0  0  0  0
  8 13  1  0  0  0  0
  9 10  2  0  0  0  0
  9 17  1  0  0  0  0
 11 14  1  0  0  0  0
 11 15  1  0  0  0  0
 11 16  1  0  0  0  0
 17 18  1  0  0  0  0
 17 21  1  0  0  0  0
 18 19  1  0  0  0  0
 18 22  1  0  0  0  0
 18 23  1  0  0  0  0
 19 20  2  0  0  0  0
 19 24  1  0  0  0  0
 24 25  1  0  0  0  0
 24 29  1  0  0  0  0
 25 26  1  0  0  0  0
 25 28  1  0  0  0  0
 25 30  1  0  0  0  0
 26 27  2  0  0  0  0
 26 34  1  0  0  0  0
 28 31  1  0  0  0  0
 28 32  1  0  0  0  0
 28 33  1  0  0  0  0
 34 35  1  0  0  0  0
 34 36  1  0  0  0  0
 35 37  1  0  0  0  0
 35 38  1  0  0  0  0
 35 39  1  0  0  0  0
M  END
$$$$

  -OEChem-05262216283D

 39 38  0     1  0  0  0  0  0999 V2000
   -3.4425   -3.1463   -1.8393 C   0  0  0  0  0  0  0  0  0  0  0  0
   -2.6362   -3.5756   -1.0286 O   0  0  0  0  0  0  0  0  0  0  0  0
   -4.8369   -3.7382   -1.9162 C   0  0  0  0  0  0  0  0  0  0  0  0
   -5.0533   -4.0541   -2.9397 H   0  0  0  0  0  0  0  0  0  0  0  0
   -4.9139   -4.6071   -1.2563 H   0  0  0  0  0  0  0  0  0  0  0  0
   -5.5759   -2.9943   -1.6080 H   0  0  0  0  0  0  0  0  0  0  0  0
   -3.0972   -2.0887   -2.6556 N   0  0  0  0  0  0  0  0  0  0  0  0
   -1.8674   -1.3150   -2.4397 C   0  0  2  0  0  0  0  0  0  0  0  0
   -2.0157   -0.3107   -1.2765 C   0  0  0  0  0  0  0  0  0  0  0  0
   -3.0750    0.2846   -1.0999 O   0  0  0  0  0  0  0  0  0  0  0  0
   -1.5269   -0.5877   -3.7419 C   0  0  0  0  0  0  0  0  0  0  0  0
   -3.8682   -1.6230   -3.1265 H   0  0  0  0  0  0  0  0  0  0  0  0
   -1.0422   -1.9959   -2.2040 H   0  0  0  0  0  0  0  0  0  0  0  0
   -2.3233    0.1138   -4.0111 H   0  0  0  0  0  0  0  0  0  0  0  0
   -0.5932   -0.0271   -3.6314 H   0  0  0  0  0  0  0  0  0  0  0  0
   -1.4036   -1.3073   -4.5576 H   0  0  0  0  0  0  0  0  0  0  0  0
   -0.9854   -0.1165   -0.3745 N   0  0  0  0  0  0  0  0  0  0  0  0
   -1.1439    0.7093    0.8316 C   0  0  0  0  0  0  0  0  0  0  0  0
   -1.6299   -0.1417    2.0054 C   0  0  0  0  0  0  0  0  0  0  0  0
   -0.8151   -0.6568    2.7591 O   0  0  0  0  0  0  0  0  0  0  0  0
   -0.2202   -0.7876   -0.4013 H   0  0  0  0  0  0  0  0  0  0  0  0
   -1.8384    1.5388    0.6655 H   0  0  0  0  0  0  0  0  0  0  0  0
   -0.1805    1.1540    1.0976 H   0  0  0  0  0  0  0  0  0  0  0  0
   -2.9921   -0.2808    2.2013 N   0  0  0  0  0  0  0  0  0  0  0  0
   -3.6589   -1.2198    3.1270 C   0  0  2  0  0  0  0  0  0  0  0  0
   -3.5049   -0.8956    4.6316 C   0  0  0  0  0  0  0  0  0  0  0  0
   -4.4876   -0.9488    5.3603 O   0  0  0  0  0  0  0  0  0  0  0  0
   -3.2319   -2.6651    2.8346 C   0  0  0  0  0  0  0  0  0  0  0  0
   -3.5607    0.0977    1.4436 H   0  0  0  0  0  0  0  0  0  0  0  0
   -4.7317   -1.1552    2.9182 H   0  0  0  0  0  0  0  0  0  0  0  0
   -2.1883   -2.8348    3.1152 H   0  0  0  0  0  0  0  0  0  0  0  0
   -3.8550   -3.3613    3.4042 H   0  0  0  0  0  0  0  0  0  0  0  0
   -3.3469   -2.8897    1.7697 H   0  0  0  0  0  0  0  0  0  0  0  0
   -2.2804   -0.5708    5.1804 N   0  0  0  0  0  0  0  0  0  0  0  0
   -2.0603   -0.3194    6.5978 C   0  0  0  0  0  0  0  0  0  0  0  0
   -1.4803   -0.5997    4.5427 H   0  0  0  0  0  0  0  0  0  0  0  0
   -2.6844    0.5123    6.9410 H   0  0  0  0  0  0  0  0  0  0  0  0
   -2.3031   -1.2100    7.1867 H   0  0  0  0  0  0  0  0  0  0  0  0
   -1.0121   -0.0607    6.7757 H   0  0  0  0  0  0  0  0  0  0  0  0
  1  2  2  0  0  0  0
  1  3  1  0  0  0  0
  1  7  1  0  0  0  0
  3  4  1  0  0  0  0
  3  5  1  0  0  0  0
  3  6  1  0  0  0  0
  7  8  1  0  0  0  0
  7 12  1  0  0  0  0
  8  9  1  0  0  0  0
  8 11  1  0  0  0  0
  8 13  1  0  0  0  0
  9 10  2  0  0  0  0
  9 17  1  0  0  0  0
 11 14  1  0  0  0  0
 11 15  1  0  0  0  0
 11 16  1  0  0  0  0
 17 18  1  0  0  0  0
 17 21  1  0  0  0  0
 18 19  1  0  0  0  0
 18 22  1  0  0  0  0
 18 23  1  0  0  0  0
 19 20  2  0  0  0  0
 19 24  1  0  0  0  0
 24 25  1  0  0  0  0
 24 29  1  0  0  0  0
 25 26  1  0  0  0  0
 25 28  1  0  0  0  0
 25 30  1  0  0  0  0
 26 27  2  0  0  0  0
 26 34  1  0  0  0  0
 28 31  1  0  0  0  0
 28 32  1  0  0  0  0
 28 33  1  0  0  0  0
 34 35  1  0  0  0  0
 34 36  1  0  0  0  0
 35 37  1  0  0  0  0
 35 38  1  0  0  0  0
 35 39  1  0  0  0  0
M  END
$$$$

  -OEChem-05262216283D

 39 38  0     1  0  0  0  0  0999 V2000
   -2.3435   -3.3605   -2.0036 C   0  0  0  0  0  0  0  0  0  0  0  0
   -1.1533   -3.4168   -1.7330 O   0  0  0  0  0  0  0  0  0  0  0  0
   -3.2427   -4.5594   -1.7687 C   0  0  0  0  0  0  0  0  0  0  0  0
   -3.7537   -4.8324   -2.6950 H   0  0  0  0  0  0  0  0  0  0  0  0
   -2.6501   -5.4141   -1.4299 H   0  0  0  0  0  0  0  0  0  0  0  0
   -3.9881   -4.3239   -1.0048 H   0  0  0  0  0  0  0  0  0  0  0  0
   -2.8749   -2.1710   -2.4600 N   0  0  0  0  0  0  0  0  0  0  0  0
   -2.0896   -0.9407   -2.6495 C   0  0  2  0  0  0  0  0  0  0  0  0
   -1.7521   -0.2508   -1.3056 C   0  0  0  0  0  0  0  0  0  0  0  0
   -2.3157    0.7763   -0.9403 O   0  0  0  0  0  0  0  0  0  0  0  0
   -2.8755   -0.0293   -3.6001 C   0  0  0  0  0  0  0  0  0  0  0  0
   -3.8788   -2.1362   -2.6131 H   0  0  0  0  0  0  0  0  0  0  0  0
   -1.1385   -1.1863   -3.1347 H   0  0  0  0  0  0  0  0  0  0  0  0
   -3.8440    0.2405   -3.1668 H   0  0  0  0  0  0  0  0  0  0  0  0
   -2.3146    0.8913   -3.7910 H   0  0  0  0  0  0  0  0  0  0  0  0
   -3.0472   -0.5326   -4.5564 H   0  0  0  0  0  0  0  0  0  0  0  0
   -0.9139   -0.8818   -0.4081 N   0  0  0  0  0  0  0  0  0  0  0  0
   -0.5852   -0.3422    0.9186 C   0  0  0  0  0  0  0  0  0  0  0  0
   -1.5913   -0.8366    1.9577 C   0  0  0  0  0  0  0  0  0  0  0  0
   -1.2833   -1.7059    2.7618 O   0  0  0  0  0  0  0  0  0  0  0  0
   -0.6183   -1.8329   -0.6549 H   0  0  0  0  0  0  0  0  0  0  0  0
   -0.5739    0.7525    0.9118 H   0  0  0  0  0  0  0  0  0  0  0  0
    0.4167   -0.6714    1.2094 H   0  0  0  0  0  0  0  0  0  0  0  0
   -2.8519   -0.2668    1.9551 N   0  0  0  0  0  0  0  0  0  0  0  0
   -4.0460   -0.7476    2.6795 C   0  0  2  0  0  0  0  0  0  0  0  0
   -4.0127   -0.6009    4.2190 C   0  0  0  0  0  0  0  0  0  0  0  0
   -5.0348   -0.2732    4.8085 O   0  0  0  0  0  0  0  0  0  0  0  0
   -4.3636   -2.1961    2.2839 C   0  0  0  0  0  0  0  0  0  0  0  0
   -3.0063    0.3855    1.1824 H   0  0  0  0  0  0  0  0  0  0  0  0
   -4.8846   -0.1291    2.3435 H   0  0  0  0  0  0  0  0  0  0  0  0
   -3.6081   -2.8859    2.6719 H   0  0  0  0  0  0  0  0  0  0  0  0
   -5.3358   -2.4913    2.6910 H   0  0  0  0  0  0  0  0  0  0  0  0
   -4.3992   -2.2939    1.1951 H   0  0  0  0  0  0  0  0  0  0  0  0
   -2.8797   -0.8903    4.9527 N   0  0  0  0  0  0  0  0  0  0  0  0
   -2.8374   -0.9099    6.4083 C   0  0  0  0  0  0  0  0  0  0  0  0
   -2.0921   -1.2741    4.4236 H   0  0  0  0  0  0  0  0  0  0  0  0
   -3.1443    0.0597    6.8147 H   0  0  0  0  0  0  0  0  0  0  0  0
   -3.5053   -1.6844    6.7992 H   0  0  0  0  0  0  0  0  0  0  0  0
   -1.8208   -1.1218    6.7533 H   0  0  0  0  0  0  0  0  0  0  0  0
  1  2  2  0  0  0  0
  1  3  1  0  0  0  0
  1  7  1  0  0  0  0
  3  4  1  0  0  0  0
  3  5  1  0  0  0  0
  3  6  1  0  0  0  0
  7  8  1  0  0  0  0
  7 12  1  0  0  0  0
  8  9  1  0  0  0  0
  8 11  1  0  0  0  0
  8 13  1  0  0  0  0
  9 10  2  0  0  0  0
  9 17  1  0  0  0  0
 11 14  1  0  0  0  0
 11 15  1  0  0  0  0
 11 16  1  0  0  0  0
 17 18  1  0  0  0  0
 17 21  1  0  0  0  0
 18 19  1  0  0  0  0
 18 22  1  0  0  0  0
 18 23  1  0  0  0  0
 19 20  2  0  0  0  0
 19 24  1  0  0  0  0
 24 25  1  0  0  0  0
 24 29  1  0  0  0  0
 25 26  1  0  0  0  0
 25 28  1  0  0  0  0
 25 30  1  0  0  0  0
 26 27  2  0  0  0  0
 26 34  1  0  0  0  0
 28 31  1  0  0  0  0
 28 32  1  0  0  0  0
 28 33  1  0  0  0  0
 34 35  1  0  0  0  0
 34 36  1  0  0  0  0
 35 37  1  0  0  0  0
 35 38  1  0  0  0  0
 35 39  1  0  0  0  0
M  END
$$$$

  -OEChem-05262216283D

 39 38  0     1  0  0  0  0  0999 V2000
   -1.9576   -3.3877   -2.6093 C   0  0  0  0  0  0  0  0  0  0  0  0
   -0.7970   -3.3505   -2.2285 O   0  0  0  0  0  0  0  0  0  0  0  0
   -2.6653   -4.7169   -2.7904 C   0  0  0  0  0  0  0  0  0  0  0  0
   -2.9586   -4.8451   -3.8353 H   0  0  0  0  0  0  0  0  0  0  0  0
   -2.0006   -5.5386   -2.5085 H   0  0  0  0  0  0  0  0  0  0  0  0
   -3.5579   -4.7558   -2.1609 H   0  0  0  0  0  0  0  0  0  0  0  0
   -2.6350   -2.2044   -2.8224 N   0  0  0  0  0  0  0  0  0  0  0  0
   -2.0219   -0.8724   -2.6953 C   0  0  2  0  0  0  0  0  0  0  0  0
   -1.8466   -0.4325   -1.2203 C   0  0  0  0  0  0  0  0  0  0  0  0
   -2.4504    0.5258   -0.7490 O   0  0  0  0  0  0  0  0  0  0  0  0
   -2.8811    0.1068   -3.5052 C   0  0  0  0  0  0  0  0  0  0  0  0
   -3.6128   -2.2675   -3.0927 H   0  0  0  0  0  0  0  0  0  0  0  0
   -1.0235   -0.8890   -3.1461 H   0  0  0  0  0  0  0  0  0  0  0  0
   -3.8942    0.1636   -3.0942 H   0  0  0  0  0  0  0  0  0  0  0  0
   -2.4409    1.1090   -3.4772 H   0  0  0  0  0  0  0  0  0  0  0  0
   -2.9437   -0.2117   -4.5502 H   0  0  0  0  0  0  0  0  0  0  0  0
   -1.0847   -1.1943   -0.3564 N   0  0  0  0  0  0  0  0  0  0  0  0
   -0.7455   -0.7900    1.0177 C   0  0  0  0  0  0  0  0  0  0  0  0
   -1.8002   -1.2702    2.0175 C   0  0  0  0  0  0  0  0  0  0  0  0
   -1.4899   -1.9986    2.9505 O   0  0  0  0  0  0  0  0  0  0  0  0
   -0.6504   -2.0327   -0.7570 H   0  0  0  0  0  0  0  0  0  0  0  0
   -0.6502    0.2978    1.0914 H   0  0  0  0  0  0  0  0  0  0  0  0
    0.2225   -1.2181    1.2944 H   0  0  0  0  0  0  0  0  0  0  0  0
   -3.1001   -0.8275    1.8517 N   0  0  0  0  0  0  0  0  0  0  0  0
   -4.3059   -1.2773    2.5753 C   0  0  2  0  0  0  0  0  0  0  0  0
   -4.3842   -0.8640    4.0626 C   0  0  0  0  0  0  0  0  0  0  0  0
   -5.4550   -0.4900    4.5243 O   0  0  0  0  0  0  0  0  0  0  0  0
   -4.4914   -2.7934    2.4279 C   0  0  0  0  0  0  0  0  0  0  0  0
   -3.2308   -0.2121    1.0437 H   0  0  0  0  0  0  0  0  0  0  0  0
   -5.1612   -0.7981    2.0878 H   0  0  0  0  0  0  0  0  0  0  0  0
   -3.7190   -3.3409    2.9765 H   0  0  0  0  0  0  0  0  0  0  0  0
   -5.4669   -3.0919    2.8246 H   0  0  0  0  0  0  0  0  0  0  0  0
   -4.4421   -3.0817    1.3739 H   0  0  0  0  0  0  0  0  0  0  0  0
   -3.2866   -0.9519    4.8949 N   0  0  0  0  0  0  0  0  0  0  0  0
   -3.3264   -0.6752    6.3239 C   0  0  0  0  0  0  0  0  0  0  0  0
   -2.4446   -1.3643    4.4841 H   0  0  0  0  0  0  0  0  0  0  0  0
   -3.6920    0.3406    6.5071 H   0  0  0  0  0  0  0  0  0  0  0  0
   -3.9869   -1.3848    6.8328 H   0  0  0  0  0  0  0  0  0  0  0  0
   -2.3238   -0.7634    6.7529 H   0  0  0  0  0  0  0  0  0  0  0  0
  1  2  2  0  0  0  0
  1  3  1  0  0  0  0
  1  7  1  0  0  0  0
  3  4  1  0  0  0  0
  3  5  1  0  0  0  0
  3  6  1  0  0  0  0
  7  8  1  0  0  0  0
  7 12  1  0  0  0  0
  8  9  1  0  0  0  0
  8 11  1  0  0  0  0
  8 13  1  0  0  0  0
  9 10  2  0  0  0  0
  9 17  1  0  0  0  0
 11 14  1  0  0  0  0
 11 15  1  0  0  0  0
 11 16  1  0  0  0  0
 17 18  1  0  0  0  0
 17 21  1  0  0  0  0
 18 19  1  0  0  0  0
 18 22  1  0  0  0  0
 18 23  1  0  0  0  0
 19 20  2  0  0  0  0
 19 24  1  0  0  0  0
 24 25  1  0  0  0  0
 24 29  1  0  0  0  0
 25 26  1  0  0  0  0
 25 28  1  0  0  0  0
 25 30  1  0  0  0  0
 26 27  2  0  0  0  0
 26 34  1  0  0  0  0
 28 31  1  0  0  0  0
 28 32  1  0  0  0  0
 28 33  1  0  0  0  0
 34 35  1  0  0  0  0
 34 36  1  0  0  0  0
 35 37  1  0  0  0  0
 35 38  1  0  0  0  0
 35 39  1  0  0  0  0
M  END
$$$$

  -OEChem-05262216283D

 39 38  0     1  0  0  0  0  0999 V2000
   -3.4904   -2.7886   -1.9403 C   0  0  0  0  0  0  0  0  0  0  0  0
   -2.6170   -3.1366   -2.7217 O   0  0  0  0  0  0  0  0  0  0  0  0
   -4.3273   -3.8333   -1.2282 C   0  0  0  0  0  0  0  0  0  0  0  0
   -4.3859   -4.7428   -1.8319 H   0  0  0  0  0  0  0  0  0  0  0  0
   -3.8752   -4.0750   -0.2633 H   0  0  0  0  0  0  0  0  0  0  0  0
   -5.3388   -3.4553   -1.0618 H   0  0  0  0  0  0  0  0  0  0  0  0
   -3.6093   -1.4551   -1.6110 N   0  0  0  0  0  0  0  0  0  0  0  0
   -2.6970   -0.4129   -2.1126 C   0  0  2  0  0  0  0  0  0  0  0  0
   -1.3762   -0.3918   -1.3075 C   0  0  0  0  0  0  0  0  0  0  0  0
   -1.0401    0.5769   -0.6367 O   0  0  0  0  0  0  0  0  0  0  0  0
   -3.4578    0.9169   -2.0574 C   0  0  0  0  0  0  0  0  0  0  0  0
   -4.0805   -1.2785   -0.7181 H   0  0  0  0  0  0  0  0  0  0  0  0
   -2.4403   -0.6097   -3.1592 H   0  0  0  0  0  0  0  0  0  0  0  0
   -3.7429    1.1549   -1.0274 H   0  0  0  0  0  0  0  0  0  0  0  0
   -2.8333    1.7296   -2.4415 H   0  0  0  0  0  0  0  0  0  0  0  0
   -4.3651    0.8608   -2.6666 H   0  0  0  0  0  0  0  0  0  0  0  0
   -0.7136   -1.5838   -1.0937 N   0  0  0  0  0  0  0  0  0  0  0  0
    0.3917   -1.7743   -0.1399 C   0  0  0  0  0  0  0  0  0  0  0  0
   -0.1525   -2.1782    1.2353 C   0  0  0  0  0  0  0  0  0  0  0  0
    0.2565   -3.1801    1.8051 O   0  0  0  0  0  0  0  0  0  0  0  0
   -1.0800   -2.3933   -1.6039 H   0  0  0  0  0  0  0  0  0  0  0  0
    0.9837   -0.8596   -0.0374 H   0  0  0  0  0  0  0  0  0  0  0  0
    1.0631   -2.5578   -0.5038 H   0  0  0  0  0  0  0  0  0  0  0  0
   -1.2365   -1.4834    1.7375 N   0  0  0  0  0  0  0  0  0  0  0  0
   -2.1400   -1.9665    2.7880 C   0  0  2  0  0  0  0  0  0  0  0  0
   -3.5770   -2.1976    2.2683 C   0  0  0  0  0  0  0  0  0  0  0  0
   -3.9772   -1.6588    1.2383 O   0  0  0  0  0  0  0  0  0  0  0  0
   -2.1397   -0.9262    3.9099 C   0  0  0  0  0  0  0  0  0  0  0  0
   -1.5654   -0.7181    1.1448 H   0  0  0  0  0  0  0  0  0  0  0  0
   -1.7769   -2.9178    3.1910 H   0  0  0  0  0  0  0  0  0  0  0  0
   -2.5121    0.0352    3.5409 H   0  0  0  0  0  0  0  0  0  0  0  0
   -2.7768   -1.2530    4.7374 H   0  0  0  0  0  0  0  0  0  0  0  0
   -1.1237   -0.7832    4.2917 H   0  0  0  0  0  0  0  0  0  0  0  0
   -4.4457   -3.0096    2.9735 N   0  0  0  0  0  0  0  0  0  0  0  0
   -5.8301   -3.2461    2.5816 C   0  0  0  0  0  0  0  0  0  0  0  0
   -4.0919   -3.4532    3.8170 H   0  0  0  0  0  0  0  0  0  0  0  0
   -6.3730   -2.2985    2.4985 H   0  0  0  0  0  0  0  0  0  0  0  0
   -5.8738   -3.7642    1.6182 H   0  0  0  0  0  0  0  0  0  0  0  0
   -6.3338   -3.8654    3.3302 H   0  0  0  0  0  0  0  0  0  0  0  0
  1  2  2  0  0  0  0
  1  3  1  0  0  0  0
  1  7  1  0  0  0  0
  3  4  1  0  0  0  0
  3  5  1  0  0  0  0
  3  6  1  0  0  0  0
  7  8  1  0  0  0  0
  7 12  1  0  0  0  0
  8  9  1  0  0  0  0
  8 11  1  0  0  0  0
  8 13  1  0  0  0  0
  9 10  2  0  0  0  0
  9 17  1  0  0  0  0
 11 14  1  0  0  0  0
 11 15  1  0  0  0  0
 11 16  1  0  0  0  0
 17 18  1  0  0  0  0
 17 21  1  0  0  0  0
 18 19  1  0  0  0  0
 18 22  1  0  0  0  0
 18 23  1  0  0  0  0
 19 20  2  0  0  0  0
 19 24  1  0  0  0  0
 24 25  1  0  0  0  0
 24 29  1  0  0  0  0
 25 26  1  0  0  0  0
 25 28  1  0  0  0  0
 25 30  1  0  0  0  0
 26 27  2  0  0  0  0
 26 34  1  0  0  0  0
 28 31  1  0  0  0  0
 28 32  1  0  0  0  0
 28 33  1  0  0  0  0
 34 35  1  0  0  0  0
 34 36  1  0  0  0  0
 35 37  1  0  0  0  0
 35 38  1  0  0  0  0
 35 39  1  0  0  0  0
M  END
$$$$

  -OEChem-05262216283D

 39 38  0     1  0  0  0  0  0999 V2000
   -3.0065   -3.1913   -2.0156 C   0  0  0  0  0  0  0  0  0  0  0  0
   -2.0175   -3.4048   -2.7012 O   0  0  0  0  0  0  0  0  0  0  0  0
   -3.7073   -4.3424   -1.3194 C   0  0  0  0  0  0  0  0  0  0  0  0
   -3.5489   -5.2703   -1.8757 H   0  0  0  0  0  0  0  0  0  0  0  0
   -3.3099   -4.4614   -0.3086 H   0  0  0  0  0  0  0  0  0  0  0  0
   -4.7811   -4.1482   -1.2586 H   0  0  0  0  0  0  0  0  0  0  0  0
   -3.3967   -1.8887   -1.7867 N   0  0  0  0  0  0  0  0  0  0  0  0
   -2.6943   -0.7132   -2.3346 C   0  0  2  0  0  0  0  0  0  0  0  0
   -1.4383   -0.3563   -1.5039 C   0  0  0  0  0  0  0  0  0  0  0  0
   -1.3222    0.7221   -0.9366 O   0  0  0  0  0  0  0  0  0  0  0  0
   -3.7151    0.4290   -2.3972 C   0  0  0  0  0  0  0  0  0  0  0  0
   -4.0000   -1.7532   -0.9696 H   0  0  0  0  0  0  0  0  0  0  0  0
   -2.3598   -0.9227   -3.3565 H   0  0  0  0  0  0  0  0  0  0  0  0
   -4.0779    0.6768   -1.3941 H   0  0  0  0  0  0  0  0  0  0  0  0
   -3.2591    1.3241   -2.8320 H   0  0  0  0  0  0  0  0  0  0  0  0
   -4.5696    0.1414   -3.0170 H   0  0  0  0  0  0  0  0  0  0  0  0
   -0.5798   -1.3746   -1.1421 N   0  0  0  0  0  0  0  0  0  0  0  0
    0.4593   -1.2782   -0.1008 C   0  0  0  0  0  0  0  0  0  0  0  0
   -0.0987   -1.6827    1.2708 C   0  0  0  0  0  0  0  0  0  0  0  0
    0.5719   -2.3367    2.0567 O   0  0  0  0  0  0  0  0  0  0  0  0
   -0.7599   -2.2811   -1.5847 H   0  0  0  0  0  0  0  0  0  0  0  0
    0.8544   -0.2596   -0.0381 H   0  0  0  0  0  0  0  0  0  0  0  0
    1.2952   -1.9370   -0.3533 H   0  0  0  0  0  0  0  0  0  0  0  0
   -1.4362   -1.4571    1.5313 N   0  0  0  0  0  0  0  0  0  0  0  0
   -2.2250   -2.0734    2.6005 C   0  0  2  0  0  0  0  0  0  0  0  0
   -3.6305   -2.4834    2.1059 C   0  0  0  0  0  0  0  0  0  0  0  0
   -4.0648   -2.0816    1.0273 O   0  0  0  0  0  0  0  0  0  0  0  0
   -2.3224   -1.0710    3.7531 C   0  0  0  0  0  0  0  0  0  0  0  0
   -1.9396   -0.9336    0.8150 H   0  0  0  0  0  0  0  0  0  0  0  0
   -1.7242   -2.9806    2.9548 H   0  0  0  0  0  0  0  0  0  0  0  0
   -2.8240   -0.1553    3.4232 H   0  0  0  0  0  0  0  0  0  0  0  0
   -2.8861   -1.4962    4.5889 H   0  0  0  0  0  0  0  0  0  0  0  0
   -1.3209   -0.8096    4.1102 H   0  0  0  0  0  0  0  0  0  0  0  0
   -4.4069   -3.3458    2.8570 N   0  0  0  0  0  0  0  0  0  0  0  0
   -5.7308   -3.8018    2.4505 C   0  0  0  0  0  0  0  0  0  0  0  0
   -4.0247   -3.6719    3.7408 H   0  0  0  0  0  0  0  0  0  0  0  0
   -6.4022   -2.9490    2.3033 H   0  0  0  0  0  0  0  0  0  0  0  0
   -5.6707   -4.3696    1.5161 H   0  0  0  0  0  0  0  0  0  0  0  0
   -6.1606   -4.4497    3.2207 H   0  0  0  0  0  0  0  0  0  0  0  0
  1  2  2  0  0  0  0
  1  3  1  0  0  0  0
  1  7  1  0  0  0  0
  3  4  1  0  0  0  0
  3  5  1  0  0  0  0
  3  6  1  0  0  0  0
  7  8  1  0  0  0  0
  7 12  1  0  0  0  0
  8  9  1  0  0  0  0
  8 11  1  0  0  0  0
  8 13  1  0  0  0  0
  9 10  2  0  0  0  0
  9 17  1  0  0  0  0
 11 14  1  0  0  0  0
 11 15  1  0  0  0  0
 11 16  1  0  0  0  0
 17 18  1  0  0  0  0
 17 21  1  0  0  0  0
 18 19  1  0  0  0  0
 18 22  1  0  0  0  0
 18 23  1  0  0  0  0
 19 20  2  0  0  0  0
 19 24  1  0  0  0  0
 24 25  1  0  0  0  0
 24 29  1  0  0  0  0
 25 26  1  0  0  0  0
 25 28  1  0  0  0  0
 25 30  1  0  0  0  0
 26 27  2  0  0  0  0
 26 34  1  0  0  0  0
 28 31  1  0  0  0  0
 28 32  1  0  0  0  0
 28 33  1  0  0  0  0
 34 35  1  0  0  0  0
 34 36  1  0  0  0  0
 35 37  1  0  0  0  0
 35 38  1  0  0  0  0
 35 39  1  0  0  0  0
M  END
$$$$

  -OEChem-05262216283D

 39 38  0     1  0  0  0  0  0999 V2000
   -2.6769   -3.2421   -2.1823 C   0  0  0  0  0  0  0  0  0  0  0  0
   -1.6647   -3.3033   -2.8641 O   0  0  0  0  0  0  0  0  0  0  0  0
   -3.2640   -4.5059   -1.5842 C   0  0  0  0  0  0  0  0  0  0  0  0
   -3.0301   -5.3652   -2.2184 H   0  0  0  0  0  0  0  0  0  0  0  0
   -2.8469   -4.6743   -0.5885 H   0  0  0  0  0  0  0  0  0  0  0  0
   -4.3499   -4.4145   -1.5030 H   0  0  0  0  0  0  0  0  0  0  0  0
   -3.1989   -2.0033   -1.8721 N   0  0  0  0  0  0  0  0  0  0  0  0
   -2.6581   -0.7250   -2.3772 C   0  0  2  0  0  0  0  0  0  0  0  0
   -1.4180   -0.2568   -1.5754 C   0  0  0  0  0  0  0  0  0  0  0  0
   -1.3916    0.8227   -1.0005 O   0  0  0  0  0  0  0  0  0  0  0  0
   -3.8073    0.2903   -2.3462 C   0  0  0  0  0  0  0  0  0  0  0  0
   -3.8797   -1.9851   -1.1069 H   0  0  0  0  0  0  0  0  0  0  0  0
   -2.3430   -0.8446   -3.4195 H   0  0  0  0  0  0  0  0  0  0  0  0
   -4.1491    0.4541   -1.3189 H   0  0  0  0  0  0  0  0  0  0  0  0
   -3.4784    1.2494   -2.7588 H   0  0  0  0  0  0  0  0  0  0  0  0
   -4.6512   -0.0702   -2.9424 H   0  0  0  0  0  0  0  0  0  0  0  0
   -0.4623   -1.1987   -1.2493 N   0  0  0  0  0  0  0  0  0  0  0  0
    0.5140   -1.0672   -0.1515 C   0  0  0  0  0  0  0  0  0  0  0  0
   -0.0468   -1.6403    1.1594 C   0  0  0  0  0  0  0  0  0  0  0  0
    0.6922   -1.9808    2.0715 O   0  0  0  0  0  0  0  0  0  0  0  0
   -0.5543   -2.1009   -1.7270 H   0  0  0  0  0  0  0  0  0  0  0  0
    0.7852   -0.0188    0.0065 H   0  0  0  0  0  0  0  0  0  0  0  0
    1.4302   -1.6059   -0.4094 H   0  0  0  0  0  0  0  0  0  0  0  0
   -1.4036   -1.8835    1.2492 N   0  0  0  0  0  0  0  0  0  0  0  0
   -2.1249   -2.4503    2.3900 C   0  0  2  0  0  0  0  0  0  0  0  0
   -3.5269   -2.9392    1.9610 C   0  0  0  0  0  0  0  0  0  0  0  0
   -4.0110   -2.5881    0.8852 O   0  0  0  0  0  0  0  0  0  0  0  0
   -2.2489   -1.3827    3.4835 C   0  0  0  0  0  0  0  0  0  0  0  0
   -1.9632   -1.5366    0.4721 H   0  0  0  0  0  0  0  0  0  0  0  0
   -1.5674   -3.3087    2.7795 H   0  0  0  0  0  0  0  0  0  0  0  0
   -2.7880   -0.5078    3.1054 H   0  0  0  0  0  0  0  0  0  0  0  0
   -2.7891   -1.7784    4.3487 H   0  0  0  0  0  0  0  0  0  0  0  0
   -1.2575   -1.0610    3.8176 H   0  0  0  0  0  0  0  0  0  0  0  0
   -4.2409   -3.8074    2.7651 N   0  0  0  0  0  0  0  0  0  0  0  0
   -5.5584   -4.3272    2.4185 C   0  0  0  0  0  0  0  0  0  0  0  0
   -3.8202   -4.0834    3.6484 H   0  0  0  0  0  0  0  0  0  0  0  0
   -6.2762   -3.5080    2.3056 H   0  0  0  0  0  0  0  0  0  0  0  0
   -5.5139   -4.8900    1.4800 H   0  0  0  0  0  0  0  0  0  0  0  0
   -5.9198   -4.9969    3.2050 H   0  0  0  0  0  0  0  0  0  0  0  0
  1  2  2  0  0  0  0
  1  3  1  0  0  0  0
  1  7  1  0  0  0  0
  3  4  1  0  0  0  0
  3  5  1  0  0  0  0
  3  6  1  0  0  0  0
  7  8  1  0  0  0  0
  7 12  1  0  0  0  0
  8  9  1  0  0  0  0
  8 11  1  0  0  0  0
  8 13  1  0  0  0  0
  9 10  2  0  0  0  0
  9 17  1  0  0  0  0
 11 14  1  0  0  0  0
 11 15  1  0  0  0  0
 11 16  1  0  0  0  0
 17 18  1  0  0  0  0
 17 21  1  0  0  0  0
 18 19  1  0  0  0  0
 18 22  1  0  0  0  0
 18 23  1  0  0  0  0
 19 20  2  0  0  0  0
 19 24  1  0  0  0  0
 24 25  1  0  0  0  0
 24 29  1  0  0  0  0
 25 26  1  0  0  0  0
 25 28  1  0  0  0  0
 25 30  1  0  0  0  0
 26 27  2  0  0  0  0
 26 34  1  0  0  0  0
 28 31  1  0  0  0  0
 28 32  1  0  0  0  0
 28 33  1  0  0  0  0
 34 35  1  0  0  0  0
 34 36  1  0  0  0  0
 35 37  1  0  0  0  0
 35 38  1  0  0  0  0
 35 39  1  0  0  0  0
M  END
$$$$

  -OEChem-05262216283D

 39 38  0     1  0  0  0  0  0999 V2000
   -2.5795   -3.1772   -2.4149 C   0  0  0  0  0  0  0  0  0  0  0  0
   -1.5959   -3.0844   -3.1336 O   0  0  0  0  0  0  0  0  0  0  0  0
   -3.0673   -4.5435   -1.9727 C   0  0  0  0  0  0  0  0  0  0  0  0
   -2.8425   -5.2889   -2.7405 H   0  0  0  0  0  0  0  0  0  0  0  0
   -2.5728   -4.8318   -1.0418 H   0  0  0  0  0  0  0  0  0  0  0  0
   -4.1476   -4.5235   -1.8081 H   0  0  0  0  0  0  0  0  0  0  0  0
   -3.1548   -2.0237   -1.9232 N   0  0  0  0  0  0  0  0  0  0  0  0
   -2.7396   -0.6582   -2.3062 C   0  0  2  0  0  0  0  0  0  0  0  0
   -1.4840   -0.1827   -1.5329 C   0  0  0  0  0  0  0  0  0  0  0  0
   -1.4738    0.8591   -0.8920 O   0  0  0  0  0  0  0  0  0  0  0  0
   -3.9534    0.2534   -2.0893 C   0  0  0  0  0  0  0  0  0  0  0  0
   -3.8087   -2.1440   -1.1451 H   0  0  0  0  0  0  0  0  0  0  0  0
   -2.4886   -0.6364   -3.3722 H   0  0  0  0  0  0  0  0  0  0  0  0
   -4.2309    0.2783   -1.0304 H   0  0  0  0  0  0  0  0  0  0  0  0
   -3.7246    1.2743   -2.4116 H   0  0  0  0  0  0  0  0  0  0  0  0
   -4.8097   -0.1066   -2.6676 H   0  0  0  0  0  0  0  0  0  0  0  0
   -0.4645   -1.0920   -1.3344 N   0  0  0  0  0  0  0  0  0  0  0  0
    0.5870   -0.9787   -0.3064 C   0  0  0  0  0  0  0  0  0  0  0  0
    0.1505   -1.6547    1.0022 C   0  0  0  0  0  0  0  0  0  0  0  0
    0.9166   -1.7545    1.9492 O   0  0  0  0  0  0  0  0  0  0  0  0
   -0.5182   -1.9432   -1.9024 H   0  0  0  0  0  0  0  0  0  0  0  0
    0.8223    0.0708   -0.1033 H   0  0  0  0  0  0  0  0  0  0  0  0
    1.5030   -1.4584   -0.6623 H   0  0  0  0  0  0  0  0  0  0  0  0
   -1.0974   -2.2462    1.0564 N   0  0  0  0  0  0  0  0  0  0  0  0
   -1.7699   -2.7695    2.2484 C   0  0  2  0  0  0  0  0  0  0  0  0
   -3.1338   -3.3851    1.8624 C   0  0  0  0  0  0  0  0  0  0  0  0
   -3.6807   -3.0737    0.8043 O   0  0  0  0  0  0  0  0  0  0  0  0
   -2.0021   -1.6375    3.2592 C   0  0  0  0  0  0  0  0  0  0  0  0
   -1.6926   -2.0529    0.2530 H   0  0  0  0  0  0  0  0  0  0  0  0
   -1.1473   -3.5472    2.7023 H   0  0  0  0  0  0  0  0  0  0  0  0
   -2.5804   -0.8292    2.7996 H   0  0  0  0  0  0  0  0  0  0  0  0
   -2.5506   -2.0070    4.1306 H   0  0  0  0  0  0  0  0  0  0  0  0
   -1.0503   -1.2264    3.6087 H   0  0  0  0  0  0  0  0  0  0  0  0
   -3.7584   -4.2889    2.7013 N   0  0  0  0  0  0  0  0  0  0  0  0
   -5.0625   -4.8778    2.4209 C   0  0  0  0  0  0  0  0  0  0  0  0
   -3.2970   -4.5121    3.5793 H   0  0  0  0  0  0  0  0  0  0  0  0
   -5.8294   -4.0982    2.3602 H   0  0  0  0  0  0  0  0  0  0  0  0
   -5.0407   -5.4266    1.4734 H   0  0  0  0  0  0  0  0  0  0  0  0
   -5.3415   -5.5757    3.2165 H   0  0  0  0  0  0  0  0  0  0  0  0
  1  2  2  0  0  0  0
  1  3  1  0  0  0  0
  1  7  1  0  0  0  0
  3  4  1  0  0  0  0
  3  5  1  0  0  0  0
  3  6  1  0  0  0  0
  7  8  1  0  0  0  0
  7 12  1  0  0  0  0
  8  9  1  0  0  0  0
  8 11  1  0  0  0  0
  8 13  1  0  0  0  0
  9 10  2  0  0  0  0
  9 17  1  0  0  0  0
 11 14  1  0  0  0  0
 11 15  1  0  0  0  0
 11 16  1  0  0  0  0
 17 18  1  0  0  0  0
 17 21  1  0  0  0  0
 18 19  1  0  0  0  0
 18 22  1  0  0  0  0
 18 23  1  0  0  0  0
 19 20  2  0  0  0  0
 19 24  1  0  0  0  0
 24 25  1  0  0  0  0
 24 29  1  0  0  0  0
 25 26  1  0  0  0  0
 25 28  1  0  0  0  0
 25 30  1  0  0  0  0
 26 27  2  0  0  0  0
 26 34  1  0  0  0  0
 28 31  1  0  0  0  0
 28 32  1  0  0  0  0
 28 33  1  0  0  0  0
 34 35  1  0  0  0  0
 34 36  1  0  0  0  0
 35 37  1  0  0  0  0
 35 38  1  0  0  0  0
 35 39  1  0  0  0  0
M  END
$$$$

  -OEChem-05262216283D

 39 38  0     1  0  0  0  0  0999 V2000
   -2.8380   -2.9775   -2.4065 C   0  0  0  0  0  0  0  0  0  0  0  0
   -1.6774   -3.1036   -2.7710 O   0  0  0  0  0  0  0  0  0  0  0  0
   -3.7083   -4.1976   -2.1779 C   0  0  0  0  0  0  0  0  0  0  0  0
   -3.0838   -5.0607   -1.9316 H   0  0  0  0  0  0  0  0  0  0  0  0
   -4.3983   -4.0215   -1.3492 H   0  0  0  0  0  0  0  0  0  0  0  0
   -4.2846   -4.4187   -3.0792 H   0  0  0  0  0  0  0  0  0  0  0  0
   -3.3489   -1.7077   -2.2255 N   0  0  0  0  0  0  0  0  0  0  0  0
   -2.6388   -0.4665   -2.5820 C   0  0  2  0  0  0  0  0  0  0  0  0
   -1.5543   -0.0735   -1.5482 C   0  0  0  0  0  0  0  0  0  0  0  0
   -1.6168    0.9638   -0.9023 O   0  0  0  0  0  0  0  0  0  0  0  0
   -3.6981    0.6250   -2.7772 C   0  0  0  0  0  0  0  0  0  0  0  0
   -4.2960   -1.6392   -1.8627 H   0  0  0  0  0  0  0  0  0  0  0  0
   -2.1281   -0.6058   -3.5410 H   0  0  0  0  0  0  0  0  0  0  0  0
   -4.2411    0.8081   -1.8443 H   0  0  0  0  0  0  0  0  0  0  0  0
   -3.2238    1.5610   -3.0899 H   0  0  0  0  0  0  0  0  0  0  0  0
   -4.4146    0.3278   -3.5490 H   0  0  0  0  0  0  0  0  0  0  0  0
   -0.5222   -0.9562   -1.2989 N   0  0  0  0  0  0  0  0  0  0  0  0
    0.5209   -0.7750   -0.2729 C   0  0  0  0  0  0  0  0  0  0  0  0
    0.1329   -1.3788    1.0830 C   0  0  0  0  0  0  0  0  0  0  0  0
    0.8393   -1.1959    2.0645 O   0  0  0  0  0  0  0  0  0  0  0  0
   -0.5492   -1.8297   -1.8357 H   0  0  0  0  0  0  0  0  0  0  0  0
    0.7351    0.2893   -0.1302 H   0  0  0  0  0  0  0  0  0  0  0  0
    1.4456   -1.2510   -0.6099 H   0  0  0  0  0  0  0  0  0  0  0  0
   -0.9255   -2.2626    1.1649 N   0  0  0  0  0  0  0  0  0  0  0  0
   -1.3889   -2.9404    2.3792 C   0  0  2  0  0  0  0  0  0  0  0  0
   -2.3804   -4.0706    2.0335 C   0  0  0  0  0  0  0  0  0  0  0  0
   -2.9877   -4.0569    0.9662 O   0  0  0  0  0  0  0  0  0  0  0  0
   -2.0687   -1.9243    3.3057 C   0  0  0  0  0  0  0  0  0  0  0  0
   -1.4758   -2.3943    0.3177 H   0  0  0  0  0  0  0  0  0  0  0  0
   -0.5293   -3.3846    2.8919 H   0  0  0  0  0  0  0  0  0  0  0  0
   -2.9144   -1.4503    2.7973 H   0  0  0  0  0  0  0  0  0  0  0  0
   -2.4367   -2.4172    4.2104 H   0  0  0  0  0  0  0  0  0  0  0  0
   -1.3629   -1.1436    3.6056 H   0  0  0  0  0  0  0  0  0  0  0  0
   -2.6003   -5.1043    2.9247 N   0  0  0  0  0  0  0  0  0  0  0  0
   -3.5120   -6.2106    2.6612 C   0  0  0  0  0  0  0  0  0  0  0  0
   -2.0660   -5.1008    3.7891 H   0  0  0  0  0  0  0  0  0  0  0  0
   -4.5308   -5.8398    2.5076 H   0  0  0  0  0  0  0  0  0  0  0  0
   -3.1986   -6.7613    1.7681 H   0  0  0  0  0  0  0  0  0  0  0  0
   -3.5209   -6.9028    3.5086 H   0  0  0  0  0  0  0  0  0  0  0  0
  1  2  2  0  0  0  0
  1  3  1  0  0  0  0
  1  7  1  0  0  0  0
  3  4  1  0  0  0  0
  3  5  1  0  0  0  0
  3  6  1  0  0  0  0
  7  8  1  0  0  0  0
  7 12  1  0  0  0  0
  8  9  1  0  0  0  0
  8 11  1  0  0  0  0
  8 13  1  0  0  0  0
  9 10  2  0  0  0  0
  9 17  1  0  0  0  0
 11 14  1  0  0  0  0
 11 15  1  0  0  0  0
 11 16  1  0  0  0  0
 17 18  1  0  0  0  0
 17 21  1  0  0  0  0
 18 19  1  0  0  0  0
 18 22  1  0  0  0  0
 18 23  1  0  0  0  0
 19 20  2  0  0  0  0
 19 24  1  0  0  0  0
 24 25  1  0  0  0  0
 24 29  1  0  0  0  0
 25 26  1  0  0  0  0
 25 28  1  0  0  0  0
 25 30  1  0  0  0  0
 26 27  2  0  0  0  0
 26 34  1  0  0  0  0
 28 31  1  0  0  0  0
 28 32  1  0  0  0  0
 28 33  1  0  0  0  0
 34 35  1  0  0  0  0
 34 36  1  0  0  0  0
 35 37  1  0  0  0  0
 35 38  1  0  0  0  0
 35 39  1  0  0  0  0
M  END
$$$$

  -OEChem-05262216283D

 39 38  0     1  0  0  0  0  0999 V2000
   -3.7717   -2.2579   -1.9098 C   0  0  0  0  0  0  0  0  0  0  0  0
   -2.8127   -3.0138   -1.8198 O   0  0  0  0  0  0  0  0  0  0  0  0
   -5.1615   -2.7394   -1.5393 C   0  0  0  0  0  0  0  0  0  0  0  0
   -5.1258   -3.7814   -1.2083 H   0  0  0  0  0  0  0  0  0  0  0  0
   -5.5684   -2.1269   -0.7309 H   0  0  0  0  0  0  0  0  0  0  0  0
   -5.8234   -2.6695   -2.4061 H   0  0  0  0  0  0  0  0  0  0  0  0
   -3.5855   -0.9554   -2.3266 N   0  0  0  0  0  0  0  0  0  0  0  0
   -2.3134   -0.4051   -2.8217 C   0  0  2  0  0  0  0  0  0  0  0  0
   -1.2228   -0.3019   -1.7272 C   0  0  0  0  0  0  0  0  0  0  0  0
   -0.9948    0.7458   -1.1385 O   0  0  0  0  0  0  0  0  0  0  0  0
   -2.6242    0.9562   -3.4567 C   0  0  0  0  0  0  0  0  0  0  0  0
   -4.4026   -0.3509   -2.3312 H   0  0  0  0  0  0  0  0  0  0  0  0
   -1.9221   -1.0583   -3.6088 H   0  0  0  0  0  0  0  0  0  0  0  0
   -3.0359    1.6458   -2.7121 H   0  0  0  0  0  0  0  0  0  0  0  0
   -1.7116    1.3984   -3.8687 H   0  0  0  0  0  0  0  0  0  0  0  0
   -3.3494    0.8446   -4.2685 H   0  0  0  0  0  0  0  0  0  0  0  0
   -0.5254   -1.4446   -1.3871 N   0  0  0  0  0  0  0  0  0  0  0  0
    0.3441   -1.5614   -0.2052 C   0  0  0  0  0  0  0  0  0  0  0  0
   -0.4007   -2.0519    1.0436 C   0  0  0  0  0  0  0  0  0  0  0  0
    0.0708   -1.8431    2.1542 O   0  0  0  0  0  0  0  0  0  0  0  0
   -0.9228   -2.3038   -1.7743 H   0  0  0  0  0  0  0  0  0  0  0  0
    0.8099   -0.5975    0.0250 H   0  0  0  0  0  0  0  0  0  0  0  0
    1.1513   -2.2662   -0.4217 H   0  0  0  0  0  0  0  0  0  0  0  0
   -1.4969   -2.8913    0.9367 N   0  0  0  0  0  0  0  0  0  0  0  0
   -2.2204   -3.4520    2.0888 C   0  0  2  0  0  0  0  0  0  0  0  0
   -1.5052   -4.6810    2.7020 C   0  0  0  0  0  0  0  0  0  0  0  0
   -2.0441   -5.7803    2.7599 O   0  0  0  0  0  0  0  0  0  0  0  0
   -3.6490   -3.7621    1.6299 C   0  0  0  0  0  0  0  0  0  0  0  0
   -1.8476   -3.0871   -0.0030 H   0  0  0  0  0  0  0  0  0  0  0  0
   -2.2855   -2.6955    2.8783 H   0  0  0  0  0  0  0  0  0  0  0  0
   -3.6415   -4.5068    0.8273 H   0  0  0  0  0  0  0  0  0  0  0  0
   -4.2385   -4.1562    2.4639 H   0  0  0  0  0  0  0  0  0  0  0  0
   -4.1346   -2.8527    1.2659 H   0  0  0  0  0  0  0  0  0  0  0  0
   -0.2334   -4.5294    3.2177 N   0  0  0  0  0  0  0  0  0  0  0  0
    0.5416   -5.6063    3.8179 C   0  0  0  0  0  0  0  0  0  0  0  0
    0.1832   -3.5993    3.1209 H   0  0  0  0  0  0  0  0  0  0  0  0
   -0.0087   -6.0578    4.6499 H   0  0  0  0  0  0  0  0  0  0  0  0
    0.7588   -6.3814    3.0758 H   0  0  0  0  0  0  0  0  0  0  0  0
    1.4895   -5.2181    4.2025 H   0  0  0  0  0  0  0  0  0  0  0  0
  1  2  2  0  0  0  0
  1  3  1  0  0  0  0
  1  7  1  0  0  0  0
  3  4  1  0  0  0  0
  3  5  1  0  0  0  0
  3  6  1  0  0  0  0
  7  8  1  0  0  0  0
  7 12  1  0  0  0  0
  8  9  1  0  0  0  0
  8 11  1  0  0  0  0
  8 13  1  0  0  0  0
  9 10  2  0  0  0  0
  9 17  1  0  0  0  0
 11 14  1  0  0  0  0
 11 15  1  0  0  0  0
 11 16  1  0  0  0  0
 17 18  1  0  0  0  0
 17 21  1  0  0  0  0
 18 19  1  0  0  0  0
 18 22  1  0  0  0  0
 18 23  1  0  0  0  0
 19 20  2  0  0  0  0
 19 24  1  0  0  0  0
 24 25  1  0  0  0  0
 24 29  1  0  0  0  0
 25 26  1  0  0  0  0
 25 28  1  0  0  0  0
 25 30  1  0  0  0  0
 26 27  2  0  0  0  0
 26 34  1  0  0  0  0
 28 31  1  0  0  0  0
 28 32  1  0  0  0  0
 28 33  1  0  0  0  0
 34 35  1  0  0  0  0
 34 36  1  0  0  0  0
 35 37  1  0  0  0  0
 35 38  1  0  0  0  0
 35 39  1  0  0  0  0
M  END
$$$$

  -OEChem-05262216283D

 39 38  0     1  0  0  0  0  0999 V2000
   -4.7569   -2.2108   -2.6492 C   0  0  0  0  0  0  0  0  0  0  0  0
   -4.1815   -3.2869   -2.6924 O   0  0  0  0  0  0  0  0  0  0  0  0
   -6.2446   -2.1569   -2.3556 C   0  0  0  0  0  0  0  0  0  0  0  0
   -6.6662   -3.1659   -2.3575 H   0  0  0  0  0  0  0  0  0  0  0  0
   -6.4141   -1.7047   -1.3751 H   0  0  0  0  0  0  0  0  0  0  0  0
   -6.7551   -1.5625   -3.1172 H   0  0  0  0  0  0  0  0  0  0  0  0
   -4.0567   -1.0373   -2.8403 N   0  0  0  0  0  0  0  0  0  0  0  0
   -2.5884   -0.9670   -2.8503 C   0  0  2  0  0  0  0  0  0  0  0  0
   -2.0416   -0.4150   -1.5177 C   0  0  0  0  0  0  0  0  0  0  0  0
   -2.6904    0.4125   -0.8902 O   0  0  0  0  0  0  0  0  0  0  0  0
   -2.1711   -0.0633   -4.0126 C   0  0  0  0  0  0  0  0  0  0  0  0
   -4.5449   -0.1885   -2.5618 H   0  0  0  0  0  0  0  0  0  0  0  0
   -2.1542   -1.9593   -3.0119 H   0  0  0  0  0  0  0  0  0  0  0  0
   -2.5765    0.9452   -3.8795 H   0  0  0  0  0  0  0  0  0  0  0  0
   -1.0805    0.0059   -4.0711 H   0  0  0  0  0  0  0  0  0  0  0  0
   -2.5439   -0.4675   -4.9589 H   0  0  0  0  0  0  0  0  0  0  0  0
   -0.8065   -0.8173   -1.0405 N   0  0  0  0  0  0  0  0  0  0  0  0
   -0.1910   -0.2900    0.1932 C   0  0  0  0  0  0  0  0  0  0  0  0
   -0.5541   -1.0875    1.4532 C   0  0  0  0  0  0  0  0  0  0  0  0
   -0.7099   -0.5144    2.5221 O   0  0  0  0  0  0  0  0  0  0  0  0
   -0.2989   -1.5048   -1.5912 H   0  0  0  0  0  0  0  0  0  0  0  0
   -0.4875    0.7535    0.3474 H   0  0  0  0  0  0  0  0  0  0  0  0
    0.8969   -0.2998    0.0865 H   0  0  0  0  0  0  0  0  0  0  0  0
   -0.5200   -2.4683    1.4293 N   0  0  0  0  0  0  0  0  0  0  0  0
   -0.6202   -3.3336    2.6102 C   0  0  2  0  0  0  0  0  0  0  0  0
    0.2030   -4.6268    2.4287 C   0  0  0  0  0  0  0  0  0  0  0  0
    0.6514   -4.9216    1.3251 O   0  0  0  0  0  0  0  0  0  0  0  0
   -2.1001   -3.6539    2.8423 C   0  0  0  0  0  0  0  0  0  0  0  0
   -0.2516   -2.9168    0.5556 H   0  0  0  0  0  0  0  0  0  0  0  0
   -0.2211   -2.8129    3.4873 H   0  0  0  0  0  0  0  0  0  0  0  0
   -2.5168   -4.1844    1.9798 H   0  0  0  0  0  0  0  0  0  0  0  0
   -2.2249   -4.2794    3.7312 H   0  0  0  0  0  0  0  0  0  0  0  0
   -2.6682   -2.7294    2.9897 H   0  0  0  0  0  0  0  0  0  0  0  0
    0.4650   -5.4502    3.5085 N   0  0  0  0  0  0  0  0  0  0  0  0
    1.2533   -6.6731    3.4112 C   0  0  0  0  0  0  0  0  0  0  0  0
    0.1018   -5.1683    4.4145 H   0  0  0  0  0  0  0  0  0  0  0  0
    0.7881   -7.3743    2.7102 H   0  0  0  0  0  0  0  0  0  0  0  0
    2.2679   -6.4494    3.0647 H   0  0  0  0  0  0  0  0  0  0  0  0
    1.3217   -7.1578    4.3900 H   0  0  0  0  0  0  0  0  0  0  0  0
  1  2  2  0  0  0  0
  1  3  1  0  0  0  0
  1  7  1  0  0  0  0
  3  4  1  0  0  0  0
  3  5  1  0  0  0  0
  3  6  1  0  0  0  0
  7  8  1  0  0  0  0
  7 12  1  0  0  0  0
  8  9  1  0  0  0  0
  8 11  1  0  0  0  0
  8 13  1  0  0  0  0
  9 10  2  0  0  0  0
  9 17  1  0  0  0  0
 11 14  1  0  0  0  0
 11 15  1  0  0  0  0
 11 16  1  0  0  0  0
 17 18  1  0  0  0  0
 17 21  1  0  0  0  0
 18 19  1  0  0  0  0
 18 22  1  0  0  0  0
 18 23  1  0  0  0  0
 19 20  2  0  0  0  0
 19 24  1  0  0  0  0
 24 25  1  0  0  0  0
 24 29  1  0  0  0  0
 25 26  1  0  0  0  0
 25 28  1  0  0  0  0
 25 30  1  0  0  0  0
 26 27  2  0  0  0  0
 26 34  1  0  0  0  0
 28 31  1  0  0  0  0
 28 32  1  0  0  0  0
 28 33  1  0  0  0  0
 34 35  1  0  0  0  0
 34 36  1  0  0  0  0
 35 37  1  0  0  0  0
 35 38  1  0  0  0  0
 35 39  1  0  0  0  0
M  END
$$$$

  -OEChem-05262216283D

 39 38  0     1  0  0  0  0  0999 V2000
   -3.2025   -2.6051   -1.9141 C   0  0  0  0  0  0  0  0  0  0  0  0
   -2.0913   -3.0790   -2.1087 O   0  0  0  0  0  0  0  0  0  0  0  0
   -4.2530   -3.4015   -1.1642 C   0  0  0  0  0  0  0  0  0  0  0  0
   -5.1448   -3.5216   -1.7844 H   0  0  0  0  0  0  0  0  0  0  0  0
   -3.8655   -4.3921   -0.9103 H   0  0  0  0  0  0  0  0  0  0  0  0
   -4.5268   -2.8830   -0.2422 H   0  0  0  0  0  0  0  0  0  0  0  0
   -3.4814   -1.3191   -2.3310 N   0  0  0  0  0  0  0  0  0  0  0  0
   -2.5106   -0.4356   -2.9962 C   0  0  2  0  0  0  0  0  0  0  0  0
   -1.4346    0.0857   -2.0139 C   0  0  0  0  0  0  0  0  0  0  0  0
   -1.4527    1.2328   -1.5892 O   0  0  0  0  0  0  0  0  0  0  0  0
   -3.2989    0.6962   -3.6663 C   0  0  0  0  0  0  0  0  0  0  0  0
   -4.3678   -0.9195   -2.0346 H   0  0  0  0  0  0  0  0  0  0  0  0
   -1.9912   -0.9911   -3.7845 H   0  0  0  0  0  0  0  0  0  0  0  0
   -3.8459    1.2821   -2.9204 H   0  0  0  0  0  0  0  0  0  0  0  0
   -2.6178    1.3671   -4.1993 H   0  0  0  0  0  0  0  0  0  0  0  0
   -4.0152    0.2885   -4.3859 H   0  0  0  0  0  0  0  0  0  0  0  0
   -0.4860   -0.8070   -1.5546 N   0  0  0  0  0  0  0  0  0  0  0  0
    0.3083   -0.5980   -0.3336 C   0  0  0  0  0  0  0  0  0  0  0  0
   -0.3769   -1.1832    0.9084 C   0  0  0  0  0  0  0  0  0  0  0  0
   -0.5603   -0.4954    1.9027 O   0  0  0  0  0  0  0  0  0  0  0  0
   -0.6688   -1.7740   -1.8388 H   0  0  0  0  0  0  0  0  0  0  0  0
    0.4872    0.4696   -0.1666 H   0  0  0  0  0  0  0  0  0  0  0  0
    1.2865   -1.0722   -0.4494 H   0  0  0  0  0  0  0  0  0  0  0  0
   -0.6580   -2.5369    0.9578 N   0  0  0  0  0  0  0  0  0  0  0  0
   -0.9579   -3.2767    2.1921 C   0  0  2  0  0  0  0  0  0  0  0  0
    0.0921   -4.3730    2.4664 C   0  0  0  0  0  0  0  0  0  0  0  0
    0.7130   -4.8764    1.5368 O   0  0  0  0  0  0  0  0  0  0  0  0
   -2.3474   -3.8966    2.0404 C   0  0  0  0  0  0  0  0  0  0  0  0
   -0.3377   -3.0921    0.1647 H   0  0  0  0  0  0  0  0  0  0  0  0
   -0.9663   -2.6040    3.0557 H   0  0  0  0  0  0  0  0  0  0  0  0
   -2.3665   -4.5881    1.1917 H   0  0  0  0  0  0  0  0  0  0  0  0
   -2.6218   -4.4477    2.9451 H   0  0  0  0  0  0  0  0  0  0  0  0
   -3.0926   -3.1131    1.8733 H   0  0  0  0  0  0  0  0  0  0  0  0
    0.3223   -4.8190    3.7549 N   0  0  0  0  0  0  0  0  0  0  0  0
    1.3123   -5.8388    4.0805 C   0  0  0  0  0  0  0  0  0  0  0  0
   -0.1657   -4.3471    4.5109 H   0  0  0  0  0  0  0  0  0  0  0  0
    1.3220   -6.0281    5.1581 H   0  0  0  0  0  0  0  0  0  0  0  0
    1.0774   -6.7773    3.5674 H   0  0  0  0  0  0  0  0  0  0  0  0
    2.3131   -5.5129    3.7780 H   0  0  0  0  0  0  0  0  0  0  0  0
  1  2  2  0  0  0  0
  1  3  1  0  0  0  0
  1  7  1  0  0  0  0
  3  4  1  0  0  0  0
  3  5  1  0  0  0  0
  3  6  1  0  0  0  0
  7  8  1  0  0  0  0
  7 12  1  0  0  0  0
  8  9  1  0  0  0  0
  8 11  1  0  0  0  0
  8 13  1  0  0  0  0
  9 10  2  0  0  0  0
  9 17  1  0  0  0  0
 11 14  1  0  0  0  0
 11 15  1  0  0  0  0
 11 16  1  0  0  0  0
 17 18  1  0  0  0  0
 17 21  1  0  0  0  0
 18 19  1  0  0  0  0
 18 22  1  0  0  0  0
 18 23  1  0  0  0  0
 19 20  2  0  0  0  0
 19 24  1  0  0  0  0
 24 25  1  0  0  0  0
 24 29  1  0  0  0  0
 25 26  1  0  0  0  0
 25 28  1  0  0  0  0
 25 30  1  0  0  0  0
 26 27  2  0  0  0  0
 26 34  1  0  0  0  0
 28 31  1  0  0  0  0
 28 32  1  0  0  0  0
 28 33  1  0  0  0  0
 34 35  1  0  0  0  0
 34 36  1  0  0  0  0
 35 37  1  0  0  0  0
 35 38  1  0  0  0  0
 35 39  1  0  0  0  0
M  END
$$$$

  -OEChem-05262216283D

 39 38  0     1  0  0  0  0  0999 V2000
   -2.9726   -2.7854   -1.7545 C   0  0  0  0  0  0  0  0  0  0  0  0
   -1.8412   -3.1198   -2.0762 O   0  0  0  0  0  0  0  0  0  0  0  0
   -3.8206   -3.6929   -0.8850 C   0  0  0  0  0  0  0  0  0  0  0  0
   -4.0600   -3.1914    0.0560 H   0  0  0  0  0  0  0  0  0  0  0  0
   -4.7498   -3.9434   -1.4027 H   0  0  0  0  0  0  0  0  0  0  0  0
   -3.2798   -4.6181   -0.6657 H   0  0  0  0  0  0  0  0  0  0  0  0
   -3.4581   -1.5544   -2.1457 N   0  0  0  0  0  0  0  0  0  0  0  0
   -2.6884   -0.5774   -2.9314 C   0  0  2  0  0  0  0  0  0  0  0  0
   -1.5980    0.1194   -2.0828 C   0  0  0  0  0  0  0  0  0  0  0  0
   -1.7027    1.2890   -1.7390 O   0  0  0  0  0  0  0  0  0  0  0  0
   -3.6891    0.4099   -3.5443 C   0  0  0  0  0  0  0  0  0  0  0  0
   -4.3456   -1.2591   -1.7480 H   0  0  0  0  0  0  0  0  0  0  0  0
   -2.1800   -1.0903   -3.7549 H   0  0  0  0  0  0  0  0  0  0  0  0
   -4.2274    0.9528   -2.7605 H   0  0  0  0  0  0  0  0  0  0  0  0
   -3.1651    1.1386   -4.1707 H   0  0  0  0  0  0  0  0  0  0  0  0
   -4.4167   -0.1202   -4.1663 H   0  0  0  0  0  0  0  0  0  0  0  0
   -0.5141   -0.6294   -1.6650 N   0  0  0  0  0  0  0  0  0  0  0  0
    0.3133   -0.2647   -0.5044 C   0  0  0  0  0  0  0  0  0  0  0  0
   -0.2199   -0.8869    0.7922 C   0  0  0  0  0  0  0  0  0  0  0  0
   -0.7753   -0.2060    1.6425 O   0  0  0  0  0  0  0  0  0  0  0  0
   -0.6072   -1.6275   -1.8792 H   0  0  0  0  0  0  0  0  0  0  0  0
    0.3541    0.8228   -0.3804 H   0  0  0  0  0  0  0  0  0  0  0  0
    1.3394   -0.6053   -0.6652 H   0  0  0  0  0  0  0  0  0  0  0  0
   -0.0286   -2.2340    1.0332 N   0  0  0  0  0  0  0  0  0  0  0  0
   -0.3182   -2.9004    2.3088 C   0  0  2  0  0  0  0  0  0  0  0  0
    0.6629   -4.0600    2.5805 C   0  0  0  0  0  0  0  0  0  0  0  0
    1.3849   -4.4803    1.6830 O   0  0  0  0  0  0  0  0  0  0  0  0
   -1.7611   -3.4110    2.2679 C   0  0  0  0  0  0  0  0  0  0  0  0
    0.5213   -2.7612    0.3545 H   0  0  0  0  0  0  0  0  0  0  0  0
   -0.2117   -2.1850    3.1313 H   0  0  0  0  0  0  0  0  0  0  0  0
   -1.8808   -4.1489    1.4687 H   0  0  0  0  0  0  0  0  0  0  0  0
   -2.0311   -3.8794    3.2189 H   0  0  0  0  0  0  0  0  0  0  0  0
   -2.4506   -2.5806    2.0856 H   0  0  0  0  0  0  0  0  0  0  0  0
    0.7412   -4.6318    3.8371 N   0  0  0  0  0  0  0  0  0  0  0  0
    1.6508   -5.7233    4.1640 C   0  0  0  0  0  0  0  0  0  0  0  0
    0.1542   -4.2426    4.5692 H   0  0  0  0  0  0  0  0  0  0  0  0
    1.4446   -6.5952    3.5342 H   0  0  0  0  0  0  0  0  0  0  0  0
    2.6903   -5.4154    4.0102 H   0  0  0  0  0  0  0  0  0  0  0  0
    1.5286   -6.0174    5.2108 H   0  0  0  0  0  0  0  0  0  0  0  0
  1  2  2  0  0  0  0
  1  3  1  0  0  0  0
  1  7  1  0  0  0  0
  3  4  1  0  0  0  0
  3  5  1  0  0  0  0
  3  6  1  0  0  0  0
  7  8  1  0  0  0  0
  7 12  1  0  0  0  0
  8  9  1  0  0  0  0
  8 11  1  0  0  0  0
  8 13  1  0  0  0  0
  9 10  2  0  0  0  0
  9 17  1  0  0  0  0
 11 14  1  0  0  0  0
 11 15  1  0  0  0  0
 11 16  1  0  0  0  0
 17 18  1  0  0  0  0
 17 21  1  0  0  0  0
 18 19  1  0  0  0  0
 18 22  1  0  0  0  0
 18 23  1  0  0  0  0
 19 20  2  0  0  0  0
 19 24  1  0  0  0  0
 24 25  1  0  0  0  0
 24 29  1  0  0  0  0
 25 26  1  0  0  0  0
 25 28  1  0  0  0  0
 25 30  1  0  0  0  0
 26 27  2  0  0  0  0
 26 34  1  0  0  0  0
 28 31  1  0  0  0  0
 28 32  1  0  0  0  0
 28 33  1  0  0  0  0
 34 35  1  0  0  0  0
 34 36  1  0  0  0  0
 35 37  1  0  0  0  0
 35 38  1  0  0  0  0
 35 39  1  0  0  0  0
M  END
$$$$

  -OEChem-05262216283D

 39 38  0     1  0  0  0  0  0999 V2000
   -4.7045   -2.3867   -2.2760 C   0  0  0  0  0  0  0  0  0  0  0  0
   -4.0707   -3.4241   -2.3943 O   0  0  0  0  0  0  0  0  0  0  0  0
   -6.1331   -2.4225   -1.7660 C   0  0  0  0  0  0  0  0  0  0  0  0
   -6.8066   -1.9897   -2.5097 H   0  0  0  0  0  0  0  0  0  0  0  0
   -6.4389   -3.4542   -1.5714 H   0  0  0  0  0  0  0  0  0  0  0  0
   -6.2116   -1.8515   -0.8373 H   0  0  0  0  0  0  0  0  0  0  0  0
   -4.1238   -1.1742   -2.5858 N   0  0  0  0  0  0  0  0  0  0  0  0
   -2.6798   -1.0007   -2.7924 C   0  0  2  0  0  0  0  0  0  0  0  0
   -2.0287   -0.3027   -1.5818 C   0  0  0  0  0  0  0  0  0  0  0  0
   -2.6325    0.5945   -1.0066 O   0  0  0  0  0  0  0  0  0  0  0  0
   -2.4806   -0.1723   -4.0628 C   0  0  0  0  0  0  0  0  0  0  0  0
   -4.6285   -0.3529   -2.2575 H   0  0  0  0  0  0  0  0  0  0  0  0
   -2.1871   -1.9682   -2.9320 H   0  0  0  0  0  0  0  0  0  0  0  0
   -2.9583    0.8076   -3.9614 H   0  0  0  0  0  0  0  0  0  0  0  0
   -1.4143   -0.0204   -4.2561 H   0  0  0  0  0  0  0  0  0  0  0  0
   -2.9193   -0.6878   -4.9228 H   0  0  0  0  0  0  0  0  0  0  0  0
   -0.7518   -0.6515   -1.1772 N   0  0  0  0  0  0  0  0  0  0  0  0
   -0.1782   -0.2289    0.1134 C   0  0  0  0  0  0  0  0  0  0  0  0
   -0.4573   -1.2271    1.2455 C   0  0  0  0  0  0  0  0  0  0  0  0
   -1.4493   -1.1256    1.9518 O   0  0  0  0  0  0  0  0  0  0  0  0
   -0.3643   -1.4805   -1.6199 H   0  0  0  0  0  0  0  0  0  0  0  0
   -0.5764    0.7465    0.4128 H   0  0  0  0  0  0  0  0  0  0  0  0
    0.9029   -0.1055    0.0077 H   0  0  0  0  0  0  0  0  0  0  0  0
    0.4384   -2.2516    1.4837 N   0  0  0  0  0  0  0  0  0  0  0  0
    0.3820   -3.1498    2.6435 C   0  0  2  0  0  0  0  0  0  0  0  0
    1.7998   -3.5201    3.1264 C   0  0  0  0  0  0  0  0  0  0  0  0
    2.7677   -3.3100    2.4020 O   0  0  0  0  0  0  0  0  0  0  0  0
   -0.4045   -4.4028    2.2473 C   0  0  0  0  0  0  0  0  0  0  0  0
    1.3225   -2.2294    0.9766 H   0  0  0  0  0  0  0  0  0  0  0  0
   -0.1280   -2.6533    3.4760 H   0  0  0  0  0  0  0  0  0  0  0  0
    0.0885   -4.9201    1.4177 H   0  0  0  0  0  0  0  0  0  0  0  0
   -0.4799   -5.0930    3.0930 H   0  0  0  0  0  0  0  0  0  0  0  0
   -1.4175   -4.1291    1.9345 H   0  0  0  0  0  0  0  0  0  0  0  0
    1.9961   -4.0631    4.3824 N   0  0  0  0  0  0  0  0  0  0  0  0
    3.3137   -4.3856    4.9170 C   0  0  0  0  0  0  0  0  0  0  0  0
    1.1795   -4.1897    4.9738 H   0  0  0  0  0  0  0  0  0  0  0  0
    3.8042   -5.1426    4.2963 H   0  0  0  0  0  0  0  0  0  0  0  0
    3.9449   -3.4911    4.9469 H   0  0  0  0  0  0  0  0  0  0  0  0
    3.2240   -4.7787    5.9343 H   0  0  0  0  0  0  0  0  0  0  0  0
  1  2  2  0  0  0  0
  1  3  1  0  0  0  0
  1  7  1  0  0  0  0
  3  4  1  0  0  0  0
  3  5  1  0  0  0  0
  3  6  1  0  0  0  0
  7  8  1  0  0  0  0
  7 12  1  0  0  0  0
  8  9  1  0  0  0  0
  8 11  1  0  0  0  0
  8 13  1  0  0  0  0
  9 10  2  0  0  0  0
  9 17  1  0  0  0  0
 11 14  1  0  0  0  0
 11 15  1  0  0  0  0
 11 16  1  0  0  0  0
 17 18  1  0  0  0  0
 17 21  1  0  0  0  0
 18 19  1  0  0  0  0
 18 22  1  0  0  0  0
 18 23  1  0  0  0  0
 19 20  2  0  0  0  0
 19 24  1  0  0  0  0
 24 25  1  0  0  0  0
 24 29  1  0  0  0  0
 25 26  1  0  0  0  0
 25 28  1  0  0  0  0
 25 30  1  0  0  0  0
 26 27  2  0  0  0  0
 26 34  1  0  0  0  0
 28 31  1  0  0  0  0
 28 32  1  0  0  0  0
 28 33  1  0  0  0  0
 34 35  1  0  0  0  0
 34 36  1  0  0  0  0
 35 37  1  0  0  0  0
 35 38  1  0  0  0  0
 35 39  1  0  0  0  0
M  END
$$$$

  -OEChem-05262216283D

 39 38  0     1  0  0  0  0  0999 V2000
   -5.0344   -2.3743   -2.5743 C   0  0  0  0  0  0  0  0  0  0  0  0
   -4.5752   -3.3757   -3.1016 O   0  0  0  0  0  0  0  0  0  0  0  0
   -6.4893   -2.3370   -2.1466 C   0  0  0  0  0  0  0  0  0  0  0  0
   -6.5564   -2.1451   -1.0729 H   0  0  0  0  0  0  0  0  0  0  0  0
   -7.0171   -1.5461   -2.6848 H   0  0  0  0  0  0  0  0  0  0  0  0
   -6.9711   -3.2942   -2.3643 H   0  0  0  0  0  0  0  0  0  0  0  0
   -4.2281   -1.2787   -2.3523 N   0  0  0  0  0  0  0  0  0  0  0  0
   -2.7721   -1.2758   -2.5361 C   0  0  2  0  0  0  0  0  0  0  0  0
   -2.0752   -0.4147   -1.4623 C   0  0  0  0  0  0  0  0  0  0  0  0
   -2.6970    0.4833   -0.9059 O   0  0  0  0  0  0  0  0  0  0  0  0
   -2.4643   -0.7484   -3.9400 C   0  0  0  0  0  0  0  0  0  0  0  0
   -4.6156   -0.5220   -1.7890 H   0  0  0  0  0  0  0  0  0  0  0  0
   -2.3847   -2.2956   -2.4408 H   0  0  0  0  0  0  0  0  0  0  0  0
   -2.8390    0.2737   -4.0561 H   0  0  0  0  0  0  0  0  0  0  0  0
   -1.3856   -0.7474   -4.1227 H   0  0  0  0  0  0  0  0  0  0  0  0
   -2.9417   -1.3820   -4.6942 H   0  0  0  0  0  0  0  0  0  0  0  0
   -0.7518   -0.6508   -1.1285 N   0  0  0  0  0  0  0  0  0  0  0  0
   -0.1476   -0.1395    0.1158 C   0  0  0  0  0  0  0  0  0  0  0  0
   -0.2856   -1.1225    1.2885 C   0  0  0  0  0  0  0  0  0  0  0  0
   -1.3784   -1.3591    1.7822 O   0  0  0  0  0  0  0  0  0  0  0  0
   -0.3378   -1.4789   -1.5479 H   0  0  0  0  0  0  0  0  0  0  0  0
   -0.6062    0.8099    0.4117 H   0  0  0  0  0  0  0  0  0  0  0  0
    0.9119    0.0667   -0.0569 H   0  0  0  0  0  0  0  0  0  0  0  0
    0.8075   -1.8529    1.7146 N   0  0  0  0  0  0  0  0  0  0  0  0
    0.7920   -2.7705    2.8621 C   0  0  2  0  0  0  0  0  0  0  0  0
    2.1628   -2.8077    3.5693 C   0  0  0  0  0  0  0  0  0  0  0  0
    3.1464   -2.3171    3.0244 O   0  0  0  0  0  0  0  0  0  0  0  0
    0.4049   -4.1662    2.3631 C   0  0  0  0  0  0  0  0  0  0  0  0
    1.7270   -1.5731    1.3733 H   0  0  0  0  0  0  0  0  0  0  0  0
    0.0533   -2.4322    3.5972 H   0  0  0  0  0  0  0  0  0  0  0  0
    1.1386   -4.5297    1.6365 H   0  0  0  0  0  0  0  0  0  0  0  0
    0.3589   -4.8741    3.1961 H   0  0  0  0  0  0  0  0  0  0  0  0
   -0.5783   -4.1375    1.8825 H   0  0  0  0  0  0  0  0  0  0  0  0
    2.2922   -3.3782    4.8221 N   0  0  0  0  0  0  0  0  0  0  0  0
    3.5516   -3.4232    5.5558 C   0  0  0  0  0  0  0  0  0  0  0  0
    1.4543   -3.7526    5.2585 H   0  0  0  0  0  0  0  0  0  0  0  0
    4.3069   -3.9776    4.9886 H   0  0  0  0  0  0  0  0  0  0  0  0
    3.9233   -2.4097    5.7420 H   0  0  0  0  0  0  0  0  0  0  0  0
    3.4098   -3.9219    6.5197 H   0  0  0  0  0  0  0  0  0  0  0  0
  1  2  2  0  0  0  0
  1  3  1  0  0  0  0
  1  7  1  0  0  0  0
  3  4  1  0  0  0  0
  3  5  1  0  0  0  0
  3  6  1  0  0  0  0
  7  8  1  0  0  0  0
  7 12  1  0  0  0  0
  8  9  1  0  0  0  0
  8 11  1  0  0  0  0
  8 13  1  0  0  0  0
  9 10  2  0  0  0  0
  9 17  1  0  0  0  0
 11 14  1  0  0  0  0
 11 15  1  0  0  0  0
 11 16  1  0  0  0  0
 17 18  1  0  0  0  0
 17 21  1  0  0  0  0
 18 19  1  0  0  0  0
 18 22  1  0  0  0  0
 18 23  1  0  0  0  0
 19 20  2  0  0  0  0
 19 24  1  0  0  0  0
 24 25  1  0  0  0  0
 24 29  1  0  0  0  0
 25 26  1  0  0  0  0
 25 28  1  0  0  0  0
 25 30  1  0  0  0  0
 26 27  2  0  0  0  0
 26 34  1  0  0  0  0
 28 31  1  0  0  0  0
 28 32  1  0  0  0  0
 28 33  1  0  0  0  0
 34 35  1  0  0  0  0
 34 36  1  0  0  0  0
 35 37  1  0  0  0  0
 35 38  1  0  0  0  0
 35 39  1  0  0  0  0
M  END
$$$$

  -OEChem-05262216283D

 39 38  0     1  0  0  0  0  0999 V2000
   -5.1532   -2.3163   -2.5789 C   0  0  0  0  0  0  0  0  0  0  0  0
   -4.7835   -3.3957   -3.0148 O   0  0  0  0  0  0  0  0  0  0  0  0
   -6.6197   -2.0816   -2.2678 C   0  0  0  0  0  0  0  0  0  0  0  0
   -6.7480   -1.8877   -1.1999 H   0  0  0  0  0  0  0  0  0  0  0  0
   -6.9884   -1.2225   -2.8333 H   0  0  0  0  0  0  0  0  0  0  0  0
   -7.2088   -2.9617   -2.5400 H   0  0  0  0  0  0  0  0  0  0  0  0
   -4.2381   -1.3091   -2.3602 N   0  0  0  0  0  0  0  0  0  0  0  0
   -2.7825   -1.4839   -2.4351 C   0  0  2  0  0  0  0  0  0  0  0  0
   -2.0543   -0.5459   -1.4492 C   0  0  0  0  0  0  0  0  0  0  0  0
   -2.6570    0.3937   -0.9403 O   0  0  0  0  0  0  0  0  0  0  0  0
   -2.3303   -1.2144   -3.8737 C   0  0  0  0  0  0  0  0  0  0  0  0
   -4.5681   -0.4792   -1.8676 H   0  0  0  0  0  0  0  0  0  0  0  0
   -2.5216   -2.5113   -2.1593 H   0  0  0  0  0  0  0  0  0  0  0  0
   -2.5811   -0.1901   -4.1673 H   0  0  0  0  0  0  0  0  0  0  0  0
   -1.2490   -1.3504   -3.9696 H   0  0  0  0  0  0  0  0  0  0  0  0
   -2.8264   -1.9057   -4.5625 H   0  0  0  0  0  0  0  0  0  0  0  0
   -0.7195   -0.7547   -1.1446 N   0  0  0  0  0  0  0  0  0  0  0  0
   -0.0997   -0.1932    0.0695 C   0  0  0  0  0  0  0  0  0  0  0  0
   -0.1942   -1.1370    1.2795 C   0  0  0  0  0  0  0  0  0  0  0  0
   -1.2634   -1.6335    1.6058 O   0  0  0  0  0  0  0  0  0  0  0  0
   -0.3295   -1.6201   -1.5073 H   0  0  0  0  0  0  0  0  0  0  0  0
   -0.5639    0.7595    0.3439 H   0  0  0  0  0  0  0  0  0  0  0  0
    0.9527    0.0199   -0.1368 H   0  0  0  0  0  0  0  0  0  0  0  0
    0.9581   -1.5855    1.8961 N   0  0  0  0  0  0  0  0  0  0  0  0
    0.9805   -2.4596    3.0759 C   0  0  2  0  0  0  0  0  0  0  0  0
    2.2008   -2.1572    3.9701 C   0  0  0  0  0  0  0  0  0  0  0  0
    3.1297   -1.4866    3.5313 O   0  0  0  0  0  0  0  0  0  0  0  0
    1.0063   -3.9162    2.6026 C   0  0  0  0  0  0  0  0  0  0  0  0
    1.8303   -1.1050    1.6753 H   0  0  0  0  0  0  0  0  0  0  0  0
    0.0817   -2.2910    3.6787 H   0  0  0  0  0  0  0  0  0  0  0  0
    1.9019   -4.1081    2.0031 H   0  0  0  0  0  0  0  0  0  0  0  0
    1.0059   -4.5988    3.4576 H   0  0  0  0  0  0  0  0  0  0  0  0
    0.1241   -4.1314    1.9912 H   0  0  0  0  0  0  0  0  0  0  0  0
    2.2542   -2.6247    5.2700 N   0  0  0  0  0  0  0  0  0  0  0  0
    3.3739   -2.3673    6.1677 C   0  0  0  0  0  0  0  0  0  0  0  0
    1.4603   -3.1581    5.6129 H   0  0  0  0  0  0  0  0  0  0  0  0
    4.2875   -2.8317    5.7821 H   0  0  0  0  0  0  0  0  0  0  0  0
    3.5430   -1.2903    6.2720 H   0  0  0  0  0  0  0  0  0  0  0  0
    3.1670   -2.7812    7.1594 H   0  0  0  0  0  0  0  0  0  0  0  0
  1  2  2  0  0  0  0
  1  3  1  0  0  0  0
  1  7  1  0  0  0  0
  3  4  1  0  0  0  0
  3  5  1  0  0  0  0
  3  6  1  0  0  0  0
  7  8  1  0  0  0  0
  7 12  1  0  0  0  0
  8  9  1  0  0  0  0
  8 11  1  0  0  0  0
  8 13  1  0  0  0  0
  9 10  2  0  0  0  0
  9 17  1  0  0  0  0
 11 14  1  0  0  0  0
 11 15  1  0  0  0  0
 11 16  1  0  0  0  0
 17 18  1  0  0  0  0
 17 21  1  0  0  0  0
 18 19  1  0  0  0  0
 18 22  1  0  0  0  0
 18 23  1  0  0  0  0
 19 20  2  0  0  0  0
 19 24  1  0  0  0  0
 24 25  1  0  0  0  0
 24 29  1  0  0  0  0
 25 26  1  0  0  0  0
 25 28  1  0  0  0  0
 25 30  1  0  0  0  0
 26 27  2  0  0  0  0
 26 34  1  0  0  0  0
 28 31  1  0  0  0  0
 28 32  1  0  0  0  0
 28 33  1  0  0  0  0
 34 35  1  0  0  0  0
 34 36  1  0  0  0  0
 35 37  1  0  0  0  0
 35 38  1  0  0  0  0
 35 39  1  0  0  0  0
M  END
$$$$

  -OEChem-05262216283D

 39 38  0     1  0  0  0  0  0999 V2000
   -5.2132   -2.1637   -2.4729 C   0  0  0  0  0  0  0  0  0  0  0  0
   -5.0590   -3.3545   -2.6957 O   0  0  0  0  0  0  0  0  0  0  0  0
   -6.6067   -1.6011   -2.2663 C   0  0  0  0  0  0  0  0  0  0  0  0
   -6.8065   -0.8182   -3.0019 H   0  0  0  0  0  0  0  0  0  0  0  0
   -7.3538   -2.3914   -2.3808 H   0  0  0  0  0  0  0  0  0  0  0  0
   -6.6910   -1.1784   -1.2621 H   0  0  0  0  0  0  0  0  0  0  0  0
   -4.1211   -1.3260   -2.4008 N   0  0  0  0  0  0  0  0  0  0  0  0
   -2.7258   -1.7829   -2.3961 C   0  0  2  0  0  0  0  0  0  0  0  0
   -1.8174   -0.8128   -1.6107 C   0  0  0  0  0  0  0  0  0  0  0  0
   -2.2380    0.2939   -1.2876 O   0  0  0  0  0  0  0  0  0  0  0  0
   -2.2508   -1.9163   -3.8468 C   0  0  0  0  0  0  0  0  0  0  0  0
   -4.2855   -0.3703   -2.0854 H   0  0  0  0  0  0  0  0  0  0  0  0
   -2.6622   -2.7584   -1.9018 H   0  0  0  0  0  0  0  0  0  0  0  0
   -2.3163   -0.9518   -4.3604 H   0  0  0  0  0  0  0  0  0  0  0  0
   -1.2134   -2.2618   -3.8832 H   0  0  0  0  0  0  0  0  0  0  0  0
   -2.8726   -2.6397   -4.3840 H   0  0  0  0  0  0  0  0  0  0  0  0
   -0.5284   -1.1858   -1.2677 N   0  0  0  0  0  0  0  0  0  0  0  0
    0.2018   -0.5220   -0.1721 C   0  0  0  0  0  0  0  0  0  0  0  0
   -0.0170   -1.1978    1.1922 C   0  0  0  0  0  0  0  0  0  0  0  0
   -1.0927   -1.7110    1.4715 O   0  0  0  0  0  0  0  0  0  0  0  0
   -0.3165   -2.1660   -1.4321 H   0  0  0  0  0  0  0  0  0  0  0  0
   -0.0879    0.5298   -0.0835 H   0  0  0  0  0  0  0  0  0  0  0  0
    1.2699   -0.5358   -0.4056 H   0  0  0  0  0  0  0  0  0  0  0  0
    1.0586   -1.4272    2.0285 N   0  0  0  0  0  0  0  0  0  0  0  0
    0.9549   -2.0344    3.3623 C   0  0  2  0  0  0  0  0  0  0  0  0
    1.9979   -1.4384    4.3308 C   0  0  0  0  0  0  0  0  0  0  0  0
    2.9288   -0.7707    3.8920 O   0  0  0  0  0  0  0  0  0  0  0  0
    1.1489   -3.5469    3.2208 C   0  0  0  0  0  0  0  0  0  0  0  0
    1.9237   -0.9244    1.8301 H   0  0  0  0  0  0  0  0  0  0  0  0
   -0.0358   -1.8361    3.7857 H   0  0  0  0  0  0  0  0  0  0  0  0
    2.1411   -3.7691    2.8152 H   0  0  0  0  0  0  0  0  0  0  0  0
    1.0502   -4.0403    4.1923 H   0  0  0  0  0  0  0  0  0  0  0  0
    0.3941   -3.9633    2.5460 H   0  0  0  0  0  0  0  0  0  0  0  0
    1.8871   -1.6377    5.6944 N   0  0  0  0  0  0  0  0  0  0  0  0
    2.8266   -1.0843    6.6623 C   0  0  0  0  0  0  0  0  0  0  0  0
    1.0912   -2.1727    6.0301 H   0  0  0  0  0  0  0  0  0  0  0  0
    3.8360   -1.4673    6.4786 H   0  0  0  0  0  0  0  0  0  0  0  0
    2.8468    0.0087    6.5958 H   0  0  0  0  0  0  0  0  0  0  0  0
    2.5310   -1.3627    7.6783 H   0  0  0  0  0  0  0  0  0  0  0  0
  1  2  2  0  0  0  0
  1  3  1  0  0  0  0
  1  7  1  0  0  0  0
  3  4  1  0  0  0  0
  3  5  1  0  0  0  0
  3  6  1  0  0  0  0
  7  8  1  0  0  0  0
  7 12  1  0  0  0  0
  8  9  1  0  0  0  0
  8 11  1  0  0  0  0
  8 13  1  0  0  0  0
  9 10  2  0  0  0  0
  9 17  1  0  0  0  0
 11 14  1  0  0  0  0
 11 15  1  0  0  0  0
 11 16  1  0  0  0  0
 17 18  1  0  0  0  0
 17 21  1  0  0  0  0
 18 19  1  0  0  0  0
 18 22  1  0  0  0  0
 18 23  1  0  0  0  0
 19 20  2  0  0  0  0
 19 24  1  0  0  0  0
 24 25  1  0  0  0  0
 24 29  1  0  0  0  0
 25 26  1  0  0  0  0
 25 28  1  0  0  0  0
 25 30  1  0  0  0  0
 26 27  2  0  0  0  0
 26 34  1  0  0  0  0
 28 31  1  0  0  0  0
 28 32  1  0  0  0  0
 28 33  1  0  0  0  0
 34 35  1  0  0  0  0
 34 36  1  0  0  0  0
 35 37  1  0  0  0  0
 35 38  1  0  0  0  0
 35 39  1  0  0  0  0
M  END
$$$$

  -OEChem-05262216283D

 39 38  0     1  0  0  0  0  0999 V2000
   -3.5991   -3.3907   -2.5526 C   0  0  0  0  0  0  0  0  0  0  0  0
   -2.6820   -4.1396   -2.8507 O   0  0  0  0  0  0  0  0  0  0  0  0
   -5.0326   -3.8858   -2.5904 C   0  0  0  0  0  0  0  0  0  0  0  0
   -5.6101   -3.2986   -3.3083 H   0  0  0  0  0  0  0  0  0  0  0  0
   -5.0609   -4.9370   -2.8905 H   0  0  0  0  0  0  0  0  0  0  0  0
   -5.4879   -3.7895   -1.6016 H   0  0  0  0  0  0  0  0  0  0  0  0
   -3.3351   -2.0917   -2.1751 N   0  0  0  0  0  0  0  0  0  0  0  0
   -1.9898   -1.5620   -1.9186 C   0  0  2  0  0  0  0  0  0  0  0  0
   -2.0206   -0.4491   -0.8489 C   0  0  0  0  0  0  0  0  0  0  0  0
   -3.0949   -0.0038   -0.4564 O   0  0  0  0  0  0  0  0  0  0  0  0
   -1.4111   -1.0345   -3.2359 C   0  0  0  0  0  0  0  0  0  0  0  0
   -4.1135   -1.5507   -1.7992 H   0  0  0  0  0  0  0  0  0  0  0  0
   -1.3469   -2.3626   -1.5360 H   0  0  0  0  0  0  0  0  0  0  0  0
   -2.0324   -0.2235   -3.6292 H   0  0  0  0  0  0  0  0  0  0  0  0
   -0.3955   -0.6561   -3.0868 H   0  0  0  0  0  0  0  0  0  0  0  0
   -1.3720   -1.8359   -3.9805 H   0  0  0  0  0  0  0  0  0  0  0  0
   -0.8418    0.0538   -0.3243 N   0  0  0  0  0  0  0  0  0  0  0  0
   -0.8162    0.7996    0.9475 C   0  0  0  0  0  0  0  0  0  0  0  0
   -0.6024   -0.0941    2.1820 C   0  0  0  0  0  0  0  0  0  0  0  0
   -0.8071   -1.2999    2.1133 O   0  0  0  0  0  0  0  0  0  0  0  0
   -0.0104   -0.4802   -0.5636 H   0  0  0  0  0  0  0  0  0  0  0  0
   -1.7428    1.3649    1.0899 H   0  0  0  0  0  0  0  0  0  0  0  0
   -0.0045    1.5306    0.9012 H   0  0  0  0  0  0  0  0  0  0  0  0
    0.0438    0.4308    3.2902 N   0  0  0  0  0  0  0  0  0  0  0  0
    0.4311   -0.2884    4.5227 C   0  0  2  0  0  0  0  0  0  0  0  0
    1.5774   -1.3094    4.3402 C   0  0  0  0  0  0  0  0  0  0  0  0
    2.5872   -1.2077    5.0239 O   0  0  0  0  0  0  0  0  0  0  0  0
   -0.7840   -0.9437    5.1946 C   0  0  0  0  0  0  0  0  0  0  0  0
    0.2540    1.4243    3.2529 H   0  0  0  0  0  0  0  0  0  0  0  0
    0.8087    0.4648    5.2220 H   0  0  0  0  0  0  0  0  0  0  0  0
   -1.1568   -1.7883    4.6079 H   0  0  0  0  0  0  0  0  0  0  0  0
   -0.5068   -1.3155    6.1859 H   0  0  0  0  0  0  0  0  0  0  0  0
   -1.5931   -0.2168    5.3118 H   0  0  0  0  0  0  0  0  0  0  0  0
    1.4895   -2.3263    3.4112 N   0  0  0  0  0  0  0  0  0  0  0  0
    2.5296   -3.3198    3.1853 C   0  0  0  0  0  0  0  0  0  0  0  0
    0.6365   -2.3481    2.8454 H   0  0  0  0  0  0  0  0  0  0  0  0
    3.4605   -2.8357    2.8723 H   0  0  0  0  0  0  0  0  0  0  0  0
    2.7179   -3.8903    4.1008 H   0  0  0  0  0  0  0  0  0  0  0  0
    2.2210   -4.0172    2.4006 H   0  0  0  0  0  0  0  0  0  0  0  0
  1  2  2  0  0  0  0
  1  3  1  0  0  0  0
  1  7  1  0  0  0  0
  3  4  1  0  0  0  0
  3  5  1  0  0  0  0
  3  6  1  0  0  0  0
  7  8  1  0  0  0  0
  7 12  1  0  0  0  0
  8  9  1  0  0  0  0
  8 11  1  0  0  0  0
  8 13  1  0  0  0  0
  9 10  2  0  0  0  0
  9 17  1  0  0  0  0
 11 14  1  0  0  0  0
 11 15  1  0  0  0  0
 11 16  1  0  0  0  0
 17 18  1  0  0  0  0
 17 21  1  0  0  0  0
 18 19  1  0  0  0  0
 18 22  1  0  0  0  0
 18 23  1  0  0  0  0
 19 20  2  0  0  0  0
 19 24  1  0  0  0  0
 24 25  1  0  0  0  0
 24 29  1  0  0  0  0
 25 26  1  0  0  0  0
 25 28  1  0  0  0  0
 25 30  1  0  0  0  0
 26 27  2  0  0  0  0
 26 34  1  0  0  0  0
 28 31  1  0  0  0  0
 28 32  1  0  0  0  0
 28 33  1  0  0  0  0
 34 35  1  0  0  0  0
 34 36  1  0  0  0  0
 35 37  1  0  0  0  0
 35 38  1  0  0  0  0
 35 39  1  0  0  0  0
M  END
$$$$

  -OEChem-05262216283D

 39 38  0     1  0  0  0  0  0999 V2000
   -3.6226   -3.3739   -2.5785 C   0  0  0  0  0  0  0  0  0  0  0  0
   -2.7048   -4.1282   -2.8602 O   0  0  0  0  0  0  0  0  0  0  0  0
   -5.0589   -3.8547   -2.6652 C   0  0  0  0  0  0  0  0  0  0  0  0
   -5.5960   -3.2890   -3.4303 H   0  0  0  0  0  0  0  0  0  0  0  0
   -5.0867   -4.9161   -2.9265 H   0  0  0  0  0  0  0  0  0  0  0  0
   -5.5571   -3.7165   -1.7026 H   0  0  0  0  0  0  0  0  0  0  0  0
   -3.3567   -2.0834   -2.1730 N   0  0  0  0  0  0  0  0  0  0  0  0
   -2.0123   -1.5619   -1.8937 C   0  0  2  0  0  0  0  0  0  0  0  0
   -2.0495   -0.4277   -0.8463 C   0  0  0  0  0  0  0  0  0  0  0  0
   -3.1248    0.0361   -0.4782 O   0  0  0  0  0  0  0  0  0  0  0  0
   -1.3971   -1.0654   -3.2064 C   0  0  0  0  0  0  0  0  0  0  0  0
   -4.1408   -1.5331   -1.8235 H   0  0  0  0  0  0  0  0  0  0  0  0
   -1.3885   -2.3634   -1.4826 H   0  0  0  0  0  0  0  0  0  0  0  0
   -2.0012   -0.2578   -3.6315 H   0  0  0  0  0  0  0  0  0  0  0  0
   -0.3825   -0.6920   -3.0399 H   0  0  0  0  0  0  0  0  0  0  0  0
   -1.3462   -1.8821   -3.9332 H   0  0  0  0  0  0  0  0  0  0  0  0
   -0.8737    0.0714   -0.3120 N   0  0  0  0  0  0  0  0  0  0  0  0
   -0.8564    0.8694    0.9271 C   0  0  0  0  0  0  0  0  0  0  0  0
   -0.6915    0.0250    2.2023 C   0  0  0  0  0  0  0  0  0  0  0  0
   -0.6837   -1.1986    2.1355 O   0  0  0  0  0  0  0  0  0  0  0  0
   -0.0474   -0.4879   -0.5093 H   0  0  0  0  0  0  0  0  0  0  0  0
   -1.7721    1.4619    1.0220 H   0  0  0  0  0  0  0  0  0  0  0  0
   -0.0247    1.5767    0.8717 H   0  0  0  0  0  0  0  0  0  0  0  0
   -0.3502    0.6539    3.3889 N   0  0  0  0  0  0  0  0  0  0  0  0
   -0.0861    0.0128    4.6948 C   0  0  2  0  0  0  0  0  0  0  0  0
    1.2173   -0.8166    4.7576 C   0  0  0  0  0  0  0  0  0  0  0  0
    2.0545   -0.5542    5.6107 O   0  0  0  0  0  0  0  0  0  0  0  0
   -1.2895   -0.8190    5.1618 C   0  0  0  0  0  0  0  0  0  0  0  0
   -0.3122    1.6689    3.3590 H   0  0  0  0  0  0  0  0  0  0  0  0
    0.0383    0.8205    5.4237 H   0  0  0  0  0  0  0  0  0  0  0  0
   -1.4266   -1.7079    4.5392 H   0  0  0  0  0  0  0  0  0  0  0  0
   -1.1381   -1.1480    6.1948 H   0  0  0  0  0  0  0  0  0  0  0  0
   -2.2047   -0.2210    5.1204 H   0  0  0  0  0  0  0  0  0  0  0  0
    1.4607   -1.8415    3.8656 N   0  0  0  0  0  0  0  0  0  0  0  0
    2.6653   -2.6597    3.8669 C   0  0  0  0  0  0  0  0  0  0  0  0
    0.7432   -1.9983    3.1525 H   0  0  0  0  0  0  0  0  0  0  0  0
    3.5547   -2.0335    3.7421 H   0  0  0  0  0  0  0  0  0  0  0  0
    2.7515   -3.2116    4.8085 H   0  0  0  0  0  0  0  0  0  0  0  0
    2.6321   -3.3807    3.0445 H   0  0  0  0  0  0  0  0  0  0  0  0
  1  2  2  0  0  0  0
  1  3  1  0  0  0  0
  1  7  1  0  0  0  0
  3  4  1  0  0  0  0
  3  5  1  0  0  0  0
  3  6  1  0  0  0  0
  7  8  1  0  0  0  0
  7 12  1  0  0  0  0
  8  9  1  0  0  0  0
  8 11  1  0  0  0  0
  8 13  1  0  0  0  0
  9 10  2  0  0  0  0
  9 17  1  0  0  0  0
 11 14  1  0  0  0  0
 11 15  1  0  0  0  0
 11 16  1  0  0  0  0
 17 18  1  0  0  0  0
 17 21  1  0  0  0  0
 18 19  1  0  0  0  0
 18 22  1  0  0  0  0
 18 23  1  0  0  0  0
 19 20  2  0  0  0  0
 19 24  1  0  0  0  0
 24 25  1  0  0  0  0
 24 29  1  0  0  0  0
 25 26  1  0  0  0  0
 25 28  1  0  0  0  0
 25 30  1  0  0  0  0
 26 27  2  0  0  0  0
 26 34  1  0  0  0  0
 28 31  1  0  0  0  0
 28 32  1  0  0  0  0
 28 33  1  0  0  0  0
 34 35  1  0  0  0  0
 34 36  1  0  0  0  0
 35 37  1  0  0  0  0
 35 38  1  0  0  0  0
 35 39  1  0  0  0  0
M  END
$$$$

  -OEChem-05262216283D

 39 38  0     1  0  0  0  0  0999 V2000
   -3.6029   -3.2900   -2.7971 C   0  0  0  0  0  0  0  0  0  0  0  0
   -2.6830   -4.0596   -3.0248 O   0  0  0  0  0  0  0  0  0  0  0  0
   -5.0366   -3.7214   -3.0430 C   0  0  0  0  0  0  0  0  0  0  0  0
   -5.4968   -3.0722   -3.7920 H   0  0  0  0  0  0  0  0  0  0  0  0
   -5.0633   -4.7528   -3.4063 H   0  0  0  0  0  0  0  0  0  0  0  0
   -5.6101   -3.6599   -2.1148 H   0  0  0  0  0  0  0  0  0  0  0  0
   -3.3426   -2.0241   -2.3173 N   0  0  0  0  0  0  0  0  0  0  0  0
   -2.0125   -1.5447   -1.9184 C   0  0  2  0  0  0  0  0  0  0  0  0
   -2.1025   -0.4618   -0.8210 C   0  0  0  0  0  0  0  0  0  0  0  0
   -3.1962   -0.0244   -0.4769 O   0  0  0  0  0  0  0  0  0  0  0  0
   -1.2998   -0.9993   -3.1612 C   0  0  0  0  0  0  0  0  0  0  0  0
   -4.1403   -1.4651   -2.0161 H   0  0  0  0  0  0  0  0  0  0  0  0
   -1.4323   -2.3774   -1.5057 H   0  0  0  0  0  0  0  0  0  0  0  0
   -1.8544   -0.1536   -3.5800 H   0  0  0  0  0  0  0  0  0  0  0  0
   -0.2888   -0.6645   -2.9109 H   0  0  0  0  0  0  0  0  0  0  0  0
   -1.2222   -1.7782   -3.9266 H   0  0  0  0  0  0  0  0  0  0  0  0
   -0.9545    0.0144   -0.2124 N   0  0  0  0  0  0  0  0  0  0  0  0
   -0.9674    0.7984    1.0363 C   0  0  0  0  0  0  0  0  0  0  0  0
   -0.5131   -0.0113    2.2610 C   0  0  0  0  0  0  0  0  0  0  0  0
   -0.0646   -1.1420    2.1104 O   0  0  0  0  0  0  0  0  0  0  0  0
   -0.1176   -0.5380   -0.3888 H   0  0  0  0  0  0  0  0  0  0  0  0
   -1.9651    1.1982    1.2416 H   0  0  0  0  0  0  0  0  0  0  0  0
   -0.2973    1.6545    0.9206 H   0  0  0  0  0  0  0  0  0  0  0  0
   -0.4753    0.5947    3.5064 N   0  0  0  0  0  0  0  0  0  0  0  0
   -0.0288   -0.0108    4.7793 C   0  0  2  0  0  0  0  0  0  0  0  0
    1.4864   -0.3103    4.8555 C   0  0  0  0  0  0  0  0  0  0  0  0
    2.1573    0.2059    5.7391 O   0  0  0  0  0  0  0  0  0  0  0  0
   -0.8557   -1.2588    5.1208 C   0  0  0  0  0  0  0  0  0  0  0  0
   -0.8145    1.5521    3.5460 H   0  0  0  0  0  0  0  0  0  0  0  0
   -0.2281    0.7237    5.5667 H   0  0  0  0  0  0  0  0  0  0  0  0
   -0.6335   -2.0842    4.4383 H   0  0  0  0  0  0  0  0  0  0  0  0
   -0.6298   -1.5901    6.1392 H   0  0  0  0  0  0  0  0  0  0  0  0
   -1.9249   -1.0352    5.0598 H   0  0  0  0  0  0  0  0  0  0  0  0
    2.1019   -1.1323    3.9330 N   0  0  0  0  0  0  0  0  0  0  0  0
    3.5339   -1.3956    3.9016 C   0  0  0  0  0  0  0  0  0  0  0  0
    1.5102   -1.4727    3.1705 H   0  0  0  0  0  0  0  0  0  0  0  0
    4.0877   -0.4733    3.6984 H   0  0  0  0  0  0  0  0  0  0  0  0
    3.8705   -1.8055    4.8597 H   0  0  0  0  0  0  0  0  0  0  0  0
    3.7658   -2.1213    3.1161 H   0  0  0  0  0  0  0  0  0  0  0  0
  1  2  2  0  0  0  0
  1  3  1  0  0  0  0
  1  7  1  0  0  0  0
  3  4  1  0  0  0  0
  3  5  1  0  0  0  0
  3  6  1  0  0  0  0
  7  8  1  0  0  0  0
  7 12  1  0  0  0  0
  8  9  1  0  0  0  0
  8 11  1  0  0  0  0
  8 13  1  0  0  0  0
  9 10  2  0  0  0  0
  9 17  1  0  0  0  0
 11 14  1  0  0  0  0
 11 15  1  0  0  0  0
 11 16  1  0  0  0  0
 17 18  1  0  0  0  0
 17 21  1  0  0  0  0
 18 19  1  0  0  0  0
 18 22  1  0  0  0  0
 18 23  1  0  0  0  0
 19 20  2  0  0  0  0
 19 24  1  0  0  0  0
 24 25  1  0  0  0  0
 24 29  1  0  0  0  0
 25 26  1  0  0  0  0
 25 28  1  0  0  0  0
 25 30  1  0  0  0  0
 26 27  2  0  0  0  0
 26 34  1  0  0  0  0
 28 31  1  0  0  0  0
 28 32  1  0  0  0  0
 28 33  1  0  0  0  0
 34 35  1  0  0  0  0
 34 36  1  0  0  0  0
 35 37  1  0  0  0  0
 35 38  1  0  0  0  0
 35 39  1  0  0  0  0
M  END
$$$$

  -OEChem-05262216283D

 39 38  0     1  0  0  0  0  0999 V2000
   -3.5968   -3.2738   -2.8471 C   0  0  0  0  0  0  0  0  0  0  0  0
   -2.6654   -4.0334   -3.0610 O   0  0  0  0  0  0  0  0  0  0  0  0
   -5.0217   -3.7236   -3.1099 C   0  0  0  0  0  0  0  0  0  0  0  0
   -5.4899   -3.0657   -3.8460 H   0  0  0  0  0  0  0  0  0  0  0  0
   -5.0292   -4.7466   -3.4967 H   0  0  0  0  0  0  0  0  0  0  0  0
   -5.5998   -3.6936   -2.1831 H   0  0  0  0  0  0  0  0  0  0  0  0
   -3.3557   -2.0063   -2.3608 N   0  0  0  0  0  0  0  0  0  0  0  0
   -2.0366   -1.5183   -1.9366 C   0  0  2  0  0  0  0  0  0  0  0  0
   -2.1520   -0.4386   -0.8377 C   0  0  0  0  0  0  0  0  0  0  0  0
   -3.2517    0.0078   -0.5262 O   0  0  0  0  0  0  0  0  0  0  0  0
   -1.3058   -0.9657   -3.1655 C   0  0  0  0  0  0  0  0  0  0  0  0
   -4.1627   -1.4504   -2.0798 H   0  0  0  0  0  0  0  0  0  0  0  0
   -1.4583   -2.3486   -1.5164 H   0  0  0  0  0  0  0  0  0  0  0  0
   -1.8615   -0.1266   -3.5961 H   0  0  0  0  0  0  0  0  0  0  0  0
   -0.3038   -0.6193   -2.8951 H   0  0  0  0  0  0  0  0  0  0  0  0
   -1.2042   -1.7440   -3.9288 H   0  0  0  0  0  0  0  0  0  0  0  0
   -1.0216    0.0209   -0.1847 N   0  0  0  0  0  0  0  0  0  0  0  0
   -1.0660    0.8247    1.0501 C   0  0  0  0  0  0  0  0  0  0  0  0
   -0.6828    0.0165    2.2987 C   0  0  0  0  0  0  0  0  0  0  0  0
   -0.0420   -1.0209    2.1726 O   0  0  0  0  0  0  0  0  0  0  0  0
   -0.1820   -0.5378   -0.3286 H   0  0  0  0  0  0  0  0  0  0  0  0
   -2.0611    1.2525    1.2067 H   0  0  0  0  0  0  0  0  0  0  0  0
   -0.3701    1.6628    0.9548 H   0  0  0  0  0  0  0  0  0  0  0  0
   -0.9692    0.5179    3.5580 N   0  0  0  0  0  0  0  0  0  0  0  0
   -0.6618   -0.1108    4.8606 C   0  0  2  0  0  0  0  0  0  0  0  0
    0.8434   -0.1824    5.2063 C   0  0  0  0  0  0  0  0  0  0  0  0
    1.2465    0.3252    6.2444 O   0  0  0  0  0  0  0  0  0  0  0  0
   -1.3174   -1.4942    4.9803 C   0  0  0  0  0  0  0  0  0  0  0  0
   -1.4747    1.3995    3.5800 H   0  0  0  0  0  0  0  0  0  0  0  0
   -1.1159    0.5199    5.6321 H   0  0  0  0  0  0  0  0  0  0  0  0
   -0.8565   -2.2151    4.2988 H   0  0  0  0  0  0  0  0  0  0  0  0
   -1.2061   -1.8730    6.0014 H   0  0  0  0  0  0  0  0  0  0  0  0
   -2.3851   -1.4314    4.7497 H   0  0  0  0  0  0  0  0  0  0  0  0
    1.7446   -0.7981    4.3613 N   0  0  0  0  0  0  0  0  0  0  0  0
    3.1779   -0.8691    4.6071 C   0  0  0  0  0  0  0  0  0  0  0  0
    1.3644   -1.1603    3.4828 H   0  0  0  0  0  0  0  0  0  0  0  0
    3.6073    0.1368    4.6578 H   0  0  0  0  0  0  0  0  0  0  0  0
    3.3793   -1.3872    5.5506 H   0  0  0  0  0  0  0  0  0  0  0  0
    3.6723   -1.4176    3.7994 H   0  0  0  0  0  0  0  0  0  0  0  0
  1  2  2  0  0  0  0
  1  3  1  0  0  0  0
  1  7  1  0  0  0  0
  3  4  1  0  0  0  0
  3  5  1  0  0  0  0
  3  6  1  0  0  0  0
  7  8  1  0  0  0  0
  7 12  1  0  0  0  0
  8  9  1  0  0  0  0
  8 11  1  0  0  0  0
  8 13  1  0  0  0  0
  9 10  2  0  0  0  0
  9 17  1  0  0  0  0
 11 14  1  0  0  0  0
 11 15  1  0  0  0  0
 11 16  1  0  0  0  0
 17 18  1  0  0  0  0
 17 21  1  0  0  0  0
 18 19  1  0  0  0  0
 18 22  1  0  0  0  0
 18 23  1  0  0  0  0
 19 20  2  0  0  0  0
 19 24  1  0  0  0  0
 24 25  1  0  0  0  0
 24 29  1  0  0  0  0
 25 26  1  0  0  0  0
 25 28  1  0  0  0  0
 25 30  1  0  0  0  0
 26 27  2  0  0  0  0
 26 34  1  0  0  0  0
 28 31  1  0  0  0  0
 28 32  1  0  0  0  0
 28 33  1  0  0  0  0
 34 35  1  0  0  0  0
 34 36  1  0  0  0  0
 35 37  1  0  0  0  0
 35 38  1  0  0  0  0
 35 39  1  0  0  0  0
M  END
$$$$

  -OEChem-05262216283D

 39 38  0     1  0  0  0  0  0999 V2000
   -3.5428   -3.2038   -3.0150 C   0  0  0  0  0  0  0  0  0  0  0  0
   -2.5551   -3.8705   -3.2797 O   0  0  0  0  0  0  0  0  0  0  0  0
   -4.9279   -3.7372   -3.3302 C   0  0  0  0  0  0  0  0  0  0  0  0
   -5.4453   -3.0556   -4.0099 H   0  0  0  0  0  0  0  0  0  0  0  0
   -4.8541   -4.7196   -3.8054 H   0  0  0  0  0  0  0  0  0  0  0  0
   -5.5092   -3.8342   -2.4100 H   0  0  0  0  0  0  0  0  0  0  0  0
   -3.4011   -1.9677   -2.4206 N   0  0  0  0  0  0  0  0  0  0  0  0
   -2.1239   -1.4149   -1.9493 C   0  0  2  0  0  0  0  0  0  0  0  0
   -2.3255   -0.4298   -0.7774 C   0  0  0  0  0  0  0  0  0  0  0  0
   -3.4571   -0.1077   -0.4290 O   0  0  0  0  0  0  0  0  0  0  0  0
   -1.4295   -0.7185   -3.1249 C   0  0  0  0  0  0  0  0  0  0  0  0
   -4.2496   -1.4995   -2.1039 H   0  0  0  0  0  0  0  0  0  0  0  0
   -1.4866   -2.2277   -1.5838 H   0  0  0  0  0  0  0  0  0  0  0  0
   -2.0465    0.1037   -3.5010 H   0  0  0  0  0  0  0  0  0  0  0  0
   -0.4605   -0.3155   -2.8160 H   0  0  0  0  0  0  0  0  0  0  0  0
   -1.2598   -1.4283   -3.9406 H   0  0  0  0  0  0  0  0  0  0  0  0
   -1.2348    0.0803   -0.0959 N   0  0  0  0  0  0  0  0  0  0  0  0
   -1.3381    0.8284    1.1689 C   0  0  0  0  0  0  0  0  0  0  0  0
   -0.9043   -0.0088    2.3797 C   0  0  0  0  0  0  0  0  0  0  0  0
   -0.0171   -0.8430    2.2421 O   0  0  0  0  0  0  0  0  0  0  0  0
   -0.3431   -0.3746   -0.2862 H   0  0  0  0  0  0  0  0  0  0  0  0
   -2.3606    1.1808    1.3344 H   0  0  0  0  0  0  0  0  0  0  0  0
   -0.7007    1.7156    1.1160 H   0  0  0  0  0  0  0  0  0  0  0  0
   -1.4709    0.2226    3.6223 N   0  0  0  0  0  0  0  0  0  0  0  0
   -1.2058   -0.5170    4.8750 C   0  0  2  0  0  0  0  0  0  0  0  0
    0.2074   -0.3137    5.4699 C   0  0  0  0  0  0  0  0  0  0  0  0
    0.3232   -0.0094    6.6496 O   0  0  0  0  0  0  0  0  0  0  0  0
   -1.5210   -2.0106    4.7122 C   0  0  0  0  0  0  0  0  0  0  0  0
   -2.2027    0.9278    3.6499 H   0  0  0  0  0  0  0  0  0  0  0  0
   -1.9033   -0.1280    5.6242 H   0  0  0  0  0  0  0  0  0  0  0  0
   -0.7984   -2.5003    4.0528 H   0  0  0  0  0  0  0  0  0  0  0  0
   -1.4852   -2.5088    5.6861 H   0  0  0  0  0  0  0  0  0  0  0  0
   -2.5227   -2.1448    4.2931 H   0  0  0  0  0  0  0  0  0  0  0  0
    1.3426   -0.4739    4.7011 N   0  0  0  0  0  0  0  0  0  0  0  0
    2.7001   -0.3458    5.2125 C   0  0  0  0  0  0  0  0  0  0  0  0
    1.1932   -0.7517    3.7275 H   0  0  0  0  0  0  0  0  0  0  0  0
    2.8672    0.6613    5.6078 H   0  0  0  0  0  0  0  0  0  0  0  0
    2.8781   -1.0729    6.0116 H   0  0  0  0  0  0  0  0  0  0  0  0
    3.4234   -0.5270    4.4118 H   0  0  0  0  0  0  0  0  0  0  0  0
  1  2  2  0  0  0  0
  1  3  1  0  0  0  0
  1  7  1  0  0  0  0
  3  4  1  0  0  0  0
  3  5  1  0  0  0  0
  3  6  1  0  0  0  0
  7  8  1  0  0  0  0
  7 12  1  0  0  0  0
  8  9  1  0  0  0  0
  8 11  1  0  0  0  0
  8 13  1  0  0  0  0
  9 10  2  0  0  0  0
  9 17  1  0  0  0  0
 11 14  1  0  0  0  0
 11 15  1  0  0  0  0
 11 16  1  0  0  0  0
 17 18  1  0  0  0  0
 17 21  1  0  0  0  0
 18 19  1  0  0  0  0
 18 22  1  0  0  0  0
 18 23  1  0  0  0  0
 19 20  2  0  0  0  0
 19 24  1  0  0  0  0
 24 25  1  0  0  0  0
 24 29  1  0  0  0  0
 25 26  1  0  0  0  0
 25 28  1  0  0  0  0
 25 30  1  0  0  0  0
 26 27  2  0  0  0  0
 26 34  1  0  0  0  0
 28 31  1  0  0  0  0
 28 32  1  0  0  0  0
 28 33  1  0  0  0  0
 34 35  1  0  0  0  0
 34 36  1  0  0  0  0
 35 37  1  0  0  0  0
 35 38  1  0  0  0  0
 35 39  1  0  0  0  0
M  END
$$$$

  -OEChem-05262216283D

 39 38  0     1  0  0  0  0  0999 V2000
   -4.9663   -2.4129   -2.3610 C   0  0  0  0  0  0  0  0  0  0  0  0
   -4.6707   -3.5825   -2.5485 O   0  0  0  0  0  0  0  0  0  0  0  0
   -6.4234   -1.9917   -2.3250 C   0  0  0  0  0  0  0  0  0  0  0  0
   -6.6172   -1.2531   -3.1067 H   0  0  0  0  0  0  0  0  0  0  0  0
   -7.0706   -2.8577   -2.4897 H   0  0  0  0  0  0  0  0  0  0  0  0
   -6.6619   -1.5541   -1.3527 H   0  0  0  0  0  0  0  0  0  0  0  0
   -3.9762   -1.4710   -2.1784 N   0  0  0  0  0  0  0  0  0  0  0  0
   -2.5454   -1.7817   -2.0583 C   0  0  2  0  0  0  0  0  0  0  0  0
   -1.8021   -0.7225   -1.2153 C   0  0  0  0  0  0  0  0  0  0  0  0
   -2.3964    0.2728   -0.8139 O   0  0  0  0  0  0  0  0  0  0  0  0
   -1.9437   -1.8729   -3.4654 C   0  0  0  0  0  0  0  0  0  0  0  0
   -4.2663   -0.5368   -1.8906 H   0  0  0  0  0  0  0  0  0  0  0  0
   -2.4224   -2.7447   -1.5507 H   0  0  0  0  0  0  0  0  0  0  0  0
   -2.0366   -0.9137   -3.9843 H   0  0  0  0  0  0  0  0  0  0  0  0
   -0.8844   -2.1418   -3.4158 H   0  0  0  0  0  0  0  0  0  0  0  0
   -2.4625   -2.6380   -4.0516 H   0  0  0  0  0  0  0  0  0  0  0  0
   -0.4705   -0.8983   -0.8857 N   0  0  0  0  0  0  0  0  0  0  0  0
    0.2457   -0.0771    0.1045 C   0  0  0  0  0  0  0  0  0  0  0  0
    0.4651   -0.8387    1.4165 C   0  0  0  0  0  0  0  0  0  0  0  0
    0.8252   -2.0092    1.3757 O   0  0  0  0  0  0  0  0  0  0  0  0
   -0.0840   -1.8220   -1.0736 H   0  0  0  0  0  0  0  0  0  0  0  0
   -0.2939    0.8512    0.3161 H   0  0  0  0  0  0  0  0  0  0  0  0
    1.2220    0.2070   -0.2977 H   0  0  0  0  0  0  0  0  0  0  0  0
    0.2285   -0.2395    2.6376 N   0  0  0  0  0  0  0  0  0  0  0  0
    0.2670   -0.9460    3.9241 C   0  0  2  0  0  0  0  0  0  0  0  0
   -0.7060   -0.3215    4.9453 C   0  0  0  0  0  0  0  0  0  0  0  0
   -1.1786    0.7919    4.7443 O   0  0  0  0  0  0  0  0  0  0  0  0
    1.7032   -0.9072    4.4555 C   0  0  0  0  0  0  0  0  0  0  0  0
   -0.2292    0.6729    2.6334 H   0  0  0  0  0  0  0  0  0  0  0  0
   -0.0376   -1.9882    3.7813 H   0  0  0  0  0  0  0  0  0  0  0  0
    2.0258    0.1275    4.6099 H   0  0  0  0  0  0  0  0  0  0  0  0
    1.7761   -1.4413    5.4075 H   0  0  0  0  0  0  0  0  0  0  0  0
    2.3846   -1.3818    3.7423 H   0  0  0  0  0  0  0  0  0  0  0  0
   -1.0641   -1.0163    6.0859 N   0  0  0  0  0  0  0  0  0  0  0  0
   -2.0108   -0.5058    7.0700 C   0  0  0  0  0  0  0  0  0  0  0  0
   -0.6844   -1.9508    6.2068 H   0  0  0  0  0  0  0  0  0  0  0  0
   -1.6628    0.4491    7.4782 H   0  0  0  0  0  0  0  0  0  0  0  0
   -2.9948   -0.3564    6.6130 H   0  0  0  0  0  0  0  0  0  0  0  0
   -2.1170   -1.2156    7.8963 H   0  0  0  0  0  0  0  0  0  0  0  0
  1  2  2  0  0  0  0
  1  3  1  0  0  0  0
  1  7  1  0  0  0  0
  3  4  1  0  0  0  0
  3  5  1  0  0  0  0
  3  6  1  0  0  0  0
  7  8  1  0  0  0  0
  7 12  1  0  0  0  0
  8  9  1  0  0  0  0
  8 11  1  0  0  0  0
  8 13  1  0  0  0  0
  9 10  2  0  0  0  0
  9 17  1  0  0  0  0
 11 14  1  0  0  0  0
 11 15  1  0  0  0  0
 11 16  1  0  0  0  0
 17 18  1  0  0  0  0
 17 21  1  0  0  0  0
 18 19  1  0  0  0  0
 18 22  1  0  0  0  0
 18 23  1  0  0  0  0
 19 20  2  0  0  0  0
 19 24  1  0  0  0  0
 24 25  1  0  0  0  0
 24 29  1  0  0  0  0
 25 26  1  0  0  0  0
 25 28  1  0  0  0  0
 25 30  1  0  0  0  0
 26 27  2  0  0  0  0
 26 34  1  0  0  0  0
 28 31  1  0  0  0  0
 28 32  1  0  0  0  0
 28 33  1  0  0  0  0
 34 35  1  0  0  0  0
 34 36  1  0  0  0  0
 35 37  1  0  0  0  0
 35 38  1  0  0  0  0
 35 39  1  0  0  0  0
M  END
$$$$

  -OEChem-05262216283D

 39 38  0     1  0  0  0  0  0999 V2000
   -4.9172   -2.4084   -2.3335 C   0  0  0  0  0  0  0  0  0  0  0  0
   -4.5869   -3.5620   -2.5590 O   0  0  0  0  0  0  0  0  0  0  0  0
   -6.3858   -2.0461   -2.2148 C   0  0  0  0  0  0  0  0  0  0  0  0
   -6.6400   -1.2738   -2.9450 H   0  0  0  0  0  0  0  0  0  0  0  0
   -7.0078   -2.9260   -2.4019 H   0  0  0  0  0  0  0  0  0  0  0  0
   -6.5979   -1.6719   -1.2103 H   0  0  0  0  0  0  0  0  0  0  0  0
   -3.9561   -1.4324   -2.1773 N   0  0  0  0  0  0  0  0  0  0  0  0
   -2.5110   -1.6904   -2.1250 C   0  0  2  0  0  0  0  0  0  0  0  0
   -1.7840   -0.6733   -1.2193 C   0  0  0  0  0  0  0  0  0  0  0  0
   -2.3809    0.3090   -0.7912 O   0  0  0  0  0  0  0  0  0  0  0  0
   -1.9580   -1.6358   -3.5527 C   0  0  0  0  0  0  0  0  0  0  0  0
   -4.2688   -0.5156   -1.8588 H   0  0  0  0  0  0  0  0  0  0  0  0
   -2.3291   -2.6861   -1.7058 H   0  0  0  0  0  0  0  0  0  0  0  0
   -2.1288   -0.6479   -3.9921 H   0  0  0  0  0  0  0  0  0  0  0  0
   -0.8830   -1.8389   -3.5581 H   0  0  0  0  0  0  0  0  0  0  0  0
   -2.4517   -2.3857   -4.1788 H   0  0  0  0  0  0  0  0  0  0  0  0
   -0.4649   -0.8764   -0.8578 N   0  0  0  0  0  0  0  0  0  0  0  0
    0.2455   -0.0763    0.1529 C   0  0  0  0  0  0  0  0  0  0  0  0
    0.4164   -0.8513    1.4634 C   0  0  0  0  0  0  0  0  0  0  0  0
    0.9681   -1.9445    1.4427 O   0  0  0  0  0  0  0  0  0  0  0  0
   -0.0665   -1.7847   -1.0896 H   0  0  0  0  0  0  0  0  0  0  0  0
   -0.2775    0.8627    0.3587 H   0  0  0  0  0  0  0  0  0  0  0  0
    1.2367    0.1900   -0.2245 H   0  0  0  0  0  0  0  0  0  0  0  0
   -0.1172   -0.3769    2.6452 N   0  0  0  0  0  0  0  0  0  0  0  0
   -0.1512   -1.1339    3.9032 C   0  0  2  0  0  0  0  0  0  0  0  0
   -1.3079   -0.6682    4.8128 C   0  0  0  0  0  0  0  0  0  0  0  0
   -1.8917    0.3839    4.5769 O   0  0  0  0  0  0  0  0  0  0  0  0
    1.1932   -0.9582    4.6174 C   0  0  0  0  0  0  0  0  0  0  0  0
   -0.7165    0.4485    2.5932 H   0  0  0  0  0  0  0  0  0  0  0  0
   -0.3116   -2.1956    3.6867 H   0  0  0  0  0  0  0  0  0  0  0  0
    1.3710    0.0986    4.8405 H   0  0  0  0  0  0  0  0  0  0  0  0
    1.2060   -1.5205    5.5555 H   0  0  0  0  0  0  0  0  0  0  0  0
    2.0105   -1.3234    3.9877 H   0  0  0  0  0  0  0  0  0  0  0  0
   -1.7026   -1.4333    5.8949 N   0  0  0  0  0  0  0  0  0  0  0  0
   -2.7943   -1.0562    6.7850 C   0  0  0  0  0  0  0  0  0  0  0  0
   -1.2174   -2.3115    6.0540 H   0  0  0  0  0  0  0  0  0  0  0  0
   -2.5906   -0.0863    7.2510 H   0  0  0  0  0  0  0  0  0  0  0  0
   -3.7362   -0.9894    6.2303 H   0  0  0  0  0  0  0  0  0  0  0  0
   -2.9119   -1.8020    7.5771 H   0  0  0  0  0  0  0  0  0  0  0  0
  1  2  2  0  0  0  0
  1  3  1  0  0  0  0
  1  7  1  0  0  0  0
  3  4  1  0  0  0  0
  3  5  1  0  0  0  0
  3  6  1  0  0  0  0
  7  8  1  0  0  0  0
  7 12  1  0  0  0  0
  8  9  1  0  0  0  0
  8 11  1  0  0  0  0
  8 13  1  0  0  0  0
  9 10  2  0  0  0  0
  9 17  1  0  0  0  0
 11 14  1  0  0  0  0
 11 15  1  0  0  0  0
 11 16  1  0  0  0  0
 17 18  1  0  0  0  0
 17 21  1  0  0  0  0
 18 19  1  0  0  0  0
 18 22  1  0  0  0  0
 18 23  1  0  0  0  0
 19 20  2  0  0  0  0
 19 24  1  0  0  0  0
 24 25  1  0  0  0  0
 24 29  1  0  0  0  0
 25 26  1  0  0  0  0
 25 28  1  0  0  0  0
 25 30  1  0  0  0  0
 26 27  2  0  0  0  0
 26 34  1  0  0  0  0
 28 31  1  0  0  0  0
 28 32  1  0  0  0  0
 28 33  1  0  0  0  0
 34 35  1  0  0  0  0
 34 36  1  0  0  0  0
 35 37  1  0  0  0  0
 35 38  1  0  0  0  0
 35 39  1  0  0  0  0
M  END
$$$$

  -OEChem-05262216283D

 39 38  0     1  0  0  0  0  0999 V2000
   -4.3599   -2.3080   -1.1194 C   0  0  0  0  0  0  0  0  0  0  0  0
   -3.7261   -3.2974   -0.7865 O   0  0  0  0  0  0  0  0  0  0  0  0
   -5.7251   -2.0399   -0.5148 C   0  0  0  0  0  0  0  0  0  0  0  0
   -6.4811   -1.9946   -1.3024 H   0  0  0  0  0  0  0  0  0  0  0  0
   -5.9917   -2.8380    0.1835 H   0  0  0  0  0  0  0  0  0  0  0  0
   -5.7121   -1.0898    0.0254 H   0  0  0  0  0  0  0  0  0  0  0  0
   -3.8245   -1.4121   -2.0218 N   0  0  0  0  0  0  0  0  0  0  0  0
   -2.4069   -1.4364   -2.4058 C   0  0  2  0  0  0  0  0  0  0  0  0
   -1.5556   -0.5625   -1.4613 C   0  0  0  0  0  0  0  0  0  0  0  0
   -1.9874    0.5181   -1.0755 O   0  0  0  0  0  0  0  0  0  0  0  0
   -2.3006   -0.9360   -3.8473 C   0  0  0  0  0  0  0  0  0  0  0  0
   -4.2911   -0.5095   -2.0668 H   0  0  0  0  0  0  0  0  0  0  0  0
   -2.0203   -2.4606   -2.3725 H   0  0  0  0  0  0  0  0  0  0  0  0
   -2.6699    0.0917   -3.9262 H   0  0  0  0  0  0  0  0  0  0  0  0
   -1.2587   -0.9572   -4.1816 H   0  0  0  0  0  0  0  0  0  0  0  0
   -2.8917   -1.5721   -4.5135 H   0  0  0  0  0  0  0  0  0  0  0  0
   -0.3115   -0.9897   -1.0347 N   0  0  0  0  0  0  0  0  0  0  0  0
    0.4671   -0.3098    0.0131 C   0  0  0  0  0  0  0  0  0  0  0  0
    0.4285   -1.0933    1.3275 C   0  0  0  0  0  0  0  0  0  0  0  0
    1.0521   -2.1429    1.4157 O   0  0  0  0  0  0  0  0  0  0  0  0
   -0.0750   -1.9605   -1.2319 H   0  0  0  0  0  0  0  0  0  0  0  0
    0.1070    0.7081    0.1909 H   0  0  0  0  0  0  0  0  0  0  0  0
    1.5092   -0.2240   -0.3077 H   0  0  0  0  0  0  0  0  0  0  0  0
   -0.3478   -0.6612    2.3845 N   0  0  0  0  0  0  0  0  0  0  0  0
   -0.6201   -1.4663    3.5822 C   0  0  2  0  0  0  0  0  0  0  0  0
   -2.0288   -1.1899    4.1483 C   0  0  0  0  0  0  0  0  0  0  0  0
   -2.6597   -0.2033    3.7846 O   0  0  0  0  0  0  0  0  0  0  0  0
    0.4533   -1.1543    4.6294 C   0  0  0  0  0  0  0  0  0  0  0  0
   -0.9968    0.1050    2.1962 H   0  0  0  0  0  0  0  0  0  0  0  0
   -0.5780   -2.5308    3.3280 H   0  0  0  0  0  0  0  0  0  0  0  0
    0.4119   -0.0986    4.9162 H   0  0  0  0  0  0  0  0  0  0  0  0
    0.3062   -1.7653    5.5249 H   0  0  0  0  0  0  0  0  0  0  0  0
    1.4489   -1.3681    4.2273 H   0  0  0  0  0  0  0  0  0  0  0  0
   -2.5970   -2.0581    5.0623 N   0  0  0  0  0  0  0  0  0  0  0  0
   -3.9417   -1.8865    5.5986 C   0  0  0  0  0  0  0  0  0  0  0  0
   -2.0722   -2.8933    5.3053 H   0  0  0  0  0  0  0  0  0  0  0  0
   -4.0395   -0.9103    6.0853 H   0  0  0  0  0  0  0  0  0  0  0  0
   -4.6844   -1.9573    4.7968 H   0  0  0  0  0  0  0  0  0  0  0  0
   -4.1562   -2.6625    6.3397 H   0  0  0  0  0  0  0  0  0  0  0  0
  1  2  2  0  0  0  0
  1  3  1  0  0  0  0
  1  7  1  0  0  0  0
  3  4  1  0  0  0  0
  3  5  1  0  0  0  0
  3  6  1  0  0  0  0
  7  8  1  0  0  0  0
  7 12  1  0  0  0  0
  8  9  1  0  0  0  0
  8 11  1  0  0  0  0
  8 13  1  0  0  0  0
  9 10  2  0  0  0  0
  9 17  1  0  0  0  0
 11 14  1  0  0  0  0
 11 15  1  0  0  0  0
 11 16  1  0  0  0  0
 17 18  1  0  0  0  0
 17 21  1  0  0  0  0
 18 19  1  0  0  0  0
 18 22  1  0  0  0  0
 18 23  1  0  0  0  0
 19 20  2  0  0  0  0
 19 24  1  0  0  0  0
 24 25  1  0  0  0  0
 24 29  1  0  0  0  0
 25 26  1  0  0  0  0
 25 28  1  0  0  0  0
 25 30  1  0  0  0  0
 26 27  2  0  0  0  0
 26 34  1  0  0  0  0
 28 31  1  0  0  0  0
 28 32  1  0  0  0  0
 28 33  1  0  0  0  0
 34 35  1  0  0  0  0
 34 36  1  0  0  0  0
 35 37  1  0  0  0  0
 35 38  1  0  0  0  0
 35 39  1  0  0  0  0
M  END
$$$$

  -OEChem-05262216283D

 39 38  0     1  0  0  0  0  0999 V2000
   -4.0689   -2.9363   -2.3053 C   0  0  0  0  0  0  0  0  0  0  0  0
   -3.2649   -3.7829   -1.9477 O   0  0  0  0  0  0  0  0  0  0  0  0
   -5.5569   -3.1909   -2.1543 C   0  0  0  0  0  0  0  0  0  0  0  0
   -6.0626   -3.0377   -3.1108 H   0  0  0  0  0  0  0  0  0  0  0  0
   -5.7324   -4.2189   -1.8248 H   0  0  0  0  0  0  0  0  0  0  0  0
   -5.9775   -2.5059   -1.4137 H   0  0  0  0  0  0  0  0  0  0  0  0
   -3.6322   -1.7302   -2.8134 N   0  0  0  0  0  0  0  0  0  0  0  0
   -2.2358   -1.2850   -2.6995 C   0  0  2  0  0  0  0  0  0  0  0  0
   -2.0054   -0.4396   -1.4292 C   0  0  0  0  0  0  0  0  0  0  0  0
   -2.9307    0.1957   -0.9354 O   0  0  0  0  0  0  0  0  0  0  0  0
   -1.8956   -0.4761   -3.9522 C   0  0  0  0  0  0  0  0  0  0  0  0
   -4.3388   -1.0000   -2.8565 H   0  0  0  0  0  0  0  0  0  0  0  0
   -1.5632   -2.1485   -2.6594 H   0  0  0  0  0  0  0  0  0  0  0  0
   -2.5323    0.4118   -4.0221 H   0  0  0  0  0  0  0  0  0  0  0  0
   -0.8503   -0.1530   -3.9250 H   0  0  0  0  0  0  0  0  0  0  0  0
   -2.0454   -1.0858   -4.8487 H   0  0  0  0  0  0  0  0  0  0  0  0
   -0.7611   -0.4037   -0.8275 N   0  0  0  0  0  0  0  0  0  0  0  0
   -0.4955    0.2425    0.4682 C   0  0  0  0  0  0  0  0  0  0  0  0
   -0.3218   -0.7989    1.5757 C   0  0  0  0  0  0  0  0  0  0  0  0
    0.7899   -1.2779    1.7435 O   0  0  0  0  0  0  0  0  0  0  0  0
   -0.0627   -1.0550   -1.1799 H   0  0  0  0  0  0  0  0  0  0  0  0
   -1.2959    0.9337    0.7500 H   0  0  0  0  0  0  0  0  0  0  0  0
    0.4212    0.8357    0.3992 H   0  0  0  0  0  0  0  0  0  0  0  0
   -1.4429   -1.2093    2.2790 N   0  0  0  0  0  0  0  0  0  0  0  0
   -1.5716   -2.1021    3.4534 C   0  0  2  0  0  0  0  0  0  0  0  0
   -2.3286   -1.3693    4.5899 C   0  0  0  0  0  0  0  0  0  0  0  0
   -3.0007   -0.3757    4.3352 O   0  0  0  0  0  0  0  0  0  0  0  0
   -0.2551   -2.7064    3.9767 C   0  0  0  0  0  0  0  0  0  0  0  0
   -2.2823   -0.6684    2.0659 H   0  0  0  0  0  0  0  0  0  0  0  0
   -2.2007   -2.9433    3.1473 H   0  0  0  0  0  0  0  0  0  0  0  0
    0.4234   -1.9173    4.3163 H   0  0  0  0  0  0  0  0  0  0  0  0
   -0.4403   -3.3893    4.8102 H   0  0  0  0  0  0  0  0  0  0  0  0
    0.2383   -3.2830    3.1882 H   0  0  0  0  0  0  0  0  0  0  0  0
   -2.3419   -1.8574    5.8850 N   0  0  0  0  0  0  0  0  0  0  0  0
   -3.0608   -1.2142    6.9784 C   0  0  0  0  0  0  0  0  0  0  0  0
   -1.7716   -2.6734    6.0845 H   0  0  0  0  0  0  0  0  0  0  0  0
   -2.7023   -0.1898    7.1240 H   0  0  0  0  0  0  0  0  0  0  0  0
   -4.1346   -1.1846    6.7657 H   0  0  0  0  0  0  0  0  0  0  0  0
   -2.9085   -1.7685    7.9094 H   0  0  0  0  0  0  0  0  0  0  0  0
  1  2  2  0  0  0  0
  1  3  1  0  0  0  0
  1  7  1  0  0  0  0
  3  4  1  0  0  0  0
  3  5  1  0  0  0  0
  3  6  1  0  0  0  0
  7  8  1  0  0  0  0
  7 12  1  0  0  0  0
  8  9  1  0  0  0  0
  8 11  1  0  0  0  0
  8 13  1  0  0  0  0
  9 10  2  0  0  0  0
  9 17  1  0  0  0  0
 11 14  1  0  0  0  0
 11 15  1  0  0  0  0
 11 16  1  0  0  0  0
 17 18  1  0  0  0  0
 17 21  1  0  0  0  0
 18 19  1  0  0  0  0
 18 22  1  0  0  0  0
 18 23  1  0  0  0  0
 19 20  2  0  0  0  0
 19 24  1  0  0  0  0
 24 25  1  0  0  0  0
 24 29  1  0  0  0  0
 25 26  1  0  0  0  0
 25 28  1  0  0  0  0
 25 30  1  0  0  0  0
 26 27  2  0  0  0  0
 26 34  1  0  0  0  0
 28 31  1  0  0  0  0
 28 32  1  0  0  0  0
 28 33  1  0  0  0  0
 34 35  1  0  0  0  0
 34 36  1  0  0  0  0
 35 37  1  0  0  0  0
 35 38  1  0  0  0  0
 35 39  1  0  0  0  0
M  END
$$$$

  -OEChem-05262216283D

 39 38  0     1  0  0  0  0  0999 V2000
   -2.0407   -3.1926   -2.5989 C   0  0  0  0  0  0  0  0  0  0  0  0
   -0.8513   -3.0278   -2.3738 O   0  0  0  0  0  0  0  0  0  0  0  0
   -2.6225   -4.5917   -2.6704 C   0  0  0  0  0  0  0  0  0  0  0  0
   -3.1037   -4.7486   -3.6388 H   0  0  0  0  0  0  0  0  0  0  0  0
   -1.8301   -5.3358   -2.5477 H   0  0  0  0  0  0  0  0  0  0  0  0
   -3.3607   -4.7310   -1.8767 H   0  0  0  0  0  0  0  0  0  0  0  0
   -2.8599   -2.0897   -2.7295 N   0  0  0  0  0  0  0  0  0  0  0  0
   -2.3798   -0.6988   -2.6836 C   0  0  2  0  0  0  0  0  0  0  0  0
   -2.0769   -0.2171   -1.2424 C   0  0  0  0  0  0  0  0  0  0  0  0
   -2.6964    0.7020   -0.7183 O   0  0  0  0  0  0  0  0  0  0  0  0
   -3.4253    0.1704   -3.3940 C   0  0  0  0  0  0  0  0  0  0  0  0
   -3.8521   -2.2587   -2.8700 H   0  0  0  0  0  0  0  0  0  0  0  0
   -1.4449   -0.6204   -3.2494 H   0  0  0  0  0  0  0  0  0  0  0  0
   -4.3818    0.1377   -2.8624 H   0  0  0  0  0  0  0  0  0  0  0  0
   -3.0882    1.2113   -3.4340 H   0  0  0  0  0  0  0  0  0  0  0  0
   -3.5812   -0.1799   -4.4190 H   0  0  0  0  0  0  0  0  0  0  0  0
   -1.1467   -0.8877   -0.4735 N   0  0  0  0  0  0  0  0  0  0  0  0
   -0.6420   -0.4020    0.8195 C   0  0  0  0  0  0  0  0  0  0  0  0
   -1.2610   -1.1850    1.9759 C   0  0  0  0  0  0  0  0  0  0  0  0
   -0.5931   -1.9905    2.6100 O   0  0  0  0  0  0  0  0  0  0  0  0
   -0.6863   -1.6874   -0.9215 H   0  0  0  0  0  0  0  0  0  0  0  0
   -0.8445    0.6647    0.9571 H   0  0  0  0  0  0  0  0  0  0  0  0
    0.4447   -0.5249    0.8530 H   0  0  0  0  0  0  0  0  0  0  0  0
   -2.5752   -0.9137    2.3125 N   0  0  0  0  0  0  0  0  0  0  0  0
   -3.4149   -1.6350    3.2909 C   0  0  2  0  0  0  0  0  0  0  0  0
   -3.0139   -1.4569    4.7738 C   0  0  0  0  0  0  0  0  0  0  0  0
   -3.8900   -1.3159    5.6175 O   0  0  0  0  0  0  0  0  0  0  0  0
   -3.5067   -3.1241    2.9320 C   0  0  0  0  0  0  0  0  0  0  0  0
   -3.0400   -0.2505    1.6914 H   0  0  0  0  0  0  0  0  0  0  0  0
   -4.4245   -1.2203    3.2049 H   0  0  0  0  0  0  0  0  0  0  0  0
   -2.5480   -3.6275    3.0878 H   0  0  0  0  0  0  0  0  0  0  0  0
   -4.2553   -3.6148    3.5617 H   0  0  0  0  0  0  0  0  0  0  0  0
   -3.7999   -3.2468    1.8853 H   0  0  0  0  0  0  0  0  0  0  0  0
   -1.6935   -1.4917    5.1751 N   0  0  0  0  0  0  0  0  0  0  0  0
   -1.2622   -1.4331    6.5643 C   0  0  0  0  0  0  0  0  0  0  0  0
   -1.0116   -1.7234    4.4479 H   0  0  0  0  0  0  0  0  0  0  0  0
   -1.6592   -0.5368    7.0522 H   0  0  0  0  0  0  0  0  0  0  0  0
   -1.6099   -2.3161    7.1101 H   0  0  0  0  0  0  0  0  0  0  0  0
   -0.1699   -1.3981    6.6174 H   0  0  0  0  0  0  0  0  0  0  0  0
  1  2  2  0  0  0  0
  1  3  1  0  0  0  0
  1  7  1  0  0  0  0
  3  4  1  0  0  0  0
  3  5  1  0  0  0  0
  3  6  1  0  0  0  0
  7  8  1  0  0  0  0
  7 12  1  0  0  0  0
  8  9  1  0  0  0  0
  8 11  1  0  0  0  0
  8 13  1  0  0  0  0
  9 10  2  0  0  0  0
  9 17  1  0  0  0  0
 11 14  1  0  0  0  0
 11 15  1  0  0  0  0
 11 16  1  0  0  0  0
 17 18  1  0  0  0  0
 17 21  1  0  0  0  0
 18 19  1  0  0  0  0
 18 22  1  0  0  0  0
 18 23  1  0  0  0  0
 19 20  2  0  0  0  0
 19 24  1  0  0  0  0
 24 25  1  0  0  0  0
 24 29  1  0  0  0  0
 25 26  1  0  0  0  0
 25 28  1  0  0  0  0
 25 30  1  0  0  0  0
 26 27  2  0  0  0  0
 26 34  1  0  0  0  0
 28 31  1  0  0  0  0
 28 32  1  0  0  0  0
 28 33  1  0  0  0  0
 34 35  1  0  0  0  0
 34 36  1  0  0  0  0
 35 37  1  0  0  0  0
 35 38  1  0  0  0  0
 35 39  1  0  0  0  0
M  END
$$$$

  -OEChem-05262216283D

 39 38  0     1  0  0  0  0  0999 V2000
   -1.5481   -3.1396   -2.6854 C   0  0  0  0  0  0  0  0  0  0  0  0
   -0.4120   -2.8787   -2.3188 O   0  0  0  0  0  0  0  0  0  0  0  0
   -1.9885   -4.5813   -2.8547 C   0  0  0  0  0  0  0  0  0  0  0  0
   -2.4075   -4.7321   -3.8527 H   0  0  0  0  0  0  0  0  0  0  0  0
   -1.1347   -5.2530   -2.7274 H   0  0  0  0  0  0  0  0  0  0  0  0
   -2.7460   -4.8307   -2.1076 H   0  0  0  0  0  0  0  0  0  0  0  0
   -2.4458   -2.1098   -2.8834 N   0  0  0  0  0  0  0  0  0  0  0  0
   -2.1093   -0.6844   -2.7354 C   0  0  2  0  0  0  0  0  0  0  0  0
   -2.0161   -0.2462   -1.2522 C   0  0  0  0  0  0  0  0  0  0  0  0
   -2.8085    0.5448   -0.7545 O   0  0  0  0  0  0  0  0  0  0  0  0
   -3.1487    0.1183   -3.5285 C   0  0  0  0  0  0  0  0  0  0  0  0
   -3.3960   -2.3612   -3.1419 H   0  0  0  0  0  0  0  0  0  0  0  0
   -1.1298   -0.4946   -3.1877 H   0  0  0  0  0  0  0  0  0  0  0  0
   -4.1526   -0.0381   -3.1208 H   0  0  0  0  0  0  0  0  0  0  0  0
   -2.9197    1.1878   -3.4800 H   0  0  0  0  0  0  0  0  0  0  0  0
   -3.1456   -0.1864   -4.5796 H   0  0  0  0  0  0  0  0  0  0  0  0
   -1.0944   -0.8435   -0.4160 N   0  0  0  0  0  0  0  0  0  0  0  0
   -0.7854   -0.3824    0.9474 C   0  0  0  0  0  0  0  0  0  0  0  0
   -1.4155   -1.3009    1.9944 C   0  0  0  0  0  0  0  0  0  0  0  0
   -0.7192   -1.8693    2.8243 O   0  0  0  0  0  0  0  0  0  0  0  0
   -0.4960   -1.5560   -0.8482 H   0  0  0  0  0  0  0  0  0  0  0  0
   -1.1376    0.6406    1.1136 H   0  0  0  0  0  0  0  0  0  0  0  0
    0.2998   -0.3754    1.0897 H   0  0  0  0  0  0  0  0  0  0  0  0
   -2.7920   -1.4419    1.9905 N   0  0  0  0  0  0  0  0  0  0  0  0
   -3.6045   -2.3620    2.8121 C   0  0  2  0  0  0  0  0  0  0  0  0
   -3.6464   -2.0412    4.3243 C   0  0  0  0  0  0  0  0  0  0  0  0
   -4.7159   -2.0907    4.9184 O   0  0  0  0  0  0  0  0  0  0  0  0
   -3.1759   -3.8175    2.5799 C   0  0  0  0  0  0  0  0  0  0  0  0
   -3.2695   -0.8987    1.2701 H   0  0  0  0  0  0  0  0  0  0  0  0
   -4.6368   -2.2700    2.4597 H   0  0  0  0  0  0  0  0  0  0  0  0
   -2.1824   -4.0073    2.9967 H   0  0  0  0  0  0  0  0  0  0  0  0
   -3.8833   -4.4991    3.0625 H   0  0  0  0  0  0  0  0  0  0  0  0
   -3.1539   -4.0427    1.5096 H   0  0  0  0  0  0  0  0  0  0  0  0
   -2.4992   -1.7368    5.0294 N   0  0  0  0  0  0  0  0  0  0  0  0
   -2.4628   -1.4913    6.4642 C   0  0  0  0  0  0  0  0  0  0  0  0
   -1.6228   -1.7755    4.5019 H   0  0  0  0  0  0  0  0  0  0  0  0
   -3.0956   -0.6356    6.7222 H   0  0  0  0  0  0  0  0  0  0  0  0
   -2.8171   -2.3709    7.0118 H   0  0  0  0  0  0  0  0  0  0  0  0
   -1.4391   -1.2731    6.7836 H   0  0  0  0  0  0  0  0  0  0  0  0
  1  2  2  0  0  0  0
  1  3  1  0  0  0  0
  1  7  1  0  0  0  0
  3  4  1  0  0  0  0
  3  5  1  0  0  0  0
  3  6  1  0  0  0  0
  7  8  1  0  0  0  0
  7 12  1  0  0  0  0
  8  9  1  0  0  0  0
  8 11  1  0  0  0  0
  8 13  1  0  0  0  0
  9 10  2  0  0  0  0
  9 17  1  0  0  0  0
 11 14  1  0  0  0  0
 11 15  1  0  0  0  0
 11 16  1  0  0  0  0
 17 18  1  0  0  0  0
 17 21  1  0  0  0  0
 18 19  1  0  0  0  0
 18 22  1  0  0  0  0
 18 23  1  0  0  0  0
 19 20  2  0  0  0  0
 19 24  1  0  0  0  0
 24 25  1  0  0  0  0
 24 29  1  0  0  0  0
 25 26  1  0  0  0  0
 25 28  1  0  0  0  0
 25 30  1  0  0  0  0
 26 27  2  0  0  0  0
 26 34  1  0  0  0  0
 28 31  1  0  0  0  0
 28 32  1  0  0  0  0
 28 33  1  0  0  0  0
 34 35  1  0  0  0  0
 34 36  1  0  0  0  0
 35 37  1  0  0  0  0
 35 38  1  0  0  0  0
 35 39  1  0  0  0  0
M  END
$$$$

  -OEChem-05262216283D

 39 38  0     1  0  0  0  0  0999 V2000
   -3.0581   -3.0752   -2.1373 C   0  0  0  0  0  0  0  0  0  0  0  0
   -2.2470   -3.2314   -1.2346 O   0  0  0  0  0  0  0  0  0  0  0  0
   -4.2393   -4.0162   -2.2759 C   0  0  0  0  0  0  0  0  0  0  0  0
   -4.2632   -4.4415   -3.2822 H   0  0  0  0  0  0  0  0  0  0  0  0
   -4.1584   -4.8323   -1.5522 H   0  0  0  0  0  0  0  0  0  0  0  0
   -5.1715   -3.4754   -2.0934 H   0  0  0  0  0  0  0  0  0  0  0  0
   -2.9207   -1.9999   -2.9915 N   0  0  0  0  0  0  0  0  0  0  0  0
   -1.9257   -0.9437   -2.7589 C   0  0  2  0  0  0  0  0  0  0  0  0
   -2.1722   -0.2065   -1.4234 C   0  0  0  0  0  0  0  0  0  0  0  0
   -3.2812    0.2481   -1.1741 O   0  0  0  0  0  0  0  0  0  0  0  0
   -1.9802    0.0351   -3.9344 C   0  0  0  0  0  0  0  0  0  0  0  0
   -3.7257   -1.7789   -3.5711 H   0  0  0  0  0  0  0  0  0  0  0  0
   -0.9276   -1.3931   -2.7285 H   0  0  0  0  0  0  0  0  0  0  0  0
   -2.9675    0.5043   -3.9992 H   0  0  0  0  0  0  0  0  0  0  0  0
   -1.2312    0.8230   -3.8074 H   0  0  0  0  0  0  0  0  0  0  0  0
   -1.7784   -0.4865   -4.8750 H   0  0  0  0  0  0  0  0  0  0  0  0
   -1.1817   -0.1689   -0.4568 N   0  0  0  0  0  0  0  0  0  0  0  0
   -1.4387    0.1865    0.9518 C   0  0  0  0  0  0  0  0  0  0  0  0
   -1.4198   -1.0317    1.8844 C   0  0  0  0  0  0  0  0  0  0  0  0
   -0.8874   -0.9307    2.9813 O   0  0  0  0  0  0  0  0  0  0  0  0
   -0.3415   -0.7054   -0.6610 H   0  0  0  0  0  0  0  0  0  0  0  0
   -2.4053    0.6863    1.0685 H   0  0  0  0  0  0  0  0  0  0  0  0
   -0.6744    0.8947    1.2852 H   0  0  0  0  0  0  0  0  0  0  0  0
   -2.0751   -2.1968    1.5228 N   0  0  0  0  0  0  0  0  0  0  0  0
   -2.1125   -3.4740    2.2639 C   0  0  2  0  0  0  0  0  0  0  0  0
   -2.9115   -3.4484    3.5874 C   0  0  0  0  0  0  0  0  0  0  0  0
   -3.6932   -4.3572    3.8387 O   0  0  0  0  0  0  0  0  0  0  0  0
   -0.6966   -4.0211    2.4887 C   0  0  0  0  0  0  0  0  0  0  0  0
   -2.3887   -2.2343    0.5500 H   0  0  0  0  0  0  0  0  0  0  0  0
   -2.6310   -4.1899    1.6175 H   0  0  0  0  0  0  0  0  0  0  0  0
   -0.1405   -3.4028    3.1993 H   0  0  0  0  0  0  0  0  0  0  0  0
   -0.7477   -5.0385    2.8888 H   0  0  0  0  0  0  0  0  0  0  0  0
   -0.1471   -4.0489    1.5429 H   0  0  0  0  0  0  0  0  0  0  0  0
   -2.7432   -2.4347    4.5091 N   0  0  0  0  0  0  0  0  0  0  0  0
   -3.4432   -2.3590    5.7834 C   0  0  0  0  0  0  0  0  0  0  0  0
   -2.0506   -1.7205    4.2699 H   0  0  0  0  0  0  0  0  0  0  0  0
   -3.1073   -1.4824    6.3457 H   0  0  0  0  0  0  0  0  0  0  0  0
   -4.5228   -2.2743    5.6213 H   0  0  0  0  0  0  0  0  0  0  0  0
   -3.2446   -3.2525    6.3845 H   0  0  0  0  0  0  0  0  0  0  0  0
  1  2  2  0  0  0  0
  1  3  1  0  0  0  0
  1  7  1  0  0  0  0
  3  4  1  0  0  0  0
  3  5  1  0  0  0  0
  3  6  1  0  0  0  0
  7  8  1  0  0  0  0
  7 12  1  0  0  0  0
  8  9  1  0  0  0  0
  8 11  1  0  0  0  0
  8 13  1  0  0  0  0
  9 10  2  0  0  0  0
  9 17  1  0  0  0  0
 11 14  1  0  0  0  0
 11 15  1  0  0  0  0
 11 16  1  0  0  0  0
 17 18  1  0  0  0  0
 17 21  1  0  0  0  0
 18 19  1  0  0  0  0
 18 22  1  0  0  0  0
 18 23  1  0  0  0  0
 19 20  2  0  0  0  0
 19 24  1  0  0  0  0
 24 25  1  0  0  0  0
 24 29  1  0  0  0  0
 25 26  1  0  0  0  0
 25 28  1  0  0  0  0
 25 30  1  0  0  0  0
 26 27  2  0  0  0  0
 26 34  1  0  0  0  0
 28 31  1  0  0  0  0
 28 32  1  0  0  0  0
 28 33  1  0  0  0  0
 34 35  1  0  0  0  0
 34 36  1  0  0  0  0
 35 37  1  0  0  0  0
 35 38  1  0  0  0  0
 35 39  1  0  0  0  0
M  END
$$$$

  -OEChem-05262216283D

 39 38  0     1  0  0  0  0  0999 V2000
   -2.8011   -3.2089   -2.0009 C   0  0  0  0  0  0  0  0  0  0  0  0
   -1.8776   -3.3029   -2.7950 O   0  0  0  0  0  0  0  0  0  0  0  0
   -3.3427   -4.4530   -1.3237 C   0  0  0  0  0  0  0  0  0  0  0  0
   -3.2720   -5.3084   -2.0005 H   0  0  0  0  0  0  0  0  0  0  0  0
   -2.7658   -4.6657   -0.4210 H   0  0  0  0  0  0  0  0  0  0  0  0
   -4.3904   -4.3075   -1.0495 H   0  0  0  0  0  0  0  0  0  0  0  0
   -3.2592   -1.9548   -1.6542 N   0  0  0  0  0  0  0  0  0  0  0  0
   -2.7510   -0.6991   -2.2428 C   0  0  2  0  0  0  0  0  0  0  0  0
   -1.4206   -0.2396   -1.5952 C   0  0  0  0  0  0  0  0  0  0  0  0
   -1.2711    0.8911   -1.1523 O   0  0  0  0  0  0  0  0  0  0  0  0
   -3.8700    0.3415   -2.1112 C   0  0  0  0  0  0  0  0  0  0  0  0
   -3.7933   -1.9062   -0.7830 H   0  0  0  0  0  0  0  0  0  0  0  0
   -2.5549   -0.8470   -3.3103 H   0  0  0  0  0  0  0  0  0  0  0  0
   -4.0958    0.5336   -1.0572 H   0  0  0  0  0  0  0  0  0  0  0  0
   -3.5701    1.2849   -2.5785 H   0  0  0  0  0  0  0  0  0  0  0  0
   -4.7793   -0.0139   -2.6053 H   0  0  0  0  0  0  0  0  0  0  0  0
   -0.4857   -1.2026   -1.2745 N   0  0  0  0  0  0  0  0  0  0  0  0
    0.6972   -1.0120   -0.4153 C   0  0  0  0  0  0  0  0  0  0  0  0
    0.4570   -1.6547    0.9565 C   0  0  0  0  0  0  0  0  0  0  0  0
    1.3438   -2.2528    1.5484 O   0  0  0  0  0  0  0  0  0  0  0  0
   -0.6515   -2.1247   -1.6887 H   0  0  0  0  0  0  0  0  0  0  0  0
    0.9219    0.0498   -0.2751 H   0  0  0  0  0  0  0  0  0  0  0  0
    1.5728   -1.4735   -0.8811 H   0  0  0  0  0  0  0  0  0  0  0  0
   -0.8405   -1.7022    1.4259 N   0  0  0  0  0  0  0  0  0  0  0  0
   -1.3451   -2.5743    2.4870 C   0  0  2  0  0  0  0  0  0  0  0  0
   -2.7916   -3.0263    2.1816 C   0  0  0  0  0  0  0  0  0  0  0  0
   -3.4243   -2.5240    1.2528 O   0  0  0  0  0  0  0  0  0  0  0  0
   -1.2745   -1.8095    3.8110 C   0  0  0  0  0  0  0  0  0  0  0  0
   -1.5345   -1.2555    0.8269 H   0  0  0  0  0  0  0  0  0  0  0  0
   -0.7217   -3.4724    2.5545 H   0  0  0  0  0  0  0  0  0  0  0  0
   -1.8897   -0.9051    3.7643 H   0  0  0  0  0  0  0  0  0  0  0  0
   -1.6301   -2.4324    4.6368 H   0  0  0  0  0  0  0  0  0  0  0  0
   -0.2409   -1.5164    4.0216 H   0  0  0  0  0  0  0  0  0  0  0  0
   -3.3787   -4.0389    2.9167 N   0  0  0  0  0  0  0  0  0  0  0  0
   -4.7299   -4.5310    2.6739 C   0  0  0  0  0  0  0  0  0  0  0  0
   -2.8368   -4.4437    3.6757 H   0  0  0  0  0  0  0  0  0  0  0  0
   -5.4589   -3.7209    2.7822 H   0  0  0  0  0  0  0  0  0  0  0  0
   -4.8118   -4.9462    1.6639 H   0  0  0  0  0  0  0  0  0  0  0  0
   -4.9804   -5.3185    3.3914 H   0  0  0  0  0  0  0  0  0  0  0  0
  1  2  2  0  0  0  0
  1  3  1  0  0  0  0
  1  7  1  0  0  0  0
  3  4  1  0  0  0  0
  3  5  1  0  0  0  0
  3  6  1  0  0  0  0
  7  8  1  0  0  0  0
  7 12  1  0  0  0  0
  8  9  1  0  0  0  0
  8 11  1  0  0  0  0
  8 13  1  0  0  0  0
  9 10  2  0  0  0  0
  9 17  1  0  0  0  0
 11 14  1  0  0  0  0
 11 15  1  0  0  0  0
 11 16  1  0  0  0  0
 17 18  1  0  0  0  0
 17 21  1  0  0  0  0
 18 19  1  0  0  0  0
 18 22  1  0  0  0  0
 18 23  1  0  0  0  0
 19 20  2  0  0  0  0
 19 24  1  0  0  0  0
 24 25  1  0  0  0  0
 24 29  1  0  0  0  0
 25 26  1  0  0  0  0
 25 28  1  0  0  0  0
 25 30  1  0  0  0  0
 26 27  2  0  0  0  0
 26 34  1  0  0  0  0
 28 31  1  0  0  0  0
 28 32  1  0  0  0  0
 28 33  1  0  0  0  0
 34 35  1  0  0  0  0
 34 36  1  0  0  0  0
 35 37  1  0  0  0  0
 35 38  1  0  0  0  0
 35 39  1  0  0  0  0
M  END
$$$$

  -OEChem-05262216283D

 39 38  0     1  0  0  0  0  0999 V2000
   -2.9170   -3.1189   -2.0775 C   0  0  0  0  0  0  0  0  0  0  0  0
   -1.8030   -3.3779   -2.5103 O   0  0  0  0  0  0  0  0  0  0  0  0
   -3.8542   -4.2374   -1.6627 C   0  0  0  0  0  0  0  0  0  0  0  0
   -4.4115   -4.5959   -2.5314 H   0  0  0  0  0  0  0  0  0  0  0  0
   -3.2809   -5.0659   -1.2380 H   0  0  0  0  0  0  0  0  0  0  0  0
   -4.5623   -3.8833   -0.9094 H   0  0  0  0  0  0  0  0  0  0  0  0
   -3.3188   -1.7997   -2.0134 N   0  0  0  0  0  0  0  0  0  0  0  0
   -2.5599   -0.6715   -2.5826 C   0  0  2  0  0  0  0  0  0  0  0  0
   -1.3797   -0.2244   -1.6855 C   0  0  0  0  0  0  0  0  0  0  0  0
   -1.3050    0.9093   -1.2312 O   0  0  0  0  0  0  0  0  0  0  0  0
   -3.5603    0.4587   -2.8549 C   0  0  0  0  0  0  0  0  0  0  0  0
   -4.2190   -1.6135   -1.5790 H   0  0  0  0  0  0  0  0  0  0  0  0
   -2.1313   -0.9739   -3.5444 H   0  0  0  0  0  0  0  0  0  0  0  0
   -4.0017    0.8174   -1.9193 H   0  0  0  0  0  0  0  0  0  0  0  0
   -3.0572    1.2991   -3.3440 H   0  0  0  0  0  0  0  0  0  0  0  0
   -4.3633    0.1096   -3.5113 H   0  0  0  0  0  0  0  0  0  0  0  0
   -0.4354   -1.1595   -1.3111 N   0  0  0  0  0  0  0  0  0  0  0  0
    0.6918   -0.9197   -0.3901 C   0  0  0  0  0  0  0  0  0  0  0  0
    0.4550   -1.5418    0.9910 C   0  0  0  0  0  0  0  0  0  0  0  0
    1.3924   -1.7623    1.7447 O   0  0  0  0  0  0  0  0  0  0  0  0
   -0.5704   -2.1000   -1.6981 H   0  0  0  0  0  0  0  0  0  0  0  0
    0.8695    0.1523   -0.2590 H   0  0  0  0  0  0  0  0  0  0  0  0
    1.6033   -1.3499   -0.8142 H   0  0  0  0  0  0  0  0  0  0  0  0
   -0.8155   -1.9489    1.3447 N   0  0  0  0  0  0  0  0  0  0  0  0
   -1.1592   -2.7437    2.5255 C   0  0  2  0  0  0  0  0  0  0  0  0
   -2.3834   -3.6415    2.2528 C   0  0  0  0  0  0  0  0  0  0  0  0
   -3.1491   -3.3849    1.3272 O   0  0  0  0  0  0  0  0  0  0  0  0
   -1.4398   -1.7886    3.6884 C   0  0  0  0  0  0  0  0  0  0  0  0
   -1.5436   -1.8097    0.6457 H   0  0  0  0  0  0  0  0  0  0  0  0
   -0.3190   -3.3958    2.7872 H   0  0  0  0  0  0  0  0  0  0  0  0
   -2.2773   -1.1260    3.4467 H   0  0  0  0  0  0  0  0  0  0  0  0
   -1.6875   -2.3494    4.5945 H   0  0  0  0  0  0  0  0  0  0  0  0
   -0.5575   -1.1738    3.8936 H   0  0  0  0  0  0  0  0  0  0  0  0
   -2.6224   -4.7519    3.0404 N   0  0  0  0  0  0  0  0  0  0  0  0
   -3.7379   -5.6651    2.8255 C   0  0  0  0  0  0  0  0  0  0  0  0
   -1.9621   -4.9482    3.7876 H   0  0  0  0  0  0  0  0  0  0  0  0
   -4.6911   -5.1454    2.9680 H   0  0  0  0  0  0  0  0  0  0  0  0
   -3.7079   -6.0766    1.8109 H   0  0  0  0  0  0  0  0  0  0  0  0
   -3.6877   -6.4964    3.5353 H   0  0  0  0  0  0  0  0  0  0  0  0
  1  2  2  0  0  0  0
  1  3  1  0  0  0  0
  1  7  1  0  0  0  0
  3  4  1  0  0  0  0
  3  5  1  0  0  0  0
  3  6  1  0  0  0  0
  7  8  1  0  0  0  0
  7 12  1  0  0  0  0
  8  9  1  0  0  0  0
  8 11  1  0  0  0  0
  8 13  1  0  0  0  0
  9 10  2  0  0  0  0
  9 17  1  0  0  0  0
 11 14  1  0  0  0  0
 11 15  1  0  0  0  0
 11 16  1  0  0  0  0
 17 18  1  0  0  0  0
 17 21  1  0  0  0  0
 18 19  1  0  0  0  0
 18 22  1  0  0  0  0
 18 23  1  0  0  0  0
 19 20  2  0  0  0  0
 19 24  1  0  0  0  0
 24 25  1  0  0  0  0
 24 29  1  0  0  0  0
 25 26  1  0  0  0  0
 25 28  1  0  0  0  0
 25 30  1  0  0  0  0
 26 27  2  0  0  0  0
 26 34  1  0  0  0  0
 28 31  1  0  0  0  0
 28 32  1  0  0  0  0
 28 33  1  0  0  0  0
 34 35  1  0  0  0  0
 34 36  1  0  0  0  0
 35 37  1  0  0  0  0
 35 38  1  0  0  0  0
 35 39  1  0  0  0  0
M  END
$$$$

  -OEChem-05262216283D

 39 38  0     1  0  0  0  0  0999 V2000
   -2.7214   -3.1044   -2.3060 C   0  0  0  0  0  0  0  0  0  0  0  0
   -1.5680   -3.2267   -2.6931 O   0  0  0  0  0  0  0  0  0  0  0  0
   -3.5478   -4.3264   -1.9546 C   0  0  0  0  0  0  0  0  0  0  0  0
   -4.1815   -4.1186   -1.0889 H   0  0  0  0  0  0  0  0  0  0  0  0
   -4.1806   -4.6040   -2.8007 H   0  0  0  0  0  0  0  0  0  0  0  0
   -2.8909   -5.1653   -1.7092 H   0  0  0  0  0  0  0  0  0  0  0  0
   -3.2657   -1.8389   -2.2115 N   0  0  0  0  0  0  0  0  0  0  0  0
   -2.5995   -0.6084   -2.6752 C   0  0  2  0  0  0  0  0  0  0  0  0
   -1.5105   -0.1037   -1.6955 C   0  0  0  0  0  0  0  0  0  0  0  0
   -1.5612    1.0068   -1.1842 O   0  0  0  0  0  0  0  0  0  0  0  0
   -3.6970    0.4316   -2.9347 C   0  0  0  0  0  0  0  0  0  0  0  0
   -4.2068   -1.7697   -1.8334 H   0  0  0  0  0  0  0  0  0  0  0  0
   -2.0985   -0.8066   -3.6292 H   0  0  0  0  0  0  0  0  0  0  0  0
   -4.2286    0.6720   -2.0081 H   0  0  0  0  0  0  0  0  0  0  0  0
   -3.2596    1.3536   -3.3312 H   0  0  0  0  0  0  0  0  0  0  0  0
   -4.4178    0.0523   -3.6656 H   0  0  0  0  0  0  0  0  0  0  0  0
   -0.4810   -0.9568   -1.3504 N   0  0  0  0  0  0  0  0  0  0  0  0
    0.6251   -0.6458   -0.4252 C   0  0  0  0  0  0  0  0  0  0  0  0
    0.4644   -1.3258    0.9404 C   0  0  0  0  0  0  0  0  0  0  0  0
    1.3604   -1.2663    1.7704 O   0  0  0  0  0  0  0  0  0  0  0  0
   -0.4993   -1.8734   -1.8107 H   0  0  0  0  0  0  0  0  0  0  0  0
    0.7054    0.4337   -0.2637 H   0  0  0  0  0  0  0  0  0  0  0  0
    1.5680   -0.9781   -0.8683 H   0  0  0  0  0  0  0  0  0  0  0  0
   -0.6353   -2.1243    1.1843 N   0  0  0  0  0  0  0  0  0  0  0  0
   -0.8573   -2.9488    2.3754 C   0  0  2  0  0  0  0  0  0  0  0  0
   -1.9193   -4.0352    2.1015 C   0  0  0  0  0  0  0  0  0  0  0  0
   -2.6805   -3.9308    1.1430 O   0  0  0  0  0  0  0  0  0  0  0  0
   -1.3066   -2.0515    3.5346 C   0  0  0  0  0  0  0  0  0  0  0  0
   -1.3320   -2.1769    0.4425 H   0  0  0  0  0  0  0  0  0  0  0  0
    0.0778   -3.4506    2.6457 H   0  0  0  0  0  0  0  0  0  0  0  0
   -2.2405   -1.5398    3.2819 H   0  0  0  0  0  0  0  0  0  0  0  0
   -1.4675   -2.6450    4.4394 H   0  0  0  0  0  0  0  0  0  0  0  0
   -0.5453   -1.2959    3.7521 H   0  0  0  0  0  0  0  0  0  0  0  0
   -2.0232   -5.1378    2.9293 N   0  0  0  0  0  0  0  0  0  0  0  0
   -2.9979   -6.2035    2.7301 C   0  0  0  0  0  0  0  0  0  0  0  0
   -1.3780   -5.2005    3.7119 H   0  0  0  0  0  0  0  0  0  0  0  0
   -4.0164   -5.8166    2.8395 H   0  0  0  0  0  0  0  0  0  0  0  0
   -2.8916   -6.6394    1.7311 H   0  0  0  0  0  0  0  0  0  0  0  0
   -2.8478   -6.9964    3.4693 H   0  0  0  0  0  0  0  0  0  0  0  0
  1  2  2  0  0  0  0
  1  3  1  0  0  0  0
  1  7  1  0  0  0  0
  3  4  1  0  0  0  0
  3  5  1  0  0  0  0
  3  6  1  0  0  0  0
  7  8  1  0  0  0  0
  7 12  1  0  0  0  0
  8  9  1  0  0  0  0
  8 11  1  0  0  0  0
  8 13  1  0  0  0  0
  9 10  2  0  0  0  0
  9 17  1  0  0  0  0
 11 14  1  0  0  0  0
 11 15  1  0  0  0  0
 11 16  1  0  0  0  0
 17 18  1  0  0  0  0
 17 21  1  0  0  0  0
 18 19  1  0  0  0  0
 18 22  1  0  0  0  0
 18 23  1  0  0  0  0
 19 20  2  0  0  0  0
 19 24  1  0  0  0  0
 24 25  1  0  0  0  0
 24 29  1  0  0  0  0
 25 26  1  0  0  0  0
 25 28  1  0  0  0  0
 25 30  1  0  0  0  0
 26 27  2  0  0  0  0
 26 34  1  0  0  0  0
 28 31  1  0  0  0  0
 28 32  1  0  0  0  0
 28 33  1  0  0  0  0
 34 35  1  0  0  0  0
 34 36  1  0  0  0  0
 35 37  1  0  0  0  0
 35 38  1  0  0  0  0
 35 39  1  0  0  0  0
M  END
$$$$

  -OEChem-05262216283D

 39 38  0     1  0  0  0  0  0999 V2000
   -3.6907   -2.3903   -1.7464 C   0  0  0  0  0  0  0  0  0  0  0  0
   -2.7110   -3.1120   -1.6101 O   0  0  0  0  0  0  0  0  0  0  0  0
   -5.0419   -2.8260   -1.2114 C   0  0  0  0  0  0  0  0  0  0  0  0
   -4.9828   -3.8444   -0.8164 H   0  0  0  0  0  0  0  0  0  0  0  0
   -5.3622   -2.1546   -0.4107 H   0  0  0  0  0  0  0  0  0  0  0  0
   -5.7854   -2.8061   -2.0122 H   0  0  0  0  0  0  0  0  0  0  0  0
   -3.5547   -1.1584   -2.3540 N   0  0  0  0  0  0  0  0  0  0  0  0
   -2.3193   -0.6682   -2.9860 C   0  0  2  0  0  0  0  0  0  0  0  0
   -1.1913   -0.3728   -1.9673 C   0  0  0  0  0  0  0  0  0  0  0  0
   -0.9704    0.7599   -1.5616 O   0  0  0  0  0  0  0  0  0  0  0  0
   -2.6889    0.5694   -3.8132 C   0  0  0  0  0  0  0  0  0  0  0  0
   -4.3787   -0.5640   -2.3853 H   0  0  0  0  0  0  0  0  0  0  0  0
   -1.9423   -1.4301   -3.6767 H   0  0  0  0  0  0  0  0  0  0  0  0
   -3.0954    1.3573   -3.1706 H   0  0  0  0  0  0  0  0  0  0  0  0
   -1.8029    0.9632   -4.3214 H   0  0  0  0  0  0  0  0  0  0  0  0
   -3.4363    0.3149   -4.5706 H   0  0  0  0  0  0  0  0  0  0  0  0
   -0.4539   -1.4343   -1.4791 N   0  0  0  0  0  0  0  0  0  0  0  0
    0.5007   -1.3517   -0.3598 C   0  0  0  0  0  0  0  0  0  0  0  0
   -0.0315   -1.9642    0.9436 C   0  0  0  0  0  0  0  0  0  0  0  0
    0.5953   -1.8077    1.9835 O   0  0  0  0  0  0  0  0  0  0  0  0
   -0.8187   -2.3543   -1.7364 H   0  0  0  0  0  0  0  0  0  0  0  0
    0.7754   -0.3115   -0.1574 H   0  0  0  0  0  0  0  0  0  0  0  0
    1.4183   -1.8780   -0.6358 H   0  0  0  0  0  0  0  0  0  0  0  0
   -1.1429   -2.7905    0.9572 N   0  0  0  0  0  0  0  0  0  0  0  0
   -1.7153   -3.3879    2.1744 C   0  0  2  0  0  0  0  0  0  0  0  0
   -0.9472   -4.6460    2.6506 C   0  0  0  0  0  0  0  0  0  0  0  0
   -1.5099   -5.7220    2.8174 O   0  0  0  0  0  0  0  0  0  0  0  0
   -3.1960   -3.6658    1.8906 C   0  0  0  0  0  0  0  0  0  0  0  0
   -1.6200   -2.9507    0.0678 H   0  0  0  0  0  0  0  0  0  0  0  0
   -1.6656   -2.6598    2.9911 H   0  0  0  0  0  0  0  0  0  0  0  0
   -3.3011   -4.3932    1.0793 H   0  0  0  0  0  0  0  0  0  0  0  0
   -3.6849   -4.0694    2.7831 H   0  0  0  0  0  0  0  0  0  0  0  0
   -3.7078   -2.7418    1.6065 H   0  0  0  0  0  0  0  0  0  0  0  0
    0.4017   -4.5460    2.9289 N   0  0  0  0  0  0  0  0  0  0  0  0
    1.2171   -5.6422    3.4326 C   0  0  0  0  0  0  0  0  0  0  0  0
    0.8204   -3.6208    2.8003 H   0  0  0  0  0  0  0  0  0  0  0  0
    0.8603   -5.9626    4.4169 H   0  0  0  0  0  0  0  0  0  0  0  0
    1.1778   -6.4957    2.7477 H   0  0  0  0  0  0  0  0  0  0  0  0
    2.2595   -5.3237    3.5283 H   0  0  0  0  0  0  0  0  0  0  0  0
  1  2  2  0  0  0  0
  1  3  1  0  0  0  0
  1  7  1  0  0  0  0
  3  4  1  0  0  0  0
  3  5  1  0  0  0  0
  3  6  1  0  0  0  0
  7  8  1  0  0  0  0
  7 12  1  0  0  0  0
  8  9  1  0  0  0  0
  8 11  1  0  0  0  0
  8 13  1  0  0  0  0
  9 10  2  0  0  0  0
  9 17  1  0  0  0  0
 11 14  1  0  0  0  0
 11 15  1  0  0  0  0
 11 16  1  0  0  0  0
 17 18  1  0  0  0  0
 17 21  1  0  0  0  0
 18 19  1  0  0  0  0
 18 22  1  0  0  0  0
 18 23  1  0  0  0  0
 19 20  2  0  0  0  0
 19 24  1  0  0  0  0
 24 25  1  0  0  0  0
 24 29  1  0  0  0  0
 25 26  1  0  0  0  0
 25 28  1  0  0  0  0
 25 30  1  0  0  0  0
 26 27  2  0  0  0  0
 26 34  1  0  0  0  0
 28 31  1  0  0  0  0
 28 32  1  0  0  0  0
 28 33  1  0  0  0  0
 34 35  1  0  0  0  0
 34 36  1  0  0  0  0
 35 37  1  0  0  0  0
 35 38  1  0  0  0  0
 35 39  1  0  0  0  0
M  END
$$$$

  -OEChem-05262216283D

 39 38  0     1  0  0  0  0  0999 V2000
   -4.9926   -2.1822   -2.8623 C   0  0  0  0  0  0  0  0  0  0  0  0
   -4.5407   -3.2596   -3.2157 O   0  0  0  0  0  0  0  0  0  0  0  0
   -6.4804   -2.0299   -2.6081 C   0  0  0  0  0  0  0  0  0  0  0  0
   -6.9798   -2.9986   -2.6987 H   0  0  0  0  0  0  0  0  0  0  0  0
   -6.6510   -1.6398   -1.6016 H   0  0  0  0  0  0  0  0  0  0  0  0
   -6.9125   -1.3408   -3.3376 H   0  0  0  0  0  0  0  0  0  0  0  0
   -4.1541   -1.1012   -2.6878 N   0  0  0  0  0  0  0  0  0  0  0  0
   -2.6870   -1.1886   -2.6818 C   0  0  2  0  0  0  0  0  0  0  0  0
   -2.0873   -0.4983   -1.4392 C   0  0  0  0  0  0  0  0  0  0  0  0
   -2.7357    0.3497   -0.8388 O   0  0  0  0  0  0  0  0  0  0  0  0
   -2.1687   -0.5353   -3.9652 C   0  0  0  0  0  0  0  0  0  0  0  0
   -4.5582   -0.2842   -2.2314 H   0  0  0  0  0  0  0  0  0  0  0  0
   -2.3658   -2.2355   -2.6604 H   0  0  0  0  0  0  0  0  0  0  0  0
   -2.4788    0.5137   -4.0135 H   0  0  0  0  0  0  0  0  0  0  0  0
   -1.0759   -0.5780   -4.0051 H   0  0  0  0  0  0  0  0  0  0  0  0
   -2.5666   -1.0577   -4.8411 H   0  0  0  0  0  0  0  0  0  0  0  0
   -0.8253   -0.8428   -0.9876 N   0  0  0  0  0  0  0  0  0  0  0  0
   -0.1348   -0.1765    0.1358 C   0  0  0  0  0  0  0  0  0  0  0  0
   -0.1154   -1.0063    1.4267 C   0  0  0  0  0  0  0  0  0  0  0  0
    0.0562   -0.4574    2.5053 O   0  0  0  0  0  0  0  0  0  0  0  0
   -0.3064   -1.5114   -1.5513 H   0  0  0  0  0  0  0  0  0  0  0  0
   -0.5998    0.7892    0.3596 H   0  0  0  0  0  0  0  0  0  0  0  0
    0.8994    0.0288   -0.1526 H   0  0  0  0  0  0  0  0  0  0  0  0
   -0.1154   -2.3859    1.3667 N   0  0  0  0  0  0  0  0  0  0  0  0
    0.1423   -3.2838    2.4974 C   0  0  2  0  0  0  0  0  0  0  0  0
    0.7549   -4.6153    2.0131 C   0  0  0  0  0  0  0  0  0  0  0  0
    0.8063   -4.8680    0.8129 O   0  0  0  0  0  0  0  0  0  0  0  0
   -1.1764   -3.5272    3.2389 C   0  0  0  0  0  0  0  0  0  0  0  0
   -0.1468   -2.8138    0.4436 H   0  0  0  0  0  0  0  0  0  0  0  0
    0.8612   -2.8196    3.1809 H   0  0  0  0  0  0  0  0  0  0  0  0
   -1.9101   -3.9940    2.5738 H   0  0  0  0  0  0  0  0  0  0  0  0
   -1.0195   -4.1828    4.1005 H   0  0  0  0  0  0  0  0  0  0  0  0
   -1.5878   -2.5791    3.5998 H   0  0  0  0  0  0  0  0  0  0  0  0
    1.2699   -5.5237    2.9189 N   0  0  0  0  0  0  0  0  0  0  0  0
    1.8617   -6.7969    2.5260 C   0  0  0  0  0  0  0  0  0  0  0  0
    1.2227   -5.2846    3.9053 H   0  0  0  0  0  0  0  0  0  0  0  0
    1.1228   -7.4194    2.0102 H   0  0  0  0  0  0  0  0  0  0  0  0
    2.7133   -6.6339    1.8569 H   0  0  0  0  0  0  0  0  0  0  0  0
    2.2152   -7.3394    3.4082 H   0  0  0  0  0  0  0  0  0  0  0  0
  1  2  2  0  0  0  0
  1  3  1  0  0  0  0
  1  7  1  0  0  0  0
  3  4  1  0  0  0  0
  3  5  1  0  0  0  0
  3  6  1  0  0  0  0
  7  8  1  0  0  0  0
  7 12  1  0  0  0  0
  8  9  1  0  0  0  0
  8 11  1  0  0  0  0
  8 13  1  0  0  0  0
  9 10  2  0  0  0  0
  9 17  1  0  0  0  0
 11 14  1  0  0  0  0
 11 15  1  0  0  0  0
 11 16  1  0  0  0  0
 17 18  1  0  0  0  0
 17 21  1  0  0  0  0
 18 19  1  0  0  0  0
 18 22  1  0  0  0  0
 18 23  1  0  0  0  0
 19 20  2  0  0  0  0
 19 24  1  0  0  0  0
 24 25  1  0  0  0  0
 24 29  1  0  0  0  0
 25 26  1  0  0  0  0
 25 28  1  0  0  0  0
 25 30  1  0  0  0  0
 26 27  2  0  0  0  0
 26 34  1  0  0  0  0
 28 31  1  0  0  0  0
 28 32  1  0  0  0  0
 28 33  1  0  0  0  0
 34 35  1  0  0  0  0
 34 36  1  0  0  0  0
 35 37  1  0  0  0  0
 35 38  1  0  0  0  0
 35 39  1  0  0  0  0
M  END
$$$$

  -OEChem-05262216283D

 39 38  0     1  0  0  0  0  0999 V2000
   -4.8349   -2.3457   -2.5510 C   0  0  0  0  0  0  0  0  0  0  0  0
   -4.2778   -3.4266   -2.6606 O   0  0  0  0  0  0  0  0  0  0  0  0
   -6.3109   -2.2856   -2.2062 C   0  0  0  0  0  0  0  0  0  0  0  0
   -6.8524   -1.7350   -2.9791 H   0  0  0  0  0  0  0  0  0  0  0  0
   -6.7245   -3.2957   -2.1384 H   0  0  0  0  0  0  0  0  0  0  0  0
   -6.4491   -1.7835   -1.2454 H   0  0  0  0  0  0  0  0  0  0  0  0
   -4.1265   -1.1744   -2.7235 N   0  0  0  0  0  0  0  0  0  0  0  0
   -2.6598   -1.1112   -2.7964 C   0  0  2  0  0  0  0  0  0  0  0  0
   -2.0596   -0.4258   -1.5515 C   0  0  0  0  0  0  0  0  0  0  0  0
   -2.6929    0.4503   -0.9759 O   0  0  0  0  0  0  0  0  0  0  0  0
   -2.2887   -0.3384   -4.0634 C   0  0  0  0  0  0  0  0  0  0  0  0
   -4.5980   -0.3240   -2.4210 H   0  0  0  0  0  0  0  0  0  0  0  0
   -2.2306   -2.1160   -2.8652 H   0  0  0  0  0  0  0  0  0  0  0  0
   -2.6870    0.6807   -4.0216 H   0  0  0  0  0  0  0  0  0  0  0  0
   -1.2014   -0.2829   -4.1737 H   0  0  0  0  0  0  0  0  0  0  0  0
   -2.7010   -0.8388   -4.9453 H   0  0  0  0  0  0  0  0  0  0  0  0
   -0.7983   -0.7751   -1.1005 N   0  0  0  0  0  0  0  0  0  0  0  0
   -0.1196   -0.1453    0.0503 C   0  0  0  0  0  0  0  0  0  0  0  0
   -0.1035   -1.0228    1.3089 C   0  0  0  0  0  0  0  0  0  0  0  0
   -0.2403   -0.5190    2.4143 O   0  0  0  0  0  0  0  0  0  0  0  0
   -0.3173   -1.5088   -1.6136 H   0  0  0  0  0  0  0  0  0  0  0  0
   -0.5949    0.8077    0.3064 H   0  0  0  0  0  0  0  0  0  0  0  0
    0.9148    0.0804   -0.2220 H   0  0  0  0  0  0  0  0  0  0  0  0
    0.2152   -2.3639    1.2180 N   0  0  0  0  0  0  0  0  0  0  0  0
    0.4391   -3.2541    2.3626 C   0  0  2  0  0  0  0  0  0  0  0  0
    1.3884   -4.4125    1.9893 C   0  0  0  0  0  0  0  0  0  0  0  0
    1.7130   -4.5884    0.8187 O   0  0  0  0  0  0  0  0  0  0  0  0
   -0.9175   -3.7906    2.8311 C   0  0  0  0  0  0  0  0  0  0  0  0
    0.4621   -2.7318    0.3015 H   0  0  0  0  0  0  0  0  0  0  0  0
    0.9094   -2.6946    3.1784 H   0  0  0  0  0  0  0  0  0  0  0  0
   -1.4004   -4.3607    2.0310 H   0  0  0  0  0  0  0  0  0  0  0  0
   -0.7952   -4.4432    3.7003 H   0  0  0  0  0  0  0  0  0  0  0  0
   -1.5754   -2.9624    3.1135 H   0  0  0  0  0  0  0  0  0  0  0  0
    1.8983   -5.2463    2.9675 N   0  0  0  0  0  0  0  0  0  0  0  0
    2.8056   -6.3523    2.6847 C   0  0  0  0  0  0  0  0  0  0  0  0
    1.6234   -5.0676    3.9293 H   0  0  0  0  0  0  0  0  0  0  0  0
    3.0842   -6.8604    3.6132 H   0  0  0  0  0  0  0  0  0  0  0  0
    2.3268   -7.0815    2.0224 H   0  0  0  0  0  0  0  0  0  0  0  0
    3.7189   -5.9856    2.2041 H   0  0  0  0  0  0  0  0  0  0  0  0
  1  2  2  0  0  0  0
  1  3  1  0  0  0  0
  1  7  1  0  0  0  0
  3  4  1  0  0  0  0
  3  5  1  0  0  0  0
  3  6  1  0  0  0  0
  7  8  1  0  0  0  0
  7 12  1  0  0  0  0
  8  9  1  0  0  0  0
  8 11  1  0  0  0  0
  8 13  1  0  0  0  0
  9 10  2  0  0  0  0
  9 17  1  0  0  0  0
 11 14  1  0  0  0  0
 11 15  1  0  0  0  0
 11 16  1  0  0  0  0
 17 18  1  0  0  0  0
 17 21  1  0  0  0  0
 18 19  1  0  0  0  0
 18 22  1  0  0  0  0
 18 23  1  0  0  0  0
 19 20  2  0  0  0  0
 19 24  1  0  0  0  0
 24 25  1  0  0  0  0
 24 29  1  0  0  0  0
 25 26  1  0  0  0  0
 25 28  1  0  0  0  0
 25 30  1  0  0  0  0
 26 27  2  0  0  0  0
 26 34  1  0  0  0  0
 28 31  1  0  0  0  0
 28 32  1  0  0  0  0
 28 33  1  0  0  0  0
 34 35  1  0  0  0  0
 34 36  1  0  0  0  0
 35 37  1  0  0  0  0
 35 38  1  0  0  0  0
 35 39  1  0  0  0  0
M  END
$$$$

  -OEChem-05262216283D

 39 38  0     1  0  0  0  0  0999 V2000
   -4.6983   -2.3258   -2.2291 C   0  0  0  0  0  0  0  0  0  0  0  0
   -4.0526   -3.3621   -2.2032 O   0  0  0  0  0  0  0  0  0  0  0  0
   -6.1434   -2.3207   -1.7670 C   0  0  0  0  0  0  0  0  0  0  0  0
   -6.7853   -1.9115   -2.5511 H   0  0  0  0  0  0  0  0  0  0  0  0
   -6.4706   -3.3395   -1.5399 H   0  0  0  0  0  0  0  0  0  0  0  0
   -6.2445   -1.7097   -0.8664 H   0  0  0  0  0  0  0  0  0  0  0  0
   -4.1111   -1.1508   -2.6513 N   0  0  0  0  0  0  0  0  0  0  0  0
   -2.6609   -1.0003   -2.8328 C   0  0  2  0  0  0  0  0  0  0  0  0
   -2.0160   -0.2969   -1.6209 C   0  0  0  0  0  0  0  0  0  0  0  0
   -2.6019    0.6333   -1.0812 O   0  0  0  0  0  0  0  0  0  0  0  0
   -2.4264   -0.1942   -4.1121 C   0  0  0  0  0  0  0  0  0  0  0  0
   -4.6289   -0.3012   -2.4370 H   0  0  0  0  0  0  0  0  0  0  0  0
   -2.1836   -1.9779   -2.9548 H   0  0  0  0  0  0  0  0  0  0  0  0
   -2.8760    0.8008   -4.0281 H   0  0  0  0  0  0  0  0  0  0  0  0
   -1.3542   -0.0763   -4.2975 H   0  0  0  0  0  0  0  0  0  0  0  0
   -2.8717   -0.7079   -4.9699 H   0  0  0  0  0  0  0  0  0  0  0  0
   -0.7707   -0.6923   -1.1638 N   0  0  0  0  0  0  0  0  0  0  0  0
   -0.1322   -0.1629    0.0577 C   0  0  0  0  0  0  0  0  0  0  0  0
   -0.1694   -1.1556    1.2266 C   0  0  0  0  0  0  0  0  0  0  0  0
   -0.6623   -0.8406    2.2998 O   0  0  0  0  0  0  0  0  0  0  0  0
   -0.3861   -1.5328   -1.5867 H   0  0  0  0  0  0  0  0  0  0  0  0
   -0.6157    0.7651    0.3818 H   0  0  0  0  0  0  0  0  0  0  0  0
    0.9113    0.0834   -0.1568 H   0  0  0  0  0  0  0  0  0  0  0  0
    0.4371   -2.3906    1.0972 N   0  0  0  0  0  0  0  0  0  0  0  0
    0.6311   -3.3416    2.1985 C   0  0  2  0  0  0  0  0  0  0  0  0
    1.9626   -4.1060    2.0440 C   0  0  0  0  0  0  0  0  0  0  0  0
    2.5772   -4.0576    0.9827 O   0  0  0  0  0  0  0  0  0  0  0  0
   -0.5561   -4.3082    2.2122 C   0  0  0  0  0  0  0  0  0  0  0  0
    0.9961   -2.5528    0.2612 H   0  0  0  0  0  0  0  0  0  0  0  0
    0.6706   -2.8066    3.1535 H   0  0  0  0  0  0  0  0  0  0  0  0
   -0.6137   -4.8587    1.2677 H   0  0  0  0  0  0  0  0  0  0  0  0
   -0.4574   -5.0276    3.0303 H   0  0  0  0  0  0  0  0  0  0  0  0
   -1.4910   -3.7557    2.3505 H   0  0  0  0  0  0  0  0  0  0  0  0
    2.4905   -4.8220    3.1026 N   0  0  0  0  0  0  0  0  0  0  0  0
    3.7788   -5.5027    3.0445 C   0  0  0  0  0  0  0  0  0  0  0  0
    1.9802   -4.8080    3.9813 H   0  0  0  0  0  0  0  0  0  0  0  0
    3.9643   -6.0415    3.9788 H   0  0  0  0  0  0  0  0  0  0  0  0
    3.7958   -6.2251    2.2212 H   0  0  0  0  0  0  0  0  0  0  0  0
    4.5874   -4.7792    2.8949 H   0  0  0  0  0  0  0  0  0  0  0  0
  1  2  2  0  0  0  0
  1  3  1  0  0  0  0
  1  7  1  0  0  0  0
  3  4  1  0  0  0  0
  3  5  1  0  0  0  0
  3  6  1  0  0  0  0
  7  8  1  0  0  0  0
  7 12  1  0  0  0  0
  8  9  1  0  0  0  0
  8 11  1  0  0  0  0
  8 13  1  0  0  0  0
  9 10  2  0  0  0  0
  9 17  1  0  0  0  0
 11 14  1  0  0  0  0
 11 15  1  0  0  0  0
 11 16  1  0  0  0  0
 17 18  1  0  0  0  0
 17 21  1  0  0  0  0
 18 19  1  0  0  0  0
 18 22  1  0  0  0  0
 18 23  1  0  0  0  0
 19 20  2  0  0  0  0
 19 24  1  0  0  0  0
 24 25  1  0  0  0  0
 24 29  1  0  0  0  0
 25 26  1  0  0  0  0
 25 28  1  0  0  0  0
 25 30  1  0  0  0  0
 26 27  2  0  0  0  0
 26 34  1  0  0  0  0
 28 31  1  0  0  0  0
 28 32  1  0  0  0  0
 28 33  1  0  0  0  0
 34 35  1  0  0  0  0
 34 36  1  0  0  0  0
 35 37  1  0  0  0  0
 35 38  1  0  0  0  0
 35 39  1  0  0  0  0
M  END
$$$$

  -OEChem-05262216283D

 39 38  0     1  0  0  0  0  0999 V2000
   -5.0653   -2.3173   -2.3386 C   0  0  0  0  0  0  0  0  0  0  0  0
   -4.6033   -3.4240   -2.5690 O   0  0  0  0  0  0  0  0  0  0  0  0
   -6.5014   -2.1775   -1.8689 C   0  0  0  0  0  0  0  0  0  0  0  0
   -6.5269   -1.7107   -0.8810 H   0  0  0  0  0  0  0  0  0  0  0  0
   -7.0659   -1.5592   -2.5711 H   0  0  0  0  0  0  0  0  0  0  0  0
   -6.9754   -3.1611   -1.8055 H   0  0  0  0  0  0  0  0  0  0  0  0
   -4.2817   -1.1915   -2.4846 N   0  0  0  0  0  0  0  0  0  0  0  0
   -2.8212   -1.2259   -2.6441 C   0  0  2  0  0  0  0  0  0  0  0  0
   -2.1242   -0.4113   -1.5351 C   0  0  0  0  0  0  0  0  0  0  0  0
   -2.7227    0.5108   -0.9939 O   0  0  0  0  0  0  0  0  0  0  0  0
   -2.4797   -0.6636   -4.0254 C   0  0  0  0  0  0  0  0  0  0  0  0
   -4.6657   -0.3295   -2.0991 H   0  0  0  0  0  0  0  0  0  0  0  0
   -2.4499   -2.2541   -2.5799 H   0  0  0  0  0  0  0  0  0  0  0  0
   -2.8223    0.3726   -4.1132 H   0  0  0  0  0  0  0  0  0  0  0  0
   -1.3987   -0.6886   -4.1932 H   0  0  0  0  0  0  0  0  0  0  0  0
   -2.9650   -1.2591   -4.8051 H   0  0  0  0  0  0  0  0  0  0  0  0
   -0.8298   -0.7189   -1.1529 N   0  0  0  0  0  0  0  0  0  0  0  0
   -0.1843   -0.1736    0.0564 C   0  0  0  0  0  0  0  0  0  0  0  0
   -0.0938   -1.2121    1.1809 C   0  0  0  0  0  0  0  0  0  0  0  0
   -0.8359   -1.1564    2.1499 O   0  0  0  0  0  0  0  0  0  0  0  0
   -0.4292   -1.5524   -1.5750 H   0  0  0  0  0  0  0  0  0  0  0  0
   -0.7272    0.6977    0.4382 H   0  0  0  0  0  0  0  0  0  0  0  0
    0.8237    0.1696   -0.1908 H   0  0  0  0  0  0  0  0  0  0  0  0
    0.8414   -2.2261    1.1009 N   0  0  0  0  0  0  0  0  0  0  0  0
    1.1317   -3.1706    2.1873 C   0  0  2  0  0  0  0  0  0  0  0  0
    2.6400   -3.4860    2.2634 C   0  0  0  0  0  0  0  0  0  0  0  0
    3.3772   -3.1825    1.3305 O   0  0  0  0  0  0  0  0  0  0  0  0
    0.3189   -4.4450    1.9444 C   0  0  0  0  0  0  0  0  0  0  0  0
    1.5519   -2.1485    0.3742 H   0  0  0  0  0  0  0  0  0  0  0  0
    0.8418   -2.7369    3.1505 H   0  0  0  0  0  0  0  0  0  0  0  0
    0.6065   -4.9089    0.9956 H   0  0  0  0  0  0  0  0  0  0  0  0
    0.4845   -5.1663    2.7501 H   0  0  0  0  0  0  0  0  0  0  0  0
   -0.7495   -4.2092    1.9076 H   0  0  0  0  0  0  0  0  0  0  0  0
    3.1752   -4.0884    3.3866 N   0  0  0  0  0  0  0  0  0  0  0  0
    4.5991   -4.3564    3.5481 C   0  0  0  0  0  0  0  0  0  0  0  0
    2.5454   -4.2889    4.1584 H   0  0  0  0  0  0  0  0  0  0  0  0
    4.9626   -5.0014    2.7411 H   0  0  0  0  0  0  0  0  0  0  0  0
    5.1678   -3.4206    3.5351 H   0  0  0  0  0  0  0  0  0  0  0  0
    4.7835   -4.8608    4.5015 H   0  0  0  0  0  0  0  0  0  0  0  0
  1  2  2  0  0  0  0
  1  3  1  0  0  0  0
  1  7  1  0  0  0  0
  3  4  1  0  0  0  0
  3  5  1  0  0  0  0
  3  6  1  0  0  0  0
  7  8  1  0  0  0  0
  7 12  1  0  0  0  0
  8  9  1  0  0  0  0
  8 11  1  0  0  0  0
  8 13  1  0  0  0  0
  9 10  2  0  0  0  0
  9 17  1  0  0  0  0
 11 14  1  0  0  0  0
 11 15  1  0  0  0  0
 11 16  1  0  0  0  0
 17 18  1  0  0  0  0
 17 21  1  0  0  0  0
 18 19  1  0  0  0  0
 18 22  1  0  0  0  0
 18 23  1  0  0  0  0
 19 20  2  0  0  0  0
 19 24  1  0  0  0  0
 24 25  1  0  0  0  0
 24 29  1  0  0  0  0
 25 26  1  0  0  0  0
 25 28  1  0  0  0  0
 25 30  1  0  0  0  0
 26 27  2  0  0  0  0
 26 34  1  0  0  0  0
 28 31  1  0  0  0  0
 28 32  1  0  0  0  0
 28 33  1  0  0  0  0
 34 35  1  0  0  0  0
 34 36  1  0  0  0  0
 35 37  1  0  0  0  0
 35 38  1  0  0  0  0
 35 39  1  0  0  0  0
M  END
$$$$

  -OEChem-05262216283D

 39 38  0     1  0  0  0  0  0999 V2000
   -5.1728   -2.3658   -2.5092 C   0  0  0  0  0  0  0  0  0  0  0  0
   -4.7513   -3.4250   -2.9473 O   0  0  0  0  0  0  0  0  0  0  0  0
   -6.6361   -2.2247   -2.1349 C   0  0  0  0  0  0  0  0  0  0  0  0
   -6.7288   -2.0219   -1.0650 H   0  0  0  0  0  0  0  0  0  0  0  0
   -7.0875   -1.4023   -2.6950 H   0  0  0  0  0  0  0  0  0  0  0  0
   -7.1757   -3.1473   -2.3668 H   0  0  0  0  0  0  0  0  0  0  0  0
   -4.3159   -1.2993   -2.3397 N   0  0  0  0  0  0  0  0  0  0  0  0
   -2.8569   -1.3836   -2.4791 C   0  0  2  0  0  0  0  0  0  0  0  0
   -2.1406   -0.4757   -1.4582 C   0  0  0  0  0  0  0  0  0  0  0  0
   -2.7485    0.4528   -0.9383 O   0  0  0  0  0  0  0  0  0  0  0  0
   -2.4851   -0.9881   -3.9104 C   0  0  0  0  0  0  0  0  0  0  0  0
   -4.6793   -0.4821   -1.8494 H   0  0  0  0  0  0  0  0  0  0  0  0
   -2.5258   -2.4105   -2.2907 H   0  0  0  0  0  0  0  0  0  0  0  0
   -2.8041    0.0383   -4.1185 H   0  0  0  0  0  0  0  0  0  0  0  0
   -1.4031   -1.0542   -4.0589 H   0  0  0  0  0  0  0  0  0  0  0  0
   -2.9739   -1.6573   -4.6259 H   0  0  0  0  0  0  0  0  0  0  0  0
   -0.8179   -0.7135   -1.1253 N   0  0  0  0  0  0  0  0  0  0  0  0
   -0.1589   -0.1159    0.0511 C   0  0  0  0  0  0  0  0  0  0  0  0
    0.0282   -1.1290    1.1876 C   0  0  0  0  0  0  0  0  0  0  0  0
   -0.8632   -1.3324    1.9982 O   0  0  0  0  0  0  0  0  0  0  0  0
   -0.4127   -1.5598   -1.5160 H   0  0  0  0  0  0  0  0  0  0  0  0
   -0.7342    0.7289    0.4438 H   0  0  0  0  0  0  0  0  0  0  0  0
    0.8180    0.2788   -0.2406 H   0  0  0  0  0  0  0  0  0  0  0  0
    1.1820   -1.8860    1.2526 N   0  0  0  0  0  0  0  0  0  0  0  0
    1.5034   -2.8128    2.3457 C   0  0  2  0  0  0  0  0  0  0  0  0
    3.0246   -2.8668    2.6006 C   0  0  0  0  0  0  0  0  0  0  0  0
    3.7981   -2.3550    1.7973 O   0  0  0  0  0  0  0  0  0  0  0  0
    0.9609   -4.1981    1.9800 C   0  0  0  0  0  0  0  0  0  0  0  0
    1.9598   -1.6113    0.6528 H   0  0  0  0  0  0  0  0  0  0  0  0
    1.0291   -2.4722    3.2726 H   0  0  0  0  0  0  0  0  0  0  0  0
    1.4353   -4.5656    1.0644 H   0  0  0  0  0  0  0  0  0  0  0  0
    1.1548   -4.9129    2.7853 H   0  0  0  0  0  0  0  0  0  0  0  0
   -0.1208   -4.1497    1.8170 H   0  0  0  0  0  0  0  0  0  0  0  0
    3.5279   -3.4669    3.7400 N   0  0  0  0  0  0  0  0  0  0  0  0
    4.9495   -3.5036    4.0626 C   0  0  0  0  0  0  0  0  0  0  0  0
    2.8622   -3.8568    4.4011 H   0  0  0  0  0  0  0  0  0  0  0  0
    5.5128   -3.9904    3.2594 H   0  0  0  0  0  0  0  0  0  0  0  0
    5.3374   -2.4887    4.1999 H   0  0  0  0  0  0  0  0  0  0  0  0
    5.1136   -4.0649    4.9874 H   0  0  0  0  0  0  0  0  0  0  0  0
  1  2  2  0  0  0  0
  1  3  1  0  0  0  0
  1  7  1  0  0  0  0
  3  4  1  0  0  0  0
  3  5  1  0  0  0  0
  3  6  1  0  0  0  0
  7  8  1  0  0  0  0
  7 12  1  0  0  0  0
  8  9  1  0  0  0  0
  8 11  1  0  0  0  0
  8 13  1  0  0  0  0
  9 10  2  0  0  0  0
  9 17  1  0  0  0  0
 11 14  1  0  0  0  0
 11 15  1  0  0  0  0
 11 16  1  0  0  0  0
 17 18  1  0  0  0  0
 17 21  1  0  0  0  0
 18 19  1  0  0  0  0
 18 22  1  0  0  0  0
 18 23  1  0  0  0  0
 19 20  2  0  0  0  0
 19 24  1  0  0  0  0
 24 25  1  0  0  0  0
 24 29  1  0  0  0  0
 25 26  1  0  0  0  0
 25 28  1  0  0  0  0
 25 30  1  0  0  0  0
 26 27  2  0  0  0  0
 26 34  1  0  0  0  0
 28 31  1  0  0  0  0
 28 32  1  0  0  0  0
 28 33  1  0  0  0  0
 34 35  1  0  0  0  0
 34 36  1  0  0  0  0
 35 37  1  0  0  0  0
 35 38  1  0  0  0  0
 35 39  1  0  0  0  0
M  END
$$$$

  -OEChem-05262216283D

 39 38  0     1  0  0  0  0  0999 V2000
   -5.2377   -2.3981   -2.5624 C   0  0  0  0  0  0  0  0  0  0  0  0
   -4.8711   -3.5025   -2.9326 O   0  0  0  0  0  0  0  0  0  0  0  0
   -6.7102   -2.1218   -2.3255 C   0  0  0  0  0  0  0  0  0  0  0  0
   -6.8751   -1.8528   -1.2793 H   0  0  0  0  0  0  0  0  0  0  0  0
   -7.0421   -1.2988   -2.9627 H   0  0  0  0  0  0  0  0  0  0  0  0
   -7.3036   -3.0100   -2.5595 H   0  0  0  0  0  0  0  0  0  0  0  0
   -4.3131   -1.3983   -2.3501 N   0  0  0  0  0  0  0  0  0  0  0  0
   -2.8586   -1.5966   -2.3695 C   0  0  2  0  0  0  0  0  0  0  0  0
   -2.1429   -0.6026   -1.4289 C   0  0  0  0  0  0  0  0  0  0  0  0
   -2.7584    0.3525   -0.9677 O   0  0  0  0  0  0  0  0  0  0  0  0
   -2.3611   -1.4332   -3.8097 C   0  0  0  0  0  0  0  0  0  0  0  0
   -4.6475   -0.5383   -1.9156 H   0  0  0  0  0  0  0  0  0  0  0  0
   -2.6229   -2.6069   -2.0179 H   0  0  0  0  0  0  0  0  0  0  0  0
   -2.5770   -0.4246   -4.1762 H   0  0  0  0  0  0  0  0  0  0  0  0
   -1.2816   -1.6018   -3.8663 H   0  0  0  0  0  0  0  0  0  0  0  0
   -2.8554   -2.1558   -4.4671 H   0  0  0  0  0  0  0  0  0  0  0  0
   -0.8063   -0.7808   -1.1144 N   0  0  0  0  0  0  0  0  0  0  0  0
   -0.1435   -0.0984    0.0124 C   0  0  0  0  0  0  0  0  0  0  0  0
    0.1004   -1.0406    1.1983 C   0  0  0  0  0  0  0  0  0  0  0  0
   -0.8359   -1.4803    1.8496 O   0  0  0  0  0  0  0  0  0  0  0  0
   -0.3956   -1.6510   -1.4415 H   0  0  0  0  0  0  0  0  0  0  0  0
   -0.7369    0.7478    0.3732 H   0  0  0  0  0  0  0  0  0  0  0  0
    0.8123    0.3107   -0.3257 H   0  0  0  0  0  0  0  0  0  0  0  0
    1.3732   -1.5128    1.4527 N   0  0  0  0  0  0  0  0  0  0  0  0
    1.7244   -2.4027    2.5667 C   0  0  2  0  0  0  0  0  0  0  0  0
    3.1962   -2.2124    2.9899 C   0  0  0  0  0  0  0  0  0  0  0  0
    3.9604   -1.5713    2.2756 O   0  0  0  0  0  0  0  0  0  0  0  0
    1.4695   -3.8519    2.1366 C   0  0  0  0  0  0  0  0  0  0  0  0
    2.1515   -1.0706    0.9634 H   0  0  0  0  0  0  0  0  0  0  0  0
    1.0991   -2.1681    3.4349 H   0  0  0  0  0  0  0  0  0  0  0  0
    2.0885   -4.1097    1.2711 H   0  0  0  0  0  0  0  0  0  0  0  0
    1.7049   -4.5427    2.9518 H   0  0  0  0  0  0  0  0  0  0  0  0
    0.4175   -3.9884    1.8657 H   0  0  0  0  0  0  0  0  0  0  0  0
    3.6620   -2.7464    4.1770 N   0  0  0  0  0  0  0  0  0  0  0  0
    5.0357   -2.5913    4.6401 C   0  0  0  0  0  0  0  0  0  0  0  0
    3.0007   -3.2549    4.7570 H   0  0  0  0  0  0  0  0  0  0  0  0
    5.7353   -3.0225    3.9164 H   0  0  0  0  0  0  0  0  0  0  0  0
    5.2774   -1.5319    4.7759 H   0  0  0  0  0  0  0  0  0  0  0  0
    5.1718   -3.1022    5.5981 H   0  0  0  0  0  0  0  0  0  0  0  0
  1  2  2  0  0  0  0
  1  3  1  0  0  0  0
  1  7  1  0  0  0  0
  3  4  1  0  0  0  0
  3  5  1  0  0  0  0
  3  6  1  0  0  0  0
  7  8  1  0  0  0  0
  7 12  1  0  0  0  0
  8  9  1  0  0  0  0
  8 11  1  0  0  0  0
  8 13  1  0  0  0  0
  9 10  2  0  0  0  0
  9 17  1  0  0  0  0
 11 14  1  0  0  0  0
 11 15  1  0  0  0  0
 11 16  1  0  0  0  0
 17 18  1  0  0  0  0
 17 21  1  0  0  0  0
 18 19  1  0  0  0  0
 18 22  1  0  0  0  0
 18 23  1  0  0  0  0
 19 20  2  0  0  0  0
 19 24  1  0  0  0  0
 24 25  1  0  0  0  0
 24 29  1  0  0  0  0
 25 26  1  0  0  0  0
 25 28  1  0  0  0  0
 25 30  1  0  0  0  0
 26 27  2  0  0  0  0
 26 34  1  0  0  0  0
 28 31  1  0  0  0  0
 28 32  1  0  0  0  0
 28 33  1  0  0  0  0
 34 35  1  0  0  0  0
 34 36  1  0  0  0  0
 35 37  1  0  0  0  0
 35 38  1  0  0  0  0
 35 39  1  0  0  0  0
M  END
$$$$

  -OEChem-05262216283D

 39 38  0     1  0  0  0  0  0999 V2000
   -5.2928   -2.2975   -2.4486 C   0  0  0  0  0  0  0  0  0  0  0  0
   -5.0471   -3.4708   -2.6816 O   0  0  0  0  0  0  0  0  0  0  0  0
   -6.7290   -1.8429   -2.2697 C   0  0  0  0  0  0  0  0  0  0  0  0
   -6.9941   -1.1298   -3.0539 H   0  0  0  0  0  0  0  0  0  0  0  0
   -7.4051   -2.7005   -2.3291 H   0  0  0  0  0  0  0  0  0  0  0  0
   -6.8515   -1.3647   -1.2946 H   0  0  0  0  0  0  0  0  0  0  0  0
   -4.2659   -1.3832   -2.3465 N   0  0  0  0  0  0  0  0  0  0  0  0
   -2.8409   -1.7373   -2.3375 C   0  0  2  0  0  0  0  0  0  0  0  0
   -2.0062   -0.7173   -1.5336 C   0  0  0  0  0  0  0  0  0  0  0  0
   -2.5165    0.3352   -1.1631 O   0  0  0  0  0  0  0  0  0  0  0  0
   -2.3487   -1.8150   -3.7866 C   0  0  0  0  0  0  0  0  0  0  0  0
   -4.5036   -0.4449   -2.0253 H   0  0  0  0  0  0  0  0  0  0  0  0
   -2.7116   -2.7133   -1.8567 H   0  0  0  0  0  0  0  0  0  0  0  0
   -2.4646   -0.8453   -4.2814 H   0  0  0  0  0  0  0  0  0  0  0  0
   -1.2933   -2.1011   -3.8211 H   0  0  0  0  0  0  0  0  0  0  0  0
   -2.9252   -2.5615   -4.3422 H   0  0  0  0  0  0  0  0  0  0  0  0
   -0.6787   -0.9830   -1.2432 N   0  0  0  0  0  0  0  0  0  0  0  0
    0.0689   -0.2619   -0.1967 C   0  0  0  0  0  0  0  0  0  0  0  0
    0.2765   -1.1114    1.0654 C   0  0  0  0  0  0  0  0  0  0  0  0
   -0.6683   -1.6886    1.5850 O   0  0  0  0  0  0  0  0  0  0  0  0
   -0.3758   -1.9293   -1.4584 H   0  0  0  0  0  0  0  0  0  0  0  0
   -0.4421    0.6593    0.1001 H   0  0  0  0  0  0  0  0  0  0  0  0
    1.0428    0.0321   -0.5972 H   0  0  0  0  0  0  0  0  0  0  0  0
    1.5541   -1.3998    1.5050 N   0  0  0  0  0  0  0  0  0  0  0  0
    1.8569   -2.1647    2.7222 C   0  0  2  0  0  0  0  0  0  0  0  0
    3.1114   -1.6125    3.4313 C   0  0  0  0  0  0  0  0  0  0  0  0
    3.8617   -0.8450    2.8373 O   0  0  0  0  0  0  0  0  0  0  0  0
    2.0543   -3.6324    2.3331 C   0  0  0  0  0  0  0  0  0  0  0  0
    2.3180   -0.8405    1.1252 H   0  0  0  0  0  0  0  0  0  0  0  0
    1.0230   -2.0891    3.4285 H   0  0  0  0  0  0  0  0  0  0  0  0
    2.8905   -3.7349    1.6344 H   0  0  0  0  0  0  0  0  0  0  0  0
    2.2630   -4.2403    3.2184 H   0  0  0  0  0  0  0  0  0  0  0  0
    1.1500   -4.0209    1.8542 H   0  0  0  0  0  0  0  0  0  0  0  0
    3.3911   -1.9602    4.7399 N   0  0  0  0  0  0  0  0  0  0  0  0
    4.5324   -1.4362    5.4807 C   0  0  0  0  0  0  0  0  0  0  0  0
    2.7346   -2.5726    5.2156 H   0  0  0  0  0  0  0  0  0  0  0  0
    5.4692   -1.7000    4.9788 H   0  0  0  0  0  0  0  0  0  0  0  0
    4.4702   -0.3458    5.5606 H   0  0  0  0  0  0  0  0  0  0  0  0
    4.5525   -1.8557    6.4910 H   0  0  0  0  0  0  0  0  0  0  0  0
  1  2  2  0  0  0  0
  1  3  1  0  0  0  0
  1  7  1  0  0  0  0
  3  4  1  0  0  0  0
  3  5  1  0  0  0  0
  3  6  1  0  0  0  0
  7  8  1  0  0  0  0
  7 12  1  0  0  0  0
  8  9  1  0  0  0  0
  8 11  1  0  0  0  0
  8 13  1  0  0  0  0
  9 10  2  0  0  0  0
  9 17  1  0  0  0  0
 11 14  1  0  0  0  0
 11 15  1  0  0  0  0
 11 16  1  0  0  0  0
 17 18  1  0  0  0  0
 17 21  1  0  0  0  0
 18 19  1  0  0  0  0
 18 22  1  0  0  0  0
 18 23  1  0  0  0  0
 19 20  2  0  0  0  0
 19 24  1  0  0  0  0
 24 25  1  0  0  0  0
 24 29  1  0  0  0  0
 25 26  1  0  0  0  0
 25 28  1  0  0  0  0
 25 30  1  0  0  0  0
 26 27  2  0  0  0  0
 26 34  1  0  0  0  0
 28 31  1  0  0  0  0
 28 32  1  0  0  0  0
 28 33  1  0  0  0  0
 34 35  1  0  0  0  0
 34 36  1  0  0  0  0
 35 37  1  0  0  0  0
 35 38  1  0  0  0  0
 35 39  1  0  0  0  0
M  END
$$$$

  -OEChem-05262216283D

 39 38  0     1  0  0  0  0  0999 V2000
   -3.4979   -3.3619   -2.7127 C   0  0  0  0  0  0  0  0  0  0  0  0
   -2.5546   -4.0340   -3.0992 O   0  0  0  0  0  0  0  0  0  0  0  0
   -4.9029   -3.9333   -2.7364 C   0  0  0  0  0  0  0  0  0  0  0  0
   -5.5176   -3.3787   -3.4495 H   0  0  0  0  0  0  0  0  0  0  0  0
   -4.8768   -4.9851   -3.0342 H   0  0  0  0  0  0  0  0  0  0  0  0
   -5.3534   -3.8609   -1.7434 H   0  0  0  0  0  0  0  0  0  0  0  0
   -3.2891   -2.0806   -2.2496 N   0  0  0  0  0  0  0  0  0  0  0  0
   -1.9645   -1.4944   -2.0099 C   0  0  2  0  0  0  0  0  0  0  0  0
   -1.9983   -0.4839   -0.8434 C   0  0  0  0  0  0  0  0  0  0  0  0
   -3.0742   -0.1103   -0.3871 O   0  0  0  0  0  0  0  0  0  0  0  0
   -1.4902   -0.8197   -3.3012 C   0  0  0  0  0  0  0  0  0  0  0  0
   -4.0807   -1.6086   -1.8129 H   0  0  0  0  0  0  0  0  0  0  0  0
   -1.2580   -2.2849   -1.7336 H   0  0  0  0  0  0  0  0  0  0  0  0
   -2.1783   -0.0183   -3.5884 H   0  0  0  0  0  0  0  0  0  0  0  0
   -0.4917   -0.3923   -3.1695 H   0  0  0  0  0  0  0  0  0  0  0  0
   -1.4464   -1.5497   -4.1159 H   0  0  0  0  0  0  0  0  0  0  0  0
   -0.8178   -0.0015   -0.3045 N   0  0  0  0  0  0  0  0  0  0  0  0
   -0.7558    0.6431    1.0207 C   0  0  0  0  0  0  0  0  0  0  0  0
   -0.1370   -0.2632    2.0966 C   0  0  0  0  0  0  0  0  0  0  0  0
   -0.3226   -1.4724    2.0522 O   0  0  0  0  0  0  0  0  0  0  0  0
    0.0211   -0.4793   -0.6245 H   0  0  0  0  0  0  0  0  0  0  0  0
   -1.7487    0.9458    1.3678 H   0  0  0  0  0  0  0  0  0  0  0  0
   -0.1592    1.5551    0.9352 H   0  0  0  0  0  0  0  0  0  0  0  0
    0.8038    0.2582    2.9707 N   0  0  0  0  0  0  0  0  0  0  0  0
    1.5870   -0.4828    3.9823 C   0  0  2  0  0  0  0  0  0  0  0  0
    2.6469   -1.4439    3.3954 C   0  0  0  0  0  0  0  0  0  0  0  0
    3.8178   -1.3204    3.7285 O   0  0  0  0  0  0  0  0  0  0  0  0
    0.6717   -1.2124    4.9767 C   0  0  0  0  0  0  0  0  0  0  0  0
    0.9761    1.2571    2.8973 H   0  0  0  0  0  0  0  0  0  0  0  0
    2.1443    0.2634    4.5583 H   0  0  0  0  0  0  0  0  0  0  0  0
    0.1534   -2.0502    4.5018 H   0  0  0  0  0  0  0  0  0  0  0  0
    1.2638   -1.6082    5.8076 H   0  0  0  0  0  0  0  0  0  0  0  0
   -0.0769   -0.5251    5.3821 H   0  0  0  0  0  0  0  0  0  0  0  0
    2.3037   -2.4236    2.4853 N   0  0  0  0  0  0  0  0  0  0  0  0
    3.2520   -3.3530    1.8871 C   0  0  0  0  0  0  0  0  0  0  0  0
    1.3147   -2.4722    2.2252 H   0  0  0  0  0  0  0  0  0  0  0  0
    4.0340   -2.8087    1.3475 H   0  0  0  0  0  0  0  0  0  0  0  0
    3.7203   -3.9709    2.6601 H   0  0  0  0  0  0  0  0  0  0  0  0
    2.7400   -4.0130    1.1804 H   0  0  0  0  0  0  0  0  0  0  0  0
  1  2  2  0  0  0  0
  1  3  1  0  0  0  0
  1  7  1  0  0  0  0
  3  4  1  0  0  0  0
  3  5  1  0  0  0  0
  3  6  1  0  0  0  0
  7  8  1  0  0  0  0
  7 12  1  0  0  0  0
  8  9  1  0  0  0  0
  8 11  1  0  0  0  0
  8 13  1  0  0  0  0
  9 10  2  0  0  0  0
  9 17  1  0  0  0  0
 11 14  1  0  0  0  0
 11 15  1  0  0  0  0
 11 16  1  0  0  0  0
 17 18  1  0  0  0  0
 17 21  1  0  0  0  0
 18 19  1  0  0  0  0
 18 22  1  0  0  0  0
 18 23  1  0  0  0  0
 19 20  2  0  0  0  0
 19 24  1  0  0  0  0
 24 25  1  0  0  0  0
 24 29  1  0  0  0  0
 25 26  1  0  0  0  0
 25 28  1  0  0  0  0
 25 30  1  0  0  0  0
 26 27  2  0  0  0  0
 26 34  1  0  0  0  0
 28 31  1  0  0  0  0
 28 32  1  0  0  0  0
 28 33  1  0  0  0  0
 34 35  1  0  0  0  0
 34 36  1  0  0  0  0
 35 37  1  0  0  0  0
 35 38  1  0  0  0  0
 35 39  1  0  0  0  0
M  END
$$$$

  -OEChem-05262216283D

 39 38  0     1  0  0  0  0  0999 V2000
   -3.4697   -3.3587   -2.6799 C   0  0  0  0  0  0  0  0  0  0  0  0
   -2.5161   -4.0341   -3.0336 O   0  0  0  0  0  0  0  0  0  0  0  0
   -4.8680   -3.9471   -2.6981 C   0  0  0  0  0  0  0  0  0  0  0  0
   -5.4779   -3.4339   -3.4457 H   0  0  0  0  0  0  0  0  0  0  0  0
   -4.8256   -5.0115   -2.9459 H   0  0  0  0  0  0  0  0  0  0  0  0
   -5.3349   -3.8337   -1.7165 H   0  0  0  0  0  0  0  0  0  0  0  0
   -3.2771   -2.0613   -2.2560 N   0  0  0  0  0  0  0  0  0  0  0  0
   -1.9598   -1.4554   -2.0230 C   0  0  2  0  0  0  0  0  0  0  0  0
   -2.0076   -0.4271   -0.8731 C   0  0  0  0  0  0  0  0  0  0  0  0
   -3.0891   -0.0369   -0.4440 O   0  0  0  0  0  0  0  0  0  0  0  0
   -1.4926   -0.7931   -3.3230 C   0  0  0  0  0  0  0  0  0  0  0  0
   -4.0767   -1.5840   -1.8405 H   0  0  0  0  0  0  0  0  0  0  0  0
   -1.2427   -2.2321   -1.7350 H   0  0  0  0  0  0  0  0  0  0  0  0
   -2.1898   -0.0043   -3.6229 H   0  0  0  0  0  0  0  0  0  0  0  0
   -0.4999   -0.3513   -3.1954 H   0  0  0  0  0  0  0  0  0  0  0  0
   -1.4380   -1.5338   -4.1271 H   0  0  0  0  0  0  0  0  0  0  0  0
   -0.8341    0.0512   -0.3165 N   0  0  0  0  0  0  0  0  0  0  0  0
   -0.7946    0.7360    0.9889 C   0  0  0  0  0  0  0  0  0  0  0  0
   -0.2226   -0.1402    2.1160 C   0  0  0  0  0  0  0  0  0  0  0  0
   -0.2017   -1.3588    1.9940 O   0  0  0  0  0  0  0  0  0  0  0  0
    0.0035   -0.4556   -0.5929 H   0  0  0  0  0  0  0  0  0  0  0  0
   -1.7897    1.0729    1.2956 H   0  0  0  0  0  0  0  0  0  0  0  0
   -0.1735    1.6300    0.8893 H   0  0  0  0  0  0  0  0  0  0  0  0
    0.4467    0.4582    3.1717 N   0  0  0  0  0  0  0  0  0  0  0  0
    1.1116   -0.2191    4.3057 C   0  0  2  0  0  0  0  0  0  0  0  0
    2.3937   -0.9977    3.9308 C   0  0  0  0  0  0  0  0  0  0  0  0
    3.4514   -0.7091    4.4743 O   0  0  0  0  0  0  0  0  0  0  0  0
    0.1306   -1.1140    5.0774 C   0  0  0  0  0  0  0  0  0  0  0  0
    0.4610    1.4744    3.1716 H   0  0  0  0  0  0  0  0  0  0  0  0
    1.4300    0.5659    4.9997 H   0  0  0  0  0  0  0  0  0  0  0  0
   -0.1680   -1.9841    4.4853 H   0  0  0  0  0  0  0  0  0  0  0  0
    0.5998   -1.4753    5.9980 H   0  0  0  0  0  0  0  0  0  0  0  0
   -0.7679   -0.5504    5.3459 H   0  0  0  0  0  0  0  0  0  0  0  0
    2.3720   -2.0017    2.9839 N   0  0  0  0  0  0  0  0  0  0  0  0
    3.5451   -2.7573    2.5671 C   0  0  0  0  0  0  0  0  0  0  0  0
    1.4745   -2.1622    2.5182 H   0  0  0  0  0  0  0  0  0  0  0  0
    4.2891   -2.0922    2.1166 H   0  0  0  0  0  0  0  0  0  0  0  0
    3.9988   -3.2641    3.4253 H   0  0  0  0  0  0  0  0  0  0  0  0
    3.2631   -3.5140    1.8286 H   0  0  0  0  0  0  0  0  0  0  0  0
  1  2  2  0  0  0  0
  1  3  1  0  0  0  0
  1  7  1  0  0  0  0
  3  4  1  0  0  0  0
  3  5  1  0  0  0  0
  3  6  1  0  0  0  0
  7  8  1  0  0  0  0
  7 12  1  0  0  0  0
  8  9  1  0  0  0  0
  8 11  1  0  0  0  0
  8 13  1  0  0  0  0
  9 10  2  0  0  0  0
  9 17  1  0  0  0  0
 11 14  1  0  0  0  0
 11 15  1  0  0  0  0
 11 16  1  0  0  0  0
 17 18  1  0  0  0  0
 17 21  1  0  0  0  0
 18 19  1  0  0  0  0
 18 22  1  0  0  0  0
 18 23  1  0  0  0  0
 19 20  2  0  0  0  0
 19 24  1  0  0  0  0
 24 25  1  0  0  0  0
 24 29  1  0  0  0  0
 25 26  1  0  0  0  0
 25 28  1  0  0  0  0
 25 30  1  0  0  0  0
 26 27  2  0  0  0  0
 26 34  1  0  0  0  0
 28 31  1  0  0  0  0
 28 32  1  0  0  0  0
 28 33  1  0  0  0  0
 34 35  1  0  0  0  0
 34 36  1  0  0  0  0
 35 37  1  0  0  0  0
 35 38  1  0  0  0  0
 35 39  1  0  0  0  0
M  END
$$$$

  -OEChem-05262216283D

 39 38  0     1  0  0  0  0  0999 V2000
   -3.6014   -3.2938   -2.8131 C   0  0  0  0  0  0  0  0  0  0  0  0
   -2.6783   -4.0295   -3.1246 O   0  0  0  0  0  0  0  0  0  0  0  0
   -5.0360   -3.7560   -2.9879 C   0  0  0  0  0  0  0  0  0  0  0  0
   -5.5560   -3.1029   -3.6931 H   0  0  0  0  0  0  0  0  0  0  0  0
   -5.0580   -4.7793   -3.3734 H   0  0  0  0  0  0  0  0  0  0  0  0
   -5.5558   -3.7306   -2.0271 H   0  0  0  0  0  0  0  0  0  0  0  0
   -3.3430   -2.0445   -2.2908 N   0  0  0  0  0  0  0  0  0  0  0  0
   -2.0056   -1.5556   -1.9313 C   0  0  2  0  0  0  0  0  0  0  0  0
   -2.0720   -0.4986   -0.8071 C   0  0  0  0  0  0  0  0  0  0  0  0
   -3.1595   -0.0895   -0.4119 O   0  0  0  0  0  0  0  0  0  0  0  0
   -1.3462   -0.9720   -3.1861 C   0  0  0  0  0  0  0  0  0  0  0  0
   -4.1351   -1.5189   -1.9222 H   0  0  0  0  0  0  0  0  0  0  0  0
   -1.4002   -2.3892   -1.5583 H   0  0  0  0  0  0  0  0  0  0  0  0
   -1.9329   -0.1315   -3.5697 H   0  0  0  0  0  0  0  0  0  0  0  0
   -0.3348   -0.6196   -2.9635 H   0  0  0  0  0  0  0  0  0  0  0  0
   -1.2774   -1.7343   -3.9686 H   0  0  0  0  0  0  0  0  0  0  0  0
   -0.9098   -0.0068   -0.2386 N   0  0  0  0  0  0  0  0  0  0  0  0
   -0.8920    0.7401    1.0329 C   0  0  0  0  0  0  0  0  0  0  0  0
   -0.3611   -0.0838    2.2173 C   0  0  0  0  0  0  0  0  0  0  0  0
   -0.1064   -1.2735    2.0706 O   0  0  0  0  0  0  0  0  0  0  0  0
   -0.0684   -0.5310   -0.4690 H   0  0  0  0  0  0  0  0  0  0  0  0
   -1.8902    1.1044    1.2950 H   0  0  0  0  0  0  0  0  0  0  0  0
   -0.2537    1.6190    0.9085 H   0  0  0  0  0  0  0  0  0  0  0  0
    0.0023    0.5653    3.3863 N   0  0  0  0  0  0  0  0  0  0  0  0
    0.5904   -0.0425    4.5989 C   0  0  2  0  0  0  0  0  0  0  0  0
    2.0370   -0.5591    4.4247 C   0  0  0  0  0  0  0  0  0  0  0  0
    2.9226   -0.1213    5.1470 O   0  0  0  0  0  0  0  0  0  0  0  0
   -0.3206   -1.1378    5.1720 C   0  0  0  0  0  0  0  0  0  0  0  0
   -0.1742    1.5659    3.4130 H   0  0  0  0  0  0  0  0  0  0  0  0
    0.6445    0.7480    5.3546 H   0  0  0  0  0  0  0  0  0  0  0  0
   -0.3579   -2.0119    4.5156 H   0  0  0  0  0  0  0  0  0  0  0  0
    0.0544   -1.4626    6.1475 H   0  0  0  0  0  0  0  0  0  0  0  0
   -1.3378   -0.7567    5.3020 H   0  0  0  0  0  0  0  0  0  0  0  0
    2.3520   -1.4938    3.4592 N   0  0  0  0  0  0  0  0  0  0  0  0
    3.6970   -1.9966    3.2170 C   0  0  0  0  0  0  0  0  0  0  0  0
    1.5856   -1.7842    2.8460 H   0  0  0  0  0  0  0  0  0  0  0  0
    4.3588   -1.1835    2.9012 H   0  0  0  0  0  0  0  0  0  0  0  0
    4.1051   -2.4510    4.1258 H   0  0  0  0  0  0  0  0  0  0  0  0
    3.6792   -2.7563    2.4294 H   0  0  0  0  0  0  0  0  0  0  0  0
  1  2  2  0  0  0  0
  1  3  1  0  0  0  0
  1  7  1  0  0  0  0
  3  4  1  0  0  0  0
  3  5  1  0  0  0  0
  3  6  1  0  0  0  0
  7  8  1  0  0  0  0
  7 12  1  0  0  0  0
  8  9  1  0  0  0  0
  8 11  1  0  0  0  0
  8 13  1  0  0  0  0
  9 10  2  0  0  0  0
  9 17  1  0  0  0  0
 11 14  1  0  0  0  0
 11 15  1  0  0  0  0
 11 16  1  0  0  0  0
 17 18  1  0  0  0  0
 17 21  1  0  0  0  0
 18 19  1  0  0  0  0
 18 22  1  0  0  0  0
 18 23  1  0  0  0  0
 19 20  2  0  0  0  0
 19 24  1  0  0  0  0
 24 25  1  0  0  0  0
 24 29  1  0  0  0  0
 25 26  1  0  0  0  0
 25 28  1  0  0  0  0
 25 30  1  0  0  0  0
 26 27  2  0  0  0  0
 26 34  1  0  0  0  0
 28 31  1  0  0  0  0
 28 32  1  0  0  0  0
 28 33  1  0  0  0  0
 34 35  1  0  0  0  0
 34 36  1  0  0  0  0
 35 37  1  0  0  0  0
 35 38  1  0  0  0  0
 35 39  1  0  0  0  0
M  END
$$$$

  -OEChem-05262216283D

 39 38  0     1  0  0  0  0  0999 V2000
   -3.6005   -3.1729   -3.0268 C   0  0  0  0  0  0  0  0  0  0  0  0
   -2.6789   -3.9151   -3.3264 O   0  0  0  0  0  0  0  0  0  0  0  0
   -5.0325   -3.5776   -3.3221 C   0  0  0  0  0  0  0  0  0  0  0  0
   -5.5163   -2.8162   -3.9389 H   0  0  0  0  0  0  0  0  0  0  0  0
   -5.0516   -4.5299   -3.8593 H   0  0  0  0  0  0  0  0  0  0  0  0
   -5.5891   -3.6883   -2.3883 H   0  0  0  0  0  0  0  0  0  0  0  0
   -3.3432   -1.9677   -2.4087 N   0  0  0  0  0  0  0  0  0  0  0  0
   -2.0183   -1.5361   -1.9434 C   0  0  2  0  0  0  0  0  0  0  0  0
   -2.1287   -0.5338   -0.7724 C   0  0  0  0  0  0  0  0  0  0  0  0
   -3.2304   -0.1473   -0.3949 O   0  0  0  0  0  0  0  0  0  0  0  0
   -1.2641   -0.9112   -3.1234 C   0  0  0  0  0  0  0  0  0  0  0  0
   -4.1432   -1.4390   -2.0623 H   0  0  0  0  0  0  0  0  0  0  0  0
   -1.4584   -2.4041   -1.5776 H   0  0  0  0  0  0  0  0  0  0  0  0
   -1.8020   -0.0362   -3.5016 H   0  0  0  0  0  0  0  0  0  0  0  0
   -0.2605   -0.5999   -2.8193 H   0  0  0  0  0  0  0  0  0  0  0  0
   -1.1634   -1.6361   -3.9373 H   0  0  0  0  0  0  0  0  0  0  0  0
   -0.9910   -0.0660   -0.1384 N   0  0  0  0  0  0  0  0  0  0  0  0
   -1.0061    0.6394    1.1558 C   0  0  0  0  0  0  0  0  0  0  0  0
   -0.1909   -0.0874    2.2363 C   0  0  0  0  0  0  0  0  0  0  0  0
    0.4756   -1.0711    1.9337 O   0  0  0  0  0  0  0  0  0  0  0  0
   -0.1335   -0.5707   -0.3598 H   0  0  0  0  0  0  0  0  0  0  0  0
   -2.0274    0.7568    1.5307 H   0  0  0  0  0  0  0  0  0  0  0  0
   -0.5922    1.6423    1.0201 H   0  0  0  0  0  0  0  0  0  0  0  0
   -0.1090    0.4508    3.5101 N   0  0  0  0  0  0  0  0  0  0  0  0
    0.6487   -0.0880    4.6598 C   0  0  2  0  0  0  0  0  0  0  0  0
    2.1863   -0.0135    4.5135 C   0  0  0  0  0  0  0  0  0  0  0  0
    2.8428    0.5716    5.3645 O   0  0  0  0  0  0  0  0  0  0  0  0
    0.1967   -1.5148    5.0048 C   0  0  0  0  0  0  0  0  0  0  0  0
   -0.6438    1.3007    3.6689 H   0  0  0  0  0  0  0  0  0  0  0  0
    0.4003    0.5379    5.5234 H   0  0  0  0  0  0  0  0  0  0  0  0
    0.4959   -2.2271    4.2302 H   0  0  0  0  0  0  0  0  0  0  0  0
    0.6482   -1.8317    5.9503 H   0  0  0  0  0  0  0  0  0  0  0  0
   -0.8914   -1.5530    5.1124 H   0  0  0  0  0  0  0  0  0  0  0  0
    2.8328   -0.5858    3.4365 N   0  0  0  0  0  0  0  0  0  0  0  0
    4.2739   -0.5423    3.2308 C   0  0  0  0  0  0  0  0  0  0  0  0
    2.2340   -1.0204    2.7296 H   0  0  0  0  0  0  0  0  0  0  0  0
    4.6162    0.4930    3.1333 H   0  0  0  0  0  0  0  0  0  0  0  0
    4.7950   -1.0088    4.0734 H   0  0  0  0  0  0  0  0  0  0  0  0
    4.5407   -1.0832    2.3179 H   0  0  0  0  0  0  0  0  0  0  0  0
  1  2  2  0  0  0  0
  1  3  1  0  0  0  0
  1  7  1  0  0  0  0
  3  4  1  0  0  0  0
  3  5  1  0  0  0  0
  3  6  1  0  0  0  0
  7  8  1  0  0  0  0
  7 12  1  0  0  0  0
  8  9  1  0  0  0  0
  8 11  1  0  0  0  0
  8 13  1  0  0  0  0
  9 10  2  0  0  0  0
  9 17  1  0  0  0  0
 11 14  1  0  0  0  0
 11 15  1  0  0  0  0
 11 16  1  0  0  0  0
 17 18  1  0  0  0  0
 17 21  1  0  0  0  0
 18 19  1  0  0  0  0
 18 22  1  0  0  0  0
 18 23  1  0  0  0  0
 19 20  2  0  0  0  0
 19 24  1  0  0  0  0
 24 25  1  0  0  0  0
 24 29  1  0  0  0  0
 25 26  1  0  0  0  0
 25 28  1  0  0  0  0
 25 30  1  0  0  0  0
 26 27  2  0  0  0  0
 26 34  1  0  0  0  0
 28 31  1  0  0  0  0
 28 32  1  0  0  0  0
 28 33  1  0  0  0  0
 34 35  1  0  0  0  0
 34 36  1  0  0  0  0
 35 37  1  0  0  0  0
 35 38  1  0  0  0  0
 35 39  1  0  0  0  0
M  END
$$$$

  -OEChem-05262216283D

 39 38  0     1  0  0  0  0  0999 V2000
   -3.5791   -3.1452   -3.0887 C   0  0  0  0  0  0  0  0  0  0  0  0
   -2.6330   -3.8485   -3.4054 O   0  0  0  0  0  0  0  0  0  0  0  0
   -4.9962   -3.5903   -3.3969 C   0  0  0  0  0  0  0  0  0  0  0  0
   -5.5231   -2.8071   -3.9474 H   0  0  0  0  0  0  0  0  0  0  0  0
   -4.9826   -4.4992   -4.0050 H   0  0  0  0  0  0  0  0  0  0  0  0
   -5.5315   -3.7959   -2.4669 H   0  0  0  0  0  0  0  0  0  0  0  0
   -3.3629   -1.9498   -2.4369 N   0  0  0  0  0  0  0  0  0  0  0  0
   -2.0526   -1.4827   -1.9649 C   0  0  2  0  0  0  0  0  0  0  0  0
   -2.1908   -0.5175   -0.7667 C   0  0  0  0  0  0  0  0  0  0  0  0
   -3.3009   -0.1412   -0.4040 O   0  0  0  0  0  0  0  0  0  0  0  0
   -1.3303   -0.7954   -3.1289 C   0  0  0  0  0  0  0  0  0  0  0  0
   -4.1804   -1.4520   -2.0859 H   0  0  0  0  0  0  0  0  0  0  0  0
   -1.4591   -2.3395   -1.6275 H   0  0  0  0  0  0  0  0  0  0  0  0
   -1.9087    0.0634   -3.4841 H   0  0  0  0  0  0  0  0  0  0  0  0
   -0.3417   -0.4461   -2.8167 H   0  0  0  0  0  0  0  0  0  0  0  0
   -1.1985   -1.4948   -3.9606 H   0  0  0  0  0  0  0  0  0  0  0  0
   -1.0688   -0.0747   -0.0891 N   0  0  0  0  0  0  0  0  0  0  0  0
   -1.1094    0.6424    1.1978 C   0  0  0  0  0  0  0  0  0  0  0  0
   -0.3563   -0.1001    2.3114 C   0  0  0  0  0  0  0  0  0  0  0  0
    0.4620   -0.9632    2.0139 O   0  0  0  0  0  0  0  0  0  0  0  0
   -0.1993   -0.5594   -0.3086 H   0  0  0  0  0  0  0  0  0  0  0  0
   -2.1408    0.7918    1.5313 H   0  0  0  0  0  0  0  0  0  0  0  0
   -0.6614    1.6321    1.0719 H   0  0  0  0  0  0  0  0  0  0  0  0
   -0.5510    0.2611    3.6346 N   0  0  0  0  0  0  0  0  0  0  0  0
    0.0871   -0.3371    4.8267 C   0  0  2  0  0  0  0  0  0  0  0  0
    1.6070   -0.0787    4.9470 C   0  0  0  0  0  0  0  0  0  0  0  0
    2.0469    0.4555    5.9562 O   0  0  0  0  0  0  0  0  0  0  0  0
   -0.2260   -1.8363    4.9308 C   0  0  0  0  0  0  0  0  0  0  0  0
   -1.2232    1.0063    3.7970 H   0  0  0  0  0  0  0  0  0  0  0  0
   -0.3668    0.1396    5.7018 H   0  0  0  0  0  0  0  0  0  0  0  0
    0.2688   -2.4031    4.1371 H   0  0  0  0  0  0  0  0  0  0  0  0
    0.1214   -2.2258    5.8929 H   0  0  0  0  0  0  0  0  0  0  0  0
   -1.3046   -2.0044    4.8595 H   0  0  0  0  0  0  0  0  0  0  0  0
    2.4785   -0.4309    3.9360 N   0  0  0  0  0  0  0  0  0  0  0  0
    3.9154   -0.1963    3.9766 C   0  0  0  0  0  0  0  0  0  0  0  0
    2.0556   -0.8293    3.0935 H   0  0  0  0  0  0  0  0  0  0  0  0
    4.1271    0.8742    4.0671 H   0  0  0  0  0  0  0  0  0  0  0  0
    4.3650   -0.7179    4.8281 H   0  0  0  0  0  0  0  0  0  0  0  0
    4.3828   -0.5660    3.0588 H   0  0  0  0  0  0  0  0  0  0  0  0
  1  2  2  0  0  0  0
  1  3  1  0  0  0  0
  1  7  1  0  0  0  0
  3  4  1  0  0  0  0
  3  5  1  0  0  0  0
  3  6  1  0  0  0  0
  7  8  1  0  0  0  0
  7 12  1  0  0  0  0
  8  9  1  0  0  0  0
  8 11  1  0  0  0  0
  8 13  1  0  0  0  0
  9 10  2  0  0  0  0
  9 17  1  0  0  0  0
 11 14  1  0  0  0  0
 11 15  1  0  0  0  0
 11 16  1  0  0  0  0
 17 18  1  0  0  0  0
 17 21  1  0  0  0  0
 18 19  1  0  0  0  0
 18 22  1  0  0  0  0
 18 23  1  0  0  0  0
 19 20  2  0  0  0  0
 19 24  1  0  0  0  0
 24 25  1  0  0  0  0
 24 29  1  0  0  0  0
 25 26  1  0  0  0  0
 25 28  1  0  0  0  0
 25 30  1  0  0  0  0
 26 27  2  0  0  0  0
 26 34  1  0  0  0  0
 28 31  1  0  0  0  0
 28 32  1  0  0  0  0
 28 33  1  0  0  0  0
 34 35  1  0  0  0  0
 34 36  1  0  0  0  0
 35 37  1  0  0  0  0
 35 38  1  0  0  0  0
 35 39  1  0  0  0  0
M  END
$$$$

  -OEChem-05262216283D

 39 38  0     1  0  0  0  0  0999 V2000
   -4.1880   -2.9537   -2.4816 C   0  0  0  0  0  0  0  0  0  0  0  0
   -3.4518   -3.9168   -2.3398 O   0  0  0  0  0  0  0  0  0  0  0  0
   -5.6854   -3.1127   -2.2972 C   0  0  0  0  0  0  0  0  0  0  0  0
   -6.2042   -2.8704   -3.2277 H   0  0  0  0  0  0  0  0  0  0  0  0
   -5.9232   -4.1431   -2.0182 H   0  0  0  0  0  0  0  0  0  0  0  0
   -6.0367   -2.4447   -1.5068 H   0  0  0  0  0  0  0  0  0  0  0  0
   -3.6689   -1.7109   -2.7792 N   0  0  0  0  0  0  0  0  0  0  0  0
   -2.2419   -1.3781   -2.6554 C   0  0  2  0  0  0  0  0  0  0  0  0
   -1.9911   -0.4263   -1.4675 C   0  0  0  0  0  0  0  0  0  0  0  0
   -2.8806    0.3338   -1.0983 O   0  0  0  0  0  0  0  0  0  0  0  0
   -1.7968   -0.7291   -3.9671 C   0  0  0  0  0  0  0  0  0  0  0  0
   -4.3173   -0.9325   -2.6780 H   0  0  0  0  0  0  0  0  0  0  0  0
   -1.6426   -2.2804   -2.4932 H   0  0  0  0  0  0  0  0  0  0  0  0
   -2.3678    0.1859   -4.1558 H   0  0  0  0  0  0  0  0  0  0  0  0
   -0.7334   -0.4735   -3.9259 H   0  0  0  0  0  0  0  0  0  0  0  0
   -1.9555   -1.4190   -4.8020 H   0  0  0  0  0  0  0  0  0  0  0  0
   -0.7700   -0.4186   -0.8193 N   0  0  0  0  0  0  0  0  0  0  0  0
   -0.5314    0.2481    0.4726 C   0  0  0  0  0  0  0  0  0  0  0  0
   -0.0665   -0.7422    1.5500 C   0  0  0  0  0  0  0  0  0  0  0  0
    0.5608   -1.7309    1.1929 O   0  0  0  0  0  0  0  0  0  0  0  0
   -0.1450   -1.1942   -1.0393 H   0  0  0  0  0  0  0  0  0  0  0  0
   -1.4360    0.7475    0.8319 H   0  0  0  0  0  0  0  0  0  0  0  0
    0.2368    1.0166    0.3506 H   0  0  0  0  0  0  0  0  0  0  0  0
   -0.3838   -0.4918    2.8766 N   0  0  0  0  0  0  0  0  0  0  0  0
    0.0919   -1.1469    4.1177 C   0  0  2  0  0  0  0  0  0  0  0  0
    0.7698   -0.0952    5.0316 C   0  0  0  0  0  0  0  0  0  0  0  0
    0.5326    1.0961    4.8600 O   0  0  0  0  0  0  0  0  0  0  0  0
    0.9994   -2.3762    3.9268 C   0  0  0  0  0  0  0  0  0  0  0  0
   -0.7918    0.4295    3.0332 H   0  0  0  0  0  0  0  0  0  0  0  0
   -0.7958   -1.4992    4.6517 H   0  0  0  0  0  0  0  0  0  0  0  0
    1.9357   -2.0936    3.4345 H   0  0  0  0  0  0  0  0  0  0  0  0
    1.2385   -2.8395    4.8881 H   0  0  0  0  0  0  0  0  0  0  0  0
    0.4929   -3.1312    3.3177 H   0  0  0  0  0  0  0  0  0  0  0  0
    1.5667   -0.4635    6.1016 N   0  0  0  0  0  0  0  0  0  0  0  0
    2.1902    0.4961    7.0059 C   0  0  0  0  0  0  0  0  0  0  0  0
    1.7591   -1.4529    6.2261 H   0  0  0  0  0  0  0  0  0  0  0  0
    2.8141    1.2019    6.4469 H   0  0  0  0  0  0  0  0  0  0  0  0
    1.4254    1.0580    7.5525 H   0  0  0  0  0  0  0  0  0  0  0  0
    2.8234   -0.0234    7.7320 H   0  0  0  0  0  0  0  0  0  0  0  0
  1  2  2  0  0  0  0
  1  3  1  0  0  0  0
  1  7  1  0  0  0  0
  3  4  1  0  0  0  0
  3  5  1  0  0  0  0
  3  6  1  0  0  0  0
  7  8  1  0  0  0  0
  7 12  1  0  0  0  0
  8  9  1  0  0  0  0
  8 11  1  0  0  0  0
  8 13  1  0  0  0  0
  9 10  2  0  0  0  0
  9 17  1  0  0  0  0
 11 14  1  0  0  0  0
 11 15  1  0  0  0  0
 11 16  1  0  0  0  0
 17 18  1  0  0  0  0
 17 21  1  0  0  0  0
 18 19  1  0  0  0  0
 18 22  1  0  0  0  0
 18 23  1  0  0  0  0
 19 20  2  0  0  0  0
 19 24  1  0  0  0  0
 24 25  1  0  0  0  0
 24 29  1  0  0  0  0
 25 26  1  0  0  0  0
 25 28  1  0  0  0  0
 25 30  1  0  0  0  0
 26 27  2  0  0  0  0
 26 34  1  0  0  0  0
 28 31  1  0  0  0  0
 28 32  1  0  0  0  0
 28 33  1  0  0  0  0
 34 35  1  0  0  0  0
 34 36  1  0  0  0  0
 35 37  1  0  0  0  0
 35 38  1  0  0  0  0
 35 39  1  0  0  0  0
M  END
$$$$

  -OEChem-05262216283D

 39 38  0     1  0  0  0  0  0999 V2000
   -4.9218   -2.4904   -2.2980 C   0  0  0  0  0  0  0  0  0  0  0  0
   -4.5809   -3.6516   -2.4584 O   0  0  0  0  0  0  0  0  0  0  0  0
   -6.3940   -2.1359   -2.2043 C   0  0  0  0  0  0  0  0  0  0  0  0
   -6.6484   -1.3938   -2.9650 H   0  0  0  0  0  0  0  0  0  0  0  0
   -7.0068   -3.0277   -2.3636 H   0  0  0  0  0  0  0  0  0  0  0  0
   -6.6177   -1.7264   -1.2162 H   0  0  0  0  0  0  0  0  0  0  0  0
   -3.9691   -1.4993   -2.1948 N   0  0  0  0  0  0  0  0  0  0  0  0
   -2.5221   -1.7433   -2.1264 C   0  0  2  0  0  0  0  0  0  0  0  0
   -1.7981   -0.6528   -1.3069 C   0  0  0  0  0  0  0  0  0  0  0  0
   -2.4006    0.3567   -0.9571 O   0  0  0  0  0  0  0  0  0  0  0  0
   -1.9718   -1.8030   -3.5551 C   0  0  0  0  0  0  0  0  0  0  0  0
   -4.2892   -0.5664   -1.9365 H   0  0  0  0  0  0  0  0  0  0  0  0
   -2.3350   -2.7010   -1.6285 H   0  0  0  0  0  0  0  0  0  0  0  0
   -2.1299   -0.8482   -4.0663 H   0  0  0  0  0  0  0  0  0  0  0  0
   -0.8997   -2.0215   -3.5463 H   0  0  0  0  0  0  0  0  0  0  0  0
   -2.4772   -2.5905   -4.1233 H   0  0  0  0  0  0  0  0  0  0  0  0
   -0.4744   -0.8163   -0.9414 N   0  0  0  0  0  0  0  0  0  0  0  0
    0.2453    0.0474    0.0100 C   0  0  0  0  0  0  0  0  0  0  0  0
    0.7617   -0.7505    1.2138 C   0  0  0  0  0  0  0  0  0  0  0  0
    1.2384   -1.8649    1.0342 O   0  0  0  0  0  0  0  0  0  0  0  0
   -0.0642   -1.7321   -1.1208 H   0  0  0  0  0  0  0  0  0  0  0  0
   -0.3985    0.8525    0.3775 H   0  0  0  0  0  0  0  0  0  0  0  0
    1.0967    0.5172   -0.4903 H   0  0  0  0  0  0  0  0  0  0  0  0
    0.6151   -0.2718    2.5007 N   0  0  0  0  0  0  0  0  0  0  0  0
    0.9162   -1.0411    3.7153 C   0  0  2  0  0  0  0  0  0  0  0  0
    0.0901   -0.5379    4.9183 C   0  0  0  0  0  0  0  0  0  0  0  0
   -0.4959    0.5373    4.8537 O   0  0  0  0  0  0  0  0  0  0  0  0
    2.4158   -0.9291    4.0117 C   0  0  0  0  0  0  0  0  0  0  0  0
    0.0804    0.5884    2.6281 H   0  0  0  0  0  0  0  0  0  0  0  0
    0.6563   -2.0930    3.5558 H   0  0  0  0  0  0  0  0  0  0  0  0
    2.6950    0.1159    4.1798 H   0  0  0  0  0  0  0  0  0  0  0  0
    2.6758   -1.5074    4.9032 H   0  0  0  0  0  0  0  0  0  0  0  0
    3.0004   -1.3151    3.1707 H   0  0  0  0  0  0  0  0  0  0  0  0
   -0.0093   -1.2953    6.0711 N   0  0  0  0  0  0  0  0  0  0  0  0
   -0.7865   -0.8826    7.2340 C   0  0  0  0  0  0  0  0  0  0  0  0
    0.4653   -2.1935    6.0888 H   0  0  0  0  0  0  0  0  0  0  0  0
   -0.4105    0.0674    7.6287 H   0  0  0  0  0  0  0  0  0  0  0  0
   -1.8415   -0.7597    6.9667 H   0  0  0  0  0  0  0  0  0  0  0  0
   -0.7157   -1.6364    8.0242 H   0  0  0  0  0  0  0  0  0  0  0  0
  1  2  2  0  0  0  0
  1  3  1  0  0  0  0
  1  7  1  0  0  0  0
  3  4  1  0  0  0  0
  3  5  1  0  0  0  0
  3  6  1  0  0  0  0
  7  8  1  0  0  0  0
  7 12  1  0  0  0  0
  8  9  1  0  0  0  0
  8 11  1  0  0  0  0
  8 13  1  0  0  0  0
  9 10  2  0  0  0  0
  9 17  1  0  0  0  0
 11 14  1  0  0  0  0
 11 15  1  0  0  0  0
 11 16  1  0  0  0  0
 17 18  1  0  0  0  0
 17 21  1  0  0  0  0
 18 19  1  0  0  0  0
 18 22  1  0  0  0  0
 18 23  1  0  0  0  0
 19 20  2  0  0  0  0
 19 24  1  0  0  0  0
 24 25  1  0  0  0  0
 24 29  1  0  0  0  0
 25 26  1  0  0  0  0
 25 28  1  0  0  0  0
 25 30  1  0  0  0  0
 26 27  2  0  0  0  0
 26 34  1  0  0  0  0
 28 31  1  0  0  0  0
 28 32  1  0  0  0  0
 28 33  1  0  0  0  0
 34 35  1  0  0  0  0
 34 36  1  0  0  0  0
 35 37  1  0  0  0  0
 35 38  1  0  0  0  0
 35 39  1  0  0  0  0
M  END
$$$$

  -OEChem-05262216283D

 39 38  0     1  0  0  0  0  0999 V2000
   -4.8497   -2.5032   -2.0961 C   0  0  0  0  0  0  0  0  0  0  0  0
   -4.4824   -3.6507   -2.2931 O   0  0  0  0  0  0  0  0  0  0  0  0
   -6.3157   -2.2077   -1.8427 C   0  0  0  0  0  0  0  0  0  0  0  0
   -6.6884   -1.5023   -2.5893 H   0  0  0  0  0  0  0  0  0  0  0  0
   -6.9015   -3.1291   -1.9055 H   0  0  0  0  0  0  0  0  0  0  0  0
   -6.4430   -1.7759   -0.8468 H   0  0  0  0  0  0  0  0  0  0  0  0
   -3.9298   -1.4764   -2.0853 N   0  0  0  0  0  0  0  0  0  0  0  0
   -2.4750   -1.6705   -2.1381 C   0  0  2  0  0  0  0  0  0  0  0  0
   -1.7289   -0.5978   -1.3174 C   0  0  0  0  0  0  0  0  0  0  0  0
   -2.3131    0.4191   -0.9587 O   0  0  0  0  0  0  0  0  0  0  0  0
   -2.0341   -1.6348   -3.6037 C   0  0  0  0  0  0  0  0  0  0  0  0
   -4.2588   -0.5563   -1.7941 H   0  0  0  0  0  0  0  0  0  0  0  0
   -2.2164   -2.6447   -1.7091 H   0  0  0  0  0  0  0  0  0  0  0  0
   -2.2848   -0.6699   -4.0559 H   0  0  0  0  0  0  0  0  0  0  0  0
   -0.9538   -1.7881   -3.6833 H   0  0  0  0  0  0  0  0  0  0  0  0
   -2.5365   -2.4260   -4.1693 H   0  0  0  0  0  0  0  0  0  0  0  0
   -0.4130   -0.7960   -0.9427 N   0  0  0  0  0  0  0  0  0  0  0  0
    0.3290    0.0640   -0.0065 C   0  0  0  0  0  0  0  0  0  0  0  0
    0.8089   -0.7316    1.2121 C   0  0  0  0  0  0  0  0  0  0  0  0
    1.4638   -1.7518    1.0384 O   0  0  0  0  0  0  0  0  0  0  0  0
   -0.0079   -1.7075   -1.1509 H   0  0  0  0  0  0  0  0  0  0  0  0
   -0.2840    0.9020    0.3387 H   0  0  0  0  0  0  0  0  0  0  0  0
    1.1998    0.4909   -0.5117 H   0  0  0  0  0  0  0  0  0  0  0  0
    0.4065   -0.3881    2.4878 N   0  0  0  0  0  0  0  0  0  0  0  0
    0.6000   -1.2346    3.6726 C   0  0  2  0  0  0  0  0  0  0  0  0
   -0.5065   -0.9956    4.7220 C   0  0  0  0  0  0  0  0  0  0  0  0
   -1.2575   -0.0323    4.6148 O   0  0  0  0  0  0  0  0  0  0  0  0
    1.9790   -0.9352    4.2683 C   0  0  0  0  0  0  0  0  0  0  0  0
   -0.2834    0.3597    2.5755 H   0  0  0  0  0  0  0  0  0  0  0  0
    0.5525   -2.2898    3.3824 H   0  0  0  0  0  0  0  0  0  0  0  0
    2.0423    0.1135    4.5755 H   0  0  0  0  0  0  0  0  0  0  0  0
    2.1664   -1.5669    5.1416 H   0  0  0  0  0  0  0  0  0  0  0  0
    2.7622   -1.1303    3.5290 H   0  0  0  0  0  0  0  0  0  0  0  0
   -0.6692   -1.8662    5.7839 N   0  0  0  0  0  0  0  0  0  0  0  0
   -1.7019   -1.7027    6.8004 C   0  0  0  0  0  0  0  0  0  0  0  0
   -0.0476   -2.6680    5.8362 H   0  0  0  0  0  0  0  0  0  0  0  0
   -1.6010   -0.7319    7.2970 H   0  0  0  0  0  0  0  0  0  0  0  0
   -2.6975   -1.7655    6.3488 H   0  0  0  0  0  0  0  0  0  0  0  0
   -1.6154   -2.4872    7.5580 H   0  0  0  0  0  0  0  0  0  0  0  0
  1  2  2  0  0  0  0
  1  3  1  0  0  0  0
  1  7  1  0  0  0  0
  3  4  1  0  0  0  0
  3  5  1  0  0  0  0
  3  6  1  0  0  0  0
  7  8  1  0  0  0  0
  7 12  1  0  0  0  0
  8  9  1  0  0  0  0
  8 11  1  0  0  0  0
  8 13  1  0  0  0  0
  9 10  2  0  0  0  0
  9 17  1  0  0  0  0
 11 14  1  0  0  0  0
 11 15  1  0  0  0  0
 11 16  1  0  0  0  0
 17 18  1  0  0  0  0
 17 21  1  0  0  0  0
 18 19  1  0  0  0  0
 18 22  1  0  0  0  0
 18 23  1  0  0  0  0
 19 20  2  0  0  0  0
 19 24  1  0  0  0  0
 24 25  1  0  0  0  0
 24 29  1  0  0  0  0
 25 26  1  0  0  0  0
 25 28  1  0  0  0  0
 25 30  1  0  0  0  0
 26 27  2  0  0  0  0
 26 34  1  0  0  0  0
 28 31  1  0  0  0  0
 28 32  1  0  0  0  0
 28 33  1  0  0  0  0
 34 35  1  0  0  0  0
 34 36  1  0  0  0  0
 35 37  1  0  0  0  0
 35 38  1  0  0  0  0
 35 39  1  0  0  0  0
M  END
$$$$

  -OEChem-05262216283D

 39 38  0     1  0  0  0  0  0999 V2000
   -4.6969   -2.5074   -1.6851 C   0  0  0  0  0  0  0  0  0  0  0  0
   -4.2805   -3.6544   -1.6446 O   0  0  0  0  0  0  0  0  0  0  0  0
   -6.1259   -2.2041   -1.2758 C   0  0  0  0  0  0  0  0  0  0  0  0
   -6.6727   -1.7775   -2.1201 H   0  0  0  0  0  0  0  0  0  0  0  0
   -6.6301   -3.1203   -0.9558 H   0  0  0  0  0  0  0  0  0  0  0  0
   -6.1333   -1.4912   -0.4476 H   0  0  0  0  0  0  0  0  0  0  0  0
   -3.8712   -1.4787   -2.0881 N   0  0  0  0  0  0  0  0  0  0  0  0
   -2.4162   -1.6092   -2.2505 C   0  0  2  0  0  0  0  0  0  0  0  0
   -1.6611   -0.5822   -1.3818 C   0  0  0  0  0  0  0  0  0  0  0  0
   -2.2184    0.4514   -1.0289 O   0  0  0  0  0  0  0  0  0  0  0  0
   -2.0847   -1.4100   -3.7305 C   0  0  0  0  0  0  0  0  0  0  0  0
   -4.2196   -0.5357   -1.9219 H   0  0  0  0  0  0  0  0  0  0  0  0
   -2.0813   -2.6061   -1.9446 H   0  0  0  0  0  0  0  0  0  0  0  0
   -2.4004   -0.4163   -4.0641 H   0  0  0  0  0  0  0  0  0  0  0  0
   -1.0079   -1.5083   -3.8988 H   0  0  0  0  0  0  0  0  0  0  0  0
   -2.5998   -2.1620   -4.3365 H   0  0  0  0  0  0  0  0  0  0  0  0
   -0.3641   -0.8305   -0.9730 N   0  0  0  0  0  0  0  0  0  0  0  0
    0.3935    0.0131   -0.0345 C   0  0  0  0  0  0  0  0  0  0  0  0
    0.8087   -0.7806    1.2065 C   0  0  0  0  0  0  0  0  0  0  0  0
    1.6369   -1.6749    1.0965 O   0  0  0  0  0  0  0  0  0  0  0  0
    0.0292   -1.7405   -1.2071 H   0  0  0  0  0  0  0  0  0  0  0  0
   -0.1865    0.8851    0.2833 H   0  0  0  0  0  0  0  0  0  0  0  0
    1.2942    0.3905   -0.5267 H   0  0  0  0  0  0  0  0  0  0  0  0
    0.1575   -0.5920    2.4089 N   0  0  0  0  0  0  0  0  0  0  0  0
    0.2786   -1.4906    3.5641 C   0  0  2  0  0  0  0  0  0  0  0  0
   -1.0263   -1.5278    4.3876 C   0  0  0  0  0  0  0  0  0  0  0  0
   -1.9111   -0.7057    4.1762 O   0  0  0  0  0  0  0  0  0  0  0  0
    1.4502   -1.0166    4.4295 C   0  0  0  0  0  0  0  0  0  0  0  0
   -0.6555    0.0262    2.4022 H   0  0  0  0  0  0  0  0  0  0  0  0
    0.4746   -2.5116    3.2197 H   0  0  0  0  0  0  0  0  0  0  0  0
    1.2684   -0.0006    4.7944 H   0  0  0  0  0  0  0  0  0  0  0  0
    1.5857   -1.6781    5.2905 H   0  0  0  0  0  0  0  0  0  0  0  0
    2.3770   -1.0177    3.8468 H   0  0  0  0  0  0  0  0  0  0  0  0
   -1.2208   -2.4977    5.3536 N   0  0  0  0  0  0  0  0  0  0  0  0
   -2.4509   -2.6188    6.1269 C   0  0  0  0  0  0  0  0  0  0  0  0
   -0.4883   -3.1898    5.4811 H   0  0  0  0  0  0  0  0  0  0  0  0
   -2.6494   -1.6942    6.6793 H   0  0  0  0  0  0  0  0  0  0  0  0
   -3.2999   -2.8234    5.4660 H   0  0  0  0  0  0  0  0  0  0  0  0
   -2.3666   -3.4387    6.8465 H   0  0  0  0  0  0  0  0  0  0  0  0
  1  2  2  0  0  0  0
  1  3  1  0  0  0  0
  1  7  1  0  0  0  0
  3  4  1  0  0  0  0
  3  5  1  0  0  0  0
  3  6  1  0  0  0  0
  7  8  1  0  0  0  0
  7 12  1  0  0  0  0
  8  9  1  0  0  0  0
  8 11  1  0  0  0  0
  8 13  1  0  0  0  0
  9 10  2  0  0  0  0
  9 17  1  0  0  0  0
 11 14  1  0  0  0  0
 11 15  1  0  0  0  0
 11 16  1  0  0  0  0
 17 18  1  0  0  0  0
 17 21  1  0  0  0  0
 18 19  1  0  0  0  0
 18 22  1  0  0  0  0
 18 23  1  0  0  0  0
 19 20  2  0  0  0  0
 19 24  1  0  0  0  0
 24 25  1  0  0  0  0
 24 29  1  0  0  0  0
 25 26  1  0  0  0  0
 25 28  1  0  0  0  0
 25 30  1  0  0  0  0
 26 27  2  0  0  0  0
 26 34  1  0  0  0  0
 28 31  1  0  0  0  0
 28 32  1  0  0  0  0
 28 33  1  0  0  0  0
 34 35  1  0  0  0  0
 34 36  1  0  0  0  0
 35 37  1  0  0  0  0
 35 38  1  0  0  0  0
 35 39  1  0  0  0  0
M  END
$$$$

  -OEChem-05262216283D

 39 38  0     1  0  0  0  0  0999 V2000
   -3.1976   -3.1128   -0.9770 C   0  0  0  0  0  0  0  0  0  0  0  0
   -2.7674   -3.6375   -1.9912 O   0  0  0  0  0  0  0  0  0  0  0  0
   -3.6071   -3.9726    0.2014 C   0  0  0  0  0  0  0  0  0  0  0  0
   -3.8217   -4.9913   -0.1326 H   0  0  0  0  0  0  0  0  0  0  0  0
   -2.7983   -4.0029    0.9357 H   0  0  0  0  0  0  0  0  0  0  0  0
   -4.5030   -3.5598    0.6704 H   0  0  0  0  0  0  0  0  0  0  0  0
   -3.1827   -1.7386   -0.8670 N   0  0  0  0  0  0  0  0  0  0  0  0
   -2.6353   -0.8479   -1.9092 C   0  0  2  0  0  0  0  0  0  0  0  0
   -1.1096   -0.6435   -1.7465 C   0  0  0  0  0  0  0  0  0  0  0  0
   -0.5887    0.4580   -1.8773 O   0  0  0  0  0  0  0  0  0  0  0  0
   -3.4200    0.4672   -1.8302 C   0  0  0  0  0  0  0  0  0  0  0  0
   -3.2274   -1.3803    0.0923 H   0  0  0  0  0  0  0  0  0  0  0  0
   -2.8011   -1.2821   -2.9009 H   0  0  0  0  0  0  0  0  0  0  0  0
   -3.2556    0.9542   -0.8637 H   0  0  0  0  0  0  0  0  0  0  0  0
   -3.0991    1.1508   -2.6225 H   0  0  0  0  0  0  0  0  0  0  0  0
   -4.4911    0.2796   -1.9507 H   0  0  0  0  0  0  0  0  0  0  0  0
   -0.3722   -1.6636   -1.1797 N   0  0  0  0  0  0  0  0  0  0  0  0
    0.9251   -1.4946   -0.5180 C   0  0  0  0  0  0  0  0  0  0  0  0
    0.7814   -1.9596    0.9304 C   0  0  0  0  0  0  0  0  0  0  0  0
    0.8019   -3.1489    1.2184 O   0  0  0  0  0  0  0  0  0  0  0  0
   -0.8563   -2.5565   -1.0779 H   0  0  0  0  0  0  0  0  0  0  0  0
    1.2708   -0.4568   -0.5376 H   0  0  0  0  0  0  0  0  0  0  0  0
    1.6833   -2.1019   -1.0209 H   0  0  0  0  0  0  0  0  0  0  0  0
    0.4018   -1.0244    1.8739 N   0  0  0  0  0  0  0  0  0  0  0  0
   -0.2709   -1.4176    3.1180 C   0  0  2  0  0  0  0  0  0  0  0  0
   -1.7707   -1.7494    2.9220 C   0  0  0  0  0  0  0  0  0  0  0  0
   -2.3943   -1.3508    1.9394 O   0  0  0  0  0  0  0  0  0  0  0  0
   -0.1066   -0.2653    4.1123 C   0  0  0  0  0  0  0  0  0  0  0  0
    0.1409   -0.1229    1.4795 H   0  0  0  0  0  0  0  0  0  0  0  0
    0.2201   -2.3041    3.5339 H   0  0  0  0  0  0  0  0  0  0  0  0
   -0.5952    0.6396    3.7363 H   0  0  0  0  0  0  0  0  0  0  0  0
   -0.5525   -0.5247    5.0775 H   0  0  0  0  0  0  0  0  0  0  0  0
    0.9547   -0.0489    4.2706 H   0  0  0  0  0  0  0  0  0  0  0  0
   -2.4382   -2.4765    3.8910 N   0  0  0  0  0  0  0  0  0  0  0  0
   -3.8508   -2.8312    3.8207 C   0  0  0  0  0  0  0  0  0  0  0  0
   -1.8818   -2.8466    4.6569 H   0  0  0  0  0  0  0  0  0  0  0  0
   -4.4512   -1.9785    3.4861 H   0  0  0  0  0  0  0  0  0  0  0  0
   -4.0019   -3.6643    3.1279 H   0  0  0  0  0  0  0  0  0  0  0  0
   -4.2121   -3.1327    4.8088 H   0  0  0  0  0  0  0  0  0  0  0  0
  1  2  2  0  0  0  0
  1  3  1  0  0  0  0
  1  7  1  0  0  0  0
  3  4  1  0  0  0  0
  3  5  1  0  0  0  0
  3  6  1  0  0  0  0
  7  8  1  0  0  0  0
  7 12  1  0  0  0  0
  8  9  1  0  0  0  0
  8 11  1  0  0  0  0
  8 13  1  0  0  0  0
  9 10  2  0  0  0  0
  9 17  1  0  0  0  0
 11 14  1  0  0  0  0
 11 15  1  0  0  0  0
 11 16  1  0  0  0  0
 17 18  1  0  0  0  0
 17 21  1  0  0  0  0
 18 19  1  0  0  0  0
 18 22  1  0  0  0  0
 18 23  1  0  0  0  0
 19 20  2  0  0  0  0
 19 24  1  0  0  0  0
 24 25  1  0  0  0  0
 24 29  1  0  0  0  0
 25 26  1  0  0  0  0
 25 28  1  0  0  0  0
 25 30  1  0  0  0  0
 26 27  2  0  0  0  0
 26 34  1  0  0  0  0
 28 31  1  0  0  0  0
 28 32  1  0  0  0  0
 28 33  1  0  0  0  0
 34 35  1  0  0  0  0
 34 36  1  0  0  0  0
 35 37  1  0  0  0  0
 35 38  1  0  0  0  0
 35 39  1  0  0  0  0
M  END
$$$$

  -OEChem-05262216283D

 39 38  0     1  0  0  0  0  0999 V2000
   -3.4959   -2.8596   -0.9286 C   0  0  0  0  0  0  0  0  0  0  0  0
   -2.7156   -3.5927   -1.5184 O   0  0  0  0  0  0  0  0  0  0  0  0
   -4.5036   -3.4402    0.0443 C   0  0  0  0  0  0  0  0  0  0  0  0
   -5.4935   -3.4608   -0.4175 H   0  0  0  0  0  0  0  0  0  0  0  0
   -4.2172   -4.4595    0.3164 H   0  0  0  0  0  0  0  0  0  0  0  0
   -4.5482   -2.8329    0.9508 H   0  0  0  0  0  0  0  0  0  0  0  0
   -3.4697   -1.5042   -1.1845 N   0  0  0  0  0  0  0  0  0  0  0  0
   -2.5887   -0.8693   -2.1800 C   0  0  2  0  0  0  0  0  0  0  0  0
   -1.1417   -0.6835   -1.6621 C   0  0  0  0  0  0  0  0  0  0  0  0
   -0.5980    0.4145   -1.6424 O   0  0  0  0  0  0  0  0  0  0  0  0
   -3.2501    0.4508   -2.5971 C   0  0  0  0  0  0  0  0  0  0  0  0
   -3.9924   -0.9101   -0.5458 H   0  0  0  0  0  0  0  0  0  0  0  0
   -2.5273   -1.5063   -3.0691 H   0  0  0  0  0  0  0  0  0  0  0  0
   -3.3229    1.1320   -1.7432 H   0  0  0  0  0  0  0  0  0  0  0  0
   -2.6624    0.9400   -3.3806 H   0  0  0  0  0  0  0  0  0  0  0  0
   -4.2561    0.2669   -2.9866 H   0  0  0  0  0  0  0  0  0  0  0  0
   -0.4820   -1.7624   -1.1082 N   0  0  0  0  0  0  0  0  0  0  0  0
    0.8580   -1.7218   -0.5052 C   0  0  0  0  0  0  0  0  0  0  0  0
    0.7787   -2.1464    0.9595 C   0  0  0  0  0  0  0  0  0  0  0  0
    1.0798   -3.2793    1.3109 O   0  0  0  0  0  0  0  0  0  0  0  0
   -0.9928   -2.6517   -1.1225 H   0  0  0  0  0  0  0  0  0  0  0  0
    1.3035   -0.7244   -0.5627 H   0  0  0  0  0  0  0  0  0  0  0  0
    1.5233   -2.4051   -1.0410 H   0  0  0  0  0  0  0  0  0  0  0  0
    0.2563   -1.2497    1.8703 N   0  0  0  0  0  0  0  0  0  0  0  0
   -0.2851   -1.6931    3.1589 C   0  0  2  0  0  0  0  0  0  0  0  0
   -1.7224   -2.2421    3.0221 C   0  0  0  0  0  0  0  0  0  0  0  0
   -2.5187   -1.7265    2.2413 O   0  0  0  0  0  0  0  0  0  0  0  0
   -0.2551   -0.5025    4.1183 C   0  0  0  0  0  0  0  0  0  0  0  0
   -0.1879   -0.4387    1.4427 H   0  0  0  0  0  0  0  0  0  0  0  0
    0.3482   -2.4833    3.5756 H   0  0  0  0  0  0  0  0  0  0  0  0
   -0.8858    0.3099    3.7433 H   0  0  0  0  0  0  0  0  0  0  0  0
   -0.6218   -0.8001    5.1054 H   0  0  0  0  0  0  0  0  0  0  0  0
    0.7678   -0.1289    4.2273 H   0  0  0  0  0  0  0  0  0  0  0  0
   -2.1343   -3.2975    3.8147 N   0  0  0  0  0  0  0  0  0  0  0  0
   -3.4464   -3.9214    3.7046 C   0  0  0  0  0  0  0  0  0  0  0  0
   -1.4157   -3.7727    4.3542 H   0  0  0  0  0  0  0  0  0  0  0  0
   -4.2391   -3.1680    3.7652 H   0  0  0  0  0  0  0  0  0  0  0  0
   -3.5357   -4.4549    2.7532 H   0  0  0  0  0  0  0  0  0  0  0  0
   -3.5930   -4.6375    4.5190 H   0  0  0  0  0  0  0  0  0  0  0  0
  1  2  2  0  0  0  0
  1  3  1  0  0  0  0
  1  7  1  0  0  0  0
  3  4  1  0  0  0  0
  3  5  1  0  0  0  0
  3  6  1  0  0  0  0
  7  8  1  0  0  0  0
  7 12  1  0  0  0  0
  8  9  1  0  0  0  0
  8 11  1  0  0  0  0
  8 13  1  0  0  0  0
  9 10  2  0  0  0  0
  9 17  1  0  0  0  0
 11 14  1  0  0  0  0
 11 15  1  0  0  0  0
 11 16  1  0  0  0  0
 17 18  1  0  0  0  0
 17 21  1  0  0  0  0
 18 19  1  0  0  0  0
 18 22  1  0  0  0  0
 18 23  1  0  0  0  0
 19 20  2  0  0  0  0
 19 24  1  0  0  0  0
 24 25  1  0  0  0  0
 24 29  1  0  0  0  0
 25 26  1  0  0  0  0
 25 28  1  0  0  0  0
 25 30  1  0  0  0  0
 26 27  2  0  0  0  0
 26 34  1  0  0  0  0
 28 31  1  0  0  0  0
 28 32  1  0  0  0  0
 28 33  1  0  0  0  0
 34 35  1  0  0  0  0
 34 36  1  0  0  0  0
 35 37  1  0  0  0  0
 35 38  1  0  0  0  0
 35 39  1  0  0  0  0
M  END
$$$$

  -OEChem-05262216283D

 39 38  0     1  0  0  0  0  0999 V2000
   -3.2776   -3.0289   -1.4887 C   0  0  0  0  0  0  0  0  0  0  0  0
   -2.6821   -3.3052   -2.5181 O   0  0  0  0  0  0  0  0  0  0  0  0
   -3.7798   -4.1391   -0.5874 C   0  0  0  0  0  0  0  0  0  0  0  0
   -4.0153   -5.0265   -1.1809 H   0  0  0  0  0  0  0  0  0  0  0  0
   -3.0122   -4.3956    0.1462 H   0  0  0  0  0  0  0  0  0  0  0  0
   -4.6825   -3.8170   -0.0629 H   0  0  0  0  0  0  0  0  0  0  0  0
   -3.3711   -1.7091   -1.1005 N   0  0  0  0  0  0  0  0  0  0  0  0
   -2.8125   -0.5903   -1.8855 C   0  0  2  0  0  0  0  0  0  0  0  0
   -1.3008   -0.3853   -1.6206 C   0  0  0  0  0  0  0  0  0  0  0  0
   -0.8139    0.7286   -1.4731 O   0  0  0  0  0  0  0  0  0  0  0  0
   -3.6473    0.6529   -1.5534 C   0  0  0  0  0  0  0  0  0  0  0  0
   -3.5276   -1.5640   -0.0995 H   0  0  0  0  0  0  0  0  0  0  0  0
   -2.9265   -0.7960   -2.9553 H   0  0  0  0  0  0  0  0  0  0  0  0
   -3.5409    0.9166   -0.4963 H   0  0  0  0  0  0  0  0  0  0  0  0
   -3.3194    1.5046   -2.1579 H   0  0  0  0  0  0  0  0  0  0  0  0
   -4.7054    0.4695   -1.7643 H   0  0  0  0  0  0  0  0  0  0  0  0
   -0.5348   -1.4876   -1.3014 N   0  0  0  0  0  0  0  0  0  0  0  0
    0.8540   -1.4637   -0.8221 C   0  0  0  0  0  0  0  0  0  0  0  0
    0.8922   -2.1162    0.5593 C   0  0  0  0  0  0  0  0  0  0  0  0
    1.4311   -3.1980    0.7446 O   0  0  0  0  0  0  0  0  0  0  0  0
   -0.9657   -2.3913   -1.5080 H   0  0  0  0  0  0  0  0  0  0  0  0
    1.2482   -0.4454   -0.7505 H   0  0  0  0  0  0  0  0  0  0  0  0
    1.4988   -2.0190   -1.5098 H   0  0  0  0  0  0  0  0  0  0  0  0
    0.1260   -1.5278    1.5471 N   0  0  0  0  0  0  0  0  0  0  0  0
   -0.3825   -2.2472    2.7199 C   0  0  2  0  0  0  0  0  0  0  0  0
   -1.8635   -2.6612    2.5569 C   0  0  0  0  0  0  0  0  0  0  0  0
   -2.5929   -2.1092    1.7340 O   0  0  0  0  0  0  0  0  0  0  0  0
   -0.2151   -1.3223    3.9277 C   0  0  0  0  0  0  0  0  0  0  0  0
   -0.4427   -0.7504    1.2131 H   0  0  0  0  0  0  0  0  0  0  0  0
    0.2042   -3.1552    2.8944 H   0  0  0  0  0  0  0  0  0  0  0  0
   -0.8016   -0.4073    3.7941 H   0  0  0  0  0  0  0  0  0  0  0  0
   -0.5493   -1.8196    4.8435 H   0  0  0  0  0  0  0  0  0  0  0  0
    0.8375   -1.0466    4.0496 H   0  0  0  0  0  0  0  0  0  0  0  0
   -2.3931   -3.6461    3.3701 N   0  0  0  0  0  0  0  0  0  0  0  0
   -3.7864   -4.0729    3.3323 C   0  0  0  0  0  0  0  0  0  0  0  0
   -1.7595   -4.1039    4.0199 H   0  0  0  0  0  0  0  0  0  0  0  0
   -4.4569   -3.2092    3.3942 H   0  0  0  0  0  0  0  0  0  0  0  0
   -3.9959   -4.6185    2.4073 H   0  0  0  0  0  0  0  0  0  0  0  0
   -4.0005   -4.7328    4.1787 H   0  0  0  0  0  0  0  0  0  0  0  0
  1  2  2  0  0  0  0
  1  3  1  0  0  0  0
  1  7  1  0  0  0  0
  3  4  1  0  0  0  0
  3  5  1  0  0  0  0
  3  6  1  0  0  0  0
  7  8  1  0  0  0  0
  7 12  1  0  0  0  0
  8  9  1  0  0  0  0
  8 11  1  0  0  0  0
  8 13  1  0  0  0  0
  9 10  2  0  0  0  0
  9 17  1  0  0  0  0
 11 14  1  0  0  0  0
 11 15  1  0  0  0  0
 11 16  1  0  0  0  0
 17 18  1  0  0  0  0
 17 21  1  0  0  0  0
 18 19  1  0  0  0  0
 18 22  1  0  0  0  0
 18 23  1  0  0  0  0
 19 20  2  0  0  0  0
 19 24  1  0  0  0  0
 24 25  1  0  0  0  0
 24 29  1  0  0  0  0
 25 26  1  0  0  0  0
 25 28  1  0  0  0  0
 25 30  1  0  0  0  0
 26 27  2  0  0  0  0
 26 34  1  0  0  0  0
 28 31  1  0  0  0  0
 28 32  1  0  0  0  0
 28 33  1  0  0  0  0
 34 35  1  0  0  0  0
 34 36  1  0  0  0  0
 35 37  1  0  0  0  0
 35 38  1  0  0  0  0
 35 39  1  0  0  0  0
M  END
$$$$

  -OEChem-05262216283D

 39 38  0     1  0  0  0  0  0999 V2000
   -2.8662   -3.1542   -1.7731 C   0  0  0  0  0  0  0  0  0  0  0  0
   -2.1015   -3.2639   -2.7188 O   0  0  0  0  0  0  0  0  0  0  0  0
   -3.2922   -4.3885   -1.0023 C   0  0  0  0  0  0  0  0  0  0  0  0
   -3.4260   -5.2296   -1.6878 H   0  0  0  0  0  0  0  0  0  0  0  0
   -2.5288   -4.6476   -0.2651 H   0  0  0  0  0  0  0  0  0  0  0  0
   -4.2371   -4.2028   -0.4860 H   0  0  0  0  0  0  0  0  0  0  0  0
   -3.2370   -1.8934   -1.3544 N   0  0  0  0  0  0  0  0  0  0  0  0
   -2.8146   -0.6494   -2.0289 C   0  0  2  0  0  0  0  0  0  0  0  0
   -1.3916   -0.2033   -1.6111 C   0  0  0  0  0  0  0  0  0  0  0  0
   -1.1318    0.9590   -1.3297 O   0  0  0  0  0  0  0  0  0  0  0  0
   -3.8820    0.4083   -1.7247 C   0  0  0  0  0  0  0  0  0  0  0  0
   -3.5675   -1.8343   -0.3885 H   0  0  0  0  0  0  0  0  0  0  0  0
   -2.7966   -0.8070   -3.1128 H   0  0  0  0  0  0  0  0  0  0  0  0
   -3.9212    0.6170   -0.6509 H   0  0  0  0  0  0  0  0  0  0  0  0
   -3.6558    1.3410   -2.2510 H   0  0  0  0  0  0  0  0  0  0  0  0
   -4.8669    0.0603   -2.0507 H   0  0  0  0  0  0  0  0  0  0  0  0
   -0.4579   -1.1785   -1.3282 N   0  0  0  0  0  0  0  0  0  0  0  0
    0.8764   -0.9640   -0.7442 C   0  0  0  0  0  0  0  0  0  0  0  0
    0.9661   -1.7275    0.5793 C   0  0  0  0  0  0  0  0  0  0  0  0
    1.8672   -2.5222    0.8040 O   0  0  0  0  0  0  0  0  0  0  0  0
   -0.6998   -2.1145   -1.6637 H   0  0  0  0  0  0  0  0  0  0  0  0
    1.0729    0.0958   -0.5556 H   0  0  0  0  0  0  0  0  0  0  0  0
    1.6484   -1.3260   -1.4296 H   0  0  0  0  0  0  0  0  0  0  0  0
   -0.1096   -1.6234    1.4395 N   0  0  0  0  0  0  0  0  0  0  0  0
   -0.4688   -2.6185    2.4538 C   0  0  2  0  0  0  0  0  0  0  0  0
   -1.9524   -3.0362    2.3253 C   0  0  0  0  0  0  0  0  0  0  0  0
   -2.7035   -2.4637    1.5360 O   0  0  0  0  0  0  0  0  0  0  0  0
   -0.1838   -2.0074    3.8283 C   0  0  0  0  0  0  0  0  0  0  0  0
   -0.8767   -1.0572    1.0766 H   0  0  0  0  0  0  0  0  0  0  0  0
    0.1380   -3.5220    2.3306 H   0  0  0  0  0  0  0  0  0  0  0  0
   -0.7891   -1.1079    3.9804 H   0  0  0  0  0  0  0  0  0  0  0  0
   -0.4120   -2.7213    4.6253 H   0  0  0  0  0  0  0  0  0  0  0  0
    0.8734   -1.7327    3.9052 H   0  0  0  0  0  0  0  0  0  0  0  0
   -2.4504   -4.0815    3.0809 N   0  0  0  0  0  0  0  0  0  0  0  0
   -3.8435   -4.5111    3.0461 C   0  0  0  0  0  0  0  0  0  0  0  0
   -1.8142   -4.5332    3.7327 H   0  0  0  0  0  0  0  0  0  0  0  0
   -4.5074   -3.6805    3.3084 H   0  0  0  0  0  0  0  0  0  0  0  0
   -4.1096   -4.8747    2.0484 H   0  0  0  0  0  0  0  0  0  0  0  0
   -4.0071   -5.3221    3.7626 H   0  0  0  0  0  0  0  0  0  0  0  0
  1  2  2  0  0  0  0
  1  3  1  0  0  0  0
  1  7  1  0  0  0  0
  3  4  1  0  0  0  0
  3  5  1  0  0  0  0
  3  6  1  0  0  0  0
  7  8  1  0  0  0  0
  7 12  1  0  0  0  0
  8  9  1  0  0  0  0
  8 11  1  0  0  0  0
  8 13  1  0  0  0  0
  9 10  2  0  0  0  0
  9 17  1  0  0  0  0
 11 14  1  0  0  0  0
 11 15  1  0  0  0  0
 11 16  1  0  0  0  0
 17 18  1  0  0  0  0
 17 21  1  0  0  0  0
 18 19  1  0  0  0  0
 18 22  1  0  0  0  0
 18 23  1  0  0  0  0
 19 20  2  0  0  0  0
 19 24  1  0  0  0  0
 24 25  1  0  0  0  0
 24 29  1  0  0  0  0
 25 26  1  0  0  0  0
 25 28  1  0  0  0  0
 25 30  1  0  0  0  0
 26 27  2  0  0  0  0
 26 34  1  0  0  0  0
 28 31  1  0  0  0  0
 28 32  1  0  0  0  0
 28 33  1  0  0  0  0
 34 35  1  0  0  0  0
 34 36  1  0  0  0  0
 35 37  1  0  0  0  0
 35 38  1  0  0  0  0
 35 39  1  0  0  0  0
M  END
$$$$

  -OEChem-05262216283D

 39 38  0     1  0  0  0  0  0999 V2000
   -2.7349   -3.2035   -1.8755 C   0  0  0  0  0  0  0  0  0  0  0  0
   -1.7100   -3.3778   -2.5183 O   0  0  0  0  0  0  0  0  0  0  0  0
   -3.4425   -4.3869   -1.2432 C   0  0  0  0  0  0  0  0  0  0  0  0
   -4.1678   -4.0468   -0.5002 H   0  0  0  0  0  0  0  0  0  0  0  0
   -3.9668   -4.9600   -2.0116 H   0  0  0  0  0  0  0  0  0  0  0  0
   -2.7132   -5.0332   -0.7476 H   0  0  0  0  0  0  0  0  0  0  0  0
   -3.2265   -1.9212   -1.7345 N   0  0  0  0  0  0  0  0  0  0  0  0
   -2.6797   -0.7370   -2.4236 C   0  0  2  0  0  0  0  0  0  0  0  0
   -1.3968   -0.1828   -1.7547 C   0  0  0  0  0  0  0  0  0  0  0  0
   -1.2816    0.9970   -1.4504 O   0  0  0  0  0  0  0  0  0  0  0  0
   -3.8075    0.3004   -2.4942 C   0  0  0  0  0  0  0  0  0  0  0  0
   -3.9997   -1.7962   -1.0856 H   0  0  0  0  0  0  0  0  0  0  0  0
   -2.4096   -1.0093   -3.4496 H   0  0  0  0  0  0  0  0  0  0  0  0
   -4.0944    0.6259   -1.4890 H   0  0  0  0  0  0  0  0  0  0  0  0
   -3.4821    1.1784   -3.0615 H   0  0  0  0  0  0  0  0  0  0  0  0
   -4.6860   -0.1230   -2.9906 H   0  0  0  0  0  0  0  0  0  0  0  0
   -0.4039   -1.0684   -1.3876 N   0  0  0  0  0  0  0  0  0  0  0  0
    0.8469   -0.7308   -0.6835 C   0  0  0  0  0  0  0  0  0  0  0  0
    0.9352   -1.4739    0.6534 C   0  0  0  0  0  0  0  0  0  0  0  0
    2.0031   -1.8887    1.0807 O   0  0  0  0  0  0  0  0  0  0  0  0
   -0.5396   -2.0314   -1.7135 H   0  0  0  0  0  0  0  0  0  0  0  0
    0.9142    0.3429   -0.4839 H   0  0  0  0  0  0  0  0  0  0  0  0
    1.7051   -1.0042   -1.3044 H   0  0  0  0  0  0  0  0  0  0  0  0
   -0.2381   -1.7787    1.3131 N   0  0  0  0  0  0  0  0  0  0  0  0
   -0.3774   -2.7751    2.3765 C   0  0  2  0  0  0  0  0  0  0  0  0
   -1.7512   -3.4768    2.2922 C   0  0  0  0  0  0  0  0  0  0  0  0
   -2.6168   -3.0623    1.5242 O   0  0  0  0  0  0  0  0  0  0  0  0
   -0.1984   -2.0716    3.7249 C   0  0  0  0  0  0  0  0  0  0  0  0
   -1.0937   -1.5023    0.8315 H   0  0  0  0  0  0  0  0  0  0  0  0
    0.3944   -3.5440    2.2643 H   0  0  0  0  0  0  0  0  0  0  0  0
   -0.9656   -1.3025    3.8605 H   0  0  0  0  0  0  0  0  0  0  0  0
   -0.2727   -2.7887    4.5476 H   0  0  0  0  0  0  0  0  0  0  0  0
    0.7857   -1.5940    3.7739 H   0  0  0  0  0  0  0  0  0  0  0  0
   -2.0132   -4.5995    3.0548 N   0  0  0  0  0  0  0  0  0  0  0  0
   -3.2779   -5.3234    3.0131 C   0  0  0  0  0  0  0  0  0  0  0  0
   -1.2808   -4.9228    3.6807 H   0  0  0  0  0  0  0  0  0  0  0  0
   -3.4786   -5.6879    2.0004 H   0  0  0  0  0  0  0  0  0  0  0  0
   -3.2434   -6.1839    3.6881 H   0  0  0  0  0  0  0  0  0  0  0  0
   -4.1023   -4.6733    3.3239 H   0  0  0  0  0  0  0  0  0  0  0  0
  1  2  2  0  0  0  0
  1  3  1  0  0  0  0
  1  7  1  0  0  0  0
  3  4  1  0  0  0  0
  3  5  1  0  0  0  0
  3  6  1  0  0  0  0
  7  8  1  0  0  0  0
  7 12  1  0  0  0  0
  8  9  1  0  0  0  0
  8 11  1  0  0  0  0
  8 13  1  0  0  0  0
  9 10  2  0  0  0  0
  9 17  1  0  0  0  0
 11 14  1  0  0  0  0
 11 15  1  0  0  0  0
 11 16  1  0  0  0  0
 17 18  1  0  0  0  0
 17 21  1  0  0  0  0
 18 19  1  0  0  0  0
 18 22  1  0  0  0  0
 18 23  1  0  0  0  0
 19 20  2  0  0  0  0
 19 24  1  0  0  0  0
 24 25  1  0  0  0  0
 24 29  1  0  0  0  0
 25 26  1  0  0  0  0
 25 28  1  0  0  0  0
 25 30  1  0  0  0  0
 26 27  2  0  0  0  0
 26 34  1  0  0  0  0
 28 31  1  0  0  0  0
 28 32  1  0  0  0  0
 28 33  1  0  0  0  0
 34 35  1  0  0  0  0
 34 36  1  0  0  0  0
 35 37  1  0  0  0  0
 35 38  1  0  0  0  0
 35 39  1  0  0  0  0
M  END
$$$$

  -OEChem-05262216283D

 39 38  0     1  0  0  0  0  0999 V2000
   -2.7017   -3.1379   -2.0185 C   0  0  0  0  0  0  0  0  0  0  0  0
   -1.5747   -3.3223   -2.4559 O   0  0  0  0  0  0  0  0  0  0  0  0
   -3.5233   -4.3001   -1.4940 C   0  0  0  0  0  0  0  0  0  0  0  0
   -4.1800   -4.6789   -2.2806 H   0  0  0  0  0  0  0  0  0  0  0  0
   -2.8625   -5.1054   -1.1615 H   0  0  0  0  0  0  0  0  0  0  0  0
   -4.1322   -3.9799   -0.6449 H   0  0  0  0  0  0  0  0  0  0  0  0
   -3.2240   -1.8596   -2.0299 N   0  0  0  0  0  0  0  0  0  0  0  0
   -2.5780   -0.7014   -2.6734 C   0  0  2  0  0  0  0  0  0  0  0  0
   -1.4203   -0.1040   -1.8344 C   0  0  0  0  0  0  0  0  0  0  0  0
   -1.4112    1.0695   -1.4872 O   0  0  0  0  0  0  0  0  0  0  0  0
   -3.6801    0.3219   -2.9753 C   0  0  0  0  0  0  0  0  0  0  0  0
   -4.1424   -1.7340   -1.6128 H   0  0  0  0  0  0  0  0  0  0  0  0
   -2.1460   -1.0162   -3.6296 H   0  0  0  0  0  0  0  0  0  0  0  0
   -4.1390    0.6796   -2.0480 H   0  0  0  0  0  0  0  0  0  0  0  0
   -3.2624    1.1825   -3.5076 H   0  0  0  0  0  0  0  0  0  0  0  0
   -4.4573   -0.1251   -3.6023 H   0  0  0  0  0  0  0  0  0  0  0  0
   -0.3914   -0.9330   -1.4334 N   0  0  0  0  0  0  0  0  0  0  0  0
    0.7863   -0.5325   -0.6399 C   0  0  0  0  0  0  0  0  0  0  0  0
    0.8799   -1.2961    0.6861 C   0  0  0  0  0  0  0  0  0  0  0  0
    1.9414   -1.3698    1.2885 O   0  0  0  0  0  0  0  0  0  0  0  0
   -0.4521   -1.8990   -1.7737 H   0  0  0  0  0  0  0  0  0  0  0  0
    0.7595    0.5368   -0.4095 H   0  0  0  0  0  0  0  0  0  0  0  0
    1.6951   -0.7190   -1.2189 H   0  0  0  0  0  0  0  0  0  0  0  0
   -0.2184   -1.9900    1.1528 N   0  0  0  0  0  0  0  0  0  0  0  0
   -0.2265   -2.9145    2.2894 C   0  0  2  0  0  0  0  0  0  0  0  0
   -1.3725   -3.9406    2.1606 C   0  0  0  0  0  0  0  0  0  0  0  0
   -2.3109   -3.7299    1.3966 O   0  0  0  0  0  0  0  0  0  0  0  0
   -0.3752   -2.1055    3.5822 C   0  0  0  0  0  0  0  0  0  0  0  0
   -1.0589   -1.9499    0.5775 H   0  0  0  0  0  0  0  0  0  0  0  0
    0.7182   -3.4681    2.3138 H   0  0  0  0  0  0  0  0  0  0  0  0
   -1.3159   -1.5456    3.5766 H   0  0  0  0  0  0  0  0  0  0  0  0
   -0.3676   -2.7679    4.4527 H   0  0  0  0  0  0  0  0  0  0  0  0
    0.4513   -1.3950    3.6840 H   0  0  0  0  0  0  0  0  0  0  0  0
   -1.3513   -5.1111    2.8962 N   0  0  0  0  0  0  0  0  0  0  0  0
   -2.3838   -6.1362    2.8027 C   0  0  0  0  0  0  0  0  0  0  0  0
   -0.5472   -5.2748    3.4957 H   0  0  0  0  0  0  0  0  0  0  0  0
   -3.3582   -5.7262    3.0886 H   0  0  0  0  0  0  0  0  0  0  0  0
   -2.4497   -6.5216    1.7796 H   0  0  0  0  0  0  0  0  0  0  0  0
   -2.1506   -6.9701    3.4718 H   0  0  0  0  0  0  0  0  0  0  0  0
  1  2  2  0  0  0  0
  1  3  1  0  0  0  0
  1  7  1  0  0  0  0
  3  4  1  0  0  0  0
  3  5  1  0  0  0  0
  3  6  1  0  0  0  0
  7  8  1  0  0  0  0
  7 12  1  0  0  0  0
  8  9  1  0  0  0  0
  8 11  1  0  0  0  0
  8 13  1  0  0  0  0
  9 10  2  0  0  0  0
  9 17  1  0  0  0  0
 11 14  1  0  0  0  0
 11 15  1  0  0  0  0
 11 16  1  0  0  0  0
 17 18  1  0  0  0  0
 17 21  1  0  0  0  0
 18 19  1  0  0  0  0
 18 22  1  0  0  0  0
 18 23  1  0  0  0  0
 19 20  2  0  0  0  0
 19 24  1  0  0  0  0
 24 25  1  0  0  0  0
 24 29  1  0  0  0  0
 25 26  1  0  0  0  0
 25 28  1  0  0  0  0
 25 30  1  0  0  0  0
 26 27  2  0  0  0  0
 26 34  1  0  0  0  0
 28 31  1  0  0  0  0
 28 32  1  0  0  0  0
 28 33  1  0  0  0  0
 34 35  1  0  0  0  0
 34 36  1  0  0  0  0
 35 37  1  0  0  0  0
 35 38  1  0  0  0  0
 35 39  1  0  0  0  0
M  END
$$$$

  -OEChem-05262216283D

 39 38  0     1  0  0  0  0  0999 V2000
   -3.9814   -2.0509   -1.1916 C   0  0  0  0  0  0  0  0  0  0  0  0
   -3.2445   -2.5492   -0.3520 O   0  0  0  0  0  0  0  0  0  0  0  0
   -5.4080   -1.6848   -0.8297 C   0  0  0  0  0  0  0  0  0  0  0  0
   -6.1004   -2.1161   -1.5566 H   0  0  0  0  0  0  0  0  0  0  0  0
   -5.6569   -2.0700    0.1634 H   0  0  0  0  0  0  0  0  0  0  0  0
   -5.5239   -0.5979   -0.8262 H   0  0  0  0  0  0  0  0  0  0  0  0
   -3.4955   -1.7659   -2.4517 N   0  0  0  0  0  0  0  0  0  0  0  0
   -2.0709   -1.8861   -2.7882 C   0  0  2  0  0  0  0  0  0  0  0  0
   -1.2275   -0.8439   -2.0235 C   0  0  0  0  0  0  0  0  0  0  0  0
   -1.3617    0.3525   -2.2494 O   0  0  0  0  0  0  0  0  0  0  0  0
   -1.9184   -1.7240   -4.3029 C   0  0  0  0  0  0  0  0  0  0  0  0
   -4.0698   -1.1598   -3.0306 H   0  0  0  0  0  0  0  0  0  0  0  0
   -1.7140   -2.8855   -2.5143 H   0  0  0  0  0  0  0  0  0  0  0  0
   -2.2745   -0.7399   -4.6253 H   0  0  0  0  0  0  0  0  0  0  0  0
   -0.8663   -1.8212   -4.5886 H   0  0  0  0  0  0  0  0  0  0  0  0
   -2.4925   -2.4937   -4.8276 H   0  0  0  0  0  0  0  0  0  0  0  0
   -0.4338   -1.2651   -0.9767 N   0  0  0  0  0  0  0  0  0  0  0  0
    0.1899   -0.3910    0.0309 C   0  0  0  0  0  0  0  0  0  0  0  0
   -0.2808   -0.7287    1.4536 C   0  0  0  0  0  0  0  0  0  0  0  0
    0.4244   -0.3926    2.3956 O   0  0  0  0  0  0  0  0  0  0  0  0
   -0.4183   -2.2740   -0.7882 H   0  0  0  0  0  0  0  0  0  0  0  0
   -0.0412    0.6611   -0.1602 H   0  0  0  0  0  0  0  0  0  0  0  0
    1.2766   -0.5037   -0.0178 H   0  0  0  0  0  0  0  0  0  0  0  0
   -1.1920   -1.7537    1.6406 N   0  0  0  0  0  0  0  0  0  0  0  0
   -0.8322   -2.9193    2.4528 C   0  0  2  0  0  0  0  0  0  0  0  0
   -0.0031   -3.9326    1.6281 C   0  0  0  0  0  0  0  0  0  0  0  0
    0.0219   -3.8734    0.3990 O   0  0  0  0  0  0  0  0  0  0  0  0
   -2.1288   -3.5594    2.9524 C   0  0  0  0  0  0  0  0  0  0  0  0
   -1.7354   -1.9788    0.8013 H   0  0  0  0  0  0  0  0  0  0  0  0
   -0.2403   -2.6115    3.3214 H   0  0  0  0  0  0  0  0  0  0  0  0
   -2.7401   -3.8961    2.1085 H   0  0  0  0  0  0  0  0  0  0  0  0
   -1.9104   -4.4212    3.5902 H   0  0  0  0  0  0  0  0  0  0  0  0
   -2.7078   -2.8355    3.5344 H   0  0  0  0  0  0  0  0  0  0  0  0
    0.7491   -4.8985    2.2704 N   0  0  0  0  0  0  0  0  0  0  0  0
    1.6264   -5.8283    1.5696 C   0  0  0  0  0  0  0  0  0  0  0  0
    0.7794   -4.8663    3.2854 H   0  0  0  0  0  0  0  0  0  0  0  0
    1.0625   -6.4055    0.8291 H   0  0  0  0  0  0  0  0  0  0  0  0
    2.4287   -5.2862    1.0582 H   0  0  0  0  0  0  0  0  0  0  0  0
    2.0782   -6.5284    2.2789 H   0  0  0  0  0  0  0  0  0  0  0  0
  1  2  2  0  0  0  0
  1  3  1  0  0  0  0
  1  7  1  0  0  0  0
  3  4  1  0  0  0  0
  3  5  1  0  0  0  0
  3  6  1  0  0  0  0
  7  8  1  0  0  0  0
  7 12  1  0  0  0  0
  8  9  1  0  0  0  0
  8 11  1  0  0  0  0
  8 13  1  0  0  0  0
  9 10  2  0  0  0  0
  9 17  1  0  0  0  0
 11 14  1  0  0  0  0
 11 15  1  0  0  0  0
 11 16  1  0  0  0  0
 17 18  1  0  0  0  0
 17 21  1  0  0  0  0
 18 19  1  0  0  0  0
 18 22  1  0  0  0  0
 18 23  1  0  0  0  0
 19 20  2  0  0  0  0
 19 24  1  0  0  0  0
 24 25  1  0  0  0  0
 24 29  1  0  0  0  0
 25 26  1  0  0  0  0
 25 28  1  0  0  0  0
 25 30  1  0  0  0  0
 26 27  2  0  0  0  0
 26 34  1  0  0  0  0
 28 31  1  0  0  0  0
 28 32  1  0  0  0  0
 28 33  1  0  0  0  0
 34 35  1  0  0  0  0
 34 36  1  0  0  0  0
 35 37  1  0  0  0  0
 35 38  1  0  0  0  0
 35 39  1  0  0  0  0
M  END
$$$$

  -OEChem-05262216283D

 39 38  0     1  0  0  0  0  0999 V2000
   -5.1849   -2.0797   -2.9010 C   0  0  0  0  0  0  0  0  0  0  0  0
   -4.8552   -3.1980   -3.2628 O   0  0  0  0  0  0  0  0  0  0  0  0
   -6.6527   -1.7159   -2.7865 C   0  0  0  0  0  0  0  0  0  0  0  0
   -7.2756   -2.5654   -3.0802 H   0  0  0  0  0  0  0  0  0  0  0  0
   -6.8903   -1.4445   -1.7550 H   0  0  0  0  0  0  0  0  0  0  0  0
   -6.8788   -0.8702   -3.4404 H   0  0  0  0  0  0  0  0  0  0  0  0
   -4.2215   -1.1473   -2.5814 N   0  0  0  0  0  0  0  0  0  0  0  0
   -2.7857   -1.4401   -2.4908 C   0  0  2  0  0  0  0  0  0  0  0  0
   -2.1033   -0.5871   -1.4003 C   0  0  0  0  0  0  0  0  0  0  0  0
   -2.6901    0.3743   -0.9180 O   0  0  0  0  0  0  0  0  0  0  0  0
   -2.1528   -1.1805   -3.8608 C   0  0  0  0  0  0  0  0  0  0  0  0
   -4.5375   -0.2753   -2.1575 H   0  0  0  0  0  0  0  0  0  0  0  0
   -2.6397   -2.4918   -2.2201 H   0  0  0  0  0  0  0  0  0  0  0  0
   -2.2880   -0.1343   -4.1530 H   0  0  0  0  0  0  0  0  0  0  0  0
   -1.0818   -1.4020   -3.8398 H   0  0  0  0  0  0  0  0  0  0  0  0
   -2.6205   -1.8171   -4.6185 H   0  0  0  0  0  0  0  0  0  0  0  0
   -0.8446   -0.9268   -0.9350 N   0  0  0  0  0  0  0  0  0  0  0  0
   -0.0697   -0.1323    0.0433 C   0  0  0  0  0  0  0  0  0  0  0  0
    0.2684   -0.8958    1.3309 C   0  0  0  0  0  0  0  0  0  0  0  0
    0.8098   -0.3147    2.2597 O   0  0  0  0  0  0  0  0  0  0  0  0
   -0.3720   -1.6833   -1.4251 H   0  0  0  0  0  0  0  0  0  0  0  0
   -0.6117    0.7743    0.3315 H   0  0  0  0  0  0  0  0  0  0  0  0
    0.8676    0.1890   -0.4193 H   0  0  0  0  0  0  0  0  0  0  0  0
    0.1344   -2.2691    1.3797 N   0  0  0  0  0  0  0  0  0  0  0  0
    0.7555   -3.1435    2.3800 C   0  0  2  0  0  0  0  0  0  0  0  0
    1.2421   -4.4563    1.7292 C   0  0  0  0  0  0  0  0  0  0  0  0
    0.9410   -4.7113    0.5664 O   0  0  0  0  0  0  0  0  0  0  0  0
   -0.2734   -3.4215    3.4789 C   0  0  0  0  0  0  0  0  0  0  0  0
   -0.2145   -2.7236    0.5385 H   0  0  0  0  0  0  0  0  0  0  0  0
    1.6297   -2.6509    2.8193 H   0  0  0  0  0  0  0  0  0  0  0  0
   -1.1525   -3.9236    3.0626 H   0  0  0  0  0  0  0  0  0  0  0  0
    0.1565   -4.0584    4.2573 H   0  0  0  0  0  0  0  0  0  0  0  0
   -0.5950   -2.4826    3.9407 H   0  0  0  0  0  0  0  0  0  0  0  0
    2.0347   -5.3430    2.4344 N   0  0  0  0  0  0  0  0  0  0  0  0
    2.5513   -6.5818    1.8647 C   0  0  0  0  0  0  0  0  0  0  0  0
    2.2887   -5.0947    3.3865 H   0  0  0  0  0  0  0  0  0  0  0  0
    1.7319   -7.1975    1.4781 H   0  0  0  0  0  0  0  0  0  0  0  0
    3.2467   -6.3661    1.0465 H   0  0  0  0  0  0  0  0  0  0  0  0
    3.0828   -7.1569    2.6290 H   0  0  0  0  0  0  0  0  0  0  0  0
  1  2  2  0  0  0  0
  1  3  1  0  0  0  0
  1  7  1  0  0  0  0
  3  4  1  0  0  0  0
  3  5  1  0  0  0  0
  3  6  1  0  0  0  0
  7  8  1  0  0  0  0
  7 12  1  0  0  0  0
  8  9  1  0  0  0  0
  8 11  1  0  0  0  0
  8 13  1  0  0  0  0
  9 10  2  0  0  0  0
  9 17  1  0  0  0  0
 11 14  1  0  0  0  0
 11 15  1  0  0  0  0
 11 16  1  0  0  0  0
 17 18  1  0  0  0  0
 17 21  1  0  0  0  0
 18 19  1  0  0  0  0
 18 22  1  0  0  0  0
 18 23  1  0  0  0  0
 19 20  2  0  0  0  0
 19 24  1  0  0  0  0
 24 25  1  0  0  0  0
 24 29  1  0  0  0  0
 25 26  1  0  0  0  0
 25 28  1  0  0  0  0
 25 30  1  0  0  0  0
 26 27  2  0  0  0  0
 26 34  1  0  0  0  0
 28 31  1  0  0  0  0
 28 32  1  0  0  0  0
 28 33  1  0  0  0  0
 34 35  1  0  0  0  0
 34 36  1  0  0  0  0
 35 37  1  0  0  0  0
 35 38  1  0  0  0  0
 35 39  1  0  0  0  0
M  END
$$$$

  -OEChem-05262216283D

 39 38  0     1  0  0  0  0  0999 V2000
   -4.8955   -2.3859   -2.5707 C   0  0  0  0  0  0  0  0  0  0  0  0
   -4.3716   -3.4765   -2.7333 O   0  0  0  0  0  0  0  0  0  0  0  0
   -6.3660   -2.2987   -2.2085 C   0  0  0  0  0  0  0  0  0  0  0  0
   -6.8911   -1.6636   -2.9259 H   0  0  0  0  0  0  0  0  0  0  0  0
   -6.8180   -3.2944   -2.2241 H   0  0  0  0  0  0  0  0  0  0  0  0
   -6.4786   -1.8768   -1.2067 H   0  0  0  0  0  0  0  0  0  0  0  0
   -4.1523   -1.2303   -2.6942 N   0  0  0  0  0  0  0  0  0  0  0  0
   -2.6848   -1.2055   -2.7761 C   0  0  2  0  0  0  0  0  0  0  0  0
   -2.0682   -0.4634   -1.5727 C   0  0  0  0  0  0  0  0  0  0  0  0
   -2.6908    0.4457   -1.0375 O   0  0  0  0  0  0  0  0  0  0  0  0
   -2.2985   -0.5158   -4.0864 C   0  0  0  0  0  0  0  0  0  0  0  0
   -4.5973   -0.3774   -2.3586 H   0  0  0  0  0  0  0  0  0  0  0  0
   -2.2787   -2.2224   -2.7827 H   0  0  0  0  0  0  0  0  0  0  0  0
   -2.6855    0.5081   -4.1100 H   0  0  0  0  0  0  0  0  0  0  0  0
   -1.2101   -0.4788   -4.1940 H   0  0  0  0  0  0  0  0  0  0  0  0
   -2.7121   -1.0646   -4.9384 H   0  0  0  0  0  0  0  0  0  0  0  0
   -0.8123   -0.8113   -1.1053 N   0  0  0  0  0  0  0  0  0  0  0  0
   -0.0798   -0.0760   -0.0522 C   0  0  0  0  0  0  0  0  0  0  0  0
    0.2514   -0.9196    1.1866 C   0  0  0  0  0  0  0  0  0  0  0  0
    0.4764   -0.3697    2.2548 O   0  0  0  0  0  0  0  0  0  0  0  0
   -0.3178   -1.5254   -1.6339 H   0  0  0  0  0  0  0  0  0  0  0  0
   -0.6515    0.7943    0.2863 H   0  0  0  0  0  0  0  0  0  0  0  0
    0.8587    0.3012   -0.4675 H   0  0  0  0  0  0  0  0  0  0  0  0
    0.4586   -2.2811    1.0780 N   0  0  0  0  0  0  0  0  0  0  0  0
    1.0220   -3.1338    2.1309 C   0  0  2  0  0  0  0  0  0  0  0  0
    1.7986   -4.3220    1.5249 C   0  0  0  0  0  0  0  0  0  0  0  0
    1.7442   -4.5384    0.3178 O   0  0  0  0  0  0  0  0  0  0  0  0
   -0.1233   -3.6270    3.0212 C   0  0  0  0  0  0  0  0  0  0  0  0
    0.3761   -2.6975    0.1533 H   0  0  0  0  0  0  0  0  0  0  0  0
    1.7279   -2.5554    2.7366 H   0  0  0  0  0  0  0  0  0  0  0  0
   -0.8321   -4.2238    2.4382 H   0  0  0  0  0  0  0  0  0  0  0  0
    0.2619   -4.2431    3.8392 H   0  0  0  0  0  0  0  0  0  0  0  0
   -0.6590   -2.7762    3.4546 H   0  0  0  0  0  0  0  0  0  0  0  0
    2.5761   -5.1375    2.3261 N   0  0  0  0  0  0  0  0  0  0  0  0
    3.3409   -6.2680    1.8139 C   0  0  0  0  0  0  0  0  0  0  0  0
    2.6133   -4.9261    3.3192 H   0  0  0  0  0  0  0  0  0  0  0  0
    3.8614   -6.7753    2.6319 H   0  0  0  0  0  0  0  0  0  0  0  0
    2.6774   -6.9903    1.3268 H   0  0  0  0  0  0  0  0  0  0  0  0
    4.0866   -5.9284    1.0874 H   0  0  0  0  0  0  0  0  0  0  0  0
  1  2  2  0  0  0  0
  1  3  1  0  0  0  0
  1  7  1  0  0  0  0
  3  4  1  0  0  0  0
  3  5  1  0  0  0  0
  3  6  1  0  0  0  0
  7  8  1  0  0  0  0
  7 12  1  0  0  0  0
  8  9  1  0  0  0  0
  8 11  1  0  0  0  0
  8 13  1  0  0  0  0
  9 10  2  0  0  0  0
  9 17  1  0  0  0  0
 11 14  1  0  0  0  0
 11 15  1  0  0  0  0
 11 16  1  0  0  0  0
 17 18  1  0  0  0  0
 17 21  1  0  0  0  0
 18 19  1  0  0  0  0
 18 22  1  0  0  0  0
 18 23  1  0  0  0  0
 19 20  2  0  0  0  0
 19 24  1  0  0  0  0
 24 25  1  0  0  0  0
 24 29  1  0  0  0  0
 25 26  1  0  0  0  0
 25 28  1  0  0  0  0
 25 30  1  0  0  0  0
 26 27  2  0  0  0  0
 26 34  1  0  0  0  0
 28 31  1  0  0  0  0
 28 32  1  0  0  0  0
 28 33  1  0  0  0  0
 34 35  1  0  0  0  0
 34 36  1  0  0  0  0
 35 37  1  0  0  0  0
 35 38  1  0  0  0  0
 35 39  1  0  0  0  0
M  END
$$$$

  -OEChem-05262216283D

 39 38  0     1  0  0  0  0  0999 V2000
   -4.8769   -2.4104   -2.3083 C   0  0  0  0  0  0  0  0  0  0  0  0
   -4.3206   -3.4970   -2.3344 O   0  0  0  0  0  0  0  0  0  0  0  0
   -6.3373   -2.3154   -1.9097 C   0  0  0  0  0  0  0  0  0  0  0  0
   -6.9168   -1.8627   -2.7178 H   0  0  0  0  0  0  0  0  0  0  0  0
   -6.7381   -3.3119   -1.7041 H   0  0  0  0  0  0  0  0  0  0  0  0
   -6.4379   -1.7032   -1.0102 H   0  0  0  0  0  0  0  0  0  0  0  0
   -4.1799   -1.2611   -2.6183 N   0  0  0  0  0  0  0  0  0  0  0  0
   -2.7164   -1.2042   -2.7419 C   0  0  2  0  0  0  0  0  0  0  0  0
   -2.0867   -0.3931   -1.5906 C   0  0  0  0  0  0  0  0  0  0  0  0
   -2.7085    0.5398   -1.0972 O   0  0  0  0  0  0  0  0  0  0  0  0
   -2.3862   -0.5644   -4.0914 C   0  0  0  0  0  0  0  0  0  0  0  0
   -4.6439   -0.3866   -2.3789 H   0  0  0  0  0  0  0  0  0  0  0  0
   -2.2850   -2.2104   -2.7202 H   0  0  0  0  0  0  0  0  0  0  0  0
   -2.7817    0.4556   -4.1391 H   0  0  0  0  0  0  0  0  0  0  0  0
   -1.3030   -0.5256   -4.2413 H   0  0  0  0  0  0  0  0  0  0  0  0
   -2.8276   -1.1487   -4.9049 H   0  0  0  0  0  0  0  0  0  0  0  0
   -0.8163   -0.6981   -1.1332 N   0  0  0  0  0  0  0  0  0  0  0  0
   -0.1405   -0.0082   -0.0145 C   0  0  0  0  0  0  0  0  0  0  0  0
    0.2246   -0.9433    1.1461 C   0  0  0  0  0  0  0  0  0  0  0  0
    0.0748   -0.5802    2.3034 O   0  0  0  0  0  0  0  0  0  0  0  0
   -0.3619   -1.4993   -1.5620 H   0  0  0  0  0  0  0  0  0  0  0  0
   -0.7691    0.7931    0.3884 H   0  0  0  0  0  0  0  0  0  0  0  0
    0.7765    0.4601   -0.3815 H   0  0  0  0  0  0  0  0  0  0  0  0
    0.8050   -2.1725    0.8965 N   0  0  0  0  0  0  0  0  0  0  0  0
    1.3293   -3.0754    1.9280 C   0  0  2  0  0  0  0  0  0  0  0  0
    2.4767   -3.9432    1.3689 C   0  0  0  0  0  0  0  0  0  0  0  0
    2.7047   -3.9540    0.1629 O   0  0  0  0  0  0  0  0  0  0  0  0
    0.1810   -3.9548    2.4340 C   0  0  0  0  0  0  0  0  0  0  0  0
    1.0805   -2.3796   -0.0616 H   0  0  0  0  0  0  0  0  0  0  0  0
    1.7337   -2.4915    2.7622 H   0  0  0  0  0  0  0  0  0  0  0  0
   -0.2407   -4.5434    1.6128 H   0  0  0  0  0  0  0  0  0  0  0  0
    0.5332   -4.6402    3.2104 H   0  0  0  0  0  0  0  0  0  0  0  0
   -0.6135   -3.3336    2.8600 H   0  0  0  0  0  0  0  0  0  0  0  0
    3.2661   -4.6971    2.2172 N   0  0  0  0  0  0  0  0  0  0  0  0
    4.3670   -5.5344    1.7559 C   0  0  0  0  0  0  0  0  0  0  0  0
    3.0621   -4.6544    3.2116 H   0  0  0  0  0  0  0  0  0  0  0  0
    4.8426   -6.0343    2.6052 H   0  0  0  0  0  0  0  0  0  0  0  0
    4.0025   -6.3005    1.0631 H   0  0  0  0  0  0  0  0  0  0  0  0
    5.1224   -4.9282    1.2448 H   0  0  0  0  0  0  0  0  0  0  0  0
  1  2  2  0  0  0  0
  1  3  1  0  0  0  0
  1  7  1  0  0  0  0
  3  4  1  0  0  0  0
  3  5  1  0  0  0  0
  3  6  1  0  0  0  0
  7  8  1  0  0  0  0
  7 12  1  0  0  0  0
  8  9  1  0  0  0  0
  8 11  1  0  0  0  0
  8 13  1  0  0  0  0
  9 10  2  0  0  0  0
  9 17  1  0  0  0  0
 11 14  1  0  0  0  0
 11 15  1  0  0  0  0
 11 16  1  0  0  0  0
 17 18  1  0  0  0  0
 17 21  1  0  0  0  0
 18 19  1  0  0  0  0
 18 22  1  0  0  0  0
 18 23  1  0  0  0  0
 19 20  2  0  0  0  0
 19 24  1  0  0  0  0
 24 25  1  0  0  0  0
 24 29  1  0  0  0  0
 25 26  1  0  0  0  0
 25 28  1  0  0  0  0
 25 30  1  0  0  0  0
 26 27  2  0  0  0  0
 26 34  1  0  0  0  0
 28 31  1  0  0  0  0
 28 32  1  0  0  0  0
 28 33  1  0  0  0  0
 34 35  1  0  0  0  0
 34 36  1  0  0  0  0
 35 37  1  0  0  0  0
 35 38  1  0  0  0  0
 35 39  1  0  0  0  0
M  END
$$$$

  -OEChem-05262216283D

 39 38  0     1  0  0  0  0  0999 V2000
   -3.2206   -3.6067   -2.4279 C   0  0  0  0  0  0  0  0  0  0  0  0
   -2.3573   -4.4617   -2.3023 O   0  0  0  0  0  0  0  0  0  0  0  0
   -4.6809   -4.0117   -2.4905 C   0  0  0  0  0  0  0  0  0  0  0  0
   -5.1184   -3.6810   -3.4356 H   0  0  0  0  0  0  0  0  0  0  0  0
   -4.7755   -5.0989   -2.4191 H   0  0  0  0  0  0  0  0  0  0  0  0
   -5.2293   -3.5552   -1.6626 H   0  0  0  0  0  0  0  0  0  0  0  0
   -2.8863   -2.2707   -2.4984 N   0  0  0  0  0  0  0  0  0  0  0  0
   -1.5537   -1.7380   -2.1799 C   0  0  2  0  0  0  0  0  0  0  0  0
   -1.6334   -0.5951   -1.1442 C   0  0  0  0  0  0  0  0  0  0  0  0
   -2.7119   -0.0651   -0.8961 O   0  0  0  0  0  0  0  0  0  0  0  0
   -0.9100   -1.2508   -3.4783 C   0  0  0  0  0  0  0  0  0  0  0  0
   -3.6595   -1.6130   -2.4108 H   0  0  0  0  0  0  0  0  0  0  0  0
   -0.9236   -2.5223   -1.7493 H   0  0  0  0  0  0  0  0  0  0  0  0
   -1.5017   -0.4431   -3.9205 H   0  0  0  0  0  0  0  0  0  0  0  0
    0.1016   -0.8801   -3.2863 H   0  0  0  0  0  0  0  0  0  0  0  0
   -0.8446   -2.0731   -4.1977 H   0  0  0  0  0  0  0  0  0  0  0  0
   -0.4944   -0.1804   -0.4785 N   0  0  0  0  0  0  0  0  0  0  0  0
   -0.5521    0.4805    0.8416 C   0  0  0  0  0  0  0  0  0  0  0  0
    0.2229   -0.3400    1.8772 C   0  0  0  0  0  0  0  0  0  0  0  0
   -0.3920   -1.0524    2.6550 O   0  0  0  0  0  0  0  0  0  0  0  0
    0.3068   -0.7985   -0.6460 H   0  0  0  0  0  0  0  0  0  0  0  0
   -1.5835    0.5898    1.1947 H   0  0  0  0  0  0  0  0  0  0  0  0
   -0.1235    1.4839    0.7759 H   0  0  0  0  0  0  0  0  0  0  0  0
    1.5738   -0.5534    1.6468 N   0  0  0  0  0  0  0  0  0  0  0  0
    2.1804   -1.8965    1.7104 C   0  0  2  0  0  0  0  0  0  0  0  0
    1.5204   -2.8174    0.6559 C   0  0  0  0  0  0  0  0  0  0  0  0
    1.3971   -2.3803   -0.4865 O   0  0  0  0  0  0  0  0  0  0  0  0
    2.2092   -2.4789    3.1350 C   0  0  0  0  0  0  0  0  0  0  0  0
    1.9426    0.0379    0.9064 H   0  0  0  0  0  0  0  0  0  0  0  0
    3.2264   -1.7934    1.4057 H   0  0  0  0  0  0  0  0  0  0  0  0
    1.2110   -2.7614    3.4797 H   0  0  0  0  0  0  0  0  0  0  0  0
    2.8427   -3.3705    3.1638 H   0  0  0  0  0  0  0  0  0  0  0  0
    2.6185   -1.7424    3.8332 H   0  0  0  0  0  0  0  0  0  0  0  0
    0.9924   -4.0541    0.9745 N   0  0  0  0  0  0  0  0  0  0  0  0
    0.1530   -4.8167    0.0550 C   0  0  0  0  0  0  0  0  0  0  0  0
    0.9316   -4.2719    1.9655 H   0  0  0  0  0  0  0  0  0  0  0  0
   -0.8290   -4.3435   -0.0444 H   0  0  0  0  0  0  0  0  0  0  0  0
    0.6145   -4.8812   -0.9362 H   0  0  0  0  0  0  0  0  0  0  0  0
    0.0109   -5.8350    0.4290 H   0  0  0  0  0  0  0  0  0  0  0  0
  1  2  2  0  0  0  0
  1  3  1  0  0  0  0
  1  7  1  0  0  0  0
  3  4  1  0  0  0  0
  3  5  1  0  0  0  0
  3  6  1  0  0  0  0
  7  8  1  0  0  0  0
  7 12  1  0  0  0  0
  8  9  1  0  0  0  0
  8 11  1  0  0  0  0
  8 13  1  0  0  0  0
  9 10  2  0  0  0  0
  9 17  1  0  0  0  0
 11 14  1  0  0  0  0
 11 15  1  0  0  0  0
 11 16  1  0  0  0  0
 17 18  1  0  0  0  0
 17 21  1  0  0  0  0
 18 19  1  0  0  0  0
 18 22  1  0  0  0  0
 18 23  1  0  0  0  0
 19 20  2  0  0  0  0
 19 24  1  0  0  0  0
 24 25  1  0  0  0  0
 24 29  1  0  0  0  0
 25 26  1  0  0  0  0
 25 28  1  0  0  0  0
 25 30  1  0  0  0  0
 26 27  2  0  0  0  0
 26 34  1  0  0  0  0
 28 31  1  0  0  0  0
 28 32  1  0  0  0  0
 28 33  1  0  0  0  0
 34 35  1  0  0  0  0
 34 36  1  0  0  0  0
 35 37  1  0  0  0  0
 35 38  1  0  0  0  0
 35 39  1  0  0  0  0
M  END
$$$$

  -OEChem-05262216283D

 39 38  0     1  0  0  0  0  0999 V2000
   -2.9120   -3.5959   -2.3982 C   0  0  0  0  0  0  0  0  0  0  0  0
   -1.9367   -4.3314   -2.3973 O   0  0  0  0  0  0  0  0  0  0  0  0
   -4.3068   -4.1911   -2.3557 C   0  0  0  0  0  0  0  0  0  0  0  0
   -4.9146   -3.7797   -3.1652 H   0  0  0  0  0  0  0  0  0  0  0  0
   -4.2568   -5.2772   -2.4709 H   0  0  0  0  0  0  0  0  0  0  0  0
   -4.7812   -3.9588   -1.3991 H   0  0  0  0  0  0  0  0  0  0  0  0
   -2.7603   -2.2254   -2.4178 N   0  0  0  0  0  0  0  0  0  0  0  0
   -1.4827   -1.5340   -2.1960 C   0  0  2  0  0  0  0  0  0  0  0  0
   -1.6110   -0.4689   -1.0867 C   0  0  0  0  0  0  0  0  0  0  0  0
   -2.7092    0.0021   -0.8088 O   0  0  0  0  0  0  0  0  0  0  0  0
   -1.0485   -0.8970   -3.5173 C   0  0  0  0  0  0  0  0  0  0  0  0
   -3.5994   -1.6785   -2.2294 H   0  0  0  0  0  0  0  0  0  0  0  0
   -0.7109   -2.2432   -1.8779 H   0  0  0  0  0  0  0  0  0  0  0  0
   -1.7927   -0.1695   -3.8571 H   0  0  0  0  0  0  0  0  0  0  0  0
   -0.0886   -0.3854   -3.3968 H   0  0  0  0  0  0  0  0  0  0  0  0
   -0.9348   -1.6670   -4.2871 H   0  0  0  0  0  0  0  0  0  0  0  0
   -0.4916   -0.0802   -0.3777 N   0  0  0  0  0  0  0  0  0  0  0  0
   -0.5563    0.5438    0.9571 C   0  0  0  0  0  0  0  0  0  0  0  0
    0.1993   -0.3333    1.9581 C   0  0  0  0  0  0  0  0  0  0  0  0
   -0.3855   -1.2504    2.5156 O   0  0  0  0  0  0  0  0  0  0  0  0
    0.3408   -0.6448   -0.5804 H   0  0  0  0  0  0  0  0  0  0  0  0
   -1.5888    0.6517    1.3059 H   0  0  0  0  0  0  0  0  0  0  0  0
   -0.1145    1.5429    0.9284 H   0  0  0  0  0  0  0  0  0  0  0  0
    1.5849   -0.3120    1.9157 N   0  0  0  0  0  0  0  0  0  0  0  0
    2.3567   -1.5685    1.8658 C   0  0  2  0  0  0  0  0  0  0  0  0
    1.8481   -2.4685    0.7096 C   0  0  0  0  0  0  0  0  0  0  0  0
    1.7262   -1.9628   -0.4045 O   0  0  0  0  0  0  0  0  0  0  0  0
    2.4065   -2.2645    3.2370 C   0  0  0  0  0  0  0  0  0  0  0  0
    1.9504    0.4313    1.3267 H   0  0  0  0  0  0  0  0  0  0  0  0
    3.3902   -1.3113    1.6137 H   0  0  0  0  0  0  0  0  0  0  0  0
    1.4282   -2.6572    3.5278 H   0  0  0  0  0  0  0  0  0  0  0  0
    3.1166   -3.0969    3.2123 H   0  0  0  0  0  0  0  0  0  0  0  0
    2.7332   -1.5560    4.0044 H   0  0  0  0  0  0  0  0  0  0  0  0
    1.4143   -3.7641    0.9185 N   0  0  0  0  0  0  0  0  0  0  0  0
    0.6575   -4.5103   -0.0822 C   0  0  0  0  0  0  0  0  0  0  0  0
    1.3086   -4.0412    1.8907 H   0  0  0  0  0  0  0  0  0  0  0  0
   -0.3543   -4.1029   -0.1741 H   0  0  0  0  0  0  0  0  0  0  0  0
    1.1461   -4.4628   -1.0613 H   0  0  0  0  0  0  0  0  0  0  0  0
    0.5830   -5.5624    0.2087 H   0  0  0  0  0  0  0  0  0  0  0  0
  1  2  2  0  0  0  0
  1  3  1  0  0  0  0
  1  7  1  0  0  0  0
  3  4  1  0  0  0  0
  3  5  1  0  0  0  0
  3  6  1  0  0  0  0
  7  8  1  0  0  0  0
  7 12  1  0  0  0  0
  8  9  1  0  0  0  0
  8 11  1  0  0  0  0
  8 13  1  0  0  0  0
  9 10  2  0  0  0  0
  9 17  1  0  0  0  0
 11 14  1  0  0  0  0
 11 15  1  0  0  0  0
 11 16  1  0  0  0  0
 17 18  1  0  0  0  0
 17 21  1  0  0  0  0
 18 19  1  0  0  0  0
 18 22  1  0  0  0  0
 18 23  1  0  0  0  0
 19 20  2  0  0  0  0
 19 24  1  0  0  0  0
 24 25  1  0  0  0  0
 24 29  1  0  0  0  0
 25 26  1  0  0  0  0
 25 28  1  0  0  0  0
 25 30  1  0  0  0  0
 26 27  2  0  0  0  0
 26 34  1  0  0  0  0
 28 31  1  0  0  0  0
 28 32  1  0  0  0  0
 28 33  1  0  0  0  0
 34 35  1  0  0  0  0
 34 36  1  0  0  0  0
 35 37  1  0  0  0  0
 35 38  1  0  0  0  0
 35 39  1  0  0  0  0
M  END
$$$$

  -OEChem-05262216283D

 39 38  0     1  0  0  0  0  0999 V2000
   -3.3286   -3.4495   -2.7628 C   0  0  0  0  0  0  0  0  0  0  0  0
   -2.4420   -4.2767   -2.9087 O   0  0  0  0  0  0  0  0  0  0  0  0
   -4.7707   -3.8212   -3.0512 C   0  0  0  0  0  0  0  0  0  0  0  0
   -5.3547   -3.7917   -2.1282 H   0  0  0  0  0  0  0  0  0  0  0  0
   -5.2006   -3.1181   -3.7688 H   0  0  0  0  0  0  0  0  0  0  0  0
   -4.8237   -4.8295   -3.4714 H   0  0  0  0  0  0  0  0  0  0  0  0
   -3.0268   -2.1752   -2.3331 N   0  0  0  0  0  0  0  0  0  0  0  0
   -1.6992   -1.7487   -1.8734 C   0  0  2  0  0  0  0  0  0  0  0  0
   -1.7971   -0.6004   -0.8458 C   0  0  0  0  0  0  0  0  0  0  0  0
   -2.8879   -0.1225   -0.5494 O   0  0  0  0  0  0  0  0  0  0  0  0
   -0.8689   -1.3249   -3.0899 C   0  0  0  0  0  0  0  0  0  0  0  0
   -3.8086   -1.5699   -2.0842 H   0  0  0  0  0  0  0  0  0  0  0  0
   -1.1985   -2.5849   -1.3729 H   0  0  0  0  0  0  0  0  0  0  0  0
   -1.3314   -0.4679   -3.5895 H   0  0  0  0  0  0  0  0  0  0  0  0
    0.1455   -1.0486   -2.7861 H   0  0  0  0  0  0  0  0  0  0  0  0
   -0.7968   -2.1493   -3.8062 H   0  0  0  0  0  0  0  0  0  0  0  0
   -0.6516   -0.1227   -0.2418 N   0  0  0  0  0  0  0  0  0  0  0  0
   -0.6415    0.6351    1.0199 C   0  0  0  0  0  0  0  0  0  0  0  0
    0.1928   -0.1363    2.0444 C   0  0  0  0  0  0  0  0  0  0  0  0
   -0.2538   -1.1579    2.5469 O   0  0  0  0  0  0  0  0  0  0  0  0
    0.1982   -0.6562   -0.4565 H   0  0  0  0  0  0  0  0  0  0  0  0
   -1.6510    0.7635    1.4236 H   0  0  0  0  0  0  0  0  0  0  0  0
   -0.2218    1.6313    0.8592 H   0  0  0  0  0  0  0  0  0  0  0  0
    1.5500    0.1372    2.1044 N   0  0  0  0  0  0  0  0  0  0  0  0
    2.5310   -0.9655    2.1036 C   0  0  2  0  0  0  0  0  0  0  0  0
    2.2518   -1.9732    0.9532 C   0  0  0  0  0  0  0  0  0  0  0  0
    1.9235   -1.5414   -0.1512 O   0  0  0  0  0  0  0  0  0  0  0  0
    2.6334   -1.6179    3.4928 C   0  0  0  0  0  0  0  0  0  0  0  0
    1.8155    0.9396    1.5405 H   0  0  0  0  0  0  0  0  0  0  0  0
    3.5128   -0.5317    1.8899 H   0  0  0  0  0  0  0  0  0  0  0  0
    1.7318   -2.1878    3.7358 H   0  0  0  0  0  0  0  0  0  0  0  0
    3.4907   -2.2968    3.5306 H   0  0  0  0  0  0  0  0  0  0  0  0
    2.7714   -0.8490    4.2591 H   0  0  0  0  0  0  0  0  0  0  0  0
    2.3290   -3.3413    1.1390 N   0  0  0  0  0  0  0  0  0  0  0  0
    1.8929   -4.2991    0.1286 C   0  0  0  0  0  0  0  0  0  0  0  0
    2.4144   -3.6620    2.0996 H   0  0  0  0  0  0  0  0  0  0  0  0
    0.8309   -4.1585   -0.1000 H   0  0  0  0  0  0  0  0  0  0  0  0
    2.4714   -4.1763   -0.7932 H   0  0  0  0  0  0  0  0  0  0  0  0
    2.0366   -5.3219    0.4901 H   0  0  0  0  0  0  0  0  0  0  0  0
  1  2  2  0  0  0  0
  1  3  1  0  0  0  0
  1  7  1  0  0  0  0
  3  4  1  0  0  0  0
  3  5  1  0  0  0  0
  3  6  1  0  0  0  0
  7  8  1  0  0  0  0
  7 12  1  0  0  0  0
  8  9  1  0  0  0  0
  8 11  1  0  0  0  0
  8 13  1  0  0  0  0
  9 10  2  0  0  0  0
  9 17  1  0  0  0  0
 11 14  1  0  0  0  0
 11 15  1  0  0  0  0
 11 16  1  0  0  0  0
 17 18  1  0  0  0  0
 17 21  1  0  0  0  0
 18 19  1  0  0  0  0
 18 22  1  0  0  0  0
 18 23  1  0  0  0  0
 19 20  2  0  0  0  0
 19 24  1  0  0  0  0
 24 25  1  0  0  0  0
 24 29  1  0  0  0  0
 25 26  1  0  0  0  0
 25 28  1  0  0  0  0
 25 30  1  0  0  0  0
 26 27  2  0  0  0  0
 26 34  1  0  0  0  0
 28 31  1  0  0  0  0
 28 32  1  0  0  0  0
 28 33  1  0  0  0  0
 34 35  1  0  0  0  0
 34 36  1  0  0  0  0
 35 37  1  0  0  0  0
 35 38  1  0  0  0  0
 35 39  1  0  0  0  0
M  END
$$$$

  -OEChem-05262216283D

 39 38  0     1  0  0  0  0  0999 V2000
   -3.3046   -3.3984   -2.7525 C   0  0  0  0  0  0  0  0  0  0  0  0
   -2.3933   -4.1924   -2.9266 O   0  0  0  0  0  0  0  0  0  0  0  0
   -4.7398   -3.8243   -2.9987 C   0  0  0  0  0  0  0  0  0  0  0  0
   -5.3251   -3.7088   -2.0833 H   0  0  0  0  0  0  0  0  0  0  0  0
   -5.1817   -3.2088   -3.7859 H   0  0  0  0  0  0  0  0  0  0  0  0
   -4.7743   -4.8723   -3.3094 H   0  0  0  0  0  0  0  0  0  0  0  0
   -3.0358   -2.1145   -2.3284 N   0  0  0  0  0  0  0  0  0  0  0  0
   -1.7140   -1.6478   -1.8898 C   0  0  2  0  0  0  0  0  0  0  0  0
   -1.8268   -0.5364   -0.8239 C   0  0  0  0  0  0  0  0  0  0  0  0
   -2.9220   -0.0647   -0.5334 O   0  0  0  0  0  0  0  0  0  0  0  0
   -0.9369   -1.1510   -3.1134 C   0  0  0  0  0  0  0  0  0  0  0  0
   -3.8317   -1.5369   -2.0594 H   0  0  0  0  0  0  0  0  0  0  0  0
   -1.1659   -2.4777   -1.4304 H   0  0  0  0  0  0  0  0  0  0  0  0
   -1.4520   -0.3035   -3.5765 H   0  0  0  0  0  0  0  0  0  0  0  0
    0.0705   -0.8343   -2.8261 H   0  0  0  0  0  0  0  0  0  0  0  0
   -0.8451   -1.9512   -3.8547 H   0  0  0  0  0  0  0  0  0  0  0  0
   -0.6913   -0.0804   -0.1840 N   0  0  0  0  0  0  0  0  0  0  0  0
   -0.6992    0.6850    1.0724 C   0  0  0  0  0  0  0  0  0  0  0  0
    0.0844   -0.0966    2.1305 C   0  0  0  0  0  0  0  0  0  0  0  0
   -0.2772   -1.2223    2.4478 O   0  0  0  0  0  0  0  0  0  0  0  0
    0.1709   -0.5915   -0.3954 H   0  0  0  0  0  0  0  0  0  0  0  0
   -1.7163    0.8439    1.4450 H   0  0  0  0  0  0  0  0  0  0  0  0
   -0.2488    1.6683    0.9128 H   0  0  0  0  0  0  0  0  0  0  0  0
    1.3550    0.3453    2.4621 N   0  0  0  0  0  0  0  0  0  0  0  0
    2.4720   -0.6176    2.5223 C   0  0  2  0  0  0  0  0  0  0  0  0
    2.5080   -1.5419    1.2713 C   0  0  0  0  0  0  0  0  0  0  0  0
    2.2284   -1.0747    0.1678 O   0  0  0  0  0  0  0  0  0  0  0  0
    2.4591   -1.3803    3.8582 C   0  0  0  0  0  0  0  0  0  0  0  0
    1.5866    1.2394    2.0394 H   0  0  0  0  0  0  0  0  0  0  0  0
    3.4035   -0.0443    2.4967 H   0  0  0  0  0  0  0  0  0  0  0  0
    1.6148   -2.0739    3.9142 H   0  0  0  0  0  0  0  0  0  0  0  0
    3.3841   -1.9520    3.9793 H   0  0  0  0  0  0  0  0  0  0  0  0
    2.3803   -0.6755    4.6916 H   0  0  0  0  0  0  0  0  0  0  0  0
    2.8325   -2.8830    1.3650 N   0  0  0  0  0  0  0  0  0  0  0  0
    2.7061   -3.8043    0.2416 C   0  0  0  0  0  0  0  0  0  0  0  0
    2.8744   -3.2724    2.3025 H   0  0  0  0  0  0  0  0  0  0  0  0
    1.6621   -3.8711   -0.0827 H   0  0  0  0  0  0  0  0  0  0  0  0
    3.3170   -3.4681   -0.6029 H   0  0  0  0  0  0  0  0  0  0  0  0
    3.0439   -4.8039    0.5318 H   0  0  0  0  0  0  0  0  0  0  0  0
  1  2  2  0  0  0  0
  1  3  1  0  0  0  0
  1  7  1  0  0  0  0
  3  4  1  0  0  0  0
  3  5  1  0  0  0  0
  3  6  1  0  0  0  0
  7  8  1  0  0  0  0
  7 12  1  0  0  0  0
  8  9  1  0  0  0  0
  8 11  1  0  0  0  0
  8 13  1  0  0  0  0
  9 10  2  0  0  0  0
  9 17  1  0  0  0  0
 11 14  1  0  0  0  0
 11 15  1  0  0  0  0
 11 16  1  0  0  0  0
 17 18  1  0  0  0  0
 17 21  1  0  0  0  0
 18 19  1  0  0  0  0
 18 22  1  0  0  0  0
 18 23  1  0  0  0  0
 19 20  2  0  0  0  0
 19 24  1  0  0  0  0
 24 25  1  0  0  0  0
 24 29  1  0  0  0  0
 25 26  1  0  0  0  0
 25 28  1  0  0  0  0
 25 30  1  0  0  0  0
 26 27  2  0  0  0  0
 26 34  1  0  0  0  0
 28 31  1  0  0  0  0
 28 32  1  0  0  0  0
 28 33  1  0  0  0  0
 34 35  1  0  0  0  0
 34 36  1  0  0  0  0
 35 37  1  0  0  0  0
 35 38  1  0  0  0  0
 35 39  1  0  0  0  0
M  END
$$$$

  -OEChem-05262216283D

 39 38  0     1  0  0  0  0  0999 V2000
   -3.3345   -3.3497   -2.8020 C   0  0  0  0  0  0  0  0  0  0  0  0
   -2.3636   -3.9130   -3.2823 O   0  0  0  0  0  0  0  0  0  0  0  0
   -4.6668   -4.0692   -2.7129 C   0  0  0  0  0  0  0  0  0  0  0  0
   -5.4299   -3.5110   -3.2603 H   0  0  0  0  0  0  0  0  0  0  0  0
   -4.5844   -5.0703   -3.1450 H   0  0  0  0  0  0  0  0  0  0  0  0
   -4.9714   -4.1606   -1.6676 H   0  0  0  0  0  0  0  0  0  0  0  0
   -3.2190   -2.0617   -2.3246 N   0  0  0  0  0  0  0  0  0  0  0  0
   -1.9451   -1.3457   -2.1823 C   0  0  2  0  0  0  0  0  0  0  0  0
   -1.9458   -0.4396   -0.9333 C   0  0  0  0  0  0  0  0  0  0  0  0
   -3.0083   -0.1111   -0.4160 O   0  0  0  0  0  0  0  0  0  0  0  0
   -1.7096   -0.5216   -3.4508 C   0  0  0  0  0  0  0  0  0  0  0  0
   -4.0159   -1.6796   -1.8162 H   0  0  0  0  0  0  0  0  0  0  0  0
   -1.1275   -2.0651   -2.0626 H   0  0  0  0  0  0  0  0  0  0  0  0
   -2.5165    0.2051   -3.5903 H   0  0  0  0  0  0  0  0  0  0  0  0
   -0.7599    0.0181   -3.3884 H   0  0  0  0  0  0  0  0  0  0  0  0
   -1.6764   -1.1781   -4.3261 H   0  0  0  0  0  0  0  0  0  0  0  0
   -0.7505   -0.0104   -0.3829 N   0  0  0  0  0  0  0  0  0  0  0  0
   -0.6460    0.5236    0.9880 C   0  0  0  0  0  0  0  0  0  0  0  0
    0.3055   -0.3059    1.8612 C   0  0  0  0  0  0  0  0  0  0  0  0
    0.1821   -1.5227    1.8893 O   0  0  0  0  0  0  0  0  0  0  0  0
    0.0825   -0.4435   -0.7750 H   0  0  0  0  0  0  0  0  0  0  0  0
   -1.6190    0.5407    1.4893 H   0  0  0  0  0  0  0  0  0  0  0  0
   -0.2916    1.5565    0.9402 H   0  0  0  0  0  0  0  0  0  0  0  0
    1.4230    0.2891    2.4252 N   0  0  0  0  0  0  0  0  0  0  0  0
    2.5107   -0.3854    3.1660 C   0  0  2  0  0  0  0  0  0  0  0  0
    3.4003   -1.3035    2.2962 C   0  0  0  0  0  0  0  0  0  0  0  0
    4.5970   -1.0658    2.2019 O   0  0  0  0  0  0  0  0  0  0  0  0
    1.9728   -1.1379    4.3924 C   0  0  0  0  0  0  0  0  0  0  0  0
    1.5152    1.2911    2.2826 H   0  0  0  0  0  0  0  0  0  0  0  0
    3.1711    0.4006    3.5472 H   0  0  0  0  0  0  0  0  0  0  0  0
    1.3693   -2.0019    4.0998 H   0  0  0  0  0  0  0  0  0  0  0  0
    2.8051   -1.4989    5.0047 H   0  0  0  0  0  0  0  0  0  0  0  0
    1.3558   -0.4736    5.0048 H   0  0  0  0  0  0  0  0  0  0  0  0
    2.8645   -2.3664    1.5973 N   0  0  0  0  0  0  0  0  0  0  0  0
    3.6334   -3.2361    0.7185 C   0  0  0  0  0  0  0  0  0  0  0  0
    1.8473   -2.4718    1.6486 H   0  0  0  0  0  0  0  0  0  0  0  0
    4.0446   -2.6652   -0.1204 H   0  0  0  0  0  0  0  0  0  0  0  0
    4.4588   -3.7014    1.2673 H   0  0  0  0  0  0  0  0  0  0  0  0
    2.9941   -4.0294    0.3196 H   0  0  0  0  0  0  0  0  0  0  0  0
  1  2  2  0  0  0  0
  1  3  1  0  0  0  0
  1  7  1  0  0  0  0
  3  4  1  0  0  0  0
  3  5  1  0  0  0  0
  3  6  1  0  0  0  0
  7  8  1  0  0  0  0
  7 12  1  0  0  0  0
  8  9  1  0  0  0  0
  8 11  1  0  0  0  0
  8 13  1  0  0  0  0
  9 10  2  0  0  0  0
  9 17  1  0  0  0  0
 11 14  1  0  0  0  0
 11 15  1  0  0  0  0
 11 16  1  0  0  0  0
 17 18  1  0  0  0  0
 17 21  1  0  0  0  0
 18 19  1  0  0  0  0
 18 22  1  0  0  0  0
 18 23  1  0  0  0  0
 19 20  2  0  0  0  0
 19 24  1  0  0  0  0
 24 25  1  0  0  0  0
 24 29  1  0  0  0  0
 25 26  1  0  0  0  0
 25 28  1  0  0  0  0
 25 30  1  0  0  0  0
 26 27  2  0  0  0  0
 26 34  1  0  0  0  0
 28 31  1  0  0  0  0
 28 32  1  0  0  0  0
 28 33  1  0  0  0  0
 34 35  1  0  0  0  0
 34 36  1  0  0  0  0
 35 37  1  0  0  0  0
 35 38  1  0  0  0  0
 35 39  1  0  0  0  0
M  END
$$$$

  -OEChem-05262216283D

 39 38  0     1  0  0  0  0  0999 V2000
   -3.4578   -3.2869   -2.8737 C   0  0  0  0  0  0  0  0  0  0  0  0
   -2.5052   -3.9086   -3.3174 O   0  0  0  0  0  0  0  0  0  0  0  0
   -4.8490   -3.8912   -2.9144 C   0  0  0  0  0  0  0  0  0  0  0  0
   -5.5074   -3.2697   -3.5262 H   0  0  0  0  0  0  0  0  0  0  0  0
   -4.8120   -4.8959   -3.3446 H   0  0  0  0  0  0  0  0  0  0  0  0
   -5.2576   -3.9570   -1.9030 H   0  0  0  0  0  0  0  0  0  0  0  0
   -3.2706   -2.0354   -2.3270 N   0  0  0  0  0  0  0  0  0  0  0  0
   -1.9567   -1.4272   -2.0820 C   0  0  2  0  0  0  0  0  0  0  0  0
   -1.9848   -0.4940   -0.8526 C   0  0  0  0  0  0  0  0  0  0  0  0
   -3.0574   -0.1579   -0.3609 O   0  0  0  0  0  0  0  0  0  0  0  0
   -1.5376   -0.6567   -3.3380 C   0  0  0  0  0  0  0  0  0  0  0  0
   -4.0673   -1.6058   -1.8577 H   0  0  0  0  0  0  0  0  0  0  0  0
   -1.2206   -2.2126   -1.8775 H   0  0  0  0  0  0  0  0  0  0  0  0
   -2.2569    0.1392   -3.5560 H   0  0  0  0  0  0  0  0  0  0  0  0
   -0.5494   -0.2069   -3.2032 H   0  0  0  0  0  0  0  0  0  0  0  0
   -1.4932   -1.3316   -4.1989 H   0  0  0  0  0  0  0  0  0  0  0  0
   -0.8029   -0.0338   -0.2992 N   0  0  0  0  0  0  0  0  0  0  0  0
   -0.7222    0.5481    1.0535 C   0  0  0  0  0  0  0  0  0  0  0  0
    0.2234   -0.2337    1.9773 C   0  0  0  0  0  0  0  0  0  0  0  0
    0.3076   -1.4501    1.8660 O   0  0  0  0  0  0  0  0  0  0  0  0
    0.0370   -0.4888   -0.6501 H   0  0  0  0  0  0  0  0  0  0  0  0
   -1.7033    0.5770    1.5381 H   0  0  0  0  0  0  0  0  0  0  0  0
   -0.3724    1.5805    0.9706 H   0  0  0  0  0  0  0  0  0  0  0  0
    1.1251    0.4538    2.7742 N   0  0  0  0  0  0  0  0  0  0  0  0
    2.1844   -0.1274    3.6261 C   0  0  2  0  0  0  0  0  0  0  0  0
    3.3389   -0.7948    2.8435 C   0  0  0  0  0  0  0  0  0  0  0  0
    4.4791   -0.3712    2.9771 O   0  0  0  0  0  0  0  0  0  0  0  0
    1.5983   -1.0865    4.6727 C   0  0  0  0  0  0  0  0  0  0  0  0
    1.0646    1.4679    2.7431 H   0  0  0  0  0  0  0  0  0  0  0  0
    2.6373    0.7019    4.1796 H   0  0  0  0  0  0  0  0  0  0  0  0
    1.2027   -1.9937    4.2071 H   0  0  0  0  0  0  0  0  0  0  0  0
    2.3751   -1.3819    5.3847 H   0  0  0  0  0  0  0  0  0  0  0  0
    0.7901   -0.5987    5.2257 H   0  0  0  0  0  0  0  0  0  0  0  0
    3.1043   -1.8405    1.9733 N   0  0  0  0  0  0  0  0  0  0  0  0
    4.1342   -2.4771    1.1642 C   0  0  0  0  0  0  0  0  0  0  0  0
    2.1241   -2.1048    1.8415 H   0  0  0  0  0  0  0  0  0  0  0  0
    4.5984   -1.7482    0.4917 H   0  0  0  0  0  0  0  0  0  0  0  0
    4.9095   -2.9110    1.8043 H   0  0  0  0  0  0  0  0  0  0  0  0
    3.6974   -3.2779    0.5594 H   0  0  0  0  0  0  0  0  0  0  0  0
  1  2  2  0  0  0  0
  1  3  1  0  0  0  0
  1  7  1  0  0  0  0
  3  4  1  0  0  0  0
  3  5  1  0  0  0  0
  3  6  1  0  0  0  0
  7  8  1  0  0  0  0
  7 12  1  0  0  0  0
  8  9  1  0  0  0  0
  8 11  1  0  0  0  0
  8 13  1  0  0  0  0
  9 10  2  0  0  0  0
  9 17  1  0  0  0  0
 11 14  1  0  0  0  0
 11 15  1  0  0  0  0
 11 16  1  0  0  0  0
 17 18  1  0  0  0  0
 17 21  1  0  0  0  0
 18 19  1  0  0  0  0
 18 22  1  0  0  0  0
 18 23  1  0  0  0  0
 19 20  2  0  0  0  0
 19 24  1  0  0  0  0
 24 25  1  0  0  0  0
 24 29  1  0  0  0  0
 25 26  1  0  0  0  0
 25 28  1  0  0  0  0
 25 30  1  0  0  0  0
 26 27  2  0  0  0  0
 26 34  1  0  0  0  0
 28 31  1  0  0  0  0
 28 32  1  0  0  0  0
 28 33  1  0  0  0  0
 34 35  1  0  0  0  0
 34 36  1  0  0  0  0
 35 37  1  0  0  0  0
 35 38  1  0  0  0  0
 35 39  1  0  0  0  0
M  END
$$$$

  -OEChem-05262216283D

 39 38  0     1  0  0  0  0  0999 V2000
   -3.5372   -3.2412   -2.8959 C   0  0  0  0  0  0  0  0  0  0  0  0
   -2.6047   -3.9473   -3.2454 O   0  0  0  0  0  0  0  0  0  0  0  0
   -4.9642   -3.7363   -3.0385 C   0  0  0  0  0  0  0  0  0  0  0  0
   -5.5211   -3.0802   -3.7119 H   0  0  0  0  0  0  0  0  0  0  0  0
   -4.9737   -4.7507   -3.4474 H   0  0  0  0  0  0  0  0  0  0  0  0
   -5.4540   -3.7456   -2.0618 H   0  0  0  0  0  0  0  0  0  0  0  0
   -3.2958   -1.9946   -2.3591 N   0  0  0  0  0  0  0  0  0  0  0  0
   -1.9616   -1.4828   -2.0199 C   0  0  2  0  0  0  0  0  0  0  0  0
   -2.0162   -0.4980   -0.8315 C   0  0  0  0  0  0  0  0  0  0  0  0
   -3.0991   -0.1274   -0.3890 O   0  0  0  0  0  0  0  0  0  0  0  0
   -1.3718   -0.8057   -3.2615 C   0  0  0  0  0  0  0  0  0  0  0  0
   -4.0908   -1.4974   -1.9589 H   0  0  0  0  0  0  0  0  0  0  0  0
   -1.3146   -2.3152   -1.7215 H   0  0  0  0  0  0  0  0  0  0  0  0
   -1.9966    0.0381   -3.5710 H   0  0  0  0  0  0  0  0  0  0  0  0
   -0.3625   -0.4368   -3.0571 H   0  0  0  0  0  0  0  0  0  0  0  0
   -1.3143   -1.5192   -4.0897 H   0  0  0  0  0  0  0  0  0  0  0  0
   -0.8479   -0.0289   -0.2571 N   0  0  0  0  0  0  0  0  0  0  0  0
   -0.8033    0.5985    1.0768 C   0  0  0  0  0  0  0  0  0  0  0  0
    0.1060   -0.1561    2.0597 C   0  0  0  0  0  0  0  0  0  0  0  0
    0.3956   -1.3262    1.8408 O   0  0  0  0  0  0  0  0  0  0  0  0
   -0.0050   -0.5199   -0.5496 H   0  0  0  0  0  0  0  0  0  0  0  0
   -1.7994    0.6516    1.5273 H   0  0  0  0  0  0  0  0  0  0  0  0
   -0.4409    1.6243    0.9685 H   0  0  0  0  0  0  0  0  0  0  0  0
    0.7516    0.5417    3.0681 N   0  0  0  0  0  0  0  0  0  0  0  0
    1.7266    0.0060    4.0424 C   0  0  2  0  0  0  0  0  0  0  0  0
    3.0867   -0.4079    3.4348 C   0  0  0  0  0  0  0  0  0  0  0  0
    4.1146    0.1027    3.8590 O   0  0  0  0  0  0  0  0  0  0  0  0
    1.1218   -1.1406    4.8658 C   0  0  0  0  0  0  0  0  0  0  0  0
    0.5241    1.5297    3.1418 H   0  0  0  0  0  0  0  0  0  0  0  0
    1.9481    0.8155    4.7458 H   0  0  0  0  0  0  0  0  0  0  0  0
    0.9526   -2.0289    4.2503 H   0  0  0  0  0  0  0  0  0  0  0  0
    1.8014   -1.4160    5.6786 H   0  0  0  0  0  0  0  0  0  0  0  0
    0.1672   -0.8332    5.3029 H   0  0  0  0  0  0  0  0  0  0  0  0
    3.1637   -1.3339    2.4141 N   0  0  0  0  0  0  0  0  0  0  0  0
    4.4068   -1.7506    1.7810 C   0  0  0  0  0  0  0  0  0  0  0  0
    2.2720   -1.6937    2.0631 H   0  0  0  0  0  0  0  0  0  0  0  0
    4.8992   -0.8960    1.3057 H   0  0  0  0  0  0  0  0  0  0  0  0
    5.0873   -2.1833    2.5218 H   0  0  0  0  0  0  0  0  0  0  0  0
    4.2050   -2.5055    1.0150 H   0  0  0  0  0  0  0  0  0  0  0  0
  1  2  2  0  0  0  0
  1  3  1  0  0  0  0
  1  7  1  0  0  0  0
  3  4  1  0  0  0  0
  3  5  1  0  0  0  0
  3  6  1  0  0  0  0
  7  8  1  0  0  0  0
  7 12  1  0  0  0  0
  8  9  1  0  0  0  0
  8 11  1  0  0  0  0
  8 13  1  0  0  0  0
  9 10  2  0  0  0  0
  9 17  1  0  0  0  0
 11 14  1  0  0  0  0
 11 15  1  0  0  0  0
 11 16  1  0  0  0  0
 17 18  1  0  0  0  0
 17 21  1  0  0  0  0
 18 19  1  0  0  0  0
 18 22  1  0  0  0  0
 18 23  1  0  0  0  0
 19 20  2  0  0  0  0
 19 24  1  0  0  0  0
 24 25  1  0  0  0  0
 24 29  1  0  0  0  0
 25 26  1  0  0  0  0
 25 28  1  0  0  0  0
 25 30  1  0  0  0  0
 26 27  2  0  0  0  0
 26 34  1  0  0  0  0
 28 31  1  0  0  0  0
 28 32  1  0  0  0  0
 28 33  1  0  0  0  0
 34 35  1  0  0  0  0
 34 36  1  0  0  0  0
 35 37  1  0  0  0  0
 35 38  1  0  0  0  0
 35 39  1  0  0  0  0
M  END
$$$$

  -OEChem-05262216283D

 39 38  0     1  0  0  0  0  0999 V2000
   -3.6067   -3.2003   -2.9749 C   0  0  0  0  0  0  0  0  0  0  0  0
   -2.6978   -3.9585   -3.2737 O   0  0  0  0  0  0  0  0  0  0  0  0
   -5.0469   -3.5921   -3.2485 C   0  0  0  0  0  0  0  0  0  0  0  0
   -5.5077   -2.8702   -3.9274 H   0  0  0  0  0  0  0  0  0  0  0  0
   -5.0870   -4.5836   -3.7084 H   0  0  0  0  0  0  0  0  0  0  0  0
   -5.6116   -3.6149   -2.3133 H   0  0  0  0  0  0  0  0  0  0  0  0
   -3.3269   -1.9862   -2.3845 N   0  0  0  0  0  0  0  0  0  0  0  0
   -1.9894   -1.5615   -1.9489 C   0  0  2  0  0  0  0  0  0  0  0  0
   -2.0660   -0.5497   -0.7836 C   0  0  0  0  0  0  0  0  0  0  0  0
   -3.1563   -0.1519   -0.3854 O   0  0  0  0  0  0  0  0  0  0  0  0
   -1.2552   -0.9535   -3.1501 C   0  0  0  0  0  0  0  0  0  0  0  0
   -4.1159   -1.4442   -2.0336 H   0  0  0  0  0  0  0  0  0  0  0  0
   -1.4299   -2.4314   -1.5873 H   0  0  0  0  0  0  0  0  0  0  0  0
   -1.7870   -0.0700   -3.5170 H   0  0  0  0  0  0  0  0  0  0  0  0
   -0.2387   -0.6594   -2.8728 H   0  0  0  0  0  0  0  0  0  0  0  0
   -1.1886   -1.6827   -3.9639 H   0  0  0  0  0  0  0  0  0  0  0  0
   -0.9108   -0.0789   -0.1848 N   0  0  0  0  0  0  0  0  0  0  0  0
   -0.8965    0.6083    1.1193 C   0  0  0  0  0  0  0  0  0  0  0  0
   -0.0407   -0.1194    2.1672 C   0  0  0  0  0  0  0  0  0  0  0  0
    0.4427   -1.2144    1.9030 O   0  0  0  0  0  0  0  0  0  0  0  0
   -0.0653   -0.5944   -0.4251 H   0  0  0  0  0  0  0  0  0  0  0  0
   -1.9066    0.7051    1.5292 H   0  0  0  0  0  0  0  0  0  0  0  0
   -0.5029    1.6189    0.9805 H   0  0  0  0  0  0  0  0  0  0  0  0
    0.3257    0.5440    3.3271 N   0  0  0  0  0  0  0  0  0  0  0  0
    1.2109    0.0438    4.4007 C   0  0  2  0  0  0  0  0  0  0  0  0
    2.6951   -0.1099    3.9951 C   0  0  0  0  0  0  0  0  0  0  0  0
    3.5575    0.4731    4.6383 O   0  0  0  0  0  0  0  0  0  0  0  0
    0.6703   -1.2588    5.0080 C   0  0  0  0  0  0  0  0  0  0  0  0
   -0.0607    1.4766    3.4470 H   0  0  0  0  0  0  0  0  0  0  0  0
    1.1944    0.7935    5.1990 H   0  0  0  0  0  0  0  0  0  0  0  0
    0.7565   -2.0923    4.3049 H   0  0  0  0  0  0  0  0  0  0  0  0
    1.2377   -1.5147    5.9085 H   0  0  0  0  0  0  0  0  0  0  0  0
   -0.3822   -1.1429    5.2837 H   0  0  0  0  0  0  0  0  0  0  0  0
    3.0659   -0.8821    2.9128 N   0  0  0  0  0  0  0  0  0  0  0  0
    4.4406   -1.0557    2.4654 C   0  0  0  0  0  0  0  0  0  0  0  0
    2.3034   -1.3169    2.3864 H   0  0  0  0  0  0  0  0  0  0  0  0
    4.8779   -0.0915    2.1862 H   0  0  0  0  0  0  0  0  0  0  0  0
    5.0472   -1.5018    3.2601 H   0  0  0  0  0  0  0  0  0  0  0  0
    4.4729   -1.7165    1.5940 H   0  0  0  0  0  0  0  0  0  0  0  0
  1  2  2  0  0  0  0
  1  3  1  0  0  0  0
  1  7  1  0  0  0  0
  3  4  1  0  0  0  0
  3  5  1  0  0  0  0
  3  6  1  0  0  0  0
  7  8  1  0  0  0  0
  7 12  1  0  0  0  0
  8  9  1  0  0  0  0
  8 11  1  0  0  0  0
  8 13  1  0  0  0  0
  9 10  2  0  0  0  0
  9 17  1  0  0  0  0
 11 14  1  0  0  0  0
 11 15  1  0  0  0  0
 11 16  1  0  0  0  0
 17 18  1  0  0  0  0
 17 21  1  0  0  0  0
 18 19  1  0  0  0  0
 18 22  1  0  0  0  0
 18 23  1  0  0  0  0
 19 20  2  0  0  0  0
 19 24  1  0  0  0  0
 24 25  1  0  0  0  0
 24 29  1  0  0  0  0
 25 26  1  0  0  0  0
 25 28  1  0  0  0  0
 25 30  1  0  0  0  0
 26 27  2  0  0  0  0
 26 34  1  0  0  0  0
 28 31  1  0  0  0  0
 28 32  1  0  0  0  0
 28 33  1  0  0  0  0
 34 35  1  0  0  0  0
 34 36  1  0  0  0  0
 35 37  1  0  0  0  0
 35 38  1  0  0  0  0
 35 39  1  0  0  0  0
M  END
$$$$

  -OEChem-05262216283D

 39 38  0     1  0  0  0  0  0999 V2000
   -3.5725   -3.0339   -3.1895 C   0  0  0  0  0  0  0  0  0  0  0  0
   -2.6371   -3.7131   -3.5817 O   0  0  0  0  0  0  0  0  0  0  0  0
   -4.9989   -3.4513   -3.4945 C   0  0  0  0  0  0  0  0  0  0  0  0
   -5.5280   -2.6369   -3.9952 H   0  0  0  0  0  0  0  0  0  0  0  0
   -5.0034   -4.3280   -4.1484 H   0  0  0  0  0  0  0  0  0  0  0  0
   -5.5209   -3.6992   -2.5672 H   0  0  0  0  0  0  0  0  0  0  0  0
   -3.3354   -1.8871   -2.4625 N   0  0  0  0  0  0  0  0  0  0  0  0
   -2.0098   -1.4488   -2.0066 C   0  0  2  0  0  0  0  0  0  0  0  0
   -2.1074   -0.5717   -0.7388 C   0  0  0  0  0  0  0  0  0  0  0  0
   -3.2038   -0.2362   -0.3017 O   0  0  0  0  0  0  0  0  0  0  0  0
   -1.3323   -0.6801   -3.1473 C   0  0  0  0  0  0  0  0  0  0  0  0
   -4.1411   -1.4144   -2.0537 H   0  0  0  0  0  0  0  0  0  0  0  0
   -1.4032   -2.3247   -1.7513 H   0  0  0  0  0  0  0  0  0  0  0  0
   -1.9232    0.2002   -3.4192 H   0  0  0  0  0  0  0  0  0  0  0  0
   -0.3315   -0.3517   -2.8516 H   0  0  0  0  0  0  0  0  0  0  0  0
   -1.2341   -1.3193   -4.0306 H   0  0  0  0  0  0  0  0  0  0  0  0
   -0.9644   -0.1515   -0.0838 N   0  0  0  0  0  0  0  0  0  0  0  0
   -0.9627    0.4628    1.2544 C   0  0  0  0  0  0  0  0  0  0  0  0
    0.1327   -0.1118    2.1657 C   0  0  0  0  0  0  0  0  0  0  0  0
    0.9368   -0.9176    1.7096 O   0  0  0  0  0  0  0  0  0  0  0  0
   -0.0943   -0.5989   -0.3723 H   0  0  0  0  0  0  0  0  0  0  0  0
   -1.9241    0.3039    1.7532 H   0  0  0  0  0  0  0  0  0  0  0  0
   -0.8127    1.5415    1.1552 H   0  0  0  0  0  0  0  0  0  0  0  0
    0.2678    0.3610    3.4610 N   0  0  0  0  0  0  0  0  0  0  0  0
    1.2868   -0.0392    4.4554 C   0  0  2  0  0  0  0  0  0  0  0  0
    2.7326    0.3874    4.1090 C   0  0  0  0  0  0  0  0  0  0  0  0
    3.3625    1.0732    4.9027 O   0  0  0  0  0  0  0  0  0  0  0  0
    1.2150   -1.5441    4.7514 C   0  0  0  0  0  0  0  0  0  0  0  0
   -0.4067    1.0650    3.7498 H   0  0  0  0  0  0  0  0  0  0  0  0
    1.0382    0.4768    5.3888 H   0  0  0  0  0  0  0  0  0  0  0  0
    1.5523   -2.1358    3.8954 H   0  0  0  0  0  0  0  0  0  0  0  0
    1.8545   -1.7877    5.6057 H   0  0  0  0  0  0  0  0  0  0  0  0
    0.1889   -1.8360    4.9940 H   0  0  0  0  0  0  0  0  0  0  0  0
    3.3241    0.0173    2.9179 N   0  0  0  0  0  0  0  0  0  0  0  0
    4.6681    0.4074    2.5150 C   0  0  0  0  0  0  0  0  0  0  0  0
    2.7367   -0.5117    2.2683 H   0  0  0  0  0  0  0  0  0  0  0  0
    4.7367    1.4952    2.4116 H   0  0  0  0  0  0  0  0  0  0  0  0
    5.4023    0.0763    3.2569 H   0  0  0  0  0  0  0  0  0  0  0  0
    4.9200   -0.0498    1.5533 H   0  0  0  0  0  0  0  0  0  0  0  0
  1  2  2  0  0  0  0
  1  3  1  0  0  0  0
  1  7  1  0  0  0  0
  3  4  1  0  0  0  0
  3  5  1  0  0  0  0
  3  6  1  0  0  0  0
  7  8  1  0  0  0  0
  7 12  1  0  0  0  0
  8  9  1  0  0  0  0
  8 11  1  0  0  0  0
  8 13  1  0  0  0  0
  9 10  2  0  0  0  0
  9 17  1  0  0  0  0
 11 14  1  0  0  0  0
 11 15  1  0  0  0  0
 11 16  1  0  0  0  0
 17 18  1  0  0  0  0
 17 21  1  0  0  0  0
 18 19  1  0  0  0  0
 18 22  1  0  0  0  0
 18 23  1  0  0  0  0
 19 20  2  0  0  0  0
 19 24  1  0  0  0  0
 24 25  1  0  0  0  0
 24 29  1  0  0  0  0
 25 26  1  0  0  0  0
 25 28  1  0  0  0  0
 25 30  1  0  0  0  0
 26 27  2  0  0  0  0
 26 34  1  0  0  0  0
 28 31  1  0  0  0  0
 28 32  1  0  0  0  0
 28 33  1  0  0  0  0
 34 35  1  0  0  0  0
 34 36  1  0  0  0  0
 35 37  1  0  0  0  0
 35 38  1  0  0  0  0
 35 39  1  0  0  0  0
M  END
$$$$

  -OEChem-05262216283D

 39 38  0     1  0  0  0  0  0999 V2000
   -3.5922   -2.9990   -3.2199 C   0  0  0  0  0  0  0  0  0  0  0  0
   -2.6489   -3.6796   -3.5900 O   0  0  0  0  0  0  0  0  0  0  0  0
   -5.0125   -3.4244   -3.5415 C   0  0  0  0  0  0  0  0  0  0  0  0
   -5.5093   -2.6492   -4.1301 H   0  0  0  0  0  0  0  0  0  0  0  0
   -5.0061   -4.3539   -4.1175 H   0  0  0  0  0  0  0  0  0  0  0  0
   -5.5728   -3.5864   -2.6174 H   0  0  0  0  0  0  0  0  0  0  0  0
   -3.3693   -1.8426   -2.5033 N   0  0  0  0  0  0  0  0  0  0  0  0
   -2.0531   -1.4066   -2.0179 C   0  0  2  0  0  0  0  0  0  0  0  0
   -2.1762   -0.5639   -0.7292 C   0  0  0  0  0  0  0  0  0  0  0  0
   -3.2823   -0.2491   -0.3010 O   0  0  0  0  0  0  0  0  0  0  0  0
   -1.3658   -0.6049   -3.1288 C   0  0  0  0  0  0  0  0  0  0  0  0
   -4.1826   -1.3762   -2.1025 H   0  0  0  0  0  0  0  0  0  0  0  0
   -1.4420   -2.2835   -1.7769 H   0  0  0  0  0  0  0  0  0  0  0  0
   -1.9522    0.2853   -3.3780 H   0  0  0  0  0  0  0  0  0  0  0  0
   -0.3665   -0.2890   -2.8143 H   0  0  0  0  0  0  0  0  0  0  0  0
   -1.2625   -1.2173   -4.0305 H   0  0  0  0  0  0  0  0  0  0  0  0
   -1.0485   -0.1608   -0.0375 N   0  0  0  0  0  0  0  0  0  0  0  0
   -1.0762    0.4389    1.3070 C   0  0  0  0  0  0  0  0  0  0  0  0
   -0.0106   -0.1581    2.2370 C   0  0  0  0  0  0  0  0  0  0  0  0
    0.9310   -0.7779    1.7547 O   0  0  0  0  0  0  0  0  0  0  0  0
   -0.1618   -0.5691   -0.3340 H   0  0  0  0  0  0  0  0  0  0  0  0
   -2.0524    0.2842    1.7774 H   0  0  0  0  0  0  0  0  0  0  0  0
   -0.9131    1.5174    1.2276 H   0  0  0  0  0  0  0  0  0  0  0  0
   -0.0911    0.0544    3.6033 N   0  0  0  0  0  0  0  0  0  0  0  0
    0.8230   -0.4651    4.6430 C   0  0  2  0  0  0  0  0  0  0  0  0
    2.2457    0.1397    4.6187 C   0  0  0  0  0  0  0  0  0  0  0  0
    2.7035    0.6357    5.6393 O   0  0  0  0  0  0  0  0  0  0  0  0
    0.8802   -1.9994    4.6196 C   0  0  0  0  0  0  0  0  0  0  0  0
   -0.8821    0.6087    3.9206 H   0  0  0  0  0  0  0  0  0  0  0  0
    0.3943   -0.1819    5.6101 H   0  0  0  0  0  0  0  0  0  0  0  0
    1.3874   -2.3661    3.7225 H   0  0  0  0  0  0  0  0  0  0  0  0
    1.4287   -2.3664    5.4930 H   0  0  0  0  0  0  0  0  0  0  0  0
   -0.1300   -2.4190    4.6452 H   0  0  0  0  0  0  0  0  0  0  0  0
    3.0080    0.1396    3.4680 N   0  0  0  0  0  0  0  0  0  0  0  0
    4.3493    0.6999    3.3792 C   0  0  0  0  0  0  0  0  0  0  0  0
    2.5746   -0.2726    2.6376 H   0  0  0  0  0  0  0  0  0  0  0  0
    4.3377    1.7648    3.6333 H   0  0  0  0  0  0  0  0  0  0  0  0
    5.0264    0.1816    4.0660 H   0  0  0  0  0  0  0  0  0  0  0  0
    4.7375    0.5914    2.3621 H   0  0  0  0  0  0  0  0  0  0  0  0
  1  2  2  0  0  0  0
  1  3  1  0  0  0  0
  1  7  1  0  0  0  0
  3  4  1  0  0  0  0
  3  5  1  0  0  0  0
  3  6  1  0  0  0  0
  7  8  1  0  0  0  0
  7 12  1  0  0  0  0
  8  9  1  0  0  0  0
  8 11  1  0  0  0  0
  8 13  1  0  0  0  0
  9 10  2  0  0  0  0
  9 17  1  0  0  0  0
 11 14  1  0  0  0  0
 11 15  1  0  0  0  0
 11 16  1  0  0  0  0
 17 18  1  0  0  0  0
 17 21  1  0  0  0  0
 18 19  1  0  0  0  0
 18 22  1  0  0  0  0
 18 23  1  0  0  0  0
 19 20  2  0  0  0  0
 19 24  1  0  0  0  0
 24 25  1  0  0  0  0
 24 29  1  0  0  0  0
 25 26  1  0  0  0  0
 25 28  1  0  0  0  0
 25 30  1  0  0  0  0
 26 27  2  0  0  0  0
 26 34  1  0  0  0  0
 28 31  1  0  0  0  0
 28 32  1  0  0  0  0
 28 33  1  0  0  0  0
 34 35  1  0  0  0  0
 34 36  1  0  0  0  0
 35 37  1  0  0  0  0
 35 38  1  0  0  0  0
 35 39  1  0  0  0  0
M  END
$$$$

  -OEChem-05262216283D

 39 38  0     1  0  0  0  0  0999 V2000
   -4.9421   -2.5615   -2.2938 C   0  0  0  0  0  0  0  0  0  0  0  0
   -4.6161   -3.7374   -2.3336 O   0  0  0  0  0  0  0  0  0  0  0  0
   -6.4096   -2.1778   -2.2701 C   0  0  0  0  0  0  0  0  0  0  0  0
   -6.6373   -1.5235   -3.1151 H   0  0  0  0  0  0  0  0  0  0  0  0
   -7.0341   -3.0729   -2.3391 H   0  0  0  0  0  0  0  0  0  0  0  0
   -6.6440   -1.6549   -1.3396 H   0  0  0  0  0  0  0  0  0  0  0  0
   -3.9771   -1.5775   -2.2629 N   0  0  0  0  0  0  0  0  0  0  0  0
   -2.5372   -1.8322   -2.1251 C   0  0  2  0  0  0  0  0  0  0  0  0
   -1.8258   -0.6762   -1.3890 C   0  0  0  0  0  0  0  0  0  0  0  0
   -2.4325    0.3595   -1.1360 O   0  0  0  0  0  0  0  0  0  0  0  0
   -1.9438   -2.0315   -3.5238 C   0  0  0  0  0  0  0  0  0  0  0  0
   -4.2890   -0.6210   -2.0969 H   0  0  0  0  0  0  0  0  0  0  0  0
   -2.3792   -2.7407   -1.5335 H   0  0  0  0  0  0  0  0  0  0  0  0
   -2.0800   -1.1293   -4.1288 H   0  0  0  0  0  0  0  0  0  0  0  0
   -0.8739   -2.2523   -3.4610 H   0  0  0  0  0  0  0  0  0  0  0  0
   -2.4373   -2.8682   -4.0290 H   0  0  0  0  0  0  0  0  0  0  0  0
   -0.5060   -0.7995   -0.9981 N   0  0  0  0  0  0  0  0  0  0  0  0
    0.1965    0.1480   -0.1178 C   0  0  0  0  0  0  0  0  0  0  0  0
    1.0166   -0.5792    0.9562 C   0  0  0  0  0  0  0  0  0  0  0  0
    1.4321   -1.7119    0.7384 O   0  0  0  0  0  0  0  0  0  0  0  0
   -0.0788   -1.7197   -1.1048 H   0  0  0  0  0  0  0  0  0  0  0  0
   -0.5172    0.8054    0.3888 H   0  0  0  0  0  0  0  0  0  0  0  0
    0.8657    0.7780   -0.7104 H   0  0  0  0  0  0  0  0  0  0  0  0
    1.2377   -0.0010    2.1904 N   0  0  0  0  0  0  0  0  0  0  0  0
    1.8716   -0.6809    3.3275 C   0  0  2  0  0  0  0  0  0  0  0  0
    1.4021   -0.0840    4.6714 C   0  0  0  0  0  0  0  0  0  0  0  0
    0.7874    0.9770    4.6886 O   0  0  0  0  0  0  0  0  0  0  0  0
    3.3923   -0.5568    3.1859 C   0  0  0  0  0  0  0  0  0  0  0  0
    0.7647    0.8803    2.3940 H   0  0  0  0  0  0  0  0  0  0  0  0
    1.5924   -1.7400    3.3237 H   0  0  0  0  0  0  0  0  0  0  0  0
    3.6925    0.4959    3.1959 H   0  0  0  0  0  0  0  0  0  0  0  0
    3.8990   -1.0726    4.0068 H   0  0  0  0  0  0  0  0  0  0  0  0
    3.7241   -1.0041    2.2436 H   0  0  0  0  0  0  0  0  0  0  0  0
    1.6555   -0.7398    5.8623 N   0  0  0  0  0  0  0  0  0  0  0  0
    1.2302   -0.2317    7.1614 C   0  0  0  0  0  0  0  0  0  0  0  0
    2.1607   -1.6202    5.8189 H   0  0  0  0  0  0  0  0  0  0  0  0
    1.7317    0.7161    7.3844 H   0  0  0  0  0  0  0  0  0  0  0  0
    0.1470   -0.0691    7.1746 H   0  0  0  0  0  0  0  0  0  0  0  0
    1.4798   -0.9492    7.9492 H   0  0  0  0  0  0  0  0  0  0  0  0
  1  2  2  0  0  0  0
  1  3  1  0  0  0  0
  1  7  1  0  0  0  0
  3  4  1  0  0  0  0
  3  5  1  0  0  0  0
  3  6  1  0  0  0  0
  7  8  1  0  0  0  0
  7 12  1  0  0  0  0
  8  9  1  0  0  0  0
  8 11  1  0  0  0  0
  8 13  1  0  0  0  0
  9 10  2  0  0  0  0
  9 17  1  0  0  0  0
 11 14  1  0  0  0  0
 11 15  1  0  0  0  0
 11 16  1  0  0  0  0
 17 18  1  0  0  0  0
 17 21  1  0  0  0  0
 18 19  1  0  0  0  0
 18 22  1  0  0  0  0
 18 23  1  0  0  0  0
 19 20  2  0  0  0  0
 19 24  1  0  0  0  0
 24 25  1  0  0  0  0
 24 29  1  0  0  0  0
 25 26  1  0  0  0  0
 25 28  1  0  0  0  0
 25 30  1  0  0  0  0
 26 27  2  0  0  0  0
 26 34  1  0  0  0  0
 28 31  1  0  0  0  0
 28 32  1  0  0  0  0
 28 33  1  0  0  0  0
 34 35  1  0  0  0  0
 34 36  1  0  0  0  0
 35 37  1  0  0  0  0
 35 38  1  0  0  0  0
 35 39  1  0  0  0  0
M  END
$$$$

  -OEChem-05262216283D

 39 38  0     1  0  0  0  0  0999 V2000
   -4.8607   -2.4774   -2.0740 C   0  0  0  0  0  0  0  0  0  0  0  0
   -4.5273   -3.6499   -2.1399 O   0  0  0  0  0  0  0  0  0  0  0  0
   -6.3173   -2.1125   -1.8583 C   0  0  0  0  0  0  0  0  0  0  0  0
   -6.6735   -1.4931   -2.6848 H   0  0  0  0  0  0  0  0  0  0  0  0
   -6.9288   -3.0177   -1.8074 H   0  0  0  0  0  0  0  0  0  0  0  0
   -6.4288   -1.5593   -0.9226 H   0  0  0  0  0  0  0  0  0  0  0  0
   -3.9127   -1.4824   -2.1816 N   0  0  0  0  0  0  0  0  0  0  0  0
   -2.4634   -1.7198   -2.2014 C   0  0  2  0  0  0  0  0  0  0  0  0
   -1.7006   -0.6081   -1.4506 C   0  0  0  0  0  0  0  0  0  0  0  0
   -2.2549    0.4563   -1.1970 O   0  0  0  0  0  0  0  0  0  0  0  0
   -2.0084   -1.8006   -3.6612 C   0  0  0  0  0  0  0  0  0  0  0  0
   -4.2149   -0.5274   -1.9916 H   0  0  0  0  0  0  0  0  0  0  0  0
   -2.2333   -2.6667   -1.7006 H   0  0  0  0  0  0  0  0  0  0  0  0
   -2.2198   -0.8604   -4.1807 H   0  0  0  0  0  0  0  0  0  0  0  0
   -0.9335   -1.9976   -3.7193 H   0  0  0  0  0  0  0  0  0  0  0  0
   -2.5348   -2.6103   -4.1768 H   0  0  0  0  0  0  0  0  0  0  0  0
   -0.4008   -0.8131   -1.0283 N   0  0  0  0  0  0  0  0  0  0  0  0
    0.3552    0.1079   -0.1649 C   0  0  0  0  0  0  0  0  0  0  0  0
    1.0968   -0.6463    0.9455 C   0  0  0  0  0  0  0  0  0  0  0  0
    1.6314   -1.7187    0.6893 O   0  0  0  0  0  0  0  0  0  0  0  0
   -0.0092   -1.7455   -1.1598 H   0  0  0  0  0  0  0  0  0  0  0  0
   -0.3120    0.8391    0.3020 H   0  0  0  0  0  0  0  0  0  0  0  0
    1.0844    0.6619   -0.7627 H   0  0  0  0  0  0  0  0  0  0  0  0
    1.0768   -0.1897    2.2488 N   0  0  0  0  0  0  0  0  0  0  0  0
    1.5719   -0.9524    3.4022 C   0  0  2  0  0  0  0  0  0  0  0  0
    0.7999   -0.5956    4.6899 C   0  0  0  0  0  0  0  0  0  0  0  0
    0.0682    0.3882    4.7149 O   0  0  0  0  0  0  0  0  0  0  0  0
    3.0663   -0.6614    3.5743 C   0  0  0  0  0  0  0  0  0  0  0  0
    0.4823    0.6132    2.4580 H   0  0  0  0  0  0  0  0  0  0  0  0
    1.4291   -2.0235    3.2229 H   0  0  0  0  0  0  0  0  0  0  0  0
    3.2292    0.4047    3.7626 H   0  0  0  0  0  0  0  0  0  0  0  0
    3.4746   -1.2301    4.4149 H   0  0  0  0  0  0  0  0  0  0  0  0
    3.6151   -0.9435    2.6702 H   0  0  0  0  0  0  0  0  0  0  0  0
    0.9179   -1.3838    5.8197 N   0  0  0  0  0  0  0  0  0  0  0  0
    0.2104   -1.1112    7.0649 C   0  0  0  0  0  0  0  0  0  0  0  0
    1.5241   -2.1972    5.7658 H   0  0  0  0  0  0  0  0  0  0  0  0
   -0.8720   -1.1061    6.8985 H   0  0  0  0  0  0  0  0  0  0  0  0
    0.4416   -1.8814    7.8069 H   0  0  0  0  0  0  0  0  0  0  0  0
    0.5091   -0.1390    7.4709 H   0  0  0  0  0  0  0  0  0  0  0  0
  1  2  2  0  0  0  0
  1  3  1  0  0  0  0
  1  7  1  0  0  0  0
  3  4  1  0  0  0  0
  3  5  1  0  0  0  0
  3  6  1  0  0  0  0
  7  8  1  0  0  0  0
  7 12  1  0  0  0  0
  8  9  1  0  0  0  0
  8 11  1  0  0  0  0
  8 13  1  0  0  0  0
  9 10  2  0  0  0  0
  9 17  1  0  0  0  0
 11 14  1  0  0  0  0
 11 15  1  0  0  0  0
 11 16  1  0  0  0  0
 17 18  1  0  0  0  0
 17 21  1  0  0  0  0
 18 19  1  0  0  0  0
 18 22  1  0  0  0  0
 18 23  1  0  0  0  0
 19 20  2  0  0  0  0
 19 24  1  0  0  0  0
 24 25  1  0  0  0  0
 24 29  1  0  0  0  0
 25 26  1  0  0  0  0
 25 28  1  0  0  0  0
 25 30  1  0  0  0  0
 26 27  2  0  0  0  0
 26 34  1  0  0  0  0
 28 31  1  0  0  0  0
 28 32  1  0  0  0  0
 28 33  1  0  0  0  0
 34 35  1  0  0  0  0
 34 36  1  0  0  0  0
 35 37  1  0  0  0  0
 35 38  1  0  0  0  0
 35 39  1  0  0  0  0
M  END
$$$$

  -OEChem-05262216283D

 39 38  0     1  0  0  0  0  0999 V2000
   -4.7846   -2.6094   -2.0035 C   0  0  0  0  0  0  0  0  0  0  0  0
   -4.3801   -3.7555   -2.1177 O   0  0  0  0  0  0  0  0  0  0  0  0
   -6.2558   -2.3446   -1.7443 C   0  0  0  0  0  0  0  0  0  0  0  0
   -6.6671   -1.7115   -2.5343 H   0  0  0  0  0  0  0  0  0  0  0  0
   -6.8100   -3.2872   -1.7241 H   0  0  0  0  0  0  0  0  0  0  0  0
   -6.3801   -1.8419   -0.7821 H   0  0  0  0  0  0  0  0  0  0  0  0
   -3.9026   -1.5536   -2.0947 N   0  0  0  0  0  0  0  0  0  0  0  0
   -2.4431   -1.6992   -2.1709 C   0  0  2  0  0  0  0  0  0  0  0  0
   -1.7214   -0.5853   -1.3846 C   0  0  0  0  0  0  0  0  0  0  0  0
   -2.3182    0.4439   -1.0871 O   0  0  0  0  0  0  0  0  0  0  0  0
   -2.0354   -1.6716   -3.6462 C   0  0  0  0  0  0  0  0  0  0  0  0
   -4.2575   -0.6269   -1.8615 H   0  0  0  0  0  0  0  0  0  0  0  0
   -2.1398   -2.6561   -1.7323 H   0  0  0  0  0  0  0  0  0  0  0  0
   -2.3274   -0.7220   -4.1063 H   0  0  0  0  0  0  0  0  0  0  0  0
   -0.9525   -1.7906   -3.7478 H   0  0  0  0  0  0  0  0  0  0  0  0
   -2.5244   -2.4872   -4.1889 H   0  0  0  0  0  0  0  0  0  0  0  0
   -0.4099   -0.7503   -0.9812 N   0  0  0  0  0  0  0  0  0  0  0  0
    0.3304    0.1892   -0.1249 C   0  0  0  0  0  0  0  0  0  0  0  0
    1.1079   -0.5511    0.9683 C   0  0  0  0  0  0  0  0  0  0  0  0
    1.8543   -1.4700    0.6553 O   0  0  0  0  0  0  0  0  0  0  0  0
    0.0336   -1.6457   -1.1823 H   0  0  0  0  0  0  0  0  0  0  0  0
   -0.3492    0.9000    0.3551 H   0  0  0  0  0  0  0  0  0  0  0  0
    1.0342    0.7672   -0.7300 H   0  0  0  0  0  0  0  0  0  0  0  0
    0.8566   -0.3015    2.3027 N   0  0  0  0  0  0  0  0  0  0  0  0
    1.3302   -1.1428    3.4091 C   0  0  2  0  0  0  0  0  0  0  0  0
    0.3540   -1.0939    4.6040 C   0  0  0  0  0  0  0  0  0  0  0  0
   -0.5226   -0.2371    4.6448 O   0  0  0  0  0  0  0  0  0  0  0  0
    2.7224   -0.6597    3.8269 C   0  0  0  0  0  0  0  0  0  0  0  0
    0.0970    0.3441    2.5228 H   0  0  0  0  0  0  0  0  0  0  0  0
    1.3920   -2.1857    3.0799 H   0  0  0  0  0  0  0  0  0  0  0  0
    2.6806    0.3816    4.1622 H   0  0  0  0  0  0  0  0  0  0  0  0
    3.1145   -1.2738    4.6428 H   0  0  0  0  0  0  0  0  0  0  0  0
    3.4160   -0.7269    2.9827 H   0  0  0  0  0  0  0  0  0  0  0  0
    0.4405   -2.0224    5.6249 N   0  0  0  0  0  0  0  0  0  0  0  0
   -0.4710   -2.0455    6.7629 C   0  0  0  0  0  0  0  0  0  0  0  0
    1.1569   -2.7391    5.5525 H   0  0  0  0  0  0  0  0  0  0  0  0
   -0.4155   -1.1026    7.3174 H   0  0  0  0  0  0  0  0  0  0  0  0
   -1.5023   -2.1956    6.4258 H   0  0  0  0  0  0  0  0  0  0  0  0
   -0.2074   -2.8616    7.4424 H   0  0  0  0  0  0  0  0  0  0  0  0
  1  2  2  0  0  0  0
  1  3  1  0  0  0  0
  1  7  1  0  0  0  0
  3  4  1  0  0  0  0
  3  5  1  0  0  0  0
  3  6  1  0  0  0  0
  7  8  1  0  0  0  0
  7 12  1  0  0  0  0
  8  9  1  0  0  0  0
  8 11  1  0  0  0  0
  8 13  1  0  0  0  0
  9 10  2  0  0  0  0
  9 17  1  0  0  0  0
 11 14  1  0  0  0  0
 11 15  1  0  0  0  0
 11 16  1  0  0  0  0
 17 18  1  0  0  0  0
 17 21  1  0  0  0  0
 18 19  1  0  0  0  0
 18 22  1  0  0  0  0
 18 23  1  0  0  0  0
 19 20  2  0  0  0  0
 19 24  1  0  0  0  0
 24 25  1  0  0  0  0
 24 29  1  0  0  0  0
 25 26  1  0  0  0  0
 25 28  1  0  0  0  0
 25 30  1  0  0  0  0
 26 27  2  0  0  0  0
 26 34  1  0  0  0  0
 28 31  1  0  0  0  0
 28 32  1  0  0  0  0
 28 33  1  0  0  0  0
 34 35  1  0  0  0  0
 34 36  1  0  0  0  0
 35 37  1  0  0  0  0
 35 38  1  0  0  0  0
 35 39  1  0  0  0  0
M  END
$$$$

  -OEChem-05262216283D

 39 38  0     1  0  0  0  0  0999 V2000
   -4.7050   -2.6537   -1.8450 C   0  0  0  0  0  0  0  0  0  0  0  0
   -4.2698   -3.7923   -1.9121 O   0  0  0  0  0  0  0  0  0  0  0  0
   -6.1642   -2.4173   -1.5035 C   0  0  0  0  0  0  0  0  0  0  0  0
   -6.6593   -1.8910   -2.3232 H   0  0  0  0  0  0  0  0  0  0  0  0
   -6.6725   -3.3716   -1.3391 H   0  0  0  0  0  0  0  0  0  0  0  0
   -6.2417   -1.8165   -0.5941 H   0  0  0  0  0  0  0  0  0  0  0  0
   -3.8694   -1.5786   -2.0636 N   0  0  0  0  0  0  0  0  0  0  0  0
   -2.4092   -1.6802   -2.1908 C   0  0  2  0  0  0  0  0  0  0  0  0
   -1.6944   -0.5707   -1.3919 C   0  0  0  0  0  0  0  0  0  0  0  0
   -2.2934    0.4574   -1.0959 O   0  0  0  0  0  0  0  0  0  0  0  0
   -2.0513   -1.5938   -3.6761 C   0  0  0  0  0  0  0  0  0  0  0  0
   -4.2437   -0.6545   -1.8519 H   0  0  0  0  0  0  0  0  0  0  0  0
   -2.0619   -2.6406   -1.7948 H   0  0  0  0  0  0  0  0  0  0  0  0
   -2.3808   -0.6374   -4.0947 H   0  0  0  0  0  0  0  0  0  0  0  0
   -0.9697   -1.6818   -3.8165 H   0  0  0  0  0  0  0  0  0  0  0  0
   -2.5383   -2.4033   -4.2292 H   0  0  0  0  0  0  0  0  0  0  0  0
   -0.3888   -0.7409   -0.9707 N   0  0  0  0  0  0  0  0  0  0  0  0
    0.3543    0.2115   -0.1305 C   0  0  0  0  0  0  0  0  0  0  0  0
    1.1085   -0.5157    0.9864 C   0  0  0  0  0  0  0  0  0  0  0  0
    2.0349   -1.2614    0.6973 O   0  0  0  0  0  0  0  0  0  0  0  0
    0.0659   -1.6246   -1.1953 H   0  0  0  0  0  0  0  0  0  0  0  0
   -0.3161    0.9480    0.3235 H   0  0  0  0  0  0  0  0  0  0  0  0
    1.0747    0.7612   -0.7432 H   0  0  0  0  0  0  0  0  0  0  0  0
    0.6469   -0.4703    2.2868 N   0  0  0  0  0  0  0  0  0  0  0  0
    1.0918   -1.3765    3.3537 C   0  0  2  0  0  0  0  0  0  0  0  0
   -0.0515   -1.6756    4.3465 C   0  0  0  0  0  0  0  0  0  0  0  0
   -1.0784   -1.0059    4.3210 O   0  0  0  0  0  0  0  0  0  0  0  0
    2.2834   -0.7366    4.0723 C   0  0  0  0  0  0  0  0  0  0  0  0
   -0.2442    0.0034    2.4433 H   0  0  0  0  0  0  0  0  0  0  0  0
    1.4039   -2.3334    2.9218 H   0  0  0  0  0  0  0  0  0  0  0  0
    1.9950    0.2239    4.5112 H   0  0  0  0  0  0  0  0  0  0  0  0
    2.6477   -1.3898    4.8707 H   0  0  0  0  0  0  0  0  0  0  0  0
    3.1032   -0.5658    3.3671 H   0  0  0  0  0  0  0  0  0  0  0  0
    0.0594   -2.7118    5.2551 N   0  0  0  0  0  0  0  0  0  0  0  0
   -0.9956   -3.0661    6.1971 C   0  0  0  0  0  0  0  0  0  0  0  0
    0.9082   -3.2694    5.2329 H   0  0  0  0  0  0  0  0  0  0  0  0
   -1.2453   -2.2101    6.8330 H   0  0  0  0  0  0  0  0  0  0  0  0
   -1.8971   -3.3827    5.6621 H   0  0  0  0  0  0  0  0  0  0  0  0
   -0.6680   -3.8887    6.8400 H   0  0  0  0  0  0  0  0  0  0  0  0
  1  2  2  0  0  0  0
  1  3  1  0  0  0  0
  1  7  1  0  0  0  0
  3  4  1  0  0  0  0
  3  5  1  0  0  0  0
  3  6  1  0  0  0  0
  7  8  1  0  0  0  0
  7 12  1  0  0  0  0
  8  9  1  0  0  0  0
  8 11  1  0  0  0  0
  8 13  1  0  0  0  0
  9 10  2  0  0  0  0
  9 17  1  0  0  0  0
 11 14  1  0  0  0  0
 11 15  1  0  0  0  0
 11 16  1  0  0  0  0
 17 18  1  0  0  0  0
 17 21  1  0  0  0  0
 18 19  1  0  0  0  0
 18 22  1  0  0  0  0
 18 23  1  0  0  0  0
 19 20  2  0  0  0  0
 19 24  1  0  0  0  0
 24 25  1  0  0  0  0
 24 29  1  0  0  0  0
 25 26  1  0  0  0  0
 25 28  1  0  0  0  0
 25 30  1  0  0  0  0
 26 27  2  0  0  0  0
 26 34  1  0  0  0  0
 28 31  1  0  0  0  0
 28 32  1  0  0  0  0
 28 33  1  0  0  0  0
 34 35  1  0  0  0  0
 34 36  1  0  0  0  0
 35 37  1  0  0  0  0
 35 38  1  0  0  0  0
 35 39  1  0  0  0  0
M  END
$$$$

  -OEChem-05262216283D

 39 38  0     1  0  0  0  0  0999 V2000
   -4.3970   -2.7304   -1.5540 C   0  0  0  0  0  0  0  0  0  0  0  0
   -3.7798   -3.7721   -1.3966 O   0  0  0  0  0  0  0  0  0  0  0  0
   -5.8244   -2.6123   -1.0534 C   0  0  0  0  0  0  0  0  0  0  0  0
   -6.4965   -2.3935   -1.8867 H   0  0  0  0  0  0  0  0  0  0  0  0
   -6.1376   -3.5492   -0.5843 H   0  0  0  0  0  0  0  0  0  0  0  0
   -5.8959   -1.8093   -0.3158 H   0  0  0  0  0  0  0  0  0  0  0  0
   -3.7982   -1.6519   -2.1727 N   0  0  0  0  0  0  0  0  0  0  0  0
   -2.3567   -1.5696   -2.4489 C   0  0  2  0  0  0  0  0  0  0  0  0
   -1.6640   -0.5500   -1.5220 C   0  0  0  0  0  0  0  0  0  0  0  0
   -2.2451    0.4808   -1.2022 O   0  0  0  0  0  0  0  0  0  0  0  0
   -2.1802   -1.1689   -3.9146 C   0  0  0  0  0  0  0  0  0  0  0  0
   -4.2953   -0.7665   -2.0993 H   0  0  0  0  0  0  0  0  0  0  0  0
   -1.8766   -2.5420   -2.2974 H   0  0  0  0  0  0  0  0  0  0  0  0
   -2.6355   -0.1912   -4.1027 H   0  0  0  0  0  0  0  0  0  0  0  0
   -1.1173   -1.1126   -4.1690 H   0  0  0  0  0  0  0  0  0  0  0  0
   -2.6545   -1.9073   -4.5687 H   0  0  0  0  0  0  0  0  0  0  0  0
   -0.3872   -0.7873   -1.0491 N   0  0  0  0  0  0  0  0  0  0  0  0
    0.3664    0.1207   -0.1698 C   0  0  0  0  0  0  0  0  0  0  0  0
    1.0406   -0.6417    0.9732 C   0  0  0  0  0  0  0  0  0  0  0  0
    2.1170   -1.1911    0.7837 O   0  0  0  0  0  0  0  0  0  0  0  0
    0.0519   -1.6674   -1.3124 H   0  0  0  0  0  0  0  0  0  0  0  0
   -0.2854    0.8844    0.2661 H   0  0  0  0  0  0  0  0  0  0  0  0
    1.1341    0.6415   -0.7492 H   0  0  0  0  0  0  0  0  0  0  0  0
    0.3734   -0.8331    2.1663 N   0  0  0  0  0  0  0  0  0  0  0  0
    0.8038   -1.7580    3.2224 C   0  0  2  0  0  0  0  0  0  0  0  0
   -0.4000   -2.2759    4.0390 C   0  0  0  0  0  0  0  0  0  0  0  0
   -1.5004   -1.7490    3.9147 O   0  0  0  0  0  0  0  0  0  0  0  0
    1.8008   -1.0343    4.1332 C   0  0  0  0  0  0  0  0  0  0  0  0
   -0.5930   -0.5064    2.2157 H   0  0  0  0  0  0  0  0  0  0  0  0
    1.2921   -2.6283    2.7709 H   0  0  0  0  0  0  0  0  0  0  0  0
    1.3301   -0.1615    4.5970 H   0  0  0  0  0  0  0  0  0  0  0  0
    2.1540   -1.7025    4.9241 H   0  0  0  0  0  0  0  0  0  0  0  0
    2.6678   -0.6976    3.5560 H   0  0  0  0  0  0  0  0  0  0  0  0
   -0.2558   -3.3437    4.9058 N   0  0  0  0  0  0  0  0  0  0  0  0
   -1.3575   -3.8946    5.6859 C   0  0  0  0  0  0  0  0  0  0  0  0
    0.6603   -3.7773    4.9726 H   0  0  0  0  0  0  0  0  0  0  0  0
   -1.7887   -3.1253    6.3352 H   0  0  0  0  0  0  0  0  0  0  0  0
   -2.1418   -4.2783    5.0247 H   0  0  0  0  0  0  0  0  0  0  0  0
   -1.0022   -4.7170    6.3142 H   0  0  0  0  0  0  0  0  0  0  0  0
  1  2  2  0  0  0  0
  1  3  1  0  0  0  0
  1  7  1  0  0  0  0
  3  4  1  0  0  0  0
  3  5  1  0  0  0  0
  3  6  1  0  0  0  0
  7  8  1  0  0  0  0
  7 12  1  0  0  0  0
  8  9  1  0  0  0  0
  8 11  1  0  0  0  0
  8 13  1  0  0  0  0
  9 10  2  0  0  0  0
  9 17  1  0  0  0  0
 11 14  1  0  0  0  0
 11 15  1  0  0  0  0
 11 16  1  0  0  0  0
 17 18  1  0  0  0  0
 17 21  1  0  0  0  0
 18 19  1  0  0  0  0
 18 22  1  0  0  0  0
 18 23  1  0  0  0  0
 19 20  2  0  0  0  0
 19 24  1  0  0  0  0
 24 25  1  0  0  0  0
 24 29  1  0  0  0  0
 25 26  1  0  0  0  0
 25 28  1  0  0  0  0
 25 30  1  0  0  0  0
 26 27  2  0  0  0  0
 26 34  1  0  0  0  0
 28 31  1  0  0  0  0
 28 32  1  0  0  0  0
 28 33  1  0  0  0  0
 34 35  1  0  0  0  0
 34 36  1  0  0  0  0
 35 37  1  0  0  0  0
 35 38  1  0  0  0  0
 35 39  1  0  0  0  0
M  END
$$$$

  -OEChem-05262216283D

 39 38  0     1  0  0  0  0  0999 V2000
   -2.6269   -3.1789   -0.9457 C   0  0  0  0  0  0  0  0  0  0  0  0
   -1.5807   -3.6050   -1.4130 O   0  0  0  0  0  0  0  0  0  0  0  0
   -3.3880   -3.9867    0.0877 C   0  0  0  0  0  0  0  0  0  0  0  0
   -4.1993   -4.5369   -0.3946 H   0  0  0  0  0  0  0  0  0  0  0  0
   -2.7158   -4.6976    0.5756 H   0  0  0  0  0  0  0  0  0  0  0  0
   -3.8098   -3.3252    0.8482 H   0  0  0  0  0  0  0  0  0  0  0  0
   -3.1175   -1.9657   -1.3843 N   0  0  0  0  0  0  0  0  0  0  0  0
   -2.4804   -1.1436   -2.4275 C   0  0  2  0  0  0  0  0  0  0  0  0
   -1.2539   -0.3607   -1.8978 C   0  0  0  0  0  0  0  0  0  0  0  0
   -1.2087    0.8634   -1.9142 O   0  0  0  0  0  0  0  0  0  0  0  0
   -3.5646   -0.2325   -3.0165 C   0  0  0  0  0  0  0  0  0  0  0  0
   -3.9165   -1.5854   -0.8841 H   0  0  0  0  0  0  0  0  0  0  0  0
   -2.1199   -1.7939   -3.2321 H   0  0  0  0  0  0  0  0  0  0  0  0
   -3.9557    0.4463   -2.2518 H   0  0  0  0  0  0  0  0  0  0  0  0
   -3.1519    0.3680   -3.8335 H   0  0  0  0  0  0  0  0  0  0  0  0
   -4.3916   -0.8300   -3.4119 H   0  0  0  0  0  0  0  0  0  0  0  0
   -0.2142   -1.0631   -1.3223 N   0  0  0  0  0  0  0  0  0  0  0  0
    0.9555   -0.4668   -0.6613 C   0  0  0  0  0  0  0  0  0  0  0  0
    1.2427   -1.1859    0.6569 C   0  0  0  0  0  0  0  0  0  0  0  0
    2.1468   -2.0048    0.7410 O   0  0  0  0  0  0  0  0  0  0  0  0
   -0.3239   -2.0834   -1.3055 H   0  0  0  0  0  0  0  0  0  0  0  0
    0.7991    0.5956   -0.4507 H   0  0  0  0  0  0  0  0  0  0  0  0
    1.8304   -0.5478   -1.3133 H   0  0  0  0  0  0  0  0  0  0  0  0
    0.4198   -0.9363    1.7374 N   0  0  0  0  0  0  0  0  0  0  0  0
    0.3106   -1.8331    2.8954 C   0  0  2  0  0  0  0  0  0  0  0  0
   -1.0993   -2.4558    3.0000 C   0  0  0  0  0  0  0  0  0  0  0  0
   -2.0384   -1.9857    2.3635 O   0  0  0  0  0  0  0  0  0  0  0  0
    0.6406   -1.0166    4.1467 C   0  0  0  0  0  0  0  0  0  0  0  0
   -0.4202   -0.4051    1.5104 H   0  0  0  0  0  0  0  0  0  0  0  0
    1.0269   -2.6574    2.8162 H   0  0  0  0  0  0  0  0  0  0  0  0
   -0.0712   -0.1936    4.2674 H   0  0  0  0  0  0  0  0  0  0  0  0
    0.5997   -1.6474    5.0398 H   0  0  0  0  0  0  0  0  0  0  0  0
    1.6487   -0.5973    4.0667 H   0  0  0  0  0  0  0  0  0  0  0  0
   -1.3238   -3.5408    3.8275 N   0  0  0  0  0  0  0  0  0  0  0  0
   -2.6293   -4.1664    4.0019 C   0  0  0  0  0  0  0  0  0  0  0  0
   -0.5235   -3.9283    4.3199 H   0  0  0  0  0  0  0  0  0  0  0  0
   -3.3759   -3.4219    4.2981 H   0  0  0  0  0  0  0  0  0  0  0  0
   -2.9551   -4.6416    3.0715 H   0  0  0  0  0  0  0  0  0  0  0  0
   -2.5803   -4.9320    4.7823 H   0  0  0  0  0  0  0  0  0  0  0  0
  1  2  2  0  0  0  0
  1  3  1  0  0  0  0
  1  7  1  0  0  0  0
  3  4  1  0  0  0  0
  3  5  1  0  0  0  0
  3  6  1  0  0  0  0
  7  8  1  0  0  0  0
  7 12  1  0  0  0  0
  8  9  1  0  0  0  0
  8 11  1  0  0  0  0
  8 13  1  0  0  0  0
  9 10  2  0  0  0  0
  9 17  1  0  0  0  0
 11 14  1  0  0  0  0
 11 15  1  0  0  0  0
 11 16  1  0  0  0  0
 17 18  1  0  0  0  0
 17 21  1  0  0  0  0
 18 19  1  0  0  0  0
 18 22  1  0  0  0  0
 18 23  1  0  0  0  0
 19 20  2  0  0  0  0
 19 24  1  0  0  0  0
 24 25  1  0  0  0  0
 24 29  1  0  0  0  0
 25 26  1  0  0  0  0
 25 28  1  0  0  0  0
 25 30  1  0  0  0  0
 26 27  2  0  0  0  0
 26 34  1  0  0  0  0
 28 31  1  0  0  0  0
 28 32  1  0  0  0  0
 28 33  1  0  0  0  0
 34 35  1  0  0  0  0
 34 36  1  0  0  0  0
 35 37  1  0  0  0  0
 35 38  1  0  0  0  0
 35 39  1  0  0  0  0
M  END
$$$$

  -OEChem-05262216283D

 39 38  0     1  0  0  0  0  0999 V2000
   -2.8198   -3.0702   -1.0706 C   0  0  0  0  0  0  0  0  0  0  0  0
   -1.7856   -3.5127   -1.5501 O   0  0  0  0  0  0  0  0  0  0  0  0
   -3.6418   -3.9122   -0.1142 C   0  0  0  0  0  0  0  0  0  0  0  0
   -4.4804   -4.3677   -0.6457 H   0  0  0  0  0  0  0  0  0  0  0  0
   -3.0205   -4.7018    0.3162 H   0  0  0  0  0  0  0  0  0  0  0  0
   -4.0292   -3.2921    0.6979 H   0  0  0  0  0  0  0  0  0  0  0  0
   -3.2496   -1.8112   -1.4391 N   0  0  0  0  0  0  0  0  0  0  0  0
   -2.5839   -0.9703   -2.4486 C   0  0  2  0  0  0  0  0  0  0  0  0
   -1.3042   -0.2850   -1.9091 C   0  0  0  0  0  0  0  0  0  0  0  0
   -1.1905    0.9334   -1.8656 O   0  0  0  0  0  0  0  0  0  0  0  0
   -3.6233    0.0313   -2.9671 C   0  0  0  0  0  0  0  0  0  0  0  0
   -4.0658   -1.4427   -0.9585 H   0  0  0  0  0  0  0  0  0  0  0  0
   -2.2768   -1.5964   -3.2934 H   0  0  0  0  0  0  0  0  0  0  0  0
   -3.9612    0.6892   -2.1599 H   0  0  0  0  0  0  0  0  0  0  0  0
   -3.1898    0.6507   -3.7590 H   0  0  0  0  0  0  0  0  0  0  0  0
   -4.4901   -0.4954   -3.3779 H   0  0  0  0  0  0  0  0  0  0  0  0
   -0.2809   -1.0727   -1.4219 N   0  0  0  0  0  0  0  0  0  0  0  0
    0.9653   -0.5800   -0.8145 C   0  0  0  0  0  0  0  0  0  0  0  0
    1.2905   -1.3593    0.4602 C   0  0  0  0  0  0  0  0  0  0  0  0
    2.3135   -2.0234    0.5476 O   0  0  0  0  0  0  0  0  0  0  0  0
   -0.4495   -2.0843   -1.4548 H   0  0  0  0  0  0  0  0  0  0  0  0
    0.8902    0.4807   -0.5565 H   0  0  0  0  0  0  0  0  0  0  0  0
    1.7900   -0.6895   -1.5246 H   0  0  0  0  0  0  0  0  0  0  0  0
    0.3831   -1.3389    1.5000 N   0  0  0  0  0  0  0  0  0  0  0  0
    0.3763   -2.3130    2.5975 C   0  0  2  0  0  0  0  0  0  0  0  0
   -1.0185   -2.9499    2.7745 C   0  0  0  0  0  0  0  0  0  0  0  0
   -2.0069   -2.4365    2.2572 O   0  0  0  0  0  0  0  0  0  0  0  0
    0.8109   -1.5875    3.8724 C   0  0  0  0  0  0  0  0  0  0  0  0
   -0.5134   -0.9045    1.2817 H   0  0  0  0  0  0  0  0  0  0  0  0
    1.0802   -3.1262    2.3912 H   0  0  0  0  0  0  0  0  0  0  0  0
    0.1075   -0.7842    4.1136 H   0  0  0  0  0  0  0  0  0  0  0  0
    0.8512   -2.2818    4.7168 H   0  0  0  0  0  0  0  0  0  0  0  0
    1.8057   -1.1511    3.7367 H   0  0  0  0  0  0  0  0  0  0  0  0
   -1.1682   -4.1063    3.5176 N   0  0  0  0  0  0  0  0  0  0  0  0
   -2.4488   -4.7722    3.7208 C   0  0  0  0  0  0  0  0  0  0  0  0
   -0.3276   -4.5281    3.9031 H   0  0  0  0  0  0  0  0  0  0  0  0
   -3.1805   -4.0769    4.1456 H   0  0  0  0  0  0  0  0  0  0  0  0
   -2.8356   -5.1562    2.7716 H   0  0  0  0  0  0  0  0  0  0  0  0
   -2.3319   -5.6121    4.4125 H   0  0  0  0  0  0  0  0  0  0  0  0
  1  2  2  0  0  0  0
  1  3  1  0  0  0  0
  1  7  1  0  0  0  0
  3  4  1  0  0  0  0
  3  5  1  0  0  0  0
  3  6  1  0  0  0  0
  7  8  1  0  0  0  0
  7 12  1  0  0  0  0
  8  9  1  0  0  0  0
  8 11  1  0  0  0  0
  8 13  1  0  0  0  0
  9 10  2  0  0  0  0
  9 17  1  0  0  0  0
 11 14  1  0  0  0  0
 11 15  1  0  0  0  0
 11 16  1  0  0  0  0
 17 18  1  0  0  0  0
 17 21  1  0  0  0  0
 18 19  1  0  0  0  0
 18 22  1  0  0  0  0
 18 23  1  0  0  0  0
 19 20  2  0  0  0  0
 19 24  1  0  0  0  0
 24 25  1  0  0  0  0
 24 29  1  0  0  0  0
 25 26  1  0  0  0  0
 25 28  1  0  0  0  0
 25 30  1  0  0  0  0
 26 27  2  0  0  0  0
 26 34  1  0  0  0  0
 28 31  1  0  0  0  0
 28 32  1  0  0  0  0
 28 33  1  0  0  0  0
 34 35  1  0  0  0  0
 34 36  1  0  0  0  0
 35 37  1  0  0  0  0
 35 38  1  0  0  0  0
 35 39  1  0  0  0  0
M  END
$$$$

  -OEChem-05262216283D

 39 38  0     1  0  0  0  0  0999 V2000
   -2.7838   -3.1497   -1.3661 C   0  0  0  0  0  0  0  0  0  0  0  0
   -1.7448   -3.5188   -1.8947 O   0  0  0  0  0  0  0  0  0  0  0  0
   -3.5972   -4.1087   -0.5180 C   0  0  0  0  0  0  0  0  0  0  0  0
   -4.4227   -4.5169   -1.1054 H   0  0  0  0  0  0  0  0  0  0  0  0
   -2.9647   -4.9300   -0.1710 H   0  0  0  0  0  0  0  0  0  0  0  0
   -4.0032   -3.5904    0.3541 H   0  0  0  0  0  0  0  0  0  0  0  0
   -3.2259   -1.8595   -1.5809 N   0  0  0  0  0  0  0  0  0  0  0  0
   -2.5900   -0.9049   -2.5062 C   0  0  2  0  0  0  0  0  0  0  0  0
   -1.3075   -0.2576   -1.9262 C   0  0  0  0  0  0  0  0  0  0  0  0
   -1.1662    0.9570   -1.8660 O   0  0  0  0  0  0  0  0  0  0  0  0
   -3.6546    0.1304   -2.8922 C   0  0  0  0  0  0  0  0  0  0  0  0
   -4.0553   -1.5660   -1.0723 H   0  0  0  0  0  0  0  0  0  0  0  0
   -2.2923   -1.4324   -3.4189 H   0  0  0  0  0  0  0  0  0  0  0  0
   -3.9786    0.6957   -2.0123 H   0  0  0  0  0  0  0  0  0  0  0  0
   -3.2508    0.8356   -3.6261 H   0  0  0  0  0  0  0  0  0  0  0  0
   -4.5252   -0.3630   -3.3346 H   0  0  0  0  0  0  0  0  0  0  0  0
   -0.3094   -1.0725   -1.4309 N   0  0  0  0  0  0  0  0  0  0  0  0
    0.9865   -0.6173   -0.8985 C   0  0  0  0  0  0  0  0  0  0  0  0
    1.3270   -1.3360    0.4087 C   0  0  0  0  0  0  0  0  0  0  0  0
    2.4298   -1.8346    0.5826 O   0  0  0  0  0  0  0  0  0  0  0  0
   -0.4707   -2.0796   -1.5434 H   0  0  0  0  0  0  0  0  0  0  0  0
    0.9772    0.4589   -0.7005 H   0  0  0  0  0  0  0  0  0  0  0  0
    1.7748   -0.8111   -1.6321 H   0  0  0  0  0  0  0  0  0  0  0  0
    0.3432   -1.4705    1.3679 N   0  0  0  0  0  0  0  0  0  0  0  0
    0.3897   -2.4441    2.4640 C   0  0  2  0  0  0  0  0  0  0  0  0
   -0.8833   -3.3159    2.4874 C   0  0  0  0  0  0  0  0  0  0  0  0
   -1.9119   -2.9259    1.9415 O   0  0  0  0  0  0  0  0  0  0  0  0
    0.5436   -1.6719    3.7754 C   0  0  0  0  0  0  0  0  0  0  0  0
   -0.5850   -1.1663    1.0750 H   0  0  0  0  0  0  0  0  0  0  0  0
    1.2457   -3.1162    2.3432 H   0  0  0  0  0  0  0  0  0  0  0  0
   -0.3062   -0.9980    3.9249 H   0  0  0  0  0  0  0  0  0  0  0  0
    0.5968   -2.3608    4.6237 H   0  0  0  0  0  0  0  0  0  0  0  0
    1.4620   -1.0766    3.7554 H   0  0  0  0  0  0  0  0  0  0  0  0
   -0.8781   -4.5433    3.1241 N   0  0  0  0  0  0  0  0  0  0  0  0
   -2.0286   -5.4380    3.1554 C   0  0  0  0  0  0  0  0  0  0  0  0
    0.0012   -4.8593    3.5243 H   0  0  0  0  0  0  0  0  0  0  0  0
   -2.9055   -4.9232    3.5620 H   0  0  0  0  0  0  0  0  0  0  0  0
   -2.2642   -5.7941    2.1473 H   0  0  0  0  0  0  0  0  0  0  0  0
   -1.8159   -6.3049    3.7885 H   0  0  0  0  0  0  0  0  0  0  0  0
  1  2  2  0  0  0  0
  1  3  1  0  0  0  0
  1  7  1  0  0  0  0
  3  4  1  0  0  0  0
  3  5  1  0  0  0  0
  3  6  1  0  0  0  0
  7  8  1  0  0  0  0
  7 12  1  0  0  0  0
  8  9  1  0  0  0  0
  8 11  1  0  0  0  0
  8 13  1  0  0  0  0
  9 10  2  0  0  0  0
  9 17  1  0  0  0  0
 11 14  1  0  0  0  0
 11 15  1  0  0  0  0
 11 16  1  0  0  0  0
 17 18  1  0  0  0  0
 17 21  1  0  0  0  0
 18 19  1  0  0  0  0
 18 22  1  0  0  0  0
 18 23  1  0  0  0  0
 19 20  2  0  0  0  0
 19 24  1  0  0  0  0
 24 25  1  0  0  0  0
 24 29  1  0  0  0  0
 25 26  1  0  0  0  0
 25 28  1  0  0  0  0
 25 30  1  0  0  0  0
 26 27  2  0  0  0  0
 26 34  1  0  0  0  0
 28 31  1  0  0  0  0
 28 32  1  0  0  0  0
 28 33  1  0  0  0  0
 34 35  1  0  0  0  0
 34 36  1  0  0  0  0
 35 37  1  0  0  0  0
 35 38  1  0  0  0  0
 35 39  1  0  0  0  0
M  END
$$$$

  -OEChem-05262216283D

 39 38  0     1  0  0  0  0  0999 V2000
   -2.3734   -3.2495   -1.8411 C   0  0  0  0  0  0  0  0  0  0  0  0
   -1.2392   -3.3774   -2.2793 O   0  0  0  0  0  0  0  0  0  0  0  0
   -3.0844   -4.4198   -1.1894 C   0  0  0  0  0  0  0  0  0  0  0  0
   -3.8075   -4.8518   -1.8849 H   0  0  0  0  0  0  0  0  0  0  0  0
   -2.3592   -5.1875   -0.9057 H   0  0  0  0  0  0  0  0  0  0  0  0
   -3.6100   -4.0888   -0.2903 H   0  0  0  0  0  0  0  0  0  0  0  0
   -3.0073   -2.0296   -1.9677 N   0  0  0  0  0  0  0  0  0  0  0  0
   -2.4730   -0.8896   -2.7346 C   0  0  2  0  0  0  0  0  0  0  0  0
   -1.3740   -0.1035   -1.9758 C   0  0  0  0  0  0  0  0  0  0  0  0
   -1.4303    1.1106   -1.8308 O   0  0  0  0  0  0  0  0  0  0  0  0
   -3.6683   -0.0119   -3.1269 C   0  0  0  0  0  0  0  0  0  0  0  0
   -3.9288   -1.9442   -1.5480 H   0  0  0  0  0  0  0  0  0  0  0  0
   -2.0145   -1.2603   -3.6577 H   0  0  0  0  0  0  0  0  0  0  0  0
   -4.1446    0.4108   -2.2364 H   0  0  0  0  0  0  0  0  0  0  0  0
   -3.3390    0.8131   -3.7669 H   0  0  0  0  0  0  0  0  0  0  0  0
   -4.4099   -0.5987   -3.6775 H   0  0  0  0  0  0  0  0  0  0  0  0
   -0.3185   -0.7990   -1.4204 N   0  0  0  0  0  0  0  0  0  0  0  0
    0.8297   -0.2041   -0.7122 C   0  0  0  0  0  0  0  0  0  0  0  0
    1.1502   -0.9601    0.5811 C   0  0  0  0  0  0  0  0  0  0  0  0
    2.3025   -1.0688    0.9753 O   0  0  0  0  0  0  0  0  0  0  0  0
   -0.2948   -1.8007   -1.6415 H   0  0  0  0  0  0  0  0  0  0  0  0
    0.6292    0.8385   -0.4473 H   0  0  0  0  0  0  0  0  0  0  0  0
    1.7091   -0.2173   -1.3627 H   0  0  0  0  0  0  0  0  0  0  0  0
    0.1278   -1.5880    1.2634 N   0  0  0  0  0  0  0  0  0  0  0  0
    0.3103   -2.5798    2.3266 C   0  0  2  0  0  0  0  0  0  0  0  0
   -0.7802   -3.6697    2.2608 C   0  0  0  0  0  0  0  0  0  0  0  0
   -1.8050   -3.4834    1.6103 O   0  0  0  0  0  0  0  0  0  0  0  0
    0.2729   -1.8554    3.6745 C   0  0  0  0  0  0  0  0  0  0  0  0
   -0.7894   -1.5536    0.8193 H   0  0  0  0  0  0  0  0  0  0  0  0
    1.2798   -3.0752    2.2080 H   0  0  0  0  0  0  0  0  0  0  0  0
   -0.6942   -1.3628    3.8175 H   0  0  0  0  0  0  0  0  0  0  0  0
    0.4302   -2.5612    4.4953 H   0  0  0  0  0  0  0  0  0  0  0  0
    1.0604   -1.0960    3.7169 H   0  0  0  0  0  0  0  0  0  0  0  0
   -0.6087   -4.8722    2.9208 N   0  0  0  0  0  0  0  0  0  0  0  0
   -1.5746   -5.9626    2.8668 C   0  0  0  0  0  0  0  0  0  0  0  0
    0.2658   -5.0136    3.4187 H   0  0  0  0  0  0  0  0  0  0  0  0
   -2.5462   -5.6333    3.2497 H   0  0  0  0  0  0  0  0  0  0  0  0
   -1.7009   -6.3123    1.8368 H   0  0  0  0  0  0  0  0  0  0  0  0
   -1.2305   -6.8032    3.4771 H   0  0  0  0  0  0  0  0  0  0  0  0
  1  2  2  0  0  0  0
  1  3  1  0  0  0  0
  1  7  1  0  0  0  0
  3  4  1  0  0  0  0
  3  5  1  0  0  0  0
  3  6  1  0  0  0  0
  7  8  1  0  0  0  0
  7 12  1  0  0  0  0
  8  9  1  0  0  0  0
  8 11  1  0  0  0  0
  8 13  1  0  0  0  0
  9 10  2  0  0  0  0
  9 17  1  0  0  0  0
 11 14  1  0  0  0  0
 11 15  1  0  0  0  0
 11 16  1  0  0  0  0
 17 18  1  0  0  0  0
 17 21  1  0  0  0  0
 18 19  1  0  0  0  0
 18 22  1  0  0  0  0
 18 23  1  0  0  0  0
 19 20  2  0  0  0  0
 19 24  1  0  0  0  0
 24 25  1  0  0  0  0
 24 29  1  0  0  0  0
 25 26  1  0  0  0  0
 25 28  1  0  0  0  0
 25 30  1  0  0  0  0
 26 27  2  0  0  0  0
 26 34  1  0  0  0  0
 28 31  1  0  0  0  0
 28 32  1  0  0  0  0
 28 33  1  0  0  0  0
 34 35  1  0  0  0  0
 34 36  1  0  0  0  0
 35 37  1  0  0  0  0
 35 38  1  0  0  0  0
 35 39  1  0  0  0  0
M  END
$$$$

  -OEChem-05262216283D

 39 38  0     1  0  0  0  0  0999 V2000
   -5.0972   -2.0797   -2.3265 C   0  0  0  0  0  0  0  0  0  0  0  0
   -5.1806   -3.2053   -1.8616 O   0  0  0  0  0  0  0  0  0  0  0  0
   -6.3461   -1.3525   -2.7883 C   0  0  0  0  0  0  0  0  0  0  0  0
   -6.2844   -1.1516   -3.8603 H   0  0  0  0  0  0  0  0  0  0  0  0
   -7.2320   -1.9634   -2.5943 H   0  0  0  0  0  0  0  0  0  0  0  0
   -6.4485   -0.4055   -2.2530 H   0  0  0  0  0  0  0  0  0  0  0  0
   -3.8697   -1.4601   -2.4252 N   0  0  0  0  0  0  0  0  0  0  0  0
   -2.6273   -1.9873   -1.8444 C   0  0  2  0  0  0  0  0  0  0  0  0
   -1.7188   -0.8504   -1.3277 C   0  0  0  0  0  0  0  0  0  0  0  0
   -2.0295    0.3219   -1.5077 O   0  0  0  0  0  0  0  0  0  0  0  0
   -1.9089   -2.8229   -2.9082 C   0  0  0  0  0  0  0  0  0  0  0  0
   -3.8706   -0.4710   -2.6723 H   0  0  0  0  0  0  0  0  0  0  0  0
   -2.8599   -2.6283   -0.9867 H   0  0  0  0  0  0  0  0  0  0  0  0
   -1.6406   -2.2007   -3.7679 H   0  0  0  0  0  0  0  0  0  0  0  0
   -0.9962   -3.2660   -2.4975 H   0  0  0  0  0  0  0  0  0  0  0  0
   -2.5577   -3.6344   -3.2533 H   0  0  0  0  0  0  0  0  0  0  0  0
   -0.5726   -1.1436   -0.6148 N   0  0  0  0  0  0  0  0  0  0  0  0
    0.3717   -0.1512   -0.0608 C   0  0  0  0  0  0  0  0  0  0  0  0
    0.7763   -0.4895    1.3797 C   0  0  0  0  0  0  0  0  0  0  0  0
    1.9099   -0.2375    1.7620 O   0  0  0  0  0  0  0  0  0  0  0  0
   -0.3379   -2.1369   -0.5027 H   0  0  0  0  0  0  0  0  0  0  0  0
   -0.0709    0.8494   -0.0541 H   0  0  0  0  0  0  0  0  0  0  0  0
    1.2694   -0.1115   -0.6850 H   0  0  0  0  0  0  0  0  0  0  0  0
    0.0191   -1.4167    2.0714 N   0  0  0  0  0  0  0  0  0  0  0  0
    0.6671   -2.5807    2.6858 C   0  0  2  0  0  0  0  0  0  0  0  0
    0.9127   -3.6836    1.6290 C   0  0  0  0  0  0  0  0  0  0  0  0
    0.2739   -3.6810    0.5762 O   0  0  0  0  0  0  0  0  0  0  0  0
   -0.2477   -3.0908    3.8002 C   0  0  0  0  0  0  0  0  0  0  0  0
   -0.8555   -1.6249    1.5954 H   0  0  0  0  0  0  0  0  0  0  0  0
    1.6289   -2.2979    3.1277 H   0  0  0  0  0  0  0  0  0  0  0  0
   -1.2158   -3.3985    3.3916 H   0  0  0  0  0  0  0  0  0  0  0  0
    0.2055   -3.9490    4.3056 H   0  0  0  0  0  0  0  0  0  0  0  0
   -0.4161   -2.3025    4.5408 H   0  0  0  0  0  0  0  0  0  0  0  0
    1.8572   -4.6682    1.8468 N   0  0  0  0  0  0  0  0  0  0  0  0
    2.1911   -5.6882    0.8600 C   0  0  0  0  0  0  0  0  0  0  0  0
    2.4219   -4.5980    2.6889 H   0  0  0  0  0  0  0  0  0  0  0  0
    1.3052   -6.2777    0.6017 H   0  0  0  0  0  0  0  0  0  0  0  0
    2.5851   -5.2254   -0.0509 H   0  0  0  0  0  0  0  0  0  0  0  0
    2.9510   -6.3666    1.2596 H   0  0  0  0  0  0  0  0  0  0  0  0
  1  2  2  0  0  0  0
  1  3  1  0  0  0  0
  1  7  1  0  0  0  0
  3  4  1  0  0  0  0
  3  5  1  0  0  0  0
  3  6  1  0  0  0  0
  7  8  1  0  0  0  0
  7 12  1  0  0  0  0
  8  9  1  0  0  0  0
  8 11  1  0  0  0  0
  8 13  1  0  0  0  0
  9 10  2  0  0  0  0
  9 17  1  0  0  0  0
 11 14  1  0  0  0  0
 11 15  1  0  0  0  0
 11 16  1  0  0  0  0
 17 18  1  0  0  0  0
 17 21  1  0  0  0  0
 18 19  1  0  0  0  0
 18 22  1  0  0  0  0
 18 23  1  0  0  0  0
 19 20  2  0  0  0  0
 19 24  1  0  0  0  0
 24 25  1  0  0  0  0
 24 29  1  0  0  0  0
 25 26  1  0  0  0  0
 25 28  1  0  0  0  0
 25 30  1  0  0  0  0
 26 27  2  0  0  0  0
 26 34  1  0  0  0  0
 28 31  1  0  0  0  0
 28 32  1  0  0  0  0
 28 33  1  0  0  0  0
 34 35  1  0  0  0  0
 34 36  1  0  0  0  0
 35 37  1  0  0  0  0
 35 38  1  0  0  0  0
 35 39  1  0  0  0  0
M  END
$$$$

  -OEChem-05262216283D

 39 38  0     1  0  0  0  0  0999 V2000
   -5.0808   -2.1056   -2.4913 C   0  0  0  0  0  0  0  0  0  0  0  0
   -5.1239   -3.2710   -2.1303 O   0  0  0  0  0  0  0  0  0  0  0  0
   -6.3588   -1.3760   -2.8620 C   0  0  0  0  0  0  0  0  0  0  0  0
   -6.3011   -1.0199   -3.8935 H   0  0  0  0  0  0  0  0  0  0  0  0
   -7.2171   -2.0476   -2.7683 H   0  0  0  0  0  0  0  0  0  0  0  0
   -6.5062   -0.5215   -2.1968 H   0  0  0  0  0  0  0  0  0  0  0  0
   -3.8749   -1.4390   -2.5372 N   0  0  0  0  0  0  0  0  0  0  0  0
   -2.6172   -1.9691   -1.9937 C   0  0  2  0  0  0  0  0  0  0  0  0
   -1.7532   -0.8481   -1.3764 C   0  0  0  0  0  0  0  0  0  0  0  0
   -2.0765    0.3269   -1.5096 O   0  0  0  0  0  0  0  0  0  0  0  0
   -1.8649   -2.6869   -3.1181 C   0  0  0  0  0  0  0  0  0  0  0  0
   -3.9102   -0.4326   -2.6970 H   0  0  0  0  0  0  0  0  0  0  0  0
   -2.8311   -2.6874   -1.1945 H   0  0  0  0  0  0  0  0  0  0  0  0
   -1.6228   -1.9881   -3.9251 H   0  0  0  0  0  0  0  0  0  0  0  0
   -0.9347   -3.1237   -2.7412 H   0  0  0  0  0  0  0  0  0  0  0  0
   -2.4805   -3.4939   -3.5285 H   0  0  0  0  0  0  0  0  0  0  0  0
   -0.6395   -1.1640   -0.6220 N   0  0  0  0  0  0  0  0  0  0  0  0
    0.3025   -0.1857   -0.0389 C   0  0  0  0  0  0  0  0  0  0  0  0
    0.6581   -0.5113    1.4184 C   0  0  0  0  0  0  0  0  0  0  0  0
    1.6979   -0.0723    1.8876 O   0  0  0  0  0  0  0  0  0  0  0  0
   -0.3540   -2.1497   -0.6135 H   0  0  0  0  0  0  0  0  0  0  0  0
   -0.1194    0.8239   -0.0574 H   0  0  0  0  0  0  0  0  0  0  0  0
    1.2218   -0.1694   -0.6318 H   0  0  0  0  0  0  0  0  0  0  0  0
    0.0813   -1.6269    1.9961 N   0  0  0  0  0  0  0  0  0  0  0  0
    0.9271   -2.7180    2.4906 C   0  0  2  0  0  0  0  0  0  0  0  0
    1.2951   -3.6729    1.3314 C   0  0  0  0  0  0  0  0  0  0  0  0
    0.6158   -3.6808    0.3042 O   0  0  0  0  0  0  0  0  0  0  0  0
    0.1501   -3.4584    3.5809 C   0  0  0  0  0  0  0  0  0  0  0  0
   -0.7313   -1.9416    1.4714 H   0  0  0  0  0  0  0  0  0  0  0  0
    1.8513   -2.3245    2.9275 H   0  0  0  0  0  0  0  0  0  0  0  0
   -0.7748   -3.8806    3.1747 H   0  0  0  0  0  0  0  0  0  0  0  0
    0.7517   -4.2735    3.9946 H   0  0  0  0  0  0  0  0  0  0  0  0
   -0.1077   -2.7719    4.3937 H   0  0  0  0  0  0  0  0  0  0  0  0
    2.3977   -4.5002    1.4245 N   0  0  0  0  0  0  0  0  0  0  0  0
    2.8472   -5.3588    0.3353 C   0  0  0  0  0  0  0  0  0  0  0  0
    2.9838   -4.4089    2.2499 H   0  0  0  0  0  0  0  0  0  0  0  0
    2.0575   -6.0617    0.0499 H   0  0  0  0  0  0  0  0  0  0  0  0
    3.1183   -4.7582   -0.5394 H   0  0  0  0  0  0  0  0  0  0  0  0
    3.7249   -5.9345    0.6450 H   0  0  0  0  0  0  0  0  0  0  0  0
  1  2  2  0  0  0  0
  1  3  1  0  0  0  0
  1  7  1  0  0  0  0
  3  4  1  0  0  0  0
  3  5  1  0  0  0  0
  3  6  1  0  0  0  0
  7  8  1  0  0  0  0
  7 12  1  0  0  0  0
  8  9  1  0  0  0  0
  8 11  1  0  0  0  0
  8 13  1  0  0  0  0
  9 10  2  0  0  0  0
  9 17  1  0  0  0  0
 11 14  1  0  0  0  0
 11 15  1  0  0  0  0
 11 16  1  0  0  0  0
 17 18  1  0  0  0  0
 17 21  1  0  0  0  0
 18 19  1  0  0  0  0
 18 22  1  0  0  0  0
 18 23  1  0  0  0  0
 19 20  2  0  0  0  0
 19 24  1  0  0  0  0
 24 25  1  0  0  0  0
 24 29  1  0  0  0  0
 25 26  1  0  0  0  0
 25 28  1  0  0  0  0
 25 30  1  0  0  0  0
 26 27  2  0  0  0  0
 26 34  1  0  0  0  0
 28 31  1  0  0  0  0
 28 32  1  0  0  0  0
 28 33  1  0  0  0  0
 34 35  1  0  0  0  0
 34 36  1  0  0  0  0
 35 37  1  0  0  0  0
 35 38  1  0  0  0  0
 35 39  1  0  0  0  0
M  END
$$$$

  -OEChem-05262216283D

 39 38  0     1  0  0  0  0  0999 V2000
   -4.9950   -2.4293   -2.4024 C   0  0  0  0  0  0  0  0  0  0  0  0
   -4.5313   -3.5577   -2.4406 O   0  0  0  0  0  0  0  0  0  0  0  0
   -6.4639   -2.2234   -2.0834 C   0  0  0  0  0  0  0  0  0  0  0  0
   -6.9580   -1.7119   -2.9129 H   0  0  0  0  0  0  0  0  0  0  0  0
   -6.9539   -3.1877   -1.9221 H   0  0  0  0  0  0  0  0  0  0  0  0
   -6.5683   -1.6200   -1.1783 H   0  0  0  0  0  0  0  0  0  0  0  0
   -4.1872   -1.3353   -2.6333 N   0  0  0  0  0  0  0  0  0  0  0  0
   -2.7200   -1.3966   -2.7003 C   0  0  2  0  0  0  0  0  0  0  0  0
   -2.0713   -0.5271   -1.6036 C   0  0  0  0  0  0  0  0  0  0  0  0
   -2.6733    0.4466   -1.1670 O   0  0  0  0  0  0  0  0  0  0  0  0
   -2.2950   -0.9145   -4.0889 C   0  0  0  0  0  0  0  0  0  0  0  0
   -4.5885   -0.4288   -2.3988 H   0  0  0  0  0  0  0  0  0  0  0  0
   -2.3672   -2.4240   -2.5615 H   0  0  0  0  0  0  0  0  0  0  0  0
   -2.6098    0.1219   -4.2487 H   0  0  0  0  0  0  0  0  0  0  0  0
   -1.2076   -0.9686   -4.1984 H   0  0  0  0  0  0  0  0  0  0  0  0
   -2.7518   -1.5408   -4.8617 H   0  0  0  0  0  0  0  0  0  0  0  0
   -0.8064   -0.8264   -1.1264 N   0  0  0  0  0  0  0  0  0  0  0  0
   -0.0464    0.0398   -0.1993 C   0  0  0  0  0  0  0  0  0  0  0  0
    0.6228   -0.7070    0.9629 C   0  0  0  0  0  0  0  0  0  0  0  0
    1.1421   -0.0721    1.8690 O   0  0  0  0  0  0  0  0  0  0  0  0
   -0.3105   -1.5723   -1.6079 H   0  0  0  0  0  0  0  0  0  0  0  0
   -0.6989    0.7979    0.2454 H   0  0  0  0  0  0  0  0  0  0  0  0
    0.7295    0.5693   -0.7590 H   0  0  0  0  0  0  0  0  0  0  0  0
    0.7648   -2.0812    0.9395 N   0  0  0  0  0  0  0  0  0  0  0  0
    1.5963   -2.8564    1.8678 C   0  0  2  0  0  0  0  0  0  0  0  0
    2.2185   -4.0839    1.1683 C   0  0  0  0  0  0  0  0  0  0  0  0
    1.8461   -4.4028    0.0431 O   0  0  0  0  0  0  0  0  0  0  0  0
    0.7231   -3.2858    3.0506 C   0  0  0  0  0  0  0  0  0  0  0  0
    0.4032   -2.5772    0.1281 H   0  0  0  0  0  0  0  0  0  0  0  0
    2.4210   -2.2357    2.2347 H   0  0  0  0  0  0  0  0  0  0  0  0
   -0.0965   -3.9264    2.7092 H   0  0  0  0  0  0  0  0  0  0  0  0
    1.3153   -3.8382    3.7861 H   0  0  0  0  0  0  0  0  0  0  0  0
    0.2959   -2.4070    3.5443 H   0  0  0  0  0  0  0  0  0  0  0  0
    3.2074   -4.8232    1.7911 N   0  0  0  0  0  0  0  0  0  0  0  0
    3.8193   -6.0057    1.1963 C   0  0  0  0  0  0  0  0  0  0  0  0
    3.4933   -4.5370    2.7232 H   0  0  0  0  0  0  0  0  0  0  0  0
    3.0789   -6.8052    1.0864 H   0  0  0  0  0  0  0  0  0  0  0  0
    4.2330   -5.7705    0.2097 H   0  0  0  0  0  0  0  0  0  0  0  0
    4.6325   -6.3710    1.8312 H   0  0  0  0  0  0  0  0  0  0  0  0
  1  2  2  0  0  0  0
  1  3  1  0  0  0  0
  1  7  1  0  0  0  0
  3  4  1  0  0  0  0
  3  5  1  0  0  0  0
  3  6  1  0  0  0  0
  7  8  1  0  0  0  0
  7 12  1  0  0  0  0
  8  9  1  0  0  0  0
  8 11  1  0  0  0  0
  8 13  1  0  0  0  0
  9 10  2  0  0  0  0
  9 17  1  0  0  0  0
 11 14  1  0  0  0  0
 11 15  1  0  0  0  0
 11 16  1  0  0  0  0
 17 18  1  0  0  0  0
 17 21  1  0  0  0  0
 18 19  1  0  0  0  0
 18 22  1  0  0  0  0
 18 23  1  0  0  0  0
 19 20  2  0  0  0  0
 19 24  1  0  0  0  0
 24 25  1  0  0  0  0
 24 29  1  0  0  0  0
 25 26  1  0  0  0  0
 25 28  1  0  0  0  0
 25 30  1  0  0  0  0
 26 27  2  0  0  0  0
 26 34  1  0  0  0  0
 28 31  1  0  0  0  0
 28 32  1  0  0  0  0
 28 33  1  0  0  0  0
 34 35  1  0  0  0  0
 34 36  1  0  0  0  0
 35 37  1  0  0  0  0
 35 38  1  0  0  0  0
 35 39  1  0  0  0  0
M  END
$$$$

  -OEChem-05262216283D

 39 38  0     1  0  0  0  0  0999 V2000
   -5.0490   -2.4625   -2.4643 C   0  0  0  0  0  0  0  0  0  0  0  0
   -4.5735   -3.5777   -2.6071 O   0  0  0  0  0  0  0  0  0  0  0  0
   -6.5273   -2.3006   -2.1637 C   0  0  0  0  0  0  0  0  0  0  0  0
   -7.0070   -1.7154   -2.9519 H   0  0  0  0  0  0  0  0  0  0  0  0
   -7.0113   -3.2799   -2.1090 H   0  0  0  0  0  0  0  0  0  0  0  0
   -6.6593   -1.7885   -1.2075 H   0  0  0  0  0  0  0  0  0  0  0  0
   -4.2451   -1.3459   -2.5606 N   0  0  0  0  0  0  0  0  0  0  0  0
   -2.7771   -1.3896   -2.6142 C   0  0  2  0  0  0  0  0  0  0  0  0
   -2.1448   -0.4935   -1.5291 C   0  0  0  0  0  0  0  0  0  0  0  0
   -2.7822    0.4448   -1.0663 O   0  0  0  0  0  0  0  0  0  0  0  0
   -2.3417   -0.9362   -4.0094 C   0  0  0  0  0  0  0  0  0  0  0  0
   -4.6589   -0.4651   -2.2580 H   0  0  0  0  0  0  0  0  0  0  0  0
   -2.4173   -2.4097   -2.4447 H   0  0  0  0  0  0  0  0  0  0  0  0
   -2.6796    0.0869   -4.2034 H   0  0  0  0  0  0  0  0  0  0  0  0
   -1.2517   -0.9663   -4.0998 H   0  0  0  0  0  0  0  0  0  0  0  0
   -2.7700   -1.5952   -4.7712 H   0  0  0  0  0  0  0  0  0  0  0  0
   -0.8549   -0.7363   -1.0891 N   0  0  0  0  0  0  0  0  0  0  0  0
   -0.1378    0.1013   -0.1039 C   0  0  0  0  0  0  0  0  0  0  0  0
    0.6009   -0.6929    0.9830 C   0  0  0  0  0  0  0  0  0  0  0  0
    0.8309   -0.1745    2.0654 O   0  0  0  0  0  0  0  0  0  0  0  0
   -0.3545   -1.4897   -1.5519 H   0  0  0  0  0  0  0  0  0  0  0  0
   -0.8340    0.7737    0.4087 H   0  0  0  0  0  0  0  0  0  0  0  0
    0.5905    0.7268   -0.6271 H   0  0  0  0  0  0  0  0  0  0  0  0
    1.1051   -1.9541    0.7270 N   0  0  0  0  0  0  0  0  0  0  0  0
    1.9641   -2.7168    1.6404 C   0  0  2  0  0  0  0  0  0  0  0  0
    2.8389   -3.7211    0.8600 C   0  0  0  0  0  0  0  0  0  0  0  0
    2.6378   -3.9053   -0.3371 O   0  0  0  0  0  0  0  0  0  0  0  0
    1.0765   -3.4444    2.6561 C   0  0  0  0  0  0  0  0  0  0  0  0
    1.0308   -2.3128   -0.2220 H   0  0  0  0  0  0  0  0  0  0  0  0
    2.6368   -2.0336    2.1701 H   0  0  0  0  0  0  0  0  0  0  0  0
    0.3958   -4.1331    2.1452 H   0  0  0  0  0  0  0  0  0  0  0  0
    1.6869   -4.0152    3.3620 H   0  0  0  0  0  0  0  0  0  0  0  0
    0.4802   -2.7234    3.2244 H   0  0  0  0  0  0  0  0  0  0  0  0
    3.8624   -4.4047    1.4895 N   0  0  0  0  0  0  0  0  0  0  0  0
    4.7125   -5.3746    0.8101 C   0  0  0  0  0  0  0  0  0  0  0  0
    4.0092   -4.2283    2.4793 H   0  0  0  0  0  0  0  0  0  0  0  0
    5.4527   -5.7809    1.5061 H   0  0  0  0  0  0  0  0  0  0  0  0
    4.1120   -6.2035    0.4203 H   0  0  0  0  0  0  0  0  0  0  0  0
    5.2437   -4.9019   -0.0227 H   0  0  0  0  0  0  0  0  0  0  0  0
  1  2  2  0  0  0  0
  1  3  1  0  0  0  0
  1  7  1  0  0  0  0
  3  4  1  0  0  0  0
  3  5  1  0  0  0  0
  3  6  1  0  0  0  0
  7  8  1  0  0  0  0
  7 12  1  0  0  0  0
  8  9  1  0  0  0  0
  8 11  1  0  0  0  0
  8 13  1  0  0  0  0
  9 10  2  0  0  0  0
  9 17  1  0  0  0  0
 11 14  1  0  0  0  0
 11 15  1  0  0  0  0
 11 16  1  0  0  0  0
 17 18  1  0  0  0  0
 17 21  1  0  0  0  0
 18 19  1  0  0  0  0
 18 22  1  0  0  0  0
 18 23  1  0  0  0  0
 19 20  2  0  0  0  0
 19 24  1  0  0  0  0
 24 25  1  0  0  0  0
 24 29  1  0  0  0  0
 25 26  1  0  0  0  0
 25 28  1  0  0  0  0
 25 30  1  0  0  0  0
 26 27  2  0  0  0  0
 26 34  1  0  0  0  0
 28 31  1  0  0  0  0
 28 32  1  0  0  0  0
 28 33  1  0  0  0  0
 34 35  1  0  0  0  0
 34 36  1  0  0  0  0
 35 37  1  0  0  0  0
 35 38  1  0  0  0  0
 35 39  1  0  0  0  0
M  END
$$$$

  -OEChem-05262216283D

 39 38  0     1  0  0  0  0  0999 V2000
   -3.1886   -3.6203   -2.4184 C   0  0  0  0  0  0  0  0  0  0  0  0
   -2.2696   -4.4108   -2.2682 O   0  0  0  0  0  0  0  0  0  0  0  0
   -4.6213   -4.1189   -2.4005 C   0  0  0  0  0  0  0  0  0  0  0  0
   -5.1222   -3.8495   -3.3337 H   0  0  0  0  0  0  0  0  0  0  0  0
   -4.6412   -5.2068   -2.2910 H   0  0  0  0  0  0  0  0  0  0  0  0
   -5.1608   -3.6706   -1.5624 H   0  0  0  0  0  0  0  0  0  0  0  0
   -2.9441   -2.2727   -2.5851 N   0  0  0  0  0  0  0  0  0  0  0  0
   -1.6402   -1.6406   -2.3328 C   0  0  2  0  0  0  0  0  0  0  0  0
   -1.7107   -0.6418   -1.1569 C   0  0  0  0  0  0  0  0  0  0  0  0
   -2.7965   -0.2264   -0.7649 O   0  0  0  0  0  0  0  0  0  0  0  0
   -1.2008   -0.9364   -3.6171 C   0  0  0  0  0  0  0  0  0  0  0  0
   -3.7563   -1.6665   -2.4864 H   0  0  0  0  0  0  0  0  0  0  0  0
   -0.8890   -2.3953   -2.0786 H   0  0  0  0  0  0  0  0  0  0  0  0
   -1.9100   -0.1470   -3.8856 H   0  0  0  0  0  0  0  0  0  0  0  0
   -0.2105   -0.4889   -3.4869 H   0  0  0  0  0  0  0  0  0  0  0  0
   -1.1483   -1.6555   -4.4407 H   0  0  0  0  0  0  0  0  0  0  0  0
   -0.5544   -0.2241   -0.5249 N   0  0  0  0  0  0  0  0  0  0  0  0
   -0.5688    0.2479    0.8760 C   0  0  0  0  0  0  0  0  0  0  0  0
    0.5893   -0.3555    1.6798 C   0  0  0  0  0  0  0  0  0  0  0  0
    0.3340   -1.1085    2.6063 O   0  0  0  0  0  0  0  0  0  0  0  0
    0.2687   -0.7580   -0.8227 H   0  0  0  0  0  0  0  0  0  0  0  0
   -1.5050   -0.0275    1.3745 H   0  0  0  0  0  0  0  0  0  0  0  0
   -0.4928    1.3383    0.8999 H   0  0  0  0  0  0  0  0  0  0  0  0
    1.8476   -0.3671    1.0964 N   0  0  0  0  0  0  0  0  0  0  0  0
    2.6509   -1.5968    0.9638 C   0  0  2  0  0  0  0  0  0  0  0  0
    1.8996   -2.5939    0.0522 C   0  0  0  0  0  0  0  0  0  0  0  0
    1.5257   -2.1828   -1.0436 O   0  0  0  0  0  0  0  0  0  0  0  0
    3.1089   -2.1833    2.3109 C   0  0  0  0  0  0  0  0  0  0  0  0
    1.9103    0.2595    0.2978 H   0  0  0  0  0  0  0  0  0  0  0  0
    3.5669   -1.3285    0.4283 H   0  0  0  0  0  0  0  0  0  0  0  0
    2.2797   -2.6322    2.8644 H   0  0  0  0  0  0  0  0  0  0  0  0
    3.8646   -2.9572    2.1447 H   0  0  0  0  0  0  0  0  0  0  0  0
    3.5506   -1.3970    2.9307 H   0  0  0  0  0  0  0  0  0  0  0  0
    1.4994   -3.8440    0.4835 N   0  0  0  0  0  0  0  0  0  0  0  0
    0.5263   -4.6517   -0.2466 C   0  0  0  0  0  0  0  0  0  0  0  0
    1.6289   -4.0368    1.4734 H   0  0  0  0  0  0  0  0  0  0  0  0
   -0.4637   -4.1858   -0.2043 H   0  0  0  0  0  0  0  0  0  0  0  0
    0.8182   -4.7621   -1.2967 H   0  0  0  0  0  0  0  0  0  0  0  0
    0.4576   -5.6509    0.1944 H   0  0  0  0  0  0  0  0  0  0  0  0
  1  2  2  0  0  0  0
  1  3  1  0  0  0  0
  1  7  1  0  0  0  0
  3  4  1  0  0  0  0
  3  5  1  0  0  0  0
  3  6  1  0  0  0  0
  7  8  1  0  0  0  0
  7 12  1  0  0  0  0
  8  9  1  0  0  0  0
  8 11  1  0  0  0  0
  8 13  1  0  0  0  0
  9 10  2  0  0  0  0
  9 17  1  0  0  0  0
 11 14  1  0  0  0  0
 11 15  1  0  0  0  0
 11 16  1  0  0  0  0
 17 18  1  0  0  0  0
 17 21  1  0  0  0  0
 18 19  1  0  0  0  0
 18 22  1  0  0  0  0
 18 23  1  0  0  0  0
 19 20  2  0  0  0  0
 19 24  1  0  0  0  0
 24 25  1  0  0  0  0
 24 29  1  0  0  0  0
 25 26  1  0  0  0  0
 25 28  1  0  0  0  0
 25 30  1  0  0  0  0
 26 27  2  0  0  0  0
 26 34  1  0  0  0  0
 28 31  1  0  0  0  0
 28 32  1  0  0  0  0
 28 33  1  0  0  0  0
 34 35  1  0  0  0  0
 34 36  1  0  0  0  0
 35 37  1  0  0  0  0
 35 38  1  0  0  0  0
 35 39  1  0  0  0  0
M  END
$$$$

  -OEChem-05262216283D

 39 38  0     1  0  0  0  0  0999 V2000
   -3.3230   -3.4433   -2.8453 C   0  0  0  0  0  0  0  0  0  0  0  0
   -2.3999   -4.1937   -3.1211 O   0  0  0  0  0  0  0  0  0  0  0  0
   -4.7550   -3.9379   -2.9285 C   0  0  0  0  0  0  0  0  0  0  0  0
   -5.3305   -3.3014   -3.6049 H   0  0  0  0  0  0  0  0  0  0  0  0
   -4.7788   -4.9641   -3.3054 H   0  0  0  0  0  0  0  0  0  0  0  0
   -5.2158   -3.9148   -1.9379 H   0  0  0  0  0  0  0  0  0  0  0  0
   -3.0726   -2.1478   -2.4463 N   0  0  0  0  0  0  0  0  0  0  0  0
   -1.7361   -1.6180   -2.1451 C   0  0  2  0  0  0  0  0  0  0  0  0
   -1.7858   -0.5915   -0.9930 C   0  0  0  0  0  0  0  0  0  0  0  0
   -2.8630   -0.1873   -0.5661 O   0  0  0  0  0  0  0  0  0  0  0  0
   -1.1598   -0.9889   -3.4164 C   0  0  0  0  0  0  0  0  0  0  0  0
   -3.8613   -1.6168   -2.0785 H   0  0  0  0  0  0  0  0  0  0  0  0
   -1.0768   -2.4318   -1.8226 H   0  0  0  0  0  0  0  0  0  0  0  0
   -1.7814   -0.1505   -3.7460 H   0  0  0  0  0  0  0  0  0  0  0  0
   -0.1437   -0.6237   -3.2372 H   0  0  0  0  0  0  0  0  0  0  0  0
   -1.1192   -1.7320   -4.2192 H   0  0  0  0  0  0  0  0  0  0  0  0
   -0.6143   -0.1685   -0.3978 N   0  0  0  0  0  0  0  0  0  0  0  0
   -0.5682    0.3786    0.9710 C   0  0  0  0  0  0  0  0  0  0  0  0
    0.6065   -0.2387    1.7341 C   0  0  0  0  0  0  0  0  0  0  0  0
    0.3950   -1.1375    2.5337 O   0  0  0  0  0  0  0  0  0  0  0  0
    0.2148   -0.6802   -0.7195 H   0  0  0  0  0  0  0  0  0  0  0  0
   -1.4898    0.1551    1.5197 H   0  0  0  0  0  0  0  0  0  0  0  0
   -0.4560    1.4656    0.9394 H   0  0  0  0  0  0  0  0  0  0  0  0
    1.8787   -0.0387    1.2205 N   0  0  0  0  0  0  0  0  0  0  0  0
    2.8359   -1.1475    1.0485 C   0  0  2  0  0  0  0  0  0  0  0  0
    2.2393   -2.2289    0.1124 C   0  0  0  0  0  0  0  0  0  0  0  0
    1.6817   -1.8601   -0.9195 O   0  0  0  0  0  0  0  0  0  0  0  0
    3.3571   -1.6883    2.3921 C   0  0  0  0  0  0  0  0  0  0  0  0
    1.8956    0.6543    0.4766 H   0  0  0  0  0  0  0  0  0  0  0  0
    3.7081   -0.7446    0.5243 H   0  0  0  0  0  0  0  0  0  0  0  0
    2.5903   -2.2577    2.9248 H   0  0  0  0  0  0  0  0  0  0  0  0
    4.2165   -2.3451    2.2268 H   0  0  0  0  0  0  0  0  0  0  0  0
    3.6756   -0.8593    3.0315 H   0  0  0  0  0  0  0  0  0  0  0  0
    2.2596   -3.5754    0.4222 N   0  0  0  0  0  0  0  0  0  0  0  0
    1.5382   -4.5753   -0.3583 C   0  0  0  0  0  0  0  0  0  0  0  0
    2.5528   -3.8190    1.3644 H   0  0  0  0  0  0  0  0  0  0  0  0
    0.4629   -4.3658   -0.3529 H   0  0  0  0  0  0  0  0  0  0  0  0
    1.8901   -4.5818   -1.3955 H   0  0  0  0  0  0  0  0  0  0  0  0
    1.6986   -5.5717    0.0646 H   0  0  0  0  0  0  0  0  0  0  0  0
  1  2  2  0  0  0  0
  1  3  1  0  0  0  0
  1  7  1  0  0  0  0
  3  4  1  0  0  0  0
  3  5  1  0  0  0  0
  3  6  1  0  0  0  0
  7  8  1  0  0  0  0
  7 12  1  0  0  0  0
  8  9  1  0  0  0  0
  8 11  1  0  0  0  0
  8 13  1  0  0  0  0
  9 10  2  0  0  0  0
  9 17  1  0  0  0  0
 11 14  1  0  0  0  0
 11 15  1  0  0  0  0
 11 16  1  0  0  0  0
 17 18  1  0  0  0  0
 17 21  1  0  0  0  0
 18 19  1  0  0  0  0
 18 22  1  0  0  0  0
 18 23  1  0  0  0  0
 19 20  2  0  0  0  0
 19 24  1  0  0  0  0
 24 25  1  0  0  0  0
 24 29  1  0  0  0  0
 25 26  1  0  0  0  0
 25 28  1  0  0  0  0
 25 30  1  0  0  0  0
 26 27  2  0  0  0  0
 26 34  1  0  0  0  0
 28 31  1  0  0  0  0
 28 32  1  0  0  0  0
 28 33  1  0  0  0  0
 34 35  1  0  0  0  0
 34 36  1  0  0  0  0
 35 37  1  0  0  0  0
 35 38  1  0  0  0  0
 35 39  1  0  0  0  0
M  END
$$$$

  -OEChem-05262216283D

 39 38  0     1  0  0  0  0  0999 V2000
   -3.3530   -3.3291   -2.9332 C   0  0  0  0  0  0  0  0  0  0  0  0
   -2.4393   -4.0928   -3.2029 O   0  0  0  0  0  0  0  0  0  0  0  0
   -4.7923   -3.7867   -3.0745 C   0  0  0  0  0  0  0  0  0  0  0  0
   -5.3022   -3.1849   -3.8306 H   0  0  0  0  0  0  0  0  0  0  0  0
   -4.8263   -4.8370   -3.3766 H   0  0  0  0  0  0  0  0  0  0  0  0
   -5.3127   -3.6780   -2.1199 H   0  0  0  0  0  0  0  0  0  0  0  0
   -3.0854   -2.0521   -2.4896 N   0  0  0  0  0  0  0  0  0  0  0  0
   -1.7479   -1.5726   -2.1175 C   0  0  2  0  0  0  0  0  0  0  0  0
   -1.8142   -0.5738   -0.9424 C   0  0  0  0  0  0  0  0  0  0  0  0
   -2.8969   -0.1695   -0.5294 O   0  0  0  0  0  0  0  0  0  0  0  0
   -1.1001   -0.9309   -3.3477 C   0  0  0  0  0  0  0  0  0  0  0  0
   -3.8735   -1.5136   -2.1315 H   0  0  0  0  0  0  0  0  0  0  0  0
   -1.1285   -2.4143   -1.7876 H   0  0  0  0  0  0  0  0  0  0  0  0
   -1.6835   -0.0671   -3.6817 H   0  0  0  0  0  0  0  0  0  0  0  0
   -0.0829   -0.5995   -3.1168 H   0  0  0  0  0  0  0  0  0  0  0  0
   -1.0467   -1.6549   -4.1670 H   0  0  0  0  0  0  0  0  0  0  0  0
   -0.6511   -0.1507   -0.3314 N   0  0  0  0  0  0  0  0  0  0  0  0
   -0.6098    0.4491    1.0132 C   0  0  0  0  0  0  0  0  0  0  0  0
    0.5413   -0.1745    1.8042 C   0  0  0  0  0  0  0  0  0  0  0  0
    0.3501   -1.1949    2.4490 O   0  0  0  0  0  0  0  0  0  0  0  0
    0.1978   -0.6335   -0.6481 H   0  0  0  0  0  0  0  0  0  0  0  0
   -1.5404    0.2635    1.5603 H   0  0  0  0  0  0  0  0  0  0  0  0
   -0.4747    1.5316    0.9436 H   0  0  0  0  0  0  0  0  0  0  0  0
    1.8288    0.2266    1.4846 N   0  0  0  0  0  0  0  0  0  0  0  0
    2.9169   -0.7545    1.3116 C   0  0  2  0  0  0  0  0  0  0  0  0
    2.5414   -1.8284    0.2551 C   0  0  0  0  0  0  0  0  0  0  0  0
    1.9132   -1.4833   -0.7448 O   0  0  0  0  0  0  0  0  0  0  0  0
    3.3771   -1.3353    2.6599 C   0  0  0  0  0  0  0  0  0  0  0  0
    1.8479    1.0033    0.8291 H   0  0  0  0  0  0  0  0  0  0  0  0
    3.7761   -0.2169    0.8997 H   0  0  0  0  0  0  0  0  0  0  0  0
    2.6382   -2.0288    3.0720 H   0  0  0  0  0  0  0  0  0  0  0  0
    4.3220   -1.8733    2.5386 H   0  0  0  0  0  0  0  0  0  0  0  0
    3.5326   -0.5281    3.3824 H   0  0  0  0  0  0  0  0  0  0  0  0
    2.9017   -3.1558    0.3948 N   0  0  0  0  0  0  0  0  0  0  0  0
    2.4489   -4.1984   -0.5200 C   0  0  0  0  0  0  0  0  0  0  0  0
    3.2720   -3.4338    1.2992 H   0  0  0  0  0  0  0  0  0  0  0  0
    1.3607   -4.3097   -0.4665 H   0  0  0  0  0  0  0  0  0  0  0  0
    2.7271   -3.9546   -1.5508 H   0  0  0  0  0  0  0  0  0  0  0  0
    2.9090   -5.1563   -0.2594 H   0  0  0  0  0  0  0  0  0  0  0  0
  1  2  2  0  0  0  0
  1  3  1  0  0  0  0
  1  7  1  0  0  0  0
  3  4  1  0  0  0  0
  3  5  1  0  0  0  0
  3  6  1  0  0  0  0
  7  8  1  0  0  0  0
  7 12  1  0  0  0  0
  8  9  1  0  0  0  0
  8 11  1  0  0  0  0
  8 13  1  0  0  0  0
  9 10  2  0  0  0  0
  9 17  1  0  0  0  0
 11 14  1  0  0  0  0
 11 15  1  0  0  0  0
 11 16  1  0  0  0  0
 17 18  1  0  0  0  0
 17 21  1  0  0  0  0
 18 19  1  0  0  0  0
 18 22  1  0  0  0  0
 18 23  1  0  0  0  0
 19 20  2  0  0  0  0
 19 24  1  0  0  0  0
 24 25  1  0  0  0  0
 24 29  1  0  0  0  0
 25 26  1  0  0  0  0
 25 28  1  0  0  0  0
 25 30  1  0  0  0  0
 26 27  2  0  0  0  0
 26 34  1  0  0  0  0
 28 31  1  0  0  0  0
 28 32  1  0  0  0  0
 28 33  1  0  0  0  0
 34 35  1  0  0  0  0
 34 36  1  0  0  0  0
 35 37  1  0  0  0  0
 35 38  1  0  0  0  0
 35 39  1  0  0  0  0
M  END
$$$$

  -OEChem-05262216283D

 39 38  0     1  0  0  0  0  0999 V2000
   -3.3374   -3.2865   -3.0388 C   0  0  0  0  0  0  0  0  0  0  0  0
   -2.4052   -3.9780   -3.4181 O   0  0  0  0  0  0  0  0  0  0  0  0
   -4.7654   -3.7551   -3.2490 C   0  0  0  0  0  0  0  0  0  0  0  0
   -5.3077   -3.0341   -3.8659 H   0  0  0  0  0  0  0  0  0  0  0  0
   -4.7735   -4.7262   -3.7524 H   0  0  0  0  0  0  0  0  0  0  0  0
   -5.2716   -3.8539   -2.2854 H   0  0  0  0  0  0  0  0  0  0  0  0
   -3.0989   -2.0814   -2.4133 N   0  0  0  0  0  0  0  0  0  0  0  0
   -1.7705   -1.6056   -2.0048 C   0  0  2  0  0  0  0  0  0  0  0  0
   -1.8593   -0.6738   -0.7765 C   0  0  0  0  0  0  0  0  0  0  0  0
   -2.9519   -0.3480   -0.3219 O   0  0  0  0  0  0  0  0  0  0  0  0
   -1.1201   -0.8842   -3.1903 C   0  0  0  0  0  0  0  0  0  0  0  0
   -3.8983   -1.6095   -1.9916 H   0  0  0  0  0  0  0  0  0  0  0  0
   -1.1458   -2.4591   -1.7184 H   0  0  0  0  0  0  0  0  0  0  0  0
   -1.7161   -0.0138   -3.4822 H   0  0  0  0  0  0  0  0  0  0  0  0
   -0.1116   -0.5477   -2.9301 H   0  0  0  0  0  0  0  0  0  0  0  0
   -1.0436   -1.5588   -4.0489 H   0  0  0  0  0  0  0  0  0  0  0  0
   -0.7083   -0.2005   -0.1794 N   0  0  0  0  0  0  0  0  0  0  0  0
   -0.6633    0.4335    1.1479 C   0  0  0  0  0  0  0  0  0  0  0  0
    0.5156   -0.1431    1.9332 C   0  0  0  0  0  0  0  0  0  0  0  0
    0.4450   -1.2745    2.3926 O   0  0  0  0  0  0  0  0  0  0  0  0
    0.1730   -0.5822   -0.5408 H   0  0  0  0  0  0  0  0  0  0  0  0
   -1.5792    0.2357    1.7147 H   0  0  0  0  0  0  0  0  0  0  0  0
   -0.5614    1.5173    1.0484 H   0  0  0  0  0  0  0  0  0  0  0  0
    1.7416    0.4922    1.8175 N   0  0  0  0  0  0  0  0  0  0  0  0
    2.9705   -0.2914    1.5887 C   0  0  2  0  0  0  0  0  0  0  0  0
    2.8008   -1.2898    0.4093 C   0  0  0  0  0  0  0  0  0  0  0  0
    2.1546   -0.9474   -0.5805 O   0  0  0  0  0  0  0  0  0  0  0  0
    3.4584   -0.9459    2.8925 C   0  0  0  0  0  0  0  0  0  0  0  0
    1.6879    1.3630    1.2967 H   0  0  0  0  0  0  0  0  0  0  0  0
    3.7531    0.4078    1.2793 H   0  0  0  0  0  0  0  0  0  0  0  0
    2.7982   -1.7613    3.2023 H   0  0  0  0  0  0  0  0  0  0  0  0
    4.4667   -1.3499    2.7609 H   0  0  0  0  0  0  0  0  0  0  0  0
    3.4890   -0.2040    3.6963 H   0  0  0  0  0  0  0  0  0  0  0  0
    3.3546   -2.5566    0.4421 N   0  0  0  0  0  0  0  0  0  0  0  0
    3.0869   -3.5627   -0.5793 C   0  0  0  0  0  0  0  0  0  0  0  0
    3.7204   -2.8666    1.3379 H   0  0  0  0  0  0  0  0  0  0  0  0
    3.3750   -3.1930   -1.5693 H   0  0  0  0  0  0  0  0  0  0  0  0
    3.6599   -4.4721   -0.3733 H   0  0  0  0  0  0  0  0  0  0  0  0
    2.0222   -3.8193   -0.5943 H   0  0  0  0  0  0  0  0  0  0  0  0
  1  2  2  0  0  0  0
  1  3  1  0  0  0  0
  1  7  1  0  0  0  0
  3  4  1  0  0  0  0
  3  5  1  0  0  0  0
  3  6  1  0  0  0  0
  7  8  1  0  0  0  0
  7 12  1  0  0  0  0
  8  9  1  0  0  0  0
  8 11  1  0  0  0  0
  8 13  1  0  0  0  0
  9 10  2  0  0  0  0
  9 17  1  0  0  0  0
 11 14  1  0  0  0  0
 11 15  1  0  0  0  0
 11 16  1  0  0  0  0
 17 18  1  0  0  0  0
 17 21  1  0  0  0  0
 18 19  1  0  0  0  0
 18 22  1  0  0  0  0
 18 23  1  0  0  0  0
 19 20  2  0  0  0  0
 19 24  1  0  0  0  0
 24 25  1  0  0  0  0
 24 29  1  0  0  0  0
 25 26  1  0  0  0  0
 25 28  1  0  0  0  0
 25 30  1  0  0  0  0
 26 27  2  0  0  0  0
 26 34  1  0  0  0  0
 28 31  1  0  0  0  0
 28 32  1  0  0  0  0
 28 33  1  0  0  0  0
 34 35  1  0  0  0  0
 34 36  1  0  0  0  0
 35 37  1  0  0  0  0
 35 38  1  0  0  0  0
 35 39  1  0  0  0  0
M  END
$$$$

  -OEChem-05262216283D

 39 38  0     1  0  0  0  0  0999 V2000
   -3.2856   -3.2184   -3.0251 C   0  0  0  0  0  0  0  0  0  0  0  0
   -2.3357   -3.8849   -3.4051 O   0  0  0  0  0  0  0  0  0  0  0  0
   -4.7004   -3.7261   -3.2299 C   0  0  0  0  0  0  0  0  0  0  0  0
   -5.2487   -3.0451   -3.8854 H   0  0  0  0  0  0  0  0  0  0  0  0
   -4.6818   -4.7190   -3.6881 H   0  0  0  0  0  0  0  0  0  0  0  0
   -5.2171   -3.7915   -2.2691 H   0  0  0  0  0  0  0  0  0  0  0  0
   -3.0782   -2.0035   -2.4077 N   0  0  0  0  0  0  0  0  0  0  0  0
   -1.7607   -1.4861   -2.0165 C   0  0  2  0  0  0  0  0  0  0  0  0
   -1.8588   -0.5593   -0.7858 C   0  0  0  0  0  0  0  0  0  0  0  0
   -2.9543   -0.2000   -0.3647 O   0  0  0  0  0  0  0  0  0  0  0  0
   -1.1535   -0.7408   -3.2098 C   0  0  0  0  0  0  0  0  0  0  0  0
   -3.8887   -1.5446   -1.9931 H   0  0  0  0  0  0  0  0  0  0  0  0
   -1.1051   -2.3198   -1.7418 H   0  0  0  0  0  0  0  0  0  0  0  0
   -1.7893    0.1023   -3.4981 H   0  0  0  0  0  0  0  0  0  0  0  0
   -0.1586   -0.3595   -2.9599 H   0  0  0  0  0  0  0  0  0  0  0  0
   -1.0565   -1.4140   -4.0674 H   0  0  0  0  0  0  0  0  0  0  0  0
   -0.7117   -0.1320   -0.1482 N   0  0  0  0  0  0  0  0  0  0  0  0
   -0.6817    0.5381    1.1604 C   0  0  0  0  0  0  0  0  0  0  0  0
    0.4279   -0.0778    2.0157 C   0  0  0  0  0  0  0  0  0  0  0  0
    0.3857   -1.2676    2.2990 O   0  0  0  0  0  0  0  0  0  0  0  0
    0.1723   -0.5212   -0.4876 H   0  0  0  0  0  0  0  0  0  0  0  0
   -1.6293    0.4122    1.6938 H   0  0  0  0  0  0  0  0  0  0  0  0
   -0.5128    1.6098    1.0286 H   0  0  0  0  0  0  0  0  0  0  0  0
    1.5987    0.6407    2.1955 N   0  0  0  0  0  0  0  0  0  0  0  0
    2.9050   -0.0317    2.0540 C   0  0  2  0  0  0  0  0  0  0  0  0
    2.9844   -0.8755    0.7490 C   0  0  0  0  0  0  0  0  0  0  0  0
    2.4271   -0.4690   -0.2697 O   0  0  0  0  0  0  0  0  0  0  0  0
    3.2490   -0.8262    3.3258 C   0  0  0  0  0  0  0  0  0  0  0  0
    1.5552    1.5773    1.8043 H   0  0  0  0  0  0  0  0  0  0  0  0
    3.6668    0.7474    1.9548 H   0  0  0  0  0  0  0  0  0  0  0  0
    2.6168   -1.7135    3.4253 H   0  0  0  0  0  0  0  0  0  0  0  0
    4.2942   -1.1485    3.3026 H   0  0  0  0  0  0  0  0  0  0  0  0
    3.1035   -0.1997    4.2112 H   0  0  0  0  0  0  0  0  0  0  0  0
    3.6700   -2.0758    0.6984 N   0  0  0  0  0  0  0  0  0  0  0  0
    3.6327   -2.9578   -0.4627 C   0  0  0  0  0  0  0  0  0  0  0  0
    3.9697   -2.4639    1.5880 H   0  0  0  0  0  0  0  0  0  0  0  0
    2.6117   -3.3117   -0.6416 H   0  0  0  0  0  0  0  0  0  0  0  0
    3.9856   -2.4331   -1.3570 H   0  0  0  0  0  0  0  0  0  0  0  0
    4.2775   -3.8266   -0.2984 H   0  0  0  0  0  0  0  0  0  0  0  0
  1  2  2  0  0  0  0
  1  3  1  0  0  0  0
  1  7  1  0  0  0  0
  3  4  1  0  0  0  0
  3  5  1  0  0  0  0
  3  6  1  0  0  0  0
  7  8  1  0  0  0  0
  7 12  1  0  0  0  0
  8  9  1  0  0  0  0
  8 11  1  0  0  0  0
  8 13  1  0  0  0  0
  9 10  2  0  0  0  0
  9 17  1  0  0  0  0
 11 14  1  0  0  0  0
 11 15  1  0  0  0  0
 11 16  1  0  0  0  0
 17 18  1  0  0  0  0
 17 21  1  0  0  0  0
 18 19  1  0  0  0  0
 18 22  1  0  0  0  0
 18 23  1  0  0  0  0
 19 20  2  0  0  0  0
 19 24  1  0  0  0  0
 24 25  1  0  0  0  0
 24 29  1  0  0  0  0
 25 26  1  0  0  0  0
 25 28  1  0  0  0  0
 25 30  1  0  0  0  0
 26 27  2  0  0  0  0
 26 34  1  0  0  0  0
 28 31  1  0  0  0  0
 28 32  1  0  0  0  0
 28 33  1  0  0  0  0
 34 35  1  0  0  0  0
 34 36  1  0  0  0  0
 35 37  1  0  0  0  0
 35 38  1  0  0  0  0
 35 39  1  0  0  0  0
M  END
$$$$

  -OEChem-05262216283D

 39 38  0     1  0  0  0  0  0999 V2000
   -3.5273   -3.2010   -3.0541 C   0  0  0  0  0  0  0  0  0  0  0  0
   -2.5955   -3.7749   -3.5955 O   0  0  0  0  0  0  0  0  0  0  0  0
   -4.9163   -3.8116   -3.0809 C   0  0  0  0  0  0  0  0  0  0  0  0
   -5.6005   -3.1566   -3.6258 H   0  0  0  0  0  0  0  0  0  0  0  0
   -4.8903   -4.7860   -3.5772 H   0  0  0  0  0  0  0  0  0  0  0  0
   -5.2865   -3.9467   -2.0614 H   0  0  0  0  0  0  0  0  0  0  0  0
   -3.3164   -2.0004   -2.4095 N   0  0  0  0  0  0  0  0  0  0  0  0
   -1.9921   -1.4100   -2.1755 C   0  0  2  0  0  0  0  0  0  0  0  0
   -1.9558   -0.5904   -0.8678 C   0  0  0  0  0  0  0  0  0  0  0  0
   -2.9966   -0.3266   -0.2746 O   0  0  0  0  0  0  0  0  0  0  0  0
   -1.6335   -0.5285   -3.3763 C   0  0  0  0  0  0  0  0  0  0  0  0
   -4.0896   -1.6205   -1.8643 H   0  0  0  0  0  0  0  0  0  0  0  0
   -1.2472   -2.2075   -2.0790 H   0  0  0  0  0  0  0  0  0  0  0  0
   -2.3590    0.2841   -3.4847 H   0  0  0  0  0  0  0  0  0  0  0  0
   -0.6374   -0.0934   -3.2519 H   0  0  0  0  0  0  0  0  0  0  0  0
   -1.6351   -1.1225   -4.2958 H   0  0  0  0  0  0  0  0  0  0  0  0
   -0.7505   -0.1430   -0.3574 N   0  0  0  0  0  0  0  0  0  0  0  0
   -0.5974    0.3520    1.0218 C   0  0  0  0  0  0  0  0  0  0  0  0
    0.6541   -0.2165    1.7022 C   0  0  0  0  0  0  0  0  0  0  0  0
    0.8590   -1.4222    1.6634 O   0  0  0  0  0  0  0  0  0  0  0  0
    0.0787   -0.5318   -0.8019 H   0  0  0  0  0  0  0  0  0  0  0  0
   -1.4570    0.0715    1.6393 H   0  0  0  0  0  0  0  0  0  0  0  0
   -0.5466    1.4440    1.0087 H   0  0  0  0  0  0  0  0  0  0  0  0
    1.6406    0.6436    2.1568 N   0  0  0  0  0  0  0  0  0  0  0  0
    2.9644    0.2719    2.6996 C   0  0  2  0  0  0  0  0  0  0  0  0
    3.9285   -0.3570    1.6670 C   0  0  0  0  0  0  0  0  0  0  0  0
    4.9994    0.1877    1.4360 O   0  0  0  0  0  0  0  0  0  0  0  0
    2.8285   -0.6215    3.9411 C   0  0  0  0  0  0  0  0  0  0  0  0
    1.4448    1.6364    2.0603 H   0  0  0  0  0  0  0  0  0  0  0  0
    3.4431    1.1993    3.0311 H   0  0  0  0  0  0  0  0  0  0  0  0
    2.4373   -1.6095    3.6817 H   0  0  0  0  0  0  0  0  0  0  0  0
    3.8073   -0.7574    4.4123 H   0  0  0  0  0  0  0  0  0  0  0  0
    2.1551   -0.1606    4.6701 H   0  0  0  0  0  0  0  0  0  0  0  0
    3.5966   -1.5107    0.9858 N   0  0  0  0  0  0  0  0  0  0  0  0
    4.4469   -2.1444   -0.0117 C   0  0  0  0  0  0  0  0  0  0  0  0
    2.6635   -1.8900    1.1693 H   0  0  0  0  0  0  0  0  0  0  0  0
    4.6328   -1.4615   -0.8470 H   0  0  0  0  0  0  0  0  0  0  0  0
    5.4066   -2.4311    0.4305 H   0  0  0  0  0  0  0  0  0  0  0  0
    3.9632   -3.0453   -0.4010 H   0  0  0  0  0  0  0  0  0  0  0  0
  1  2  2  0  0  0  0
  1  3  1  0  0  0  0
  1  7  1  0  0  0  0
  3  4  1  0  0  0  0
  3  5  1  0  0  0  0
  3  6  1  0  0  0  0
  7  8  1  0  0  0  0
  7 12  1  0  0  0  0
  8  9  1  0  0  0  0
  8 11  1  0  0  0  0
  8 13  1  0  0  0  0
  9 10  2  0  0  0  0
  9 17  1  0  0  0  0
 11 14  1  0  0  0  0
 11 15  1  0  0  0  0
 11 16  1  0  0  0  0
 17 18  1  0  0  0  0
 17 21  1  0  0  0  0
 18 19  1  0  0  0  0
 18 22  1  0  0  0  0
 18 23  1  0  0  0  0
 19 20  2  0  0  0  0
 19 24  1  0  0  0  0
 24 25  1  0  0  0  0
 24 29  1  0  0  0  0
 25 26  1  0  0  0  0
 25 28  1  0  0  0  0
 25 30  1  0  0  0  0
 26 27  2  0  0  0  0
 26 34  1  0  0  0  0
 28 31  1  0  0  0  0
 28 32  1  0  0  0  0
 28 33  1  0  0  0  0
 34 35  1  0  0  0  0
 34 36  1  0  0  0  0
 35 37  1  0  0  0  0
 35 38  1  0  0  0  0
 35 39  1  0  0  0  0
M  END
$$$$

  -OEChem-05262216283D

 39 38  0     1  0  0  0  0  0999 V2000
   -3.5962   -3.1494   -3.0742 C   0  0  0  0  0  0  0  0  0  0  0  0
   -2.6833   -3.8192   -3.5307 O   0  0  0  0  0  0  0  0  0  0  0  0
   -5.0324   -3.6138   -3.2252 C   0  0  0  0  0  0  0  0  0  0  0  0
   -5.6088   -2.8693   -3.7798 H   0  0  0  0  0  0  0  0  0  0  0  0
   -5.0661   -4.5621   -3.7690 H   0  0  0  0  0  0  0  0  0  0  0  0
   -5.4845   -3.7557   -2.2405 H   0  0  0  0  0  0  0  0  0  0  0  0
   -3.3236   -1.9699   -2.4144 N   0  0  0  0  0  0  0  0  0  0  0  0
   -1.9723   -1.4993   -2.0827 C   0  0  2  0  0  0  0  0  0  0  0  0
   -1.9741   -0.6151   -0.8159 C   0  0  0  0  0  0  0  0  0  0  0  0
   -3.0333   -0.3113   -0.2764 O   0  0  0  0  0  0  0  0  0  0  0  0
   -1.4154   -0.7277   -3.2850 C   0  0  0  0  0  0  0  0  0  0  0  0
   -4.0975   -1.5151   -1.9307 H   0  0  0  0  0  0  0  0  0  0  0  0
   -1.3259   -2.3598   -1.8770 H   0  0  0  0  0  0  0  0  0  0  0  0
   -2.0412    0.1434   -3.5038 H   0  0  0  0  0  0  0  0  0  0  0  0
   -0.3957   -0.3846   -3.0853 H   0  0  0  0  0  0  0  0  0  0  0  0
   -1.3918   -1.3709   -4.1707 H   0  0  0  0  0  0  0  0  0  0  0  0
   -0.7853   -0.1521   -0.2815 N   0  0  0  0  0  0  0  0  0  0  0  0
   -0.6770    0.3920    1.0834 C   0  0  0  0  0  0  0  0  0  0  0  0
    0.5494   -0.1515    1.8305 C   0  0  0  0  0  0  0  0  0  0  0  0
    0.9205   -1.2989    1.6169 O   0  0  0  0  0  0  0  0  0  0  0  0
    0.0538   -0.5858   -0.6624 H   0  0  0  0  0  0  0  0  0  0  0  0
   -1.5602    0.1411    1.6799 H   0  0  0  0  0  0  0  0  0  0  0  0
   -0.6167    1.4823    1.0267 H   0  0  0  0  0  0  0  0  0  0  0  0
    1.3535    0.7140    2.5546 N   0  0  0  0  0  0  0  0  0  0  0  0
    2.6275    0.3914    3.2319 C   0  0  2  0  0  0  0  0  0  0  0  0
    3.8031    0.0787    2.2772 C   0  0  0  0  0  0  0  0  0  0  0  0
    4.8281    0.7431    2.3490 O   0  0  0  0  0  0  0  0  0  0  0  0
    2.4446   -0.7304    4.2646 C   0  0  0  0  0  0  0  0  0  0  0  0
    1.0376    1.6789    2.6042 H   0  0  0  0  0  0  0  0  0  0  0  0
    2.9235    1.2858    3.7900 H   0  0  0  0  0  0  0  0  0  0  0  0
    2.2480   -1.6911    3.7801 H   0  0  0  0  0  0  0  0  0  0  0  0
    3.3522   -0.8341    4.8673 H   0  0  0  0  0  0  0  0  0  0  0  0
    1.6102   -0.5009    4.9338 H   0  0  0  0  0  0  0  0  0  0  0  0
    3.7142   -0.9250    1.3337 N   0  0  0  0  0  0  0  0  0  0  0  0
    4.7788   -1.2680    0.4011 C   0  0  0  0  0  0  0  0  0  0  0  0
    2.8227   -1.4254    1.2902 H   0  0  0  0  0  0  0  0  0  0  0  0
    5.0344   -0.4062   -0.2239 H   0  0  0  0  0  0  0  0  0  0  0  0
    5.6740   -1.5882    0.9442 H   0  0  0  0  0  0  0  0  0  0  0  0
    4.4592   -2.0859   -0.2516 H   0  0  0  0  0  0  0  0  0  0  0  0
  1  2  2  0  0  0  0
  1  3  1  0  0  0  0
  1  7  1  0  0  0  0
  3  4  1  0  0  0  0
  3  5  1  0  0  0  0
  3  6  1  0  0  0  0
  7  8  1  0  0  0  0
  7 12  1  0  0  0  0
  8  9  1  0  0  0  0
  8 11  1  0  0  0  0
  8 13  1  0  0  0  0
  9 10  2  0  0  0  0
  9 17  1  0  0  0  0
 11 14  1  0  0  0  0
 11 15  1  0  0  0  0
 11 16  1  0  0  0  0
 17 18  1  0  0  0  0
 17 21  1  0  0  0  0
 18 19  1  0  0  0  0
 18 22  1  0  0  0  0
 18 23  1  0  0  0  0
 19 20  2  0  0  0  0
 19 24  1  0  0  0  0
 24 25  1  0  0  0  0
 24 29  1  0  0  0  0
 25 26  1  0  0  0  0
 25 28  1  0  0  0  0
 25 30  1  0  0  0  0
 26 27  2  0  0  0  0
 26 34  1  0  0  0  0
 28 31  1  0  0  0  0
 28 32  1  0  0  0  0
 28 33  1  0  0  0  0
 34 35  1  0  0  0  0
 34 36  1  0  0  0  0
 35 37  1  0  0  0  0
 35 38  1  0  0  0  0
 35 39  1  0  0  0  0
M  END
$$$$

  -OEChem-05262216283D

 39 38  0     1  0  0  0  0  0999 V2000
   -3.5589   -3.1293   -3.0520 C   0  0  0  0  0  0  0  0  0  0  0  0
   -2.6318   -3.7909   -3.4914 O   0  0  0  0  0  0  0  0  0  0  0  0
   -4.9856   -3.6240   -3.1975 C   0  0  0  0  0  0  0  0  0  0  0  0
   -5.5616   -2.9233   -3.8067 H   0  0  0  0  0  0  0  0  0  0  0  0
   -4.9976   -4.6048   -3.6812 H   0  0  0  0  0  0  0  0  0  0  0  0
   -5.4537   -3.7111   -2.2139 H   0  0  0  0  0  0  0  0  0  0  0  0
   -3.3116   -1.9305   -2.4182 N   0  0  0  0  0  0  0  0  0  0  0  0
   -1.9722   -1.4277   -2.0865 C   0  0  2  0  0  0  0  0  0  0  0  0
   -2.0007   -0.5325   -0.8288 C   0  0  0  0  0  0  0  0  0  0  0  0
   -3.0721   -0.2153   -0.3216 O   0  0  0  0  0  0  0  0  0  0  0  0
   -1.4301   -0.6522   -3.2923 C   0  0  0  0  0  0  0  0  0  0  0  0
   -4.0982   -1.4746   -1.9564 H   0  0  0  0  0  0  0  0  0  0  0  0
   -1.3072   -2.2713   -1.8702 H   0  0  0  0  0  0  0  0  0  0  0  0
   -2.0736    0.2043   -3.5170 H   0  0  0  0  0  0  0  0  0  0  0  0
   -0.4187   -0.2861   -3.0927 H   0  0  0  0  0  0  0  0  0  0  0  0
   -1.3919   -1.2997   -4.1742 H   0  0  0  0  0  0  0  0  0  0  0  0
   -0.8237   -0.0834   -0.2584 N   0  0  0  0  0  0  0  0  0  0  0  0
   -0.7551    0.4591    1.1090 C   0  0  0  0  0  0  0  0  0  0  0  0
    0.4384   -0.0948    1.9011 C   0  0  0  0  0  0  0  0  0  0  0  0
    0.9650   -1.1424    1.5445 O   0  0  0  0  0  0  0  0  0  0  0  0
    0.0227   -0.5364   -0.6015 H   0  0  0  0  0  0  0  0  0  0  0  0
   -1.6610    0.2172    1.6740 H   0  0  0  0  0  0  0  0  0  0  0  0
   -0.6798    1.5485    1.0545 H   0  0  0  0  0  0  0  0  0  0  0  0
    1.0286    0.6825    2.8843 N   0  0  0  0  0  0  0  0  0  0  0  0
    2.2090    0.3397    3.7066 C   0  0  2  0  0  0  0  0  0  0  0  0
    3.5480    0.3007    2.9343 C   0  0  0  0  0  0  0  0  0  0  0  0
    4.4807    0.9961    3.3134 O   0  0  0  0  0  0  0  0  0  0  0  0
    1.9877   -0.9665    4.4836 C   0  0  0  0  0  0  0  0  0  0  0  0
    0.5871    1.5799    3.0657 H   0  0  0  0  0  0  0  0  0  0  0  0
    2.3160    1.1341    4.4531 H   0  0  0  0  0  0  0  0  0  0  0  0
    1.9689   -1.8309    3.8133 H   0  0  0  0  0  0  0  0  0  0  0  0
    2.7976   -1.1143    5.2053 H   0  0  0  0  0  0  0  0  0  0  0  0
    1.0411   -0.9287    5.0307 H   0  0  0  0  0  0  0  0  0  0  0  0
    3.7118   -0.5022    1.8236 N   0  0  0  0  0  0  0  0  0  0  0  0
    4.9441   -0.5902    1.0527 C   0  0  0  0  0  0  0  0  0  0  0  0
    2.8906   -1.0362    1.5274 H   0  0  0  0  0  0  0  0  0  0  0  0
    5.1948    0.3832    0.6187 H   0  0  0  0  0  0  0  0  0  0  0  0
    5.7721   -0.9168    1.6907 H   0  0  0  0  0  0  0  0  0  0  0  0
    4.8292   -1.3134    0.2397 H   0  0  0  0  0  0  0  0  0  0  0  0
  1  2  2  0  0  0  0
  1  3  1  0  0  0  0
  1  7  1  0  0  0  0
  3  4  1  0  0  0  0
  3  5  1  0  0  0  0
  3  6  1  0  0  0  0
  7  8  1  0  0  0  0
  7 12  1  0  0  0  0
  8  9  1  0  0  0  0
  8 11  1  0  0  0  0
  8 13  1  0  0  0  0
  9 10  2  0  0  0  0
  9 17  1  0  0  0  0
 11 14  1  0  0  0  0
 11 15  1  0  0  0  0
 11 16  1  0  0  0  0
 17 18  1  0  0  0  0
 17 21  1  0  0  0  0
 18 19  1  0  0  0  0
 18 22  1  0  0  0  0
 18 23  1  0  0  0  0
 19 20  2  0  0  0  0
 19 24  1  0  0  0  0
 24 25  1  0  0  0  0
 24 29  1  0  0  0  0
 25 26  1  0  0  0  0
 25 28  1  0  0  0  0
 25 30  1  0  0  0  0
 26 27  2  0  0  0  0
 26 34  1  0  0  0  0
 28 31  1  0  0  0  0
 28 32  1  0  0  0  0
 28 33  1  0  0  0  0
 34 35  1  0  0  0  0
 34 36  1  0  0  0  0
 35 37  1  0  0  0  0
 35 38  1  0  0  0  0
 35 39  1  0  0  0  0
M  END
$$$$

  -OEChem-05262216283D

 39 38  0     1  0  0  0  0  0999 V2000
   -3.5564   -3.0935   -3.0996 C   0  0  0  0  0  0  0  0  0  0  0  0
   -2.6213   -3.7655   -3.5046 O   0  0  0  0  0  0  0  0  0  0  0  0
   -4.9829   -3.5568   -3.3259 C   0  0  0  0  0  0  0  0  0  0  0  0
   -5.5431   -2.7896   -3.8660 H   0  0  0  0  0  0  0  0  0  0  0  0
   -4.9908   -4.4784   -3.9146 H   0  0  0  0  0  0  0  0  0  0  0  0
   -5.4699   -3.7466   -2.3664 H   0  0  0  0  0  0  0  0  0  0  0  0
   -3.3178   -1.9125   -2.4300 N   0  0  0  0  0  0  0  0  0  0  0  0
   -1.9848   -1.4321   -2.0435 C   0  0  2  0  0  0  0  0  0  0  0  0
   -2.0455   -0.5377   -0.7863 C   0  0  0  0  0  0  0  0  0  0  0  0
   -3.1287   -0.2032   -0.3169 O   0  0  0  0  0  0  0  0  0  0  0  0
   -1.3806   -0.6640   -3.2247 C   0  0  0  0  0  0  0  0  0  0  0  0
   -4.1160   -1.4493   -1.9969 H   0  0  0  0  0  0  0  0  0  0  0  0
   -1.3434   -2.2874   -1.8040 H   0  0  0  0  0  0  0  0  0  0  0  0
   -1.9967    0.2066   -3.4705 H   0  0  0  0  0  0  0  0  0  0  0  0
   -0.3700   -0.3203   -2.9848 H   0  0  0  0  0  0  0  0  0  0  0  0
   -1.3211   -1.3087   -4.1073 H   0  0  0  0  0  0  0  0  0  0  0  0
   -0.8825   -0.1037   -0.1774 N   0  0  0  0  0  0  0  0  0  0  0  0
   -0.8456    0.4848    1.1718 C   0  0  0  0  0  0  0  0  0  0  0  0
    0.2974   -0.0769    2.0300 C   0  0  0  0  0  0  0  0  0  0  0  0
    0.9628   -1.0183    1.6128 O   0  0  0  0  0  0  0  0  0  0  0  0
   -0.0271   -0.5640   -0.4876 H   0  0  0  0  0  0  0  0  0  0  0  0
   -1.7812    0.2941    1.7069 H   0  0  0  0  0  0  0  0  0  0  0  0
   -0.7274    1.5683    1.0842 H   0  0  0  0  0  0  0  0  0  0  0  0
    0.6638    0.5791    3.1933 N   0  0  0  0  0  0  0  0  0  0  0  0
    1.7572    0.2125    4.1182 C   0  0  2  0  0  0  0  0  0  0  0  0
    3.1812    0.4080    3.5479 C   0  0  0  0  0  0  0  0  0  0  0  0
    3.9791    1.1110    4.1533 O   0  0  0  0  0  0  0  0  0  0  0  0
    1.5727   -1.2113    4.6631 C   0  0  0  0  0  0  0  0  0  0  0  0
    0.1067    1.3932    3.4388 H   0  0  0  0  0  0  0  0  0  0  0  0
    1.6834    0.8883    4.9764 H   0  0  0  0  0  0  0  0  0  0  0  0
    1.7376   -1.9618    3.8847 H   0  0  0  0  0  0  0  0  0  0  0  0
    2.2873   -1.3978    5.4709 H   0  0  0  0  0  0  0  0  0  0  0  0
    0.5616   -1.3388    5.0611 H   0  0  0  0  0  0  0  0  0  0  0  0
    3.5681   -0.1853    2.3630 N   0  0  0  0  0  0  0  0  0  0  0  0
    4.8846   -0.0255    1.7607 C   0  0  0  0  0  0  0  0  0  0  0  0
    2.8512   -0.7278    1.8745 H   0  0  0  0  0  0  0  0  0  0  0  0
    5.0639    1.0237    1.5043 H   0  0  0  0  0  0  0  0  0  0  0  0
    5.6654   -0.3582    2.4527 H   0  0  0  0  0  0  0  0  0  0  0  0
    4.9567   -0.6229    0.8466 H   0  0  0  0  0  0  0  0  0  0  0  0
  1  2  2  0  0  0  0
  1  3  1  0  0  0  0
  1  7  1  0  0  0  0
  3  4  1  0  0  0  0
  3  5  1  0  0  0  0
  3  6  1  0  0  0  0
  7  8  1  0  0  0  0
  7 12  1  0  0  0  0
  8  9  1  0  0  0  0
  8 11  1  0  0  0  0
  8 13  1  0  0  0  0
  9 10  2  0  0  0  0
  9 17  1  0  0  0  0
 11 14  1  0  0  0  0
 11 15  1  0  0  0  0
 11 16  1  0  0  0  0
 17 18  1  0  0  0  0
 17 21  1  0  0  0  0
 18 19  1  0  0  0  0
 18 22  1  0  0  0  0
 18 23  1  0  0  0  0
 19 20  2  0  0  0  0
 19 24  1  0  0  0  0
 24 25  1  0  0  0  0
 24 29  1  0  0  0  0
 25 26  1  0  0  0  0
 25 28  1  0  0  0  0
 25 30  1  0  0  0  0
 26 27  2  0  0  0  0
 26 34  1  0  0  0  0
 28 31  1  0  0  0  0
 28 32  1  0  0  0  0
 28 33  1  0  0  0  0
 34 35  1  0  0  0  0
 34 36  1  0  0  0  0
 35 37  1  0  0  0  0
 35 38  1  0  0  0  0
 35 39  1  0  0  0  0
M  END
$$$$

  -OEChem-05262216283D

 39 38  0     1  0  0  0  0  0999 V2000
   -4.2560   -2.9604   -2.4657 C   0  0  0  0  0  0  0  0  0  0  0  0
   -3.5356   -3.9286   -2.2832 O   0  0  0  0  0  0  0  0  0  0  0  0
   -5.7600   -3.0977   -2.3203 C   0  0  0  0  0  0  0  0  0  0  0  0
   -6.2535   -2.8081   -3.2512 H   0  0  0  0  0  0  0  0  0  0  0  0
   -6.0240   -4.1335   -2.0893 H   0  0  0  0  0  0  0  0  0  0  0  0
   -6.1159   -2.4548   -1.5116 H   0  0  0  0  0  0  0  0  0  0  0  0
   -3.7139   -1.7319   -2.7820 N   0  0  0  0  0  0  0  0  0  0  0  0
   -2.2817   -1.4200   -2.6635 C   0  0  2  0  0  0  0  0  0  0  0  0
   -2.0057   -0.4848   -1.4676 C   0  0  0  0  0  0  0  0  0  0  0  0
   -2.8722    0.2947   -1.0843 O   0  0  0  0  0  0  0  0  0  0  0  0
   -1.8387   -0.7613   -3.9722 C   0  0  0  0  0  0  0  0  0  0  0  0
   -4.3504   -0.9415   -2.7050 H   0  0  0  0  0  0  0  0  0  0  0  0
   -1.6946   -2.3330   -2.5179 H   0  0  0  0  0  0  0  0  0  0  0  0
   -2.3842    0.1739   -4.1351 H   0  0  0  0  0  0  0  0  0  0  0  0
   -0.7674   -0.5389   -3.9452 H   0  0  0  0  0  0  0  0  0  0  0  0
   -2.0318   -1.4297   -4.8173 H   0  0  0  0  0  0  0  0  0  0  0  0
   -0.7803   -0.4955   -0.8303 N   0  0  0  0  0  0  0  0  0  0  0  0
   -0.5175    0.1997    0.4389 C   0  0  0  0  0  0  0  0  0  0  0  0
    0.5599   -0.5010    1.2817 C   0  0  0  0  0  0  0  0  0  0  0  0
    1.0974   -1.5056    0.8325 O   0  0  0  0  0  0  0  0  0  0  0  0
   -0.1451   -1.2598   -1.0633 H   0  0  0  0  0  0  0  0  0  0  0  0
   -1.4315    0.2502    1.0389 H   0  0  0  0  0  0  0  0  0  0  0  0
   -0.1932    1.2235    0.2311 H   0  0  0  0  0  0  0  0  0  0  0  0
    0.9066    0.0486    2.5068 N   0  0  0  0  0  0  0  0  0  0  0  0
    2.0386   -0.2612    3.4121 C   0  0  2  0  0  0  0  0  0  0  0  0
    2.8943    1.0133    3.6229 C   0  0  0  0  0  0  0  0  0  0  0  0
    2.4008    2.1132    3.3957 O   0  0  0  0  0  0  0  0  0  0  0  0
    2.9196   -1.4589    3.0107 C   0  0  0  0  0  0  0  0  0  0  0  0
    0.4935    0.9660    2.6736 H   0  0  0  0  0  0  0  0  0  0  0  0
    1.6073   -0.5114    4.3862 H   0  0  0  0  0  0  0  0  0  0  0  0
    3.4280   -1.2642    2.0608 H   0  0  0  0  0  0  0  0  0  0  0  0
    3.6756   -1.6608    3.7746 H   0  0  0  0  0  0  0  0  0  0  0  0
    2.3099   -2.3620    2.9075 H   0  0  0  0  0  0  0  0  0  0  0  0
    4.1705    0.9572    4.1555 N   0  0  0  0  0  0  0  0  0  0  0  0
    4.9839    2.1391    4.4166 C   0  0  0  0  0  0  0  0  0  0  0  0
    4.5717    0.0385    4.3186 H   0  0  0  0  0  0  0  0  0  0  0  0
    5.1643    2.6938    3.4898 H   0  0  0  0  0  0  0  0  0  0  0  0
    4.4813    2.7999    5.1307 H   0  0  0  0  0  0  0  0  0  0  0  0
    5.9503    1.8475    4.8387 H   0  0  0  0  0  0  0  0  0  0  0  0
  1  2  2  0  0  0  0
  1  3  1  0  0  0  0
  1  7  1  0  0  0  0
  3  4  1  0  0  0  0
  3  5  1  0  0  0  0
  3  6  1  0  0  0  0
  7  8  1  0  0  0  0
  7 12  1  0  0  0  0
  8  9  1  0  0  0  0
  8 11  1  0  0  0  0
  8 13  1  0  0  0  0
  9 10  2  0  0  0  0
  9 17  1  0  0  0  0
 11 14  1  0  0  0  0
 11 15  1  0  0  0  0
 11 16  1  0  0  0  0
 17 18  1  0  0  0  0
 17 21  1  0  0  0  0
 18 19  1  0  0  0  0
 18 22  1  0  0  0  0
 18 23  1  0  0  0  0
 19 20  2  0  0  0  0
 19 24  1  0  0  0  0
 24 25  1  0  0  0  0
 24 29  1  0  0  0  0
 25 26  1  0  0  0  0
 25 28  1  0  0  0  0
 25 30  1  0  0  0  0
 26 27  2  0  0  0  0
 26 34  1  0  0  0  0
 28 31  1  0  0  0  0
 28 32  1  0  0  0  0
 28 33  1  0  0  0  0
 34 35  1  0  0  0  0
 34 36  1  0  0  0  0
 35 37  1  0  0  0  0
 35 38  1  0  0  0  0
 35 39  1  0  0  0  0
M  END
$$$$

  -OEChem-05262216283D

 39 38  0     1  0  0  0  0  0999 V2000
   -4.9280   -2.6654   -2.2559 C   0  0  0  0  0  0  0  0  0  0  0  0
   -4.5678   -3.8316   -2.2348 O   0  0  0  0  0  0  0  0  0  0  0  0
   -6.4063   -2.3257   -2.2404 C   0  0  0  0  0  0  0  0  0  0  0  0
   -6.6701   -1.7694   -3.1429 H   0  0  0  0  0  0  0  0  0  0  0  0
   -7.0029   -3.2415   -2.2033 H   0  0  0  0  0  0  0  0  0  0  0  0
   -6.6408   -1.7178   -1.3634 H   0  0  0  0  0  0  0  0  0  0  0  0
   -3.9915   -1.6540   -2.2855 N   0  0  0  0  0  0  0  0  0  0  0  0
   -2.5434   -1.8603   -2.1531 C   0  0  2  0  0  0  0  0  0  0  0  0
   -1.8590   -0.6571   -1.4701 C   0  0  0  0  0  0  0  0  0  0  0  0
   -2.4702    0.3942   -1.3071 O   0  0  0  0  0  0  0  0  0  0  0  0
   -1.9563   -2.0923   -3.5488 C   0  0  0  0  0  0  0  0  0  0  0  0
   -4.3286   -0.6975   -2.1801 H   0  0  0  0  0  0  0  0  0  0  0  0
   -2.3506   -2.7411   -1.5308 H   0  0  0  0  0  0  0  0  0  0  0  0
   -2.1319   -1.2209   -4.1878 H   0  0  0  0  0  0  0  0  0  0  0  0
   -0.8781   -2.2691   -3.4881 H   0  0  0  0  0  0  0  0  0  0  0  0
   -2.4217   -2.9664   -4.0152 H   0  0  0  0  0  0  0  0  0  0  0  0
   -0.5533   -0.7506   -1.0295 N   0  0  0  0  0  0  0  0  0  0  0  0
    0.1270    0.2768   -0.2277 C   0  0  0  0  0  0  0  0  0  0  0  0
    1.1910   -0.3279    0.6989 C   0  0  0  0  0  0  0  0  0  0  0  0
    1.5616   -1.4853    0.5341 O   0  0  0  0  0  0  0  0  0  0  0  0
   -0.1084   -1.6683   -1.0688 H   0  0  0  0  0  0  0  0  0  0  0  0
   -0.5990    0.8105    0.3944 H   0  0  0  0  0  0  0  0  0  0  0  0
    0.6051    1.0051   -0.8887 H   0  0  0  0  0  0  0  0  0  0  0  0
    1.7171    0.4126    1.7382 N   0  0  0  0  0  0  0  0  0  0  0  0
    2.6247   -0.1179    2.7633 C   0  0  2  0  0  0  0  0  0  0  0  0
    2.4851    0.6589    4.0896 C   0  0  0  0  0  0  0  0  0  0  0  0
    1.8654    1.7169    4.1181 O   0  0  0  0  0  0  0  0  0  0  0  0
    4.0611   -0.0324    2.2364 C   0  0  0  0  0  0  0  0  0  0  0  0
    1.3006    1.3245    1.9297 H   0  0  0  0  0  0  0  0  0  0  0  0
    2.3757   -1.1647    2.9686 H   0  0  0  0  0  0  0  0  0  0  0  0
    4.3294    1.0075    2.0243 H   0  0  0  0  0  0  0  0  0  0  0  0
    4.7658   -0.4315    2.9718 H   0  0  0  0  0  0  0  0  0  0  0  0
    4.1626   -0.6132    1.3142 H   0  0  0  0  0  0  0  0  0  0  0  0
    3.0370    0.1643    5.2569 N   0  0  0  0  0  0  0  0  0  0  0  0
    2.9210    0.8387    6.5445 C   0  0  0  0  0  0  0  0  0  0  0  0
    3.5324   -0.7212    5.2068 H   0  0  0  0  0  0  0  0  0  0  0  0
    3.4187    1.8137    6.5120 H   0  0  0  0  0  0  0  0  0  0  0  0
    1.8680    0.9892    6.8057 H   0  0  0  0  0  0  0  0  0  0  0  0
    3.3879    0.2370    7.3304 H   0  0  0  0  0  0  0  0  0  0  0  0
  1  2  2  0  0  0  0
  1  3  1  0  0  0  0
  1  7  1  0  0  0  0
  3  4  1  0  0  0  0
  3  5  1  0  0  0  0
  3  6  1  0  0  0  0
  7  8  1  0  0  0  0
  7 12  1  0  0  0  0
  8  9  1  0  0  0  0
  8 11  1  0  0  0  0
  8 13  1  0  0  0  0
  9 10  2  0  0  0  0
  9 17  1  0  0  0  0
 11 14  1  0  0  0  0
 11 15  1  0  0  0  0
 11 16  1  0  0  0  0
 17 18  1  0  0  0  0
 17 21  1  0  0  0  0
 18 19  1  0  0  0  0
 18 22  1  0  0  0  0
 18 23  1  0  0  0  0
 19 20  2  0  0  0  0
 19 24  1  0  0  0  0
 24 25  1  0  0  0  0
 24 29  1  0  0  0  0
 25 26  1  0  0  0  0
 25 28  1  0  0  0  0
 25 30  1  0  0  0  0
 26 27  2  0  0  0  0
 26 34  1  0  0  0  0
 28 31  1  0  0  0  0
 28 32  1  0  0  0  0
 28 33  1  0  0  0  0
 34 35  1  0  0  0  0
 34 36  1  0  0  0  0
 35 37  1  0  0  0  0
 35 38  1  0  0  0  0
 35 39  1  0  0  0  0
M  END
$$$$

  -OEChem-05262216283D

 39 38  0     1  0  0  0  0  0999 V2000
   -4.8466   -2.6375   -2.0905 C   0  0  0  0  0  0  0  0  0  0  0  0
   -4.4709   -3.7990   -2.1012 O   0  0  0  0  0  0  0  0  0  0  0  0
   -6.3186   -2.3153   -1.9133 C   0  0  0  0  0  0  0  0  0  0  0  0
   -6.6831   -1.7492   -2.7737 H   0  0  0  0  0  0  0  0  0  0  0  0
   -6.8983   -3.2387   -1.8281 H   0  0  0  0  0  0  0  0  0  0  0  0
   -6.4648   -1.7224   -1.0070 H   0  0  0  0  0  0  0  0  0  0  0  0
   -3.9324   -1.6142   -2.2224 N   0  0  0  0  0  0  0  0  0  0  0  0
   -2.4753   -1.7991   -2.2048 C   0  0  2  0  0  0  0  0  0  0  0  0
   -1.7655   -0.6170   -1.5122 C   0  0  0  0  0  0  0  0  0  0  0  0
   -2.3601    0.4409   -1.3324 O   0  0  0  0  0  0  0  0  0  0  0  0
   -1.9904   -1.9515   -3.6492 C   0  0  0  0  0  0  0  0  0  0  0  0
   -4.2731   -0.6634   -2.0836 H   0  0  0  0  0  0  0  0  0  0  0  0
   -2.2220   -2.7045   -1.6425 H   0  0  0  0  0  0  0  0  0  0  0  0
   -2.2278   -1.0543   -4.2298 H   0  0  0  0  0  0  0  0  0  0  0  0
   -0.9078   -2.1091   -3.6771 H   0  0  0  0  0  0  0  0  0  0  0  0
   -2.4761   -2.8115   -4.1215 H   0  0  0  0  0  0  0  0  0  0  0  0
   -0.4652   -0.7408   -1.0629 N   0  0  0  0  0  0  0  0  0  0  0  0
    0.2437    0.2821   -0.2801 C   0  0  0  0  0  0  0  0  0  0  0  0
    1.2832   -0.3357    0.6641 C   0  0  0  0  0  0  0  0  0  0  0  0
    1.7772   -1.4252    0.3966 O   0  0  0  0  0  0  0  0  0  0  0  0
   -0.0172   -1.6538   -1.1458 H   0  0  0  0  0  0  0  0  0  0  0  0
   -0.4685    0.8514    0.3254 H   0  0  0  0  0  0  0  0  0  0  0  0
    0.7477    0.9815   -0.9529 H   0  0  0  0  0  0  0  0  0  0  0  0
    1.6023    0.2804    1.8579 N   0  0  0  0  0  0  0  0  0  0  0  0
    2.4104   -0.3345    2.9190 C   0  0  2  0  0  0  0  0  0  0  0  0
    1.9844    0.1727    4.3128 C   0  0  0  0  0  0  0  0  0  0  0  0
    1.2619    1.1587    4.4110 O   0  0  0  0  0  0  0  0  0  0  0  0
    3.8854   -0.0171    2.6548 C   0  0  0  0  0  0  0  0  0  0  0  0
    1.0640    1.1068    2.1211 H   0  0  0  0  0  0  0  0  0  0  0  0
    2.2675   -1.4203    2.9099 H   0  0  0  0  0  0  0  0  0  0  0  0
    4.0506    1.0651    2.6605 H   0  0  0  0  0  0  0  0  0  0  0  0
    4.5204   -0.4716    3.4211 H   0  0  0  0  0  0  0  0  0  0  0  0
    4.1893   -0.4111    1.6797 H   0  0  0  0  0  0  0  0  0  0  0  0
    2.3897   -0.4891    5.4571 N   0  0  0  0  0  0  0  0  0  0  0  0
    1.9924   -0.0816    6.7995 C   0  0  0  0  0  0  0  0  0  0  0  0
    2.9768   -1.3106    5.3446 H   0  0  0  0  0  0  0  0  0  0  0  0
    2.3911    0.9113    7.0320 H   0  0  0  0  0  0  0  0  0  0  0  0
    0.9011   -0.0507    6.8844 H   0  0  0  0  0  0  0  0  0  0  0  0
    2.3743   -0.7913    7.5395 H   0  0  0  0  0  0  0  0  0  0  0  0
  1  2  2  0  0  0  0
  1  3  1  0  0  0  0
  1  7  1  0  0  0  0
  3  4  1  0  0  0  0
  3  5  1  0  0  0  0
  3  6  1  0  0  0  0
  7  8  1  0  0  0  0
  7 12  1  0  0  0  0
  8  9  1  0  0  0  0
  8 11  1  0  0  0  0
  8 13  1  0  0  0  0
  9 10  2  0  0  0  0
  9 17  1  0  0  0  0
 11 14  1  0  0  0  0
 11 15  1  0  0  0  0
 11 16  1  0  0  0  0
 17 18  1  0  0  0  0
 17 21  1  0  0  0  0
 18 19  1  0  0  0  0
 18 22  1  0  0  0  0
 18 23  1  0  0  0  0
 19 20  2  0  0  0  0
 19 24  1  0  0  0  0
 24 25  1  0  0  0  0
 24 29  1  0  0  0  0
 25 26  1  0  0  0  0
 25 28  1  0  0  0  0
 25 30  1  0  0  0  0
 26 27  2  0  0  0  0
 26 34  1  0  0  0  0
 28 31  1  0  0  0  0
 28 32  1  0  0  0  0
 28 33  1  0  0  0  0
 34 35  1  0  0  0  0
 34 36  1  0  0  0  0
 35 37  1  0  0  0  0
 35 38  1  0  0  0  0
 35 39  1  0  0  0  0
M  END
$$$$

  -OEChem-05262216283D

 39 38  0     1  0  0  0  0  0999 V2000
   -4.8186   -2.6502   -2.0743 C   0  0  0  0  0  0  0  0  0  0  0  0
   -4.4265   -3.8064   -2.0883 O   0  0  0  0  0  0  0  0  0  0  0  0
   -6.2967   -2.3493   -1.9168 C   0  0  0  0  0  0  0  0  0  0  0  0
   -6.6750   -1.8626   -2.8191 H   0  0  0  0  0  0  0  0  0  0  0  0
   -6.8548   -3.2755   -1.7529 H   0  0  0  0  0  0  0  0  0  0  0  0
   -6.4539   -1.6887   -1.0606 H   0  0  0  0  0  0  0  0  0  0  0  0
   -3.9182   -1.6123   -2.1848 N   0  0  0  0  0  0  0  0  0  0  0  0
   -2.4594   -1.7768   -2.1518 C   0  0  2  0  0  0  0  0  0  0  0  0
   -1.7734   -0.5996   -1.4280 C   0  0  0  0  0  0  0  0  0  0  0  0
   -2.3912    0.4367   -1.2071 O   0  0  0  0  0  0  0  0  0  0  0  0
   -1.9552   -1.8938   -3.5926 C   0  0  0  0  0  0  0  0  0  0  0  0
   -4.2738   -0.6695   -2.0297 H   0  0  0  0  0  0  0  0  0  0  0  0
   -2.2002   -2.6895   -1.6043 H   0  0  0  0  0  0  0  0  0  0  0  0
   -2.1935   -0.9864   -4.1566 H   0  0  0  0  0  0  0  0  0  0  0  0
   -0.8711   -2.0414   -3.6106 H   0  0  0  0  0  0  0  0  0  0  0  0
   -2.4274   -2.7476   -4.0888 H   0  0  0  0  0  0  0  0  0  0  0  0
   -0.4650   -0.7072   -0.9993 N   0  0  0  0  0  0  0  0  0  0  0  0
    0.2527    0.3244   -0.2371 C   0  0  0  0  0  0  0  0  0  0  0  0
    1.3089   -0.2926    0.6879 C   0  0  0  0  0  0  0  0  0  0  0  0
    1.9559   -1.2598    0.3039 O   0  0  0  0  0  0  0  0  0  0  0  0
    0.0184   -1.5910   -1.1586 H   0  0  0  0  0  0  0  0  0  0  0  0
   -0.4499    0.8981    0.3758 H   0  0  0  0  0  0  0  0  0  0  0  0
    0.7441    1.0206   -0.9226 H   0  0  0  0  0  0  0  0  0  0  0  0
    1.4376    0.1352    1.9945 N   0  0  0  0  0  0  0  0  0  0  0  0
    2.2048   -0.5741    3.0265 C   0  0  2  0  0  0  0  0  0  0  0  0
    1.5741   -0.3816    4.4220 C   0  0  0  0  0  0  0  0  0  0  0  0
    0.7137    0.4755    4.5932 O   0  0  0  0  0  0  0  0  0  0  0  0
    3.6466   -0.0575    3.0047 C   0  0  0  0  0  0  0  0  0  0  0  0
    0.7628    0.8233    2.3306 H   0  0  0  0  0  0  0  0  0  0  0  0
    2.2035   -1.6486    2.8145 H   0  0  0  0  0  0  0  0  0  0  0  0
    3.6727    1.0144    3.2255 H   0  0  0  0  0  0  0  0  0  0  0  0
    4.2545   -0.5820    3.7480 H   0  0  0  0  0  0  0  0  0  0  0  0
    4.0924   -0.2215    2.0183 H   0  0  0  0  0  0  0  0  0  0  0  0
    1.9474   -1.1892    5.4802 N   0  0  0  0  0  0  0  0  0  0  0  0
    1.3504   -1.0943    6.8070 C   0  0  0  0  0  0  0  0  0  0  0  0
    2.6392   -1.9113    5.3012 H   0  0  0  0  0  0  0  0  0  0  0  0
    1.5177   -0.0995    7.2330 H   0  0  0  0  0  0  0  0  0  0  0  0
    0.2721   -1.2788    6.7560 H   0  0  0  0  0  0  0  0  0  0  0  0
    1.7962   -1.8359    7.4767 H   0  0  0  0  0  0  0  0  0  0  0  0
  1  2  2  0  0  0  0
  1  3  1  0  0  0  0
  1  7  1  0  0  0  0
  3  4  1  0  0  0  0
  3  5  1  0  0  0  0
  3  6  1  0  0  0  0
  7  8  1  0  0  0  0
  7 12  1  0  0  0  0
  8  9  1  0  0  0  0
  8 11  1  0  0  0  0
  8 13  1  0  0  0  0
  9 10  2  0  0  0  0
  9 17  1  0  0  0  0
 11 14  1  0  0  0  0
 11 15  1  0  0  0  0
 11 16  1  0  0  0  0
 17 18  1  0  0  0  0
 17 21  1  0  0  0  0
 18 19  1  0  0  0  0
 18 22  1  0  0  0  0
 18 23  1  0  0  0  0
 19 20  2  0  0  0  0
 19 24  1  0  0  0  0
 24 25  1  0  0  0  0
 24 29  1  0  0  0  0
 25 26  1  0  0  0  0
 25 28  1  0  0  0  0
 25 30  1  0  0  0  0
 26 27  2  0  0  0  0
 26 34  1  0  0  0  0
 28 31  1  0  0  0  0
 28 32  1  0  0  0  0
 28 33  1  0  0  0  0
 34 35  1  0  0  0  0
 34 36  1  0  0  0  0
 35 37  1  0  0  0  0
 35 38  1  0  0  0  0
 35 39  1  0  0  0  0
M  END
$$$$

  -OEChem-05262216283D

 39 38  0     1  0  0  0  0  0999 V2000
   -4.8007   -2.7118   -2.0788 C   0  0  0  0  0  0  0  0  0  0  0  0
   -4.3790   -3.8572   -2.1034 O   0  0  0  0  0  0  0  0  0  0  0  0
   -6.2911   -2.4529   -1.9641 C   0  0  0  0  0  0  0  0  0  0  0  0
   -6.6649   -2.0134   -2.8920 H   0  0  0  0  0  0  0  0  0  0  0  0
   -6.8229   -3.3902   -1.7774 H   0  0  0  0  0  0  0  0  0  0  0  0
   -6.4898   -1.7664   -1.1376 H   0  0  0  0  0  0  0  0  0  0  0  0
   -3.9228   -1.6511   -2.1498 N   0  0  0  0  0  0  0  0  0  0  0  0
   -2.4609   -1.7831   -2.1009 C   0  0  2  0  0  0  0  0  0  0  0  0
   -1.8076   -0.6010   -1.3541 C   0  0  0  0  0  0  0  0  0  0  0  0
   -2.4555    0.4108   -1.1070 O   0  0  0  0  0  0  0  0  0  0  0  0
   -1.9382   -1.8723   -3.5375 C   0  0  0  0  0  0  0  0  0  0  0  0
   -4.3035   -0.7185   -1.9925 H   0  0  0  0  0  0  0  0  0  0  0  0
   -2.1889   -2.6972   -1.5618 H   0  0  0  0  0  0  0  0  0  0  0  0
   -2.1940   -0.9657   -4.0950 H   0  0  0  0  0  0  0  0  0  0  0  0
   -0.8506   -1.9918   -3.5455 H   0  0  0  0  0  0  0  0  0  0  0  0
   -2.3825   -2.7327   -4.0479 H   0  0  0  0  0  0  0  0  0  0  0  0
   -0.4933   -0.6769   -0.9353 N   0  0  0  0  0  0  0  0  0  0  0  0
    0.2085    0.3743   -0.1843 C   0  0  0  0  0  0  0  0  0  0  0  0
    1.2834   -0.2218    0.7319 C   0  0  0  0  0  0  0  0  0  0  0  0
    2.1055   -0.9978    0.2612 O   0  0  0  0  0  0  0  0  0  0  0  0
    0.0272   -1.5261   -1.1520 H   0  0  0  0  0  0  0  0  0  0  0  0
   -0.4974    0.9421    0.4300 H   0  0  0  0  0  0  0  0  0  0  0  0
    0.6819    1.0750   -0.8783 H   0  0  0  0  0  0  0  0  0  0  0  0
    1.2337   -0.0320    2.0992 N   0  0  0  0  0  0  0  0  0  0  0  0
    2.0255   -0.7985    3.0712 C   0  0  2  0  0  0  0  0  0  0  0  0
    1.2505   -1.0026    4.3904 C   0  0  0  0  0  0  0  0  0  0  0  0
    0.2435   -0.3405    4.6167 O   0  0  0  0  0  0  0  0  0  0  0  0
    3.3369   -0.0508    3.3261 C   0  0  0  0  0  0  0  0  0  0  0  0
    0.4261    0.4688    2.4721 H   0  0  0  0  0  0  0  0  0  0  0  0
    2.2502   -1.7914    2.6671 H   0  0  0  0  0  0  0  0  0  0  0  0
    3.1372    0.9408    3.7451 H   0  0  0  0  0  0  0  0  0  0  0  0
    3.9651   -0.6062    4.0289 H   0  0  0  0  0  0  0  0  0  0  0  0
    3.8910    0.0707    2.3899 H   0  0  0  0  0  0  0  0  0  0  0  0
    1.6686   -1.9385    5.3187 N   0  0  0  0  0  0  0  0  0  0  0  0
    0.9562   -2.2006    6.5638 C   0  0  0  0  0  0  0  0  0  0  0  0
    2.4868   -2.4965    5.0921 H   0  0  0  0  0  0  0  0  0  0  0  0
    0.8887   -1.2890    7.1669 H   0  0  0  0  0  0  0  0  0  0  0  0
   -0.0569   -2.5607    6.3564 H   0  0  0  0  0  0  0  0  0  0  0  0
    1.4812   -2.9619    7.1486 H   0  0  0  0  0  0  0  0  0  0  0  0
  1  2  2  0  0  0  0
  1  3  1  0  0  0  0
  1  7  1  0  0  0  0
  3  4  1  0  0  0  0
  3  5  1  0  0  0  0
  3  6  1  0  0  0  0
  7  8  1  0  0  0  0
  7 12  1  0  0  0  0
  8  9  1  0  0  0  0
  8 11  1  0  0  0  0
  8 13  1  0  0  0  0
  9 10  2  0  0  0  0
  9 17  1  0  0  0  0
 11 14  1  0  0  0  0
 11 15  1  0  0  0  0
 11 16  1  0  0  0  0
 17 18  1  0  0  0  0
 17 21  1  0  0  0  0
 18 19  1  0  0  0  0
 18 22  1  0  0  0  0
 18 23  1  0  0  0  0
 19 20  2  0  0  0  0
 19 24  1  0  0  0  0
 24 25  1  0  0  0  0
 24 29  1  0  0  0  0
 25 26  1  0  0  0  0
 25 28  1  0  0  0  0
 25 30  1  0  0  0  0
 26 27  2  0  0  0  0
 26 34  1  0  0  0  0
 28 31  1  0  0  0  0
 28 32  1  0  0  0  0
 28 33  1  0  0  0  0
 34 35  1  0  0  0  0
 34 36  1  0  0  0  0
 35 37  1  0  0  0  0
 35 38  1  0  0  0  0
 35 39  1  0  0  0  0
M  END
$$$$

  -OEChem-05262216283D

 39 38  0     1  0  0  0  0  0999 V2000
   -4.7104   -2.7929   -2.0730 C   0  0  0  0  0  0  0  0  0  0  0  0
   -4.2295   -3.9110   -2.1688 O   0  0  0  0  0  0  0  0  0  0  0  0
   -6.2040   -2.6242   -1.8690 C   0  0  0  0  0  0  0  0  0  0  0  0
   -6.6466   -2.1380   -2.7418 H   0  0  0  0  0  0  0  0  0  0  0  0
   -6.6772   -3.6003   -1.7303 H   0  0  0  0  0  0  0  0  0  0  0  0
   -6.3945   -2.0129   -0.9836 H   0  0  0  0  0  0  0  0  0  0  0  0
   -3.8961   -1.6824   -2.1462 N   0  0  0  0  0  0  0  0  0  0  0  0
   -2.4289   -1.7359   -2.1787 C   0  0  2  0  0  0  0  0  0  0  0  0
   -1.7984   -0.5859   -1.3662 C   0  0  0  0  0  0  0  0  0  0  0  0
   -2.4590    0.4080   -1.0839 O   0  0  0  0  0  0  0  0  0  0  0  0
   -1.9800   -1.6742   -3.6409 C   0  0  0  0  0  0  0  0  0  0  0  0
   -4.3169   -0.7795   -1.9300 H   0  0  0  0  0  0  0  0  0  0  0  0
   -2.0805   -2.6746   -1.7344 H   0  0  0  0  0  0  0  0  0  0  0  0
   -2.3027   -0.7347   -4.1006 H   0  0  0  0  0  0  0  0  0  0  0  0
   -0.8902   -1.7416   -3.7116 H   0  0  0  0  0  0  0  0  0  0  0  0
   -2.4145   -2.5055   -4.2053 H   0  0  0  0  0  0  0  0  0  0  0  0
   -0.4916   -0.6752   -0.9268 N   0  0  0  0  0  0  0  0  0  0  0  0
    0.2047    0.3697   -0.1618 C   0  0  0  0  0  0  0  0  0  0  0  0
    1.2576   -0.2354    0.7702 C   0  0  0  0  0  0  0  0  0  0  0  0
    2.2321   -0.7973    0.2885 O   0  0  0  0  0  0  0  0  0  0  0  0
    0.0430   -1.4987   -1.1992 H   0  0  0  0  0  0  0  0  0  0  0  0
   -0.5043    0.9453    0.4415 H   0  0  0  0  0  0  0  0  0  0  0  0
    0.6970    1.0664   -0.8465 H   0  0  0  0  0  0  0  0  0  0  0  0
    1.0272   -0.3150    2.1292 N   0  0  0  0  0  0  0  0  0  0  0  0
    1.8179   -1.1317    3.0589 C   0  0  2  0  0  0  0  0  0  0  0  0
    0.9635   -1.6108    4.2520 C   0  0  0  0  0  0  0  0  0  0  0  0
   -0.1469   -1.1275    4.4450 O   0  0  0  0  0  0  0  0  0  0  0  0
    3.0109   -0.3024    3.5442 C   0  0  0  0  0  0  0  0  0  0  0  0
    0.1156   -0.0029    2.4666 H   0  0  0  0  0  0  0  0  0  0  0  0
    2.1856   -2.0252    2.5432 H   0  0  0  0  0  0  0  0  0  0  0  0
    2.6651    0.6023    4.0545 H   0  0  0  0  0  0  0  0  0  0  0  0
    3.6265   -0.8818    4.2389 H   0  0  0  0  0  0  0  0  0  0  0  0
    3.6366   -0.0063    2.6960 H   0  0  0  0  0  0  0  0  0  0  0  0
    1.4242   -2.6075    5.0927 N   0  0  0  0  0  0  0  0  0  0  0  0
    0.6445   -3.1404    6.2040 C   0  0  0  0  0  0  0  0  0  0  0  0
    2.3337   -3.0123    4.8903 H   0  0  0  0  0  0  0  0  0  0  0  0
    0.4057   -2.3474    6.9206 H   0  0  0  0  0  0  0  0  0  0  0  0
   -0.2902   -3.5801    5.8402 H   0  0  0  0  0  0  0  0  0  0  0  0
    1.2106   -3.9179    6.7259 H   0  0  0  0  0  0  0  0  0  0  0  0
  1  2  2  0  0  0  0
  1  3  1  0  0  0  0
  1  7  1  0  0  0  0
  3  4  1  0  0  0  0
  3  5  1  0  0  0  0
  3  6  1  0  0  0  0
  7  8  1  0  0  0  0
  7 12  1  0  0  0  0
  8  9  1  0  0  0  0
  8 11  1  0  0  0  0
  8 13  1  0  0  0  0
  9 10  2  0  0  0  0
  9 17  1  0  0  0  0
 11 14  1  0  0  0  0
 11 15  1  0  0  0  0
 11 16  1  0  0  0  0
 17 18  1  0  0  0  0
 17 21  1  0  0  0  0
 18 19  1  0  0  0  0
 18 22  1  0  0  0  0
 18 23  1  0  0  0  0
 19 20  2  0  0  0  0
 19 24  1  0  0  0  0
 24 25  1  0  0  0  0
 24 29  1  0  0  0  0
 25 26  1  0  0  0  0
 25 28  1  0  0  0  0
 25 30  1  0  0  0  0
 26 27  2  0  0  0  0
 26 34  1  0  0  0  0
 28 31  1  0  0  0  0
 28 32  1  0  0  0  0
 28 33  1  0  0  0  0
 34 35  1  0  0  0  0
 34 36  1  0  0  0  0
 35 37  1  0  0  0  0
 35 38  1  0  0  0  0
 35 39  1  0  0  0  0
M  END
$$$$

  -OEChem-05262216283D

 39 38  0     1  0  0  0  0  0999 V2000
   -4.8777   -2.6750   -2.1507 C   0  0  0  0  0  0  0  0  0  0  0  0
   -4.5047   -3.8345   -2.2348 O   0  0  0  0  0  0  0  0  0  0  0  0
   -6.3581   -2.3564   -2.0583 C   0  0  0  0  0  0  0  0  0  0  0  0
   -6.6744   -1.7960   -2.9412 H   0  0  0  0  0  0  0  0  0  0  0  0
   -6.9400   -3.2807   -1.9996 H   0  0  0  0  0  0  0  0  0  0  0  0
   -6.5568   -1.7588   -1.1652 H   0  0  0  0  0  0  0  0  0  0  0  0
   -3.9531   -1.6526   -2.1257 N   0  0  0  0  0  0  0  0  0  0  0  0
   -2.5020   -1.8524   -2.0229 C   0  0  2  0  0  0  0  0  0  0  0  0
   -1.8220   -0.6864   -1.2740 C   0  0  0  0  0  0  0  0  0  0  0  0
   -2.4437    0.3448   -1.0404 O   0  0  0  0  0  0  0  0  0  0  0  0
   -1.9288   -1.9918   -3.4364 C   0  0  0  0  0  0  0  0  0  0  0  0
   -4.2997   -0.7139   -1.9295 H   0  0  0  0  0  0  0  0  0  0  0  0
   -2.2964   -2.7681   -1.4577 H   0  0  0  0  0  0  0  0  0  0  0  0
   -2.1107   -1.0798   -4.0140 H   0  0  0  0  0  0  0  0  0  0  0  0
   -0.8504   -2.1729   -3.3985 H   0  0  0  0  0  0  0  0  0  0  0  0
   -2.3999   -2.8328   -3.9553 H   0  0  0  0  0  0  0  0  0  0  0  0
   -0.5100   -0.7924   -0.8512 N   0  0  0  0  0  0  0  0  0  0  0  0
    0.2400    0.2919   -0.1982 C   0  0  0  0  0  0  0  0  0  0  0  0
    1.2916   -0.2515    0.7725 C   0  0  0  0  0  0  0  0  0  0  0  0
    2.3875   -0.5916    0.3491 O   0  0  0  0  0  0  0  0  0  0  0  0
   -0.0056   -1.6413   -1.0991 H   0  0  0  0  0  0  0  0  0  0  0  0
   -0.4340    0.9488    0.3607 H   0  0  0  0  0  0  0  0  0  0  0  0
    0.7399    0.9036   -0.9554 H   0  0  0  0  0  0  0  0  0  0  0  0
    0.9638   -0.4733    2.0953 N   0  0  0  0  0  0  0  0  0  0  0  0
    1.7820   -1.2577    3.0304 C   0  0  2  0  0  0  0  0  0  0  0  0
    0.9166   -2.2484    3.8374 C   0  0  0  0  0  0  0  0  0  0  0  0
   -0.3049   -2.1402    3.8356 O   0  0  0  0  0  0  0  0  0  0  0  0
    2.5043   -0.2812    3.9617 C   0  0  0  0  0  0  0  0  0  0  0  0
   -0.0241   -0.3826    2.3354 H   0  0  0  0  0  0  0  0  0  0  0  0
    2.5255   -1.8478    2.4844 H   0  0  0  0  0  0  0  0  0  0  0  0
    1.7807    0.3092    4.5331 H   0  0  0  0  0  0  0  0  0  0  0  0
    3.1458   -0.8214    4.6645 H   0  0  0  0  0  0  0  0  0  0  0  0
    3.1299    0.4023    3.3787 H   0  0  0  0  0  0  0  0  0  0  0  0
    1.5051   -3.2738    4.5544 N   0  0  0  0  0  0  0  0  0  0  0  0
    0.7418   -4.2677    5.2997 C   0  0  0  0  0  0  0  0  0  0  0  0
    2.5166   -3.3594    4.5125 H   0  0  0  0  0  0  0  0  0  0  0  0
    0.1006   -3.7823    6.0434 H   0  0  0  0  0  0  0  0  0  0  0  0
    0.1128   -4.8545    4.6219 H   0  0  0  0  0  0  0  0  0  0  0  0
    1.4185   -4.9507    5.8221 H   0  0  0  0  0  0  0  0  0  0  0  0
  1  2  2  0  0  0  0
  1  3  1  0  0  0  0
  1  7  1  0  0  0  0
  3  4  1  0  0  0  0
  3  5  1  0  0  0  0
  3  6  1  0  0  0  0
  7  8  1  0  0  0  0
  7 12  1  0  0  0  0
  8  9  1  0  0  0  0
  8 11  1  0  0  0  0
  8 13  1  0  0  0  0
  9 10  2  0  0  0  0
  9 17  1  0  0  0  0
 11 14  1  0  0  0  0
 11 15  1  0  0  0  0
 11 16  1  0  0  0  0
 17 18  1  0  0  0  0
 17 21  1  0  0  0  0
 18 19  1  0  0  0  0
 18 22  1  0  0  0  0
 18 23  1  0  0  0  0
 19 20  2  0  0  0  0
 19 24  1  0  0  0  0
 24 25  1  0  0  0  0
 24 29  1  0  0  0  0
 25 26  1  0  0  0  0
 25 28  1  0  0  0  0
 25 30  1  0  0  0  0
 26 27  2  0  0  0  0
 26 34  1  0  0  0  0
 28 31  1  0  0  0  0
 28 32  1  0  0  0  0
 28 33  1  0  0  0  0
 34 35  1  0  0  0  0
 34 36  1  0  0  0  0
 35 37  1  0  0  0  0
 35 38  1  0  0  0  0
 35 39  1  0  0  0  0
M  END
$$$$

  -OEChem-05262216283D

 39 38  0     1  0  0  0  0  0999 V2000
   -4.8270   -2.2950   -1.3582 C   0  0  0  0  0  0  0  0  0  0  0  0
   -4.7962   -3.2538   -0.6034 O   0  0  0  0  0  0  0  0  0  0  0  0
   -6.1588   -1.7037   -1.7801 C   0  0  0  0  0  0  0  0  0  0  0  0
   -6.2650   -1.7605   -2.8661 H   0  0  0  0  0  0  0  0  0  0  0  0
   -6.9807   -2.2556   -1.3157 H   0  0  0  0  0  0  0  0  0  0  0  0
   -6.2175   -0.6579   -1.4690 H   0  0  0  0  0  0  0  0  0  0  0  0
   -3.6557   -1.7309   -1.8167 N   0  0  0  0  0  0  0  0  0  0  0  0
   -2.3165   -2.0840   -1.3256 C   0  0  2  0  0  0  0  0  0  0  0  0
   -1.3771   -0.8582   -1.3175 C   0  0  0  0  0  0  0  0  0  0  0  0
   -1.7503    0.2161   -1.7792 O   0  0  0  0  0  0  0  0  0  0  0  0
   -1.7518   -3.1996   -2.2103 C   0  0  0  0  0  0  0  0  0  0  0  0
   -3.7346   -0.8481   -2.3199 H   0  0  0  0  0  0  0  0  0  0  0  0
   -2.3812   -2.4458   -0.2931 H   0  0  0  0  0  0  0  0  0  0  0  0
   -1.6651   -2.8606   -3.2474 H   0  0  0  0  0  0  0  0  0  0  0  0
   -0.7616   -3.5049   -1.8585 H   0  0  0  0  0  0  0  0  0  0  0  0
   -2.4099   -4.0739   -2.1822 H   0  0  0  0  0  0  0  0  0  0  0  0
   -0.1324   -0.9379   -0.7273 N   0  0  0  0  0  0  0  0  0  0  0  0
    0.7065    0.2323   -0.4227 C   0  0  0  0  0  0  0  0  0  0  0  0
    1.5662   -0.0727    0.8031 C   0  0  0  0  0  0  0  0  0  0  0  0
    2.6862   -0.5484    0.6759 O   0  0  0  0  0  0  0  0  0  0  0  0
    0.0466   -1.7933   -0.1902 H   0  0  0  0  0  0  0  0  0  0  0  0
    0.0945    1.1158   -0.2164 H   0  0  0  0  0  0  0  0  0  0  0  0
    1.3558    0.4629   -1.2727 H   0  0  0  0  0  0  0  0  0  0  0  0
    0.9557   -0.0682    2.0429 N   0  0  0  0  0  0  0  0  0  0  0  0
    1.3188   -1.1130    3.0105 C   0  0  2  0  0  0  0  0  0  0  0  0
    0.8639   -2.5190    2.5402 C   0  0  0  0  0  0  0  0  0  0  0  0
    0.0058   -2.6397    1.6666 O   0  0  0  0  0  0  0  0  0  0  0  0
    0.6681   -0.7577    4.3494 C   0  0  0  0  0  0  0  0  0  0  0  0
   -0.0343    0.1593    1.9988 H   0  0  0  0  0  0  0  0  0  0  0  0
    2.4061   -1.1297    3.1443 H   0  0  0  0  0  0  0  0  0  0  0  0
   -0.4228   -0.7481    4.2566 H   0  0  0  0  0  0  0  0  0  0  0  0
    0.9446   -1.4882    5.1160 H   0  0  0  0  0  0  0  0  0  0  0  0
    0.9993    0.2315    4.6805 H   0  0  0  0  0  0  0  0  0  0  0  0
    1.4290   -3.6563    3.0864 N   0  0  0  0  0  0  0  0  0  0  0  0
    1.1131   -5.0039    2.6257 C   0  0  0  0  0  0  0  0  0  0  0  0
    2.2097   -3.5292    3.7240 H   0  0  0  0  0  0  0  0  0  0  0  0
    0.0371   -5.1942    2.7029 H   0  0  0  0  0  0  0  0  0  0  0  0
    1.4203   -5.1338    1.5825 H   0  0  0  0  0  0  0  0  0  0  0  0
    1.6373   -5.7459    3.2363 H   0  0  0  0  0  0  0  0  0  0  0  0
  1  2  2  0  0  0  0
  1  3  1  0  0  0  0
  1  7  1  0  0  0  0
  3  4  1  0  0  0  0
  3  5  1  0  0  0  0
  3  6  1  0  0  0  0
  7  8  1  0  0  0  0
  7 12  1  0  0  0  0
  8  9  1  0  0  0  0
  8 11  1  0  0  0  0
  8 13  1  0  0  0  0
  9 10  2  0  0  0  0
  9 17  1  0  0  0  0
 11 14  1  0  0  0  0
 11 15  1  0  0  0  0
 11 16  1  0  0  0  0
 17 18  1  0  0  0  0
 17 21  1  0  0  0  0
 18 19  1  0  0  0  0
 18 22  1  0  0  0  0
 18 23  1  0  0  0  0
 19 20  2  0  0  0  0
 19 24  1  0  0  0  0
 24 25  1  0  0  0  0
 24 29  1  0  0  0  0
 25 26  1  0  0  0  0
 25 28  1  0  0  0  0
 25 30  1  0  0  0  0
 26 27  2  0  0  0  0
 26 34  1  0  0  0  0
 28 31  1  0  0  0  0
 28 32  1  0  0  0  0
 28 33  1  0  0  0  0
 34 35  1  0  0  0  0
 34 36  1  0  0  0  0
 35 37  1  0  0  0  0
 35 38  1  0  0  0  0
 35 39  1  0  0  0  0
M  END
$$$$

  -OEChem-05262216283D

 39 38  0     1  0  0  0  0  0999 V2000
   -4.8304   -2.3843   -1.6803 C   0  0  0  0  0  0  0  0  0  0  0  0
   -4.7929   -3.4068   -1.0146 O   0  0  0  0  0  0  0  0  0  0  0  0
   -6.1648   -1.8226   -2.1339 C   0  0  0  0  0  0  0  0  0  0  0  0
   -6.2025   -1.7861   -3.2254 H   0  0  0  0  0  0  0  0  0  0  0  0
   -6.9818   -2.4544   -1.7737 H   0  0  0  0  0  0  0  0  0  0  0  0
   -6.2988   -0.8130   -1.7373 H   0  0  0  0  0  0  0  0  0  0  0  0
   -3.6650   -1.7261   -2.0103 N   0  0  0  0  0  0  0  0  0  0  0  0
   -2.3375   -2.0741   -1.4856 C   0  0  2  0  0  0  0  0  0  0  0  0
   -1.4459   -0.8228   -1.3326 C   0  0  0  0  0  0  0  0  0  0  0  0
   -1.8369    0.2728   -1.7229 O   0  0  0  0  0  0  0  0  0  0  0  0
   -1.6927   -3.0914   -2.4316 C   0  0  0  0  0  0  0  0  0  0  0  0
   -3.7568   -0.8071   -2.4418 H   0  0  0  0  0  0  0  0  0  0  0  0
   -2.4359   -2.5245   -0.4913 H   0  0  0  0  0  0  0  0  0  0  0  0
   -1.5585   -2.6576   -3.4275 H   0  0  0  0  0  0  0  0  0  0  0  0
   -0.7156   -3.4044   -2.0511 H   0  0  0  0  0  0  0  0  0  0  0  0
   -2.3261   -3.9798   -2.5197 H   0  0  0  0  0  0  0  0  0  0  0  0
   -0.2200   -0.9113   -0.7055 N   0  0  0  0  0  0  0  0  0  0  0  0
    0.6250    0.2445   -0.3594 C   0  0  0  0  0  0  0  0  0  0  0  0
    1.4481   -0.0752    0.8886 C   0  0  0  0  0  0  0  0  0  0  0  0
    2.6484   -0.2942    0.8053 O   0  0  0  0  0  0  0  0  0  0  0  0
    0.0068   -1.8159   -0.2762 H   0  0  0  0  0  0  0  0  0  0  0  0
    0.0168    1.1321   -0.1593 H   0  0  0  0  0  0  0  0  0  0  0  0
    1.2987    0.4779   -1.1893 H   0  0  0  0  0  0  0  0  0  0  0  0
    0.7666   -0.3828    2.0508 N   0  0  0  0  0  0  0  0  0  0  0  0
    1.2538   -1.4775    2.9011 C   0  0  2  0  0  0  0  0  0  0  0  0
    0.9716   -2.8628    2.2668 C   0  0  0  0  0  0  0  0  0  0  0  0
    0.1861   -2.9706    1.3255 O   0  0  0  0  0  0  0  0  0  0  0  0
    0.5634   -1.3547    4.2612 C   0  0  0  0  0  0  0  0  0  0  0  0
   -0.2433   -0.3344    1.9406 H   0  0  0  0  0  0  0  0  0  0  0  0
    2.3349   -1.3825    3.0513 H   0  0  0  0  0  0  0  0  0  0  0  0
   -0.5206   -1.4635    4.1531 H   0  0  0  0  0  0  0  0  0  0  0  0
    0.9237   -2.1289    4.9455 H   0  0  0  0  0  0  0  0  0  0  0  0
    0.7739   -0.3769    4.7059 H   0  0  0  0  0  0  0  0  0  0  0  0
    1.5970   -3.9954    2.7533 N   0  0  0  0  0  0  0  0  0  0  0  0
    1.4096   -5.3231    2.1799 C   0  0  0  0  0  0  0  0  0  0  0  0
    2.2957   -3.8701    3.4803 H   0  0  0  0  0  0  0  0  0  0  0  0
    0.3519   -5.6064    2.2045 H   0  0  0  0  0  0  0  0  0  0  0  0
    1.7569   -5.3451    1.1415 H   0  0  0  0  0  0  0  0  0  0  0  0
    1.9770   -6.0650    2.7504 H   0  0  0  0  0  0  0  0  0  0  0  0
  1  2  2  0  0  0  0
  1  3  1  0  0  0  0
  1  7  1  0  0  0  0
  3  4  1  0  0  0  0
  3  5  1  0  0  0  0
  3  6  1  0  0  0  0
  7  8  1  0  0  0  0
  7 12  1  0  0  0  0
  8  9  1  0  0  0  0
  8 11  1  0  0  0  0
  8 13  1  0  0  0  0
  9 10  2  0  0  0  0
  9 17  1  0  0  0  0
 11 14  1  0  0  0  0
 11 15  1  0  0  0  0
 11 16  1  0  0  0  0
 17 18  1  0  0  0  0
 17 21  1  0  0  0  0
 18 19  1  0  0  0  0
 18 22  1  0  0  0  0
 18 23  1  0  0  0  0
 19 20  2  0  0  0  0
 19 24  1  0  0  0  0
 24 25  1  0  0  0  0
 24 29  1  0  0  0  0
 25 26  1  0  0  0  0
 25 28  1  0  0  0  0
 25 30  1  0  0  0  0
 26 27  2  0  0  0  0
 26 34  1  0  0  0  0
 28 31  1  0  0  0  0
 28 32  1  0  0  0  0
 28 33  1  0  0  0  0
 34 35  1  0  0  0  0
 34 36  1  0  0  0  0
 35 37  1  0  0  0  0
 35 38  1  0  0  0  0
 35 39  1  0  0  0  0
M  END
$$$$

  -OEChem-05262216283D

 39 38  0     1  0  0  0  0  0999 V2000
   -4.9090   -2.3982   -1.7592 C   0  0  0  0  0  0  0  0  0  0  0  0
   -4.8779   -3.4066   -1.0720 O   0  0  0  0  0  0  0  0  0  0  0  0
   -6.2382   -1.8437   -2.2347 C   0  0  0  0  0  0  0  0  0  0  0  0
   -6.3063   -1.9248   -3.3222 H   0  0  0  0  0  0  0  0  0  0  0  0
   -7.0628   -2.4045   -1.7859 H   0  0  0  0  0  0  0  0  0  0  0  0
   -6.3298   -0.7933   -1.9478 H   0  0  0  0  0  0  0  0  0  0  0  0
   -3.7398   -1.7552   -2.1045 N   0  0  0  0  0  0  0  0  0  0  0  0
   -2.4156   -2.1014   -1.5716 C   0  0  2  0  0  0  0  0  0  0  0  0
   -1.5442   -0.8437   -1.3653 C   0  0  0  0  0  0  0  0  0  0  0  0
   -1.9399    0.2576   -1.7332 O   0  0  0  0  0  0  0  0  0  0  0  0
   -1.7464   -3.0809   -2.5404 C   0  0  0  0  0  0  0  0  0  0  0  0
   -3.8281   -0.8387   -2.5420 H   0  0  0  0  0  0  0  0  0  0  0  0
   -2.5197   -2.5849   -0.5938 H   0  0  0  0  0  0  0  0  0  0  0  0
   -1.6074   -2.6165   -3.5218 H   0  0  0  0  0  0  0  0  0  0  0  0
   -0.7691   -3.3920   -2.1583 H   0  0  0  0  0  0  0  0  0  0  0  0
   -2.3671   -3.9746   -2.6612 H   0  0  0  0  0  0  0  0  0  0  0  0
   -0.3287   -0.9371   -0.7192 N   0  0  0  0  0  0  0  0  0  0  0  0
    0.5421    0.2051   -0.3873 C   0  0  0  0  0  0  0  0  0  0  0  0
    1.3466   -0.0928    0.8801 C   0  0  0  0  0  0  0  0  0  0  0  0
    2.5691   -0.0967    0.8522 O   0  0  0  0  0  0  0  0  0  0  0  0
   -0.0583   -1.8668   -0.3769 H   0  0  0  0  0  0  0  0  0  0  0  0
   -0.0486    1.1102   -0.2157 H   0  0  0  0  0  0  0  0  0  0  0  0
    1.2293    0.4037   -1.2153 H   0  0  0  0  0  0  0  0  0  0  0  0
    0.6806   -0.6530    1.9542 N   0  0  0  0  0  0  0  0  0  0  0  0
    1.2959   -1.7665    2.6879 C   0  0  2  0  0  0  0  0  0  0  0  0
    1.1775   -3.0912    1.8954 C   0  0  0  0  0  0  0  0  0  0  0  0
    0.3612   -3.1950    0.9803 O   0  0  0  0  0  0  0  0  0  0  0  0
    0.5926   -1.8810    4.0416 C   0  0  0  0  0  0  0  0  0  0  0  0
   -0.3195   -0.7442    1.7916 H   0  0  0  0  0  0  0  0  0  0  0  0
    2.3577   -1.5628    2.8653 H   0  0  0  0  0  0  0  0  0  0  0  0
   -0.4697   -2.1083    3.9054 H   0  0  0  0  0  0  0  0  0  0  0  0
    1.0445   -2.6770    4.6413 H   0  0  0  0  0  0  0  0  0  0  0  0
    0.6801   -0.9404    4.5945 H   0  0  0  0  0  0  0  0  0  0  0  0
    1.9904   -4.1668    2.1980 N   0  0  0  0  0  0  0  0  0  0  0  0
    1.9744   -5.4165    1.4471 C   0  0  0  0  0  0  0  0  0  0  0  0
    2.7117   -4.0262    2.8997 H   0  0  0  0  0  0  0  0  0  0  0  0
    0.9744   -5.8627    1.4643 H   0  0  0  0  0  0  0  0  0  0  0  0
    2.2643   -5.2411    0.4058 H   0  0  0  0  0  0  0  0  0  0  0  0
    2.6770   -6.1310    1.8867 H   0  0  0  0  0  0  0  0  0  0  0  0
  1  2  2  0  0  0  0
  1  3  1  0  0  0  0
  1  7  1  0  0  0  0
  3  4  1  0  0  0  0
  3  5  1  0  0  0  0
  3  6  1  0  0  0  0
  7  8  1  0  0  0  0
  7 12  1  0  0  0  0
  8  9  1  0  0  0  0
  8 11  1  0  0  0  0
  8 13  1  0  0  0  0
  9 10  2  0  0  0  0
  9 17  1  0  0  0  0
 11 14  1  0  0  0  0
 11 15  1  0  0  0  0
 11 16  1  0  0  0  0
 17 18  1  0  0  0  0
 17 21  1  0  0  0  0
 18 19  1  0  0  0  0
 18 22  1  0  0  0  0
 18 23  1  0  0  0  0
 19 20  2  0  0  0  0
 19 24  1  0  0  0  0
 24 25  1  0  0  0  0
 24 29  1  0  0  0  0
 25 26  1  0  0  0  0
 25 28  1  0  0  0  0
 25 30  1  0  0  0  0
 26 27  2  0  0  0  0
 26 34  1  0  0  0  0
 28 31  1  0  0  0  0
 28 32  1  0  0  0  0
 28 33  1  0  0  0  0
 34 35  1  0  0  0  0
 34 36  1  0  0  0  0
 35 37  1  0  0  0  0
 35 38  1  0  0  0  0
 35 39  1  0  0  0  0
M  END
$$$$

  -OEChem-05262216283D

 39 38  0     1  0  0  0  0  0999 V2000
   -4.9793   -2.3961   -2.0861 C   0  0  0  0  0  0  0  0  0  0  0  0
   -4.9772   -3.4719   -1.5093 O   0  0  0  0  0  0  0  0  0  0  0  0
   -6.2786   -1.8202   -2.6173 C   0  0  0  0  0  0  0  0  0  0  0  0
   -6.2007   -1.6552   -3.6945 H   0  0  0  0  0  0  0  0  0  0  0  0
   -7.1038   -2.5118   -2.4262 H   0  0  0  0  0  0  0  0  0  0  0  0
   -6.4946   -0.8694   -2.1244 H   0  0  0  0  0  0  0  0  0  0  0  0
   -3.8032   -1.6953   -2.2488 N   0  0  0  0  0  0  0  0  0  0  0  0
   -2.5184   -2.0751   -1.6451 C   0  0  2  0  0  0  0  0  0  0  0  0
   -1.6562   -0.8334   -1.3275 C   0  0  0  0  0  0  0  0  0  0  0  0
   -2.0463    0.2880   -1.6347 O   0  0  0  0  0  0  0  0  0  0  0  0
   -1.7874   -3.0171   -2.6072 C   0  0  0  0  0  0  0  0  0  0  0  0
   -3.8744   -0.7422   -2.6035 H   0  0  0  0  0  0  0  0  0  0  0  0
   -2.6938   -2.5988   -0.6990 H   0  0  0  0  0  0  0  0  0  0  0  0
   -1.5735   -2.5089   -3.5529 H   0  0  0  0  0  0  0  0  0  0  0  0
   -0.8433   -3.3574   -2.1703 H   0  0  0  0  0  0  0  0  0  0  0  0
   -2.4038   -3.8974   -2.8154 H   0  0  0  0  0  0  0  0  0  0  0  0
   -0.4490   -0.9648   -0.6700 N   0  0  0  0  0  0  0  0  0  0  0  0
    0.4677    0.1495   -0.3586 C   0  0  0  0  0  0  0  0  0  0  0  0
    1.2642   -0.1294    0.9201 C   0  0  0  0  0  0  0  0  0  0  0  0
    2.4715    0.0618    0.9442 O   0  0  0  0  0  0  0  0  0  0  0  0
   -0.1373   -1.9198   -0.4561 H   0  0  0  0  0  0  0  0  0  0  0  0
   -0.0889    1.0805   -0.2128 H   0  0  0  0  0  0  0  0  0  0  0  0
    1.1615    0.3007   -1.1913 H   0  0  0  0  0  0  0  0  0  0  0  0
    0.6744   -0.9091    1.8974 N   0  0  0  0  0  0  0  0  0  0  0  0
    1.4274   -2.0154    2.5008 C   0  0  2  0  0  0  0  0  0  0  0  0
    1.4617   -3.2383    1.5525 C   0  0  0  0  0  0  0  0  0  0  0  0
    0.6244   -3.3469    0.6566 O   0  0  0  0  0  0  0  0  0  0  0  0
    0.7527   -2.3740    3.8267 C   0  0  0  0  0  0  0  0  0  0  0  0
   -0.2996   -1.1164    1.6899 H   0  0  0  0  0  0  0  0  0  0  0  0
    2.4573   -1.7054    2.7088 H   0  0  0  0  0  0  0  0  0  0  0  0
   -0.2773   -2.7048    3.6579 H   0  0  0  0  0  0  0  0  0  0  0  0
    1.2977   -3.1789    4.3294 H   0  0  0  0  0  0  0  0  0  0  0  0
    0.7353   -1.5028    4.4894 H   0  0  0  0  0  0  0  0  0  0  0  0
    2.4346   -4.2103    1.6901 N   0  0  0  0  0  0  0  0  0  0  0  0
    2.5684   -5.3412    0.7787 C   0  0  0  0  0  0  0  0  0  0  0  0
    3.1609   -4.0517    2.3831 H   0  0  0  0  0  0  0  0  0  0  0  0
    1.6496   -5.9371    0.7687 H   0  0  0  0  0  0  0  0  0  0  0  0
    2.7731   -4.9918   -0.2388 H   0  0  0  0  0  0  0  0  0  0  0  0
    3.3935   -5.9872    1.0944 H   0  0  0  0  0  0  0  0  0  0  0  0
  1  2  2  0  0  0  0
  1  3  1  0  0  0  0
  1  7  1  0  0  0  0
  3  4  1  0  0  0  0
  3  5  1  0  0  0  0
  3  6  1  0  0  0  0
  7  8  1  0  0  0  0
  7 12  1  0  0  0  0
  8  9  1  0  0  0  0
  8 11  1  0  0  0  0
  8 13  1  0  0  0  0
  9 10  2  0  0  0  0
  9 17  1  0  0  0  0
 11 14  1  0  0  0  0
 11 15  1  0  0  0  0
 11 16  1  0  0  0  0
 17 18  1  0  0  0  0
 17 21  1  0  0  0  0
 18 19  1  0  0  0  0
 18 22  1  0  0  0  0
 18 23  1  0  0  0  0
 19 20  2  0  0  0  0
 19 24  1  0  0  0  0
 24 25  1  0  0  0  0
 24 29  1  0  0  0  0
 25 26  1  0  0  0  0
 25 28  1  0  0  0  0
 25 30  1  0  0  0  0
 26 27  2  0  0  0  0
 26 34  1  0  0  0  0
 28 31  1  0  0  0  0
 28 32  1  0  0  0  0
 28 33  1  0  0  0  0
 34 35  1  0  0  0  0
 34 36  1  0  0  0  0
 35 37  1  0  0  0  0
 35 38  1  0  0  0  0
 35 39  1  0  0  0  0
M  END
$$$$

  -OEChem-05262216283D

 39 38  0     1  0  0  0  0  0999 V2000
   -4.9436   -2.4141   -2.2956 C   0  0  0  0  0  0  0  0  0  0  0  0
   -4.9219   -3.5133   -1.7648 O   0  0  0  0  0  0  0  0  0  0  0  0
   -6.2528   -1.8409   -2.8053 C   0  0  0  0  0  0  0  0  0  0  0  0
   -6.1939   -1.6753   -3.8836 H   0  0  0  0  0  0  0  0  0  0  0  0
   -7.0731   -2.5343   -2.6000 H   0  0  0  0  0  0  0  0  0  0  0  0
   -6.4623   -0.8903   -2.3088 H   0  0  0  0  0  0  0  0  0  0  0  0
   -3.7824   -1.6816   -2.4200 N   0  0  0  0  0  0  0  0  0  0  0  0
   -2.5023   -2.0468   -1.7982 C   0  0  2  0  0  0  0  0  0  0  0  0
   -1.7066   -0.7956   -1.3671 C   0  0  0  0  0  0  0  0  0  0  0  0
   -2.1287    0.3266   -1.6236 O   0  0  0  0  0  0  0  0  0  0  0  0
   -1.7012   -2.8910   -2.7945 C   0  0  0  0  0  0  0  0  0  0  0  0
   -3.8772   -0.7141   -2.7268 H   0  0  0  0  0  0  0  0  0  0  0  0
   -2.6844   -2.6395   -0.8950 H   0  0  0  0  0  0  0  0  0  0  0  0
   -1.4813   -2.3128   -3.6976 H   0  0  0  0  0  0  0  0  0  0  0  0
   -0.7563   -3.2194   -2.3499 H   0  0  0  0  0  0  0  0  0  0  0  0
   -2.2720   -3.7804   -3.0800 H   0  0  0  0  0  0  0  0  0  0  0  0
   -0.5254   -0.9263   -0.6632 N   0  0  0  0  0  0  0  0  0  0  0  0
    0.3565    0.1971   -0.2865 C   0  0  0  0  0  0  0  0  0  0  0  0
    1.1169   -0.0785    1.0174 C   0  0  0  0  0  0  0  0  0  0  0  0
    2.2522    0.3533    1.1557 O   0  0  0  0  0  0  0  0  0  0  0  0
   -0.1489   -1.8773   -0.5730 H   0  0  0  0  0  0  0  0  0  0  0  0
   -0.2281    1.1112   -0.1405 H   0  0  0  0  0  0  0  0  0  0  0  0
    1.0766    0.3853   -1.0885 H   0  0  0  0  0  0  0  0  0  0  0  0
    0.6824   -1.1155    1.8219 N   0  0  0  0  0  0  0  0  0  0  0  0
    1.6167   -2.1656    2.2441 C   0  0  2  0  0  0  0  0  0  0  0  0
    1.7257   -3.2608    1.1572 C   0  0  0  0  0  0  0  0  0  0  0  0
    0.8766   -3.3333    0.2684 O   0  0  0  0  0  0  0  0  0  0  0  0
    1.0994   -2.7516    3.5591 C   0  0  0  0  0  0  0  0  0  0  0  0
   -0.2339   -1.4570    1.5407 H   0  0  0  0  0  0  0  0  0  0  0  0
    2.6147   -1.7487    2.4185 H   0  0  0  0  0  0  0  0  0  0  0  0
    0.1091   -3.1967    3.4187 H   0  0  0  0  0  0  0  0  0  0  0  0
    1.7794   -3.5251    3.9288 H   0  0  0  0  0  0  0  0  0  0  0  0
    1.0244   -1.9666    4.3183 H   0  0  0  0  0  0  0  0  0  0  0  0
    2.7750   -4.1597    1.1662 N   0  0  0  0  0  0  0  0  0  0  0  0
    2.9566   -5.1883    0.1490 C   0  0  0  0  0  0  0  0  0  0  0  0
    3.4921   -4.0391    1.8762 H   0  0  0  0  0  0  0  0  0  0  0  0
    2.0940   -5.8626    0.1276 H   0  0  0  0  0  0  0  0  0  0  0  0
    3.0734   -4.7331   -0.8402 H   0  0  0  0  0  0  0  0  0  0  0  0
    3.8512   -5.7806    0.3645 H   0  0  0  0  0  0  0  0  0  0  0  0
  1  2  2  0  0  0  0
  1  3  1  0  0  0  0
  1  7  1  0  0  0  0
  3  4  1  0  0  0  0
  3  5  1  0  0  0  0
  3  6  1  0  0  0  0
  7  8  1  0  0  0  0
  7 12  1  0  0  0  0
  8  9  1  0  0  0  0
  8 11  1  0  0  0  0
  8 13  1  0  0  0  0
  9 10  2  0  0  0  0
  9 17  1  0  0  0  0
 11 14  1  0  0  0  0
 11 15  1  0  0  0  0
 11 16  1  0  0  0  0
 17 18  1  0  0  0  0
 17 21  1  0  0  0  0
 18 19  1  0  0  0  0
 18 22  1  0  0  0  0
 18 23  1  0  0  0  0
 19 20  2  0  0  0  0
 19 24  1  0  0  0  0
 24 25  1  0  0  0  0
 24 29  1  0  0  0  0
 25 26  1  0  0  0  0
 25 28  1  0  0  0  0
 25 30  1  0  0  0  0
 26 27  2  0  0  0  0
 26 34  1  0  0  0  0
 28 31  1  0  0  0  0
 28 32  1  0  0  0  0
 28 33  1  0  0  0  0
 34 35  1  0  0  0  0
 34 36  1  0  0  0  0
 35 37  1  0  0  0  0
 35 38  1  0  0  0  0
 35 39  1  0  0  0  0
M  END
$$$$

  -OEChem-05262216283D

 39 38  0     1  0  0  0  0  0999 V2000
   -4.9822   -2.5078   -2.3263 C   0  0  0  0  0  0  0  0  0  0  0  0
   -4.5761   -3.6509   -2.1917 O   0  0  0  0  0  0  0  0  0  0  0  0
   -6.4577   -2.2003   -2.1553 C   0  0  0  0  0  0  0  0  0  0  0  0
   -6.8557   -1.7631   -3.0743 H   0  0  0  0  0  0  0  0  0  0  0  0
   -7.0109   -3.1168   -1.9320 H   0  0  0  0  0  0  0  0  0  0  0  0
   -6.5986   -1.4946   -1.3328 H   0  0  0  0  0  0  0  0  0  0  0  0
   -4.1053   -1.4845   -2.6198 N   0  0  0  0  0  0  0  0  0  0  0  0
   -2.6422   -1.6104   -2.5558 C   0  0  2  0  0  0  0  0  0  0  0  0
   -2.0348   -0.5861   -1.5745 C   0  0  0  0  0  0  0  0  0  0  0  0
   -2.6583    0.4289   -1.2865 O   0  0  0  0  0  0  0  0  0  0  0  0
   -2.0916   -1.3978   -3.9684 C   0  0  0  0  0  0  0  0  0  0  0  0
   -4.4768   -0.5404   -2.5251 H   0  0  0  0  0  0  0  0  0  0  0  0
   -2.3535   -2.6085   -2.2094 H   0  0  0  0  0  0  0  0  0  0  0  0
   -2.3696   -0.4071   -4.3423 H   0  0  0  0  0  0  0  0  0  0  0  0
   -1.0003   -1.4783   -3.9735 H   0  0  0  0  0  0  0  0  0  0  0  0
   -2.4958   -2.1536   -4.6495 H   0  0  0  0  0  0  0  0  0  0  0  0
   -0.7811   -0.7962   -1.0276 N   0  0  0  0  0  0  0  0  0  0  0  0
   -0.0593    0.2181   -0.2299 C   0  0  0  0  0  0  0  0  0  0  0  0
    0.8756   -0.3692    0.8359 C   0  0  0  0  0  0  0  0  0  0  0  0
    1.6320    0.3662    1.4523 O   0  0  0  0  0  0  0  0  0  0  0  0
   -0.2477   -1.5690   -1.4205 H   0  0  0  0  0  0  0  0  0  0  0  0
   -0.7718    0.8620    0.2958 H   0  0  0  0  0  0  0  0  0  0  0  0
    0.5302    0.8531   -0.8976 H   0  0  0  0  0  0  0  0  0  0  0  0
    0.9890   -1.7366    0.9912 N   0  0  0  0  0  0  0  0  0  0  0  0
    2.0880   -2.4184    1.6835 C   0  0  2  0  0  0  0  0  0  0  0  0
    2.5047   -3.6953    0.9224 C   0  0  0  0  0  0  0  0  0  0  0  0
    1.8280   -4.0947   -0.0211 O   0  0  0  0  0  0  0  0  0  0  0  0
    1.6254   -2.7499    3.1050 C   0  0  0  0  0  0  0  0  0  0  0  0
    0.4033   -2.3166    0.3944 H   0  0  0  0  0  0  0  0  0  0  0  0
    2.9661   -1.7655    1.7330 H   0  0  0  0  0  0  0  0  0  0  0  0
    0.7520   -3.4096    3.0800 H   0  0  0  0  0  0  0  0  0  0  0  0
    2.4230   -3.2478    3.6646 H   0  0  0  0  0  0  0  0  0  0  0  0
    1.3536   -1.8320    3.6364 H   0  0  0  0  0  0  0  0  0  0  0  0
    3.6466   -4.3870    1.2813 N   0  0  0  0  0  0  0  0  0  0  0  0
    4.0916   -5.6019    0.6090 C   0  0  0  0  0  0  0  0  0  0  0  0
    4.1950   -4.0224    2.0551 H   0  0  0  0  0  0  0  0  0  0  0  0
    3.3311   -6.3859    0.6917 H   0  0  0  0  0  0  0  0  0  0  0  0
    4.2826   -5.4059   -0.4515 H   0  0  0  0  0  0  0  0  0  0  0  0
    5.0168   -5.9688    1.0642 H   0  0  0  0  0  0  0  0  0  0  0  0
  1  2  2  0  0  0  0
  1  3  1  0  0  0  0
  1  7  1  0  0  0  0
  3  4  1  0  0  0  0
  3  5  1  0  0  0  0
  3  6  1  0  0  0  0
  7  8  1  0  0  0  0
  7 12  1  0  0  0  0
  8  9  1  0  0  0  0
  8 11  1  0  0  0  0
  8 13  1  0  0  0  0
  9 10  2  0  0  0  0
  9 17  1  0  0  0  0
 11 14  1  0  0  0  0
 11 15  1  0  0  0  0
 11 16  1  0  0  0  0
 17 18  1  0  0  0  0
 17 21  1  0  0  0  0
 18 19  1  0  0  0  0
 18 22  1  0  0  0  0
 18 23  1  0  0  0  0
 19 20  2  0  0  0  0
 19 24  1  0  0  0  0
 24 25  1  0  0  0  0
 24 29  1  0  0  0  0
 25 26  1  0  0  0  0
 25 28  1  0  0  0  0
 25 30  1  0  0  0  0
 26 27  2  0  0  0  0
 26 34  1  0  0  0  0
 28 31  1  0  0  0  0
 28 32  1  0  0  0  0
 28 33  1  0  0  0  0
 34 35  1  0  0  0  0
 34 36  1  0  0  0  0
 35 37  1  0  0  0  0
 35 38  1  0  0  0  0
 35 39  1  0  0  0  0
M  END
$$$$

  -OEChem-05262216283D

 39 38  0     1  0  0  0  0  0999 V2000
   -5.2365   -2.4176   -2.5846 C   0  0  0  0  0  0  0  0  0  0  0  0
   -4.8663   -3.5603   -2.8028 O   0  0  0  0  0  0  0  0  0  0  0  0
   -6.7166   -2.1039   -2.4739 C   0  0  0  0  0  0  0  0  0  0  0  0
   -6.9996   -1.3678   -3.2303 H   0  0  0  0  0  0  0  0  0  0  0  0
   -7.3069   -3.0116   -2.6275 H   0  0  0  0  0  0  0  0  0  0  0  0
   -6.9400   -1.7026   -1.4823 H   0  0  0  0  0  0  0  0  0  0  0  0
   -4.3075   -1.4118   -2.4224 N   0  0  0  0  0  0  0  0  0  0  0  0
   -2.8576   -1.6315   -2.3347 C   0  0  2  0  0  0  0  0  0  0  0  0
   -2.1816   -0.6038   -1.4019 C   0  0  0  0  0  0  0  0  0  0  0  0
   -2.7981    0.3900   -1.0359 O   0  0  0  0  0  0  0  0  0  0  0  0
   -2.2696   -1.5526   -3.7472 C   0  0  0  0  0  0  0  0  0  0  0  0
   -4.6524   -0.5021   -2.1163 H   0  0  0  0  0  0  0  0  0  0  0  0
   -2.6601   -2.6250   -1.9177 H   0  0  0  0  0  0  0  0  0  0  0  0
   -2.4466   -0.5634   -4.1815 H   0  0  0  0  0  0  0  0  0  0  0  0
   -1.1915   -1.7374   -3.7277 H   0  0  0  0  0  0  0  0  0  0  0  0
   -2.7347   -2.3048   -4.3926 H   0  0  0  0  0  0  0  0  0  0  0  0
   -0.8812   -0.8003   -0.9694 N   0  0  0  0  0  0  0  0  0  0  0  0
   -0.1238    0.1950   -0.1798 C   0  0  0  0  0  0  0  0  0  0  0  0
    0.9175   -0.3988    0.7803 C   0  0  0  0  0  0  0  0  0  0  0  0
    1.4756    0.3259    1.5903 O   0  0  0  0  0  0  0  0  0  0  0  0
   -0.3745   -1.5592   -1.4169 H   0  0  0  0  0  0  0  0  0  0  0  0
   -0.8105    0.7914    0.4303 H   0  0  0  0  0  0  0  0  0  0  0  0
    0.3899    0.8795   -0.8609 H   0  0  0  0  0  0  0  0  0  0  0  0
    1.3279   -1.7134    0.6675 N   0  0  0  0  0  0  0  0  0  0  0  0
    2.4871   -2.2957    1.3530 C   0  0  2  0  0  0  0  0  0  0  0  0
    3.1339   -3.3986    0.4880 C   0  0  0  0  0  0  0  0  0  0  0  0
    2.5656   -3.7889   -0.5279 O   0  0  0  0  0  0  0  0  0  0  0  0
    2.0217   -2.8572    2.6997 C   0  0  0  0  0  0  0  0  0  0  0  0
    0.9299   -2.2685   -0.0853 H   0  0  0  0  0  0  0  0  0  0  0  0
    3.2457   -1.5245    1.5252 H   0  0  0  0  0  0  0  0  0  0  0  0
    1.2622   -3.6313    2.5497 H   0  0  0  0  0  0  0  0  0  0  0  0
    2.8619   -3.2945    3.2474 H   0  0  0  0  0  0  0  0  0  0  0  0
    1.5895   -2.0593    3.3125 H   0  0  0  0  0  0  0  0  0  0  0  0
    4.3618   -3.9349    0.8292 N   0  0  0  0  0  0  0  0  0  0  0  0
    5.0412   -4.9506    0.0340 C   0  0  0  0  0  0  0  0  0  0  0  0
    4.8171   -3.5766    1.6639 H   0  0  0  0  0  0  0  0  0  0  0  0
    4.4196   -5.8478   -0.0546 H   0  0  0  0  0  0  0  0  0  0  0  0
    5.2569   -4.5710   -0.9702 H   0  0  0  0  0  0  0  0  0  0  0  0
    5.9869   -5.2315    0.5073 H   0  0  0  0  0  0  0  0  0  0  0  0
  1  2  2  0  0  0  0
  1  3  1  0  0  0  0
  1  7  1  0  0  0  0
  3  4  1  0  0  0  0
  3  5  1  0  0  0  0
  3  6  1  0  0  0  0
  7  8  1  0  0  0  0
  7 12  1  0  0  0  0
  8  9  1  0  0  0  0
  8 11  1  0  0  0  0
  8 13  1  0  0  0  0
  9 10  2  0  0  0  0
  9 17  1  0  0  0  0
 11 14  1  0  0  0  0
 11 15  1  0  0  0  0
 11 16  1  0  0  0  0
 17 18  1  0  0  0  0
 17 21  1  0  0  0  0
 18 19  1  0  0  0  0
 18 22  1  0  0  0  0
 18 23  1  0  0  0  0
 19 20  2  0  0  0  0
 19 24  1  0  0  0  0
 24 25  1  0  0  0  0
 24 29  1  0  0  0  0
 25 26  1  0  0  0  0
 25 28  1  0  0  0  0
 25 30  1  0  0  0  0
 26 27  2  0  0  0  0
 26 34  1  0  0  0  0
 28 31  1  0  0  0  0
 28 32  1  0  0  0  0
 28 33  1  0  0  0  0
 34 35  1  0  0  0  0
 34 36  1  0  0  0  0
 35 37  1  0  0  0  0
 35 38  1  0  0  0  0
 35 39  1  0  0  0  0
M  END
$$$$

  -OEChem-05262216283D

 39 38  0     1  0  0  0  0  0999 V2000
   -3.6672   -3.4082   -2.7275 C   0  0  0  0  0  0  0  0  0  0  0  0
   -2.8074   -4.2094   -3.0590 O   0  0  0  0  0  0  0  0  0  0  0  0
   -5.1243   -3.8290   -2.6895 C   0  0  0  0  0  0  0  0  0  0  0  0
   -5.7177   -3.1763   -3.3341 H   0  0  0  0  0  0  0  0  0  0  0  0
   -5.2292   -4.8597   -3.0393 H   0  0  0  0  0  0  0  0  0  0  0  0
   -5.5044   -3.7624   -1.6671 H   0  0  0  0  0  0  0  0  0  0  0  0
   -3.3220   -2.1216   -2.3729 N   0  0  0  0  0  0  0  0  0  0  0  0
   -1.9415   -1.6617   -2.1719 C   0  0  2  0  0  0  0  0  0  0  0  0
   -1.8552   -0.6217   -1.0338 C   0  0  0  0  0  0  0  0  0  0  0  0
   -2.8760   -0.1888   -0.5084 O   0  0  0  0  0  0  0  0  0  0  0  0
   -1.4228   -1.0767   -3.4881 C   0  0  0  0  0  0  0  0  0  0  0  0
   -4.0533   -1.5467   -1.9557 H   0  0  0  0  0  0  0  0  0  0  0  0
   -1.3061   -2.5072   -1.8843 H   0  0  0  0  0  0  0  0  0  0  0  0
   -2.0313   -0.2196   -3.7933 H   0  0  0  0  0  0  0  0  0  0  0  0
   -0.3843   -0.7495   -3.3791 H   0  0  0  0  0  0  0  0  0  0  0  0
   -1.4617   -1.8331   -4.2782 H   0  0  0  0  0  0  0  0  0  0  0  0
   -0.6240   -0.2155   -0.5576 N   0  0  0  0  0  0  0  0  0  0  0  0
   -0.4695    0.2998    0.8174 C   0  0  0  0  0  0  0  0  0  0  0  0
    0.9240    0.0073    1.3902 C   0  0  0  0  0  0  0  0  0  0  0  0
    1.0116   -0.4497    2.5183 O   0  0  0  0  0  0  0  0  0  0  0  0
    0.1403   -0.7989   -0.9141 H   0  0  0  0  0  0  0  0  0  0  0  0
   -1.2124   -0.1567    1.4811 H   0  0  0  0  0  0  0  0  0  0  0  0
   -0.6356    1.3806    0.8253 H   0  0  0  0  0  0  0  0  0  0  0  0
    1.9936   -0.0617    0.5096 N   0  0  0  0  0  0  0  0  0  0  0  0
    2.9253   -1.2042    0.4198 C   0  0  2  0  0  0  0  0  0  0  0  0
    2.2310   -2.3953   -0.2841 C   0  0  0  0  0  0  0  0  0  0  0  0
    1.4170   -2.1547   -1.1733 O   0  0  0  0  0  0  0  0  0  0  0  0
    3.5893   -1.5847    1.7546 C   0  0  0  0  0  0  0  0  0  0  0  0
    1.7662    0.3522   -0.3913 H   0  0  0  0  0  0  0  0  0  0  0  0
    3.7404   -0.8937   -0.2408 H   0  0  0  0  0  0  0  0  0  0  0  0
    2.8917   -2.1167    2.4086 H   0  0  0  0  0  0  0  0  0  0  0  0
    4.4532   -2.2324    1.5776 H   0  0  0  0  0  0  0  0  0  0  0  0
    3.9350   -0.6852    2.2736 H   0  0  0  0  0  0  0  0  0  0  0  0
    2.5040   -3.7117    0.0367 N   0  0  0  0  0  0  0  0  0  0  0  0
    1.7990   -4.8390   -0.5646 C   0  0  0  0  0  0  0  0  0  0  0  0
    3.0931   -3.8800    0.8474 H   0  0  0  0  0  0  0  0  0  0  0  0
    0.7271   -4.7817   -0.3472 H   0  0  0  0  0  0  0  0  0  0  0  0
    1.9377   -4.8446   -1.6512 H   0  0  0  0  0  0  0  0  0  0  0  0
    2.1823   -5.7826   -0.1645 H   0  0  0  0  0  0  0  0  0  0  0  0
  1  2  2  0  0  0  0
  1  3  1  0  0  0  0
  1  7  1  0  0  0  0
  3  4  1  0  0  0  0
  3  5  1  0  0  0  0
  3  6  1  0  0  0  0
  7  8  1  0  0  0  0
  7 12  1  0  0  0  0
  8  9  1  0  0  0  0
  8 11  1  0  0  0  0
  8 13  1  0  0  0  0
  9 10  2  0  0  0  0
  9 17  1  0  0  0  0
 11 14  1  0  0  0  0
 11 15  1  0  0  0  0
 11 16  1  0  0  0  0
 17 18  1  0  0  0  0
 17 21  1  0  0  0  0
 18 19  1  0  0  0  0
 18 22  1  0  0  0  0
 18 23  1  0  0  0  0
 19 20  2  0  0  0  0
 19 24  1  0  0  0  0
 24 25  1  0  0  0  0
 24 29  1  0  0  0  0
 25 26  1  0  0  0  0
 25 28  1  0  0  0  0
 25 30  1  0  0  0  0
 26 27  2  0  0  0  0
 26 34  1  0  0  0  0
 28 31  1  0  0  0  0
 28 32  1  0  0  0  0
 28 33  1  0  0  0  0
 34 35  1  0  0  0  0
 34 36  1  0  0  0  0
 35 37  1  0  0  0  0
 35 38  1  0  0  0  0
 35 39  1  0  0  0  0
M  END
$$$$

  -OEChem-05262216283D

 39 38  0     1  0  0  0  0  0999 V2000
   -3.5597   -3.2941   -2.9830 C   0  0  0  0  0  0  0  0  0  0  0  0
   -2.6707   -4.0051   -3.4240 O   0  0  0  0  0  0  0  0  0  0  0  0
   -4.9893   -3.8013   -2.9441 C   0  0  0  0  0  0  0  0  0  0  0  0
   -5.6382   -3.1346   -3.5171 H   0  0  0  0  0  0  0  0  0  0  0  0
   -5.0462   -4.8052   -3.3748 H   0  0  0  0  0  0  0  0  0  0  0  0
   -5.3417   -3.8409   -1.9104 H   0  0  0  0  0  0  0  0  0  0  0  0
   -3.2695   -2.0367   -2.4983 N   0  0  0  0  0  0  0  0  0  0  0  0
   -1.9087   -1.5315   -2.2721 C   0  0  2  0  0  0  0  0  0  0  0  0
   -1.8518   -0.6193   -1.0282 C   0  0  0  0  0  0  0  0  0  0  0  0
   -2.8858   -0.2578   -0.4749 O   0  0  0  0  0  0  0  0  0  0  0  0
   -1.4525   -0.7760   -3.5233 C   0  0  0  0  0  0  0  0  0  0  0  0
   -4.0181   -1.5478   -2.0083 H   0  0  0  0  0  0  0  0  0  0  0  0
   -1.2242   -2.3682   -2.0916 H   0  0  0  0  0  0  0  0  0  0  0  0
   -2.1134    0.0739   -3.7210 H   0  0  0  0  0  0  0  0  0  0  0  0
   -0.4315   -0.4035   -3.3952 H   0  0  0  0  0  0  0  0  0  0  0  0
   -1.4681   -1.4411   -4.3927 H   0  0  0  0  0  0  0  0  0  0  0  0
   -0.6348   -0.2325   -0.5028 N   0  0  0  0  0  0  0  0  0  0  0  0
   -0.5004    0.2084    0.8987 C   0  0  0  0  0  0  0  0  0  0  0  0
    0.8924   -0.1223    1.4443 C   0  0  0  0  0  0  0  0  0  0  0  0
    0.9980   -0.8936    2.3850 O   0  0  0  0  0  0  0  0  0  0  0  0
    0.1606   -0.7441   -0.9017 H   0  0  0  0  0  0  0  0  0  0  0  0
   -1.2438   -0.2896    1.5310 H   0  0  0  0  0  0  0  0  0  0  0  0
   -0.6704    1.2862    0.9699 H   0  0  0  0  0  0  0  0  0  0  0  0
    1.9841    0.1645    0.6388 N   0  0  0  0  0  0  0  0  0  0  0  0
    3.0630   -0.8075    0.3810 C   0  0  2  0  0  0  0  0  0  0  0  0
    2.5014   -2.0467   -0.3595 C   0  0  0  0  0  0  0  0  0  0  0  0
    1.6516   -1.8722   -1.2313 O   0  0  0  0  0  0  0  0  0  0  0  0
    3.8785   -1.1464    1.6415 C   0  0  0  0  0  0  0  0  0  0  0  0
    1.7322    0.7390   -0.1619 H   0  0  0  0  0  0  0  0  0  0  0  0
    3.7636   -0.3333   -0.3131 H   0  0  0  0  0  0  0  0  0  0  0  0
    3.3228   -1.8036    2.3165 H   0  0  0  0  0  0  0  0  0  0  0  0
    4.8093   -1.6503    1.3646 H   0  0  0  0  0  0  0  0  0  0  0  0
    4.1321   -0.2298    2.1828 H   0  0  0  0  0  0  0  0  0  0  0  0
    2.9221   -3.3319   -0.0733 N   0  0  0  0  0  0  0  0  0  0  0  0
    2.3187   -4.5158   -0.6749 C   0  0  0  0  0  0  0  0  0  0  0  0
    3.5028   -3.4497    0.7523 H   0  0  0  0  0  0  0  0  0  0  0  0
    1.2636   -4.5950   -0.3916 H   0  0  0  0  0  0  0  0  0  0  0  0
    2.3876   -4.4706   -1.7670 H   0  0  0  0  0  0  0  0  0  0  0  0
    2.8376   -5.4178   -0.3362 H   0  0  0  0  0  0  0  0  0  0  0  0
  1  2  2  0  0  0  0
  1  3  1  0  0  0  0
  1  7  1  0  0  0  0
  3  4  1  0  0  0  0
  3  5  1  0  0  0  0
  3  6  1  0  0  0  0
  7  8  1  0  0  0  0
  7 12  1  0  0  0  0
  8  9  1  0  0  0  0
  8 11  1  0  0  0  0
  8 13  1  0  0  0  0
  9 10  2  0  0  0  0
  9 17  1  0  0  0  0
 11 14  1  0  0  0  0
 11 15  1  0  0  0  0
 11 16  1  0  0  0  0
 17 18  1  0  0  0  0
 17 21  1  0  0  0  0
 18 19  1  0  0  0  0
 18 22  1  0  0  0  0
 18 23  1  0  0  0  0
 19 20  2  0  0  0  0
 19 24  1  0  0  0  0
 24 25  1  0  0  0  0
 24 29  1  0  0  0  0
 25 26  1  0  0  0  0
 25 28  1  0  0  0  0
 25 30  1  0  0  0  0
 26 27  2  0  0  0  0
 26 34  1  0  0  0  0
 28 31  1  0  0  0  0
 28 32  1  0  0  0  0
 28 33  1  0  0  0  0
 34 35  1  0  0  0  0
 34 36  1  0  0  0  0
 35 37  1  0  0  0  0
 35 38  1  0  0  0  0
 35 39  1  0  0  0  0
M  END
$$$$

  -OEChem-05262216283D

 39 38  0     1  0  0  0  0  0999 V2000
   -3.4583   -3.2074   -3.1189 C   0  0  0  0  0  0  0  0  0  0  0  0
   -2.5409   -3.8557   -3.5967 O   0  0  0  0  0  0  0  0  0  0  0  0
   -4.8755   -3.7456   -3.1741 C   0  0  0  0  0  0  0  0  0  0  0  0
   -5.4898   -3.1127   -3.8191 H   0  0  0  0  0  0  0  0  0  0  0  0
   -4.8757   -4.7633   -3.5745 H   0  0  0  0  0  0  0  0  0  0  0  0
   -5.3083   -3.7622   -2.1707 H   0  0  0  0  0  0  0  0  0  0  0  0
   -3.2113   -1.9902   -2.5209 N   0  0  0  0  0  0  0  0  0  0  0  0
   -1.8687   -1.4603   -2.2486 C   0  0  2  0  0  0  0  0  0  0  0  0
   -1.8424   -0.6331   -0.9458 C   0  0  0  0  0  0  0  0  0  0  0  0
   -2.8867   -0.3369   -0.3733 O   0  0  0  0  0  0  0  0  0  0  0  0
   -1.4299   -0.6087   -3.4435 C   0  0  0  0  0  0  0  0  0  0  0  0
   -3.9806   -1.5595   -2.0094 H   0  0  0  0  0  0  0  0  0  0  0  0
   -1.1607   -2.2868   -2.1196 H   0  0  0  0  0  0  0  0  0  0  0  0
   -2.1101    0.2376   -3.5810 H   0  0  0  0  0  0  0  0  0  0  0  0
   -0.4172   -0.2234   -3.2894 H   0  0  0  0  0  0  0  0  0  0  0  0
   -1.4323   -1.2108   -4.3578 H   0  0  0  0  0  0  0  0  0  0  0  0
   -0.6381   -0.2383   -0.3996 N   0  0  0  0  0  0  0  0  0  0  0  0
   -0.5016    0.2173    0.9949 C   0  0  0  0  0  0  0  0  0  0  0  0
    0.8959   -0.1237    1.5158 C   0  0  0  0  0  0  0  0  0  0  0  0
    1.0445   -1.0739    2.2692 O   0  0  0  0  0  0  0  0  0  0  0  0
    0.1888   -0.6632   -0.8357 H   0  0  0  0  0  0  0  0  0  0  0  0
   -1.2395   -0.2756    1.6375 H   0  0  0  0  0  0  0  0  0  0  0  0
   -0.6678    1.2960    1.0607 H   0  0  0  0  0  0  0  0  0  0  0  0
    1.9790    0.4255    0.8474 N   0  0  0  0  0  0  0  0  0  0  0  0
    3.1570   -0.3820    0.4802 C   0  0  2  0  0  0  0  0  0  0  0  0
    2.7406   -1.5948   -0.3918 C   0  0  0  0  0  0  0  0  0  0  0  0
    1.8854   -1.4289   -1.2602 O   0  0  0  0  0  0  0  0  0  0  0  0
    4.0089   -0.7523    1.7069 C   0  0  0  0  0  0  0  0  0  0  0  0
    1.6993    1.1126    0.1521 H   0  0  0  0  0  0  0  0  0  0  0  0
    3.7922    0.2410   -0.1567 H   0  0  0  0  0  0  0  0  0  0  0  0
    3.5119   -1.4993    2.3323 H   0  0  0  0  0  0  0  0  0  0  0  0
    4.9733   -1.1593    1.3886 H   0  0  0  0  0  0  0  0  0  0  0  0
    4.1960    0.1374    2.3160 H   0  0  0  0  0  0  0  0  0  0  0  0
    3.2894   -2.8515   -0.2169 N   0  0  0  0  0  0  0  0  0  0  0  0
    2.8020   -4.0312   -0.9225 C   0  0  0  0  0  0  0  0  0  0  0  0
    3.8601   -2.9870    0.6129 H   0  0  0  0  0  0  0  0  0  0  0  0
    1.7514   -4.2182   -0.6755 H   0  0  0  0  0  0  0  0  0  0  0  0
    2.8913   -3.8958   -2.0058 H   0  0  0  0  0  0  0  0  0  0  0  0
    3.3866   -4.9113   -0.6375 H   0  0  0  0  0  0  0  0  0  0  0  0
  1  2  2  0  0  0  0
  1  3  1  0  0  0  0
  1  7  1  0  0  0  0
  3  4  1  0  0  0  0
  3  5  1  0  0  0  0
  3  6  1  0  0  0  0
  7  8  1  0  0  0  0
  7 12  1  0  0  0  0
  8  9  1  0  0  0  0
  8 11  1  0  0  0  0
  8 13  1  0  0  0  0
  9 10  2  0  0  0  0
  9 17  1  0  0  0  0
 11 14  1  0  0  0  0
 11 15  1  0  0  0  0
 11 16  1  0  0  0  0
 17 18  1  0  0  0  0
 17 21  1  0  0  0  0
 18 19  1  0  0  0  0
 18 22  1  0  0  0  0
 18 23  1  0  0  0  0
 19 20  2  0  0  0  0
 19 24  1  0  0  0  0
 24 25  1  0  0  0  0
 24 29  1  0  0  0  0
 25 26  1  0  0  0  0
 25 28  1  0  0  0  0
 25 30  1  0  0  0  0
 26 27  2  0  0  0  0
 26 34  1  0  0  0  0
 28 31  1  0  0  0  0
 28 32  1  0  0  0  0
 28 33  1  0  0  0  0
 34 35  1  0  0  0  0
 34 36  1  0  0  0  0
 35 37  1  0  0  0  0
 35 38  1  0  0  0  0
 35 39  1  0  0  0  0
M  END
$$$$

  -OEChem-05262216283D

 39 38  0     1  0  0  0  0  0999 V2000
   -3.4164   -3.1267   -3.2029 C   0  0  0  0  0  0  0  0  0  0  0  0
   -2.4929   -3.7368   -3.7183 O   0  0  0  0  0  0  0  0  0  0  0  0
   -4.8361   -3.6440   -3.3366 C   0  0  0  0  0  0  0  0  0  0  0  0
   -5.4302   -2.9490   -3.9347 H   0  0  0  0  0  0  0  0  0  0  0  0
   -4.8363   -4.6215   -3.8271 H   0  0  0  0  0  0  0  0  0  0  0  0
   -5.2924   -3.7458   -2.3490 H   0  0  0  0  0  0  0  0  0  0  0  0
   -3.1751   -1.9661   -2.4995 N   0  0  0  0  0  0  0  0  0  0  0  0
   -1.8368   -1.4545   -2.1769 C   0  0  2  0  0  0  0  0  0  0  0  0
   -1.8376   -0.6677   -0.8489 C   0  0  0  0  0  0  0  0  0  0  0  0
   -2.8922   -0.4067   -0.2781 O   0  0  0  0  0  0  0  0  0  0  0  0
   -1.3603   -0.5676   -3.3318 C   0  0  0  0  0  0  0  0  0  0  0  0
   -3.9530   -1.5666   -1.9755 H   0  0  0  0  0  0  0  0  0  0  0  0
   -1.1396   -2.2912   -2.0570 H   0  0  0  0  0  0  0  0  0  0  0  0
   -2.0218    0.2965   -3.4488 H   0  0  0  0  0  0  0  0  0  0  0  0
   -0.3432   -0.2087   -3.1455 H   0  0  0  0  0  0  0  0  0  0  0  0
   -1.3564   -1.1338   -4.2686 H   0  0  0  0  0  0  0  0  0  0  0  0
   -0.6479   -0.2491   -0.2901 N   0  0  0  0  0  0  0  0  0  0  0  0
   -0.5207    0.2714    1.0803 C   0  0  0  0  0  0  0  0  0  0  0  0
    0.8721   -0.0595    1.6167 C   0  0  0  0  0  0  0  0  0  0  0  0
    1.0647   -1.1167    2.1993 O   0  0  0  0  0  0  0  0  0  0  0  0
    0.2062   -0.5868   -0.7495 H   0  0  0  0  0  0  0  0  0  0  0  0
   -1.2631   -0.1887    1.7411 H   0  0  0  0  0  0  0  0  0  0  0  0
   -0.6817    1.3527    1.0956 H   0  0  0  0  0  0  0  0  0  0  0  0
    1.9362    0.6865    1.1361 N   0  0  0  0  0  0  0  0  0  0  0  0
    3.1946    0.0388    0.7213 C   0  0  2  0  0  0  0  0  0  0  0  0
    2.9332   -1.0894   -0.3132 C   0  0  0  0  0  0  0  0  0  0  0  0
    2.0703   -0.9221   -1.1741 O   0  0  0  0  0  0  0  0  0  0  0  0
    4.0265   -0.4083    1.9363 C   0  0  0  0  0  0  0  0  0  0  0  0
    1.6383    1.4576    0.5444 H   0  0  0  0  0  0  0  0  0  0  0  0
    3.7919    0.7918    0.1983 H   0  0  0  0  0  0  0  0  0  0  0  0
    3.5746   -1.2691    2.4377 H   0  0  0  0  0  0  0  0  0  0  0  0
    5.0376   -0.6852    1.6223 H   0  0  0  0  0  0  0  0  0  0  0  0
    4.1045    0.4094    2.6594 H   0  0  0  0  0  0  0  0  0  0  0  0
    3.6455   -2.2743   -0.2982 N   0  0  0  0  0  0  0  0  0  0  0  0
    3.3223   -3.4013   -1.1654 C   0  0  0  0  0  0  0  0  0  0  0  0
    4.2204   -2.4467    0.5217 H   0  0  0  0  0  0  0  0  0  0  0  0
    2.3203   -3.7821   -0.9402 H   0  0  0  0  0  0  0  0  0  0  0  0
    3.3569   -3.1000   -2.2180 H   0  0  0  0  0  0  0  0  0  0  0  0
    4.0434   -4.2111   -1.0168 H   0  0  0  0  0  0  0  0  0  0  0  0
  1  2  2  0  0  0  0
  1  3  1  0  0  0  0
  1  7  1  0  0  0  0
  3  4  1  0  0  0  0
  3  5  1  0  0  0  0
  3  6  1  0  0  0  0
  7  8  1  0  0  0  0
  7 12  1  0  0  0  0
  8  9  1  0  0  0  0
  8 11  1  0  0  0  0
  8 13  1  0  0  0  0
  9 10  2  0  0  0  0
  9 17  1  0  0  0  0
 11 14  1  0  0  0  0
 11 15  1  0  0  0  0
 11 16  1  0  0  0  0
 17 18  1  0  0  0  0
 17 21  1  0  0  0  0
 18 19  1  0  0  0  0
 18 22  1  0  0  0  0
 18 23  1  0  0  0  0
 19 20  2  0  0  0  0
 19 24  1  0  0  0  0
 24 25  1  0  0  0  0
 24 29  1  0  0  0  0
 25 26  1  0  0  0  0
 25 28  1  0  0  0  0
 25 30  1  0  0  0  0
 26 27  2  0  0  0  0
 26 34  1  0  0  0  0
 28 31  1  0  0  0  0
 28 32  1  0  0  0  0
 28 33  1  0  0  0  0
 34 35  1  0  0  0  0
 34 36  1  0  0  0  0
 35 37  1  0  0  0  0
 35 38  1  0  0  0  0
 35 39  1  0  0  0  0
M  END
$$$$

  -OEChem-05262216283D

 39 38  0     1  0  0  0  0  0999 V2000
   -3.3263   -3.0738   -3.2530 C   0  0  0  0  0  0  0  0  0  0  0  0
   -2.3827   -3.6327   -3.7900 O   0  0  0  0  0  0  0  0  0  0  0  0
   -4.7344   -3.6015   -3.4543 C   0  0  0  0  0  0  0  0  0  0  0  0
   -5.3700   -2.8182   -3.8742 H   0  0  0  0  0  0  0  0  0  0  0  0
   -4.7237   -4.4523   -4.1412 H   0  0  0  0  0  0  0  0  0  0  0  0
   -5.1510   -3.9259   -2.4979 H   0  0  0  0  0  0  0  0  0  0  0  0
   -3.1167   -1.9656   -2.4598 N   0  0  0  0  0  0  0  0  0  0  0  0
   -1.7920   -1.4567   -2.0793 C   0  0  2  0  0  0  0  0  0  0  0  0
   -1.8317   -0.7153   -0.7253 C   0  0  0  0  0  0  0  0  0  0  0  0
   -2.8982   -0.5145   -0.1523 O   0  0  0  0  0  0  0  0  0  0  0  0
   -1.2814   -0.5298   -3.1885 C   0  0  0  0  0  0  0  0  0  0  0  0
   -3.9106   -1.6159   -1.9241 H   0  0  0  0  0  0  0  0  0  0  0  0
   -1.0964   -2.2955   -1.9665 H   0  0  0  0  0  0  0  0  0  0  0  0
   -1.9450    0.3328   -3.3035 H   0  0  0  0  0  0  0  0  0  0  0  0
   -0.2748   -0.1688   -2.9548 H   0  0  0  0  0  0  0  0  0  0  0  0
   -1.2379   -1.0662   -4.1414 H   0  0  0  0  0  0  0  0  0  0  0  0
   -0.6619   -0.2658   -0.1493 N   0  0  0  0  0  0  0  0  0  0  0  0
   -0.5531    0.3065    1.2003 C   0  0  0  0  0  0  0  0  0  0  0  0
    0.8363   -0.0036    1.7588 C   0  0  0  0  0  0  0  0  0  0  0  0
    1.0984   -1.1334    2.1467 O   0  0  0  0  0  0  0  0  0  0  0  0
    0.2109   -0.4922   -0.6391 H   0  0  0  0  0  0  0  0  0  0  0  0
   -1.2995   -0.1328    1.8703 H   0  0  0  0  0  0  0  0  0  0  0  0
   -0.7201    1.3863    1.1723 H   0  0  0  0  0  0  0  0  0  0  0  0
    1.8508    0.9080    1.5152 N   0  0  0  0  0  0  0  0  0  0  0  0
    3.1713    0.4430    1.0483 C   0  0  2  0  0  0  0  0  0  0  0  0
    3.0440   -0.5343   -0.1546 C   0  0  0  0  0  0  0  0  0  0  0  0
    2.1856   -0.3250   -1.0108 O   0  0  0  0  0  0  0  0  0  0  0  0
    4.0026   -0.1136    2.2168 C   0  0  0  0  0  0  0  0  0  0  0  0
    1.5174    1.7584    1.0702 H   0  0  0  0  0  0  0  0  0  0  0  0
    3.7111    1.3159    0.6691 H   0  0  0  0  0  0  0  0  0  0  0  0
    3.6008   -1.0658    2.5753 H   0  0  0  0  0  0  0  0  0  0  0  0
    5.0392   -0.2720    1.9045 H   0  0  0  0  0  0  0  0  0  0  0  0
    4.0008    0.5958    3.0501 H   0  0  0  0  0  0  0  0  0  0  0  0
    3.8612   -1.6421   -0.2869 N   0  0  0  0  0  0  0  0  0  0  0  0
    3.6424   -2.6660   -1.3024 C   0  0  0  0  0  0  0  0  0  0  0  0
    4.4313   -1.8807    0.5194 H   0  0  0  0  0  0  0  0  0  0  0  0
    2.6873   -3.1744   -1.1323 H   0  0  0  0  0  0  0  0  0  0  0  0
    3.6315   -2.2223   -2.3037 H   0  0  0  0  0  0  0  0  0  0  0  0
    4.4436   -3.4104   -1.2669 H   0  0  0  0  0  0  0  0  0  0  0  0
  1  2  2  0  0  0  0
  1  3  1  0  0  0  0
  1  7  1  0  0  0  0
  3  4  1  0  0  0  0
  3  5  1  0  0  0  0
  3  6  1  0  0  0  0
  7  8  1  0  0  0  0
  7 12  1  0  0  0  0
  8  9  1  0  0  0  0
  8 11  1  0  0  0  0
  8 13  1  0  0  0  0
  9 10  2  0  0  0  0
  9 17  1  0  0  0  0
 11 14  1  0  0  0  0
 11 15  1  0  0  0  0
 11 16  1  0  0  0  0
 17 18  1  0  0  0  0
 17 21  1  0  0  0  0
 18 19  1  0  0  0  0
 18 22  1  0  0  0  0
 18 23  1  0  0  0  0
 19 20  2  0  0  0  0
 19 24  1  0  0  0  0
 24 25  1  0  0  0  0
 24 29  1  0  0  0  0
 25 26  1  0  0  0  0
 25 28  1  0  0  0  0
 25 30  1  0  0  0  0
 26 27  2  0  0  0  0
 26 34  1  0  0  0  0
 28 31  1  0  0  0  0
 28 32  1  0  0  0  0
 28 33  1  0  0  0  0
 34 35  1  0  0  0  0
 34 36  1  0  0  0  0
 35 37  1  0  0  0  0
 35 38  1  0  0  0  0
 35 39  1  0  0  0  0
M  END
$$$$

  -OEChem-05262216283D

 39 38  0     1  0  0  0  0  0999 V2000
   -3.6174   -3.1257   -3.1543 C   0  0  0  0  0  0  0  0  0  0  0  0
   -2.7236   -3.6275   -3.8174 O   0  0  0  0  0  0  0  0  0  0  0  0
   -4.9905   -3.7691   -3.1134 C   0  0  0  0  0  0  0  0  0  0  0  0
   -5.7432   -3.0653   -3.4766 H   0  0  0  0  0  0  0  0  0  0  0  0
   -5.0076   -4.6612   -3.7458 H   0  0  0  0  0  0  0  0  0  0  0  0
   -5.2359   -4.0587   -2.0887 H   0  0  0  0  0  0  0  0  0  0  0  0
   -3.3768   -1.9770   -2.4310 N   0  0  0  0  0  0  0  0  0  0  0  0
   -2.0531   -1.3616   -2.2726 C   0  0  2  0  0  0  0  0  0  0  0  0
   -1.9153   -0.6514   -0.9091 C   0  0  0  0  0  0  0  0  0  0  0  0
   -2.9033   -0.4544   -0.2096 O   0  0  0  0  0  0  0  0  0  0  0  0
   -1.8377   -0.3736   -3.4233 C   0  0  0  0  0  0  0  0  0  0  0  0
   -4.1092   -1.6611   -1.7959 H   0  0  0  0  0  0  0  0  0  0  0  0
   -1.2806   -2.1373   -2.3137 H   0  0  0  0  0  0  0  0  0  0  0  0
   -2.5977    0.4138   -3.3988 H   0  0  0  0  0  0  0  0  0  0  0  0
   -0.8501    0.0919   -3.3533 H   0  0  0  0  0  0  0  0  0  0  0  0
   -1.9048   -0.8929   -4.3847 H   0  0  0  0  0  0  0  0  0  0  0  0
   -0.6761   -0.2380   -0.4565 N   0  0  0  0  0  0  0  0  0  0  0  0
   -0.4327    0.1596    0.9398 C   0  0  0  0  0  0  0  0  0  0  0  0
    1.0083   -0.1346    1.3692 C   0  0  0  0  0  0  0  0  0  0  0  0
    1.3919   -1.2956    1.3990 O   0  0  0  0  0  0  0  0  0  0  0  0
    0.1221   -0.5736   -0.9922 H   0  0  0  0  0  0  0  0  0  0  0  0
   -1.0969   -0.3885    1.6170 H   0  0  0  0  0  0  0  0  0  0  0  0
   -0.6449    1.2256    1.0606 H   0  0  0  0  0  0  0  0  0  0  0  0
    1.9170    0.9043    1.4893 N   0  0  0  0  0  0  0  0  0  0  0  0
    3.3743    0.7899    1.7108 C   0  0  2  0  0  0  0  0  0  0  0  0
    4.1551    0.1889    0.5188 C   0  0  0  0  0  0  0  0  0  0  0  0
    5.0512    0.8387   -0.0022 O   0  0  0  0  0  0  0  0  0  0  0  0
    3.6875    0.0361    3.0118 C   0  0  0  0  0  0  0  0  0  0  0  0
    1.5468    1.8379    1.3321 H   0  0  0  0  0  0  0  0  0  0  0  0
    3.7565    1.8080    1.8392 H   0  0  0  0  0  0  0  0  0  0  0  0
    3.4272   -1.0234    2.9334 H   0  0  0  0  0  0  0  0  0  0  0  0
    4.7565    0.1064    3.2361 H   0  0  0  0  0  0  0  0  0  0  0  0
    3.1302    0.4703    3.8471 H   0  0  0  0  0  0  0  0  0  0  0  0
    3.8405   -1.0554    0.0103 N   0  0  0  0  0  0  0  0  0  0  0  0
    4.5212   -1.6764   -1.1173 C   0  0  0  0  0  0  0  0  0  0  0  0
    3.0573   -1.5405    0.4569 H   0  0  0  0  0  0  0  0  0  0  0  0
    4.4174   -1.0593   -2.0158 H   0  0  0  0  0  0  0  0  0  0  0  0
    5.5862   -1.8044   -0.8980 H   0  0  0  0  0  0  0  0  0  0  0  0
    4.0897   -2.6611   -1.3216 H   0  0  0  0  0  0  0  0  0  0  0  0
  1  2  2  0  0  0  0
  1  3  1  0  0  0  0
  1  7  1  0  0  0  0
  3  4  1  0  0  0  0
  3  5  1  0  0  0  0
  3  6  1  0  0  0  0
  7  8  1  0  0  0  0
  7 12  1  0  0  0  0
  8  9  1  0  0  0  0
  8 11  1  0  0  0  0
  8 13  1  0  0  0  0
  9 10  2  0  0  0  0
  9 17  1  0  0  0  0
 11 14  1  0  0  0  0
 11 15  1  0  0  0  0
 11 16  1  0  0  0  0
 17 18  1  0  0  0  0
 17 21  1  0  0  0  0
 18 19  1  0  0  0  0
 18 22  1  0  0  0  0
 18 23  1  0  0  0  0
 19 20  2  0  0  0  0
 19 24  1  0  0  0  0
 24 25  1  0  0  0  0
 24 29  1  0  0  0  0
 25 26  1  0  0  0  0
 25 28  1  0  0  0  0
 25 30  1  0  0  0  0
 26 27  2  0  0  0  0
 26 34  1  0  0  0  0
 28 31  1  0  0  0  0
 28 32  1  0  0  0  0
 28 33  1  0  0  0  0
 34 35  1  0  0  0  0
 34 36  1  0  0  0  0
 35 37  1  0  0  0  0
 35 38  1  0  0  0  0
 35 39  1  0  0  0  0
M  END
$$$$

  -OEChem-05262216283D

 39 38  0     1  0  0  0  0  0999 V2000
   -3.6320   -3.0619   -3.1877 C   0  0  0  0  0  0  0  0  0  0  0  0
   -2.7345   -3.6049   -3.8122 O   0  0  0  0  0  0  0  0  0  0  0  0
   -5.0411   -3.6217   -3.2367 C   0  0  0  0  0  0  0  0  0  0  0  0
   -5.7337   -2.8586   -3.5998 H   0  0  0  0  0  0  0  0  0  0  0  0
   -5.0813   -4.4829   -3.9097 H   0  0  0  0  0  0  0  0  0  0  0  0
   -5.3511   -3.9397   -2.2383 H   0  0  0  0  0  0  0  0  0  0  0  0
   -3.3641   -1.9429   -2.4280 N   0  0  0  0  0  0  0  0  0  0  0  0
   -2.0190   -1.3994   -2.2005 C   0  0  2  0  0  0  0  0  0  0  0  0
   -1.9215   -0.6616   -0.8482 C   0  0  0  0  0  0  0  0  0  0  0  0
   -2.9286   -0.4504   -0.1804 O   0  0  0  0  0  0  0  0  0  0  0  0
   -1.6723   -0.4541   -3.3562 C   0  0  0  0  0  0  0  0  0  0  0  0
   -4.1084   -1.5964   -1.8235 H   0  0  0  0  0  0  0  0  0  0  0  0
   -1.2935   -2.2198   -2.1751 H   0  0  0  0  0  0  0  0  0  0  0  0
   -2.3790    0.3811   -3.3923 H   0  0  0  0  0  0  0  0  0  0  0  0
   -0.6620   -0.0517   -3.2363 H   0  0  0  0  0  0  0  0  0  0  0  0
   -1.7158   -0.9887   -4.3105 H   0  0  0  0  0  0  0  0  0  0  0  0
   -0.6982   -0.2244   -0.3770 N   0  0  0  0  0  0  0  0  0  0  0  0
   -0.4920    0.2184    1.0104 C   0  0  0  0  0  0  0  0  0  0  0  0
    0.9401   -0.0490    1.4880 C   0  0  0  0  0  0  0  0  0  0  0  0
    1.4249   -1.1600    1.3180 O   0  0  0  0  0  0  0  0  0  0  0  0
    0.1170   -0.5826   -0.8719 H   0  0  0  0  0  0  0  0  0  0  0  0
   -1.1696   -0.3115    1.6881 H   0  0  0  0  0  0  0  0  0  0  0  0
   -0.7145    1.2861    1.0873 H   0  0  0  0  0  0  0  0  0  0  0  0
    1.7384    1.0068    1.8972 N   0  0  0  0  0  0  0  0  0  0  0  0
    3.1738    0.9543    2.2457 C   0  0  2  0  0  0  0  0  0  0  0  0
    4.1123    0.6425    1.0561 C   0  0  0  0  0  0  0  0  0  0  0  0
    4.9618    1.4612    0.7314 O   0  0  0  0  0  0  0  0  0  0  0  0
    3.4259   -0.0035    3.4192 C   0  0  0  0  0  0  0  0  0  0  0  0
    1.2959    1.9220    1.9060 H   0  0  0  0  0  0  0  0  0  0  0  0
    3.4529    1.9548    2.5928 H   0  0  0  0  0  0  0  0  0  0  0  0
    3.2506   -1.0441    3.1316 H   0  0  0  0  0  0  0  0  0  0  0  0
    4.4629    0.0848    3.7582 H   0  0  0  0  0  0  0  0  0  0  0  0
    2.7669    0.2414    4.2576 H   0  0  0  0  0  0  0  0  0  0  0  0
    3.9948   -0.5299    0.3361 N   0  0  0  0  0  0  0  0  0  0  0  0
    4.8073   -0.8584   -0.8271 C   0  0  0  0  0  0  0  0  0  0  0  0
    3.2140   -1.1396    0.5941 H   0  0  0  0  0  0  0  0  0  0  0  0
    4.6326   -0.1379   -1.6328 H   0  0  0  0  0  0  0  0  0  0  0  0
    5.8708   -0.8453   -0.5668 H   0  0  0  0  0  0  0  0  0  0  0  0
    4.5547   -1.8580   -1.1937 H   0  0  0  0  0  0  0  0  0  0  0  0
  1  2  2  0  0  0  0
  1  3  1  0  0  0  0
  1  7  1  0  0  0  0
  3  4  1  0  0  0  0
  3  5  1  0  0  0  0
  3  6  1  0  0  0  0
  7  8  1  0  0  0  0
  7 12  1  0  0  0  0
  8  9  1  0  0  0  0
  8 11  1  0  0  0  0
  8 13  1  0  0  0  0
  9 10  2  0  0  0  0
  9 17  1  0  0  0  0
 11 14  1  0  0  0  0
 11 15  1  0  0  0  0
 11 16  1  0  0  0  0
 17 18  1  0  0  0  0
 17 21  1  0  0  0  0
 18 19  1  0  0  0  0
 18 22  1  0  0  0  0
 18 23  1  0  0  0  0
 19 20  2  0  0  0  0
 19 24  1  0  0  0  0
 24 25  1  0  0  0  0
 24 29  1  0  0  0  0
 25 26  1  0  0  0  0
 25 28  1  0  0  0  0
 25 30  1  0  0  0  0
 26 27  2  0  0  0  0
 26 34  1  0  0  0  0
 28 31  1  0  0  0  0
 28 32  1  0  0  0  0
 28 33  1  0  0  0  0
 34 35  1  0  0  0  0
 34 36  1  0  0  0  0
 35 37  1  0  0  0  0
 35 38  1  0  0  0  0
 35 39  1  0  0  0  0
M  END
$$$$

  -OEChem-05262216283D

 39 38  0     1  0  0  0  0  0999 V2000
   -3.6228   -3.0101   -3.1947 C   0  0  0  0  0  0  0  0  0  0  0  0
   -2.7222   -3.6097   -3.7600 O   0  0  0  0  0  0  0  0  0  0  0  0
   -5.0545   -3.4968   -3.3135 C   0  0  0  0  0  0  0  0  0  0  0  0
   -5.6894   -2.6964   -3.7011 H   0  0  0  0  0  0  0  0  0  0  0  0
   -5.1077   -4.3497   -3.9960 H   0  0  0  0  0  0  0  0  0  0  0  0
   -5.4258   -3.8055   -2.3335 H   0  0  0  0  0  0  0  0  0  0  0  0
   -3.3400   -1.8902   -2.4420 N   0  0  0  0  0  0  0  0  0  0  0  0
   -1.9845   -1.4055   -2.1509 C   0  0  2  0  0  0  0  0  0  0  0  0
   -1.9326   -0.6319   -0.8151 C   0  0  0  0  0  0  0  0  0  0  0  0
   -2.9639   -0.3902   -0.1960 O   0  0  0  0  0  0  0  0  0  0  0  0
   -1.5225   -0.5166   -3.3119 C   0  0  0  0  0  0  0  0  0  0  0  0
   -4.0969   -1.4980   -1.8828 H   0  0  0  0  0  0  0  0  0  0  0  0
   -1.3040   -2.2591   -2.0585 H   0  0  0  0  0  0  0  0  0  0  0  0
   -2.1843    0.3488   -3.4190 H   0  0  0  0  0  0  0  0  0  0  0  0
   -0.5029   -0.1576   -3.1424 H   0  0  0  0  0  0  0  0  0  0  0  0
   -1.5336   -1.0813   -4.2497 H   0  0  0  0  0  0  0  0  0  0  0  0
   -0.7260   -0.2011   -0.2967 N   0  0  0  0  0  0  0  0  0  0  0  0
   -0.5747    0.2624    1.0913 C   0  0  0  0  0  0  0  0  0  0  0  0
    0.8320   -0.0126    1.6388 C   0  0  0  0  0  0  0  0  0  0  0  0
    1.4207   -1.0266    1.2837 O   0  0  0  0  0  0  0  0  0  0  0  0
    0.1079   -0.5829   -0.7412 H   0  0  0  0  0  0  0  0  0  0  0  0
   -1.2901   -0.2454    1.7467 H   0  0  0  0  0  0  0  0  0  0  0  0
   -0.7823    1.3353    1.1368 H   0  0  0  0  0  0  0  0  0  0  0  0
    1.5009    0.9724    2.3472 N   0  0  0  0  0  0  0  0  0  0  0  0
    2.8996    0.9330    2.8243 C   0  0  2  0  0  0  0  0  0  0  0  0
    3.9632    0.9633    1.7019 C   0  0  0  0  0  0  0  0  0  0  0  0
    4.7868    1.8679    1.6791 O   0  0  0  0  0  0  0  0  0  0  0  0
    3.1333   -0.2520    3.7716 C   0  0  0  0  0  0  0  0  0  0  0  0
    0.9807    1.8294    2.5162 H   0  0  0  0  0  0  0  0  0  0  0  0
    3.0588    1.8418    3.4140 H   0  0  0  0  0  0  0  0  0  0  0  0
    3.0923   -1.2046    3.2358 H   0  0  0  0  0  0  0  0  0  0  0  0
    4.1194   -0.1669    4.2390 H   0  0  0  0  0  0  0  0  0  0  0  0
    2.3766   -0.2630    4.5616 H   0  0  0  0  0  0  0  0  0  0  0  0
    3.9907   -0.0004    0.7137 N   0  0  0  0  0  0  0  0  0  0  0  0
    4.9356   -0.0100   -0.3946 C   0  0  0  0  0  0  0  0  0  0  0  0
    3.2389   -0.6944    0.7415 H   0  0  0  0  0  0  0  0  0  0  0  0
    4.8258    0.8958   -1.0001 H   0  0  0  0  0  0  0  0  0  0  0  0
    5.9639   -0.0628   -0.0214 H   0  0  0  0  0  0  0  0  0  0  0  0
    4.7556   -0.8792   -1.0347 H   0  0  0  0  0  0  0  0  0  0  0  0
  1  2  2  0  0  0  0
  1  3  1  0  0  0  0
  1  7  1  0  0  0  0
  3  4  1  0  0  0  0
  3  5  1  0  0  0  0
  3  6  1  0  0  0  0
  7  8  1  0  0  0  0
  7 12  1  0  0  0  0
  8  9  1  0  0  0  0
  8 11  1  0  0  0  0
  8 13  1  0  0  0  0
  9 10  2  0  0  0  0
  9 17  1  0  0  0  0
 11 14  1  0  0  0  0
 11 15  1  0  0  0  0
 11 16  1  0  0  0  0
 17 18  1  0  0  0  0
 17 21  1  0  0  0  0
 18 19  1  0  0  0  0
 18 22  1  0  0  0  0
 18 23  1  0  0  0  0
 19 20  2  0  0  0  0
 19 24  1  0  0  0  0
 24 25  1  0  0  0  0
 24 29  1  0  0  0  0
 25 26  1  0  0  0  0
 25 28  1  0  0  0  0
 25 30  1  0  0  0  0
 26 27  2  0  0  0  0
 26 34  1  0  0  0  0
 28 31  1  0  0  0  0
 28 32  1  0  0  0  0
 28 33  1  0  0  0  0
 34 35  1  0  0  0  0
 34 36  1  0  0  0  0
 35 37  1  0  0  0  0
 35 38  1  0  0  0  0
 35 39  1  0  0  0  0
M  END
$$$$

  -OEChem-05262216283D

 39 38  0     1  0  0  0  0  0999 V2000
   -3.6099   -2.9704   -3.1968 C   0  0  0  0  0  0  0  0  0  0  0  0
   -2.6971   -3.5806   -3.7300 O   0  0  0  0  0  0  0  0  0  0  0  0
   -5.0381   -3.4634   -3.3307 C   0  0  0  0  0  0  0  0  0  0  0  0
   -5.6668   -2.6751   -3.7516 H   0  0  0  0  0  0  0  0  0  0  0  0
   -5.0764   -4.3341   -3.9912 H   0  0  0  0  0  0  0  0  0  0  0  0
   -5.4282   -3.7469   -2.3503 H   0  0  0  0  0  0  0  0  0  0  0  0
   -3.3448   -1.8332   -2.4645 N   0  0  0  0  0  0  0  0  0  0  0  0
   -1.9963   -1.3444   -2.1491 C   0  0  2  0  0  0  0  0  0  0  0  0
   -1.9682   -0.5861   -0.8041 C   0  0  0  0  0  0  0  0  0  0  0  0
   -3.0124   -0.3390   -0.2088 O   0  0  0  0  0  0  0  0  0  0  0  0
   -1.5305   -0.4372   -3.2931 C   0  0  0  0  0  0  0  0  0  0  0  0
   -4.1150   -1.4294   -1.9325 H   0  0  0  0  0  0  0  0  0  0  0  0
   -1.3096   -2.1933   -2.0585 H   0  0  0  0  0  0  0  0  0  0  0  0
   -2.1932    0.4289   -3.3879 H   0  0  0  0  0  0  0  0  0  0  0  0
   -0.5123   -0.0801   -3.1123 H   0  0  0  0  0  0  0  0  0  0  0  0
   -1.5378   -0.9866   -4.2400 H   0  0  0  0  0  0  0  0  0  0  0  0
   -0.7711   -0.1728   -0.2509 N   0  0  0  0  0  0  0  0  0  0  0  0
   -0.6525    0.2958    1.1385 C   0  0  0  0  0  0  0  0  0  0  0  0
    0.7303    0.0038    1.7376 C   0  0  0  0  0  0  0  0  0  0  0  0
    1.4228   -0.8805    1.2468 O   0  0  0  0  0  0  0  0  0  0  0  0
    0.0741   -0.5573   -0.6729 H   0  0  0  0  0  0  0  0  0  0  0  0
   -1.3980   -0.1951    1.7729 H   0  0  0  0  0  0  0  0  0  0  0  0
   -0.8410    1.3727    1.1699 H   0  0  0  0  0  0  0  0  0  0  0  0
    1.2512    0.8448    2.7073 N   0  0  0  0  0  0  0  0  0  0  0  0
    2.5816    0.7547    3.3456 C   0  0  2  0  0  0  0  0  0  0  0  0
    3.7713    1.0754    2.4114 C   0  0  0  0  0  0  0  0  0  0  0  0
    4.5649    1.9511    2.7284 O   0  0  0  0  0  0  0  0  0  0  0  0
    2.7764   -0.6024    4.0372 C   0  0  0  0  0  0  0  0  0  0  0  0
    0.6488    1.6081    3.0043 H   0  0  0  0  0  0  0  0  0  0  0  0
    2.6057    1.5149    4.1335 H   0  0  0  0  0  0  0  0  0  0  0  0
    2.8708   -1.4130    3.3088 H   0  0  0  0  0  0  0  0  0  0  0  0
    3.6871   -0.5844    4.6440 H   0  0  0  0  0  0  0  0  0  0  0  0
    1.9281   -0.8213    4.6926 H   0  0  0  0  0  0  0  0  0  0  0  0
    3.9501    0.4009    1.2204 N   0  0  0  0  0  0  0  0  0  0  0  0
    5.0318    0.6683    0.2829 C   0  0  0  0  0  0  0  0  0  0  0  0
    3.2378   -0.2950    0.9853 H   0  0  0  0  0  0  0  0  0  0  0  0
    4.9623    1.6915   -0.1005 H   0  0  0  0  0  0  0  0  0  0  0  0
    6.0031    0.5395    0.7718 H   0  0  0  0  0  0  0  0  0  0  0  0
    4.9771   -0.0237   -0.5629 H   0  0  0  0  0  0  0  0  0  0  0  0
  1  2  2  0  0  0  0
  1  3  1  0  0  0  0
  1  7  1  0  0  0  0
  3  4  1  0  0  0  0
  3  5  1  0  0  0  0
  3  6  1  0  0  0  0
  7  8  1  0  0  0  0
  7 12  1  0  0  0  0
  8  9  1  0  0  0  0
  8 11  1  0  0  0  0
  8 13  1  0  0  0  0
  9 10  2  0  0  0  0
  9 17  1  0  0  0  0
 11 14  1  0  0  0  0
 11 15  1  0  0  0  0
 11 16  1  0  0  0  0
 17 18  1  0  0  0  0
 17 21  1  0  0  0  0
 18 19  1  0  0  0  0
 18 22  1  0  0  0  0
 18 23  1  0  0  0  0
 19 20  2  0  0  0  0
 19 24  1  0  0  0  0
 24 25  1  0  0  0  0
 24 29  1  0  0  0  0
 25 26  1  0  0  0  0
 25 28  1  0  0  0  0
 25 30  1  0  0  0  0
 26 27  2  0  0  0  0
 26 34  1  0  0  0  0
 28 31  1  0  0  0  0
 28 32  1  0  0  0  0
 28 33  1  0  0  0  0
 34 35  1  0  0  0  0
 34 36  1  0  0  0  0
 35 37  1  0  0  0  0
 35 38  1  0  0  0  0
 35 39  1  0  0  0  0
M  END
$$$$

  -OEChem-05262216283D

 39 38  0     1  0  0  0  0  0999 V2000
   -3.6292   -2.9044   -3.2514 C   0  0  0  0  0  0  0  0  0  0  0  0
   -2.7124   -3.5154   -3.7768 O   0  0  0  0  0  0  0  0  0  0  0  0
   -5.0619   -3.3653   -3.4445 C   0  0  0  0  0  0  0  0  0  0  0  0
   -5.6515   -2.5694   -3.9061 H   0  0  0  0  0  0  0  0  0  0  0  0
   -5.0910   -4.2458   -4.0926 H   0  0  0  0  0  0  0  0  0  0  0  0
   -5.5035   -3.6238   -2.4789 H   0  0  0  0  0  0  0  0  0  0  0  0
   -3.3638   -1.7983   -2.4725 N   0  0  0  0  0  0  0  0  0  0  0  0
   -2.0163   -1.3449   -2.1033 C   0  0  2  0  0  0  0  0  0  0  0  0
   -2.0189   -0.6066   -0.7469 C   0  0  0  0  0  0  0  0  0  0  0  0
   -3.0765   -0.3665   -0.1730 O   0  0  0  0  0  0  0  0  0  0  0  0
   -1.4885   -0.4333   -3.2166 C   0  0  0  0  0  0  0  0  0  0  0  0
   -4.1423   -1.3920   -1.9546 H   0  0  0  0  0  0  0  0  0  0  0  0
   -1.3518   -2.2100   -2.0019 H   0  0  0  0  0  0  0  0  0  0  0  0
   -2.1331    0.4439   -3.3311 H   0  0  0  0  0  0  0  0  0  0  0  0
   -0.4737   -0.0941   -2.9887 H   0  0  0  0  0  0  0  0  0  0  0  0
   -1.4623   -0.9727   -4.1689 H   0  0  0  0  0  0  0  0  0  0  0  0
   -0.8359   -0.2029   -0.1577 N   0  0  0  0  0  0  0  0  0  0  0  0
   -0.7479    0.2771    1.2297 C   0  0  0  0  0  0  0  0  0  0  0  0
    0.6122   -0.0257    1.8744 C   0  0  0  0  0  0  0  0  0  0  0  0
    1.4118   -0.7466    1.2875 O   0  0  0  0  0  0  0  0  0  0  0  0
    0.0253   -0.5619   -0.5703 H   0  0  0  0  0  0  0  0  0  0  0  0
   -1.5191   -0.1968    1.8454 H   0  0  0  0  0  0  0  0  0  0  0  0
   -0.9189    1.3572    1.2470 H   0  0  0  0  0  0  0  0  0  0  0  0
    0.9737    0.6182    3.0465 N   0  0  0  0  0  0  0  0  0  0  0  0
    2.2433    0.4737    3.7903 C   0  0  2  0  0  0  0  0  0  0  0  0
    3.4814    1.0601    3.0740 C   0  0  0  0  0  0  0  0  0  0  0  0
    4.1731    1.8882    3.6510 O   0  0  0  0  0  0  0  0  0  0  0  0
    2.4884   -0.9856    4.2004 C   0  0  0  0  0  0  0  0  0  0  0  0
    0.2843    1.2579    3.4328 H   0  0  0  0  0  0  0  0  0  0  0  0
    2.1335    1.0468    4.7171 H   0  0  0  0  0  0  0  0  0  0  0  0
    2.7074   -1.6125    3.3315 H   0  0  0  0  0  0  0  0  0  0  0  0
    3.3416   -1.0434    4.8835 H   0  0  0  0  0  0  0  0  0  0  0  0
    1.6099   -1.3916    4.7102 H   0  0  0  0  0  0  0  0  0  0  0  0
    3.8156    0.6763    1.7910 N   0  0  0  0  0  0  0  0  0  0  0  0
    4.9486    1.2099    1.0484 C   0  0  0  0  0  0  0  0  0  0  0  0
    3.1833    0.0105    1.3392 H   0  0  0  0  0  0  0  0  0  0  0  0
    4.8274    2.2859    0.8873 H   0  0  0  0  0  0  0  0  0  0  0  0
    5.8810    1.0373    1.5958 H   0  0  0  0  0  0  0  0  0  0  0  0
    5.0253    0.7192    0.0735 H   0  0  0  0  0  0  0  0  0  0  0  0
  1  2  2  0  0  0  0
  1  3  1  0  0  0  0
  1  7  1  0  0  0  0
  3  4  1  0  0  0  0
  3  5  1  0  0  0  0
  3  6  1  0  0  0  0
  7  8  1  0  0  0  0
  7 12  1  0  0  0  0
  8  9  1  0  0  0  0
  8 11  1  0  0  0  0
  8 13  1  0  0  0  0
  9 10  2  0  0  0  0
  9 17  1  0  0  0  0
 11 14  1  0  0  0  0
 11 15  1  0  0  0  0
 11 16  1  0  0  0  0
 17 18  1  0  0  0  0
 17 21  1  0  0  0  0
 18 19  1  0  0  0  0
 18 22  1  0  0  0  0
 18 23  1  0  0  0  0
 19 20  2  0  0  0  0
 19 24  1  0  0  0  0
 24 25  1  0  0  0  0
 24 29  1  0  0  0  0
 25 26  1  0  0  0  0
 25 28  1  0  0  0  0
 25 30  1  0  0  0  0
 26 27  2  0  0  0  0
 26 34  1  0  0  0  0
 28 31  1  0  0  0  0
 28 32  1  0  0  0  0
 28 33  1  0  0  0  0
 34 35  1  0  0  0  0
 34 36  1  0  0  0  0
 35 37  1  0  0  0  0
 35 38  1  0  0  0  0
 35 39  1  0  0  0  0
M  END
$$$$

  -OEChem-05262216283D

 39 38  0     1  0  0  0  0  0999 V2000
   -4.9324   -2.7454   -2.1585 C   0  0  0  0  0  0  0  0  0  0  0  0
   -4.5805   -3.8947   -1.9449 O   0  0  0  0  0  0  0  0  0  0  0  0
   -6.4081   -2.4076   -2.2590 C   0  0  0  0  0  0  0  0  0  0  0  0
   -6.6256   -1.9729   -3.2376 H   0  0  0  0  0  0  0  0  0  0  0  0
   -7.0109   -3.3113   -2.1334 H   0  0  0  0  0  0  0  0  0  0  0  0
   -6.6812   -1.6913   -1.4804 H   0  0  0  0  0  0  0  0  0  0  0  0
   -3.9901   -1.7493   -2.3026 N   0  0  0  0  0  0  0  0  0  0  0  0
   -2.5510   -1.9292   -2.0706 C   0  0  2  0  0  0  0  0  0  0  0  0
   -1.8998   -0.6395   -1.5276 C   0  0  0  0  0  0  0  0  0  0  0  0
   -2.5302    0.4128   -1.5000 O   0  0  0  0  0  0  0  0  0  0  0  0
   -1.8968   -2.3524   -3.3892 C   0  0  0  0  0  0  0  0  0  0  0  0
   -4.3280   -0.7884   -2.3454 H   0  0  0  0  0  0  0  0  0  0  0  0
   -2.3917   -2.7134   -1.3222 H   0  0  0  0  0  0  0  0  0  0  0  0
   -2.0286   -1.5751   -4.1486 H   0  0  0  0  0  0  0  0  0  0  0  0
   -0.8254   -2.5266   -3.2501 H   0  0  0  0  0  0  0  0  0  0  0  0
   -2.3504   -3.2789   -3.7557 H   0  0  0  0  0  0  0  0  0  0  0  0
   -0.6076   -0.6535   -1.0427 N   0  0  0  0  0  0  0  0  0  0  0  0
    0.0318    0.4858   -0.3713 C   0  0  0  0  0  0  0  0  0  0  0  0
    1.3087    0.0756    0.3760 C   0  0  0  0  0  0  0  0  0  0  0  0
    1.6850   -1.0915    0.3546 O   0  0  0  0  0  0  0  0  0  0  0  0
   -0.1264   -1.5520   -0.9887 H   0  0  0  0  0  0  0  0  0  0  0  0
   -0.6613    0.9279    0.3512 H   0  0  0  0  0  0  0  0  0  0  0  0
    0.2852    1.2520   -1.1098 H   0  0  0  0  0  0  0  0  0  0  0  0
    2.0456    1.0157    1.0680 N   0  0  0  0  0  0  0  0  0  0  0  0
    3.1627    0.6923    1.9656 C   0  0  2  0  0  0  0  0  0  0  0  0
    3.1472    1.5848    3.2241 C   0  0  0  0  0  0  0  0  0  0  0  0
    2.4428    2.5882    3.2559 O   0  0  0  0  0  0  0  0  0  0  0  0
    4.4706    0.8707    1.1901 C   0  0  0  0  0  0  0  0  0  0  0  0
    1.6242    1.9368    1.1911 H   0  0  0  0  0  0  0  0  0  0  0  0
    3.0845   -0.3463    2.3044 H   0  0  0  0  0  0  0  0  0  0  0  0
    4.5790    1.9070    0.8541 H   0  0  0  0  0  0  0  0  0  0  0  0
    5.3286    0.6170    1.8199 H   0  0  0  0  0  0  0  0  0  0  0  0
    4.4820    0.2164    0.3127 H   0  0  0  0  0  0  0  0  0  0  0  0
    3.9069    1.2522    4.3302 N   0  0  0  0  0  0  0  0  0  0  0  0
    3.8917    2.0187    5.5703 C   0  0  0  0  0  0  0  0  0  0  0  0
    4.4465    0.3924    4.2894 H   0  0  0  0  0  0  0  0  0  0  0  0
    2.8906    2.0077    6.0141 H   0  0  0  0  0  0  0  0  0  0  0  0
    4.5948    1.5879    6.2899 H   0  0  0  0  0  0  0  0  0  0  0  0
    4.1830    3.0579    5.3833 H   0  0  0  0  0  0  0  0  0  0  0  0
  1  2  2  0  0  0  0
  1  3  1  0  0  0  0
  1  7  1  0  0  0  0
  3  4  1  0  0  0  0
  3  5  1  0  0  0  0
  3  6  1  0  0  0  0
  7  8  1  0  0  0  0
  7 12  1  0  0  0  0
  8  9  1  0  0  0  0
  8 11  1  0  0  0  0
  8 13  1  0  0  0  0
  9 10  2  0  0  0  0
  9 17  1  0  0  0  0
 11 14  1  0  0  0  0
 11 15  1  0  0  0  0
 11 16  1  0  0  0  0
 17 18  1  0  0  0  0
 17 21  1  0  0  0  0
 18 19  1  0  0  0  0
 18 22  1  0  0  0  0
 18 23  1  0  0  0  0
 19 20  2  0  0  0  0
 19 24  1  0  0  0  0
 24 25  1  0  0  0  0
 24 29  1  0  0  0  0
 25 26  1  0  0  0  0
 25 28  1  0  0  0  0
 25 30  1  0  0  0  0
 26 27  2  0  0  0  0
 26 34  1  0  0  0  0
 28 31  1  0  0  0  0
 28 32  1  0  0  0  0
 28 33  1  0  0  0  0
 34 35  1  0  0  0  0
 34 36  1  0  0  0  0
 35 37  1  0  0  0  0
 35 38  1  0  0  0  0
 35 39  1  0  0  0  0
M  END
$$$$

  -OEChem-05262216283D

 39 38  0     1  0  0  0  0  0999 V2000
   -4.8553   -2.7805   -2.1793 C   0  0  0  0  0  0  0  0  0  0  0  0
   -4.4505   -3.9297   -2.1036 O   0  0  0  0  0  0  0  0  0  0  0  0
   -6.3437   -2.4914   -2.1292 C   0  0  0  0  0  0  0  0  0  0  0  0
   -6.6610   -2.0125   -3.0586 H   0  0  0  0  0  0  0  0  0  0  0  0
   -6.9050   -3.4213   -2.0020 H   0  0  0  0  0  0  0  0  0  0  0  0
   -6.5671   -1.8280   -1.2899 H   0  0  0  0  0  0  0  0  0  0  0  0
   -3.9612   -1.7378   -2.2952 N   0  0  0  0  0  0  0  0  0  0  0  0
   -2.5041   -1.8763   -2.1753 C   0  0  2  0  0  0  0  0  0  0  0  0
   -1.8725   -0.6314   -1.5169 C   0  0  0  0  0  0  0  0  0  0  0  0
   -2.5133    0.4104   -1.4201 O   0  0  0  0  0  0  0  0  0  0  0  0
   -1.9241   -2.0989   -3.5746 C   0  0  0  0  0  0  0  0  0  0  0  0
   -4.3362   -0.7924   -2.2265 H   0  0  0  0  0  0  0  0  0  0  0  0
   -2.2634   -2.7385   -1.5439 H   0  0  0  0  0  0  0  0  0  0  0  0
   -2.1510   -1.2463   -4.2228 H   0  0  0  0  0  0  0  0  0  0  0  0
   -0.8379   -2.2212   -3.5253 H   0  0  0  0  0  0  0  0  0  0  0  0
   -2.3524   -3.0012   -4.0227 H   0  0  0  0  0  0  0  0  0  0  0  0
   -0.5878   -0.6704   -1.0121 N   0  0  0  0  0  0  0  0  0  0  0  0
    0.0590    0.4492   -0.3134 C   0  0  0  0  0  0  0  0  0  0  0  0
    1.3188    0.0138    0.4482 C   0  0  0  0  0  0  0  0  0  0  0  0
    1.8113   -1.0902    0.2427 O   0  0  0  0  0  0  0  0  0  0  0  0
   -0.0771   -1.5528   -1.0554 H   0  0  0  0  0  0  0  0  0  0  0  0
   -0.6406    0.8902    0.4036 H   0  0  0  0  0  0  0  0  0  0  0  0
    0.3361    1.2235   -1.0346 H   0  0  0  0  0  0  0  0  0  0  0  0
    1.8794    0.8414    1.4005 N   0  0  0  0  0  0  0  0  0  0  0  0
    2.9526    0.4420    2.3198 C   0  0  2  0  0  0  0  0  0  0  0  0
    2.8190    1.1590    3.6799 C   0  0  0  0  0  0  0  0  0  0  0  0
    2.0677    2.1218    3.7936 O   0  0  0  0  0  0  0  0  0  0  0  0
    4.2978    0.7707    1.6657 C   0  0  0  0  0  0  0  0  0  0  0  0
    1.3682    1.6899    1.6459 H   0  0  0  0  0  0  0  0  0  0  0  0
    2.8963   -0.6351    2.5111 H   0  0  0  0  0  0  0  0  0  0  0  0
    4.3754    1.8449    1.4685 H   0  0  0  0  0  0  0  0  0  0  0  0
    5.1248    0.4744    2.3177 H   0  0  0  0  0  0  0  0  0  0  0  0
    4.3985    0.2343    0.7169 H   0  0  0  0  0  0  0  0  0  0  0  0
    3.5297    0.7198    4.7817 N   0  0  0  0  0  0  0  0  0  0  0  0
    3.4476    1.3574    6.0907 C   0  0  0  0  0  0  0  0  0  0  0  0
    4.1333   -0.0889    4.6636 H   0  0  0  0  0  0  0  0  0  0  0  0
    3.8249    2.3841    6.0404 H   0  0  0  0  0  0  0  0  0  0  0  0
    2.4104    1.3808    6.4417 H   0  0  0  0  0  0  0  0  0  0  0  0
    4.0462    0.8041    6.8208 H   0  0  0  0  0  0  0  0  0  0  0  0
  1  2  2  0  0  0  0
  1  3  1  0  0  0  0
  1  7  1  0  0  0  0
  3  4  1  0  0  0  0
  3  5  1  0  0  0  0
  3  6  1  0  0  0  0
  7  8  1  0  0  0  0
  7 12  1  0  0  0  0
  8  9  1  0  0  0  0
  8 11  1  0  0  0  0
  8 13  1  0  0  0  0
  9 10  2  0  0  0  0
  9 17  1  0  0  0  0
 11 14  1  0  0  0  0
 11 15  1  0  0  0  0
 11 16  1  0  0  0  0
 17 18  1  0  0  0  0
 17 21  1  0  0  0  0
 18 19  1  0  0  0  0
 18 22  1  0  0  0  0
 18 23  1  0  0  0  0
 19 20  2  0  0  0  0
 19 24  1  0  0  0  0
 24 25  1  0  0  0  0
 24 29  1  0  0  0  0
 25 26  1  0  0  0  0
 25 28  1  0  0  0  0
 25 30  1  0  0  0  0
 26 27  2  0  0  0  0
 26 34  1  0  0  0  0
 28 31  1  0  0  0  0
 28 32  1  0  0  0  0
 28 33  1  0  0  0  0
 34 35  1  0  0  0  0
 34 36  1  0  0  0  0
 35 37  1  0  0  0  0
 35 38  1  0  0  0  0
 35 39  1  0  0  0  0
M  END
$$$$

  -OEChem-05262216283D

 39 38  0     1  0  0  0  0  0999 V2000
   -4.8326   -2.7678   -2.1848 C   0  0  0  0  0  0  0  0  0  0  0  0
   -4.4188   -3.9152   -2.1331 O   0  0  0  0  0  0  0  0  0  0  0  0
   -6.3239   -2.4932   -2.1323 C   0  0  0  0  0  0  0  0  0  0  0  0
   -6.6426   -1.9926   -3.0498 H   0  0  0  0  0  0  0  0  0  0  0  0
   -6.8765   -3.4317   -2.0323 H   0  0  0  0  0  0  0  0  0  0  0  0
   -6.5577   -1.8544   -1.2769 H   0  0  0  0  0  0  0  0  0  0  0  0
   -3.9457   -1.7171   -2.2817 N   0  0  0  0  0  0  0  0  0  0  0  0
   -2.4882   -1.8499   -2.1587 C   0  0  2  0  0  0  0  0  0  0  0  0
   -1.8701   -0.6259   -1.4517 C   0  0  0  0  0  0  0  0  0  0  0  0
   -2.5236    0.4019   -1.3039 O   0  0  0  0  0  0  0  0  0  0  0  0
   -1.8985   -2.0184   -3.5617 C   0  0  0  0  0  0  0  0  0  0  0  0
   -4.3267   -0.7763   -2.1858 H   0  0  0  0  0  0  0  0  0  0  0  0
   -2.2431   -2.7319   -1.5568 H   0  0  0  0  0  0  0  0  0  0  0  0
   -2.1257   -1.1441   -4.1799 H   0  0  0  0  0  0  0  0  0  0  0  0
   -0.8120   -2.1372   -3.5109 H   0  0  0  0  0  0  0  0  0  0  0  0
   -2.3194   -2.9062   -4.0443 H   0  0  0  0  0  0  0  0  0  0  0  0
   -0.5811   -0.6722   -0.9601 N   0  0  0  0  0  0  0  0  0  0  0  0
    0.0797    0.4433   -0.2702 C   0  0  0  0  0  0  0  0  0  0  0  0
    1.3423   -0.0047    0.4770 C   0  0  0  0  0  0  0  0  0  0  0  0
    1.9492   -1.0034    0.1067 O   0  0  0  0  0  0  0  0  0  0  0  0
   -0.0451   -1.5310   -1.0862 H   0  0  0  0  0  0  0  0  0  0  0  0
   -0.6111    0.8882    0.4529 H   0  0  0  0  0  0  0  0  0  0  0  0
    0.3558    1.2166   -0.9926 H   0  0  0  0  0  0  0  0  0  0  0  0
    1.7470    0.6531    1.6212 N   0  0  0  0  0  0  0  0  0  0  0  0
    2.8065    0.1833    2.5227 C   0  0  2  0  0  0  0  0  0  0  0  0
    2.5297    0.6116    3.9795 C   0  0  0  0  0  0  0  0  0  0  0  0
    1.6711    1.4545    4.2175 O   0  0  0  0  0  0  0  0  0  0  0  0
    4.1431    0.7516    2.0369 C   0  0  0  0  0  0  0  0  0  0  0  0
    1.1335    1.3819    1.9875 H   0  0  0  0  0  0  0  0  0  0  0  0
    2.8504   -0.9110    2.5058 H   0  0  0  0  0  0  0  0  0  0  0  0
    4.1194    1.8461    2.0487 H   0  0  0  0  0  0  0  0  0  0  0  0
    4.9617    0.4132    2.6791 H   0  0  0  0  0  0  0  0  0  0  0  0
    4.3474    0.4185    1.0144 H   0  0  0  0  0  0  0  0  0  0  0  0
    3.2278    0.0400    5.0273 N   0  0  0  0  0  0  0  0  0  0  0  0
    2.9838    0.3733    6.4257 C   0  0  0  0  0  0  0  0  0  0  0  0
    3.9075   -0.6813    4.8042 H   0  0  0  0  0  0  0  0  0  0  0  0
    3.1226    1.4464    6.5944 H   0  0  0  0  0  0  0  0  0  0  0  0
    1.9624    0.1010    6.7115 H   0  0  0  0  0  0  0  0  0  0  0  0
    3.6803   -0.1697    7.0718 H   0  0  0  0  0  0  0  0  0  0  0  0
  1  2  2  0  0  0  0
  1  3  1  0  0  0  0
  1  7  1  0  0  0  0
  3  4  1  0  0  0  0
  3  5  1  0  0  0  0
  3  6  1  0  0  0  0
  7  8  1  0  0  0  0
  7 12  1  0  0  0  0
  8  9  1  0  0  0  0
  8 11  1  0  0  0  0
  8 13  1  0  0  0  0
  9 10  2  0  0  0  0
  9 17  1  0  0  0  0
 11 14  1  0  0  0  0
 11 15  1  0  0  0  0
 11 16  1  0  0  0  0
 17 18  1  0  0  0  0
 17 21  1  0  0  0  0
 18 19  1  0  0  0  0
 18 22  1  0  0  0  0
 18 23  1  0  0  0  0
 19 20  2  0  0  0  0
 19 24  1  0  0  0  0
 24 25  1  0  0  0  0
 24 29  1  0  0  0  0
 25 26  1  0  0  0  0
 25 28  1  0  0  0  0
 25 30  1  0  0  0  0
 26 27  2  0  0  0  0
 26 34  1  0  0  0  0
 28 31  1  0  0  0  0
 28 32  1  0  0  0  0
 28 33  1  0  0  0  0
 34 35  1  0  0  0  0
 34 36  1  0  0  0  0
 35 37  1  0  0  0  0
 35 38  1  0  0  0  0
 35 39  1  0  0  0  0
M  END
$$$$

  -OEChem-05262216283D

 39 38  0     1  0  0  0  0  0999 V2000
   -4.7513   -2.8302   -2.1313 C   0  0  0  0  0  0  0  0  0  0  0  0
   -4.2816   -3.9571   -2.1243 O   0  0  0  0  0  0  0  0  0  0  0  0
   -6.2512   -2.6315   -2.0200 C   0  0  0  0  0  0  0  0  0  0  0  0
   -6.6334   -2.1581   -2.9276 H   0  0  0  0  0  0  0  0  0  0  0  0
   -6.7500   -3.5959   -1.8883 H   0  0  0  0  0  0  0  0  0  0  0  0
   -6.4813   -1.9968   -1.1607 H   0  0  0  0  0  0  0  0  0  0  0  0
   -3.9188   -1.7353   -2.2275 N   0  0  0  0  0  0  0  0  0  0  0  0
   -2.4530   -1.8044   -2.1600 C   0  0  2  0  0  0  0  0  0  0  0  0
   -1.8611   -0.5875   -1.4181 C   0  0  0  0  0  0  0  0  0  0  0  0
   -2.5411    0.4156   -1.2276 O   0  0  0  0  0  0  0  0  0  0  0  0
   -1.9092   -1.8857   -3.5891 C   0  0  0  0  0  0  0  0  0  0  0  0
   -4.3395   -0.8163   -2.0946 H   0  0  0  0  0  0  0  0  0  0  0  0
   -2.1477   -2.7003   -1.6081 H   0  0  0  0  0  0  0  0  0  0  0  0
   -2.1793   -0.9877   -4.1538 H   0  0  0  0  0  0  0  0  0  0  0  0
   -0.8190   -1.9783   -3.5806 H   0  0  0  0  0  0  0  0  0  0  0  0
   -2.3253   -2.7584   -4.1027 H   0  0  0  0  0  0  0  0  0  0  0  0
   -0.5652   -0.6162   -0.9420 N   0  0  0  0  0  0  0  0  0  0  0  0
    0.0901    0.5065   -0.2571 C   0  0  0  0  0  0  0  0  0  0  0  0
    1.3661    0.0618    0.4690 C   0  0  0  0  0  0  0  0  0  0  0  0
    2.0869   -0.7849   -0.0459 O   0  0  0  0  0  0  0  0  0  0  0  0
    0.0007   -1.4415   -1.1389 H   0  0  0  0  0  0  0  0  0  0  0  0
   -0.5961    0.9430    0.4756 H   0  0  0  0  0  0  0  0  0  0  0  0
    0.3489    1.2849   -0.9808 H   0  0  0  0  0  0  0  0  0  0  0  0
    1.6310    0.4859    1.7564 N   0  0  0  0  0  0  0  0  0  0  0  0
    2.6610   -0.0956    2.6275 C   0  0  2  0  0  0  0  0  0  0  0  0
    2.2427   -0.0232    4.1114 C   0  0  0  0  0  0  0  0  0  0  0  0
    1.3018    0.6877    4.4480 O   0  0  0  0  0  0  0  0  0  0  0  0
    3.9748    0.6581    2.3993 C   0  0  0  0  0  0  0  0  0  0  0  0
    0.9243    1.0608    2.2169 H   0  0  0  0  0  0  0  0  0  0  0  0
    2.8030   -1.1529    2.3792 H   0  0  0  0  0  0  0  0  0  0  0  0
    3.8553    1.7180    2.6467 H   0  0  0  0  0  0  0  0  0  0  0  0
    4.7712    0.2418    3.0236 H   0  0  0  0  0  0  0  0  0  0  0  0
    4.2811    0.5768    1.3513 H   0  0  0  0  0  0  0  0  0  0  0  0
    2.9063   -0.7674    5.0696 N   0  0  0  0  0  0  0  0  0  0  0  0
    2.5405   -0.7591    6.4813 C   0  0  0  0  0  0  0  0  0  0  0  0
    3.6619   -1.3718    4.7597 H   0  0  0  0  0  0  0  0  0  0  0  0
    2.6202    0.2531    6.8919 H   0  0  0  0  0  0  0  0  0  0  0  0
    1.5124   -1.1125    6.6131 H   0  0  0  0  0  0  0  0  0  0  0  0
    3.2068   -1.4150    7.0498 H   0  0  0  0  0  0  0  0  0  0  0  0
  1  2  2  0  0  0  0
  1  3  1  0  0  0  0
  1  7  1  0  0  0  0
  3  4  1  0  0  0  0
  3  5  1  0  0  0  0
  3  6  1  0  0  0  0
  7  8  1  0  0  0  0
  7 12  1  0  0  0  0
  8  9  1  0  0  0  0
  8 11  1  0  0  0  0
  8 13  1  0  0  0  0
  9 10  2  0  0  0  0
  9 17  1  0  0  0  0
 11 14  1  0  0  0  0
 11 15  1  0  0  0  0
 11 16  1  0  0  0  0
 17 18  1  0  0  0  0
 17 21  1  0  0  0  0
 18 19  1  0  0  0  0
 18 22  1  0  0  0  0
 18 23  1  0  0  0  0
 19 20  2  0  0  0  0
 19 24  1  0  0  0  0
 24 25  1  0  0  0  0
 24 29  1  0  0  0  0
 25 26  1  0  0  0  0
 25 28  1  0  0  0  0
 25 30  1  0  0  0  0
 26 27  2  0  0  0  0
 26 34  1  0  0  0  0
 28 31  1  0  0  0  0
 28 32  1  0  0  0  0
 28 33  1  0  0  0  0
 34 35  1  0  0  0  0
 34 36  1  0  0  0  0
 35 37  1  0  0  0  0
 35 38  1  0  0  0  0
 35 39  1  0  0  0  0
M  END
$$$$

  -OEChem-05262216283D

 39 38  0     1  0  0  0  0  0999 V2000
   -4.6888   -2.8734   -2.1154 C   0  0  0  0  0  0  0  0  0  0  0  0
   -4.1911   -3.9873   -2.1639 O   0  0  0  0  0  0  0  0  0  0  0  0
   -6.1892   -2.7150   -1.9557 C   0  0  0  0  0  0  0  0  0  0  0  0
   -6.6009   -2.1730   -2.8107 H   0  0  0  0  0  0  0  0  0  0  0  0
   -6.6679   -3.6964   -1.8966 H   0  0  0  0  0  0  0  0  0  0  0  0
   -6.4093   -2.1605   -1.0401 H   0  0  0  0  0  0  0  0  0  0  0  0
   -3.8875   -1.7543   -2.1933 N   0  0  0  0  0  0  0  0  0  0  0  0
   -2.4193   -1.7835   -2.1688 C   0  0  2  0  0  0  0  0  0  0  0  0
   -1.8441   -0.5808   -1.3920 C   0  0  0  0  0  0  0  0  0  0  0  0
   -2.5407    0.4039   -1.1687 O   0  0  0  0  0  0  0  0  0  0  0  0
   -1.9117   -1.7851   -3.6133 C   0  0  0  0  0  0  0  0  0  0  0  0
   -4.3290   -0.8520   -2.0193 H   0  0  0  0  0  0  0  0  0  0  0  0
   -2.0729   -2.6925   -1.6653 H   0  0  0  0  0  0  0  0  0  0  0  0
   -2.2346   -0.8779   -4.1342 H   0  0  0  0  0  0  0  0  0  0  0  0
   -0.8186   -1.8303   -3.6358 H   0  0  0  0  0  0  0  0  0  0  0  0
   -2.3035   -2.6545   -4.1509 H   0  0  0  0  0  0  0  0  0  0  0  0
   -0.5460   -0.6024   -0.9211 N   0  0  0  0  0  0  0  0  0  0  0  0
    0.1004    0.5267   -0.2387 C   0  0  0  0  0  0  0  0  0  0  0  0
    1.3801    0.0891    0.4820 C   0  0  0  0  0  0  0  0  0  0  0  0
    2.2202   -0.5596   -0.1286 O   0  0  0  0  0  0  0  0  0  0  0  0
    0.0383   -1.3996   -1.1705 H   0  0  0  0  0  0  0  0  0  0  0  0
   -0.5864    0.9604    0.4952 H   0  0  0  0  0  0  0  0  0  0  0  0
    0.3532    1.3072   -0.9623 H   0  0  0  0  0  0  0  0  0  0  0  0
    1.5060    0.2480    1.8478 N   0  0  0  0  0  0  0  0  0  0  0  0
    2.5284   -0.4115    2.6708 C   0  0  2  0  0  0  0  0  0  0  0  0
    2.0032   -0.6852    4.0967 C   0  0  0  0  0  0  0  0  0  0  0  0
    0.9632   -0.1582    4.4774 O   0  0  0  0  0  0  0  0  0  0  0  0
    3.7735    0.4793    2.7114 C   0  0  0  0  0  0  0  0  0  0  0  0
    0.7028    0.6292    2.3494 H   0  0  0  0  0  0  0  0  0  0  0  0
    2.7918   -1.3781    2.2286 H   0  0  0  0  0  0  0  0  0  0  0  0
    3.5333    1.4511    3.1543 H   0  0  0  0  0  0  0  0  0  0  0  0
    4.5634    0.0099    3.3054 H   0  0  0  0  0  0  0  0  0  0  0  0
    4.1562    0.6419    1.6986 H   0  0  0  0  0  0  0  0  0  0  0  0
    2.6777   -1.5426    4.9466 N   0  0  0  0  0  0  0  0  0  0  0  0
    2.2089   -1.8706    6.2884 C   0  0  0  0  0  0  0  0  0  0  0  0
    3.5193   -1.9907    4.5958 H   0  0  0  0  0  0  0  0  0  0  0  0
    2.1102   -0.9628    6.8930 H   0  0  0  0  0  0  0  0  0  0  0  0
    1.2358   -2.3711    6.2435 H   0  0  0  0  0  0  0  0  0  0  0  0
    2.9190   -2.5389    6.7848 H   0  0  0  0  0  0  0  0  0  0  0  0
  1  2  2  0  0  0  0
  1  3  1  0  0  0  0
  1  7  1  0  0  0  0
  3  4  1  0  0  0  0
  3  5  1  0  0  0  0
  3  6  1  0  0  0  0
  7  8  1  0  0  0  0
  7 12  1  0  0  0  0
  8  9  1  0  0  0  0
  8 11  1  0  0  0  0
  8 13  1  0  0  0  0
  9 10  2  0  0  0  0
  9 17  1  0  0  0  0
 11 14  1  0  0  0  0
 11 15  1  0  0  0  0
 11 16  1  0  0  0  0
 17 18  1  0  0  0  0
 17 21  1  0  0  0  0
 18 19  1  0  0  0  0
 18 22  1  0  0  0  0
 18 23  1  0  0  0  0
 19 20  2  0  0  0  0
 19 24  1  0  0  0  0
 24 25  1  0  0  0  0
 24 29  1  0  0  0  0
 25 26  1  0  0  0  0
 25 28  1  0  0  0  0
 25 30  1  0  0  0  0
 26 27  2  0  0  0  0
 26 34  1  0  0  0  0
 28 31  1  0  0  0  0
 28 32  1  0  0  0  0
 28 33  1  0  0  0  0
 34 35  1  0  0  0  0
 34 36  1  0  0  0  0
 35 37  1  0  0  0  0
 35 38  1  0  0  0  0
 35 39  1  0  0  0  0
M  END
$$$$

  -OEChem-05262216283D

 39 38  0     1  0  0  0  0  0999 V2000
   -4.6955   -2.8979   -2.1842 C   0  0  0  0  0  0  0  0  0  0  0  0
   -4.1856   -4.0048   -2.2573 O   0  0  0  0  0  0  0  0  0  0  0  0
   -6.2031   -2.7592   -2.0873 C   0  0  0  0  0  0  0  0  0  0  0  0
   -6.5926   -2.2968   -2.9972 H   0  0  0  0  0  0  0  0  0  0  0  0
   -6.6645   -3.7431   -1.9659 H   0  0  0  0  0  0  0  0  0  0  0  0
   -6.4694   -2.1385   -1.2283 H   0  0  0  0  0  0  0  0  0  0  0  0
   -3.9010   -1.7710   -2.1929 N   0  0  0  0  0  0  0  0  0  0  0  0
   -2.4334   -1.7915   -2.1427 C   0  0  2  0  0  0  0  0  0  0  0  0
   -1.8747   -0.6022   -1.3352 C   0  0  0  0  0  0  0  0  0  0  0  0
   -2.5801    0.3712   -1.0927 O   0  0  0  0  0  0  0  0  0  0  0  0
   -1.9003   -1.7623   -3.5781 C   0  0  0  0  0  0  0  0  0  0  0  0
   -4.3534   -0.8770   -2.0054 H   0  0  0  0  0  0  0  0  0  0  0  0
   -2.0906   -2.7078   -1.6498 H   0  0  0  0  0  0  0  0  0  0  0  0
   -2.2245   -0.8498   -4.0888 H   0  0  0  0  0  0  0  0  0  0  0  0
   -0.8064   -1.7946   -3.5835 H   0  0  0  0  0  0  0  0  0  0  0  0
   -2.2730   -2.6264   -4.1374 H   0  0  0  0  0  0  0  0  0  0  0  0
   -0.5754   -0.6234   -0.8681 N   0  0  0  0  0  0  0  0  0  0  0  0
    0.0713    0.5134   -0.1992 C   0  0  0  0  0  0  0  0  0  0  0  0
    1.3507    0.0833    0.5230 C   0  0  0  0  0  0  0  0  0  0  0  0
    2.3027   -0.3173   -0.1331 O   0  0  0  0  0  0  0  0  0  0  0  0
    0.0144   -1.4025   -1.1561 H   0  0  0  0  0  0  0  0  0  0  0  0
   -0.6115    0.9614    0.5296 H   0  0  0  0  0  0  0  0  0  0  0  0
    0.3248    1.2832   -0.9342 H   0  0  0  0  0  0  0  0  0  0  0  0
    1.3735   -0.0359    1.8984 N   0  0  0  0  0  0  0  0  0  0  0  0
    2.4359   -0.7088    2.6568 C   0  0  2  0  0  0  0  0  0  0  0  0
    1.8811   -1.3611    3.9414 C   0  0  0  0  0  0  0  0  0  0  0  0
    0.7448   -1.1004    4.3218 O   0  0  0  0  0  0  0  0  0  0  0  0
    3.5181    0.3211    2.9939 C   0  0  0  0  0  0  0  0  0  0  0  0
    0.4958    0.1217    2.3951 H   0  0  0  0  0  0  0  0  0  0  0  0
    2.8755   -1.5077    2.0501 H   0  0  0  0  0  0  0  0  0  0  0  0
    3.1002    1.1294    3.6025 H   0  0  0  0  0  0  0  0  0  0  0  0
    4.3360   -0.1474    3.5492 H   0  0  0  0  0  0  0  0  0  0  0  0
    3.9294    0.7529    2.0760 H   0  0  0  0  0  0  0  0  0  0  0  0
    2.6468   -2.2603    4.6602 N   0  0  0  0  0  0  0  0  0  0  0  0
    2.1714   -2.9363    5.8616 C   0  0  0  0  0  0  0  0  0  0  0  0
    3.5751   -2.4758    4.3085 H   0  0  0  0  0  0  0  0  0  0  0  0
    1.8902   -2.2059    6.6277 H   0  0  0  0  0  0  0  0  0  0  0  0
    1.3004   -3.5595    5.6323 H   0  0  0  0  0  0  0  0  0  0  0  0
    2.9577   -3.5785    6.2697 H   0  0  0  0  0  0  0  0  0  0  0  0
  1  2  2  0  0  0  0
  1  3  1  0  0  0  0
  1  7  1  0  0  0  0
  3  4  1  0  0  0  0
  3  5  1  0  0  0  0
  3  6  1  0  0  0  0
  7  8  1  0  0  0  0
  7 12  1  0  0  0  0
  8  9  1  0  0  0  0
  8 11  1  0  0  0  0
  8 13  1  0  0  0  0
  9 10  2  0  0  0  0
  9 17  1  0  0  0  0
 11 14  1  0  0  0  0
 11 15  1  0  0  0  0
 11 16  1  0  0  0  0
 17 18  1  0  0  0  0
 17 21  1  0  0  0  0
 18 19  1  0  0  0  0
 18 22  1  0  0  0  0
 18 23  1  0  0  0  0
 19 20  2  0  0  0  0
 19 24  1  0  0  0  0
 24 25  1  0  0  0  0
 24 29  1  0  0  0  0
 25 26  1  0  0  0  0
 25 28  1  0  0  0  0
 25 30  1  0  0  0  0
 26 27  2  0  0  0  0
 26 34  1  0  0  0  0
 28 31  1  0  0  0  0
 28 32  1  0  0  0  0
 28 33  1  0  0  0  0
 34 35  1  0  0  0  0
 34 36  1  0  0  0  0
 35 37  1  0  0  0  0
 35 38  1  0  0  0  0
 35 39  1  0  0  0  0
M  END
$$$$

  -OEChem-05262216283D

 39 38  0     1  0  0  0  0  0999 V2000
   -4.6638   -2.9116   -2.1599 C   0  0  0  0  0  0  0  0  0  0  0  0
   -4.1486   -4.0158   -2.2366 O   0  0  0  0  0  0  0  0  0  0  0  0
   -6.1676   -2.7819   -2.0103 C   0  0  0  0  0  0  0  0  0  0  0  0
   -6.5881   -2.2851   -2.8879 H   0  0  0  0  0  0  0  0  0  0  0  0
   -6.6229   -3.7714   -1.9129 H   0  0  0  0  0  0  0  0  0  0  0  0
   -6.4052   -2.1963   -1.1189 H   0  0  0  0  0  0  0  0  0  0  0  0
   -3.8781   -1.7794   -2.1990 N   0  0  0  0  0  0  0  0  0  0  0  0
   -2.4099   -1.7914   -2.1675 C   0  0  2  0  0  0  0  0  0  0  0  0
   -1.8492   -0.6039   -1.3577 C   0  0  0  0  0  0  0  0  0  0  0  0
   -2.5522    0.3726   -1.1211 O   0  0  0  0  0  0  0  0  0  0  0  0
   -1.8983   -1.7485   -3.6102 C   0  0  0  0  0  0  0  0  0  0  0  0
   -4.3332   -0.8883   -2.0038 H   0  0  0  0  0  0  0  0  0  0  0  0
   -2.0555   -2.7095   -1.6862 H   0  0  0  0  0  0  0  0  0  0  0  0
   -2.2318   -0.8318   -4.1073 H   0  0  0  0  0  0  0  0  0  0  0  0
   -0.8047   -1.7793   -3.6332 H   0  0  0  0  0  0  0  0  0  0  0  0
   -2.2788   -2.6081   -4.1711 H   0  0  0  0  0  0  0  0  0  0  0  0
   -0.5534   -0.6305   -0.8796 N   0  0  0  0  0  0  0  0  0  0  0  0
    0.0964    0.5157   -0.2277 C   0  0  0  0  0  0  0  0  0  0  0  0
    1.3658    0.0969    0.5168 C   0  0  0  0  0  0  0  0  0  0  0  0
    2.4132   -0.0403   -0.0993 O   0  0  0  0  0  0  0  0  0  0  0  0
    0.0327   -1.4117   -1.1673 H   0  0  0  0  0  0  0  0  0  0  0  0
   -0.5874    0.9839    0.4872 H   0  0  0  0  0  0  0  0  0  0  0  0
    0.3596    1.2693   -0.9762 H   0  0  0  0  0  0  0  0  0  0  0  0
    1.2954   -0.2878    1.8404 N   0  0  0  0  0  0  0  0  0  0  0  0
    2.3693   -0.9825    2.5616 C   0  0  2  0  0  0  0  0  0  0  0  0
    1.7956   -1.9896    3.5815 C   0  0  0  0  0  0  0  0  0  0  0  0
    0.5976   -1.9825    3.8437 O   0  0  0  0  0  0  0  0  0  0  0  0
    3.2379    0.0673    3.2599 C   0  0  0  0  0  0  0  0  0  0  0  0
    0.3638   -0.3493    2.2534 H   0  0  0  0  0  0  0  0  0  0  0  0
    2.9866   -1.5495    1.8566 H   0  0  0  0  0  0  0  0  0  0  0  0
    2.6390    0.6509    3.9665 H   0  0  0  0  0  0  0  0  0  0  0  0
    4.0559   -0.4111    3.8066 H   0  0  0  0  0  0  0  0  0  0  0  0
    3.6705    0.7508    2.5224 H   0  0  0  0  0  0  0  0  0  0  0  0
    2.6145   -2.9240    4.1884 N   0  0  0  0  0  0  0  0  0  0  0  0
    2.1244   -3.9199    5.1341 C   0  0  0  0  0  0  0  0  0  0  0  0
    3.5997   -2.9221    3.9399 H   0  0  0  0  0  0  0  0  0  0  0  0
    1.6692   -3.4320    6.0027 H   0  0  0  0  0  0  0  0  0  0  0  0
    1.3759   -4.5637    4.6600 H   0  0  0  0  0  0  0  0  0  0  0  0
    2.9490   -4.5488    5.4829 H   0  0  0  0  0  0  0  0  0  0  0  0
  1  2  2  0  0  0  0
  1  3  1  0  0  0  0
  1  7  1  0  0  0  0
  3  4  1  0  0  0  0
  3  5  1  0  0  0  0
  3  6  1  0  0  0  0
  7  8  1  0  0  0  0
  7 12  1  0  0  0  0
  8  9  1  0  0  0  0
  8 11  1  0  0  0  0
  8 13  1  0  0  0  0
  9 10  2  0  0  0  0
  9 17  1  0  0  0  0
 11 14  1  0  0  0  0
 11 15  1  0  0  0  0
 11 16  1  0  0  0  0
 17 18  1  0  0  0  0
 17 21  1  0  0  0  0
 18 19  1  0  0  0  0
 18 22  1  0  0  0  0
 18 23  1  0  0  0  0
 19 20  2  0  0  0  0
 19 24  1  0  0  0  0
 24 25  1  0  0  0  0
 24 29  1  0  0  0  0
 25 26  1  0  0  0  0
 25 28  1  0  0  0  0
 25 30  1  0  0  0  0
 26 27  2  0  0  0  0
 26 34  1  0  0  0  0
 28 31  1  0  0  0  0
 28 32  1  0  0  0  0
 28 33  1  0  0  0  0
 34 35  1  0  0  0  0
 34 36  1  0  0  0  0
 35 37  1  0  0  0  0
 35 38  1  0  0  0  0
 35 39  1  0  0  0  0
M  END
$$$$

  -OEChem-05262216283D

 39 38  0     1  0  0  0  0  0999 V2000
   -4.7949   -2.8215   -2.2942 C   0  0  0  0  0  0  0  0  0  0  0  0
   -4.3492   -3.9568   -2.3472 O   0  0  0  0  0  0  0  0  0  0  0  0
   -6.2942   -2.5909   -2.2996 C   0  0  0  0  0  0  0  0  0  0  0  0
   -6.5800   -2.0133   -3.1820 H   0  0  0  0  0  0  0  0  0  0  0  0
   -6.8219   -3.5485   -2.3187 H   0  0  0  0  0  0  0  0  0  0  0  0
   -6.5912   -2.0432   -1.4019 H   0  0  0  0  0  0  0  0  0  0  0  0
   -3.9349   -1.7463   -2.2228 N   0  0  0  0  0  0  0  0  0  0  0  0
   -2.4789   -1.8586   -2.0688 C   0  0  2  0  0  0  0  0  0  0  0  0
   -1.8929   -0.6491   -1.3094 C   0  0  0  0  0  0  0  0  0  0  0  0
   -2.5793    0.3462   -1.1046 O   0  0  0  0  0  0  0  0  0  0  0  0
   -1.8523   -1.9750   -3.4623 C   0  0  0  0  0  0  0  0  0  0  0  0
   -4.3438   -0.8266   -2.0600 H   0  0  0  0  0  0  0  0  0  0  0  0
   -2.2392   -2.7561   -1.4878 H   0  0  0  0  0  0  0  0  0  0  0  0
   -2.0780   -1.0846   -4.0581 H   0  0  0  0  0  0  0  0  0  0  0  0
   -0.7656   -2.0808   -3.3898 H   0  0  0  0  0  0  0  0  0  0  0  0
   -2.2479   -2.8525   -3.9839 H   0  0  0  0  0  0  0  0  0  0  0  0
   -0.5932   -0.6749   -0.8397 N   0  0  0  0  0  0  0  0  0  0  0  0
    0.0706    0.4859   -0.2254 C   0  0  0  0  0  0  0  0  0  0  0  0
    1.3438    0.0888    0.5256 C   0  0  0  0  0  0  0  0  0  0  0  0
    2.4387    0.2428    0.0043 O   0  0  0  0  0  0  0  0  0  0  0  0
   -0.0224   -1.4761   -1.1012 H   0  0  0  0  0  0  0  0  0  0  0  0
   -0.6046    0.9777    0.4821 H   0  0  0  0  0  0  0  0  0  0  0  0
    0.3295    1.2164   -0.9985 H   0  0  0  0  0  0  0  0  0  0  0  0
    1.2482   -0.5429    1.7491 N   0  0  0  0  0  0  0  0  0  0  0  0
    2.3664   -1.2096    2.4298 C   0  0  2  0  0  0  0  0  0  0  0  0
    1.9098   -2.5203    3.1051 C   0  0  0  0  0  0  0  0  0  0  0  0
    0.7150   -2.7846    3.1871 O   0  0  0  0  0  0  0  0  0  0  0  0
    2.9476   -0.2380    3.4608 C   0  0  0  0  0  0  0  0  0  0  0  0
    0.3116   -0.8182    2.0473 H   0  0  0  0  0  0  0  0  0  0  0  0
    3.1445   -1.4732    1.7056 H   0  0  0  0  0  0  0  0  0  0  0  0
    2.1905    0.0273    4.2057 H   0  0  0  0  0  0  0  0  0  0  0  0
    3.8018   -0.6871    3.9764 H   0  0  0  0  0  0  0  0  0  0  0  0
    3.2871    0.6779    2.9666 H   0  0  0  0  0  0  0  0  0  0  0  0
    2.8375   -3.4166    3.6029 N   0  0  0  0  0  0  0  0  0  0  0  0
    2.4702   -4.6758    4.2395 C   0  0  0  0  0  0  0  0  0  0  0  0
    3.8210   -3.1787    3.5114 H   0  0  0  0  0  0  0  0  0  0  0  0
    1.8827   -4.4903    5.1448 H   0  0  0  0  0  0  0  0  0  0  0  0
    1.8778   -5.2931    3.5557 H   0  0  0  0  0  0  0  0  0  0  0  0
    3.3682   -5.2350    4.5187 H   0  0  0  0  0  0  0  0  0  0  0  0
  1  2  2  0  0  0  0
  1  3  1  0  0  0  0
  1  7  1  0  0  0  0
  3  4  1  0  0  0  0
  3  5  1  0  0  0  0
  3  6  1  0  0  0  0
  7  8  1  0  0  0  0
  7 12  1  0  0  0  0
  8  9  1  0  0  0  0
  8 11  1  0  0  0  0
  8 13  1  0  0  0  0
  9 10  2  0  0  0  0
  9 17  1  0  0  0  0
 11 14  1  0  0  0  0
 11 15  1  0  0  0  0
 11 16  1  0  0  0  0
 17 18  1  0  0  0  0
 17 21  1  0  0  0  0
 18 19  1  0  0  0  0
 18 22  1  0  0  0  0
 18 23  1  0  0  0  0
 19 20  2  0  0  0  0
 19 24  1  0  0  0  0
 24 25  1  0  0  0  0
 24 29  1  0  0  0  0
 25 26  1  0  0  0  0
 25 28  1  0  0  0  0
 25 30  1  0  0  0  0
 26 27  2  0  0  0  0
 26 34  1  0  0  0  0
 28 31  1  0  0  0  0
 28 32  1  0  0  0  0
 28 33  1  0  0  0  0
 34 35  1  0  0  0  0
 34 36  1  0  0  0  0
 35 37  1  0  0  0  0
 35 38  1  0  0  0  0
 35 39  1  0  0  0  0
M  END
$$$$

  -OEChem-05262216283D

 39 38  0     1  0  0  0  0  0999 V2000
   -4.6720   -2.6051   -1.7524 C   0  0  0  0  0  0  0  0  0  0  0  0
   -4.6223   -3.5218   -0.9477 O   0  0  0  0  0  0  0  0  0  0  0  0
   -5.9988   -2.2149   -2.3771 C   0  0  0  0  0  0  0  0  0  0  0  0
   -5.9662   -2.3840   -3.4562 H   0  0  0  0  0  0  0  0  0  0  0  0
   -6.8082   -2.8146   -1.9506 H   0  0  0  0  0  0  0  0  0  0  0  0
   -6.2057   -1.1588   -2.1868 H   0  0  0  0  0  0  0  0  0  0  0  0
   -3.5278   -1.9139   -2.0899 N   0  0  0  0  0  0  0  0  0  0  0  0
   -2.2306   -2.0817   -1.4200 C   0  0  2  0  0  0  0  0  0  0  0  0
   -1.4366   -0.7576   -1.3826 C   0  0  0  0  0  0  0  0  0  0  0  0
   -1.8946    0.2619   -1.8886 O   0  0  0  0  0  0  0  0  0  0  0  0
   -1.4422   -3.1763   -2.1466 C   0  0  0  0  0  0  0  0  0  0  0  0
   -3.6461   -1.0670   -2.6447 H   0  0  0  0  0  0  0  0  0  0  0  0
   -2.3876   -2.3897   -0.3803 H   0  0  0  0  0  0  0  0  0  0  0  0
   -1.2437   -2.8846   -3.1827 H   0  0  0  0  0  0  0  0  0  0  0  0
   -0.4869   -3.3592   -1.6448 H   0  0  0  0  0  0  0  0  0  0  0  0
   -2.0104   -4.1119   -2.1498 H   0  0  0  0  0  0  0  0  0  0  0  0
   -0.2215   -0.6888   -0.7334 N   0  0  0  0  0  0  0  0  0  0  0  0
    0.5646    0.5434   -0.5607 C   0  0  0  0  0  0  0  0  0  0  0  0
    1.6403    0.3246    0.5038 C   0  0  0  0  0  0  0  0  0  0  0  0
    2.8160    0.2035    0.1886 O   0  0  0  0  0  0  0  0  0  0  0  0
    0.1143   -1.5473   -0.2812 H   0  0  0  0  0  0  0  0  0  0  0  0
   -0.0791    1.3722   -0.2508 H   0  0  0  0  0  0  0  0  0  0  0  0
    1.0423    0.8210   -1.5056 H   0  0  0  0  0  0  0  0  0  0  0  0
    1.2293   -0.0193    1.7782 N   0  0  0  0  0  0  0  0  0  0  0  0
    1.9691   -1.0565    2.5097 C   0  0  2  0  0  0  0  0  0  0  0  0
    1.7419   -2.4576    1.8894 C   0  0  0  0  0  0  0  0  0  0  0  0
    0.7640   -2.6683    1.1727 O   0  0  0  0  0  0  0  0  0  0  0  0
    1.4975   -1.0331    3.9650 C   0  0  0  0  0  0  0  0  0  0  0  0
    0.2174   -0.0593    1.8718 H   0  0  0  0  0  0  0  0  0  0  0  0
    3.0420   -0.8352    2.4867 H   0  0  0  0  0  0  0  0  0  0  0  0
    0.4320   -1.2774    4.0274 H   0  0  0  0  0  0  0  0  0  0  0  0
    2.0558   -1.7625    4.5601 H   0  0  0  0  0  0  0  0  0  0  0  0
    1.6546   -0.0405    4.3988 H   0  0  0  0  0  0  0  0  0  0  0  0
    2.6361   -3.4836    2.1275 N   0  0  0  0  0  0  0  0  0  0  0  0
    2.5229   -4.8001    1.5110 C   0  0  0  0  0  0  0  0  0  0  0  0
    3.4801   -3.2571    2.6461 H   0  0  0  0  0  0  0  0  0  0  0  0
    1.5710   -5.2696    1.7807 H   0  0  0  0  0  0  0  0  0  0  0  0
    2.5798   -4.7198    0.4203 H   0  0  0  0  0  0  0  0  0  0  0  0
    3.3355   -5.4482    1.8528 H   0  0  0  0  0  0  0  0  0  0  0  0
  1  2  2  0  0  0  0
  1  3  1  0  0  0  0
  1  7  1  0  0  0  0
  3  4  1  0  0  0  0
  3  5  1  0  0  0  0
  3  6  1  0  0  0  0
  7  8  1  0  0  0  0
  7 12  1  0  0  0  0
  8  9  1  0  0  0  0
  8 11  1  0  0  0  0
  8 13  1  0  0  0  0
  9 10  2  0  0  0  0
  9 17  1  0  0  0  0
 11 14  1  0  0  0  0
 11 15  1  0  0  0  0
 11 16  1  0  0  0  0
 17 18  1  0  0  0  0
 17 21  1  0  0  0  0
 18 19  1  0  0  0  0
 18 22  1  0  0  0  0
 18 23  1  0  0  0  0
 19 20  2  0  0  0  0
 19 24  1  0  0  0  0
 24 25  1  0  0  0  0
 24 29  1  0  0  0  0
 25 26  1  0  0  0  0
 25 28  1  0  0  0  0
 25 30  1  0  0  0  0
 26 27  2  0  0  0  0
 26 34  1  0  0  0  0
 28 31  1  0  0  0  0
 28 32  1  0  0  0  0
 28 33  1  0  0  0  0
 34 35  1  0  0  0  0
 34 36  1  0  0  0  0
 35 37  1  0  0  0  0
 35 38  1  0  0  0  0
 35 39  1  0  0  0  0
M  END
$$$$

  -OEChem-05262216283D

 39 38  0     1  0  0  0  0  0999 V2000
   -4.6841   -2.6461   -1.9107 C   0  0  0  0  0  0  0  0  0  0  0  0
   -4.5879   -3.6264   -1.1894 O   0  0  0  0  0  0  0  0  0  0  0  0
   -6.0371   -2.2408   -2.4652 C   0  0  0  0  0  0  0  0  0  0  0  0
   -6.0375   -2.3387   -3.5535 H   0  0  0  0  0  0  0  0  0  0  0  0
   -6.8208   -2.8822   -2.0525 H   0  0  0  0  0  0  0  0  0  0  0  0
   -6.2555   -1.2037   -2.1989 H   0  0  0  0  0  0  0  0  0  0  0  0
   -3.5678   -1.8978   -2.2180 N   0  0  0  0  0  0  0  0  0  0  0  0
   -2.2493   -2.0856   -1.5968 C   0  0  2  0  0  0  0  0  0  0  0  0
   -1.5130   -0.7405   -1.4140 C   0  0  0  0  0  0  0  0  0  0  0  0
   -2.0034    0.3016   -1.8361 O   0  0  0  0  0  0  0  0  0  0  0  0
   -1.4343   -3.0447   -2.4693 C   0  0  0  0  0  0  0  0  0  0  0  0
   -3.7244   -1.0085   -2.6910 H   0  0  0  0  0  0  0  0  0  0  0  0
   -2.3666   -2.5251   -0.6001 H   0  0  0  0  0  0  0  0  0  0  0  0
   -1.2837   -2.6217   -3.4674 H   0  0  0  0  0  0  0  0  0  0  0  0
   -0.4559   -3.2368   -2.0184 H   0  0  0  0  0  0  0  0  0  0  0  0
   -1.9582   -4.0005   -2.5701 H   0  0  0  0  0  0  0  0  0  0  0  0
   -0.3120   -0.6839   -0.7369 N   0  0  0  0  0  0  0  0  0  0  0  0
    0.4706    0.5476   -0.5319 C   0  0  0  0  0  0  0  0  0  0  0  0
    1.5300    0.3339    0.5517 C   0  0  0  0  0  0  0  0  0  0  0  0
    2.7170    0.4798    0.2975 O   0  0  0  0  0  0  0  0  0  0  0  0
    0.0929   -1.5762   -0.4292 H   0  0  0  0  0  0  0  0  0  0  0  0
   -0.1832    1.3691   -0.2231 H   0  0  0  0  0  0  0  0  0  0  0  0
    0.9617    0.8397   -1.4653 H   0  0  0  0  0  0  0  0  0  0  0  0
    1.1474   -0.3141    1.7112 N   0  0  0  0  0  0  0  0  0  0  0  0
    2.0171   -1.3466    2.2891 C   0  0  2  0  0  0  0  0  0  0  0  0
    1.9140   -2.6708    1.4941 C   0  0  0  0  0  0  0  0  0  0  0  0
    0.9605   -2.8679    0.7412 O   0  0  0  0  0  0  0  0  0  0  0  0
    1.5944   -1.5535    3.7450 C   0  0  0  0  0  0  0  0  0  0  0  0
    0.1527   -0.5264    1.7316 H   0  0  0  0  0  0  0  0  0  0  0  0
    3.0609   -1.0143    2.2756 H   0  0  0  0  0  0  0  0  0  0  0  0
    0.5598   -1.9077    3.7991 H   0  0  0  0  0  0  0  0  0  0  0  0
    2.2402   -2.2914    4.2309 H   0  0  0  0  0  0  0  0  0  0  0  0
    1.6700   -0.6116    4.2978 H   0  0  0  0  0  0  0  0  0  0  0  0
    2.8897   -3.6419    1.6154 N   0  0  0  0  0  0  0  0  0  0  0  0
    2.8783   -4.8875    0.8573 C   0  0  0  0  0  0  0  0  0  0  0  0
    3.6997   -3.4251    2.1893 H   0  0  0  0  0  0  0  0  0  0  0  0
    2.0010   -5.4881    1.1200 H   0  0  0  0  0  0  0  0  0  0  0  0
    2.8565   -4.6828   -0.2183 H   0  0  0  0  0  0  0  0  0  0  0  0
    3.7761   -5.4730    1.0779 H   0  0  0  0  0  0  0  0  0  0  0  0
  1  2  2  0  0  0  0
  1  3  1  0  0  0  0
  1  7  1  0  0  0  0
  3  4  1  0  0  0  0
  3  5  1  0  0  0  0
  3  6  1  0  0  0  0
  7  8  1  0  0  0  0
  7 12  1  0  0  0  0
  8  9  1  0  0  0  0
  8 11  1  0  0  0  0
  8 13  1  0  0  0  0
  9 10  2  0  0  0  0
  9 17  1  0  0  0  0
 11 14  1  0  0  0  0
 11 15  1  0  0  0  0
 11 16  1  0  0  0  0
 17 18  1  0  0  0  0
 17 21  1  0  0  0  0
 18 19  1  0  0  0  0
 18 22  1  0  0  0  0
 18 23  1  0  0  0  0
 19 20  2  0  0  0  0
 19 24  1  0  0  0  0
 24 25  1  0  0  0  0
 24 29  1  0  0  0  0
 25 26  1  0  0  0  0
 25 28  1  0  0  0  0
 25 30  1  0  0  0  0
 26 27  2  0  0  0  0
 26 34  1  0  0  0  0
 28 31  1  0  0  0  0
 28 32  1  0  0  0  0
 28 33  1  0  0  0  0
 34 35  1  0  0  0  0
 34 36  1  0  0  0  0
 35 37  1  0  0  0  0
 35 38  1  0  0  0  0
 35 39  1  0  0  0  0
M  END
$$$$

  -OEChem-05262216283D

 39 38  0     1  0  0  0  0  0999 V2000
   -4.6983   -2.7143   -2.0429 C   0  0  0  0  0  0  0  0  0  0  0  0
   -4.5266   -3.7769   -1.4669 O   0  0  0  0  0  0  0  0  0  0  0  0
   -6.0871   -2.3153   -2.5045 C   0  0  0  0  0  0  0  0  0  0  0  0
   -6.0647   -2.0403   -3.5616 H   0  0  0  0  0  0  0  0  0  0  0  0
   -6.7821   -3.1492   -2.3726 H   0  0  0  0  0  0  0  0  0  0  0  0
   -6.4430   -1.4629   -1.9206 H   0  0  0  0  0  0  0  0  0  0  0  0
   -3.6355   -1.8636   -2.2594 N   0  0  0  0  0  0  0  0  0  0  0  0
   -2.2920   -2.0567   -1.6976 C   0  0  2  0  0  0  0  0  0  0  0  0
   -1.6078   -0.7071   -1.3917 C   0  0  0  0  0  0  0  0  0  0  0  0
   -2.1304    0.3489   -1.7324 O   0  0  0  0  0  0  0  0  0  0  0  0
   -1.4613   -2.8786   -2.6881 C   0  0  0  0  0  0  0  0  0  0  0  0
   -3.8499   -0.9330   -2.6160 H   0  0  0  0  0  0  0  0  0  0  0  0
   -2.3611   -2.6044   -0.7515 H   0  0  0  0  0  0  0  0  0  0  0  0
   -1.3545   -2.3430   -3.6367 H   0  0  0  0  0  0  0  0  0  0  0  0
   -0.4639   -3.0764   -2.2828 H   0  0  0  0  0  0  0  0  0  0  0  0
   -1.9482   -3.8396   -2.8828 H   0  0  0  0  0  0  0  0  0  0  0  0
   -0.4137   -0.6702   -0.7008 N   0  0  0  0  0  0  0  0  0  0  0  0
    0.3781    0.5559   -0.4875 C   0  0  0  0  0  0  0  0  0  0  0  0
    1.4320    0.3524    0.6060 C   0  0  0  0  0  0  0  0  0  0  0  0
    2.5840    0.7187    0.4239 O   0  0  0  0  0  0  0  0  0  0  0  0
    0.0475   -1.5735   -0.5387 H   0  0  0  0  0  0  0  0  0  0  0  0
   -0.2744    1.3802   -0.1836 H   0  0  0  0  0  0  0  0  0  0  0  0
    0.8756    0.8451   -1.4186 H   0  0  0  0  0  0  0  0  0  0  0  0
    1.1504   -0.5438    1.6204 N   0  0  0  0  0  0  0  0  0  0  0  0
    2.1452   -1.5501    2.0112 C   0  0  2  0  0  0  0  0  0  0  0  0
    2.1325   -2.7455    1.0291 C   0  0  0  0  0  0  0  0  0  0  0  0
    1.1626   -2.9280    0.2934 O   0  0  0  0  0  0  0  0  0  0  0  0
    1.8121   -2.0121    3.4312 C   0  0  0  0  0  0  0  0  0  0  0  0
    0.1911   -0.8809    1.5843 H   0  0  0  0  0  0  0  0  0  0  0  0
    3.1498   -1.1131    2.0150 H   0  0  0  0  0  0  0  0  0  0  0  0
    0.8169   -2.4673    3.4646 H   0  0  0  0  0  0  0  0  0  0  0  0
    2.5431   -2.7501    3.7753 H   0  0  0  0  0  0  0  0  0  0  0  0
    1.8300   -1.1612    4.1196 H   0  0  0  0  0  0  0  0  0  0  0  0
    3.2046   -3.6148    0.9635 N   0  0  0  0  0  0  0  0  0  0  0  0
    3.2767   -4.7258    0.0219 C   0  0  0  0  0  0  0  0  0  0  0  0
    4.0210   -3.3969    1.5282 H   0  0  0  0  0  0  0  0  0  0  0  0
    2.4376   -5.4128    0.1741 H   0  0  0  0  0  0  0  0  0  0  0  0
    3.2481   -4.3573   -1.0090 H   0  0  0  0  0  0  0  0  0  0  0  0
    4.2078   -5.2829    0.1644 H   0  0  0  0  0  0  0  0  0  0  0  0
  1  2  2  0  0  0  0
  1  3  1  0  0  0  0
  1  7  1  0  0  0  0
  3  4  1  0  0  0  0
  3  5  1  0  0  0  0
  3  6  1  0  0  0  0
  7  8  1  0  0  0  0
  7 12  1  0  0  0  0
  8  9  1  0  0  0  0
  8 11  1  0  0  0  0
  8 13  1  0  0  0  0
  9 10  2  0  0  0  0
  9 17  1  0  0  0  0
 11 14  1  0  0  0  0
 11 15  1  0  0  0  0
 11 16  1  0  0  0  0
 17 18  1  0  0  0  0
 17 21  1  0  0  0  0
 18 19  1  0  0  0  0
 18 22  1  0  0  0  0
 18 23  1  0  0  0  0
 19 20  2  0  0  0  0
 19 24  1  0  0  0  0
 24 25  1  0  0  0  0
 24 29  1  0  0  0  0
 25 26  1  0  0  0  0
 25 28  1  0  0  0  0
 25 30  1  0  0  0  0
 26 27  2  0  0  0  0
 26 34  1  0  0  0  0
 28 31  1  0  0  0  0
 28 32  1  0  0  0  0
 28 33  1  0  0  0  0
 34 35  1  0  0  0  0
 34 36  1  0  0  0  0
 35 37  1  0  0  0  0
 35 38  1  0  0  0  0
 35 39  1  0  0  0  0
M  END
$$$$

  -OEChem-05262216283D

 39 38  0     1  0  0  0  0  0999 V2000
   -4.6989   -2.6949   -2.2114 C   0  0  0  0  0  0  0  0  0  0  0  0
   -4.5283   -3.7749   -1.6685 O   0  0  0  0  0  0  0  0  0  0  0  0
   -6.0807   -2.2930   -2.6905 C   0  0  0  0  0  0  0  0  0  0  0  0
   -6.0810   -2.1878   -3.7779 H   0  0  0  0  0  0  0  0  0  0  0  0
   -6.8144   -3.0534   -2.4091 H   0  0  0  0  0  0  0  0  0  0  0  0
   -6.3697   -1.3409   -2.2391 H   0  0  0  0  0  0  0  0  0  0  0  0
   -3.6402   -1.8293   -2.3828 N   0  0  0  0  0  0  0  0  0  0  0  0
   -2.3059   -2.0287   -1.8026 C   0  0  2  0  0  0  0  0  0  0  0  0
   -1.6671   -0.6861   -1.3871 C   0  0  0  0  0  0  0  0  0  0  0  0
   -2.2015    0.3766   -1.6858 O   0  0  0  0  0  0  0  0  0  0  0  0
   -1.4342   -2.7547   -2.8316 C   0  0  0  0  0  0  0  0  0  0  0  0
   -3.8614   -0.8850   -2.6971 H   0  0  0  0  0  0  0  0  0  0  0  0
   -2.3801   -2.6449   -0.8998 H   0  0  0  0  0  0  0  0  0  0  0  0
   -1.3195   -2.1466   -3.7343 H   0  0  0  0  0  0  0  0  0  0  0  0
   -0.4418   -2.9601   -2.4190 H   0  0  0  0  0  0  0  0  0  0  0  0
   -1.8930   -3.7086   -3.1098 H   0  0  0  0  0  0  0  0  0  0  0  0
   -0.4950   -0.6672   -0.6577 N   0  0  0  0  0  0  0  0  0  0  0  0
    0.2880    0.5598   -0.4110 C   0  0  0  0  0  0  0  0  0  0  0  0
    1.3178    0.3736    0.7108 C   0  0  0  0  0  0  0  0  0  0  0  0
    2.3927    0.9514    0.6442 O   0  0  0  0  0  0  0  0  0  0  0  0
    0.0034   -1.5630   -0.5993 H   0  0  0  0  0  0  0  0  0  0  0  0
   -0.3772    1.3797   -0.1231 H   0  0  0  0  0  0  0  0  0  0  0  0
    0.8082    0.8565   -1.3270 H   0  0  0  0  0  0  0  0  0  0  0  0
    1.1899   -0.7236    1.5423 N   0  0  0  0  0  0  0  0  0  0  0  0
    2.3141   -1.6492    1.7266 C   0  0  2  0  0  0  0  0  0  0  0  0
    2.3205   -2.7170    0.6078 C   0  0  0  0  0  0  0  0  0  0  0  0
    1.3089   -2.9025   -0.0688 O   0  0  0  0  0  0  0  0  0  0  0  0
    2.1672   -2.3029    3.1021 C   0  0  0  0  0  0  0  0  0  0  0  0
    0.2842   -1.1766    1.4429 H   0  0  0  0  0  0  0  0  0  0  0  0
    3.2678   -1.1109    1.6989 H   0  0  0  0  0  0  0  0  0  0  0  0
    1.2323   -2.8700    3.1615 H   0  0  0  0  0  0  0  0  0  0  0  0
    3.0011   -2.9857    3.2923 H   0  0  0  0  0  0  0  0  0  0  0  0
    2.1617   -1.5383    3.8857 H   0  0  0  0  0  0  0  0  0  0  0  0
    3.4567   -3.4573    0.3433 N   0  0  0  0  0  0  0  0  0  0  0  0
    3.5420   -4.4351   -0.7354 C   0  0  0  0  0  0  0  0  0  0  0  0
    4.2961   -3.2361    0.8721 H   0  0  0  0  0  0  0  0  0  0  0  0
    2.8010   -5.2291   -0.5930 H   0  0  0  0  0  0  0  0  0  0  0  0
    3.3634   -3.9552   -1.7036 H   0  0  0  0  0  0  0  0  0  0  0  0
    4.5366   -4.8915   -0.7544 H   0  0  0  0  0  0  0  0  0  0  0  0
  1  2  2  0  0  0  0
  1  3  1  0  0  0  0
  1  7  1  0  0  0  0
  3  4  1  0  0  0  0
  3  5  1  0  0  0  0
  3  6  1  0  0  0  0
  7  8  1  0  0  0  0
  7 12  1  0  0  0  0
  8  9  1  0  0  0  0
  8 11  1  0  0  0  0
  8 13  1  0  0  0  0
  9 10  2  0  0  0  0
  9 17  1  0  0  0  0
 11 14  1  0  0  0  0
 11 15  1  0  0  0  0
 11 16  1  0  0  0  0
 17 18  1  0  0  0  0
 17 21  1  0  0  0  0
 18 19  1  0  0  0  0
 18 22  1  0  0  0  0
 18 23  1  0  0  0  0
 19 20  2  0  0  0  0
 19 24  1  0  0  0  0
 24 25  1  0  0  0  0
 24 29  1  0  0  0  0
 25 26  1  0  0  0  0
 25 28  1  0  0  0  0
 25 30  1  0  0  0  0
 26 27  2  0  0  0  0
 26 34  1  0  0  0  0
 28 31  1  0  0  0  0
 28 32  1  0  0  0  0
 28 33  1  0  0  0  0
 34 35  1  0  0  0  0
 34 36  1  0  0  0  0
 35 37  1  0  0  0  0
 35 38  1  0  0  0  0
 35 39  1  0  0  0  0
M  END
$$$$

  -OEChem-05262216283D

 39 38  0     1  0  0  0  0  0999 V2000
   -5.0723   -2.6294   -2.4660 C   0  0  0  0  0  0  0  0  0  0  0  0
   -4.6602   -3.7762   -2.5382 O   0  0  0  0  0  0  0  0  0  0  0  0
   -6.5629   -2.3577   -2.3996 C   0  0  0  0  0  0  0  0  0  0  0  0
   -6.8681   -1.7396   -3.2472 H   0  0  0  0  0  0  0  0  0  0  0  0
   -7.1194   -3.2984   -2.4306 H   0  0  0  0  0  0  0  0  0  0  0  0
   -6.8047   -1.8362   -1.4706 H   0  0  0  0  0  0  0  0  0  0  0  0
   -4.1820   -1.5779   -2.4243 N   0  0  0  0  0  0  0  0  0  0  0  0
   -2.7281   -1.7312   -2.2837 C   0  0  2  0  0  0  0  0  0  0  0  0
   -2.1217   -0.5958   -1.4322 C   0  0  0  0  0  0  0  0  0  0  0  0
   -2.7819    0.4067   -1.1836 O   0  0  0  0  0  0  0  0  0  0  0  0
   -2.1081   -1.7512   -3.6842 C   0  0  0  0  0  0  0  0  0  0  0  0
   -4.5640   -0.6532   -2.2270 H   0  0  0  0  0  0  0  0  0  0  0  0
   -2.5018   -2.6754   -1.7759 H   0  0  0  0  0  0  0  0  0  0  0  0
   -2.3065   -0.8082   -4.2041 H   0  0  0  0  0  0  0  0  0  0  0  0
   -1.0252   -1.8968   -3.6258 H   0  0  0  0  0  0  0  0  0  0  0  0
   -2.5333   -2.5701   -4.2738 H   0  0  0  0  0  0  0  0  0  0  0  0
   -0.8352   -0.7000   -0.9342 N   0  0  0  0  0  0  0  0  0  0  0  0
   -0.1451    0.4303   -0.2782 C   0  0  0  0  0  0  0  0  0  0  0  0
    1.1058    0.0405    0.5215 C   0  0  0  0  0  0  0  0  0  0  0  0
    1.8155    0.9116    1.0011 O   0  0  0  0  0  0  0  0  0  0  0  0
   -0.2730   -1.4535   -1.3227 H   0  0  0  0  0  0  0  0  0  0  0  0
   -0.8306    0.9242    0.4184 H   0  0  0  0  0  0  0  0  0  0  0  0
    0.1465    1.1650   -1.0348 H   0  0  0  0  0  0  0  0  0  0  0  0
    1.5158   -1.2764    0.5964 N   0  0  0  0  0  0  0  0  0  0  0  0
    2.8355   -1.7262    1.0524 C   0  0  2  0  0  0  0  0  0  0  0  0
    3.2930   -2.9676    0.2564 C   0  0  0  0  0  0  0  0  0  0  0  0
    2.5149   -3.5159   -0.5194 O   0  0  0  0  0  0  0  0  0  0  0  0
    2.7486   -2.0319    2.5505 C   0  0  0  0  0  0  0  0  0  0  0  0
    0.9414   -1.9721    0.1274 H   0  0  0  0  0  0  0  0  0  0  0  0
    3.5776   -0.9377    0.8871 H   0  0  0  0  0  0  0  0  0  0  0  0
    2.0276   -2.8344    2.7366 H   0  0  0  0  0  0  0  0  0  0  0  0
    3.7237   -2.3416    2.9383 H   0  0  0  0  0  0  0  0  0  0  0  0
    2.4273   -1.1407    3.0996 H   0  0  0  0  0  0  0  0  0  0  0  0
    4.5786   -3.4586    0.3894 N   0  0  0  0  0  0  0  0  0  0  0  0
    5.0749   -4.6146   -0.3483 C   0  0  0  0  0  0  0  0  0  0  0  0
    5.2059   -2.9727    1.0242 H   0  0  0  0  0  0  0  0  0  0  0  0
    4.4828   -5.5049   -0.1110 H   0  0  0  0  0  0  0  0  0  0  0  0
    5.0213   -4.4331   -1.4271 H   0  0  0  0  0  0  0  0  0  0  0  0
    6.1177   -4.8142   -0.0835 H   0  0  0  0  0  0  0  0  0  0  0  0
  1  2  2  0  0  0  0
  1  3  1  0  0  0  0
  1  7  1  0  0  0  0
  3  4  1  0  0  0  0
  3  5  1  0  0  0  0
  3  6  1  0  0  0  0
  7  8  1  0  0  0  0
  7 12  1  0  0  0  0
  8  9  1  0  0  0  0
  8 11  1  0  0  0  0
  8 13  1  0  0  0  0
  9 10  2  0  0  0  0
  9 17  1  0  0  0  0
 11 14  1  0  0  0  0
 11 15  1  0  0  0  0
 11 16  1  0  0  0  0
 17 18  1  0  0  0  0
 17 21  1  0  0  0  0
 18 19  1  0  0  0  0
 18 22  1  0  0  0  0
 18 23  1  0  0  0  0
 19 20  2  0  0  0  0
 19 24  1  0  0  0  0
 24 25  1  0  0  0  0
 24 29  1  0  0  0  0
 25 26  1  0  0  0  0
 25 28  1  0  0  0  0
 25 30  1  0  0  0  0
 26 27  2  0  0  0  0
 26 34  1  0  0  0  0
 28 31  1  0  0  0  0
 28 32  1  0  0  0  0
 28 33  1  0  0  0  0
 34 35  1  0  0  0  0
 34 36  1  0  0  0  0
 35 37  1  0  0  0  0
 35 38  1  0  0  0  0
 35 39  1  0  0  0  0
M  END
$$$$

  -OEChem-05262216283D

 39 38  0     1  0  0  0  0  0999 V2000
   -3.7372   -3.3539   -2.7380 C   0  0  0  0  0  0  0  0  0  0  0  0
   -2.8886   -4.1206   -3.1656 O   0  0  0  0  0  0  0  0  0  0  0  0
   -5.1793   -3.8094   -2.6182 C   0  0  0  0  0  0  0  0  0  0  0  0
   -5.8154   -3.2070   -3.2712 H   0  0  0  0  0  0  0  0  0  0  0  0
   -5.2687   -4.8597   -2.9101 H   0  0  0  0  0  0  0  0  0  0  0  0
   -5.5209   -3.7004   -1.5860 H   0  0  0  0  0  0  0  0  0  0  0  0
   -3.3895   -2.0756   -2.3564 N   0  0  0  0  0  0  0  0  0  0  0  0
   -2.0071   -1.5872   -2.2639 C   0  0  2  0  0  0  0  0  0  0  0  0
   -1.8391   -0.5743   -1.1108 C   0  0  0  0  0  0  0  0  0  0  0  0
   -2.8200   -0.1399   -0.5156 O   0  0  0  0  0  0  0  0  0  0  0  0
   -1.6236   -0.9551   -3.6050 C   0  0  0  0  0  0  0  0  0  0  0  0
   -4.0992   -1.5257   -1.8735 H   0  0  0  0  0  0  0  0  0  0  0  0
   -1.3308   -2.4250   -2.0581 H   0  0  0  0  0  0  0  0  0  0  0  0
   -2.2634   -0.0933   -3.8199 H   0  0  0  0  0  0  0  0  0  0  0  0
   -0.5811   -0.6231   -3.5874 H   0  0  0  0  0  0  0  0  0  0  0  0
   -1.7375   -1.6850   -4.4131 H   0  0  0  0  0  0  0  0  0  0  0  0
   -0.5762   -0.1919   -0.7028 N   0  0  0  0  0  0  0  0  0  0  0  0
   -0.3473    0.3319    0.6582 C   0  0  0  0  0  0  0  0  0  0  0  0
    1.1372    0.3592    1.0505 C   0  0  0  0  0  0  0  0  0  0  0  0
    1.4321    0.1958    2.2233 O   0  0  0  0  0  0  0  0  0  0  0  0
    0.1560   -0.8032   -1.0798 H   0  0  0  0  0  0  0  0  0  0  0  0
   -0.8820   -0.2858    1.3879 H   0  0  0  0  0  0  0  0  0  0  0  0
   -0.7413    1.3500    0.7288 H   0  0  0  0  0  0  0  0  0  0  0  0
    2.0910    0.2235    0.0525 N   0  0  0  0  0  0  0  0  0  0  0  0
    3.1150   -0.8406    0.0112 C   0  0  2  0  0  0  0  0  0  0  0  0
    2.4853   -2.1619   -0.4948 C   0  0  0  0  0  0  0  0  0  0  0  0
    1.5116   -2.1032   -1.2437 O   0  0  0  0  0  0  0  0  0  0  0  0
    3.9057   -1.0158    1.3194 C   0  0  0  0  0  0  0  0  0  0  0  0
    1.6974    0.4367   -0.8608 H   0  0  0  0  0  0  0  0  0  0  0  0
    3.8477   -0.5407   -0.7441 H   0  0  0  0  0  0  0  0  0  0  0  0
    3.3039   -1.5225    2.0803 H   0  0  0  0  0  0  0  0  0  0  0  0
    4.8067   -1.6106    1.1437 H   0  0  0  0  0  0  0  0  0  0  0  0
    4.2107   -0.0397    1.7099 H   0  0  0  0  0  0  0  0  0  0  0  0
    3.0105   -3.3996   -0.1736 N   0  0  0  0  0  0  0  0  0  0  0  0
    2.4092   -4.6575   -0.6031 C   0  0  0  0  0  0  0  0  0  0  0  0
    3.7696   -3.4250    0.5017 H   0  0  0  0  0  0  0  0  0  0  0  0
    3.0097   -5.5029   -0.2533 H   0  0  0  0  0  0  0  0  0  0  0  0
    1.3980   -4.7586   -0.1945 H   0  0  0  0  0  0  0  0  0  0  0  0
    2.3536   -4.7040   -1.6961 H   0  0  0  0  0  0  0  0  0  0  0  0
  1  2  2  0  0  0  0
  1  3  1  0  0  0  0
  1  7  1  0  0  0  0
  3  4  1  0  0  0  0
  3  5  1  0  0  0  0
  3  6  1  0  0  0  0
  7  8  1  0  0  0  0
  7 12  1  0  0  0  0
  8  9  1  0  0  0  0
  8 11  1  0  0  0  0
  8 13  1  0  0  0  0
  9 10  2  0  0  0  0
  9 17  1  0  0  0  0
 11 14  1  0  0  0  0
 11 15  1  0  0  0  0
 11 16  1  0  0  0  0
 17 18  1  0  0  0  0
 17 21  1  0  0  0  0
 18 19  1  0  0  0  0
 18 22  1  0  0  0  0
 18 23  1  0  0  0  0
 19 20  2  0  0  0  0
 19 24  1  0  0  0  0
 24 25  1  0  0  0  0
 24 29  1  0  0  0  0
 25 26  1  0  0  0  0
 25 28  1  0  0  0  0
 25 30  1  0  0  0  0
 26 27  2  0  0  0  0
 26 34  1  0  0  0  0
 28 31  1  0  0  0  0
 28 32  1  0  0  0  0
 28 33  1  0  0  0  0
 34 35  1  0  0  0  0
 34 36  1  0  0  0  0
 35 37  1  0  0  0  0
 35 38  1  0  0  0  0
 35 39  1  0  0  0  0
M  END
$$$$

  -OEChem-05262216283D

 39 38  0     1  0  0  0  0  0999 V2000
   -3.7208   -3.2279   -2.9794 C   0  0  0  0  0  0  0  0  0  0  0  0
   -2.8631   -3.9052   -3.5234 O   0  0  0  0  0  0  0  0  0  0  0  0
   -5.1453   -3.7409   -2.8834 C   0  0  0  0  0  0  0  0  0  0  0  0
   -5.8306   -3.0319   -3.3540 H   0  0  0  0  0  0  0  0  0  0  0  0
   -5.2338   -4.7058   -3.3908 H   0  0  0  0  0  0  0  0  0  0  0  0
   -5.4256   -3.8668   -1.8347 H   0  0  0  0  0  0  0  0  0  0  0  0
   -3.3978   -2.0028   -2.4359 N   0  0  0  0  0  0  0  0  0  0  0  0
   -2.0263   -1.4953   -2.2978 C   0  0  2  0  0  0  0  0  0  0  0  0
   -1.8753   -0.6162   -1.0379 C   0  0  0  0  0  0  0  0  0  0  0  0
   -2.8617   -0.2724   -0.3945 O   0  0  0  0  0  0  0  0  0  0  0  0
   -1.6664   -0.7055   -3.5594 C   0  0  0  0  0  0  0  0  0  0  0  0
   -4.1107   -1.5436   -1.8700 H   0  0  0  0  0  0  0  0  0  0  0  0
   -1.3294   -2.3346   -2.1912 H   0  0  0  0  0  0  0  0  0  0  0  0
   -2.3360    0.1519   -3.6792 H   0  0  0  0  0  0  0  0  0  0  0  0
   -0.6362   -0.3412   -3.5027 H   0  0  0  0  0  0  0  0  0  0  0  0
   -1.7558   -1.3447   -4.4435 H   0  0  0  0  0  0  0  0  0  0  0  0
   -0.6208   -0.2486   -0.5948 N   0  0  0  0  0  0  0  0  0  0  0  0
   -0.3873    0.1695    0.8002 C   0  0  0  0  0  0  0  0  0  0  0  0
    1.1064    0.1725    1.1482 C   0  0  0  0  0  0  0  0  0  0  0  0
    1.4722   -0.3512    2.1883 O   0  0  0  0  0  0  0  0  0  0  0  0
    0.1387   -0.7704   -1.0473 H   0  0  0  0  0  0  0  0  0  0  0  0
   -0.9039   -0.5103    1.4865 H   0  0  0  0  0  0  0  0  0  0  0  0
   -0.7889    1.1743    0.9593 H   0  0  0  0  0  0  0  0  0  0  0  0
    2.0105    0.4382    0.1304 N   0  0  0  0  0  0  0  0  0  0  0  0
    3.1676   -0.4244   -0.1781 C   0  0  2  0  0  0  0  0  0  0  0  0
    2.6886   -1.7831   -0.7479 C   0  0  0  0  0  0  0  0  0  0  0  0
    1.6722   -1.8065   -1.4401 O   0  0  0  0  0  0  0  0  0  0  0  0
    4.1589   -0.5613    0.9913 C   0  0  0  0  0  0  0  0  0  0  0  0
    1.5490    0.8237   -0.6900 H   0  0  0  0  0  0  0  0  0  0  0  0
    3.7210    0.0651   -0.9854 H   0  0  0  0  0  0  0  0  0  0  0  0
    3.7781   -1.2406    1.7600 H   0  0  0  0  0  0  0  0  0  0  0  0
    5.1157   -0.9533    0.6338 H   0  0  0  0  0  0  0  0  0  0  0  0
    4.3381    0.4163    1.4499 H   0  0  0  0  0  0  0  0  0  0  0  0
    3.3844   -2.9586   -0.5346 N   0  0  0  0  0  0  0  0  0  0  0  0
    2.9099   -4.2598   -0.9926 C   0  0  0  0  0  0  0  0  0  0  0  0
    4.1564   -2.9261    0.1254 H   0  0  0  0  0  0  0  0  0  0  0  0
    1.9563   -4.5102   -0.5154 H   0  0  0  0  0  0  0  0  0  0  0  0
    2.7706   -4.2587   -2.0790 H   0  0  0  0  0  0  0  0  0  0  0  0
    3.6378   -5.0374   -0.7412 H   0  0  0  0  0  0  0  0  0  0  0  0
  1  2  2  0  0  0  0
  1  3  1  0  0  0  0
  1  7  1  0  0  0  0
  3  4  1  0  0  0  0
  3  5  1  0  0  0  0
  3  6  1  0  0  0  0
  7  8  1  0  0  0  0
  7 12  1  0  0  0  0
  8  9  1  0  0  0  0
  8 11  1  0  0  0  0
  8 13  1  0  0  0  0
  9 10  2  0  0  0  0
  9 17  1  0  0  0  0
 11 14  1  0  0  0  0
 11 15  1  0  0  0  0
 11 16  1  0  0  0  0
 17 18  1  0  0  0  0
 17 21  1  0  0  0  0
 18 19  1  0  0  0  0
 18 22  1  0  0  0  0
 18 23  1  0  0  0  0
 19 20  2  0  0  0  0
 19 24  1  0  0  0  0
 24 25  1  0  0  0  0
 24 29  1  0  0  0  0
 25 26  1  0  0  0  0
 25 28  1  0  0  0  0
 25 30  1  0  0  0  0
 26 27  2  0  0  0  0
 26 34  1  0  0  0  0
 28 31  1  0  0  0  0
 28 32  1  0  0  0  0
 28 33  1  0  0  0  0
 34 35  1  0  0  0  0
 34 36  1  0  0  0  0
 35 37  1  0  0  0  0
 35 38  1  0  0  0  0
 35 39  1  0  0  0  0
M  END
$$$$

  -OEChem-05262216283D

 39 38  0     1  0  0  0  0  0999 V2000
   -3.6675   -3.1176   -3.1504 C   0  0  0  0  0  0  0  0  0  0  0  0
   -2.8008   -3.7204   -3.7636 O   0  0  0  0  0  0  0  0  0  0  0  0
   -5.0830   -3.6616   -3.1046 C   0  0  0  0  0  0  0  0  0  0  0  0
   -5.7691   -2.9528   -3.5743 H   0  0  0  0  0  0  0  0  0  0  0  0
   -5.1385   -4.6136   -3.6396 H   0  0  0  0  0  0  0  0  0  0  0  0
   -5.3887   -3.8227   -2.0680 H   0  0  0  0  0  0  0  0  0  0  0  0
   -3.3640   -1.9459   -2.4902 N   0  0  0  0  0  0  0  0  0  0  0  0
   -2.0036   -1.4182   -2.3206 C   0  0  2  0  0  0  0  0  0  0  0  0
   -1.8591   -0.6495   -0.9898 C   0  0  0  0  0  0  0  0  0  0  0  0
   -2.8475   -0.3770   -0.3158 O   0  0  0  0  0  0  0  0  0  0  0  0
   -1.6805   -0.5101   -3.5106 C   0  0  0  0  0  0  0  0  0  0  0  0
   -4.0829   -1.5532   -1.8833 H   0  0  0  0  0  0  0  0  0  0  0  0
   -1.2850   -2.2452   -2.2969 H   0  0  0  0  0  0  0  0  0  0  0  0
   -2.3756    0.3347   -3.5481 H   0  0  0  0  0  0  0  0  0  0  0  0
   -0.6602   -0.1223   -3.4306 H   0  0  0  0  0  0  0  0  0  0  0  0
   -1.7616   -1.0708   -4.4474 H   0  0  0  0  0  0  0  0  0  0  0  0
   -0.6112   -0.2869   -0.5249 N   0  0  0  0  0  0  0  0  0  0  0  0
   -0.3734    0.0936    0.8794 C   0  0  0  0  0  0  0  0  0  0  0  0
    1.1243    0.0851    1.1977 C   0  0  0  0  0  0  0  0  0  0  0  0
    1.5521   -0.6814    2.0468 O   0  0  0  0  0  0  0  0  0  0  0  0
    0.1755   -0.7049   -1.0363 H   0  0  0  0  0  0  0  0  0  0  0  0
   -0.8787   -0.6074    1.5526 H   0  0  0  0  0  0  0  0  0  0  0  0
   -0.7754    1.0926    1.0717 H   0  0  0  0  0  0  0  0  0  0  0  0
    1.9782    0.6762    0.2798 N   0  0  0  0  0  0  0  0  0  0  0  0
    3.2102    0.0181   -0.1919 C   0  0  2  0  0  0  0  0  0  0  0  0
    2.8710   -1.3128   -0.9091 C   0  0  0  0  0  0  0  0  0  0  0  0
    1.8708   -1.3596   -1.6238 O   0  0  0  0  0  0  0  0  0  0  0  0
    4.2704   -0.1207    0.9157 C   0  0  0  0  0  0  0  0  0  0  0  0
    1.4714    1.1896   -0.4373 H   0  0  0  0  0  0  0  0  0  0  0  0
    3.6506    0.6680   -0.9541 H   0  0  0  0  0  0  0  0  0  0  0  0
    4.0065   -0.9059    1.6302 H   0  0  0  0  0  0  0  0  0  0  0  0
    5.2422   -0.3700    0.4793 H   0  0  0  0  0  0  0  0  0  0  0  0
    4.3708    0.8227    1.4611 H   0  0  0  0  0  0  0  0  0  0  0  0
    3.6589   -2.4406   -0.7748 N   0  0  0  0  0  0  0  0  0  0  0  0
    3.2916   -3.7357   -1.3355 C   0  0  0  0  0  0  0  0  0  0  0  0
    4.3799   -2.4103   -0.0593 H   0  0  0  0  0  0  0  0  0  0  0  0
    2.3636   -4.0998   -0.8816 H   0  0  0  0  0  0  0  0  0  0  0  0
    3.1487   -3.6607   -2.4189 H   0  0  0  0  0  0  0  0  0  0  0  0
    4.0825   -4.4676   -1.1444 H   0  0  0  0  0  0  0  0  0  0  0  0
  1  2  2  0  0  0  0
  1  3  1  0  0  0  0
  1  7  1  0  0  0  0
  3  4  1  0  0  0  0
  3  5  1  0  0  0  0
  3  6  1  0  0  0  0
  7  8  1  0  0  0  0
  7 12  1  0  0  0  0
  8  9  1  0  0  0  0
  8 11  1  0  0  0  0
  8 13  1  0  0  0  0
  9 10  2  0  0  0  0
  9 17  1  0  0  0  0
 11 14  1  0  0  0  0
 11 15  1  0  0  0  0
 11 16  1  0  0  0  0
 17 18  1  0  0  0  0
 17 21  1  0  0  0  0
 18 19  1  0  0  0  0
 18 22  1  0  0  0  0
 18 23  1  0  0  0  0
 19 20  2  0  0  0  0
 19 24  1  0  0  0  0
 24 25  1  0  0  0  0
 24 29  1  0  0  0  0
 25 26  1  0  0  0  0
 25 28  1  0  0  0  0
 25 30  1  0  0  0  0
 26 27  2  0  0  0  0
 26 34  1  0  0  0  0
 28 31  1  0  0  0  0
 28 32  1  0  0  0  0
 28 33  1  0  0  0  0
 34 35  1  0  0  0  0
 34 36  1  0  0  0  0
 35 37  1  0  0  0  0
 35 38  1  0  0  0  0
 35 39  1  0  0  0  0
M  END
$$$$

  -OEChem-05262216283D

 39 38  0     1  0  0  0  0  0999 V2000
   -3.6006   -3.0237   -3.2541 C   0  0  0  0  0  0  0  0  0  0  0  0
   -2.7228   -3.5814   -3.8934 O   0  0  0  0  0  0  0  0  0  0  0  0
   -5.0130   -3.5776   -3.2590 C   0  0  0  0  0  0  0  0  0  0  0  0
   -5.7060   -2.8266   -3.6454 H   0  0  0  0  0  0  0  0  0  0  0  0
   -5.0669   -4.4669   -3.8931 H   0  0  0  0  0  0  0  0  0  0  0  0
   -5.3109   -3.8504   -2.2437 H   0  0  0  0  0  0  0  0  0  0  0  0
   -3.3132   -1.8930   -2.5198 N   0  0  0  0  0  0  0  0  0  0  0  0
   -1.9590   -1.3684   -2.2986 C   0  0  2  0  0  0  0  0  0  0  0  0
   -1.8408   -0.6774   -0.9232 C   0  0  0  0  0  0  0  0  0  0  0  0
   -2.8396   -0.4639   -0.2430 O   0  0  0  0  0  0  0  0  0  0  0  0
   -1.6201   -0.3893   -3.4268 C   0  0  0  0  0  0  0  0  0  0  0  0
   -4.0412   -1.5462   -1.8963 H   0  0  0  0  0  0  0  0  0  0  0  0
   -1.2358   -2.1914   -2.3113 H   0  0  0  0  0  0  0  0  0  0  0  0
   -2.3182    0.4538   -3.4254 H   0  0  0  0  0  0  0  0  0  0  0  0
   -0.6031   -0.0028   -3.3064 H   0  0  0  0  0  0  0  0  0  0  0  0
   -1.6822   -0.8926   -4.3969 H   0  0  0  0  0  0  0  0  0  0  0  0
   -0.6068   -0.3031   -0.4328 N   0  0  0  0  0  0  0  0  0  0  0  0
   -0.3793    0.1053    0.9631 C   0  0  0  0  0  0  0  0  0  0  0  0
    1.1189    0.0940    1.2708 C   0  0  0  0  0  0  0  0  0  0  0  0
    1.5950   -0.8174    1.9307 O   0  0  0  0  0  0  0  0  0  0  0  0
    0.2067   -0.6095   -0.9799 H   0  0  0  0  0  0  0  0  0  0  0  0
   -0.8851   -0.5835    1.6482 H   0  0  0  0  0  0  0  0  0  0  0  0
   -0.7808    1.1076    1.1364 H   0  0  0  0  0  0  0  0  0  0  0  0
    1.9324    0.9228    0.5148 N   0  0  0  0  0  0  0  0  0  0  0  0
    3.2098    0.4512   -0.0509 C   0  0  2  0  0  0  0  0  0  0  0  0
    2.9894   -0.7939   -0.9498 C   0  0  0  0  0  0  0  0  0  0  0  0
    1.9927   -0.8370   -1.6696 O   0  0  0  0  0  0  0  0  0  0  0  0
    4.2842    0.2593    1.0342 C   0  0  0  0  0  0  0  0  0  0  0  0
    1.3984    1.5382   -0.0936 H   0  0  0  0  0  0  0  0  0  0  0  0
    3.5813    1.2384   -0.7140 H   0  0  0  0  0  0  0  0  0  0  0  0
    4.0810   -0.6211    1.6506 H   0  0  0  0  0  0  0  0  0  0  0  0
    5.2690    0.1352    0.5740 H   0  0  0  0  0  0  0  0  0  0  0  0
    4.3192    1.1365    1.6875 H   0  0  0  0  0  0  0  0  0  0  0  0
    3.8803   -1.8509   -0.9712 N   0  0  0  0  0  0  0  0  0  0  0  0
    3.6282   -3.0845   -1.7074 C   0  0  0  0  0  0  0  0  0  0  0  0
    4.5959   -1.8568   -0.2499 H   0  0  0  0  0  0  0  0  0  0  0  0
    2.7404   -3.5911   -1.3139 H   0  0  0  0  0  0  0  0  0  0  0  0
    3.4714   -2.8738   -2.7708 H   0  0  0  0  0  0  0  0  0  0  0  0
    4.4834   -3.7611   -1.6147 H   0  0  0  0  0  0  0  0  0  0  0  0
  1  2  2  0  0  0  0
  1  3  1  0  0  0  0
  1  7  1  0  0  0  0
  3  4  1  0  0  0  0
  3  5  1  0  0  0  0
  3  6  1  0  0  0  0
  7  8  1  0  0  0  0
  7 12  1  0  0  0  0
  8  9  1  0  0  0  0
  8 11  1  0  0  0  0
  8 13  1  0  0  0  0
  9 10  2  0  0  0  0
  9 17  1  0  0  0  0
 11 14  1  0  0  0  0
 11 15  1  0  0  0  0
 11 16  1  0  0  0  0
 17 18  1  0  0  0  0
 17 21  1  0  0  0  0
 18 19  1  0  0  0  0
 18 22  1  0  0  0  0
 18 23  1  0  0  0  0
 19 20  2  0  0  0  0
 19 24  1  0  0  0  0
 24 25  1  0  0  0  0
 24 29  1  0  0  0  0
 25 26  1  0  0  0  0
 25 28  1  0  0  0  0
 25 30  1  0  0  0  0
 26 27  2  0  0  0  0
 26 34  1  0  0  0  0
 28 31  1  0  0  0  0
 28 32  1  0  0  0  0
 28 33  1  0  0  0  0
 34 35  1  0  0  0  0
 34 36  1  0  0  0  0
 35 37  1  0  0  0  0
 35 38  1  0  0  0  0
 35 39  1  0  0  0  0
M  END
$$$$

  -OEChem-05262216283D

 39 38  0     1  0  0  0  0  0999 V2000
   -3.4473   -2.9432   -3.3468 C   0  0  0  0  0  0  0  0  0  0  0  0
   -2.5393   -3.4090   -4.0173 O   0  0  0  0  0  0  0  0  0  0  0  0
   -4.8343   -3.5534   -3.4187 C   0  0  0  0  0  0  0  0  0  0  0  0
   -5.5524   -2.8065   -3.7655 H   0  0  0  0  0  0  0  0  0  0  0  0
   -4.8393   -4.3971   -4.1145 H   0  0  0  0  0  0  0  0  0  0  0  0
   -5.1373   -3.9098   -2.4312 H   0  0  0  0  0  0  0  0  0  0  0  0
   -3.2160   -1.8666   -2.5175 N   0  0  0  0  0  0  0  0  0  0  0  0
   -1.8869   -1.3063   -2.2411 C   0  0  2  0  0  0  0  0  0  0  0  0
   -1.8049   -0.7158   -0.8175 C   0  0  0  0  0  0  0  0  0  0  0  0
   -2.8126   -0.5982   -0.1271 O   0  0  0  0  0  0  0  0  0  0  0  0
   -1.5786   -0.2344   -3.2917 C   0  0  0  0  0  0  0  0  0  0  0  0
   -3.9642   -1.5997   -1.8786 H   0  0  0  0  0  0  0  0  0  0  0  0
   -1.1316   -2.0974   -2.3059 H   0  0  0  0  0  0  0  0  0  0  0  0
   -2.3049    0.5823   -3.2317 H   0  0  0  0  0  0  0  0  0  0  0  0
   -0.5757    0.1764   -3.1383 H   0  0  0  0  0  0  0  0  0  0  0  0
   -1.6211   -0.6659   -4.2968 H   0  0  0  0  0  0  0  0  0  0  0  0
   -0.5908   -0.3138   -0.3032 N   0  0  0  0  0  0  0  0  0  0  0  0
   -0.3788    0.1302    1.0823 C   0  0  0  0  0  0  0  0  0  0  0  0
    1.1198    0.1336    1.3839 C   0  0  0  0  0  0  0  0  0  0  0  0
    1.6521   -0.8764    1.8213 O   0  0  0  0  0  0  0  0  0  0  0  0
    0.2359   -0.4693   -0.8919 H   0  0  0  0  0  0  0  0  0  0  0  0
   -0.8772   -0.5495    1.7816 H   0  0  0  0  0  0  0  0  0  0  0  0
   -0.7919    1.1315    1.2324 H   0  0  0  0  0  0  0  0  0  0  0  0
    1.8825    1.1562    0.8428 N   0  0  0  0  0  0  0  0  0  0  0  0
    3.1740    0.8735    0.1890 C   0  0  2  0  0  0  0  0  0  0  0  0
    3.0255   -0.2302   -0.8933 C   0  0  0  0  0  0  0  0  0  0  0  0
    2.0366   -0.2172   -1.6249 O   0  0  0  0  0  0  0  0  0  0  0  0
    4.2753    0.5906    1.2254 C   0  0  0  0  0  0  0  0  0  0  0  0
    1.3175    1.8653    0.3832 H   0  0  0  0  0  0  0  0  0  0  0  0
    3.4761    1.7791   -0.3457 H   0  0  0  0  0  0  0  0  0  0  0  0
    4.1235   -0.3736    1.7188 H   0  0  0  0  0  0  0  0  0  0  0  0
    5.2570    0.5794    0.7425 H   0  0  0  0  0  0  0  0  0  0  0  0
    4.2791    1.3720    1.9915 H   0  0  0  0  0  0  0  0  0  0  0  0
    3.9578   -1.2397   -1.0455 N   0  0  0  0  0  0  0  0  0  0  0  0
    3.7513   -2.3762   -1.9354 C   0  0  0  0  0  0  0  0  0  0  0  0
    4.6558   -1.3243   -0.3120 H   0  0  0  0  0  0  0  0  0  0  0  0
    2.8565   -2.9355   -1.6414 H   0  0  0  0  0  0  0  0  0  0  0  0
    3.6318   -2.0387   -2.9704 H   0  0  0  0  0  0  0  0  0  0  0  0
    4.6118   -3.0507   -1.8913 H   0  0  0  0  0  0  0  0  0  0  0  0
  1  2  2  0  0  0  0
  1  3  1  0  0  0  0
  1  7  1  0  0  0  0
  3  4  1  0  0  0  0
  3  5  1  0  0  0  0
  3  6  1  0  0  0  0
  7  8  1  0  0  0  0
  7 12  1  0  0  0  0
  8  9  1  0  0  0  0
  8 11  1  0  0  0  0
  8 13  1  0  0  0  0
  9 10  2  0  0  0  0
  9 17  1  0  0  0  0
 11 14  1  0  0  0  0
 11 15  1  0  0  0  0
 11 16  1  0  0  0  0
 17 18  1  0  0  0  0
 17 21  1  0  0  0  0
 18 19  1  0  0  0  0
 18 22  1  0  0  0  0
 18 23  1  0  0  0  0
 19 20  2  0  0  0  0
 19 24  1  0  0  0  0
 24 25  1  0  0  0  0
 24 29  1  0  0  0  0
 25 26  1  0  0  0  0
 25 28  1  0  0  0  0
 25 30  1  0  0  0  0
 26 27  2  0  0  0  0
 26 34  1  0  0  0  0
 28 31  1  0  0  0  0
 28 32  1  0  0  0  0
 28 33  1  0  0  0  0
 34 35  1  0  0  0  0
 34 36  1  0  0  0  0
 35 37  1  0  0  0  0
 35 38  1  0  0  0  0
 35 39  1  0  0  0  0
M  END
$$$$

  -OEChem-05262216283D

 39 38  0     1  0  0  0  0  0999 V2000
   -3.4586   -2.8936   -3.3467 C   0  0  0  0  0  0  0  0  0  0  0  0
   -2.5554   -3.3534   -4.0273 O   0  0  0  0  0  0  0  0  0  0  0  0
   -4.8518   -3.4876   -3.4323 C   0  0  0  0  0  0  0  0  0  0  0  0
   -5.5810   -2.7029   -3.6469 H   0  0  0  0  0  0  0  0  0  0  0  0
   -4.8947   -4.2349   -4.2295 H   0  0  0  0  0  0  0  0  0  0  0  0
   -5.1103   -3.9669   -2.4850 H   0  0  0  0  0  0  0  0  0  0  0  0
   -3.2140   -1.8470   -2.4837 N   0  0  0  0  0  0  0  0  0  0  0  0
   -1.8786   -1.3160   -2.1805 C   0  0  2  0  0  0  0  0  0  0  0  0
   -1.8206   -0.7209   -0.7571 C   0  0  0  0  0  0  0  0  0  0  0  0
   -2.8433   -0.5941   -0.0904 O   0  0  0  0  0  0  0  0  0  0  0  0
   -1.5186   -0.2549   -3.2258 C   0  0  0  0  0  0  0  0  0  0  0  0
   -3.9620   -1.5862   -1.8419 H   0  0  0  0  0  0  0  0  0  0  0  0
   -1.1415   -2.1254   -2.2242 H   0  0  0  0  0  0  0  0  0  0  0  0
   -2.2338    0.5729   -3.1937 H   0  0  0  0  0  0  0  0  0  0  0  0
   -0.5153    0.1416   -3.0407 H   0  0  0  0  0  0  0  0  0  0  0  0
   -1.5341   -0.6906   -4.2298 H   0  0  0  0  0  0  0  0  0  0  0  0
   -0.6179   -0.3182   -0.2161 N   0  0  0  0  0  0  0  0  0  0  0  0
   -0.4482    0.1993    1.1486 C   0  0  0  0  0  0  0  0  0  0  0  0
    1.0371    0.1848    1.5097 C   0  0  0  0  0  0  0  0  0  0  0  0
    1.5844   -0.8732    1.7866 O   0  0  0  0  0  0  0  0  0  0  0  0
    0.2203   -0.4181   -0.7988 H   0  0  0  0  0  0  0  0  0  0  0  0
   -0.9873   -0.4292    1.8651 H   0  0  0  0  0  0  0  0  0  0  0  0
   -0.8447    1.2154    1.2249 H   0  0  0  0  0  0  0  0  0  0  0  0
    1.7877    1.3113    1.2153 N   0  0  0  0  0  0  0  0  0  0  0  0
    3.1209    1.1826    0.5968 C   0  0  2  0  0  0  0  0  0  0  0  0
    3.0897    0.2731   -0.6640 C   0  0  0  0  0  0  0  0  0  0  0  0
    2.0924    0.2676   -1.3848 O   0  0  0  0  0  0  0  0  0  0  0  0
    4.1720    0.7586    1.6373 C   0  0  0  0  0  0  0  0  0  0  0  0
    1.2237    2.0782    0.8598 H   0  0  0  0  0  0  0  0  0  0  0  0
    3.4145    2.1757    0.2436 H   0  0  0  0  0  0  0  0  0  0  0  0
    4.0437   -0.2874    1.9309 H   0  0  0  0  0  0  0  0  0  0  0  0
    5.1808    0.8807    1.2315 H   0  0  0  0  0  0  0  0  0  0  0  0
    4.0863    1.3809    2.5335 H   0  0  0  0  0  0  0  0  0  0  0  0
    4.1746   -0.5065   -1.0205 N   0  0  0  0  0  0  0  0  0  0  0  0
    4.1475   -1.4444   -2.1364 C   0  0  0  0  0  0  0  0  0  0  0  0
    4.9166   -0.5951   -0.3326 H   0  0  0  0  0  0  0  0  0  0  0  0
    3.4145   -2.2370   -1.9531 H   0  0  0  0  0  0  0  0  0  0  0  0
    3.8852   -0.9295   -3.0666 H   0  0  0  0  0  0  0  0  0  0  0  0
    5.1318   -1.9044   -2.2661 H   0  0  0  0  0  0  0  0  0  0  0  0
  1  2  2  0  0  0  0
  1  3  1  0  0  0  0
  1  7  1  0  0  0  0
  3  4  1  0  0  0  0
  3  5  1  0  0  0  0
  3  6  1  0  0  0  0
  7  8  1  0  0  0  0
  7 12  1  0  0  0  0
  8  9  1  0  0  0  0
  8 11  1  0  0  0  0
  8 13  1  0  0  0  0
  9 10  2  0  0  0  0
  9 17  1  0  0  0  0
 11 14  1  0  0  0  0
 11 15  1  0  0  0  0
 11 16  1  0  0  0  0
 17 18  1  0  0  0  0
 17 21  1  0  0  0  0
 18 19  1  0  0  0  0
 18 22  1  0  0  0  0
 18 23  1  0  0  0  0
 19 20  2  0  0  0  0
 19 24  1  0  0  0  0
 24 25  1  0  0  0  0
 24 29  1  0  0  0  0
 25 26  1  0  0  0  0
 25 28  1  0  0  0  0
 25 30  1  0  0  0  0
 26 27  2  0  0  0  0
 26 34  1  0  0  0  0
 28 31  1  0  0  0  0
 28 32  1  0  0  0  0
 28 33  1  0  0  0  0
 34 35  1  0  0  0  0
 34 36  1  0  0  0  0
 35 37  1  0  0  0  0
 35 38  1  0  0  0  0
 35 39  1  0  0  0  0
M  END
$$$$

  -OEChem-05262216283D

 39 38  0     1  0  0  0  0  0999 V2000
   -3.7488   -3.0037   -3.2125 C   0  0  0  0  0  0  0  0  0  0  0  0
   -2.9141   -3.4442   -3.9867 O   0  0  0  0  0  0  0  0  0  0  0  0
   -5.1135   -3.6568   -3.1073 C   0  0  0  0  0  0  0  0  0  0  0  0
   -5.8974   -2.9112   -3.2593 H   0  0  0  0  0  0  0  0  0  0  0  0
   -5.2177   -4.4365   -3.8667 H   0  0  0  0  0  0  0  0  0  0  0  0
   -5.2354   -4.1071   -2.1193 H   0  0  0  0  0  0  0  0  0  0  0  0
   -3.4455   -1.9197   -2.4172 N   0  0  0  0  0  0  0  0  0  0  0  0
   -2.1133   -1.3102   -2.3211 C   0  0  2  0  0  0  0  0  0  0  0  0
   -1.8761   -0.6837   -0.9309 C   0  0  0  0  0  0  0  0  0  0  0  0
   -2.8073   -0.5376   -0.1460 O   0  0  0  0  0  0  0  0  0  0  0  0
   -1.9800   -0.2511   -3.4204 C   0  0  0  0  0  0  0  0  0  0  0  0
   -4.1226   -1.6595   -1.7007 H   0  0  0  0  0  0  0  0  0  0  0  0
   -1.3463   -2.0787   -2.4673 H   0  0  0  0  0  0  0  0  0  0  0  0
   -2.7368    0.5296   -3.2934 H   0  0  0  0  0  0  0  0  0  0  0  0
   -0.9898    0.2135   -3.3899 H   0  0  0  0  0  0  0  0  0  0  0  0
   -2.1133   -0.7084   -4.4061 H   0  0  0  0  0  0  0  0  0  0  0  0
   -0.6107   -0.2844   -0.5459 N   0  0  0  0  0  0  0  0  0  0  0  0
   -0.2844    0.0709    0.8430 C   0  0  0  0  0  0  0  0  0  0  0  0
    1.2283    0.1188    1.0764 C   0  0  0  0  0  0  0  0  0  0  0  0
    1.8762   -0.9128    0.9648 O   0  0  0  0  0  0  0  0  0  0  0  0
    0.1557   -0.5803   -1.1480 H   0  0  0  0  0  0  0  0  0  0  0  0
   -0.7083   -0.6690    1.5302 H   0  0  0  0  0  0  0  0  0  0  0  0
   -0.7247    1.0417    1.0888 H   0  0  0  0  0  0  0  0  0  0  0  0
    1.8692    1.3415    1.1904 N   0  0  0  0  0  0  0  0  0  0  0  0
    3.3269    1.5796    1.2463 C   0  0  2  0  0  0  0  0  0  0  0  0
    4.0781    1.2565   -0.0664 C   0  0  0  0  0  0  0  0  0  0  0  0
    4.7218    2.1354   -0.6231 O   0  0  0  0  0  0  0  0  0  0  0  0
    3.9664    0.8568    2.4403 C   0  0  0  0  0  0  0  0  0  0  0  0
    1.2689    2.1612    1.1522 H   0  0  0  0  0  0  0  0  0  0  0  0
    3.4664    2.6520    1.4176 H   0  0  0  0  0  0  0  0  0  0  0  0
    3.9604   -0.2281    2.3006 H   0  0  0  0  0  0  0  0  0  0  0  0
    5.0061    1.1782    2.5585 H   0  0  0  0  0  0  0  0  0  0  0  0
    3.4255    1.0928    3.3616 H   0  0  0  0  0  0  0  0  0  0  0  0
    4.0136    0.0020   -0.6394 N   0  0  0  0  0  0  0  0  0  0  0  0
    4.6702   -0.3623   -1.8873 C   0  0  0  0  0  0  0  0  0  0  0  0
    3.4260   -0.6841   -0.1579 H   0  0  0  0  0  0  0  0  0  0  0  0
    4.3207    0.2763   -2.7052 H   0  0  0  0  0  0  0  0  0  0  0  0
    5.7558   -0.2536   -1.7940 H   0  0  0  0  0  0  0  0  0  0  0  0
    4.4469   -1.4031   -2.1409 H   0  0  0  0  0  0  0  0  0  0  0  0
  1  2  2  0  0  0  0
  1  3  1  0  0  0  0
  1  7  1  0  0  0  0
  3  4  1  0  0  0  0
  3  5  1  0  0  0  0
  3  6  1  0  0  0  0
  7  8  1  0  0  0  0
  7 12  1  0  0  0  0
  8  9  1  0  0  0  0
  8 11  1  0  0  0  0
  8 13  1  0  0  0  0
  9 10  2  0  0  0  0
  9 17  1  0  0  0  0
 11 14  1  0  0  0  0
 11 15  1  0  0  0  0
 11 16  1  0  0  0  0
 17 18  1  0  0  0  0
 17 21  1  0  0  0  0
 18 19  1  0  0  0  0
 18 22  1  0  0  0  0
 18 23  1  0  0  0  0
 19 20  2  0  0  0  0
 19 24  1  0  0  0  0
 24 25  1  0  0  0  0
 24 29  1  0  0  0  0
 25 26  1  0  0  0  0
 25 28  1  0  0  0  0
 25 30  1  0  0  0  0
 26 27  2  0  0  0  0
 26 34  1  0  0  0  0
 28 31  1  0  0  0  0
 28 32  1  0  0  0  0
 28 33  1  0  0  0  0
 34 35  1  0  0  0  0
 34 36  1  0  0  0  0
 35 37  1  0  0  0  0
 35 38  1  0  0  0  0
 35 39  1  0  0  0  0
M  END
$$$$

  -OEChem-05262216283D

 39 38  0     1  0  0  0  0  0999 V2000
   -3.7131   -2.9738   -3.2035 C   0  0  0  0  0  0  0  0  0  0  0  0
   -2.8486   -3.4797   -3.9012 O   0  0  0  0  0  0  0  0  0  0  0  0
   -5.1015   -3.5820   -3.1497 C   0  0  0  0  0  0  0  0  0  0  0  0
   -5.8445   -2.8440   -3.4613 H   0  0  0  0  0  0  0  0  0  0  0  0
   -5.1608   -4.4456   -3.8180 H   0  0  0  0  0  0  0  0  0  0  0  0
   -5.3265   -3.9083   -2.1316 H   0  0  0  0  0  0  0  0  0  0  0  0
   -3.4248   -1.8538   -2.4530 N   0  0  0  0  0  0  0  0  0  0  0  0
   -2.0795   -1.2837   -2.3037 C   0  0  2  0  0  0  0  0  0  0  0  0
   -1.8891   -0.6316   -0.9177 C   0  0  0  0  0  0  0  0  0  0  0  0
   -2.8471   -0.4680   -0.1691 O   0  0  0  0  0  0  0  0  0  0  0  0
   -1.8594   -0.2576   -3.4198 C   0  0  0  0  0  0  0  0  0  0  0  0
   -4.1305   -1.5438   -1.7857 H   0  0  0  0  0  0  0  0  0  0  0  0
   -1.3310   -2.0786   -2.3939 H   0  0  0  0  0  0  0  0  0  0  0  0
   -2.5898    0.5542   -3.3440 H   0  0  0  0  0  0  0  0  0  0  0  0
   -0.8542    0.1698   -3.3570 H   0  0  0  0  0  0  0  0  0  0  0  0
   -1.9686   -0.7343   -4.3992 H   0  0  0  0  0  0  0  0  0  0  0  0
   -0.6371   -0.2306   -0.4927 N   0  0  0  0  0  0  0  0  0  0  0  0
   -0.3585    0.1313    0.9041 C   0  0  0  0  0  0  0  0  0  0  0  0
    1.1463    0.1811    1.1923 C   0  0  0  0  0  0  0  0  0  0  0  0
    1.8437   -0.7654    0.8511 O   0  0  0  0  0  0  0  0  0  0  0  0
    0.1520   -0.5437   -1.0565 H   0  0  0  0  0  0  0  0  0  0  0  0
   -0.8084   -0.6038    1.5793 H   0  0  0  0  0  0  0  0  0  0  0  0
   -0.8067    1.1043    1.1250 H   0  0  0  0  0  0  0  0  0  0  0  0
    1.7301    1.3589    1.6300 N   0  0  0  0  0  0  0  0  0  0  0  0
    3.1702    1.6150    1.8465 C   0  0  2  0  0  0  0  0  0  0  0  0
    4.0216    1.6482    0.5557 C   0  0  0  0  0  0  0  0  0  0  0  0
    4.6843    2.6439    0.2978 O   0  0  0  0  0  0  0  0  0  0  0  0
    3.7619    0.6360    2.8702 C   0  0  0  0  0  0  0  0  0  0  0  0
    1.0956    2.1383    1.7833 H   0  0  0  0  0  0  0  0  0  0  0  0
    3.2513    2.6150    2.2854 H   0  0  0  0  0  0  0  0  0  0  0  0
    3.8136   -0.3795    2.4670 H   0  0  0  0  0  0  0  0  0  0  0  0
    4.7762    0.9460    3.1410 H   0  0  0  0  0  0  0  0  0  0  0  0
    3.1517    0.6199    3.7781 H   0  0  0  0  0  0  0  0  0  0  0  0
    4.0377    0.5811   -0.3201 N   0  0  0  0  0  0  0  0  0  0  0  0
    4.7957    0.5530   -1.5634 C   0  0  0  0  0  0  0  0  0  0  0  0
    3.4378   -0.2113   -0.0758 H   0  0  0  0  0  0  0  0  0  0  0  0
    4.4643    1.3537   -2.2328 H   0  0  0  0  0  0  0  0  0  0  0  0
    5.8649    0.6791   -1.3631 H   0  0  0  0  0  0  0  0  0  0  0  0
    4.6506   -0.4052   -2.0717 H   0  0  0  0  0  0  0  0  0  0  0  0
  1  2  2  0  0  0  0
  1  3  1  0  0  0  0
  1  7  1  0  0  0  0
  3  4  1  0  0  0  0
  3  5  1  0  0  0  0
  3  6  1  0  0  0  0
  7  8  1  0  0  0  0
  7 12  1  0  0  0  0
  8  9  1  0  0  0  0
  8 11  1  0  0  0  0
  8 13  1  0  0  0  0
  9 10  2  0  0  0  0
  9 17  1  0  0  0  0
 11 14  1  0  0  0  0
 11 15  1  0  0  0  0
 11 16  1  0  0  0  0
 17 18  1  0  0  0  0
 17 21  1  0  0  0  0
 18 19  1  0  0  0  0
 18 22  1  0  0  0  0
 18 23  1  0  0  0  0
 19 20  2  0  0  0  0
 19 24  1  0  0  0  0
 24 25  1  0  0  0  0
 24 29  1  0  0  0  0
 25 26  1  0  0  0  0
 25 28  1  0  0  0  0
 25 30  1  0  0  0  0
 26 27  2  0  0  0  0
 26 34  1  0  0  0  0
 28 31  1  0  0  0  0
 28 32  1  0  0  0  0
 28 33  1  0  0  0  0
 34 35  1  0  0  0  0
 34 36  1  0  0  0  0
 35 37  1  0  0  0  0
 35 38  1  0  0  0  0
 35 39  1  0  0  0  0
M  END
$$$$

  -OEChem-05262216283D

 39 38  0     1  0  0  0  0  0999 V2000
   -5.0423   -2.9189   -2.2351 C   0  0  0  0  0  0  0  0  0  0  0  0
   -4.6972   -4.0588   -1.9666 O   0  0  0  0  0  0  0  0  0  0  0  0
   -6.5030   -2.6068   -2.5014 C   0  0  0  0  0  0  0  0  0  0  0  0
   -6.6235   -2.2275   -3.5192 H   0  0  0  0  0  0  0  0  0  0  0  0
   -7.1085   -3.5105   -2.3880 H   0  0  0  0  0  0  0  0  0  0  0  0
   -6.8588   -1.8529   -1.7947 H   0  0  0  0  0  0  0  0  0  0  0  0
   -4.1058   -1.9096   -2.2983 N   0  0  0  0  0  0  0  0  0  0  0  0
   -2.6914   -2.0618   -1.9336 C   0  0  2  0  0  0  0  0  0  0  0  0
   -2.0878   -0.7257   -1.4491 C   0  0  0  0  0  0  0  0  0  0  0  0
   -2.7527    0.3049   -1.4824 O   0  0  0  0  0  0  0  0  0  0  0  0
   -1.9277   -2.5918   -3.1523 C   0  0  0  0  0  0  0  0  0  0  0  0
   -4.4514   -0.9554   -2.3972 H   0  0  0  0  0  0  0  0  0  0  0  0
   -2.5982   -2.7790   -1.1108 H   0  0  0  0  0  0  0  0  0  0  0  0
   -1.9957   -1.8835   -3.9840 H   0  0  0  0  0  0  0  0  0  0  0  0
   -0.8721   -2.7453   -2.9089 H   0  0  0  0  0  0  0  0  0  0  0  0
   -2.3459   -3.5504   -3.4758 H   0  0  0  0  0  0  0  0  0  0  0  0
   -0.7927   -0.6666   -0.9741 N   0  0  0  0  0  0  0  0  0  0  0  0
   -0.2468    0.5087   -0.2828 C   0  0  0  0  0  0  0  0  0  0  0  0
    1.0594    0.1772    0.4489 C   0  0  0  0  0  0  0  0  0  0  0  0
    1.1963   -0.9206    0.9753 O   0  0  0  0  0  0  0  0  0  0  0  0
   -0.3256   -1.5565   -0.8012 H   0  0  0  0  0  0  0  0  0  0  0  0
   -0.9649    0.8840    0.4532 H   0  0  0  0  0  0  0  0  0  0  0  0
   -0.0636    1.3050   -1.0103 H   0  0  0  0  0  0  0  0  0  0  0  0
    2.1463    1.0239    0.3636 N   0  0  0  0  0  0  0  0  0  0  0  0
    3.4342    0.7968    1.0315 C   0  0  2  0  0  0  0  0  0  0  0  0
    4.1152    2.1298    1.4074 C   0  0  0  0  0  0  0  0  0  0  0  0
    3.6842    3.1867    0.9588 O   0  0  0  0  0  0  0  0  0  0  0  0
    4.3284   -0.0220    0.0946 C   0  0  0  0  0  0  0  0  0  0  0  0
    1.9905    1.9579   -0.0167 H   0  0  0  0  0  0  0  0  0  0  0  0
    3.2756    0.2372    1.9595 H   0  0  0  0  0  0  0  0  0  0  0  0
    4.4986    0.5190   -0.8420 H   0  0  0  0  0  0  0  0  0  0  0  0
    5.2968   -0.2230    0.5626 H   0  0  0  0  0  0  0  0  0  0  0  0
    3.8548   -0.9811   -0.1382 H   0  0  0  0  0  0  0  0  0  0  0  0
    5.2024    2.1487    2.2614 N   0  0  0  0  0  0  0  0  0  0  0  0
    5.8737    3.3757    2.6738 C   0  0  0  0  0  0  0  0  0  0  0  0
    5.5264    1.2606    2.6334 H   0  0  0  0  0  0  0  0  0  0  0  0
    6.2781    3.9033    1.8035 H   0  0  0  0  0  0  0  0  0  0  0  0
    5.1745    4.0389    3.1940 H   0  0  0  0  0  0  0  0  0  0  0  0
    6.7002    3.1448    3.3528 H   0  0  0  0  0  0  0  0  0  0  0  0
  1  2  2  0  0  0  0
  1  3  1  0  0  0  0
  1  7  1  0  0  0  0
  3  4  1  0  0  0  0
  3  5  1  0  0  0  0
  3  6  1  0  0  0  0
  7  8  1  0  0  0  0
  7 12  1  0  0  0  0
  8  9  1  0  0  0  0
  8 11  1  0  0  0  0
  8 13  1  0  0  0  0
  9 10  2  0  0  0  0
  9 17  1  0  0  0  0
 11 14  1  0  0  0  0
 11 15  1  0  0  0  0
 11 16  1  0  0  0  0
 17 18  1  0  0  0  0
 17 21  1  0  0  0  0
 18 19  1  0  0  0  0
 18 22  1  0  0  0  0
 18 23  1  0  0  0  0
 19 20  2  0  0  0  0
 19 24  1  0  0  0  0
 24 25  1  0  0  0  0
 24 29  1  0  0  0  0
 25 26  1  0  0  0  0
 25 28  1  0  0  0  0
 25 30  1  0  0  0  0
 26 27  2  0  0  0  0
 26 34  1  0  0  0  0
 28 31  1  0  0  0  0
 28 32  1  0  0  0  0
 28 33  1  0  0  0  0
 34 35  1  0  0  0  0
 34 36  1  0  0  0  0
 35 37  1  0  0  0  0
 35 38  1  0  0  0  0
 35 39  1  0  0  0  0
M  END
$$$$

  -OEChem-05262216283D

 39 38  0     1  0  0  0  0  0999 V2000
   -4.9723   -2.9422   -2.3294 C   0  0  0  0  0  0  0  0  0  0  0  0
   -4.5569   -4.0884   -2.2659 O   0  0  0  0  0  0  0  0  0  0  0  0
   -6.4614   -2.6767   -2.4455 C   0  0  0  0  0  0  0  0  0  0  0  0
   -6.6602   -2.0356   -3.3076 H   0  0  0  0  0  0  0  0  0  0  0  0
   -7.0034   -3.6176   -2.5743 H   0  0  0  0  0  0  0  0  0  0  0  0
   -6.8237   -2.1821   -1.5411 H   0  0  0  0  0  0  0  0  0  0  0  0
   -4.0907   -1.8833   -2.2846 N   0  0  0  0  0  0  0  0  0  0  0  0
   -2.6499   -2.0098   -2.0282 C   0  0  2  0  0  0  0  0  0  0  0  0
   -2.0730   -0.7191   -1.4065 C   0  0  0  0  0  0  0  0  0  0  0  0
   -2.7741    0.2815   -1.2921 O   0  0  0  0  0  0  0  0  0  0  0  0
   -1.9419   -2.3371   -3.3480 C   0  0  0  0  0  0  0  0  0  0  0  0
   -4.4863   -0.9458   -2.2165 H   0  0  0  0  0  0  0  0  0  0  0  0
   -2.4756   -2.8228   -1.3148 H   0  0  0  0  0  0  0  0  0  0  0  0
   -2.0983   -1.5345   -4.0756 H   0  0  0  0  0  0  0  0  0  0  0  0
   -0.8665   -2.4593   -3.1884 H   0  0  0  0  0  0  0  0  0  0  0  0
   -2.3325   -3.2693   -3.7685 H   0  0  0  0  0  0  0  0  0  0  0  0
   -0.7650   -0.6677   -0.9659 N   0  0  0  0  0  0  0  0  0  0  0  0
   -0.2155    0.4574   -0.1965 C   0  0  0  0  0  0  0  0  0  0  0  0
    1.1211    0.1046    0.4702 C   0  0  0  0  0  0  0  0  0  0  0  0
    1.3918   -1.0663    0.7115 O   0  0  0  0  0  0  0  0  0  0  0  0
   -0.2508   -1.5479   -0.9252 H   0  0  0  0  0  0  0  0  0  0  0  0
   -0.9187    0.7563    0.5874 H   0  0  0  0  0  0  0  0  0  0  0  0
   -0.0689    1.3129   -0.8623 H   0  0  0  0  0  0  0  0  0  0  0  0
    2.0743    1.0786    0.6942 N   0  0  0  0  0  0  0  0  0  0  0  0
    3.3528    0.8503    1.3809 C   0  0  2  0  0  0  0  0  0  0  0  0
    3.8336    2.1196    2.1161 C   0  0  0  0  0  0  0  0  0  0  0  0
    3.2853    3.1960    1.9046 O   0  0  0  0  0  0  0  0  0  0  0  0
    4.3910    0.4026    0.3466 C   0  0  0  0  0  0  0  0  0  0  0  0
    1.7982    2.0521    0.5614 H   0  0  0  0  0  0  0  0  0  0  0  0
    3.2306    0.0643    2.1338 H   0  0  0  0  0  0  0  0  0  0  0  0
    4.5329    1.1779   -0.4134 H   0  0  0  0  0  0  0  0  0  0  0  0
    5.3536    0.2054    0.8280 H   0  0  0  0  0  0  0  0  0  0  0  0
    4.0610   -0.5158   -0.1496 H   0  0  0  0  0  0  0  0  0  0  0  0
    4.8737    2.0543    3.0251 N   0  0  0  0  0  0  0  0  0  0  0  0
    5.3799    3.2158    3.7468 C   0  0  0  0  0  0  0  0  0  0  0  0
    5.3067    1.1489    3.1828 H   0  0  0  0  0  0  0  0  0  0  0  0
    5.7887    3.9523    3.0471 H   0  0  0  0  0  0  0  0  0  0  0  0
    4.5788    3.6867    4.3265 H   0  0  0  0  0  0  0  0  0  0  0  0
    6.1748    2.9162    4.4367 H   0  0  0  0  0  0  0  0  0  0  0  0
  1  2  2  0  0  0  0
  1  3  1  0  0  0  0
  1  7  1  0  0  0  0
  3  4  1  0  0  0  0
  3  5  1  0  0  0  0
  3  6  1  0  0  0  0
  7  8  1  0  0  0  0
  7 12  1  0  0  0  0
  8  9  1  0  0  0  0
  8 11  1  0  0  0  0
  8 13  1  0  0  0  0
  9 10  2  0  0  0  0
  9 17  1  0  0  0  0
 11 14  1  0  0  0  0
 11 15  1  0  0  0  0
 11 16  1  0  0  0  0
 17 18  1  0  0  0  0
 17 21  1  0  0  0  0
 18 19  1  0  0  0  0
 18 22  1  0  0  0  0
 18 23  1  0  0  0  0
 19 20  2  0  0  0  0
 19 24  1  0  0  0  0
 24 25  1  0  0  0  0
 24 29  1  0  0  0  0
 25 26  1  0  0  0  0
 25 28  1  0  0  0  0
 25 30  1  0  0  0  0
 26 27  2  0  0  0  0
 26 34  1  0  0  0  0
 28 31  1  0  0  0  0
 28 32  1  0  0  0  0
 28 33  1  0  0  0  0
 34 35  1  0  0  0  0
 34 36  1  0  0  0  0
 35 37  1  0  0  0  0
 35 38  1  0  0  0  0
 35 39  1  0  0  0  0
M  END
$$$$

  -OEChem-05262216283D

 39 38  0     1  0  0  0  0  0999 V2000
   -4.9468   -2.8325   -2.1427 C   0  0  0  0  0  0  0  0  0  0  0  0
   -4.5809   -3.9755   -1.9193 O   0  0  0  0  0  0  0  0  0  0  0  0
   -6.4265   -2.5059   -2.2152 C   0  0  0  0  0  0  0  0  0  0  0  0
   -6.6591   -1.6749   -1.5447 H   0  0  0  0  0  0  0  0  0  0  0  0
   -6.6965   -2.2275   -3.2366 H   0  0  0  0  0  0  0  0  0  0  0  0
   -7.0194   -3.3748   -1.9170 H   0  0  0  0  0  0  0  0  0  0  0  0
   -4.0174   -1.8299   -2.3186 N   0  0  0  0  0  0  0  0  0  0  0  0
   -2.5743   -1.9887   -2.0962 C   0  0  2  0  0  0  0  0  0  0  0  0
   -1.9376   -0.6819   -1.5778 C   0  0  0  0  0  0  0  0  0  0  0  0
   -2.5799    0.3636   -1.5749 O   0  0  0  0  0  0  0  0  0  0  0  0
   -1.9246   -2.4244   -3.4130 C   0  0  0  0  0  0  0  0  0  0  0  0
   -4.3676   -0.8734   -2.3631 H   0  0  0  0  0  0  0  0  0  0  0  0
   -2.3992   -2.7583   -1.3365 H   0  0  0  0  0  0  0  0  0  0  0  0
   -2.0793   -1.6645   -4.1856 H   0  0  0  0  0  0  0  0  0  0  0  0
   -0.8485   -2.5744   -3.2813 H   0  0  0  0  0  0  0  0  0  0  0  0
   -2.3633   -3.3667   -3.7569 H   0  0  0  0  0  0  0  0  0  0  0  0
   -0.6489   -0.6731   -1.0831 N   0  0  0  0  0  0  0  0  0  0  0  0
   -0.0553    0.4735   -0.3827 C   0  0  0  0  0  0  0  0  0  0  0  0
    1.2266    0.0912    0.3694 C   0  0  0  0  0  0  0  0  0  0  0  0
    1.5197   -1.0899    0.5208 O   0  0  0  0  0  0  0  0  0  0  0  0
   -0.1789   -1.5723   -0.9724 H   0  0  0  0  0  0  0  0  0  0  0  0
   -0.7674    0.8799    0.3422 H   0  0  0  0  0  0  0  0  0  0  0  0
    0.1781    1.2600   -1.1062 H   0  0  0  0  0  0  0  0  0  0  0  0
    2.0880    1.0686    0.8257 N   0  0  0  0  0  0  0  0  0  0  0  0
    3.2562    0.8092    1.6777 C   0  0  2  0  0  0  0  0  0  0  0  0
    3.4759    1.9483    2.6960 C   0  0  0  0  0  0  0  0  0  0  0  0
    2.8616    3.0032    2.5776 O   0  0  0  0  0  0  0  0  0  0  0  0
    4.4819    0.6427    0.7751 C   0  0  0  0  0  0  0  0  0  0  0  0
    1.7591    2.0340    0.7941 H   0  0  0  0  0  0  0  0  0  0  0  0
    3.1028   -0.1119    2.2500 H   0  0  0  0  0  0  0  0  0  0  0  0
    4.6553    1.5533    0.1927 H   0  0  0  0  0  0  0  0  0  0  0  0
    5.3749    0.4348    1.3718 H   0  0  0  0  0  0  0  0  0  0  0  0
    4.3299   -0.1909    0.0821 H   0  0  0  0  0  0  0  0  0  0  0  0
    4.3452    1.7849    3.7588 N   0  0  0  0  0  0  0  0  0  0  0  0
    4.5641    2.8061    4.7764 C   0  0  0  0  0  0  0  0  0  0  0  0
    4.8148    0.8886    3.8513 H   0  0  0  0  0  0  0  0  0  0  0  0
    3.6398    2.9970    5.3316 H   0  0  0  0  0  0  0  0  0  0  0  0
    5.3318    2.4786    5.4840 H   0  0  0  0  0  0  0  0  0  0  0  0
    4.8979    3.7417    4.3153 H   0  0  0  0  0  0  0  0  0  0  0  0
  1  2  2  0  0  0  0
  1  3  1  0  0  0  0
  1  7  1  0  0  0  0
  3  4  1  0  0  0  0
  3  5  1  0  0  0  0
  3  6  1  0  0  0  0
  7  8  1  0  0  0  0
  7 12  1  0  0  0  0
  8  9  1  0  0  0  0
  8 11  1  0  0  0  0
  8 13  1  0  0  0  0
  9 10  2  0  0  0  0
  9 17  1  0  0  0  0
 11 14  1  0  0  0  0
 11 15  1  0  0  0  0
 11 16  1  0  0  0  0
 17 18  1  0  0  0  0
 17 21  1  0  0  0  0
 18 19  1  0  0  0  0
 18 22  1  0  0  0  0
 18 23  1  0  0  0  0
 19 20  2  0  0  0  0
 19 24  1  0  0  0  0
 24 25  1  0  0  0  0
 24 29  1  0  0  0  0
 25 26  1  0  0  0  0
 25 28  1  0  0  0  0
 25 30  1  0  0  0  0
 26 27  2  0  0  0  0
 26 34  1  0  0  0  0
 28 31  1  0  0  0  0
 28 32  1  0  0  0  0
 28 33  1  0  0  0  0
 34 35  1  0  0  0  0
 34 36  1  0  0  0  0
 35 37  1  0  0  0  0
 35 38  1  0  0  0  0
 35 39  1  0  0  0  0
M  END
$$$$
