
  -OEChem-05262214473D

 39 38  0     1  0  0  0  0  0999 V2000
   -3.5200   -4.0268   -1.6943 C   0  0  0  0  0  0  0  0  0  0  0  0
   -2.8702   -4.8827   -1.1054 O   0  0  0  0  0  0  0  0  0  0  0  0
   -4.9704   -4.2579   -1.9614 C   0  0  0  0  0  0  0  0  0  0  0  0
   -5.1456   -4.7573   -2.9278 H   0  0  0  0  0  0  0  0  0  0  0  0
   -5.4379   -4.9112   -1.2072 H   0  0  0  0  0  0  0  0  0  0  0  0
   -5.5954   -3.3510   -1.9864 H   0  0  0  0  0  0  0  0  0  0  0  0
   -3.0424   -2.8131   -2.1606 N   0  0  0  0  0  0  0  0  0  0  0  0
   -1.6755   -2.3891   -2.0077 C   0  0  2  0  0  0  0  0  0  0  0  0
   -1.5782   -1.5673   -0.7292 C   0  0  0  0  0  0  0  0  0  0  0  0
   -2.5448   -1.0064   -0.2171 O   0  0  0  0  0  0  0  0  0  0  0  0
   -1.2087   -1.5823   -3.2094 C   0  0  0  0  0  0  0  0  0  0  0  0
   -3.6915   -2.1888   -2.6360 H   0  0  0  0  0  0  0  0  0  0  0  0
   -1.0721   -3.2977   -1.9053 H   0  0  0  0  0  0  0  0  0  0  0  0
   -1.8017   -0.6681   -3.3281 H   0  0  0  0  0  0  0  0  0  0  0  0
   -0.1601   -1.2849   -3.1045 H   0  0  0  0  0  0  0  0  0  0  0  0
   -1.3074   -2.1646   -4.1319 H   0  0  0  0  0  0  0  0  0  0  0  0
   -0.2835   -1.5112   -0.2725 N   0  0  0  0  0  0  0  0  0  0  0  0
    0.0769   -0.7658    0.9424 C   0  0  0  0  0  0  0  0  0  0  0  0
    1.5590   -0.8869    1.1891 C   0  0  0  0  0  0  0  0  0  0  0  0
    2.3153   -1.5246    0.4612 O   0  0  0  0  0  0  0  0  0  0  0  0
    0.4587   -2.0097   -0.7289 H   0  0  0  0  0  0  0  0  0  0  0  0
   -0.4732   -1.1772    1.7939 H   0  0  0  0  0  0  0  0  0  0  0  0
   -0.1925    0.2864    0.8114 H   0  0  0  0  0  0  0  0  0  0  0  0
    1.9461   -0.1951    2.3318 N   0  0  0  0  0  0  0  0  0  0  0  0
    3.3039   -0.1430    2.8064 C   0  0  2  0  0  0  0  0  0  0  0  0
    3.7218    1.3198    2.8764 C   0  0  0  0  0  0  0  0  0  0  0  0
    3.1768    2.2053    2.2207 O   0  0  0  0  0  0  0  0  0  0  0  0
    4.2370   -0.9323    1.9015 C   0  0  0  0  0  0  0  0  0  0  0  0
    1.2309    0.3011    2.8608 H   0  0  0  0  0  0  0  0  0  0  0  0
    3.3032   -0.5719    3.8145 H   0  0  0  0  0  0  0  0  0  0  0  0
    4.2509   -0.5173    0.8870 H   0  0  0  0  0  0  0  0  0  0  0  0
    5.2646   -0.9154    2.2795 H   0  0  0  0  0  0  0  0  0  0  0  0
    3.9176   -1.9775    1.8286 H   0  0  0  0  0  0  0  0  0  0  0  0
    4.8032    1.5136    3.7246 N   0  0  0  0  0  0  0  0  0  0  0  0
    5.3939    2.8121    3.9505 C   0  0  0  0  0  0  0  0  0  0  0  0
    5.1796    0.7251    4.2425 H   0  0  0  0  0  0  0  0  0  0  0  0
    6.2238    2.9657    3.2451 H   0  0  0  0  0  0  0  0  0  0  0  0
    4.6336    3.5923    3.7975 H   0  0  0  0  0  0  0  0  0  0  0  0
    5.7739    2.8676    4.9813 H   0  0  0  0  0  0  0  0  0  0  0  0
  1  3  1  0  0  0  0
  1  7  1  0  0  0  0
  1  2  2  0  0  0  0
 18 19  1  0  0  0  0
 19 24  1  0  0  0  0
 19 20  2  0  0  0  0
 25 26  1  0  0  0  0
 26 34  1  0  0  0  0
 26 27  2  0  0  0  0
  8  9  1  0  0  0  0
  9 17  1  0  0  0  0
  9 10  2  0  0  0  0
 25 28  1  0  0  0  0
  8 11  1  0  0  0  0
 34 35  1  0  0  0  0
 17 18  1  0  0  0  0
 24 25  1  0  0  0  0
  7  8  1  0  0  0  0
  3  4  1  0  0  0  0
  3  5  1  0  0  0  0
  3  6  1  0  0  0  0
 28 31  1  0  0  0  0
 28 32  1  0  0  0  0
 28 33  1  0  0  0  0
 11 14  1  0  0  0  0
 11 15  1  0  0  0  0
 11 16  1  0  0  0  0
 35 37  1  0  0  0  0
 35 38  1  0  0  0  0
 35 39  1  0  0  0  0
 18 22  1  0  0  0  0
 18 23  1  0  0  0  0
 25 30  1  0  0  0  0
  8 13  1  0  0  0  0
 34 36  1  0  0  0  0
 17 21  1  0  0  0  0
  7 12  1  0  0  0  0
 24 29  1  0  0  0  0
M  END
$$$$

  -OEChem-05262214473D

 39 38  0     1  0  0  0  0  0999 V2000
   -3.5200   -4.0268   -1.6943 C   0  0  0  0  0  0  0  0  0  0  0  0
   -2.8702   -4.8827   -1.1054 O   0  0  0  0  0  0  0  0  0  0  0  0
   -4.9704   -4.2579   -1.9614 C   0  0  0  0  0  0  0  0  0  0  0  0
   -5.1456   -4.7573   -2.9278 H   0  0  0  0  0  0  0  0  0  0  0  0
   -5.4379   -4.9112   -1.2072 H   0  0  0  0  0  0  0  0  0  0  0  0
   -5.5954   -3.3510   -1.9864 H   0  0  0  0  0  0  0  0  0  0  0  0
   -3.0424   -2.8131   -2.1606 N   0  0  0  0  0  0  0  0  0  0  0  0
   -1.6755   -2.3891   -2.0077 C   0  0  2  0  0  0  0  0  0  0  0  0
   -1.5782   -1.5673   -0.7292 C   0  0  0  0  0  0  0  0  0  0  0  0
   -2.5448   -1.0064   -0.2171 O   0  0  0  0  0  0  0  0  0  0  0  0
   -1.2087   -1.5823   -3.2094 C   0  0  0  0  0  0  0  0  0  0  0  0
   -3.6915   -2.1888   -2.6360 H   0  0  0  0  0  0  0  0  0  0  0  0
   -1.0721   -3.2977   -1.9053 H   0  0  0  0  0  0  0  0  0  0  0  0
   -1.8017   -0.6681   -3.3281 H   0  0  0  0  0  0  0  0  0  0  0  0
   -0.1601   -1.2849   -3.1045 H   0  0  0  0  0  0  0  0  0  0  0  0
   -1.3074   -2.1646   -4.1319 H   0  0  0  0  0  0  0  0  0  0  0  0
   -0.2835   -1.5112   -0.2725 N   0  0  0  0  0  0  0  0  0  0  0  0
    0.0769   -0.7658    0.9424 C   0  0  0  0  0  0  0  0  0  0  0  0
    1.5590   -0.8869    1.1891 C   0  0  0  0  0  0  0  0  0  0  0  0
    2.3543   -1.2874    0.3432 O   0  0  0  0  0  0  0  0  0  0  0  0
    0.4587   -2.0097   -0.7289 H   0  0  0  0  0  0  0  0  0  0  0  0
   -0.4732   -1.1772    1.7939 H   0  0  0  0  0  0  0  0  0  0  0  0
   -0.1925    0.2864    0.8114 H   0  0  0  0  0  0  0  0  0  0  0  0
    1.8970   -0.4945    2.4798 N   0  0  0  0  0  0  0  0  0  0  0  0
    3.2436   -0.5113    2.9877 C   0  0  2  0  0  0  0  0  0  0  0  0
    3.5941    0.9007    3.4379 C   0  0  0  0  0  0  0  0  0  0  0  0
    3.0199    1.9018    3.0145 O   0  0  0  0  0  0  0  0  0  0  0  0
    4.2251   -1.0061    1.9367 C   0  0  0  0  0  0  0  0  0  0  0  0
    1.1521   -0.1784    3.0986 H   0  0  0  0  0  0  0  0  0  0  0  0
    3.2468   -1.1827    3.8533 H   0  0  0  0  0  0  0  0  0  0  0  0
    4.2359   -0.3461    1.0617 H   0  0  0  0  0  0  0  0  0  0  0  0
    5.2449   -1.0455    2.3336 H   0  0  0  0  0  0  0  0  0  0  0  0
    3.9542   -2.0101    1.5924 H   0  0  0  0  0  0  0  0  0  0  0  0
    4.6525    0.9146    4.3356 N   0  0  0  0  0  0  0  0  0  0  0  0
    5.1806    2.1350    4.8994 C   0  0  0  0  0  0  0  0  0  0  0  0
    5.0561    0.0357    4.6459 H   0  0  0  0  0  0  0  0  0  0  0  0
    6.0135    2.4961    4.2782 H   0  0  0  0  0  0  0  0  0  0  0  0
    4.3884    2.8976    4.9297 H   0  0  0  0  0  0  0  0  0  0  0  0
    5.5419    1.9409    5.9201 H   0  0  0  0  0  0  0  0  0  0  0  0
  1  3  1  0  0  0  0
  1  7  1  0  0  0  0
  1  2  2  0  0  0  0
 18 19  1  0  0  0  0
 19 24  1  0  0  0  0
 19 20  2  0  0  0  0
 25 26  1  0  0  0  0
 26 34  1  0  0  0  0
 26 27  2  0  0  0  0
  8  9  1  0  0  0  0
  9 17  1  0  0  0  0
  9 10  2  0  0  0  0
 25 28  1  0  0  0  0
  8 11  1  0  0  0  0
 34 35  1  0  0  0  0
 17 18  1  0  0  0  0
 24 25  1  0  0  0  0
  7  8  1  0  0  0  0
  3  4  1  0  0  0  0
  3  5  1  0  0  0  0
  3  6  1  0  0  0  0
 28 31  1  0  0  0  0
 28 32  1  0  0  0  0
 28 33  1  0  0  0  0
 11 14  1  0  0  0  0
 11 15  1  0  0  0  0
 11 16  1  0  0  0  0
 35 37  1  0  0  0  0
 35 38  1  0  0  0  0
 35 39  1  0  0  0  0
 18 22  1  0  0  0  0
 18 23  1  0  0  0  0
 25 30  1  0  0  0  0
  8 13  1  0  0  0  0
 34 36  1  0  0  0  0
 17 21  1  0  0  0  0
  7 12  1  0  0  0  0
 24 29  1  0  0  0  0
M  END
$$$$

  -OEChem-05262214473D

 39 38  0     1  0  0  0  0  0999 V2000
   -3.5200   -4.0268   -1.6943 C   0  0  0  0  0  0  0  0  0  0  0  0
   -2.8702   -4.8827   -1.1054 O   0  0  0  0  0  0  0  0  0  0  0  0
   -4.9704   -4.2579   -1.9614 C   0  0  0  0  0  0  0  0  0  0  0  0
   -5.1456   -4.7573   -2.9278 H   0  0  0  0  0  0  0  0  0  0  0  0
   -5.4379   -4.9112   -1.2072 H   0  0  0  0  0  0  0  0  0  0  0  0
   -5.5954   -3.3510   -1.9864 H   0  0  0  0  0  0  0  0  0  0  0  0
   -3.0424   -2.8131   -2.1606 N   0  0  0  0  0  0  0  0  0  0  0  0
   -1.6755   -2.3891   -2.0077 C   0  0  2  0  0  0  0  0  0  0  0  0
   -1.5782   -1.5673   -0.7292 C   0  0  0  0  0  0  0  0  0  0  0  0
   -2.5448   -1.0064   -0.2171 O   0  0  0  0  0  0  0  0  0  0  0  0
   -1.2087   -1.5823   -3.2094 C   0  0  0  0  0  0  0  0  0  0  0  0
   -3.6915   -2.1888   -2.6360 H   0  0  0  0  0  0  0  0  0  0  0  0
   -1.0721   -3.2977   -1.9053 H   0  0  0  0  0  0  0  0  0  0  0  0
   -1.8017   -0.6681   -3.3281 H   0  0  0  0  0  0  0  0  0  0  0  0
   -0.1601   -1.2849   -3.1045 H   0  0  0  0  0  0  0  0  0  0  0  0
   -1.3074   -2.1646   -4.1319 H   0  0  0  0  0  0  0  0  0  0  0  0
   -0.2835   -1.5112   -0.2725 N   0  0  0  0  0  0  0  0  0  0  0  0
    0.0769   -0.7658    0.9424 C   0  0  0  0  0  0  0  0  0  0  0  0
    1.5590   -0.8869    1.1891 C   0  0  0  0  0  0  0  0  0  0  0  0
    2.3844   -1.0267    0.2904 O   0  0  0  0  0  0  0  0  0  0  0  0
    0.4587   -2.0097   -0.7289 H   0  0  0  0  0  0  0  0  0  0  0  0
   -0.4732   -1.1772    1.7939 H   0  0  0  0  0  0  0  0  0  0  0  0
   -0.1925    0.2864    0.8114 H   0  0  0  0  0  0  0  0  0  0  0  0
    1.8592   -0.8234    2.5456 N   0  0  0  0  0  0  0  0  0  0  0  0
    3.1972   -0.9158    3.0677 C   0  0  2  0  0  0  0  0  0  0  0  0
    3.4768    0.3476    3.8710 C   0  0  0  0  0  0  0  0  0  0  0  0
    2.8647    1.3999    3.7008 O   0  0  0  0  0  0  0  0  0  0  0  0
    4.2160   -1.0870    1.9517 C   0  0  0  0  0  0  0  0  0  0  0  0
    1.0914   -0.7053    3.2046 H   0  0  0  0  0  0  0  0  0  0  0  0
    3.2174   -1.7849    3.7342 H   0  0  0  0  0  0  0  0  0  0  0  0
    4.2104   -0.2258    1.2737 H   0  0  0  0  0  0  0  0  0  0  0  0
    5.2304   -1.1857    2.3522 H   0  0  0  0  0  0  0  0  0  0  0  0
    3.9959   -1.9799    1.3567 H   0  0  0  0  0  0  0  0  0  0  0  0
    4.5196    0.1742    4.7702 N   0  0  0  0  0  0  0  0  0  0  0  0
    4.9835    1.2304    5.6392 C   0  0  0  0  0  0  0  0  0  0  0  0
    4.9576   -0.7381    4.8576 H   0  0  0  0  0  0  0  0  0  0  0  0
    5.8087    1.7707    5.1523 H   0  0  0  0  0  0  0  0  0  0  0  0
    4.1575    1.9281    5.8414 H   0  0  0  0  0  0  0  0  0  0  0  0
    5.3375    0.7970    6.5863 H   0  0  0  0  0  0  0  0  0  0  0  0
  1  3  1  0  0  0  0
  1  7  1  0  0  0  0
  1  2  2  0  0  0  0
 18 19  1  0  0  0  0
 19 24  1  0  0  0  0
 19 20  2  0  0  0  0
 25 26  1  0  0  0  0
 26 34  1  0  0  0  0
 26 27  2  0  0  0  0
  8  9  1  0  0  0  0
  9 17  1  0  0  0  0
  9 10  2  0  0  0  0
 25 28  1  0  0  0  0
  8 11  1  0  0  0  0
 34 35  1  0  0  0  0
 17 18  1  0  0  0  0
 24 25  1  0  0  0  0
  7  8  1  0  0  0  0
  3  4  1  0  0  0  0
  3  5  1  0  0  0  0
  3  6  1  0  0  0  0
 28 31  1  0  0  0  0
 28 32  1  0  0  0  0
 28 33  1  0  0  0  0
 11 14  1  0  0  0  0
 11 15  1  0  0  0  0
 11 16  1  0  0  0  0
 35 37  1  0  0  0  0
 35 38  1  0  0  0  0
 35 39  1  0  0  0  0
 18 22  1  0  0  0  0
 18 23  1  0  0  0  0
 25 30  1  0  0  0  0
  8 13  1  0  0  0  0
 34 36  1  0  0  0  0
 17 21  1  0  0  0  0
  7 12  1  0  0  0  0
 24 29  1  0  0  0  0
M  END
$$$$

  -OEChem-05262214473D

 39 38  0     1  0  0  0  0  0999 V2000
   -3.5200   -4.0268   -1.6943 C   0  0  0  0  0  0  0  0  0  0  0  0
   -2.8702   -4.8827   -1.1054 O   0  0  0  0  0  0  0  0  0  0  0  0
   -4.9704   -4.2579   -1.9614 C   0  0  0  0  0  0  0  0  0  0  0  0
   -5.1456   -4.7573   -2.9278 H   0  0  0  0  0  0  0  0  0  0  0  0
   -5.4379   -4.9112   -1.2072 H   0  0  0  0  0  0  0  0  0  0  0  0
   -5.5954   -3.3510   -1.9864 H   0  0  0  0  0  0  0  0  0  0  0  0
   -3.0424   -2.8131   -2.1606 N   0  0  0  0  0  0  0  0  0  0  0  0
   -1.6755   -2.3891   -2.0077 C   0  0  2  0  0  0  0  0  0  0  0  0
   -1.5782   -1.5673   -0.7292 C   0  0  0  0  0  0  0  0  0  0  0  0
   -2.5448   -1.0064   -0.2171 O   0  0  0  0  0  0  0  0  0  0  0  0
   -1.2087   -1.5823   -3.2094 C   0  0  0  0  0  0  0  0  0  0  0  0
   -3.6915   -2.1888   -2.6360 H   0  0  0  0  0  0  0  0  0  0  0  0
   -1.0721   -3.2977   -1.9053 H   0  0  0  0  0  0  0  0  0  0  0  0
   -1.8017   -0.6681   -3.3281 H   0  0  0  0  0  0  0  0  0  0  0  0
   -0.1601   -1.2849   -3.1045 H   0  0  0  0  0  0  0  0  0  0  0  0
   -1.3074   -2.1646   -4.1319 H   0  0  0  0  0  0  0  0  0  0  0  0
   -0.2835   -1.5112   -0.2725 N   0  0  0  0  0  0  0  0  0  0  0  0
    0.0769   -0.7658    0.9424 C   0  0  0  0  0  0  0  0  0  0  0  0
    1.5590   -0.8869    1.1891 C   0  0  0  0  0  0  0  0  0  0  0  0
    2.4035   -0.7602    0.3064 O   0  0  0  0  0  0  0  0  0  0  0  0
    0.4587   -2.0097   -0.7289 H   0  0  0  0  0  0  0  0  0  0  0  0
   -0.4732   -1.1772    1.7939 H   0  0  0  0  0  0  0  0  0  0  0  0
   -0.1925    0.2864    0.8114 H   0  0  0  0  0  0  0  0  0  0  0  0
    1.8352   -1.1595    2.5247 N   0  0  0  0  0  0  0  0  0  0  0  0
    3.1679   -1.3287    3.0412 C   0  0  2  0  0  0  0  0  0  0  0  0
    3.3780   -0.3018    4.1461 C   0  0  0  0  0  0  0  0  0  0  0  0
    2.7217    0.7340    4.2328 O   0  0  0  0  0  0  0  0  0  0  0  0
    4.2103   -1.1693    1.9455 C   0  0  0  0  0  0  0  0  0  0  0  0
    1.0528   -1.2438    3.1716 H   0  0  0  0  0  0  0  0  0  0  0  0
    3.2169   -2.3376    3.4653 H   0  0  0  0  0  0  0  0  0  0  0  0
    4.1763   -0.1646    1.5086 H   0  0  0  0  0  0  0  0  0  0  0  0
    5.2218   -1.3265    2.3343 H   0  0  0  0  0  0  0  0  0  0  0  0
    4.0398   -1.8890    1.1376 H   0  0  0  0  0  0  0  0  0  0  0  0
    4.4136   -0.6573    4.9989 N   0  0  0  0  0  0  0  0  0  0  0  0
    4.8161    0.1600    6.1196 C   0  0  0  0  0  0  0  0  0  0  0  0
    4.8908   -1.5436    4.8631 H   0  0  0  0  0  0  0  0  0  0  0  0
    5.6235    0.8389    5.8077 H   0  0  0  0  0  0  0  0  0  0  0  0
    3.9564    0.7498    6.4706 H   0  0  0  0  0  0  0  0  0  0  0  0
    5.1747   -0.4861    6.9344 H   0  0  0  0  0  0  0  0  0  0  0  0
  1  3  1  0  0  0  0
  1  7  1  0  0  0  0
  1  2  2  0  0  0  0
 18 19  1  0  0  0  0
 19 24  1  0  0  0  0
 19 20  2  0  0  0  0
 25 26  1  0  0  0  0
 26 34  1  0  0  0  0
 26 27  2  0  0  0  0
  8  9  1  0  0  0  0
  9 17  1  0  0  0  0
  9 10  2  0  0  0  0
 25 28  1  0  0  0  0
  8 11  1  0  0  0  0
 34 35  1  0  0  0  0
 17 18  1  0  0  0  0
 24 25  1  0  0  0  0
  7  8  1  0  0  0  0
  3  4  1  0  0  0  0
  3  5  1  0  0  0  0
  3  6  1  0  0  0  0
 28 31  1  0  0  0  0
 28 32  1  0  0  0  0
 28 33  1  0  0  0  0
 11 14  1  0  0  0  0
 11 15  1  0  0  0  0
 11 16  1  0  0  0  0
 35 37  1  0  0  0  0
 35 38  1  0  0  0  0
 35 39  1  0  0  0  0
 18 22  1  0  0  0  0
 18 23  1  0  0  0  0
 25 30  1  0  0  0  0
  8 13  1  0  0  0  0
 34 36  1  0  0  0  0
 17 21  1  0  0  0  0
  7 12  1  0  0  0  0
 24 29  1  0  0  0  0
M  END
$$$$

  -OEChem-05262214473D

 39 38  0     1  0  0  0  0  0999 V2000
   -3.5200   -4.0268   -1.6943 C   0  0  0  0  0  0  0  0  0  0  0  0
   -2.8702   -4.8827   -1.1054 O   0  0  0  0  0  0  0  0  0  0  0  0
   -4.9704   -4.2579   -1.9614 C   0  0  0  0  0  0  0  0  0  0  0  0
   -5.1456   -4.7573   -2.9278 H   0  0  0  0  0  0  0  0  0  0  0  0
   -5.4379   -4.9112   -1.2072 H   0  0  0  0  0  0  0  0  0  0  0  0
   -5.5954   -3.3510   -1.9864 H   0  0  0  0  0  0  0  0  0  0  0  0
   -3.0424   -2.8131   -2.1606 N   0  0  0  0  0  0  0  0  0  0  0  0
   -1.6755   -2.3891   -2.0077 C   0  0  2  0  0  0  0  0  0  0  0  0
   -1.5782   -1.5673   -0.7292 C   0  0  0  0  0  0  0  0  0  0  0  0
   -2.5448   -1.0064   -0.2171 O   0  0  0  0  0  0  0  0  0  0  0  0
   -1.2087   -1.5823   -3.2094 C   0  0  0  0  0  0  0  0  0  0  0  0
   -3.6915   -2.1888   -2.6360 H   0  0  0  0  0  0  0  0  0  0  0  0
   -1.0721   -3.2977   -1.9053 H   0  0  0  0  0  0  0  0  0  0  0  0
   -1.8017   -0.6681   -3.3281 H   0  0  0  0  0  0  0  0  0  0  0  0
   -0.1601   -1.2849   -3.1045 H   0  0  0  0  0  0  0  0  0  0  0  0
   -1.3074   -2.1646   -4.1319 H   0  0  0  0  0  0  0  0  0  0  0  0
   -0.2835   -1.5112   -0.2725 N   0  0  0  0  0  0  0  0  0  0  0  0
    0.0769   -0.7658    0.9424 C   0  0  0  0  0  0  0  0  0  0  0  0
    1.5590   -0.8869    1.1891 C   0  0  0  0  0  0  0  0  0  0  0  0
    2.4104   -0.5060    0.3901 O   0  0  0  0  0  0  0  0  0  0  0  0
    0.4587   -2.0097   -0.7289 H   0  0  0  0  0  0  0  0  0  0  0  0
   -0.4732   -1.1772    1.7939 H   0  0  0  0  0  0  0  0  0  0  0  0
   -0.1925    0.2864    0.8114 H   0  0  0  0  0  0  0  0  0  0  0  0
    1.8267   -1.4798    2.4184 N   0  0  0  0  0  0  0  0  0  0  0  0
    3.1576   -1.7221    2.9098 C   0  0  2  0  0  0  0  0  0  0  0  0
    3.3042   -1.0033    4.2445 C   0  0  0  0  0  0  0  0  0  0  0  0
    2.6007   -0.0507    4.5742 O   0  0  0  0  0  0  0  0  0  0  0  0
    4.2085   -1.2474    1.9184 C   0  0  0  0  0  0  0  0  0  0  0  0
    1.0391   -1.7572    3.0019 H   0  0  0  0  0  0  0  0  0  0  0  0
    3.2455   -2.8030    3.0649 H   0  0  0  0  0  0  0  0  0  0  0  0
    4.1359   -0.1667    1.7503 H   0  0  0  0  0  0  0  0  0  0  0  0
    5.2199   -1.4583    2.2809 H   0  0  0  0  0  0  0  0  0  0  0  0
    4.0829   -1.7435    0.9499 H   0  0  0  0  0  0  0  0  0  0  0  0
    4.3416   -1.5231    5.0059 N   0  0  0  0  0  0  0  0  0  0  0  0
    4.6897   -1.0032    6.3077 C   0  0  0  0  0  0  0  0  0  0  0  0
    4.8603   -2.3259    4.6620 H   0  0  0  0  0  0  0  0  0  0  0  0
    5.4704   -0.2358    6.1998 H   0  0  0  0  0  0  0  0  0  0  0  0
    3.7990   -0.5570    6.7742 H   0  0  0  0  0  0  0  0  0  0  0  0
    5.0645   -1.8209    6.9407 H   0  0  0  0  0  0  0  0  0  0  0  0
  1  3  1  0  0  0  0
  1  7  1  0  0  0  0
  1  2  2  0  0  0  0
 18 19  1  0  0  0  0
 19 24  1  0  0  0  0
 19 20  2  0  0  0  0
 25 26  1  0  0  0  0
 26 34  1  0  0  0  0
 26 27  2  0  0  0  0
  8  9  1  0  0  0  0
  9 17  1  0  0  0  0
  9 10  2  0  0  0  0
 25 28  1  0  0  0  0
  8 11  1  0  0  0  0
 34 35  1  0  0  0  0
 17 18  1  0  0  0  0
 24 25  1  0  0  0  0
  7  8  1  0  0  0  0
  3  4  1  0  0  0  0
  3  5  1  0  0  0  0
  3  6  1  0  0  0  0
 28 31  1  0  0  0  0
 28 32  1  0  0  0  0
 28 33  1  0  0  0  0
 11 14  1  0  0  0  0
 11 15  1  0  0  0  0
 11 16  1  0  0  0  0
 35 37  1  0  0  0  0
 35 38  1  0  0  0  0
 35 39  1  0  0  0  0
 18 22  1  0  0  0  0
 18 23  1  0  0  0  0
 25 30  1  0  0  0  0
  8 13  1  0  0  0  0
 34 36  1  0  0  0  0
 17 21  1  0  0  0  0
  7 12  1  0  0  0  0
 24 29  1  0  0  0  0
M  END
$$$$

  -OEChem-05262214473D

 39 38  0     1  0  0  0  0  0999 V2000
   -3.5200   -4.0268   -1.6943 C   0  0  0  0  0  0  0  0  0  0  0  0
   -2.8702   -4.8827   -1.1054 O   0  0  0  0  0  0  0  0  0  0  0  0
   -4.9704   -4.2579   -1.9614 C   0  0  0  0  0  0  0  0  0  0  0  0
   -5.1456   -4.7573   -2.9278 H   0  0  0  0  0  0  0  0  0  0  0  0
   -5.4379   -4.9112   -1.2072 H   0  0  0  0  0  0  0  0  0  0  0  0
   -5.5954   -3.3510   -1.9864 H   0  0  0  0  0  0  0  0  0  0  0  0
   -3.0424   -2.8131   -2.1606 N   0  0  0  0  0  0  0  0  0  0  0  0
   -1.6755   -2.3891   -2.0077 C   0  0  2  0  0  0  0  0  0  0  0  0
   -1.5782   -1.5673   -0.7292 C   0  0  0  0  0  0  0  0  0  0  0  0
   -2.5448   -1.0064   -0.2171 O   0  0  0  0  0  0  0  0  0  0  0  0
   -1.2087   -1.5823   -3.2094 C   0  0  0  0  0  0  0  0  0  0  0  0
   -3.6915   -2.1888   -2.6360 H   0  0  0  0  0  0  0  0  0  0  0  0
   -1.0721   -3.2977   -1.9053 H   0  0  0  0  0  0  0  0  0  0  0  0
   -1.8017   -0.6681   -3.3281 H   0  0  0  0  0  0  0  0  0  0  0  0
   -0.1601   -1.2849   -3.1045 H   0  0  0  0  0  0  0  0  0  0  0  0
   -1.3074   -2.1646   -4.1319 H   0  0  0  0  0  0  0  0  0  0  0  0
   -0.2835   -1.5112   -0.2725 N   0  0  0  0  0  0  0  0  0  0  0  0
    0.0769   -0.7658    0.9424 C   0  0  0  0  0  0  0  0  0  0  0  0
    1.5590   -0.8869    1.1891 C   0  0  0  0  0  0  0  0  0  0  0  0
    2.4045   -0.2814    0.5358 O   0  0  0  0  0  0  0  0  0  0  0  0
    0.4587   -2.0097   -0.7289 H   0  0  0  0  0  0  0  0  0  0  0  0
   -0.4732   -1.1772    1.7939 H   0  0  0  0  0  0  0  0  0  0  0  0
   -0.1925    0.2864    0.8114 H   0  0  0  0  0  0  0  0  0  0  0  0
    1.8343   -1.7625    2.2341 N   0  0  0  0  0  0  0  0  0  0  0  0
    3.1670   -2.0691    2.6826 C   0  0  2  0  0  0  0  0  0  0  0  0
    3.2607   -1.7091    4.1595 C   0  0  0  0  0  0  0  0  0  0  0  0
    2.5100   -0.9007    4.7017 O   0  0  0  0  0  0  0  0  0  0  0  0
    4.2105   -1.3161    1.8723 C   0  0  0  0  0  0  0  0  0  0  0  0
    1.0511   -2.2105    2.7070 H   0  0  0  0  0  0  0  0  0  0  0  0
    3.3011   -3.1494    2.5603 H   0  0  0  0  0  0  0  0  0  0  0  0
    4.0920   -0.2319    1.9824 H   0  0  0  0  0  0  0  0  0  0  0  0
    5.2248   -1.5722    2.1958 H   0  0  0  0  0  0  0  0  0  0  0  0
    4.1223   -1.5535    0.8066 H   0  0  0  0  0  0  0  0  0  0  0  0
    4.3086   -2.3642    4.7909 N   0  0  0  0  0  0  0  0  0  0  0  0
    4.6129   -2.1800    6.1907 C   0  0  0  0  0  0  0  0  0  0  0  0
    4.8682   -3.0316    4.2681 H   0  0  0  0  0  0  0  0  0  0  0  0
    5.3598   -1.3801    6.3019 H   0  0  0  0  0  0  0  0  0  0  0  0
    3.6960   -1.9031    6.7317 H   0  0  0  0  0  0  0  0  0  0  0  0
    5.0144   -3.1166    6.6049 H   0  0  0  0  0  0  0  0  0  0  0  0
  1  3  1  0  0  0  0
  1  7  1  0  0  0  0
  1  2  2  0  0  0  0
 18 19  1  0  0  0  0
 19 24  1  0  0  0  0
 19 20  2  0  0  0  0
 25 26  1  0  0  0  0
 26 34  1  0  0  0  0
 26 27  2  0  0  0  0
  8  9  1  0  0  0  0
  9 17  1  0  0  0  0
  9 10  2  0  0  0  0
 25 28  1  0  0  0  0
  8 11  1  0  0  0  0
 34 35  1  0  0  0  0
 17 18  1  0  0  0  0
 24 25  1  0  0  0  0
  7  8  1  0  0  0  0
  3  4  1  0  0  0  0
  3  5  1  0  0  0  0
  3  6  1  0  0  0  0
 28 31  1  0  0  0  0
 28 32  1  0  0  0  0
 28 33  1  0  0  0  0
 11 14  1  0  0  0  0
 11 15  1  0  0  0  0
 11 16  1  0  0  0  0
 35 37  1  0  0  0  0
 35 38  1  0  0  0  0
 35 39  1  0  0  0  0
 18 22  1  0  0  0  0
 18 23  1  0  0  0  0
 25 30  1  0  0  0  0
  8 13  1  0  0  0  0
 34 36  1  0  0  0  0
 17 21  1  0  0  0  0
  7 12  1  0  0  0  0
 24 29  1  0  0  0  0
M  END
$$$$

  -OEChem-05262214473D

 39 38  0     1  0  0  0  0  0999 V2000
   -3.5200   -4.0268   -1.6943 C   0  0  0  0  0  0  0  0  0  0  0  0
   -2.8702   -4.8827   -1.1054 O   0  0  0  0  0  0  0  0  0  0  0  0
   -4.9704   -4.2579   -1.9614 C   0  0  0  0  0  0  0  0  0  0  0  0
   -5.1456   -4.7573   -2.9278 H   0  0  0  0  0  0  0  0  0  0  0  0
   -5.4379   -4.9112   -1.2072 H   0  0  0  0  0  0  0  0  0  0  0  0
   -5.5954   -3.3510   -1.9864 H   0  0  0  0  0  0  0  0  0  0  0  0
   -3.0424   -2.8131   -2.1606 N   0  0  0  0  0  0  0  0  0  0  0  0
   -1.6755   -2.3891   -2.0077 C   0  0  2  0  0  0  0  0  0  0  0  0
   -1.5782   -1.5673   -0.7292 C   0  0  0  0  0  0  0  0  0  0  0  0
   -2.5448   -1.0064   -0.2171 O   0  0  0  0  0  0  0  0  0  0  0  0
   -1.2087   -1.5823   -3.2094 C   0  0  0  0  0  0  0  0  0  0  0  0
   -3.6915   -2.1888   -2.6360 H   0  0  0  0  0  0  0  0  0  0  0  0
   -1.0721   -3.2977   -1.9053 H   0  0  0  0  0  0  0  0  0  0  0  0
   -1.8017   -0.6681   -3.3281 H   0  0  0  0  0  0  0  0  0  0  0  0
   -0.1601   -1.2849   -3.1045 H   0  0  0  0  0  0  0  0  0  0  0  0
   -1.3074   -2.1646   -4.1319 H   0  0  0  0  0  0  0  0  0  0  0  0
   -0.2835   -1.5112   -0.2725 N   0  0  0  0  0  0  0  0  0  0  0  0
    0.0769   -0.7658    0.9424 C   0  0  0  0  0  0  0  0  0  0  0  0
    1.5590   -0.8869    1.1891 C   0  0  0  0  0  0  0  0  0  0  0  0
    2.3863   -0.1018    0.7335 O   0  0  0  0  0  0  0  0  0  0  0  0
    0.4587   -2.0097   -0.7289 H   0  0  0  0  0  0  0  0  0  0  0  0
   -0.4732   -1.1772    1.7939 H   0  0  0  0  0  0  0  0  0  0  0  0
   -0.1925    0.2864    0.8114 H   0  0  0  0  0  0  0  0  0  0  0  0
    1.8574   -1.9883    1.9842 N   0  0  0  0  0  0  0  0  0  0  0  0
    3.1955   -2.3461    2.3750 C   0  0  2  0  0  0  0  0  0  0  0  0
    3.2503   -2.3710    3.8968 C   0  0  0  0  0  0  0  0  0  0  0  0
    2.4557   -1.7580    4.6068 O   0  0  0  0  0  0  0  0  0  0  0  0
    4.2164   -1.3706    1.8103 C   0  0  0  0  0  0  0  0  0  0  0  0
    1.0880   -2.5728    2.3071 H   0  0  0  0  0  0  0  0  0  0  0  0
    3.3801   -3.3533    1.9858 H   0  0  0  0  0  0  0  0  0  0  0  0
    4.0475   -0.3559    2.1891 H   0  0  0  0  0  0  0  0  0  0  0  0
    5.2361   -1.6603    2.0847 H   0  0  0  0  0  0  0  0  0  0  0  0
    4.1553   -1.3318    0.7174 H   0  0  0  0  0  0  0  0  0  0  0  0
    4.3169   -3.1234    4.3684 N   0  0  0  0  0  0  0  0  0  0  0  0
    4.5910   -3.2902    5.7766 C   0  0  0  0  0  0  0  0  0  0  0  0
    4.9138   -3.6127    3.7082 H   0  0  0  0  0  0  0  0  0  0  0  0
    5.2994   -2.5161    6.1070 H   0  0  0  0  0  0  0  0  0  0  0  0
    3.6545   -3.1970    6.3460 H   0  0  0  0  0  0  0  0  0  0  0  0
    5.0279   -4.2847    5.9497 H   0  0  0  0  0  0  0  0  0  0  0  0
  1  3  1  0  0  0  0
  1  7  1  0  0  0  0
  1  2  2  0  0  0  0
 18 19  1  0  0  0  0
 19 24  1  0  0  0  0
 19 20  2  0  0  0  0
 25 26  1  0  0  0  0
 26 34  1  0  0  0  0
 26 27  2  0  0  0  0
  8  9  1  0  0  0  0
  9 17  1  0  0  0  0
  9 10  2  0  0  0  0
 25 28  1  0  0  0  0
  8 11  1  0  0  0  0
 34 35  1  0  0  0  0
 17 18  1  0  0  0  0
 24 25  1  0  0  0  0
  7  8  1  0  0  0  0
  3  4  1  0  0  0  0
  3  5  1  0  0  0  0
  3  6  1  0  0  0  0
 28 31  1  0  0  0  0
 28 32  1  0  0  0  0
 28 33  1  0  0  0  0
 11 14  1  0  0  0  0
 11 15  1  0  0  0  0
 11 16  1  0  0  0  0
 35 37  1  0  0  0  0
 35 38  1  0  0  0  0
 35 39  1  0  0  0  0
 18 22  1  0  0  0  0
 18 23  1  0  0  0  0
 25 30  1  0  0  0  0
  8 13  1  0  0  0  0
 34 36  1  0  0  0  0
 17 21  1  0  0  0  0
  7 12  1  0  0  0  0
 24 29  1  0  0  0  0
M  END
$$$$

  -OEChem-05262214473D

 39 38  0     1  0  0  0  0  0999 V2000
   -3.5200   -4.0268   -1.6943 C   0  0  0  0  0  0  0  0  0  0  0  0
   -2.8702   -4.8827   -1.1054 O   0  0  0  0  0  0  0  0  0  0  0  0
   -4.9704   -4.2579   -1.9614 C   0  0  0  0  0  0  0  0  0  0  0  0
   -5.1456   -4.7573   -2.9278 H   0  0  0  0  0  0  0  0  0  0  0  0
   -5.4379   -4.9112   -1.2072 H   0  0  0  0  0  0  0  0  0  0  0  0
   -5.5954   -3.3510   -1.9864 H   0  0  0  0  0  0  0  0  0  0  0  0
   -3.0424   -2.8131   -2.1606 N   0  0  0  0  0  0  0  0  0  0  0  0
   -1.6755   -2.3891   -2.0077 C   0  0  2  0  0  0  0  0  0  0  0  0
   -1.5782   -1.5673   -0.7292 C   0  0  0  0  0  0  0  0  0  0  0  0
   -2.5448   -1.0064   -0.2171 O   0  0  0  0  0  0  0  0  0  0  0  0
   -1.2087   -1.5823   -3.2094 C   0  0  0  0  0  0  0  0  0  0  0  0
   -3.6915   -2.1888   -2.6360 H   0  0  0  0  0  0  0  0  0  0  0  0
   -1.0721   -3.2977   -1.9053 H   0  0  0  0  0  0  0  0  0  0  0  0
   -1.8017   -0.6681   -3.3281 H   0  0  0  0  0  0  0  0  0  0  0  0
   -0.1601   -1.2849   -3.1045 H   0  0  0  0  0  0  0  0  0  0  0  0
   -1.3074   -2.1646   -4.1319 H   0  0  0  0  0  0  0  0  0  0  0  0
   -0.2835   -1.5112   -0.2725 N   0  0  0  0  0  0  0  0  0  0  0  0
    0.0769   -0.7658    0.9424 C   0  0  0  0  0  0  0  0  0  0  0  0
    1.5590   -0.8869    1.1891 C   0  0  0  0  0  0  0  0  0  0  0  0
    2.3570    0.0205    0.9698 O   0  0  0  0  0  0  0  0  0  0  0  0
    0.4587   -2.0097   -0.7289 H   0  0  0  0  0  0  0  0  0  0  0  0
   -0.4732   -1.1772    1.7939 H   0  0  0  0  0  0  0  0  0  0  0  0
   -0.1925    0.2864    0.8114 H   0  0  0  0  0  0  0  0  0  0  0  0
    1.8944   -2.1419    1.6859 N   0  0  0  0  0  0  0  0  0  0  0  0
    3.2412   -2.5341    2.0081 C   0  0  2  0  0  0  0  0  0  0  0  0
    3.2737   -2.9440    3.4745 C   0  0  0  0  0  0  0  0  0  0  0  0
    2.4415   -2.5642    4.2957 O   0  0  0  0  0  0  0  0  0  0  0  0
    4.2256   -1.4072    1.7367 C   0  0  0  0  0  0  0  0  0  0  0  0
    1.1474   -2.8194    1.8294 H   0  0  0  0  0  0  0  0  0  0  0  0
    3.4769   -3.4007    1.3807 H   0  0  0  0  0  0  0  0  0  0  0  0
    4.0054   -0.5301    2.3562 H   0  0  0  0  0  0  0  0  0  0  0  0
    5.2530   -1.7166    1.9552 H   0  0  0  0  0  0  0  0  0  0  0  0
    4.1796   -1.0935    0.6883 H   0  0  0  0  0  0  0  0  0  0  0  0
    4.3657   -3.7489    3.7674 N   0  0  0  0  0  0  0  0  0  0  0  0
    4.6255   -4.2581    5.0937 C   0  0  0  0  0  0  0  0  0  0  0  0
    4.9942   -4.0296    3.0204 H   0  0  0  0  0  0  0  0  0  0  0  0
    5.2931   -3.5664    5.6284 H   0  0  0  0  0  0  0  0  0  0  0  0
    3.6771   -4.3503    5.6432 H   0  0  0  0  0  0  0  0  0  0  0  0
    5.1041   -5.2458    5.0199 H   0  0  0  0  0  0  0  0  0  0  0  0
  1  3  1  0  0  0  0
  1  7  1  0  0  0  0
  1  2  2  0  0  0  0
 18 19  1  0  0  0  0
 19 24  1  0  0  0  0
 19 20  2  0  0  0  0
 25 26  1  0  0  0  0
 26 34  1  0  0  0  0
 26 27  2  0  0  0  0
  8  9  1  0  0  0  0
  9 17  1  0  0  0  0
  9 10  2  0  0  0  0
 25 28  1  0  0  0  0
  8 11  1  0  0  0  0
 34 35  1  0  0  0  0
 17 18  1  0  0  0  0
 24 25  1  0  0  0  0
  7  8  1  0  0  0  0
  3  4  1  0  0  0  0
  3  5  1  0  0  0  0
  3  6  1  0  0  0  0
 28 31  1  0  0  0  0
 28 32  1  0  0  0  0
 28 33  1  0  0  0  0
 11 14  1  0  0  0  0
 11 15  1  0  0  0  0
 11 16  1  0  0  0  0
 35 37  1  0  0  0  0
 35 38  1  0  0  0  0
 35 39  1  0  0  0  0
 18 22  1  0  0  0  0
 18 23  1  0  0  0  0
 25 30  1  0  0  0  0
  8 13  1  0  0  0  0
 34 36  1  0  0  0  0
 17 21  1  0  0  0  0
  7 12  1  0  0  0  0
 24 29  1  0  0  0  0
M  END
$$$$

  -OEChem-05262214473D

 39 38  0     1  0  0  0  0  0999 V2000
   -3.5200   -4.0268   -1.6943 C   0  0  0  0  0  0  0  0  0  0  0  0
   -2.8702   -4.8827   -1.1054 O   0  0  0  0  0  0  0  0  0  0  0  0
   -4.9704   -4.2579   -1.9614 C   0  0  0  0  0  0  0  0  0  0  0  0
   -5.1456   -4.7573   -2.9278 H   0  0  0  0  0  0  0  0  0  0  0  0
   -5.4379   -4.9112   -1.2072 H   0  0  0  0  0  0  0  0  0  0  0  0
   -5.5954   -3.3510   -1.9864 H   0  0  0  0  0  0  0  0  0  0  0  0
   -3.0424   -2.8131   -2.1606 N   0  0  0  0  0  0  0  0  0  0  0  0
   -1.6755   -2.3891   -2.0077 C   0  0  2  0  0  0  0  0  0  0  0  0
   -1.5782   -1.5673   -0.7292 C   0  0  0  0  0  0  0  0  0  0  0  0
   -2.5448   -1.0064   -0.2171 O   0  0  0  0  0  0  0  0  0  0  0  0
   -1.2087   -1.5823   -3.2094 C   0  0  0  0  0  0  0  0  0  0  0  0
   -3.6915   -2.1888   -2.6360 H   0  0  0  0  0  0  0  0  0  0  0  0
   -1.0721   -3.2977   -1.9053 H   0  0  0  0  0  0  0  0  0  0  0  0
   -1.8017   -0.6681   -3.3281 H   0  0  0  0  0  0  0  0  0  0  0  0
   -0.1601   -1.2849   -3.1045 H   0  0  0  0  0  0  0  0  0  0  0  0
   -1.3074   -2.1646   -4.1319 H   0  0  0  0  0  0  0  0  0  0  0  0
   -0.2835   -1.5112   -0.2725 N   0  0  0  0  0  0  0  0  0  0  0  0
    0.0769   -0.7658    0.9424 C   0  0  0  0  0  0  0  0  0  0  0  0
    1.5590   -0.8869    1.1891 C   0  0  0  0  0  0  0  0  0  0  0  0
    2.3186    0.0774    1.2286 O   0  0  0  0  0  0  0  0  0  0  0  0
    0.4587   -2.0097   -0.7289 H   0  0  0  0  0  0  0  0  0  0  0  0
   -0.4732   -1.1772    1.7939 H   0  0  0  0  0  0  0  0  0  0  0  0
   -0.1925    0.2864    0.8114 H   0  0  0  0  0  0  0  0  0  0  0  0
    1.9430   -2.2128    1.3595 N   0  0  0  0  0  0  0  0  0  0  0  0
    3.3010   -2.6205    1.6067 C   0  0  2  0  0  0  0  0  0  0  0  0
    3.3294   -3.3890    2.9212 C   0  0  0  0  0  0  0  0  0  0  0  0
    2.4685   -3.2644    3.7898 O   0  0  0  0  0  0  0  0  0  0  0  0
    4.2376   -1.4234    1.6565 C   0  0  0  0  0  0  0  0  0  0  0  0
    1.2251   -2.9335    1.3065 H   0  0  0  0  0  0  0  0  0  0  0  0
    3.5850   -3.2884    0.7862 H   0  0  0  0  0  0  0  0  0  0  0  0
    3.9687   -0.7427    2.4725 H   0  0  0  0  0  0  0  0  0  0  0  0
    5.2745   -1.7373    1.8162 H   0  0  0  0  0  0  0  0  0  0  0  0
    4.1936   -0.8549    0.7213 H   0  0  0  0  0  0  0  0  0  0  0  0
    4.4520   -4.1979    3.0286 N   0  0  0  0  0  0  0  0  0  0  0  0
    4.7141   -5.0178    4.1885 C   0  0  0  0  0  0  0  0  0  0  0  0
    5.1038   -4.2538    2.2516 H   0  0  0  0  0  0  0  0  0  0  0  0
    5.3416   -4.4593    4.8987 H   0  0  0  0  0  0  0  0  0  0  0  0
    3.7624   -5.2846    4.6714 H   0  0  0  0  0  0  0  0  0  0  0  0
    5.2377   -5.9342    3.8788 H   0  0  0  0  0  0  0  0  0  0  0  0
  1  3  1  0  0  0  0
  1  7  1  0  0  0  0
  1  2  2  0  0  0  0
 18 19  1  0  0  0  0
 19 24  1  0  0  0  0
 19 20  2  0  0  0  0
 25 26  1  0  0  0  0
 26 34  1  0  0  0  0
 26 27  2  0  0  0  0
  8  9  1  0  0  0  0
  9 17  1  0  0  0  0
  9 10  2  0  0  0  0
 25 28  1  0  0  0  0
  8 11  1  0  0  0  0
 34 35  1  0  0  0  0
 17 18  1  0  0  0  0
 24 25  1  0  0  0  0
  7  8  1  0  0  0  0
  3  4  1  0  0  0  0
  3  5  1  0  0  0  0
  3  6  1  0  0  0  0
 28 31  1  0  0  0  0
 28 32  1  0  0  0  0
 28 33  1  0  0  0  0
 11 14  1  0  0  0  0
 11 15  1  0  0  0  0
 11 16  1  0  0  0  0
 35 37  1  0  0  0  0
 35 38  1  0  0  0  0
 35 39  1  0  0  0  0
 18 22  1  0  0  0  0
 18 23  1  0  0  0  0
 25 30  1  0  0  0  0
  8 13  1  0  0  0  0
 34 36  1  0  0  0  0
 17 21  1  0  0  0  0
  7 12  1  0  0  0  0
 24 29  1  0  0  0  0
M  END
$$$$

  -OEChem-05262214473D

 39 38  0     1  0  0  0  0  0999 V2000
   -3.5200   -4.0268   -1.6943 C   0  0  0  0  0  0  0  0  0  0  0  0
   -2.8702   -4.8827   -1.1054 O   0  0  0  0  0  0  0  0  0  0  0  0
   -4.9704   -4.2579   -1.9614 C   0  0  0  0  0  0  0  0  0  0  0  0
   -5.1456   -4.7573   -2.9278 H   0  0  0  0  0  0  0  0  0  0  0  0
   -5.4379   -4.9112   -1.2072 H   0  0  0  0  0  0  0  0  0  0  0  0
   -5.5954   -3.3510   -1.9864 H   0  0  0  0  0  0  0  0  0  0  0  0
   -3.0424   -2.8131   -2.1606 N   0  0  0  0  0  0  0  0  0  0  0  0
   -1.6755   -2.3891   -2.0077 C   0  0  2  0  0  0  0  0  0  0  0  0
   -1.5782   -1.5673   -0.7292 C   0  0  0  0  0  0  0  0  0  0  0  0
   -2.5448   -1.0064   -0.2171 O   0  0  0  0  0  0  0  0  0  0  0  0
   -1.2087   -1.5823   -3.2094 C   0  0  0  0  0  0  0  0  0  0  0  0
   -3.6915   -2.1888   -2.6360 H   0  0  0  0  0  0  0  0  0  0  0  0
   -1.0721   -3.2977   -1.9053 H   0  0  0  0  0  0  0  0  0  0  0  0
   -1.8017   -0.6681   -3.3281 H   0  0  0  0  0  0  0  0  0  0  0  0
   -0.1601   -1.2849   -3.1045 H   0  0  0  0  0  0  0  0  0  0  0  0
   -1.3074   -2.1646   -4.1319 H   0  0  0  0  0  0  0  0  0  0  0  0
   -0.2835   -1.5112   -0.2725 N   0  0  0  0  0  0  0  0  0  0  0  0
    0.0769   -0.7658    0.9424 C   0  0  0  0  0  0  0  0  0  0  0  0
    1.5590   -0.8869    1.1891 C   0  0  0  0  0  0  0  0  0  0  0  0
    2.2737    0.0648    1.4922 O   0  0  0  0  0  0  0  0  0  0  0  0
    0.4587   -2.0097   -0.7289 H   0  0  0  0  0  0  0  0  0  0  0  0
   -0.4732   -1.1772    1.7939 H   0  0  0  0  0  0  0  0  0  0  0  0
   -0.1925    0.2864    0.8114 H   0  0  0  0  0  0  0  0  0  0  0  0
    1.9997   -2.1961    1.0271 N   0  0  0  0  0  0  0  0  0  0  0  0
    3.3707   -2.5991    1.1983 C   0  0  2  0  0  0  0  0  0  0  0  0
    3.4135   -3.6757    2.2747 C   0  0  0  0  0  0  0  0  0  0  0  0
    2.5347   -3.8109    3.1235 O   0  0  0  0  0  0  0  0  0  0  0  0
    4.2516   -1.4182    1.5751 C   0  0  0  0  0  0  0  0  0  0  0  0
    1.3158   -2.9074    0.7739 H   0  0  0  0  0  0  0  0  0  0  0  0
    3.6970   -3.0241    0.2428 H   0  0  0  0  0  0  0  0  0  0  0  0
    3.9398   -0.9792    2.5299 H   0  0  0  0  0  0  0  0  0  0  0  0
    5.2989   -1.7211    1.6770 H   0  0  0  0  0  0  0  0  0  0  0  0
    4.1964   -0.6323    0.8142 H   0  0  0  0  0  0  0  0  0  0  0  0
    4.5696   -4.4401    2.2026 N   0  0  0  0  0  0  0  0  0  0  0  0
    4.8506   -5.5174    3.1226 C   0  0  0  0  0  0  0  0  0  0  0  0
    5.2351   -4.2702    1.4543 H   0  0  0  0  0  0  0  0  0  0  0  0
    5.4413   -5.1341    3.9676 H   0  0  0  0  0  0  0  0  0  0  0  0
    3.9046   -5.9361    3.4967 H   0  0  0  0  0  0  0  0  0  0  0  0
    5.4196   -6.3032    2.6041 H   0  0  0  0  0  0  0  0  0  0  0  0
  1  3  1  0  0  0  0
  1  7  1  0  0  0  0
  1  2  2  0  0  0  0
 18 19  1  0  0  0  0
 19 24  1  0  0  0  0
 19 20  2  0  0  0  0
 25 26  1  0  0  0  0
 26 34  1  0  0  0  0
 26 27  2  0  0  0  0
  8  9  1  0  0  0  0
  9 17  1  0  0  0  0
  9 10  2  0  0  0  0
 25 28  1  0  0  0  0
  8 11  1  0  0  0  0
 34 35  1  0  0  0  0
 17 18  1  0  0  0  0
 24 25  1  0  0  0  0
  7  8  1  0  0  0  0
  3  4  1  0  0  0  0
  3  5  1  0  0  0  0
  3  6  1  0  0  0  0
 28 31  1  0  0  0  0
 28 32  1  0  0  0  0
 28 33  1  0  0  0  0
 11 14  1  0  0  0  0
 11 15  1  0  0  0  0
 11 16  1  0  0  0  0
 35 37  1  0  0  0  0
 35 38  1  0  0  0  0
 35 39  1  0  0  0  0
 18 22  1  0  0  0  0
 18 23  1  0  0  0  0
 25 30  1  0  0  0  0
  8 13  1  0  0  0  0
 34 36  1  0  0  0  0
 17 21  1  0  0  0  0
  7 12  1  0  0  0  0
 24 29  1  0  0  0  0
M  END
$$$$

  -OEChem-05262214473D

 39 38  0     1  0  0  0  0  0999 V2000
   -3.5200   -4.0268   -1.6943 C   0  0  0  0  0  0  0  0  0  0  0  0
   -2.8702   -4.8827   -1.1054 O   0  0  0  0  0  0  0  0  0  0  0  0
   -4.9704   -4.2579   -1.9614 C   0  0  0  0  0  0  0  0  0  0  0  0
   -5.1456   -4.7573   -2.9278 H   0  0  0  0  0  0  0  0  0  0  0  0
   -5.4379   -4.9112   -1.2072 H   0  0  0  0  0  0  0  0  0  0  0  0
   -5.5954   -3.3510   -1.9864 H   0  0  0  0  0  0  0  0  0  0  0  0
   -3.0424   -2.8131   -2.1606 N   0  0  0  0  0  0  0  0  0  0  0  0
   -1.6755   -2.3891   -2.0077 C   0  0  2  0  0  0  0  0  0  0  0  0
   -1.5782   -1.5673   -0.7292 C   0  0  0  0  0  0  0  0  0  0  0  0
   -2.5448   -1.0064   -0.2171 O   0  0  0  0  0  0  0  0  0  0  0  0
   -1.2087   -1.5823   -3.2094 C   0  0  0  0  0  0  0  0  0  0  0  0
   -3.6915   -2.1888   -2.6360 H   0  0  0  0  0  0  0  0  0  0  0  0
   -1.0721   -3.2977   -1.9053 H   0  0  0  0  0  0  0  0  0  0  0  0
   -1.8017   -0.6681   -3.3281 H   0  0  0  0  0  0  0  0  0  0  0  0
   -0.1601   -1.2849   -3.1045 H   0  0  0  0  0  0  0  0  0  0  0  0
   -1.3074   -2.1646   -4.1319 H   0  0  0  0  0  0  0  0  0  0  0  0
   -0.2835   -1.5112   -0.2725 N   0  0  0  0  0  0  0  0  0  0  0  0
    0.0769   -0.7658    0.9424 C   0  0  0  0  0  0  0  0  0  0  0  0
    1.5590   -0.8869    1.1891 C   0  0  0  0  0  0  0  0  0  0  0  0
    2.2253   -0.0164    1.7427 O   0  0  0  0  0  0  0  0  0  0  0  0
    0.4587   -2.0097   -0.7289 H   0  0  0  0  0  0  0  0  0  0  0  0
   -0.4732   -1.1772    1.7939 H   0  0  0  0  0  0  0  0  0  0  0  0
   -0.1925    0.2864    0.8114 H   0  0  0  0  0  0  0  0  0  0  0  0
    2.0606   -2.0930    0.7115 N   0  0  0  0  0  0  0  0  0  0  0  0
    3.4456   -2.4717    0.8106 C   0  0  2  0  0  0  0  0  0  0  0  0
    3.5204   -3.7845    1.5790 C   0  0  0  0  0  0  0  0  0  0  0  0
    2.6356   -4.1663    2.3422 O   0  0  0  0  0  0  0  0  0  0  0  0
    4.2666   -1.3919    1.4982 C   0  0  0  0  0  0  0  0  0  0  0  0
    1.4135   -2.7428    0.2680 H   0  0  0  0  0  0  0  0  0  0  0  0
    3.8054   -2.6257   -0.2125 H   0  0  0  0  0  0  0  0  0  0  0  0
    3.9207   -1.2235    2.5246 H   0  0  0  0  0  0  0  0  0  0  0  0
    5.3248   -1.6689    1.5473 H   0  0  0  0  0  0  0  0  0  0  0  0
    4.1877   -0.4407    0.9607 H   0  0  0  0  0  0  0  0  0  0  0  0
    4.7107   -4.4588    1.3455 N   0  0  0  0  0  0  0  0  0  0  0  0
    5.0258   -5.7231    1.9687 C   0  0  0  0  0  0  0  0  0  0  0  0
    5.3793   -4.0775    0.6827 H   0  0  0  0  0  0  0  0  0  0  0  0
    5.5856   -5.5446    2.8986 H   0  0  0  0  0  0  0  0  0  0  0  0
    4.0940   -6.2604    2.1992 H   0  0  0  0  0  0  0  0  0  0  0  0
    5.6375   -6.3275    1.2828 H   0  0  0  0  0  0  0  0  0  0  0  0
  1  3  1  0  0  0  0
  1  7  1  0  0  0  0
  1  2  2  0  0  0  0
 18 19  1  0  0  0  0
 19 24  1  0  0  0  0
 19 20  2  0  0  0  0
 25 26  1  0  0  0  0
 26 34  1  0  0  0  0
 26 27  2  0  0  0  0
  8  9  1  0  0  0  0
  9 17  1  0  0  0  0
  9 10  2  0  0  0  0
 25 28  1  0  0  0  0
  8 11  1  0  0  0  0
 34 35  1  0  0  0  0
 17 18  1  0  0  0  0
 24 25  1  0  0  0  0
  7  8  1  0  0  0  0
  3  4  1  0  0  0  0
  3  5  1  0  0  0  0
  3  6  1  0  0  0  0
 28 31  1  0  0  0  0
 28 32  1  0  0  0  0
 28 33  1  0  0  0  0
 11 14  1  0  0  0  0
 11 15  1  0  0  0  0
 11 16  1  0  0  0  0
 35 37  1  0  0  0  0
 35 38  1  0  0  0  0
 35 39  1  0  0  0  0
 18 22  1  0  0  0  0
 18 23  1  0  0  0  0
 25 30  1  0  0  0  0
  8 13  1  0  0  0  0
 34 36  1  0  0  0  0
 17 21  1  0  0  0  0
  7 12  1  0  0  0  0
 24 29  1  0  0  0  0
M  END
$$$$

  -OEChem-05262214473D

 39 38  0     1  0  0  0  0  0999 V2000
   -3.5200   -4.0268   -1.6943 C   0  0  0  0  0  0  0  0  0  0  0  0
   -2.8702   -4.8827   -1.1054 O   0  0  0  0  0  0  0  0  0  0  0  0
   -4.9704   -4.2579   -1.9614 C   0  0  0  0  0  0  0  0  0  0  0  0
   -5.1456   -4.7573   -2.9278 H   0  0  0  0  0  0  0  0  0  0  0  0
   -5.4379   -4.9112   -1.2072 H   0  0  0  0  0  0  0  0  0  0  0  0
   -5.5954   -3.3510   -1.9864 H   0  0  0  0  0  0  0  0  0  0  0  0
   -3.0424   -2.8131   -2.1606 N   0  0  0  0  0  0  0  0  0  0  0  0
   -1.6755   -2.3891   -2.0077 C   0  0  2  0  0  0  0  0  0  0  0  0
   -1.5782   -1.5673   -0.7292 C   0  0  0  0  0  0  0  0  0  0  0  0
   -2.5448   -1.0064   -0.2171 O   0  0  0  0  0  0  0  0  0  0  0  0
   -1.2087   -1.5823   -3.2094 C   0  0  0  0  0  0  0  0  0  0  0  0
   -3.6915   -2.1888   -2.6360 H   0  0  0  0  0  0  0  0  0  0  0  0
   -1.0721   -3.2977   -1.9053 H   0  0  0  0  0  0  0  0  0  0  0  0
   -1.8017   -0.6681   -3.3281 H   0  0  0  0  0  0  0  0  0  0  0  0
   -0.1601   -1.2849   -3.1045 H   0  0  0  0  0  0  0  0  0  0  0  0
   -1.3074   -2.1646   -4.1319 H   0  0  0  0  0  0  0  0  0  0  0  0
   -0.2835   -1.5112   -0.2725 N   0  0  0  0  0  0  0  0  0  0  0  0
    0.0769   -0.7658    0.9424 C   0  0  0  0  0  0  0  0  0  0  0  0
    1.5590   -0.8869    1.1891 C   0  0  0  0  0  0  0  0  0  0  0  0
    2.1769   -0.1606    1.9630 O   0  0  0  0  0  0  0  0  0  0  0  0
    0.4587   -2.0097   -0.7289 H   0  0  0  0  0  0  0  0  0  0  0  0
   -0.4732   -1.1772    1.7939 H   0  0  0  0  0  0  0  0  0  0  0  0
   -0.1925    0.2864    0.8114 H   0  0  0  0  0  0  0  0  0  0  0  0
    2.1217   -1.9106    0.4341 N   0  0  0  0  0  0  0  0  0  0  0  0
    3.5206   -2.2467    0.4702 C   0  0  2  0  0  0  0  0  0  0  0  0
    3.6427   -3.7080    0.8816 C   0  0  0  0  0  0  0  0  0  0  0  0
    2.7644   -4.3066    1.4992 O   0  0  0  0  0  0  0  0  0  0  0  0
    4.2815   -1.3462    1.4308 C   0  0  0  0  0  0  0  0  0  0  0  0
    1.5113   -2.4509   -0.1767 H   0  0  0  0  0  0  0  0  0  0  0  0
    3.9026   -2.1205   -0.5487 H   0  0  0  0  0  0  0  0  0  0  0  0
    3.9127   -1.4589    2.4569 H   0  0  0  0  0  0  0  0  0  0  0  0
    5.3503   -1.5844    1.4357 H   0  0  0  0  0  0  0  0  0  0  0  0
    4.1681   -0.2934    1.1507 H   0  0  0  0  0  0  0  0  0  0  0  0
    4.8656   -4.2528    0.5158 N   0  0  0  0  0  0  0  0  0  0  0  0
    5.2277   -5.6206    0.8054 C   0  0  0  0  0  0  0  0  0  0  0  0
    5.5264   -3.6889   -0.0106 H   0  0  0  0  0  0  0  0  0  0  0  0
    5.7647   -5.6631    1.7645 H   0  0  0  0  0  0  0  0  0  0  0  0
    4.3177   -6.2355    0.8673 H   0  0  0  0  0  0  0  0  0  0  0  0
    5.8765   -6.0054    0.0048 H   0  0  0  0  0  0  0  0  0  0  0  0
  1  3  1  0  0  0  0
  1  7  1  0  0  0  0
  1  2  2  0  0  0  0
 18 19  1  0  0  0  0
 19 24  1  0  0  0  0
 19 20  2  0  0  0  0
 25 26  1  0  0  0  0
 26 34  1  0  0  0  0
 26 27  2  0  0  0  0
  8  9  1  0  0  0  0
  9 17  1  0  0  0  0
  9 10  2  0  0  0  0
 25 28  1  0  0  0  0
  8 11  1  0  0  0  0
 34 35  1  0  0  0  0
 17 18  1  0  0  0  0
 24 25  1  0  0  0  0
  7  8  1  0  0  0  0
  3  4  1  0  0  0  0
  3  5  1  0  0  0  0
  3  6  1  0  0  0  0
 28 31  1  0  0  0  0
 28 32  1  0  0  0  0
 28 33  1  0  0  0  0
 11 14  1  0  0  0  0
 11 15  1  0  0  0  0
 11 16  1  0  0  0  0
 35 37  1  0  0  0  0
 35 38  1  0  0  0  0
 35 39  1  0  0  0  0
 18 22  1  0  0  0  0
 18 23  1  0  0  0  0
 25 30  1  0  0  0  0
  8 13  1  0  0  0  0
 34 36  1  0  0  0  0
 17 21  1  0  0  0  0
  7 12  1  0  0  0  0
 24 29  1  0  0  0  0
M  END
$$$$

  -OEChem-05262214473D

 39 38  0     1  0  0  0  0  0999 V2000
   -3.5200   -4.0268   -1.6943 C   0  0  0  0  0  0  0  0  0  0  0  0
   -2.8702   -4.8827   -1.1054 O   0  0  0  0  0  0  0  0  0  0  0  0
   -4.9704   -4.2579   -1.9614 C   0  0  0  0  0  0  0  0  0  0  0  0
   -5.1456   -4.7573   -2.9278 H   0  0  0  0  0  0  0  0  0  0  0  0
   -5.4379   -4.9112   -1.2072 H   0  0  0  0  0  0  0  0  0  0  0  0
   -5.5954   -3.3510   -1.9864 H   0  0  0  0  0  0  0  0  0  0  0  0
   -3.0424   -2.8131   -2.1606 N   0  0  0  0  0  0  0  0  0  0  0  0
   -1.6755   -2.3891   -2.0077 C   0  0  2  0  0  0  0  0  0  0  0  0
   -1.5782   -1.5673   -0.7292 C   0  0  0  0  0  0  0  0  0  0  0  0
   -2.5448   -1.0064   -0.2171 O   0  0  0  0  0  0  0  0  0  0  0  0
   -1.2087   -1.5823   -3.2094 C   0  0  0  0  0  0  0  0  0  0  0  0
   -3.6915   -2.1888   -2.6360 H   0  0  0  0  0  0  0  0  0  0  0  0
   -1.0721   -3.2977   -1.9053 H   0  0  0  0  0  0  0  0  0  0  0  0
   -1.8017   -0.6681   -3.3281 H   0  0  0  0  0  0  0  0  0  0  0  0
   -0.1601   -1.2849   -3.1045 H   0  0  0  0  0  0  0  0  0  0  0  0
   -1.3074   -2.1646   -4.1319 H   0  0  0  0  0  0  0  0  0  0  0  0
   -0.2835   -1.5112   -0.2725 N   0  0  0  0  0  0  0  0  0  0  0  0
    0.0769   -0.7658    0.9424 C   0  0  0  0  0  0  0  0  0  0  0  0
    1.5590   -0.8869    1.1891 C   0  0  0  0  0  0  0  0  0  0  0  0
    2.1316   -0.3580    2.1381 O   0  0  0  0  0  0  0  0  0  0  0  0
    0.4587   -2.0097   -0.7289 H   0  0  0  0  0  0  0  0  0  0  0  0
   -0.4732   -1.1772    1.7939 H   0  0  0  0  0  0  0  0  0  0  0  0
   -0.1925    0.2864    0.8114 H   0  0  0  0  0  0  0  0  0  0  0  0
    2.1787   -1.6611    0.2139 N   0  0  0  0  0  0  0  0  0  0  0  0
    3.5907   -1.9397    0.2002 C   0  0  2  0  0  0  0  0  0  0  0  0
    3.7721   -3.4515    0.2299 C   0  0  0  0  0  0  0  0  0  0  0  0
    2.9123   -4.2221    0.6519 O   0  0  0  0  0  0  0  0  0  0  0  0
    4.2954   -1.2843    1.3777 C   0  0  0  0  0  0  0  0  0  0  0  0
    1.6028   -2.0517   -0.5300 H   0  0  0  0  0  0  0  0  0  0  0  0
    3.9822   -1.5428   -0.7428 H   0  0  0  0  0  0  0  0  0  0  0  0
    3.9164   -1.6694    2.3314 H   0  0  0  0  0  0  0  0  0  0  0  0
    5.3736   -1.4734    1.3500 H   0  0  0  0  0  0  0  0  0  0  0  0
    4.1390   -0.2002    1.3713 H   0  0  0  0  0  0  0  0  0  0  0  0
    5.0238   -3.8361   -0.2300 N   0  0  0  0  0  0  0  0  0  0  0  0
    5.4427   -5.2171   -0.2879 C   0  0  0  0  0  0  0  0  0  0  0  0
    5.6665   -3.1309   -0.5783 H   0  0  0  0  0  0  0  0  0  0  0  0
    5.9662   -5.4813    0.6427 H   0  0  0  0  0  0  0  0  0  0  0  0
    4.5604   -5.8630   -0.4082 H   0  0  0  0  0  0  0  0  0  0  0  0
    6.1203   -5.3590   -1.1427 H   0  0  0  0  0  0  0  0  0  0  0  0
  1  3  1  0  0  0  0
  1  7  1  0  0  0  0
  1  2  2  0  0  0  0
 18 19  1  0  0  0  0
 19 24  1  0  0  0  0
 19 20  2  0  0  0  0
 25 26  1  0  0  0  0
 26 34  1  0  0  0  0
 26 27  2  0  0  0  0
  8  9  1  0  0  0  0
  9 17  1  0  0  0  0
  9 10  2  0  0  0  0
 25 28  1  0  0  0  0
  8 11  1  0  0  0  0
 34 35  1  0  0  0  0
 17 18  1  0  0  0  0
 24 25  1  0  0  0  0
  7  8  1  0  0  0  0
  3  4  1  0  0  0  0
  3  5  1  0  0  0  0
  3  6  1  0  0  0  0
 28 31  1  0  0  0  0
 28 32  1  0  0  0  0
 28 33  1  0  0  0  0
 11 14  1  0  0  0  0
 11 15  1  0  0  0  0
 11 16  1  0  0  0  0
 35 37  1  0  0  0  0
 35 38  1  0  0  0  0
 35 39  1  0  0  0  0
 18 22  1  0  0  0  0
 18 23  1  0  0  0  0
 25 30  1  0  0  0  0
  8 13  1  0  0  0  0
 34 36  1  0  0  0  0
 17 21  1  0  0  0  0
  7 12  1  0  0  0  0
 24 29  1  0  0  0  0
M  END
$$$$

  -OEChem-05262214473D

 39 38  0     1  0  0  0  0  0999 V2000
   -3.5200   -4.0268   -1.6943 C   0  0  0  0  0  0  0  0  0  0  0  0
   -2.8702   -4.8827   -1.1054 O   0  0  0  0  0  0  0  0  0  0  0  0
   -4.9704   -4.2579   -1.9614 C   0  0  0  0  0  0  0  0  0  0  0  0
   -5.1456   -4.7573   -2.9278 H   0  0  0  0  0  0  0  0  0  0  0  0
   -5.4379   -4.9112   -1.2072 H   0  0  0  0  0  0  0  0  0  0  0  0
   -5.5954   -3.3510   -1.9864 H   0  0  0  0  0  0  0  0  0  0  0  0
   -3.0424   -2.8131   -2.1606 N   0  0  0  0  0  0  0  0  0  0  0  0
   -1.6755   -2.3891   -2.0077 C   0  0  2  0  0  0  0  0  0  0  0  0
   -1.5782   -1.5673   -0.7292 C   0  0  0  0  0  0  0  0  0  0  0  0
   -2.5448   -1.0064   -0.2171 O   0  0  0  0  0  0  0  0  0  0  0  0
   -1.2087   -1.5823   -3.2094 C   0  0  0  0  0  0  0  0  0  0  0  0
   -3.6915   -2.1888   -2.6360 H   0  0  0  0  0  0  0  0  0  0  0  0
   -1.0721   -3.2977   -1.9053 H   0  0  0  0  0  0  0  0  0  0  0  0
   -1.8017   -0.6681   -3.3281 H   0  0  0  0  0  0  0  0  0  0  0  0
   -0.1601   -1.2849   -3.1045 H   0  0  0  0  0  0  0  0  0  0  0  0
   -1.3074   -2.1646   -4.1319 H   0  0  0  0  0  0  0  0  0  0  0  0
   -0.2835   -1.5112   -0.2725 N   0  0  0  0  0  0  0  0  0  0  0  0
    0.0769   -0.7658    0.9424 C   0  0  0  0  0  0  0  0  0  0  0  0
    1.5590   -0.8869    1.1891 C   0  0  0  0  0  0  0  0  0  0  0  0
    2.0926   -0.5951    2.2561 O   0  0  0  0  0  0  0  0  0  0  0  0
    0.4587   -2.0097   -0.7289 H   0  0  0  0  0  0  0  0  0  0  0  0
   -0.4732   -1.1772    1.7939 H   0  0  0  0  0  0  0  0  0  0  0  0
   -0.1925    0.2864    0.8114 H   0  0  0  0  0  0  0  0  0  0  0  0
    2.2278   -1.3617    0.0659 N   0  0  0  0  0  0  0  0  0  0  0  0
    3.6509   -1.5713    0.0189 C   0  0  2  0  0  0  0  0  0  0  0  0
    3.8998   -3.0324   -0.3316 C   0  0  0  0  0  0  0  0  0  0  0  0
    3.0693   -3.9186   -0.1420 O   0  0  0  0  0  0  0  0  0  0  0  0
    4.3073   -1.2105    1.3424 C   0  0  0  0  0  0  0  0  0  0  0  0
    1.6815   -1.5723   -0.7677 H   0  0  0  0  0  0  0  0  0  0  0  0
    4.0386   -0.9320   -0.7817 H   0  0  0  0  0  0  0  0  0  0  0  0
    3.9314   -1.8407    2.1567 H   0  0  0  0  0  0  0  0  0  0  0  0
    5.3932   -1.3433    1.2960 H   0  0  0  0  0  0  0  0  0  0  0  0
    4.1023   -0.1676    1.6076 H   0  0  0  0  0  0  0  0  0  0  0  0
    5.1745   -3.2371   -0.8410 N   0  0  0  0  0  0  0  0  0  0  0  0
    5.6559   -4.5400   -1.2368 C   0  0  0  0  0  0  0  0  0  0  0  0
    5.7900   -2.4414   -0.9817 H   0  0  0  0  0  0  0  0  0  0  0  0
    6.1765   -5.0117   -0.3904 H   0  0  0  0  0  0  0  0  0  0  0  0
    4.8056   -5.1683   -1.5404 H   0  0  0  0  0  0  0  0  0  0  0  0
    6.3523   -4.4323   -2.0815 H   0  0  0  0  0  0  0  0  0  0  0  0
  1  3  1  0  0  0  0
  1  7  1  0  0  0  0
  1  2  2  0  0  0  0
 18 19  1  0  0  0  0
 19 24  1  0  0  0  0
 19 20  2  0  0  0  0
 25 26  1  0  0  0  0
 26 34  1  0  0  0  0
 26 27  2  0  0  0  0
  8  9  1  0  0  0  0
  9 17  1  0  0  0  0
  9 10  2  0  0  0  0
 25 28  1  0  0  0  0
  8 11  1  0  0  0  0
 34 35  1  0  0  0  0
 17 18  1  0  0  0  0
 24 25  1  0  0  0  0
  7  8  1  0  0  0  0
  3  4  1  0  0  0  0
  3  5  1  0  0  0  0
  3  6  1  0  0  0  0
 28 31  1  0  0  0  0
 28 32  1  0  0  0  0
 28 33  1  0  0  0  0
 11 14  1  0  0  0  0
 11 15  1  0  0  0  0
 11 16  1  0  0  0  0
 35 37  1  0  0  0  0
 35 38  1  0  0  0  0
 35 39  1  0  0  0  0
 18 22  1  0  0  0  0
 18 23  1  0  0  0  0
 25 30  1  0  0  0  0
  8 13  1  0  0  0  0
 34 36  1  0  0  0  0
 17 21  1  0  0  0  0
  7 12  1  0  0  0  0
 24 29  1  0  0  0  0
M  END
$$$$

  -OEChem-05262214473D

 39 38  0     1  0  0  0  0  0999 V2000
   -3.5200   -4.0268   -1.6943 C   0  0  0  0  0  0  0  0  0  0  0  0
   -2.8702   -4.8827   -1.1054 O   0  0  0  0  0  0  0  0  0  0  0  0
   -4.9704   -4.2579   -1.9614 C   0  0  0  0  0  0  0  0  0  0  0  0
   -5.1456   -4.7573   -2.9278 H   0  0  0  0  0  0  0  0  0  0  0  0
   -5.4379   -4.9112   -1.2072 H   0  0  0  0  0  0  0  0  0  0  0  0
   -5.5954   -3.3510   -1.9864 H   0  0  0  0  0  0  0  0  0  0  0  0
   -3.0424   -2.8131   -2.1606 N   0  0  0  0  0  0  0  0  0  0  0  0
   -1.6755   -2.3891   -2.0077 C   0  0  2  0  0  0  0  0  0  0  0  0
   -1.5782   -1.5673   -0.7292 C   0  0  0  0  0  0  0  0  0  0  0  0
   -2.5448   -1.0064   -0.2171 O   0  0  0  0  0  0  0  0  0  0  0  0
   -1.2087   -1.5823   -3.2094 C   0  0  0  0  0  0  0  0  0  0  0  0
   -3.6915   -2.1888   -2.6360 H   0  0  0  0  0  0  0  0  0  0  0  0
   -1.0721   -3.2977   -1.9053 H   0  0  0  0  0  0  0  0  0  0  0  0
   -1.8017   -0.6681   -3.3281 H   0  0  0  0  0  0  0  0  0  0  0  0
   -0.1601   -1.2849   -3.1045 H   0  0  0  0  0  0  0  0  0  0  0  0
   -1.3074   -2.1646   -4.1319 H   0  0  0  0  0  0  0  0  0  0  0  0
   -0.2835   -1.5112   -0.2725 N   0  0  0  0  0  0  0  0  0  0  0  0
    0.0769   -0.7658    0.9424 C   0  0  0  0  0  0  0  0  0  0  0  0
    1.5590   -0.8869    1.1891 C   0  0  0  0  0  0  0  0  0  0  0  0
    2.0625   -0.8558    2.3089 O   0  0  0  0  0  0  0  0  0  0  0  0
    0.4587   -2.0097   -0.7289 H   0  0  0  0  0  0  0  0  0  0  0  0
   -0.4732   -1.1772    1.7939 H   0  0  0  0  0  0  0  0  0  0  0  0
   -0.1925    0.2864    0.8114 H   0  0  0  0  0  0  0  0  0  0  0  0
    2.2657   -1.0328    0.0001 N   0  0  0  0  0  0  0  0  0  0  0  0
    3.6973   -1.1669   -0.0611 C   0  0  2  0  0  0  0  0  0  0  0  0
    4.0171   -2.4793   -0.7646 C   0  0  0  0  0  0  0  0  0  0  0  0
    3.2245   -3.4167   -0.8282 O   0  0  0  0  0  0  0  0  0  0  0  0
    4.3164   -1.1296    1.3274 C   0  0  0  0  0  0  0  0  0  0  0  0
    1.7422   -1.0454   -0.8737 H   0  0  0  0  0  0  0  0  0  0  0  0
    4.0680   -0.3297   -0.6626 H   0  0  0  0  0  0  0  0  0  0  0  0
    3.9569   -1.9610    1.9447 H   0  0  0  0  0  0  0  0  0  0  0  0
    5.4078   -1.2031    1.2773 H   0  0  0  0  0  0  0  0  0  0  0  0
    4.0606   -0.1978    1.8433 H   0  0  0  0  0  0  0  0  0  0  0  0
    5.3073   -2.4966   -1.2757 N   0  0  0  0  0  0  0  0  0  0  0  0
    5.8530   -3.6354   -1.9767 C   0  0  0  0  0  0  0  0  0  0  0  0
    5.8885   -1.6676   -1.1934 H   0  0  0  0  0  0  0  0  0  0  0  0
    6.3813   -4.2863   -1.2645 H   0  0  0  0  0  0  0  0  0  0  0  0
    5.0366   -4.1988   -2.4522 H   0  0  0  0  0  0  0  0  0  0  0  0
    6.5567   -3.2884   -2.7477 H   0  0  0  0  0  0  0  0  0  0  0  0
  1  3  1  0  0  0  0
  1  7  1  0  0  0  0
  1  2  2  0  0  0  0
 18 19  1  0  0  0  0
 19 24  1  0  0  0  0
 19 20  2  0  0  0  0
 25 26  1  0  0  0  0
 26 34  1  0  0  0  0
 26 27  2  0  0  0  0
  8  9  1  0  0  0  0
  9 17  1  0  0  0  0
  9 10  2  0  0  0  0
 25 28  1  0  0  0  0
  8 11  1  0  0  0  0
 34 35  1  0  0  0  0
 17 18  1  0  0  0  0
 24 25  1  0  0  0  0
  7  8  1  0  0  0  0
  3  4  1  0  0  0  0
  3  5  1  0  0  0  0
  3  6  1  0  0  0  0
 28 31  1  0  0  0  0
 28 32  1  0  0  0  0
 28 33  1  0  0  0  0
 11 14  1  0  0  0  0
 11 15  1  0  0  0  0
 11 16  1  0  0  0  0
 35 37  1  0  0  0  0
 35 38  1  0  0  0  0
 35 39  1  0  0  0  0
 18 22  1  0  0  0  0
 18 23  1  0  0  0  0
 25 30  1  0  0  0  0
  8 13  1  0  0  0  0
 34 36  1  0  0  0  0
 17 21  1  0  0  0  0
  7 12  1  0  0  0  0
 24 29  1  0  0  0  0
M  END
$$$$

  -OEChem-05262214473D

 39 38  0     1  0  0  0  0  0999 V2000
   -3.5200   -4.0268   -1.6943 C   0  0  0  0  0  0  0  0  0  0  0  0
   -2.8702   -4.8827   -1.1054 O   0  0  0  0  0  0  0  0  0  0  0  0
   -4.9704   -4.2579   -1.9614 C   0  0  0  0  0  0  0  0  0  0  0  0
   -5.1456   -4.7573   -2.9278 H   0  0  0  0  0  0  0  0  0  0  0  0
   -5.4379   -4.9112   -1.2072 H   0  0  0  0  0  0  0  0  0  0  0  0
   -5.5954   -3.3510   -1.9864 H   0  0  0  0  0  0  0  0  0  0  0  0
   -3.0424   -2.8131   -2.1606 N   0  0  0  0  0  0  0  0  0  0  0  0
   -1.6755   -2.3891   -2.0077 C   0  0  2  0  0  0  0  0  0  0  0  0
   -1.5782   -1.5673   -0.7292 C   0  0  0  0  0  0  0  0  0  0  0  0
   -2.5448   -1.0064   -0.2171 O   0  0  0  0  0  0  0  0  0  0  0  0
   -1.2087   -1.5823   -3.2094 C   0  0  0  0  0  0  0  0  0  0  0  0
   -3.6915   -2.1888   -2.6360 H   0  0  0  0  0  0  0  0  0  0  0  0
   -1.0721   -3.2977   -1.9053 H   0  0  0  0  0  0  0  0  0  0  0  0
   -1.8017   -0.6681   -3.3281 H   0  0  0  0  0  0  0  0  0  0  0  0
   -0.1601   -1.2849   -3.1045 H   0  0  0  0  0  0  0  0  0  0  0  0
   -1.3074   -2.1646   -4.1319 H   0  0  0  0  0  0  0  0  0  0  0  0
   -0.2835   -1.5112   -0.2725 N   0  0  0  0  0  0  0  0  0  0  0  0
    0.0769   -0.7658    0.9424 C   0  0  0  0  0  0  0  0  0  0  0  0
    1.5590   -0.8869    1.1891 C   0  0  0  0  0  0  0  0  0  0  0  0
    2.0434   -1.1224    2.2929 O   0  0  0  0  0  0  0  0  0  0  0  0
    0.4587   -2.0097   -0.7289 H   0  0  0  0  0  0  0  0  0  0  0  0
   -0.4732   -1.1772    1.7939 H   0  0  0  0  0  0  0  0  0  0  0  0
   -0.1925    0.2864    0.8114 H   0  0  0  0  0  0  0  0  0  0  0  0
    2.2897   -0.6967    0.0210 N   0  0  0  0  0  0  0  0  0  0  0  0
    3.7267   -0.7539   -0.0346 C   0  0  2  0  0  0  0  0  0  0  0  0
    4.1160   -1.8299   -1.0397 C   0  0  0  0  0  0  0  0  0  0  0  0
    3.3675   -2.7508   -1.3602 O   0  0  0  0  0  0  0  0  0  0  0  0
    4.3221   -1.0473    1.3337 C   0  0  0  0  0  0  0  0  0  0  0  0
    1.7808   -0.5069   -0.8408 H   0  0  0  0  0  0  0  0  0  0  0  0
    4.0684    0.2230   -0.3936 H   0  0  0  0  0  0  0  0  0  0  0  0
    3.9910   -2.0222    1.7098 H   0  0  0  0  0  0  0  0  0  0  0  0
    5.4163   -1.0622    1.2953 H   0  0  0  0  0  0  0  0  0  0  0  0
    4.0168   -0.2887    2.0624 H   0  0  0  0  0  0  0  0  0  0  0  0
    5.4134   -1.6651   -1.5043 N   0  0  0  0  0  0  0  0  0  0  0  0
    6.0205   -2.5650   -2.4570 C   0  0  0  0  0  0  0  0  0  0  0  0
    5.9553   -0.8621   -1.1989 H   0  0  0  0  0  0  0  0  0  0  0  0
    6.5666   -3.3545   -1.9199 H   0  0  0  0  0  0  0  0  0  0  0  0
    5.2377   -3.0205   -3.0813 H   0  0  0  0  0  0  0  0  0  0  0  0
    6.7195   -2.0054   -3.0958 H   0  0  0  0  0  0  0  0  0  0  0  0
  1  3  1  0  0  0  0
  1  7  1  0  0  0  0
  1  2  2  0  0  0  0
 18 19  1  0  0  0  0
 19 24  1  0  0  0  0
 19 20  2  0  0  0  0
 25 26  1  0  0  0  0
 26 34  1  0  0  0  0
 26 27  2  0  0  0  0
  8  9  1  0  0  0  0
  9 17  1  0  0  0  0
  9 10  2  0  0  0  0
 25 28  1  0  0  0  0
  8 11  1  0  0  0  0
 34 35  1  0  0  0  0
 17 18  1  0  0  0  0
 24 25  1  0  0  0  0
  7  8  1  0  0  0  0
  3  4  1  0  0  0  0
  3  5  1  0  0  0  0
  3  6  1  0  0  0  0
 28 31  1  0  0  0  0
 28 32  1  0  0  0  0
 28 33  1  0  0  0  0
 11 14  1  0  0  0  0
 11 15  1  0  0  0  0
 11 16  1  0  0  0  0
 35 37  1  0  0  0  0
 35 38  1  0  0  0  0
 35 39  1  0  0  0  0
 18 22  1  0  0  0  0
 18 23  1  0  0  0  0
 25 30  1  0  0  0  0
  8 13  1  0  0  0  0
 34 36  1  0  0  0  0
 17 21  1  0  0  0  0
  7 12  1  0  0  0  0
 24 29  1  0  0  0  0
M  END
$$$$

  -OEChem-05262214473D

 39 38  0     1  0  0  0  0  0999 V2000
   -3.5200   -4.0268   -1.6943 C   0  0  0  0  0  0  0  0  0  0  0  0
   -2.8702   -4.8827   -1.1054 O   0  0  0  0  0  0  0  0  0  0  0  0
   -4.9704   -4.2579   -1.9614 C   0  0  0  0  0  0  0  0  0  0  0  0
   -5.1456   -4.7573   -2.9278 H   0  0  0  0  0  0  0  0  0  0  0  0
   -5.4379   -4.9112   -1.2072 H   0  0  0  0  0  0  0  0  0  0  0  0
   -5.5954   -3.3510   -1.9864 H   0  0  0  0  0  0  0  0  0  0  0  0
   -3.0424   -2.8131   -2.1606 N   0  0  0  0  0  0  0  0  0  0  0  0
   -1.6755   -2.3891   -2.0077 C   0  0  2  0  0  0  0  0  0  0  0  0
   -1.5782   -1.5673   -0.7292 C   0  0  0  0  0  0  0  0  0  0  0  0
   -2.5448   -1.0064   -0.2171 O   0  0  0  0  0  0  0  0  0  0  0  0
   -1.2087   -1.5823   -3.2094 C   0  0  0  0  0  0  0  0  0  0  0  0
   -3.6915   -2.1888   -2.6360 H   0  0  0  0  0  0  0  0  0  0  0  0
   -1.0721   -3.2977   -1.9053 H   0  0  0  0  0  0  0  0  0  0  0  0
   -1.8017   -0.6681   -3.3281 H   0  0  0  0  0  0  0  0  0  0  0  0
   -0.1601   -1.2849   -3.1045 H   0  0  0  0  0  0  0  0  0  0  0  0
   -1.3074   -2.1646   -4.1319 H   0  0  0  0  0  0  0  0  0  0  0  0
   -0.2835   -1.5112   -0.2725 N   0  0  0  0  0  0  0  0  0  0  0  0
    0.0769   -0.7658    0.9424 C   0  0  0  0  0  0  0  0  0  0  0  0
    1.5590   -0.8869    1.1891 C   0  0  0  0  0  0  0  0  0  0  0  0
    2.0365   -1.3766    2.2092 O   0  0  0  0  0  0  0  0  0  0  0  0
    0.4587   -2.0097   -0.7289 H   0  0  0  0  0  0  0  0  0  0  0  0
   -0.4732   -1.1772    1.7939 H   0  0  0  0  0  0  0  0  0  0  0  0
   -0.1925    0.2864    0.8114 H   0  0  0  0  0  0  0  0  0  0  0  0
    2.2982   -0.3764    0.1273 N   0  0  0  0  0  0  0  0  0  0  0  0
    3.7370   -0.3605    0.0968 C   0  0  2  0  0  0  0  0  0  0  0  0
    4.1897   -1.1284   -1.1381 C   0  0  0  0  0  0  0  0  0  0  0  0
    3.4884   -1.9661   -1.7016 O   0  0  0  0  0  0  0  0  0  0  0  0
    4.3240   -0.9692    1.3608 C   0  0  0  0  0  0  0  0  0  0  0  0
    1.7945    0.0065   -0.6711 H   0  0  0  0  0  0  0  0  0  0  0  0
    4.0399    0.6884    0.0068 H   0  0  0  0  0  0  0  0  0  0  0  0
    4.0314   -2.0201    1.4681 H   0  0  0  0  0  0  0  0  0  0  0  0
    5.4182   -0.9304    1.3486 H   0  0  0  0  0  0  0  0  0  0  0  0
    3.9736   -0.4341    2.2500 H   0  0  0  0  0  0  0  0  0  0  0  0
    5.4853   -0.7993   -1.5113 N   0  0  0  0  0  0  0  0  0  0  0  0
    6.1469   -1.4018   -2.6451 C   0  0  0  0  0  0  0  0  0  0  0  0
    5.9858   -0.0799   -0.9978 H   0  0  0  0  0  0  0  0  0  0  0  0
    6.7197   -2.2799   -2.3120 H   0  0  0  0  0  0  0  0  0  0  0  0
    5.3950   -1.7137   -3.3850 H   0  0  0  0  0  0  0  0  0  0  0  0
    6.8297   -0.6705   -3.1022 H   0  0  0  0  0  0  0  0  0  0  0  0
  1  3  1  0  0  0  0
  1  7  1  0  0  0  0
  1  2  2  0  0  0  0
 18 19  1  0  0  0  0
 19 24  1  0  0  0  0
 19 20  2  0  0  0  0
 25 26  1  0  0  0  0
 26 34  1  0  0  0  0
 26 27  2  0  0  0  0
  8  9  1  0  0  0  0
  9 17  1  0  0  0  0
  9 10  2  0  0  0  0
 25 28  1  0  0  0  0
  8 11  1  0  0  0  0
 34 35  1  0  0  0  0
 17 18  1  0  0  0  0
 24 25  1  0  0  0  0
  7  8  1  0  0  0  0
  3  4  1  0  0  0  0
  3  5  1  0  0  0  0
  3  6  1  0  0  0  0
 28 31  1  0  0  0  0
 28 32  1  0  0  0  0
 28 33  1  0  0  0  0
 11 14  1  0  0  0  0
 11 15  1  0  0  0  0
 11 16  1  0  0  0  0
 35 37  1  0  0  0  0
 35 38  1  0  0  0  0
 35 39  1  0  0  0  0
 18 22  1  0  0  0  0
 18 23  1  0  0  0  0
 25 30  1  0  0  0  0
  8 13  1  0  0  0  0
 34 36  1  0  0  0  0
 17 21  1  0  0  0  0
  7 12  1  0  0  0  0
 24 29  1  0  0  0  0
M  END
$$$$

  -OEChem-05262214473D

 39 38  0     1  0  0  0  0  0999 V2000
   -3.5200   -4.0268   -1.6943 C   0  0  0  0  0  0  0  0  0  0  0  0
   -2.8702   -4.8827   -1.1054 O   0  0  0  0  0  0  0  0  0  0  0  0
   -4.9704   -4.2579   -1.9614 C   0  0  0  0  0  0  0  0  0  0  0  0
   -5.1456   -4.7573   -2.9278 H   0  0  0  0  0  0  0  0  0  0  0  0
   -5.4379   -4.9112   -1.2072 H   0  0  0  0  0  0  0  0  0  0  0  0
   -5.5954   -3.3510   -1.9864 H   0  0  0  0  0  0  0  0  0  0  0  0
   -3.0424   -2.8131   -2.1606 N   0  0  0  0  0  0  0  0  0  0  0  0
   -1.6755   -2.3891   -2.0077 C   0  0  2  0  0  0  0  0  0  0  0  0
   -1.5782   -1.5673   -0.7292 C   0  0  0  0  0  0  0  0  0  0  0  0
   -2.5448   -1.0064   -0.2171 O   0  0  0  0  0  0  0  0  0  0  0  0
   -1.2087   -1.5823   -3.2094 C   0  0  0  0  0  0  0  0  0  0  0  0
   -3.6915   -2.1888   -2.6360 H   0  0  0  0  0  0  0  0  0  0  0  0
   -1.0721   -3.2977   -1.9053 H   0  0  0  0  0  0  0  0  0  0  0  0
   -1.8017   -0.6681   -3.3281 H   0  0  0  0  0  0  0  0  0  0  0  0
   -0.1601   -1.2849   -3.1045 H   0  0  0  0  0  0  0  0  0  0  0  0
   -1.3074   -2.1646   -4.1319 H   0  0  0  0  0  0  0  0  0  0  0  0
   -0.2835   -1.5112   -0.2725 N   0  0  0  0  0  0  0  0  0  0  0  0
    0.0769   -0.7658    0.9424 C   0  0  0  0  0  0  0  0  0  0  0  0
    1.5590   -0.8869    1.1891 C   0  0  0  0  0  0  0  0  0  0  0  0
    2.0424   -1.6011    2.0635 O   0  0  0  0  0  0  0  0  0  0  0  0
    0.4587   -2.0097   -0.7289 H   0  0  0  0  0  0  0  0  0  0  0  0
   -0.4732   -1.1772    1.7939 H   0  0  0  0  0  0  0  0  0  0  0  0
   -0.1925    0.2864    0.8114 H   0  0  0  0  0  0  0  0  0  0  0  0
    2.2906   -0.0937    0.3116 N   0  0  0  0  0  0  0  0  0  0  0  0
    3.7276   -0.0135    0.3240 C   0  0  2  0  0  0  0  0  0  0  0  0
    4.2333   -0.4226   -1.0531 C   0  0  0  0  0  0  0  0  0  0  0  0
    3.5792   -1.1161   -1.8292 O   0  0  0  0  0  0  0  0  0  0  0  0
    4.3219   -0.9005    1.4069 C   0  0  0  0  0  0  0  0  0  0  0  0
    1.7825    0.4598   -0.3762 H   0  0  0  0  0  0  0  0  0  0  0  0
    3.9842    1.0348    0.5114 H   0  0  0  0  0  0  0  0  0  0  0  0
    4.0753   -1.9548    1.2360 H   0  0  0  0  0  0  0  0  0  0  0  0
    5.4134   -0.8166    1.4338 H   0  0  0  0  0  0  0  0  0  0  0  0
    3.9342   -0.6242    2.3934 H   0  0  0  0  0  0  0  0  0  0  0  0
    5.5183    0.0418   -1.2963 N   0  0  0  0  0  0  0  0  0  0  0  0
    6.2236   -0.2250   -2.5281 C   0  0  0  0  0  0  0  0  0  0  0  0
    5.9780    0.6258   -0.6039 H   0  0  0  0  0  0  0  0  0  0  0  0
    6.8302   -1.1355   -2.4141 H   0  0  0  0  0  0  0  0  0  0  0  0
    5.4980   -0.3676   -3.3425 H   0  0  0  0  0  0  0  0  0  0  0  0
    6.8798    0.6251   -2.7663 H   0  0  0  0  0  0  0  0  0  0  0  0
  1  3  1  0  0  0  0
  1  7  1  0  0  0  0
  1  2  2  0  0  0  0
 18 19  1  0  0  0  0
 19 24  1  0  0  0  0
 19 20  2  0  0  0  0
 25 26  1  0  0  0  0
 26 34  1  0  0  0  0
 26 27  2  0  0  0  0
  8  9  1  0  0  0  0
  9 17  1  0  0  0  0
  9 10  2  0  0  0  0
 25 28  1  0  0  0  0
  8 11  1  0  0  0  0
 34 35  1  0  0  0  0
 17 18  1  0  0  0  0
 24 25  1  0  0  0  0
  7  8  1  0  0  0  0
  3  4  1  0  0  0  0
  3  5  1  0  0  0  0
  3  6  1  0  0  0  0
 28 31  1  0  0  0  0
 28 32  1  0  0  0  0
 28 33  1  0  0  0  0
 11 14  1  0  0  0  0
 11 15  1  0  0  0  0
 11 16  1  0  0  0  0
 35 37  1  0  0  0  0
 35 38  1  0  0  0  0
 35 39  1  0  0  0  0
 18 22  1  0  0  0  0
 18 23  1  0  0  0  0
 25 30  1  0  0  0  0
  8 13  1  0  0  0  0
 34 36  1  0  0  0  0
 17 21  1  0  0  0  0
  7 12  1  0  0  0  0
 24 29  1  0  0  0  0
M  END
$$$$

  -OEChem-05262214473D

 39 38  0     1  0  0  0  0  0999 V2000
   -3.5200   -4.0268   -1.6943 C   0  0  0  0  0  0  0  0  0  0  0  0
   -2.8702   -4.8827   -1.1054 O   0  0  0  0  0  0  0  0  0  0  0  0
   -4.9704   -4.2579   -1.9614 C   0  0  0  0  0  0  0  0  0  0  0  0
   -5.1456   -4.7573   -2.9278 H   0  0  0  0  0  0  0  0  0  0  0  0
   -5.4379   -4.9112   -1.2072 H   0  0  0  0  0  0  0  0  0  0  0  0
   -5.5954   -3.3510   -1.9864 H   0  0  0  0  0  0  0  0  0  0  0  0
   -3.0424   -2.8131   -2.1606 N   0  0  0  0  0  0  0  0  0  0  0  0
   -1.6755   -2.3891   -2.0077 C   0  0  2  0  0  0  0  0  0  0  0  0
   -1.5782   -1.5673   -0.7292 C   0  0  0  0  0  0  0  0  0  0  0  0
   -2.5448   -1.0064   -0.2171 O   0  0  0  0  0  0  0  0  0  0  0  0
   -1.2087   -1.5823   -3.2094 C   0  0  0  0  0  0  0  0  0  0  0  0
   -3.6915   -2.1888   -2.6360 H   0  0  0  0  0  0  0  0  0  0  0  0
   -1.0721   -3.2977   -1.9053 H   0  0  0  0  0  0  0  0  0  0  0  0
   -1.8017   -0.6681   -3.3281 H   0  0  0  0  0  0  0  0  0  0  0  0
   -0.1601   -1.2849   -3.1045 H   0  0  0  0  0  0  0  0  0  0  0  0
   -1.3074   -2.1646   -4.1319 H   0  0  0  0  0  0  0  0  0  0  0  0
   -0.2835   -1.5112   -0.2725 N   0  0  0  0  0  0  0  0  0  0  0  0
    0.0769   -0.7658    0.9424 C   0  0  0  0  0  0  0  0  0  0  0  0
    1.5590   -0.8869    1.1891 C   0  0  0  0  0  0  0  0  0  0  0  0
    2.0606   -1.7807    1.8658 O   0  0  0  0  0  0  0  0  0  0  0  0
    0.4587   -2.0097   -0.7289 H   0  0  0  0  0  0  0  0  0  0  0  0
   -0.4732   -1.1772    1.7939 H   0  0  0  0  0  0  0  0  0  0  0  0
   -0.1925    0.2864    0.8114 H   0  0  0  0  0  0  0  0  0  0  0  0
    2.2675    0.1321    0.5615 N   0  0  0  0  0  0  0  0  0  0  0  0
    3.6990    0.2634    0.6316 C   0  0  2  0  0  0  0  0  0  0  0  0
    4.2437    0.2393   -0.7905 C   0  0  0  0  0  0  0  0  0  0  0  0
    3.6335   -0.2588   -1.7342 O   0  0  0  0  0  0  0  0  0  0  0  0
    4.3161   -0.8460    1.4688 C   0  0  0  0  0  0  0  0  0  0  0  0
    1.7456    0.8221    0.0237 H   0  0  0  0  0  0  0  0  0  0  0  0
    3.9053    1.2387    1.0858 H   0  0  0  0  0  0  0  0  0  0  0  0
    4.1199   -1.8308    1.0293 H   0  0  0  0  0  0  0  0  0  0  0  0
    5.4021   -0.7285    1.5448 H   0  0  0  0  0  0  0  0  0  0  0  0
    3.9013   -0.8459    2.4826 H   0  0  0  0  0  0  0  0  0  0  0  0
    5.5101    0.8010   -0.8739 N   0  0  0  0  0  0  0  0  0  0  0  0
    6.2455    0.8852   -2.1141 C   0  0  0  0  0  0  0  0  0  0  0  0
    5.9323    1.2070   -0.0440 H   0  0  0  0  0  0  0  0  0  0  0  0
    6.8907    0.0005   -2.2192 H   0  0  0  0  0  0  0  0  0  0  0  0
    5.5396    0.9263   -2.9567 H   0  0  0  0  0  0  0  0  0  0  0  0
    6.8663    1.7933   -2.1111 H   0  0  0  0  0  0  0  0  0  0  0  0
  1  3  1  0  0  0  0
  1  7  1  0  0  0  0
  1  2  2  0  0  0  0
 18 19  1  0  0  0  0
 19 24  1  0  0  0  0
 19 20  2  0  0  0  0
 25 26  1  0  0  0  0
 26 34  1  0  0  0  0
 26 27  2  0  0  0  0
  8  9  1  0  0  0  0
  9 17  1  0  0  0  0
  9 10  2  0  0  0  0
 25 28  1  0  0  0  0
  8 11  1  0  0  0  0
 34 35  1  0  0  0  0
 17 18  1  0  0  0  0
 24 25  1  0  0  0  0
  7  8  1  0  0  0  0
  3  4  1  0  0  0  0
  3  5  1  0  0  0  0
  3  6  1  0  0  0  0
 28 31  1  0  0  0  0
 28 32  1  0  0  0  0
 28 33  1  0  0  0  0
 11 14  1  0  0  0  0
 11 15  1  0  0  0  0
 11 16  1  0  0  0  0
 35 37  1  0  0  0  0
 35 38  1  0  0  0  0
 35 39  1  0  0  0  0
 18 22  1  0  0  0  0
 18 23  1  0  0  0  0
 25 30  1  0  0  0  0
  8 13  1  0  0  0  0
 34 36  1  0  0  0  0
 17 21  1  0  0  0  0
  7 12  1  0  0  0  0
 24 29  1  0  0  0  0
M  END
$$$$

  -OEChem-05262214473D

 39 38  0     1  0  0  0  0  0999 V2000
   -3.5200   -4.0268   -1.6943 C   0  0  0  0  0  0  0  0  0  0  0  0
   -2.8702   -4.8827   -1.1054 O   0  0  0  0  0  0  0  0  0  0  0  0
   -4.9704   -4.2579   -1.9614 C   0  0  0  0  0  0  0  0  0  0  0  0
   -5.1456   -4.7573   -2.9278 H   0  0  0  0  0  0  0  0  0  0  0  0
   -5.4379   -4.9112   -1.2072 H   0  0  0  0  0  0  0  0  0  0  0  0
   -5.5954   -3.3510   -1.9864 H   0  0  0  0  0  0  0  0  0  0  0  0
   -3.0424   -2.8131   -2.1606 N   0  0  0  0  0  0  0  0  0  0  0  0
   -1.6755   -2.3891   -2.0077 C   0  0  2  0  0  0  0  0  0  0  0  0
   -1.5782   -1.5673   -0.7292 C   0  0  0  0  0  0  0  0  0  0  0  0
   -2.5448   -1.0064   -0.2171 O   0  0  0  0  0  0  0  0  0  0  0  0
   -1.2087   -1.5823   -3.2094 C   0  0  0  0  0  0  0  0  0  0  0  0
   -3.6915   -2.1888   -2.6360 H   0  0  0  0  0  0  0  0  0  0  0  0
   -1.0721   -3.2977   -1.9053 H   0  0  0  0  0  0  0  0  0  0  0  0
   -1.8017   -0.6681   -3.3281 H   0  0  0  0  0  0  0  0  0  0  0  0
   -0.1601   -1.2849   -3.1045 H   0  0  0  0  0  0  0  0  0  0  0  0
   -1.3074   -2.1646   -4.1319 H   0  0  0  0  0  0  0  0  0  0  0  0
   -0.2835   -1.5112   -0.2725 N   0  0  0  0  0  0  0  0  0  0  0  0
    0.0769   -0.7658    0.9424 C   0  0  0  0  0  0  0  0  0  0  0  0
    1.5590   -0.8869    1.1891 C   0  0  0  0  0  0  0  0  0  0  0  0
    2.0899   -1.9031    1.6295 O   0  0  0  0  0  0  0  0  0  0  0  0
    0.4587   -2.0097   -0.7289 H   0  0  0  0  0  0  0  0  0  0  0  0
   -0.4732   -1.1772    1.7939 H   0  0  0  0  0  0  0  0  0  0  0  0
   -0.1925    0.2864    0.8114 H   0  0  0  0  0  0  0  0  0  0  0  0
    2.2304    0.2857    0.8598 N   0  0  0  0  0  0  0  0  0  0  0  0
    3.6533    0.4515    0.9985 C   0  0  2  0  0  0  0  0  0  0  0  0
    4.2203    0.8123   -0.3681 C   0  0  0  0  0  0  0  0  0  0  0  0
    3.6476    0.5474   -1.4231 O   0  0  0  0  0  0  0  0  0  0  0  0
    4.3068   -0.8094    1.5424 C   0  0  0  0  0  0  0  0  0  0  0  0
    1.6863    1.0688    0.5014 H   0  0  0  0  0  0  0  0  0  0  0  0
    3.8085    1.2861    1.6909 H   0  0  0  0  0  0  0  0  0  0  0  0
    4.1619   -1.6566    0.8622 H   0  0  0  0  0  0  0  0  0  0  0  0
    5.3852   -0.6722    1.6743 H   0  0  0  0  0  0  0  0  0  0  0  0
    3.8769   -1.0842    2.5117 H   0  0  0  0  0  0  0  0  0  0  0  0
    5.4612    1.4264   -0.2728 N   0  0  0  0  0  0  0  0  0  0  0  0
    6.2110    1.8531   -1.4311 C   0  0  0  0  0  0  0  0  0  0  0  0
    5.8519    1.6238    0.6438 H   0  0  0  0  0  0  0  0  0  0  0  0
    6.8969    1.0507   -1.7406 H   0  0  0  0  0  0  0  0  0  0  0  0
    5.5170    2.0796   -2.2539 H   0  0  0  0  0  0  0  0  0  0  0  0
    6.7901    2.7543   -1.1813 H   0  0  0  0  0  0  0  0  0  0  0  0
  1  3  1  0  0  0  0
  1  7  1  0  0  0  0
  1  2  2  0  0  0  0
 18 19  1  0  0  0  0
 19 24  1  0  0  0  0
 19 20  2  0  0  0  0
 25 26  1  0  0  0  0
 26 34  1  0  0  0  0
 26 27  2  0  0  0  0
  8  9  1  0  0  0  0
  9 17  1  0  0  0  0
  9 10  2  0  0  0  0
 25 28  1  0  0  0  0
  8 11  1  0  0  0  0
 34 35  1  0  0  0  0
 17 18  1  0  0  0  0
 24 25  1  0  0  0  0
  7  8  1  0  0  0  0
  3  4  1  0  0  0  0
  3  5  1  0  0  0  0
  3  6  1  0  0  0  0
 28 31  1  0  0  0  0
 28 32  1  0  0  0  0
 28 33  1  0  0  0  0
 11 14  1  0  0  0  0
 11 15  1  0  0  0  0
 11 16  1  0  0  0  0
 35 37  1  0  0  0  0
 35 38  1  0  0  0  0
 35 39  1  0  0  0  0
 18 22  1  0  0  0  0
 18 23  1  0  0  0  0
 25 30  1  0  0  0  0
  8 13  1  0  0  0  0
 34 36  1  0  0  0  0
 17 21  1  0  0  0  0
  7 12  1  0  0  0  0
 24 29  1  0  0  0  0
M  END
$$$$

  -OEChem-05262214473D

 39 38  0     1  0  0  0  0  0999 V2000
   -3.5200   -4.0268   -1.6943 C   0  0  0  0  0  0  0  0  0  0  0  0
   -2.8702   -4.8827   -1.1054 O   0  0  0  0  0  0  0  0  0  0  0  0
   -4.9704   -4.2579   -1.9614 C   0  0  0  0  0  0  0  0  0  0  0  0
   -5.1456   -4.7573   -2.9278 H   0  0  0  0  0  0  0  0  0  0  0  0
   -5.4379   -4.9112   -1.2072 H   0  0  0  0  0  0  0  0  0  0  0  0
   -5.5954   -3.3510   -1.9864 H   0  0  0  0  0  0  0  0  0  0  0  0
   -3.0424   -2.8131   -2.1606 N   0  0  0  0  0  0  0  0  0  0  0  0
   -1.6755   -2.3891   -2.0077 C   0  0  2  0  0  0  0  0  0  0  0  0
   -1.5782   -1.5673   -0.7292 C   0  0  0  0  0  0  0  0  0  0  0  0
   -2.5448   -1.0064   -0.2171 O   0  0  0  0  0  0  0  0  0  0  0  0
   -1.2087   -1.5823   -3.2094 C   0  0  0  0  0  0  0  0  0  0  0  0
   -3.6915   -2.1888   -2.6360 H   0  0  0  0  0  0  0  0  0  0  0  0
   -1.0721   -3.2977   -1.9053 H   0  0  0  0  0  0  0  0  0  0  0  0
   -1.8017   -0.6681   -3.3281 H   0  0  0  0  0  0  0  0  0  0  0  0
   -0.1601   -1.2849   -3.1045 H   0  0  0  0  0  0  0  0  0  0  0  0
   -1.3074   -2.1646   -4.1319 H   0  0  0  0  0  0  0  0  0  0  0  0
   -0.2835   -1.5112   -0.2725 N   0  0  0  0  0  0  0  0  0  0  0  0
    0.0769   -0.7658    0.9424 C   0  0  0  0  0  0  0  0  0  0  0  0
    1.5590   -0.8869    1.1891 C   0  0  0  0  0  0  0  0  0  0  0  0
    2.1283   -1.9599    1.3707 O   0  0  0  0  0  0  0  0  0  0  0  0
    0.4587   -2.0097   -0.7289 H   0  0  0  0  0  0  0  0  0  0  0  0
   -0.4732   -1.1772    1.7939 H   0  0  0  0  0  0  0  0  0  0  0  0
   -0.1925    0.2864    0.8114 H   0  0  0  0  0  0  0  0  0  0  0  0
    2.1819    0.3566    1.1862 N   0  0  0  0  0  0  0  0  0  0  0  0
    3.5936    0.5378    1.3999 C   0  0  2  0  0  0  0  0  0  0  0  0
    4.1646    1.2573    0.1851 C   0  0  0  0  0  0  0  0  0  0  0  0
    3.6207    1.2476   -0.9172 O   0  0  0  0  0  0  0  0  0  0  0  0
    4.2948   -0.7932    1.6226 C   0  0  0  0  0  0  0  0  0  0  0  0
    1.6086    1.1829    1.0244 H   0  0  0  0  0  0  0  0  0  0  0  0
    3.7004    1.1738    2.2854 H   0  0  0  0  0  0  0  0  0  0  0  0
    4.1986   -1.4440    0.7459 H   0  0  0  0  0  0  0  0  0  0  0  0
    5.3637   -0.6514    1.8134 H   0  0  0  0  0  0  0  0  0  0  0  0
    3.8629   -1.3228    2.4787 H   0  0  0  0  0  0  0  0  0  0  0  0
    5.3750    1.8755    0.4659 N   0  0  0  0  0  0  0  0  0  0  0  0
    6.1225    2.6128   -0.5259 C   0  0  0  0  0  0  0  0  0  0  0  0
    5.7423    1.8481    1.4125 H   0  0  0  0  0  0  0  0  0  0  0  0
    6.8485    1.9437   -1.0108 H   0  0  0  0  0  0  0  0  0  0  0  0
    5.4316    3.0139   -1.2821 H   0  0  0  0  0  0  0  0  0  0  0  0
    6.6565    3.4428   -0.0402 H   0  0  0  0  0  0  0  0  0  0  0  0
  1  3  1  0  0  0  0
  1  7  1  0  0  0  0
  1  2  2  0  0  0  0
 18 19  1  0  0  0  0
 19 24  1  0  0  0  0
 19 20  2  0  0  0  0
 25 26  1  0  0  0  0
 26 34  1  0  0  0  0
 26 27  2  0  0  0  0
  8  9  1  0  0  0  0
  9 17  1  0  0  0  0
  9 10  2  0  0  0  0
 25 28  1  0  0  0  0
  8 11  1  0  0  0  0
 34 35  1  0  0  0  0
 17 18  1  0  0  0  0
 24 25  1  0  0  0  0
  7  8  1  0  0  0  0
  3  4  1  0  0  0  0
  3  5  1  0  0  0  0
  3  6  1  0  0  0  0
 28 31  1  0  0  0  0
 28 32  1  0  0  0  0
 28 33  1  0  0  0  0
 11 14  1  0  0  0  0
 11 15  1  0  0  0  0
 11 16  1  0  0  0  0
 35 37  1  0  0  0  0
 35 38  1  0  0  0  0
 35 39  1  0  0  0  0
 18 22  1  0  0  0  0
 18 23  1  0  0  0  0
 25 30  1  0  0  0  0
  8 13  1  0  0  0  0
 34 36  1  0  0  0  0
 17 21  1  0  0  0  0
  7 12  1  0  0  0  0
 24 29  1  0  0  0  0
M  END
$$$$

  -OEChem-05262214473D

 39 38  0     1  0  0  0  0  0999 V2000
   -3.5200   -4.0268   -1.6943 C   0  0  0  0  0  0  0  0  0  0  0  0
   -2.8702   -4.8827   -1.1054 O   0  0  0  0  0  0  0  0  0  0  0  0
   -4.9704   -4.2579   -1.9614 C   0  0  0  0  0  0  0  0  0  0  0  0
   -5.1456   -4.7573   -2.9278 H   0  0  0  0  0  0  0  0  0  0  0  0
   -5.4379   -4.9112   -1.2072 H   0  0  0  0  0  0  0  0  0  0  0  0
   -5.5954   -3.3510   -1.9864 H   0  0  0  0  0  0  0  0  0  0  0  0
   -3.0424   -2.8131   -2.1606 N   0  0  0  0  0  0  0  0  0  0  0  0
   -1.6755   -2.3891   -2.0077 C   0  0  2  0  0  0  0  0  0  0  0  0
   -1.5782   -1.5673   -0.7292 C   0  0  0  0  0  0  0  0  0  0  0  0
   -2.5448   -1.0064   -0.2171 O   0  0  0  0  0  0  0  0  0  0  0  0
   -1.2087   -1.5823   -3.2094 C   0  0  0  0  0  0  0  0  0  0  0  0
   -3.6915   -2.1888   -2.6360 H   0  0  0  0  0  0  0  0  0  0  0  0
   -1.0721   -3.2977   -1.9053 H   0  0  0  0  0  0  0  0  0  0  0  0
   -1.8017   -0.6681   -3.3281 H   0  0  0  0  0  0  0  0  0  0  0  0
   -0.1601   -1.2849   -3.1045 H   0  0  0  0  0  0  0  0  0  0  0  0
   -1.3074   -2.1646   -4.1319 H   0  0  0  0  0  0  0  0  0  0  0  0
   -0.2835   -1.5112   -0.2725 N   0  0  0  0  0  0  0  0  0  0  0  0
    0.0769   -0.7658    0.9424 C   0  0  0  0  0  0  0  0  0  0  0  0
    1.5590   -0.8869    1.1891 C   0  0  0  0  0  0  0  0  0  0  0  0
    2.1732   -1.9473    1.1071 O   0  0  0  0  0  0  0  0  0  0  0  0
    0.4587   -2.0097   -0.7289 H   0  0  0  0  0  0  0  0  0  0  0  0
   -0.4732   -1.1772    1.7939 H   0  0  0  0  0  0  0  0  0  0  0  0
   -0.1925    0.2864    0.8114 H   0  0  0  0  0  0  0  0  0  0  0  0
    2.1252    0.3399    1.5186 N   0  0  0  0  0  0  0  0  0  0  0  0
    3.5239    0.5165    1.8083 C   0  0  2  0  0  0  0  0  0  0  0  0
    4.0804    1.5440    0.8316 C   0  0  0  0  0  0  0  0  0  0  0  0
    3.5545    1.7941   -0.2509 O   0  0  0  0  0  0  0  0  0  0  0  0
    4.2808   -0.7984    1.7040 C   0  0  0  0  0  0  0  0  0  0  0  0
    1.5178    1.1568    1.5569 H   0  0  0  0  0  0  0  0  0  0  0  0
    3.5883    0.9095    2.8289 H   0  0  0  0  0  0  0  0  0  0  0  0
    4.2275   -1.2075    0.6885 H   0  0  0  0  0  0  0  0  0  0  0  0
    5.3392   -0.6677    1.9525 H   0  0  0  0  0  0  0  0  0  0  0  0
    3.8602   -1.5454    2.3858 H   0  0  0  0  0  0  0  0  0  0  0  0
    5.2573    2.1177    1.2920 N   0  0  0  0  0  0  0  0  0  0  0  0
    5.9860    3.1125    0.5400 C   0  0  0  0  0  0  0  0  0  0  0  0
    5.6110    1.8644    2.2099 H   0  0  0  0  0  0  0  0  0  0  0  0
    6.7487    2.6184   -0.0798 H   0  0  0  0  0  0  0  0  0  0  0  0
    5.2894    3.6654   -0.1074 H   0  0  0  0  0  0  0  0  0  0  0  0
    6.4746    3.8117    1.2345 H   0  0  0  0  0  0  0  0  0  0  0  0
  1  3  1  0  0  0  0
  1  7  1  0  0  0  0
  1  2  2  0  0  0  0
 18 19  1  0  0  0  0
 19 24  1  0  0  0  0
 19 20  2  0  0  0  0
 25 26  1  0  0  0  0
 26 34  1  0  0  0  0
 26 27  2  0  0  0  0
  8  9  1  0  0  0  0
  9 17  1  0  0  0  0
  9 10  2  0  0  0  0
 25 28  1  0  0  0  0
  8 11  1  0  0  0  0
 34 35  1  0  0  0  0
 17 18  1  0  0  0  0
 24 25  1  0  0  0  0
  7  8  1  0  0  0  0
  3  4  1  0  0  0  0
  3  5  1  0  0  0  0
  3  6  1  0  0  0  0
 28 31  1  0  0  0  0
 28 32  1  0  0  0  0
 28 33  1  0  0  0  0
 11 14  1  0  0  0  0
 11 15  1  0  0  0  0
 11 16  1  0  0  0  0
 35 37  1  0  0  0  0
 35 38  1  0  0  0  0
 35 39  1  0  0  0  0
 18 22  1  0  0  0  0
 18 23  1  0  0  0  0
 25 30  1  0  0  0  0
  8 13  1  0  0  0  0
 34 36  1  0  0  0  0
 17 21  1  0  0  0  0
  7 12  1  0  0  0  0
 24 29  1  0  0  0  0
M  END
$$$$

  -OEChem-05262214473D

 39 38  0     1  0  0  0  0  0999 V2000
   -3.5200   -4.0268   -1.6943 C   0  0  0  0  0  0  0  0  0  0  0  0
   -2.8702   -4.8827   -1.1054 O   0  0  0  0  0  0  0  0  0  0  0  0
   -4.9704   -4.2579   -1.9614 C   0  0  0  0  0  0  0  0  0  0  0  0
   -5.1456   -4.7573   -2.9278 H   0  0  0  0  0  0  0  0  0  0  0  0
   -5.4379   -4.9112   -1.2072 H   0  0  0  0  0  0  0  0  0  0  0  0
   -5.5954   -3.3510   -1.9864 H   0  0  0  0  0  0  0  0  0  0  0  0
   -3.0424   -2.8131   -2.1606 N   0  0  0  0  0  0  0  0  0  0  0  0
   -1.6755   -2.3891   -2.0077 C   0  0  2  0  0  0  0  0  0  0  0  0
   -1.5782   -1.5673   -0.7292 C   0  0  0  0  0  0  0  0  0  0  0  0
   -2.5448   -1.0064   -0.2171 O   0  0  0  0  0  0  0  0  0  0  0  0
   -1.2087   -1.5823   -3.2094 C   0  0  0  0  0  0  0  0  0  0  0  0
   -3.6915   -2.1888   -2.6360 H   0  0  0  0  0  0  0  0  0  0  0  0
   -1.0721   -3.2977   -1.9053 H   0  0  0  0  0  0  0  0  0  0  0  0
   -1.8017   -0.6681   -3.3281 H   0  0  0  0  0  0  0  0  0  0  0  0
   -0.1601   -1.2849   -3.1045 H   0  0  0  0  0  0  0  0  0  0  0  0
   -1.3074   -2.1646   -4.1319 H   0  0  0  0  0  0  0  0  0  0  0  0
   -0.2835   -1.5112   -0.2725 N   0  0  0  0  0  0  0  0  0  0  0  0
    0.0769   -0.7658    0.9424 C   0  0  0  0  0  0  0  0  0  0  0  0
    1.5590   -0.8869    1.1891 C   0  0  0  0  0  0  0  0  0  0  0  0
    2.2216   -1.8662    0.8566 O   0  0  0  0  0  0  0  0  0  0  0  0
    0.4587   -2.0097   -0.7289 H   0  0  0  0  0  0  0  0  0  0  0  0
   -0.4732   -1.1772    1.7939 H   0  0  0  0  0  0  0  0  0  0  0  0
   -0.1925    0.2864    0.8114 H   0  0  0  0  0  0  0  0  0  0  0  0
    2.0643    0.2368    1.8342 N   0  0  0  0  0  0  0  0  0  0  0  0
    3.4490    0.3890    2.1960 C   0  0  2  0  0  0  0  0  0  0  0  0
    3.9736    1.6528    1.5273 C   0  0  0  0  0  0  0  0  0  0  0  0
    3.4535    2.1495    0.5304 O   0  0  0  0  0  0  0  0  0  0  0  0
    4.2659   -0.8247    1.7810 C   0  0  0  0  0  0  0  0  0  0  0  0
    1.4202    0.9922    2.0628 H   0  0  0  0  0  0  0  0  0  0  0  0
    3.4800    0.5111    3.2842 H   0  0  0  0  0  0  0  0  0  0  0  0
    4.2466   -0.9632    0.6938 H   0  0  0  0  0  0  0  0  0  0  0  0
    5.3134   -0.7198    2.0823 H   0  0  0  0  0  0  0  0  0  0  0  0
    3.8689   -1.7369    2.2393 H   0  0  0  0  0  0  0  0  0  0  0  0
    5.1162    2.1364    2.1491 N   0  0  0  0  0  0  0  0  0  0  0  0
    5.8107    3.3181    1.6939 C   0  0  0  0  0  0  0  0  0  0  0  0
    5.4668    1.6717    2.9815 H   0  0  0  0  0  0  0  0  0  0  0  0
    6.6044    3.0290    0.9892 H   0  0  0  0  0  0  0  0  0  0  0  0
    5.1000    3.9897    1.1901 H   0  0  0  0  0  0  0  0  0  0  0  0
    6.2567    3.8360    2.5558 H   0  0  0  0  0  0  0  0  0  0  0  0
  1  3  1  0  0  0  0
  1  7  1  0  0  0  0
  1  2  2  0  0  0  0
 18 19  1  0  0  0  0
 19 24  1  0  0  0  0
 19 20  2  0  0  0  0
 25 26  1  0  0  0  0
 26 34  1  0  0  0  0
 26 27  2  0  0  0  0
  8  9  1  0  0  0  0
  9 17  1  0  0  0  0
  9 10  2  0  0  0  0
 25 28  1  0  0  0  0
  8 11  1  0  0  0  0
 34 35  1  0  0  0  0
 17 18  1  0  0  0  0
 24 25  1  0  0  0  0
  7  8  1  0  0  0  0
  3  4  1  0  0  0  0
  3  5  1  0  0  0  0
  3  6  1  0  0  0  0
 28 31  1  0  0  0  0
 28 32  1  0  0  0  0
 28 33  1  0  0  0  0
 11 14  1  0  0  0  0
 11 15  1  0  0  0  0
 11 16  1  0  0  0  0
 35 37  1  0  0  0  0
 35 38  1  0  0  0  0
 35 39  1  0  0  0  0
 18 22  1  0  0  0  0
 18 23  1  0  0  0  0
 25 30  1  0  0  0  0
  8 13  1  0  0  0  0
 34 36  1  0  0  0  0
 17 21  1  0  0  0  0
  7 12  1  0  0  0  0
 24 29  1  0  0  0  0
M  END
$$$$

  -OEChem-05262214473D

 39 38  0     1  0  0  0  0  0999 V2000
   -3.5200   -4.0268   -1.6943 C   0  0  0  0  0  0  0  0  0  0  0  0
   -2.8702   -4.8827   -1.1054 O   0  0  0  0  0  0  0  0  0  0  0  0
   -4.9704   -4.2579   -1.9614 C   0  0  0  0  0  0  0  0  0  0  0  0
   -5.1456   -4.7573   -2.9278 H   0  0  0  0  0  0  0  0  0  0  0  0
   -5.4379   -4.9112   -1.2072 H   0  0  0  0  0  0  0  0  0  0  0  0
   -5.5954   -3.3510   -1.9864 H   0  0  0  0  0  0  0  0  0  0  0  0
   -3.0424   -2.8131   -2.1606 N   0  0  0  0  0  0  0  0  0  0  0  0
   -1.6755   -2.3891   -2.0077 C   0  0  2  0  0  0  0  0  0  0  0  0
   -1.5782   -1.5673   -0.7292 C   0  0  0  0  0  0  0  0  0  0  0  0
   -2.5448   -1.0064   -0.2171 O   0  0  0  0  0  0  0  0  0  0  0  0
   -1.2087   -1.5823   -3.2094 C   0  0  0  0  0  0  0  0  0  0  0  0
   -3.6915   -2.1888   -2.6360 H   0  0  0  0  0  0  0  0  0  0  0  0
   -1.0721   -3.2977   -1.9053 H   0  0  0  0  0  0  0  0  0  0  0  0
   -1.8017   -0.6681   -3.3281 H   0  0  0  0  0  0  0  0  0  0  0  0
   -0.1601   -1.2849   -3.1045 H   0  0  0  0  0  0  0  0  0  0  0  0
   -1.3074   -2.1646   -4.1319 H   0  0  0  0  0  0  0  0  0  0  0  0
   -0.2835   -1.5112   -0.2725 N   0  0  0  0  0  0  0  0  0  0  0  0
    0.0769   -0.7658    0.9424 C   0  0  0  0  0  0  0  0  0  0  0  0
    1.5590   -0.8869    1.1891 C   0  0  0  0  0  0  0  0  0  0  0  0
    2.2700   -1.7220    0.6363 O   0  0  0  0  0  0  0  0  0  0  0  0
    0.4587   -2.0097   -0.7289 H   0  0  0  0  0  0  0  0  0  0  0  0
   -0.4732   -1.1772    1.7939 H   0  0  0  0  0  0  0  0  0  0  0  0
   -0.1925    0.2864    0.8114 H   0  0  0  0  0  0  0  0  0  0  0  0
    2.0032    0.0543    2.1116 N   0  0  0  0  0  0  0  0  0  0  0  0
    3.3739    0.1641    2.5364 C   0  0  2  0  0  0  0  0  0  0  0  0
    3.8513    1.5763    2.2247 C   0  0  0  0  0  0  0  0  0  0  0  0
    3.3247    2.2898    1.3734 O   0  0  0  0  0  0  0  0  0  0  0  0
    4.2509   -0.8704    1.8483 C   0  0  0  0  0  0  0  0  0  0  0  0
    1.3223    0.7003    2.5076 H   0  0  0  0  0  0  0  0  0  0  0  0
    3.3827    0.0058    3.6203 H   0  0  0  0  0  0  0  0  0  0  0  0
    4.2546   -0.7278    0.7615 H   0  0  0  0  0  0  0  0  0  0  0  0
    5.2879   -0.8043    2.1938 H   0  0  0  0  0  0  0  0  0  0  0  0
    3.8885   -1.8843    2.0493 H   0  0  0  0  0  0  0  0  0  0  0  0
    4.9613    1.9303    2.9788 N   0  0  0  0  0  0  0  0  0  0  0  0
    5.6088    3.2156    2.8571 C   0  0  0  0  0  0  0  0  0  0  0  0
    5.3197    1.2831    3.6748 H   0  0  0  0  0  0  0  0  0  0  0  0
    6.4254    3.1474    2.1233 H   0  0  0  0  0  0  0  0  0  0  0  0
    4.8764    3.9648    2.5220 H   0  0  0  0  0  0  0  0  0  0  0  0
    6.0177    3.5140    3.8338 H   0  0  0  0  0  0  0  0  0  0  0  0
  1  3  1  0  0  0  0
  1  7  1  0  0  0  0
  1  2  2  0  0  0  0
 18 19  1  0  0  0  0
 19 24  1  0  0  0  0
 19 20  2  0  0  0  0
 25 26  1  0  0  0  0
 26 34  1  0  0  0  0
 26 27  2  0  0  0  0
  8  9  1  0  0  0  0
  9 17  1  0  0  0  0
  9 10  2  0  0  0  0
 25 28  1  0  0  0  0
  8 11  1  0  0  0  0
 34 35  1  0  0  0  0
 17 18  1  0  0  0  0
 24 25  1  0  0  0  0
  7  8  1  0  0  0  0
  3  4  1  0  0  0  0
  3  5  1  0  0  0  0
  3  6  1  0  0  0  0
 28 31  1  0  0  0  0
 28 32  1  0  0  0  0
 28 33  1  0  0  0  0
 11 14  1  0  0  0  0
 11 15  1  0  0  0  0
 11 16  1  0  0  0  0
 35 37  1  0  0  0  0
 35 38  1  0  0  0  0
 35 39  1  0  0  0  0
 18 22  1  0  0  0  0
 18 23  1  0  0  0  0
 25 30  1  0  0  0  0
  8 13  1  0  0  0  0
 34 36  1  0  0  0  0
 17 21  1  0  0  0  0
  7 12  1  0  0  0  0
 24 29  1  0  0  0  0
M  END
$$$$

  -OEChem-05262214473D

 39 38  0     1  0  0  0  0  0999 V2000
   -3.5200   -4.0268   -1.6943 C   0  0  0  0  0  0  0  0  0  0  0  0
   -2.8702   -4.8827   -1.1054 O   0  0  0  0  0  0  0  0  0  0  0  0
   -4.9704   -4.2579   -1.9614 C   0  0  0  0  0  0  0  0  0  0  0  0
   -5.1456   -4.7573   -2.9278 H   0  0  0  0  0  0  0  0  0  0  0  0
   -5.4379   -4.9112   -1.2072 H   0  0  0  0  0  0  0  0  0  0  0  0
   -5.5954   -3.3510   -1.9864 H   0  0  0  0  0  0  0  0  0  0  0  0
   -3.0424   -2.8131   -2.1606 N   0  0  0  0  0  0  0  0  0  0  0  0
   -1.6755   -2.3891   -2.0077 C   0  0  2  0  0  0  0  0  0  0  0  0
   -1.5782   -1.5673   -0.7292 C   0  0  0  0  0  0  0  0  0  0  0  0
   -2.5448   -1.0064   -0.2171 O   0  0  0  0  0  0  0  0  0  0  0  0
   -1.2087   -1.5823   -3.2094 C   0  0  0  0  0  0  0  0  0  0  0  0
   -3.6915   -2.1888   -2.6360 H   0  0  0  0  0  0  0  0  0  0  0  0
   -1.0721   -3.2977   -1.9053 H   0  0  0  0  0  0  0  0  0  0  0  0
   -1.8017   -0.6681   -3.3281 H   0  0  0  0  0  0  0  0  0  0  0  0
   -0.1601   -1.2849   -3.1045 H   0  0  0  0  0  0  0  0  0  0  0  0
   -1.3074   -2.1646   -4.1319 H   0  0  0  0  0  0  0  0  0  0  0  0
   -0.2835   -1.5112   -0.2725 N   0  0  0  0  0  0  0  0  0  0  0  0
    0.0769   -0.7658    0.9424 C   0  0  0  0  0  0  0  0  0  0  0  0
    1.5710   -0.5727    0.9927 C   0  0  0  0  0  0  0  0  0  0  0  0
    2.3362   -0.9935    0.1291 O   0  0  0  0  0  0  0  0  0  0  0  0
    0.4587   -2.0097   -0.7289 H   0  0  0  0  0  0  0  0  0  0  0  0
   -0.2517   -1.3286    1.8211 H   0  0  0  0  0  0  0  0  0  0  0  0
   -0.4225    0.2074    0.9281 H   0  0  0  0  0  0  0  0  0  0  0  0
    1.9586    0.1299    2.1287 N   0  0  0  0  0  0  0  0  0  0  0  0
    3.3274    0.4534    2.4335 C   0  0  2  0  0  0  0  0  0  0  0  0
    3.4350    1.9669    2.5644 C   0  0  0  0  0  0  0  0  0  0  0  0
    2.6313    2.7433    2.0524 O   0  0  0  0  0  0  0  0  0  0  0  0
    4.2712   -0.0678    1.3609 C   0  0  0  0  0  0  0  0  0  0  0  0
    1.2353    0.4314    2.7796 H   0  0  0  0  0  0  0  0  0  0  0  0
    3.5559   -0.0143    3.3974 H   0  0  0  0  0  0  0  0  0  0  0  0
    4.0575    0.3895    0.3880 H   0  0  0  0  0  0  0  0  0  0  0  0
    5.3145    0.1541    1.6085 H   0  0  0  0  0  0  0  0  0  0  0  0
    4.1710   -1.1527    1.2474 H   0  0  0  0  0  0  0  0  0  0  0  0
    4.5582    2.3500    3.2841 N   0  0  0  0  0  0  0  0  0  0  0  0
    4.8890    3.7333    3.5350 C   0  0  0  0  0  0  0  0  0  0  0  0
    5.1595    1.6380    3.6883 H   0  0  0  0  0  0  0  0  0  0  0  0
    5.5628    4.0987    2.7460 H   0  0  0  0  0  0  0  0  0  0  0  0
    3.9685    4.3354    3.5388 H   0  0  0  0  0  0  0  0  0  0  0  0
    5.3876    3.8196    4.5117 H   0  0  0  0  0  0  0  0  0  0  0  0
  1  3  1  0  0  0  0
  1  7  1  0  0  0  0
  1  2  2  0  0  0  0
 18 19  1  0  0  0  0
 19 24  1  0  0  0  0
 19 20  2  0  0  0  0
 25 26  1  0  0  0  0
 26 34  1  0  0  0  0
 26 27  2  0  0  0  0
  8  9  1  0  0  0  0
  9 17  1  0  0  0  0
  9 10  2  0  0  0  0
 25 28  1  0  0  0  0
  8 11  1  0  0  0  0
 34 35  1  0  0  0  0
 17 18  1  0  0  0  0
 24 25  1  0  0  0  0
  7  8  1  0  0  0  0
  3  4  1  0  0  0  0
  3  5  1  0  0  0  0
  3  6  1  0  0  0  0
 28 31  1  0  0  0  0
 28 32  1  0  0  0  0
 28 33  1  0  0  0  0
 11 14  1  0  0  0  0
 11 15  1  0  0  0  0
 11 16  1  0  0  0  0
 35 37  1  0  0  0  0
 35 38  1  0  0  0  0
 35 39  1  0  0  0  0
 18 22  1  0  0  0  0
 18 23  1  0  0  0  0
 25 30  1  0  0  0  0
  8 13  1  0  0  0  0
 34 36  1  0  0  0  0
 17 21  1  0  0  0  0
  7 12  1  0  0  0  0
 24 29  1  0  0  0  0
M  END
$$$$

  -OEChem-05262214473D

 39 38  0     1  0  0  0  0  0999 V2000
   -3.5200   -4.0268   -1.6943 C   0  0  0  0  0  0  0  0  0  0  0  0
   -2.8702   -4.8827   -1.1054 O   0  0  0  0  0  0  0  0  0  0  0  0
   -4.9704   -4.2579   -1.9614 C   0  0  0  0  0  0  0  0  0  0  0  0
   -5.1456   -4.7573   -2.9278 H   0  0  0  0  0  0  0  0  0  0  0  0
   -5.4379   -4.9112   -1.2072 H   0  0  0  0  0  0  0  0  0  0  0  0
   -5.5954   -3.3510   -1.9864 H   0  0  0  0  0  0  0  0  0  0  0  0
   -3.0424   -2.8131   -2.1606 N   0  0  0  0  0  0  0  0  0  0  0  0
   -1.6755   -2.3891   -2.0077 C   0  0  2  0  0  0  0  0  0  0  0  0
   -1.5782   -1.5673   -0.7292 C   0  0  0  0  0  0  0  0  0  0  0  0
   -2.5448   -1.0064   -0.2171 O   0  0  0  0  0  0  0  0  0  0  0  0
   -1.2087   -1.5823   -3.2094 C   0  0  0  0  0  0  0  0  0  0  0  0
   -3.6915   -2.1888   -2.6360 H   0  0  0  0  0  0  0  0  0  0  0  0
   -1.0721   -3.2977   -1.9053 H   0  0  0  0  0  0  0  0  0  0  0  0
   -1.8017   -0.6681   -3.3281 H   0  0  0  0  0  0  0  0  0  0  0  0
   -0.1601   -1.2849   -3.1045 H   0  0  0  0  0  0  0  0  0  0  0  0
   -1.3074   -2.1646   -4.1319 H   0  0  0  0  0  0  0  0  0  0  0  0
   -0.2835   -1.5112   -0.2725 N   0  0  0  0  0  0  0  0  0  0  0  0
    0.0769   -0.7658    0.9424 C   0  0  0  0  0  0  0  0  0  0  0  0
    1.5710   -0.5727    0.9927 C   0  0  0  0  0  0  0  0  0  0  0  0
    2.3080   -0.7481    0.0260 O   0  0  0  0  0  0  0  0  0  0  0  0
    0.4587   -2.0097   -0.7289 H   0  0  0  0  0  0  0  0  0  0  0  0
   -0.2517   -1.3286    1.8211 H   0  0  0  0  0  0  0  0  0  0  0  0
   -0.4225    0.2074    0.9281 H   0  0  0  0  0  0  0  0  0  0  0  0
    1.9942   -0.1799    2.2580 N   0  0  0  0  0  0  0  0  0  0  0  0
    3.3713    0.0724    2.5916 C   0  0  2  0  0  0  0  0  0  0  0  0
    3.4768    1.5030    3.1032 C   0  0  0  0  0  0  0  0  0  0  0  0
    2.6527    2.3742    2.8336 O   0  0  0  0  0  0  0  0  0  0  0  0
    4.2800   -0.1442    1.3916 C   0  0  0  0  0  0  0  0  0  0  0  0
    1.2924   -0.0647    2.9872 H   0  0  0  0  0  0  0  0  0  0  0  0
    3.6347   -0.6239    3.3953 H   0  0  0  0  0  0  0  0  0  0  0  0
    4.0312    0.5446    0.5760 H   0  0  0  0  0  0  0  0  0  0  0  0
    5.3302    0.0204    1.6542 H   0  0  0  0  0  0  0  0  0  0  0  0
    4.1807   -1.1648    1.0066 H   0  0  0  0  0  0  0  0  0  0  0  0
    4.6224    1.7032    3.8607 N   0  0  0  0  0  0  0  0  0  0  0  0
    4.9556    2.9801    4.4476 C   0  0  0  0  0  0  0  0  0  0  0  0
    5.2402    0.9193    4.0491 H   0  0  0  0  0  0  0  0  0  0  0  0
    5.6003    3.5443    3.7576 H   0  0  0  0  0  0  0  0  0  0  0  0
    4.0332    3.5492    4.6353 H   0  0  0  0  0  0  0  0  0  0  0  0
    5.4870    2.8195    5.3972 H   0  0  0  0  0  0  0  0  0  0  0  0
  1  3  1  0  0  0  0
  1  7  1  0  0  0  0
  1  2  2  0  0  0  0
 18 19  1  0  0  0  0
 19 24  1  0  0  0  0
 19 20  2  0  0  0  0
 25 26  1  0  0  0  0
 26 34  1  0  0  0  0
 26 27  2  0  0  0  0
  8  9  1  0  0  0  0
  9 17  1  0  0  0  0
  9 10  2  0  0  0  0
 25 28  1  0  0  0  0
  8 11  1  0  0  0  0
 34 35  1  0  0  0  0
 17 18  1  0  0  0  0
 24 25  1  0  0  0  0
  7  8  1  0  0  0  0
  3  4  1  0  0  0  0
  3  5  1  0  0  0  0
  3  6  1  0  0  0  0
 28 31  1  0  0  0  0
 28 32  1  0  0  0  0
 28 33  1  0  0  0  0
 11 14  1  0  0  0  0
 11 15  1  0  0  0  0
 11 16  1  0  0  0  0
 35 37  1  0  0  0  0
 35 38  1  0  0  0  0
 35 39  1  0  0  0  0
 18 22  1  0  0  0  0
 18 23  1  0  0  0  0
 25 30  1  0  0  0  0
  8 13  1  0  0  0  0
 34 36  1  0  0  0  0
 17 21  1  0  0  0  0
  7 12  1  0  0  0  0
 24 29  1  0  0  0  0
M  END
$$$$

  -OEChem-05262214473D

 39 38  0     1  0  0  0  0  0999 V2000
   -3.5200   -4.0268   -1.6943 C   0  0  0  0  0  0  0  0  0  0  0  0
   -2.8702   -4.8827   -1.1054 O   0  0  0  0  0  0  0  0  0  0  0  0
   -4.9704   -4.2579   -1.9614 C   0  0  0  0  0  0  0  0  0  0  0  0
   -5.1456   -4.7573   -2.9278 H   0  0  0  0  0  0  0  0  0  0  0  0
   -5.4379   -4.9112   -1.2072 H   0  0  0  0  0  0  0  0  0  0  0  0
   -5.5954   -3.3510   -1.9864 H   0  0  0  0  0  0  0  0  0  0  0  0
   -3.0424   -2.8131   -2.1606 N   0  0  0  0  0  0  0  0  0  0  0  0
   -1.6755   -2.3891   -2.0077 C   0  0  2  0  0  0  0  0  0  0  0  0
   -1.5782   -1.5673   -0.7292 C   0  0  0  0  0  0  0  0  0  0  0  0
   -2.5448   -1.0064   -0.2171 O   0  0  0  0  0  0  0  0  0  0  0  0
   -1.2087   -1.5823   -3.2094 C   0  0  0  0  0  0  0  0  0  0  0  0
   -3.6915   -2.1888   -2.6360 H   0  0  0  0  0  0  0  0  0  0  0  0
   -1.0721   -3.2977   -1.9053 H   0  0  0  0  0  0  0  0  0  0  0  0
   -1.8017   -0.6681   -3.3281 H   0  0  0  0  0  0  0  0  0  0  0  0
   -0.1601   -1.2849   -3.1045 H   0  0  0  0  0  0  0  0  0  0  0  0
   -1.3074   -2.1646   -4.1319 H   0  0  0  0  0  0  0  0  0  0  0  0
   -0.2835   -1.5112   -0.2725 N   0  0  0  0  0  0  0  0  0  0  0  0
    0.0769   -0.7658    0.9424 C   0  0  0  0  0  0  0  0  0  0  0  0
    1.5710   -0.5727    0.9927 C   0  0  0  0  0  0  0  0  0  0  0  0
    2.2751   -0.4848   -0.0097 O   0  0  0  0  0  0  0  0  0  0  0  0
    0.4587   -2.0097   -0.7289 H   0  0  0  0  0  0  0  0  0  0  0  0
   -0.2517   -1.3286    1.8211 H   0  0  0  0  0  0  0  0  0  0  0  0
   -0.4225    0.2074    0.9281 H   0  0  0  0  0  0  0  0  0  0  0  0
    2.0356   -0.5120    2.3022 N   0  0  0  0  0  0  0  0  0  0  0  0
    3.4223   -0.3359    2.6451 C   0  0  2  0  0  0  0  0  0  0  0  0
    3.5391    0.9170    3.5031 C   0  0  0  0  0  0  0  0  0  0  0  0
    2.7024    1.8175    3.4927 O   0  0  0  0  0  0  0  0  0  0  0  0
    4.2902   -0.2257    1.4013 C   0  0  0  0  0  0  0  0  0  0  0  0
    1.3587   -0.5968    3.0587 H   0  0  0  0  0  0  0  0  0  0  0  0
    3.7161   -1.2114    3.2344 H   0  0  0  0  0  0  0  0  0  0  0  0
    4.0106    0.6458    0.7982 H   0  0  0  0  0  0  0  0  0  0  0  0
    5.3481   -0.1204    1.6636 H   0  0  0  0  0  0  0  0  0  0  0  0
    4.1821   -1.1147    0.7706 H   0  0  0  0  0  0  0  0  0  0  0  0
    4.7090    0.9312    4.2496 N   0  0  0  0  0  0  0  0  0  0  0  0
    5.0567    2.0191    5.1336 C   0  0  0  0  0  0  0  0  0  0  0  0
    5.3363    0.1332    4.2106 H   0  0  0  0  0  0  0  0  0  0  0  0
    5.6749    2.7496    4.5913 H   0  0  0  0  0  0  0  0  0  0  0  0
    4.1387    2.5090    5.4905 H   0  0  0  0  0  0  0  0  0  0  0  0
    5.6210    1.6273    5.9927 H   0  0  0  0  0  0  0  0  0  0  0  0
  1  3  1  0  0  0  0
  1  7  1  0  0  0  0
  1  2  2  0  0  0  0
 18 19  1  0  0  0  0
 19 24  1  0  0  0  0
 19 20  2  0  0  0  0
 25 26  1  0  0  0  0
 26 34  1  0  0  0  0
 26 27  2  0  0  0  0
  8  9  1  0  0  0  0
  9 17  1  0  0  0  0
  9 10  2  0  0  0  0
 25 28  1  0  0  0  0
  8 11  1  0  0  0  0
 34 35  1  0  0  0  0
 17 18  1  0  0  0  0
 24 25  1  0  0  0  0
  7  8  1  0  0  0  0
  3  4  1  0  0  0  0
  3  5  1  0  0  0  0
  3  6  1  0  0  0  0
 28 31  1  0  0  0  0
 28 32  1  0  0  0  0
 28 33  1  0  0  0  0
 11 14  1  0  0  0  0
 11 15  1  0  0  0  0
 11 16  1  0  0  0  0
 35 37  1  0  0  0  0
 35 38  1  0  0  0  0
 35 39  1  0  0  0  0
 18 22  1  0  0  0  0
 18 23  1  0  0  0  0
 25 30  1  0  0  0  0
  8 13  1  0  0  0  0
 34 36  1  0  0  0  0
 17 21  1  0  0  0  0
  7 12  1  0  0  0  0
 24 29  1  0  0  0  0
M  END
$$$$

  -OEChem-05262214473D

 39 38  0     1  0  0  0  0  0999 V2000
   -3.5200   -4.0268   -1.6943 C   0  0  0  0  0  0  0  0  0  0  0  0
   -2.8702   -4.8827   -1.1054 O   0  0  0  0  0  0  0  0  0  0  0  0
   -4.9704   -4.2579   -1.9614 C   0  0  0  0  0  0  0  0  0  0  0  0
   -5.1456   -4.7573   -2.9278 H   0  0  0  0  0  0  0  0  0  0  0  0
   -5.4379   -4.9112   -1.2072 H   0  0  0  0  0  0  0  0  0  0  0  0
   -5.5954   -3.3510   -1.9864 H   0  0  0  0  0  0  0  0  0  0  0  0
   -3.0424   -2.8131   -2.1606 N   0  0  0  0  0  0  0  0  0  0  0  0
   -1.6755   -2.3891   -2.0077 C   0  0  2  0  0  0  0  0  0  0  0  0
   -1.5782   -1.5673   -0.7292 C   0  0  0  0  0  0  0  0  0  0  0  0
   -2.5448   -1.0064   -0.2171 O   0  0  0  0  0  0  0  0  0  0  0  0
   -1.2087   -1.5823   -3.2094 C   0  0  0  0  0  0  0  0  0  0  0  0
   -3.6915   -2.1888   -2.6360 H   0  0  0  0  0  0  0  0  0  0  0  0
   -1.0721   -3.2977   -1.9053 H   0  0  0  0  0  0  0  0  0  0  0  0
   -1.8017   -0.6681   -3.3281 H   0  0  0  0  0  0  0  0  0  0  0  0
   -0.1601   -1.2849   -3.1045 H   0  0  0  0  0  0  0  0  0  0  0  0
   -1.3074   -2.1646   -4.1319 H   0  0  0  0  0  0  0  0  0  0  0  0
   -0.2835   -1.5112   -0.2725 N   0  0  0  0  0  0  0  0  0  0  0  0
    0.0769   -0.7658    0.9424 C   0  0  0  0  0  0  0  0  0  0  0  0
    1.5710   -0.5727    0.9927 C   0  0  0  0  0  0  0  0  0  0  0  0
    2.2400   -0.2216    0.0245 O   0  0  0  0  0  0  0  0  0  0  0  0
    0.4587   -2.0097   -0.7289 H   0  0  0  0  0  0  0  0  0  0  0  0
   -0.2517   -1.3286    1.8211 H   0  0  0  0  0  0  0  0  0  0  0  0
   -0.4225    0.2074    0.9281 H   0  0  0  0  0  0  0  0  0  0  0  0
    2.0800   -0.8438    2.2584 N   0  0  0  0  0  0  0  0  0  0  0  0
    3.4768   -0.7435    2.5904 C   0  0  2  0  0  0  0  0  0  0  0  0
    3.6175    0.2489    3.7371 C   0  0  0  0  0  0  0  0  0  0  0  0
    2.7771    1.1111    3.9850 O   0  0  0  0  0  0  0  0  0  0  0  0
    4.3011   -0.3068    1.3894 C   0  0  0  0  0  0  0  0  0  0  0  0
    1.4297   -1.1284    2.9890 H   0  0  0  0  0  0  0  0  0  0  0  0
    3.7943   -1.7370    2.9254 H   0  0  0  0  0  0  0  0  0  0  0  0
    3.9972    0.6865    1.0395 H   0  0  0  0  0  0  0  0  0  0  0  0
    5.3669   -0.2586    1.6360 H   0  0  0  0  0  0  0  0  0  0  0  0
    4.1753   -1.0058    0.5554 H   0  0  0  0  0  0  0  0  0  0  0  0
    4.8123    0.0864    4.4243 N   0  0  0  0  0  0  0  0  0  0  0  0
    5.1853    0.9157    5.5464 C   0  0  0  0  0  0  0  0  0  0  0  0
    5.4413   -0.6668    4.1618 H   0  0  0  0  0  0  0  0  0  0  0  0
    5.7815    1.7688    5.1903 H   0  0  0  0  0  0  0  0  0  0  0  0
    4.2781    1.2858    6.0463 H   0  0  0  0  0  0  0  0  0  0  0  0
    5.7805    0.3241    6.2576 H   0  0  0  0  0  0  0  0  0  0  0  0
  1  3  1  0  0  0  0
  1  7  1  0  0  0  0
  1  2  2  0  0  0  0
 18 19  1  0  0  0  0
 19 24  1  0  0  0  0
 19 20  2  0  0  0  0
 25 26  1  0  0  0  0
 26 34  1  0  0  0  0
 26 27  2  0  0  0  0
  8  9  1  0  0  0  0
  9 17  1  0  0  0  0
  9 10  2  0  0  0  0
 25 28  1  0  0  0  0
  8 11  1  0  0  0  0
 34 35  1  0  0  0  0
 17 18  1  0  0  0  0
 24 25  1  0  0  0  0
  7  8  1  0  0  0  0
  3  4  1  0  0  0  0
  3  5  1  0  0  0  0
  3  6  1  0  0  0  0
 28 31  1  0  0  0  0
 28 32  1  0  0  0  0
 28 33  1  0  0  0  0
 11 14  1  0  0  0  0
 11 15  1  0  0  0  0
 11 16  1  0  0  0  0
 35 37  1  0  0  0  0
 35 38  1  0  0  0  0
 35 39  1  0  0  0  0
 18 22  1  0  0  0  0
 18 23  1  0  0  0  0
 25 30  1  0  0  0  0
  8 13  1  0  0  0  0
 34 36  1  0  0  0  0
 17 21  1  0  0  0  0
  7 12  1  0  0  0  0
 24 29  1  0  0  0  0
M  END
$$$$

  -OEChem-05262214473D

 39 38  0     1  0  0  0  0  0999 V2000
   -3.5200   -4.0268   -1.6943 C   0  0  0  0  0  0  0  0  0  0  0  0
   -2.8702   -4.8827   -1.1054 O   0  0  0  0  0  0  0  0  0  0  0  0
   -4.9704   -4.2579   -1.9614 C   0  0  0  0  0  0  0  0  0  0  0  0
   -5.1456   -4.7573   -2.9278 H   0  0  0  0  0  0  0  0  0  0  0  0
   -5.4379   -4.9112   -1.2072 H   0  0  0  0  0  0  0  0  0  0  0  0
   -5.5954   -3.3510   -1.9864 H   0  0  0  0  0  0  0  0  0  0  0  0
   -3.0424   -2.8131   -2.1606 N   0  0  0  0  0  0  0  0  0  0  0  0
   -1.6755   -2.3891   -2.0077 C   0  0  2  0  0  0  0  0  0  0  0  0
   -1.5782   -1.5673   -0.7292 C   0  0  0  0  0  0  0  0  0  0  0  0
   -2.5448   -1.0064   -0.2171 O   0  0  0  0  0  0  0  0  0  0  0  0
   -1.2087   -1.5823   -3.2094 C   0  0  0  0  0  0  0  0  0  0  0  0
   -3.6915   -2.1888   -2.6360 H   0  0  0  0  0  0  0  0  0  0  0  0
   -1.0721   -3.2977   -1.9053 H   0  0  0  0  0  0  0  0  0  0  0  0
   -1.8017   -0.6681   -3.3281 H   0  0  0  0  0  0  0  0  0  0  0  0
   -0.1601   -1.2849   -3.1045 H   0  0  0  0  0  0  0  0  0  0  0  0
   -1.3074   -2.1646   -4.1319 H   0  0  0  0  0  0  0  0  0  0  0  0
   -0.2835   -1.5112   -0.2725 N   0  0  0  0  0  0  0  0  0  0  0  0
    0.0769   -0.7658    0.9424 C   0  0  0  0  0  0  0  0  0  0  0  0
    1.5710   -0.5727    0.9927 C   0  0  0  0  0  0  0  0  0  0  0  0
    2.2049    0.0236    0.1261 O   0  0  0  0  0  0  0  0  0  0  0  0
    0.4587   -2.0097   -0.7289 H   0  0  0  0  0  0  0  0  0  0  0  0
   -0.2517   -1.3286    1.8211 H   0  0  0  0  0  0  0  0  0  0  0  0
   -0.4225    0.2074    0.9281 H   0  0  0  0  0  0  0  0  0  0  0  0
    2.1242   -1.1526    2.1294 N   0  0  0  0  0  0  0  0  0  0  0  0
    3.5311   -1.1227    2.4312 C   0  0  2  0  0  0  0  0  0  0  0  0
    3.7068   -0.4558    3.7891 C   0  0  0  0  0  0  0  0  0  0  0  0
    2.8716    0.3030    4.2767 O   0  0  0  0  0  0  0  0  0  0  0  0
    4.3119   -0.3821    1.3567 C   0  0  0  0  0  0  0  0  0  0  0  0
    1.5006   -1.6235    2.7829 H   0  0  0  0  0  0  0  0  0  0  0  0
    3.8643   -2.1647    2.4896 H   0  0  0  0  0  0  0  0  0  0  0  0
    3.9919    0.6637    1.2835 H   0  0  0  0  0  0  0  0  0  0  0  0
    5.3853   -0.3849    1.5732 H   0  0  0  0  0  0  0  0  0  0  0  0
    4.1606   -0.8454    0.3758 H   0  0  0  0  0  0  0  0  0  0  0  0
    4.9251   -0.7736    4.3729 N   0  0  0  0  0  0  0  0  0  0  0  0
    5.3328   -0.2549    5.6577 C   0  0  0  0  0  0  0  0  0  0  0  0
    5.5480   -1.4260    3.9059 H   0  0  0  0  0  0  0  0  0  0  0  0
    5.9127    0.6686    5.5137 H   0  0  0  0  0  0  0  0  0  0  0  0
    4.4416   -0.0372    6.2647 H   0  0  0  0  0  0  0  0  0  0  0  0
    5.9545   -1.0013    6.1738 H   0  0  0  0  0  0  0  0  0  0  0  0
  1  3  1  0  0  0  0
  1  7  1  0  0  0  0
  1  2  2  0  0  0  0
 18 19  1  0  0  0  0
 19 24  1  0  0  0  0
 19 20  2  0  0  0  0
 25 26  1  0  0  0  0
 26 34  1  0  0  0  0
 26 27  2  0  0  0  0
  8  9  1  0  0  0  0
  9 17  1  0  0  0  0
  9 10  2  0  0  0  0
 25 28  1  0  0  0  0
  8 11  1  0  0  0  0
 34 35  1  0  0  0  0
 17 18  1  0  0  0  0
 24 25  1  0  0  0  0
  7  8  1  0  0  0  0
  3  4  1  0  0  0  0
  3  5  1  0  0  0  0
  3  6  1  0  0  0  0
 28 31  1  0  0  0  0
 28 32  1  0  0  0  0
 28 33  1  0  0  0  0
 11 14  1  0  0  0  0
 11 15  1  0  0  0  0
 11 16  1  0  0  0  0
 35 37  1  0  0  0  0
 35 38  1  0  0  0  0
 35 39  1  0  0  0  0
 18 22  1  0  0  0  0
 18 23  1  0  0  0  0
 25 30  1  0  0  0  0
  8 13  1  0  0  0  0
 34 36  1  0  0  0  0
 17 21  1  0  0  0  0
  7 12  1  0  0  0  0
 24 29  1  0  0  0  0
M  END
$$$$

  -OEChem-05262214473D

 39 38  0     1  0  0  0  0  0999 V2000
   -3.5200   -4.0268   -1.6943 C   0  0  0  0  0  0  0  0  0  0  0  0
   -2.8702   -4.8827   -1.1054 O   0  0  0  0  0  0  0  0  0  0  0  0
   -4.9704   -4.2579   -1.9614 C   0  0  0  0  0  0  0  0  0  0  0  0
   -5.1456   -4.7573   -2.9278 H   0  0  0  0  0  0  0  0  0  0  0  0
   -5.4379   -4.9112   -1.2072 H   0  0  0  0  0  0  0  0  0  0  0  0
   -5.5954   -3.3510   -1.9864 H   0  0  0  0  0  0  0  0  0  0  0  0
   -3.0424   -2.8131   -2.1606 N   0  0  0  0  0  0  0  0  0  0  0  0
   -1.6755   -2.3891   -2.0077 C   0  0  2  0  0  0  0  0  0  0  0  0
   -1.5782   -1.5673   -0.7292 C   0  0  0  0  0  0  0  0  0  0  0  0
   -2.5448   -1.0064   -0.2171 O   0  0  0  0  0  0  0  0  0  0  0  0
   -1.2087   -1.5823   -3.2094 C   0  0  0  0  0  0  0  0  0  0  0  0
   -3.6915   -2.1888   -2.6360 H   0  0  0  0  0  0  0  0  0  0  0  0
   -1.0721   -3.2977   -1.9053 H   0  0  0  0  0  0  0  0  0  0  0  0
   -1.8017   -0.6681   -3.3281 H   0  0  0  0  0  0  0  0  0  0  0  0
   -0.1601   -1.2849   -3.1045 H   0  0  0  0  0  0  0  0  0  0  0  0
   -1.3074   -2.1646   -4.1319 H   0  0  0  0  0  0  0  0  0  0  0  0
   -0.2835   -1.5112   -0.2725 N   0  0  0  0  0  0  0  0  0  0  0  0
    0.0769   -0.7658    0.9424 C   0  0  0  0  0  0  0  0  0  0  0  0
    1.5710   -0.5727    0.9927 C   0  0  0  0  0  0  0  0  0  0  0  0
    2.1723    0.2340    0.2884 O   0  0  0  0  0  0  0  0  0  0  0  0
    0.4587   -2.0097   -0.7289 H   0  0  0  0  0  0  0  0  0  0  0  0
   -0.2517   -1.3286    1.8211 H   0  0  0  0  0  0  0  0  0  0  0  0
   -0.4225    0.2074    0.9281 H   0  0  0  0  0  0  0  0  0  0  0  0
    2.1653   -1.4175    1.9242 N   0  0  0  0  0  0  0  0  0  0  0  0
    3.5816   -1.4477    2.1783 C   0  0  2  0  0  0  0  0  0  0  0  0
    3.8008   -1.1490    3.6555 C   0  0  0  0  0  0  0  0  0  0  0  0
    2.9796   -0.5515    4.3481 O   0  0  0  0  0  0  0  0  0  0  0  0
    4.3219   -0.4463    1.3055 C   0  0  0  0  0  0  0  0  0  0  0  0
    1.5665   -2.0482    2.4546 H   0  0  0  0  0  0  0  0  0  0  0  0
    3.9211   -2.4654    1.9566 H   0  0  0  0  0  0  0  0  0  0  0  0
    3.9951    0.5791    1.5134 H   0  0  0  0  0  0  0  0  0  0  0  0
    5.4021   -0.4906    1.4796 H   0  0  0  0  0  0  0  0  0  0  0  0
    4.1391   -0.6445    0.2439 H   0  0  0  0  0  0  0  0  0  0  0  0
    5.0398   -1.5900    4.0989 N   0  0  0  0  0  0  0  0  0  0  0  0
    5.4891   -1.4129    5.4601 C   0  0  0  0  0  0  0  0  0  0  0  0
    5.6491   -2.0928    3.4604 H   0  0  0  0  0  0  0  0  0  0  0  0
    6.0597   -0.4759    5.5394 H   0  0  0  0  0  0  0  0  0  0  0  0
    4.6183   -1.3696    6.1308 H   0  0  0  0  0  0  0  0  0  0  0  0
    6.1313   -2.2586    5.7471 H   0  0  0  0  0  0  0  0  0  0  0  0
  1  3  1  0  0  0  0
  1  7  1  0  0  0  0
  1  2  2  0  0  0  0
 18 19  1  0  0  0  0
 19 24  1  0  0  0  0
 19 20  2  0  0  0  0
 25 26  1  0  0  0  0
 26 34  1  0  0  0  0
 26 27  2  0  0  0  0
  8  9  1  0  0  0  0
  9 17  1  0  0  0  0
  9 10  2  0  0  0  0
 25 28  1  0  0  0  0
  8 11  1  0  0  0  0
 34 35  1  0  0  0  0
 17 18  1  0  0  0  0
 24 25  1  0  0  0  0
  7  8  1  0  0  0  0
  3  4  1  0  0  0  0
  3  5  1  0  0  0  0
  3  6  1  0  0  0  0
 28 31  1  0  0  0  0
 28 32  1  0  0  0  0
 28 33  1  0  0  0  0
 11 14  1  0  0  0  0
 11 15  1  0  0  0  0
 11 16  1  0  0  0  0
 35 37  1  0  0  0  0
 35 38  1  0  0  0  0
 35 39  1  0  0  0  0
 18 22  1  0  0  0  0
 18 23  1  0  0  0  0
 25 30  1  0  0  0  0
  8 13  1  0  0  0  0
 34 36  1  0  0  0  0
 17 21  1  0  0  0  0
  7 12  1  0  0  0  0
 24 29  1  0  0  0  0
M  END
$$$$

  -OEChem-05262214473D

 39 38  0     1  0  0  0  0  0999 V2000
   -3.5200   -4.0268   -1.6943 C   0  0  0  0  0  0  0  0  0  0  0  0
   -2.8702   -4.8827   -1.1054 O   0  0  0  0  0  0  0  0  0  0  0  0
   -4.9704   -4.2579   -1.9614 C   0  0  0  0  0  0  0  0  0  0  0  0
   -5.1456   -4.7573   -2.9278 H   0  0  0  0  0  0  0  0  0  0  0  0
   -5.4379   -4.9112   -1.2072 H   0  0  0  0  0  0  0  0  0  0  0  0
   -5.5954   -3.3510   -1.9864 H   0  0  0  0  0  0  0  0  0  0  0  0
   -3.0424   -2.8131   -2.1606 N   0  0  0  0  0  0  0  0  0  0  0  0
   -1.6755   -2.3891   -2.0077 C   0  0  2  0  0  0  0  0  0  0  0  0
   -1.5782   -1.5673   -0.7292 C   0  0  0  0  0  0  0  0  0  0  0  0
   -2.5448   -1.0064   -0.2171 O   0  0  0  0  0  0  0  0  0  0  0  0
   -1.2087   -1.5823   -3.2094 C   0  0  0  0  0  0  0  0  0  0  0  0
   -3.6915   -2.1888   -2.6360 H   0  0  0  0  0  0  0  0  0  0  0  0
   -1.0721   -3.2977   -1.9053 H   0  0  0  0  0  0  0  0  0  0  0  0
   -1.8017   -0.6681   -3.3281 H   0  0  0  0  0  0  0  0  0  0  0  0
   -0.1601   -1.2849   -3.1045 H   0  0  0  0  0  0  0  0  0  0  0  0
   -1.3074   -2.1646   -4.1319 H   0  0  0  0  0  0  0  0  0  0  0  0
   -0.2835   -1.5112   -0.2725 N   0  0  0  0  0  0  0  0  0  0  0  0
    0.0769   -0.7658    0.9424 C   0  0  0  0  0  0  0  0  0  0  0  0
    1.5710   -0.5727    0.9927 C   0  0  0  0  0  0  0  0  0  0  0  0
    2.1443    0.3953    0.5002 O   0  0  0  0  0  0  0  0  0  0  0  0
    0.4587   -2.0097   -0.7289 H   0  0  0  0  0  0  0  0  0  0  0  0
   -0.2517   -1.3286    1.8211 H   0  0  0  0  0  0  0  0  0  0  0  0
   -0.4225    0.2074    0.9281 H   0  0  0  0  0  0  0  0  0  0  0  0
    2.2005   -1.6203    1.6566 N   0  0  0  0  0  0  0  0  0  0  0  0
    3.6248   -1.6963    1.8490 C   0  0  2  0  0  0  0  0  0  0  0  0
    3.8932   -1.7835    3.3456 C   0  0  0  0  0  0  0  0  0  0  0  0
    3.0937   -1.3942    4.1943 O   0  0  0  0  0  0  0  0  0  0  0  0
    4.3305   -0.4951    1.2393 C   0  0  0  0  0  0  0  0  0  0  0  0
    1.6230   -2.3736    2.0262 H   0  0  0  0  0  0  0  0  0  0  0  0
    3.9608   -2.6187    1.3628 H   0  0  0  0  0  0  0  0  0  0  0  0
    4.0066    0.4384    1.7138 H   0  0  0  0  0  0  0  0  0  0  0  0
    5.4162   -0.5685    1.3614 H   0  0  0  0  0  0  0  0  0  0  0  0
    4.1122   -0.4169    0.1687 H   0  0  0  0  0  0  0  0  0  0  0  0
    5.1486   -2.3074    3.6210 N   0  0  0  0  0  0  0  0  0  0  0  0
    5.6434   -2.4794    4.9670 C   0  0  0  0  0  0  0  0  0  0  0  0
    5.7378   -2.6217    2.8556 H   0  0  0  0  0  0  0  0  0  0  0  0
    6.2124   -1.5867    5.2658 H   0  0  0  0  0  0  0  0  0  0  0  0
    4.7959   -2.6208    5.6538 H   0  0  0  0  0  0  0  0  0  0  0  0
    6.2987   -3.3620    5.0066 H   0  0  0  0  0  0  0  0  0  0  0  0
  1  3  1  0  0  0  0
  1  7  1  0  0  0  0
  1  2  2  0  0  0  0
 18 19  1  0  0  0  0
 19 24  1  0  0  0  0
 19 20  2  0  0  0  0
 25 26  1  0  0  0  0
 26 34  1  0  0  0  0
 26 27  2  0  0  0  0
  8  9  1  0  0  0  0
  9 17  1  0  0  0  0
  9 10  2  0  0  0  0
 25 28  1  0  0  0  0
  8 11  1  0  0  0  0
 34 35  1  0  0  0  0
 17 18  1  0  0  0  0
 24 25  1  0  0  0  0
  7  8  1  0  0  0  0
  3  4  1  0  0  0  0
  3  5  1  0  0  0  0
  3  6  1  0  0  0  0
 28 31  1  0  0  0  0
 28 32  1  0  0  0  0
 28 33  1  0  0  0  0
 11 14  1  0  0  0  0
 11 15  1  0  0  0  0
 11 16  1  0  0  0  0
 35 37  1  0  0  0  0
 35 38  1  0  0  0  0
 35 39  1  0  0  0  0
 18 22  1  0  0  0  0
 18 23  1  0  0  0  0
 25 30  1  0  0  0  0
  8 13  1  0  0  0  0
 34 36  1  0  0  0  0
 17 21  1  0  0  0  0
  7 12  1  0  0  0  0
 24 29  1  0  0  0  0
M  END
$$$$

  -OEChem-05262214473D

 39 38  0     1  0  0  0  0  0999 V2000
   -3.5200   -4.0268   -1.6943 C   0  0  0  0  0  0  0  0  0  0  0  0
   -2.8702   -4.8827   -1.1054 O   0  0  0  0  0  0  0  0  0  0  0  0
   -4.9704   -4.2579   -1.9614 C   0  0  0  0  0  0  0  0  0  0  0  0
   -5.1456   -4.7573   -2.9278 H   0  0  0  0  0  0  0  0  0  0  0  0
   -5.4379   -4.9112   -1.2072 H   0  0  0  0  0  0  0  0  0  0  0  0
   -5.5954   -3.3510   -1.9864 H   0  0  0  0  0  0  0  0  0  0  0  0
   -3.0424   -2.8131   -2.1606 N   0  0  0  0  0  0  0  0  0  0  0  0
   -1.6755   -2.3891   -2.0077 C   0  0  2  0  0  0  0  0  0  0  0  0
   -1.5782   -1.5673   -0.7292 C   0  0  0  0  0  0  0  0  0  0  0  0
   -2.5448   -1.0064   -0.2171 O   0  0  0  0  0  0  0  0  0  0  0  0
   -1.2087   -1.5823   -3.2094 C   0  0  0  0  0  0  0  0  0  0  0  0
   -3.6915   -2.1888   -2.6360 H   0  0  0  0  0  0  0  0  0  0  0  0
   -1.0721   -3.2977   -1.9053 H   0  0  0  0  0  0  0  0  0  0  0  0
   -1.8017   -0.6681   -3.3281 H   0  0  0  0  0  0  0  0  0  0  0  0
   -0.1601   -1.2849   -3.1045 H   0  0  0  0  0  0  0  0  0  0  0  0
   -1.3074   -2.1646   -4.1319 H   0  0  0  0  0  0  0  0  0  0  0  0
   -0.2835   -1.5112   -0.2725 N   0  0  0  0  0  0  0  0  0  0  0  0
    0.0769   -0.7658    0.9424 C   0  0  0  0  0  0  0  0  0  0  0  0
    1.5710   -0.5727    0.9927 C   0  0  0  0  0  0  0  0  0  0  0  0
    2.1229    0.4966    0.7471 O   0  0  0  0  0  0  0  0  0  0  0  0
    0.4587   -2.0097   -0.7289 H   0  0  0  0  0  0  0  0  0  0  0  0
   -0.2517   -1.3286    1.8211 H   0  0  0  0  0  0  0  0  0  0  0  0
   -0.4225    0.2074    0.9281 H   0  0  0  0  0  0  0  0  0  0  0  0
    2.2274   -1.7472    1.3450 N   0  0  0  0  0  0  0  0  0  0  0  0
    3.6578   -1.8516    1.4657 C   0  0  2  0  0  0  0  0  0  0  0  0
    3.9777   -2.3161    2.8804 C   0  0  0  0  0  0  0  0  0  0  0  0
    3.2060   -2.1678    3.8257 O   0  0  0  0  0  0  0  0  0  0  0  0
    4.3369   -0.5251    1.1625 C   0  0  0  0  0  0  0  0  0  0  0  0
    1.6661   -2.5775    1.5271 H   0  0  0  0  0  0  0  0  0  0  0  0
    3.9809   -2.6140    0.7485 H   0  0  0  0  0  0  0  0  0  0  0  0
    4.0255    0.2512    1.8708 H   0  0  0  0  0  0  0  0  0  0  0  0
    5.4265   -0.6134    1.2269 H   0  0  0  0  0  0  0  0  0  0  0  0
    4.0818   -0.1779    0.1554 H   0  0  0  0  0  0  0  0  0  0  0  0
    5.2440   -2.8768    2.9718 N   0  0  0  0  0  0  0  0  0  0  0  0
    5.7854   -3.3817    4.2119 C   0  0  0  0  0  0  0  0  0  0  0  0
    5.8080   -2.9767    2.1329 H   0  0  0  0  0  0  0  0  0  0  0  0
    6.3605   -2.5882    4.7115 H   0  0  0  0  0  0  0  0  0  0  0  0
    4.9626   -3.7055    4.8662 H   0  0  0  0  0  0  0  0  0  0  0  0
    6.4455   -4.2364    4.0026 H   0  0  0  0  0  0  0  0  0  0  0  0
  1  3  1  0  0  0  0
  1  7  1  0  0  0  0
  1  2  2  0  0  0  0
 18 19  1  0  0  0  0
 19 24  1  0  0  0  0
 19 20  2  0  0  0  0
 25 26  1  0  0  0  0
 26 34  1  0  0  0  0
 26 27  2  0  0  0  0
  8  9  1  0  0  0  0
  9 17  1  0  0  0  0
  9 10  2  0  0  0  0
 25 28  1  0  0  0  0
  8 11  1  0  0  0  0
 34 35  1  0  0  0  0
 17 18  1  0  0  0  0
 24 25  1  0  0  0  0
  7  8  1  0  0  0  0
  3  4  1  0  0  0  0
  3  5  1  0  0  0  0
  3  6  1  0  0  0  0
 28 31  1  0  0  0  0
 28 32  1  0  0  0  0
 28 33  1  0  0  0  0
 11 14  1  0  0  0  0
 11 15  1  0  0  0  0
 11 16  1  0  0  0  0
 35 37  1  0  0  0  0
 35 38  1  0  0  0  0
 35 39  1  0  0  0  0
 18 22  1  0  0  0  0
 18 23  1  0  0  0  0
 25 30  1  0  0  0  0
  8 13  1  0  0  0  0
 34 36  1  0  0  0  0
 17 21  1  0  0  0  0
  7 12  1  0  0  0  0
 24 29  1  0  0  0  0
M  END
$$$$

  -OEChem-05262214473D

 39 38  0     1  0  0  0  0  0999 V2000
   -3.5200   -4.0268   -1.6943 C   0  0  0  0  0  0  0  0  0  0  0  0
   -2.8702   -4.8827   -1.1054 O   0  0  0  0  0  0  0  0  0  0  0  0
   -4.9704   -4.2579   -1.9614 C   0  0  0  0  0  0  0  0  0  0  0  0
   -5.1456   -4.7573   -2.9278 H   0  0  0  0  0  0  0  0  0  0  0  0
   -5.4379   -4.9112   -1.2072 H   0  0  0  0  0  0  0  0  0  0  0  0
   -5.5954   -3.3510   -1.9864 H   0  0  0  0  0  0  0  0  0  0  0  0
   -3.0424   -2.8131   -2.1606 N   0  0  0  0  0  0  0  0  0  0  0  0
   -1.6755   -2.3891   -2.0077 C   0  0  2  0  0  0  0  0  0  0  0  0
   -1.5782   -1.5673   -0.7292 C   0  0  0  0  0  0  0  0  0  0  0  0
   -2.5448   -1.0064   -0.2171 O   0  0  0  0  0  0  0  0  0  0  0  0
   -1.2087   -1.5823   -3.2094 C   0  0  0  0  0  0  0  0  0  0  0  0
   -3.6915   -2.1888   -2.6360 H   0  0  0  0  0  0  0  0  0  0  0  0
   -1.0721   -3.2977   -1.9053 H   0  0  0  0  0  0  0  0  0  0  0  0
   -1.8017   -0.6681   -3.3281 H   0  0  0  0  0  0  0  0  0  0  0  0
   -0.1601   -1.2849   -3.1045 H   0  0  0  0  0  0  0  0  0  0  0  0
   -1.3074   -2.1646   -4.1319 H   0  0  0  0  0  0  0  0  0  0  0  0
   -0.2835   -1.5112   -0.2725 N   0  0  0  0  0  0  0  0  0  0  0  0
    0.0769   -0.7658    0.9424 C   0  0  0  0  0  0  0  0  0  0  0  0
    1.5710   -0.5727    0.9927 C   0  0  0  0  0  0  0  0  0  0  0  0
    2.1095    0.5309    1.0123 O   0  0  0  0  0  0  0  0  0  0  0  0
    0.4587   -2.0097   -0.7289 H   0  0  0  0  0  0  0  0  0  0  0  0
   -0.2517   -1.3286    1.8211 H   0  0  0  0  0  0  0  0  0  0  0  0
   -0.4225    0.2074    0.9281 H   0  0  0  0  0  0  0  0  0  0  0  0
    2.2442   -1.7897    1.0105 N   0  0  0  0  0  0  0  0  0  0  0  0
    3.6783   -1.9030    1.0545 C   0  0  2  0  0  0  0  0  0  0  0  0
    4.0485   -2.7105    2.2916 C   0  0  0  0  0  0  0  0  0  0  0  0
    3.3090   -2.8196    3.2675 O   0  0  0  0  0  0  0  0  0  0  0  0
    4.3409   -0.5344    1.0804 C   0  0  0  0  0  0  0  0  0  0  0  0
    1.6930   -2.6461    0.9913 H   0  0  0  0  0  0  0  0  0  0  0  0
    3.9799   -2.4517    0.1557 H   0  0  0  0  0  0  0  0  0  0  0  0
    4.0505    0.0303    1.9739 H   0  0  0  0  0  0  0  0  0  0  0  0
    5.4324   -0.6221    1.0850 H   0  0  0  0  0  0  0  0  0  0  0  0
    4.0499    0.0561    0.2049 H   0  0  0  0  0  0  0  0  0  0  0  0
    5.3195   -3.2594    2.1954 N   0  0  0  0  0  0  0  0  0  0  0  0
    5.9053   -4.0583    3.2464 C   0  0  0  0  0  0  0  0  0  0  0  0
    5.8549   -3.1335    1.3414 H   0  0  0  0  0  0  0  0  0  0  0  0
    6.4937   -3.4121    3.9143 H   0  0  0  0  0  0  0  0  0  0  0  0
    5.1068   -4.5497    3.8216 H   0  0  0  0  0  0  0  0  0  0  0  0
    6.5615   -4.8222    2.8037 H   0  0  0  0  0  0  0  0  0  0  0  0
  1  3  1  0  0  0  0
  1  7  1  0  0  0  0
  1  2  2  0  0  0  0
 18 19  1  0  0  0  0
 19 24  1  0  0  0  0
 19 20  2  0  0  0  0
 25 26  1  0  0  0  0
 26 34  1  0  0  0  0
 26 27  2  0  0  0  0
  8  9  1  0  0  0  0
  9 17  1  0  0  0  0
  9 10  2  0  0  0  0
 25 28  1  0  0  0  0
  8 11  1  0  0  0  0
 34 35  1  0  0  0  0
 17 18  1  0  0  0  0
 24 25  1  0  0  0  0
  7  8  1  0  0  0  0
  3  4  1  0  0  0  0
  3  5  1  0  0  0  0
  3  6  1  0  0  0  0
 28 31  1  0  0  0  0
 28 32  1  0  0  0  0
 28 33  1  0  0  0  0
 11 14  1  0  0  0  0
 11 15  1  0  0  0  0
 11 16  1  0  0  0  0
 35 37  1  0  0  0  0
 35 38  1  0  0  0  0
 35 39  1  0  0  0  0
 18 22  1  0  0  0  0
 18 23  1  0  0  0  0
 25 30  1  0  0  0  0
  8 13  1  0  0  0  0
 34 36  1  0  0  0  0
 17 21  1  0  0  0  0
  7 12  1  0  0  0  0
 24 29  1  0  0  0  0
M  END
$$$$

  -OEChem-05262214473D

 39 38  0     1  0  0  0  0  0999 V2000
   -3.5200   -4.0268   -1.6943 C   0  0  0  0  0  0  0  0  0  0  0  0
   -2.8702   -4.8827   -1.1054 O   0  0  0  0  0  0  0  0  0  0  0  0
   -4.9704   -4.2579   -1.9614 C   0  0  0  0  0  0  0  0  0  0  0  0
   -5.1456   -4.7573   -2.9278 H   0  0  0  0  0  0  0  0  0  0  0  0
   -5.4379   -4.9112   -1.2072 H   0  0  0  0  0  0  0  0  0  0  0  0
   -5.5954   -3.3510   -1.9864 H   0  0  0  0  0  0  0  0  0  0  0  0
   -3.0424   -2.8131   -2.1606 N   0  0  0  0  0  0  0  0  0  0  0  0
   -1.6755   -2.3891   -2.0077 C   0  0  2  0  0  0  0  0  0  0  0  0
   -1.5782   -1.5673   -0.7292 C   0  0  0  0  0  0  0  0  0  0  0  0
   -2.5448   -1.0064   -0.2171 O   0  0  0  0  0  0  0  0  0  0  0  0
   -1.2087   -1.5823   -3.2094 C   0  0  0  0  0  0  0  0  0  0  0  0
   -3.6915   -2.1888   -2.6360 H   0  0  0  0  0  0  0  0  0  0  0  0
   -1.0721   -3.2977   -1.9053 H   0  0  0  0  0  0  0  0  0  0  0  0
   -1.8017   -0.6681   -3.3281 H   0  0  0  0  0  0  0  0  0  0  0  0
   -0.1601   -1.2849   -3.1045 H   0  0  0  0  0  0  0  0  0  0  0  0
   -1.3074   -2.1646   -4.1319 H   0  0  0  0  0  0  0  0  0  0  0  0
   -0.2835   -1.5112   -0.2725 N   0  0  0  0  0  0  0  0  0  0  0  0
    0.0769   -0.7658    0.9424 C   0  0  0  0  0  0  0  0  0  0  0  0
    1.5710   -0.5727    0.9927 C   0  0  0  0  0  0  0  0  0  0  0  0
    2.1051    0.4958    1.2777 O   0  0  0  0  0  0  0  0  0  0  0  0
    0.4587   -2.0097   -0.7289 H   0  0  0  0  0  0  0  0  0  0  0  0
   -0.2517   -1.3286    1.8211 H   0  0  0  0  0  0  0  0  0  0  0  0
   -0.4225    0.2074    0.9281 H   0  0  0  0  0  0  0  0  0  0  0  0
    2.2496   -1.7447    0.6759 N   0  0  0  0  0  0  0  0  0  0  0  0
    3.6849   -1.8469    0.6435 C   0  0  2  0  0  0  0  0  0  0  0  0
    4.1007   -2.9398    1.6193 C   0  0  0  0  0  0  0  0  0  0  0  0
    3.3956   -3.3050    2.5577 O   0  0  0  0  0  0  0  0  0  0  0  0
    4.3421   -0.5223    0.9986 C   0  0  0  0  0  0  0  0  0  0  0  0
    1.7018   -2.5747    0.4552 H   0  0  0  0  0  0  0  0  0  0  0  0
    3.9579   -2.1429   -0.3753 H   0  0  0  0  0  0  0  0  0  0  0  0
    4.0801   -0.2094    2.0159 H   0  0  0  0  0  0  0  0  0  0  0  0
    5.4334   -0.5941    0.9456 H   0  0  0  0  0  0  0  0  0  0  0  0
    4.0187    0.2691    0.3138 H   0  0  0  0  0  0  0  0  0  0  0  0
    5.3701   -3.4292    1.3448 N   0  0  0  0  0  0  0  0  0  0  0  0
    5.9950   -4.4632    2.1362 C   0  0  0  0  0  0  0  0  0  0  0  0
    5.8753   -3.0816    0.5351 H   0  0  0  0  0  0  0  0  0  0  0  0
    6.6031   -4.0022    2.9284 H   0  0  0  0  0  0  0  0  0  0  0  0
    5.2187   -5.0959    2.5913 H   0  0  0  0  0  0  0  0  0  0  0  0
    6.6389   -5.0794    1.4915 H   0  0  0  0  0  0  0  0  0  0  0  0
  1  3  1  0  0  0  0
  1  7  1  0  0  0  0
  1  2  2  0  0  0  0
 18 19  1  0  0  0  0
 19 24  1  0  0  0  0
 19 20  2  0  0  0  0
 25 26  1  0  0  0  0
 26 34  1  0  0  0  0
 26 27  2  0  0  0  0
  8  9  1  0  0  0  0
  9 17  1  0  0  0  0
  9 10  2  0  0  0  0
 25 28  1  0  0  0  0
  8 11  1  0  0  0  0
 34 35  1  0  0  0  0
 17 18  1  0  0  0  0
 24 25  1  0  0  0  0
  7  8  1  0  0  0  0
  3  4  1  0  0  0  0
  3  5  1  0  0  0  0
  3  6  1  0  0  0  0
 28 31  1  0  0  0  0
 28 32  1  0  0  0  0
 28 33  1  0  0  0  0
 11 14  1  0  0  0  0
 11 15  1  0  0  0  0
 11 16  1  0  0  0  0
 35 37  1  0  0  0  0
 35 38  1  0  0  0  0
 35 39  1  0  0  0  0
 18 22  1  0  0  0  0
 18 23  1  0  0  0  0
 25 30  1  0  0  0  0
  8 13  1  0  0  0  0
 34 36  1  0  0  0  0
 17 21  1  0  0  0  0
  7 12  1  0  0  0  0
 24 29  1  0  0  0  0
M  END
$$$$

  -OEChem-05262214473D

 39 38  0     1  0  0  0  0  0999 V2000
   -3.5200   -4.0268   -1.6943 C   0  0  0  0  0  0  0  0  0  0  0  0
   -2.8702   -4.8827   -1.1054 O   0  0  0  0  0  0  0  0  0  0  0  0
   -4.9704   -4.2579   -1.9614 C   0  0  0  0  0  0  0  0  0  0  0  0
   -5.1456   -4.7573   -2.9278 H   0  0  0  0  0  0  0  0  0  0  0  0
   -5.4379   -4.9112   -1.2072 H   0  0  0  0  0  0  0  0  0  0  0  0
   -5.5954   -3.3510   -1.9864 H   0  0  0  0  0  0  0  0  0  0  0  0
   -3.0424   -2.8131   -2.1606 N   0  0  0  0  0  0  0  0  0  0  0  0
   -1.6755   -2.3891   -2.0077 C   0  0  2  0  0  0  0  0  0  0  0  0
   -1.5782   -1.5673   -0.7292 C   0  0  0  0  0  0  0  0  0  0  0  0
   -2.5448   -1.0064   -0.2171 O   0  0  0  0  0  0  0  0  0  0  0  0
   -1.2087   -1.5823   -3.2094 C   0  0  0  0  0  0  0  0  0  0  0  0
   -3.6915   -2.1888   -2.6360 H   0  0  0  0  0  0  0  0  0  0  0  0
   -1.0721   -3.2977   -1.9053 H   0  0  0  0  0  0  0  0  0  0  0  0
   -1.8017   -0.6681   -3.3281 H   0  0  0  0  0  0  0  0  0  0  0  0
   -0.1601   -1.2849   -3.1045 H   0  0  0  0  0  0  0  0  0  0  0  0
   -1.3074   -2.1646   -4.1319 H   0  0  0  0  0  0  0  0  0  0  0  0
   -0.2835   -1.5112   -0.2725 N   0  0  0  0  0  0  0  0  0  0  0  0
    0.0769   -0.7658    0.9424 C   0  0  0  0  0  0  0  0  0  0  0  0
    1.5710   -0.5727    0.9927 C   0  0  0  0  0  0  0  0  0  0  0  0
    2.1100    0.3939    1.5252 O   0  0  0  0  0  0  0  0  0  0  0  0
    0.4587   -2.0097   -0.7289 H   0  0  0  0  0  0  0  0  0  0  0  0
   -0.2517   -1.3286    1.8211 H   0  0  0  0  0  0  0  0  0  0  0  0
   -0.4225    0.2074    0.9281 H   0  0  0  0  0  0  0  0  0  0  0  0
    2.2434   -1.6154    0.3642 N   0  0  0  0  0  0  0  0  0  0  0  0
    3.6771   -1.6873    0.2606 C   0  0  2  0  0  0  0  0  0  0  0  0
    4.1309   -2.9883    0.9094 C   0  0  0  0  0  0  0  0  0  0  0  0
    3.4599   -3.5910    1.7447 O   0  0  0  0  0  0  0  0  0  0  0  0
    4.3404   -0.4896    0.9226 C   0  0  0  0  0  0  0  0  0  0  0  0
    1.6920   -2.3681   -0.0446 H   0  0  0  0  0  0  0  0  0  0  0  0
    3.9163   -1.7086   -0.8082 H   0  0  0  0  0  0  0  0  0  0  0  0
    4.1121   -0.4514    1.9940 H   0  0  0  0  0  0  0  0  0  0  0  0
    5.4296   -0.5312    0.8181 H   0  0  0  0  0  0  0  0  0  0  0  0
    3.9904    0.4467    0.4746 H   0  0  0  0  0  0  0  0  0  0  0  0
    5.3922   -3.3745    0.4780 N   0  0  0  0  0  0  0  0  0  0  0  0
    6.0483   -4.5686    0.9570 C   0  0  0  0  0  0  0  0  0  0  0  0
    5.8678   -2.8244   -0.2312 H   0  0  0  0  0  0  0  0  0  0  0  0
    6.6812   -4.3184    1.8211 H   0  0  0  0  0  0  0  0  0  0  0  0
    5.2908   -5.3069    1.2591 H   0  0  0  0  0  0  0  0  0  0  0  0
    6.6724   -4.9906    0.1555 H   0  0  0  0  0  0  0  0  0  0  0  0
  1  3  1  0  0  0  0
  1  7  1  0  0  0  0
  1  2  2  0  0  0  0
 18 19  1  0  0  0  0
 19 24  1  0  0  0  0
 19 20  2  0  0  0  0
 25 26  1  0  0  0  0
 26 34  1  0  0  0  0
 26 27  2  0  0  0  0
  8  9  1  0  0  0  0
  9 17  1  0  0  0  0
  9 10  2  0  0  0  0
 25 28  1  0  0  0  0
  8 11  1  0  0  0  0
 34 35  1  0  0  0  0
 17 18  1  0  0  0  0
 24 25  1  0  0  0  0
  7  8  1  0  0  0  0
  3  4  1  0  0  0  0
  3  5  1  0  0  0  0
  3  6  1  0  0  0  0
 28 31  1  0  0  0  0
 28 32  1  0  0  0  0
 28 33  1  0  0  0  0
 11 14  1  0  0  0  0
 11 15  1  0  0  0  0
 11 16  1  0  0  0  0
 35 37  1  0  0  0  0
 35 38  1  0  0  0  0
 35 39  1  0  0  0  0
 18 22  1  0  0  0  0
 18 23  1  0  0  0  0
 25 30  1  0  0  0  0
  8 13  1  0  0  0  0
 34 36  1  0  0  0  0
 17 21  1  0  0  0  0
  7 12  1  0  0  0  0
 24 29  1  0  0  0  0
M  END
$$$$

  -OEChem-05262214473D

 39 38  0     1  0  0  0  0  0999 V2000
   -3.5200   -4.0268   -1.6943 C   0  0  0  0  0  0  0  0  0  0  0  0
   -2.8702   -4.8827   -1.1054 O   0  0  0  0  0  0  0  0  0  0  0  0
   -4.9704   -4.2579   -1.9614 C   0  0  0  0  0  0  0  0  0  0  0  0
   -5.1456   -4.7573   -2.9278 H   0  0  0  0  0  0  0  0  0  0  0  0
   -5.4379   -4.9112   -1.2072 H   0  0  0  0  0  0  0  0  0  0  0  0
   -5.5954   -3.3510   -1.9864 H   0  0  0  0  0  0  0  0  0  0  0  0
   -3.0424   -2.8131   -2.1606 N   0  0  0  0  0  0  0  0  0  0  0  0
   -1.6755   -2.3891   -2.0077 C   0  0  2  0  0  0  0  0  0  0  0  0
   -1.5782   -1.5673   -0.7292 C   0  0  0  0  0  0  0  0  0  0  0  0
   -2.5448   -1.0064   -0.2171 O   0  0  0  0  0  0  0  0  0  0  0  0
   -1.2087   -1.5823   -3.2094 C   0  0  0  0  0  0  0  0  0  0  0  0
   -3.6915   -2.1888   -2.6360 H   0  0  0  0  0  0  0  0  0  0  0  0
   -1.0721   -3.2977   -1.9053 H   0  0  0  0  0  0  0  0  0  0  0  0
   -1.8017   -0.6681   -3.3281 H   0  0  0  0  0  0  0  0  0  0  0  0
   -0.1601   -1.2849   -3.1045 H   0  0  0  0  0  0  0  0  0  0  0  0
   -1.3074   -2.1646   -4.1319 H   0  0  0  0  0  0  0  0  0  0  0  0
   -0.2835   -1.5112   -0.2725 N   0  0  0  0  0  0  0  0  0  0  0  0
    0.0769   -0.7658    0.9424 C   0  0  0  0  0  0  0  0  0  0  0  0
    1.5710   -0.5727    0.9927 C   0  0  0  0  0  0  0  0  0  0  0  0
    2.1237    0.2320    1.7379 O   0  0  0  0  0  0  0  0  0  0  0  0
    0.4587   -2.0097   -0.7289 H   0  0  0  0  0  0  0  0  0  0  0  0
   -0.2517   -1.3286    1.8211 H   0  0  0  0  0  0  0  0  0  0  0  0
   -0.4225    0.2074    0.9281 H   0  0  0  0  0  0  0  0  0  0  0  0
    2.2260   -1.4106    0.0964 N   0  0  0  0  0  0  0  0  0  0  0  0
    3.6556   -1.4349   -0.0680 C   0  0  2  0  0  0  0  0  0  0  0  0
    4.1369   -2.8528    0.2103 C   0  0  0  0  0  0  0  0  0  0  0  0
    3.4976   -3.6582    0.8838 O   0  0  0  0  0  0  0  0  0  0  0  0
    4.3360   -0.4385    0.8577 C   0  0  0  0  0  0  0  0  0  0  0  0
    1.6641   -2.0404   -0.4740 H   0  0  0  0  0  0  0  0  0  0  0  0
    3.8581   -1.1784   -1.1135 H   0  0  0  0  0  0  0  0  0  0  0  0
    4.1444   -0.6792    1.9097 H   0  0  0  0  0  0  0  0  0  0  0  0
    5.4212   -0.4378    0.7112 H   0  0  0  0  0  0  0  0  0  0  0  0
    3.9668    0.5767    0.6765 H   0  0  0  0  0  0  0  0  0  0  0  0
    5.3843   -3.0991   -0.3460 N   0  0  0  0  0  0  0  0  0  0  0  0
    6.0616   -4.3675   -0.2108 C   0  0  0  0  0  0  0  0  0  0  0  0
    5.8330   -2.3794   -0.9050 H   0  0  0  0  0  0  0  0  0  0  0  0
    6.7227   -4.3390    0.6679 H   0  0  0  0  0  0  0  0  0  0  0  0
    5.3182   -5.1683   -0.0843 H   0  0  0  0  0  0  0  0  0  0  0  0
    6.6597   -4.5617   -1.1134 H   0  0  0  0  0  0  0  0  0  0  0  0
  1  3  1  0  0  0  0
  1  7  1  0  0  0  0
  1  2  2  0  0  0  0
 18 19  1  0  0  0  0
 19 24  1  0  0  0  0
 19 20  2  0  0  0  0
 25 26  1  0  0  0  0
 26 34  1  0  0  0  0
 26 27  2  0  0  0  0
  8  9  1  0  0  0  0
  9 17  1  0  0  0  0
  9 10  2  0  0  0  0
 25 28  1  0  0  0  0
  8 11  1  0  0  0  0
 34 35  1  0  0  0  0
 17 18  1  0  0  0  0
 24 25  1  0  0  0  0
  7  8  1  0  0  0  0
  3  4  1  0  0  0  0
  3  5  1  0  0  0  0
  3  6  1  0  0  0  0
 28 31  1  0  0  0  0
 28 32  1  0  0  0  0
 28 33  1  0  0  0  0
 11 14  1  0  0  0  0
 11 15  1  0  0  0  0
 11 16  1  0  0  0  0
 35 37  1  0  0  0  0
 35 38  1  0  0  0  0
 35 39  1  0  0  0  0
 18 22  1  0  0  0  0
 18 23  1  0  0  0  0
 25 30  1  0  0  0  0
  8 13  1  0  0  0  0
 34 36  1  0  0  0  0
 17 21  1  0  0  0  0
  7 12  1  0  0  0  0
 24 29  1  0  0  0  0
M  END
$$$$

  -OEChem-05262214473D

 39 38  0     1  0  0  0  0  0999 V2000
   -3.5200   -4.0268   -1.6943 C   0  0  0  0  0  0  0  0  0  0  0  0
   -2.8702   -4.8827   -1.1054 O   0  0  0  0  0  0  0  0  0  0  0  0
   -4.9704   -4.2579   -1.9614 C   0  0  0  0  0  0  0  0  0  0  0  0
   -5.1456   -4.7573   -2.9278 H   0  0  0  0  0  0  0  0  0  0  0  0
   -5.4379   -4.9112   -1.2072 H   0  0  0  0  0  0  0  0  0  0  0  0
   -5.5954   -3.3510   -1.9864 H   0  0  0  0  0  0  0  0  0  0  0  0
   -3.0424   -2.8131   -2.1606 N   0  0  0  0  0  0  0  0  0  0  0  0
   -1.6755   -2.3891   -2.0077 C   0  0  2  0  0  0  0  0  0  0  0  0
   -1.5782   -1.5673   -0.7292 C   0  0  0  0  0  0  0  0  0  0  0  0
   -2.5448   -1.0064   -0.2171 O   0  0  0  0  0  0  0  0  0  0  0  0
   -1.2087   -1.5823   -3.2094 C   0  0  0  0  0  0  0  0  0  0  0  0
   -3.6915   -2.1888   -2.6360 H   0  0  0  0  0  0  0  0  0  0  0  0
   -1.0721   -3.2977   -1.9053 H   0  0  0  0  0  0  0  0  0  0  0  0
   -1.8017   -0.6681   -3.3281 H   0  0  0  0  0  0  0  0  0  0  0  0
   -0.1601   -1.2849   -3.1045 H   0  0  0  0  0  0  0  0  0  0  0  0
   -1.3074   -2.1646   -4.1319 H   0  0  0  0  0  0  0  0  0  0  0  0
   -0.2835   -1.5112   -0.2725 N   0  0  0  0  0  0  0  0  0  0  0  0
    0.0769   -0.7658    0.9424 C   0  0  0  0  0  0  0  0  0  0  0  0
    1.5710   -0.5727    0.9927 C   0  0  0  0  0  0  0  0  0  0  0  0
    2.1455    0.0211    1.9014 O   0  0  0  0  0  0  0  0  0  0  0  0
    0.4587   -2.0097   -0.7289 H   0  0  0  0  0  0  0  0  0  0  0  0
   -0.2517   -1.3286    1.8211 H   0  0  0  0  0  0  0  0  0  0  0  0
   -0.4225    0.2074    0.9281 H   0  0  0  0  0  0  0  0  0  0  0  0
    2.1985   -1.1442   -0.1091 N   0  0  0  0  0  0  0  0  0  0  0  0
    3.6217   -1.1071   -0.3199 C   0  0  2  0  0  0  0  0  0  0  0  0
    4.1184   -2.5425   -0.4305 C   0  0  0  0  0  0  0  0  0  0  0  0
    3.5060   -3.5019    0.0339 O   0  0  0  0  0  0  0  0  0  0  0  0
    4.3291   -0.3725    0.8082 C   0  0  0  0  0  0  0  0  0  0  0  0
    1.6201   -1.6139   -0.8038 H   0  0  0  0  0  0  0  0  0  0  0  0
    3.7872   -0.5884   -1.2705 H   0  0  0  0  0  0  0  0  0  0  0  0
    4.1747   -0.8774    1.7688 H   0  0  0  0  0  0  0  0  0  0  0  0
    5.4086   -0.3203    0.6321 H   0  0  0  0  0  0  0  0  0  0  0  0
    3.9496    0.6503    0.9056 H   0  0  0  0  0  0  0  0  0  0  0  0
    5.3471   -2.6217   -1.0710 N   0  0  0  0  0  0  0  0  0  0  0  0
    6.0340   -3.8736   -1.2877 C   0  0  0  0  0  0  0  0  0  0  0  0
    5.7733   -1.7771   -1.4406 H   0  0  0  0  0  0  0  0  0  0  0  0
    6.7247   -4.0627   -0.4527 H   0  0  0  0  0  0  0  0  0  0  0  0
    5.2988   -4.6896   -1.3472 H   0  0  0  0  0  0  0  0  0  0  0  0
    6.6017   -3.8221   -2.2285 H   0  0  0  0  0  0  0  0  0  0  0  0
  1  3  1  0  0  0  0
  1  7  1  0  0  0  0
  1  2  2  0  0  0  0
 18 19  1  0  0  0  0
 19 24  1  0  0  0  0
 19 20  2  0  0  0  0
 25 26  1  0  0  0  0
 26 34  1  0  0  0  0
 26 27  2  0  0  0  0
  8  9  1  0  0  0  0
  9 17  1  0  0  0  0
  9 10  2  0  0  0  0
 25 28  1  0  0  0  0
  8 11  1  0  0  0  0
 34 35  1  0  0  0  0
 17 18  1  0  0  0  0
 24 25  1  0  0  0  0
  7  8  1  0  0  0  0
  3  4  1  0  0  0  0
  3  5  1  0  0  0  0
  3  6  1  0  0  0  0
 28 31  1  0  0  0  0
 28 32  1  0  0  0  0
 28 33  1  0  0  0  0
 11 14  1  0  0  0  0
 11 15  1  0  0  0  0
 11 16  1  0  0  0  0
 35 37  1  0  0  0  0
 35 38  1  0  0  0  0
 35 39  1  0  0  0  0
 18 22  1  0  0  0  0
 18 23  1  0  0  0  0
 25 30  1  0  0  0  0
  8 13  1  0  0  0  0
 34 36  1  0  0  0  0
 17 21  1  0  0  0  0
  7 12  1  0  0  0  0
 24 29  1  0  0  0  0
M  END
$$$$

  -OEChem-05262214473D

 39 38  0     1  0  0  0  0  0999 V2000
   -3.5200   -4.0268   -1.6943 C   0  0  0  0  0  0  0  0  0  0  0  0
   -2.8702   -4.8827   -1.1054 O   0  0  0  0  0  0  0  0  0  0  0  0
   -4.9704   -4.2579   -1.9614 C   0  0  0  0  0  0  0  0  0  0  0  0
   -5.1456   -4.7573   -2.9278 H   0  0  0  0  0  0  0  0  0  0  0  0
   -5.4379   -4.9112   -1.2072 H   0  0  0  0  0  0  0  0  0  0  0  0
   -5.5954   -3.3510   -1.9864 H   0  0  0  0  0  0  0  0  0  0  0  0
   -3.0424   -2.8131   -2.1606 N   0  0  0  0  0  0  0  0  0  0  0  0
   -1.6755   -2.3891   -2.0077 C   0  0  2  0  0  0  0  0  0  0  0  0
   -1.5782   -1.5673   -0.7292 C   0  0  0  0  0  0  0  0  0  0  0  0
   -2.5448   -1.0064   -0.2171 O   0  0  0  0  0  0  0  0  0  0  0  0
   -1.2087   -1.5823   -3.2094 C   0  0  0  0  0  0  0  0  0  0  0  0
   -3.6915   -2.1888   -2.6360 H   0  0  0  0  0  0  0  0  0  0  0  0
   -1.0721   -3.2977   -1.9053 H   0  0  0  0  0  0  0  0  0  0  0  0
   -1.8017   -0.6681   -3.3281 H   0  0  0  0  0  0  0  0  0  0  0  0
   -0.1601   -1.2849   -3.1045 H   0  0  0  0  0  0  0  0  0  0  0  0
   -1.3074   -2.1646   -4.1319 H   0  0  0  0  0  0  0  0  0  0  0  0
   -0.2835   -1.5112   -0.2725 N   0  0  0  0  0  0  0  0  0  0  0  0
    0.0769   -0.7658    0.9424 C   0  0  0  0  0  0  0  0  0  0  0  0
    1.5710   -0.5727    0.9927 C   0  0  0  0  0  0  0  0  0  0  0  0
    2.1737   -0.2244    2.0045 O   0  0  0  0  0  0  0  0  0  0  0  0
    0.4587   -2.0097   -0.7289 H   0  0  0  0  0  0  0  0  0  0  0  0
   -0.2517   -1.3286    1.8211 H   0  0  0  0  0  0  0  0  0  0  0  0
   -0.4225    0.2074    0.9281 H   0  0  0  0  0  0  0  0  0  0  0  0
    2.1628   -0.8344   -0.2384 N   0  0  0  0  0  0  0  0  0  0  0  0
    3.5778   -0.7260   -0.4780 C   0  0  2  0  0  0  0  0  0  0  0  0
    4.0766   -2.0786   -0.9693 C   0  0  0  0  0  0  0  0  0  0  0  0
    3.4846   -3.1328   -0.7473 O   0  0  0  0  0  0  0  0  0  0  0  0
    4.3203   -0.2962    0.7776 C   0  0  0  0  0  0  0  0  0  0  0  0
    1.5630   -1.1178   -1.0114 H   0  0  0  0  0  0  0  0  0  0  0  0
    3.7084    0.0211   -1.2685 H   0  0  0  0  0  0  0  0  0  0  0  0
    4.2011   -1.0325    1.5808 H   0  0  0  0  0  0  0  0  0  0  0  0
    5.3929   -0.1865    0.5863 H   0  0  0  0  0  0  0  0  0  0  0  0
    3.9399    0.6625    1.1464 H   0  0  0  0  0  0  0  0  0  0  0  0
    5.2829   -1.9750   -1.6476 N   0  0  0  0  0  0  0  0  0  0  0  0
    5.9674   -3.1204   -2.2002 C   0  0  0  0  0  0  0  0  0  0  0  0
    5.6926   -1.0583   -1.8015 H   0  0  0  0  0  0  0  0  0  0  0  0
    6.6872   -3.5084   -1.4644 H   0  0  0  0  0  0  0  0  0  0  0  0
    5.2341   -3.9034   -2.4437 H   0  0  0  0  0  0  0  0  0  0  0  0
    6.5023   -2.8221   -3.1140 H   0  0  0  0  0  0  0  0  0  0  0  0
  1  3  1  0  0  0  0
  1  7  1  0  0  0  0
  1  2  2  0  0  0  0
 18 19  1  0  0  0  0
 19 24  1  0  0  0  0
 19 20  2  0  0  0  0
 25 26  1  0  0  0  0
 26 34  1  0  0  0  0
 26 27  2  0  0  0  0
  8  9  1  0  0  0  0
  9 17  1  0  0  0  0
  9 10  2  0  0  0  0
 25 28  1  0  0  0  0
  8 11  1  0  0  0  0
 34 35  1  0  0  0  0
 17 18  1  0  0  0  0
 24 25  1  0  0  0  0
  7  8  1  0  0  0  0
  3  4  1  0  0  0  0
  3  5  1  0  0  0  0
  3  6  1  0  0  0  0
 28 31  1  0  0  0  0
 28 32  1  0  0  0  0
 28 33  1  0  0  0  0
 11 14  1  0  0  0  0
 11 15  1  0  0  0  0
 11 16  1  0  0  0  0
 35 37  1  0  0  0  0
 35 38  1  0  0  0  0
 35 39  1  0  0  0  0
 18 22  1  0  0  0  0
 18 23  1  0  0  0  0
 25 30  1  0  0  0  0
  8 13  1  0  0  0  0
 34 36  1  0  0  0  0
 17 21  1  0  0  0  0
  7 12  1  0  0  0  0
 24 29  1  0  0  0  0
M  END
$$$$

  -OEChem-05262214473D

 39 38  0     1  0  0  0  0  0999 V2000
   -3.5200   -4.0268   -1.6943 C   0  0  0  0  0  0  0  0  0  0  0  0
   -2.8702   -4.8827   -1.1054 O   0  0  0  0  0  0  0  0  0  0  0  0
   -4.9704   -4.2579   -1.9614 C   0  0  0  0  0  0  0  0  0  0  0  0
   -5.1456   -4.7573   -2.9278 H   0  0  0  0  0  0  0  0  0  0  0  0
   -5.4379   -4.9112   -1.2072 H   0  0  0  0  0  0  0  0  0  0  0  0
   -5.5954   -3.3510   -1.9864 H   0  0  0  0  0  0  0  0  0  0  0  0
   -3.0424   -2.8131   -2.1606 N   0  0  0  0  0  0  0  0  0  0  0  0
   -1.6755   -2.3891   -2.0077 C   0  0  2  0  0  0  0  0  0  0  0  0
   -1.5782   -1.5673   -0.7292 C   0  0  0  0  0  0  0  0  0  0  0  0
   -2.5448   -1.0064   -0.2171 O   0  0  0  0  0  0  0  0  0  0  0  0
   -1.2087   -1.5823   -3.2094 C   0  0  0  0  0  0  0  0  0  0  0  0
   -3.6915   -2.1888   -2.6360 H   0  0  0  0  0  0  0  0  0  0  0  0
   -1.0721   -3.2977   -1.9053 H   0  0  0  0  0  0  0  0  0  0  0  0
   -1.8017   -0.6681   -3.3281 H   0  0  0  0  0  0  0  0  0  0  0  0
   -0.1601   -1.2849   -3.1045 H   0  0  0  0  0  0  0  0  0  0  0  0
   -1.3074   -2.1646   -4.1319 H   0  0  0  0  0  0  0  0  0  0  0  0
   -0.2835   -1.5112   -0.2725 N   0  0  0  0  0  0  0  0  0  0  0  0
    0.0769   -0.7658    0.9424 C   0  0  0  0  0  0  0  0  0  0  0  0
    1.5710   -0.5727    0.9927 C   0  0  0  0  0  0  0  0  0  0  0  0
    2.2065   -0.4877    2.0402 O   0  0  0  0  0  0  0  0  0  0  0  0
    0.4587   -2.0097   -0.7289 H   0  0  0  0  0  0  0  0  0  0  0  0
   -0.2517   -1.3286    1.8211 H   0  0  0  0  0  0  0  0  0  0  0  0
   -0.4225    0.2074    0.9281 H   0  0  0  0  0  0  0  0  0  0  0  0
    2.1214   -0.5023   -0.2826 N   0  0  0  0  0  0  0  0  0  0  0  0
    3.5269   -0.3178   -0.5316 C   0  0  2  0  0  0  0  0  0  0  0  0
    4.0143   -1.4926   -1.3692 C   0  0  0  0  0  0  0  0  0  0  0  0
    3.4348   -2.5760   -1.4065 O   0  0  0  0  0  0  0  0  0  0  0  0
    4.3101   -0.2147    0.7679 C   0  0  0  0  0  0  0  0  0  0  0  0
    1.4966   -0.5858   -1.0829 H   0  0  0  0  0  0  0  0  0  0  0  0
    3.6271    0.6087   -1.1075 H   0  0  0  0  0  0  0  0  0  0  0  0
    4.2216   -1.1338    1.3586 H   0  0  0  0  0  0  0  0  0  0  0  0
    5.3750   -0.0457    0.5770 H   0  0  0  0  0  0  0  0  0  0  0  0
    3.9384    0.6124    1.3824 H   0  0  0  0  0  0  0  0  0  0  0  0
    5.1963   -1.2029   -2.0365 N   0  0  0  0  0  0  0  0  0  0  0  0
    5.8664   -2.1594   -2.8863 C   0  0  0  0  0  0  0  0  0  0  0  0
    5.5964   -0.2722   -1.9630 H   0  0  0  0  0  0  0  0  0  0  0  0
    6.6126   -2.7137   -2.2981 H   0  0  0  0  0  0  0  0  0  0  0  0
    5.1286   -2.8632   -3.2989 H   0  0  0  0  0  0  0  0  0  0  0  0
    6.3683   -1.6299   -3.7095 H   0  0  0  0  0  0  0  0  0  0  0  0
  1  3  1  0  0  0  0
  1  7  1  0  0  0  0
  1  2  2  0  0  0  0
 18 19  1  0  0  0  0
 19 24  1  0  0  0  0
 19 20  2  0  0  0  0
 25 26  1  0  0  0  0
 26 34  1  0  0  0  0
 26 27  2  0  0  0  0
  8  9  1  0  0  0  0
  9 17  1  0  0  0  0
  9 10  2  0  0  0  0
 25 28  1  0  0  0  0
  8 11  1  0  0  0  0
 34 35  1  0  0  0  0
 17 18  1  0  0  0  0
 24 25  1  0  0  0  0
  7  8  1  0  0  0  0
  3  4  1  0  0  0  0
  3  5  1  0  0  0  0
  3  6  1  0  0  0  0
 28 31  1  0  0  0  0
 28 32  1  0  0  0  0
 28 33  1  0  0  0  0
 11 14  1  0  0  0  0
 11 15  1  0  0  0  0
 11 16  1  0  0  0  0
 35 37  1  0  0  0  0
 35 38  1  0  0  0  0
 35 39  1  0  0  0  0
 18 22  1  0  0  0  0
 18 23  1  0  0  0  0
 25 30  1  0  0  0  0
  8 13  1  0  0  0  0
 34 36  1  0  0  0  0
 17 21  1  0  0  0  0
  7 12  1  0  0  0  0
 24 29  1  0  0  0  0
M  END
$$$$

  -OEChem-05262214473D

 39 38  0     1  0  0  0  0  0999 V2000
   -3.5200   -4.0268   -1.6943 C   0  0  0  0  0  0  0  0  0  0  0  0
   -2.8702   -4.8827   -1.1054 O   0  0  0  0  0  0  0  0  0  0  0  0
   -4.9704   -4.2579   -1.9614 C   0  0  0  0  0  0  0  0  0  0  0  0
   -5.1456   -4.7573   -2.9278 H   0  0  0  0  0  0  0  0  0  0  0  0
   -5.4379   -4.9112   -1.2072 H   0  0  0  0  0  0  0  0  0  0  0  0
   -5.5954   -3.3510   -1.9864 H   0  0  0  0  0  0  0  0  0  0  0  0
   -3.0424   -2.8131   -2.1606 N   0  0  0  0  0  0  0  0  0  0  0  0
   -1.6755   -2.3891   -2.0077 C   0  0  2  0  0  0  0  0  0  0  0  0
   -1.5782   -1.5673   -0.7292 C   0  0  0  0  0  0  0  0  0  0  0  0
   -2.5448   -1.0064   -0.2171 O   0  0  0  0  0  0  0  0  0  0  0  0
   -1.2087   -1.5823   -3.2094 C   0  0  0  0  0  0  0  0  0  0  0  0
   -3.6915   -2.1888   -2.6360 H   0  0  0  0  0  0  0  0  0  0  0  0
   -1.0721   -3.2977   -1.9053 H   0  0  0  0  0  0  0  0  0  0  0  0
   -1.8017   -0.6681   -3.3281 H   0  0  0  0  0  0  0  0  0  0  0  0
   -0.1601   -1.2849   -3.1045 H   0  0  0  0  0  0  0  0  0  0  0  0
   -1.3074   -2.1646   -4.1319 H   0  0  0  0  0  0  0  0  0  0  0  0
   -0.2835   -1.5112   -0.2725 N   0  0  0  0  0  0  0  0  0  0  0  0
    0.0769   -0.7658    0.9424 C   0  0  0  0  0  0  0  0  0  0  0  0
    1.5710   -0.5727    0.9927 C   0  0  0  0  0  0  0  0  0  0  0  0
    2.2417   -0.7508    2.0061 O   0  0  0  0  0  0  0  0  0  0  0  0
    0.4587   -2.0097   -0.7289 H   0  0  0  0  0  0  0  0  0  0  0  0
   -0.2517   -1.3286    1.8211 H   0  0  0  0  0  0  0  0  0  0  0  0
   -0.4225    0.2074    0.9281 H   0  0  0  0  0  0  0  0  0  0  0  0
    2.0770   -0.1705   -0.2388 N   0  0  0  0  0  0  0  0  0  0  0  0
    3.4724    0.0899   -0.4769 C   0  0  2  0  0  0  0  0  0  0  0  0
    3.9359   -0.8245   -1.6032 C   0  0  0  0  0  0  0  0  0  0  0  0
    3.3602   -1.8696   -1.8987 O   0  0  0  0  0  0  0  0  0  0  0  0
    4.2992   -0.1335    0.7798 C   0  0  0  0  0  0  0  0  0  0  0  0
    1.4256   -0.0541   -1.0132 H   0  0  0  0  0  0  0  0  0  0  0  0
    3.5488    1.1342   -0.7986 H   0  0  0  0  0  0  0  0  0  0  0  0
    4.2350   -1.1744    1.1173 H   0  0  0  0  0  0  0  0  0  0  0  0
    5.3562    0.0925    0.6046 H   0  0  0  0  0  0  0  0  0  0  0  0
    3.9453    0.5035    1.5976 H   0  0  0  0  0  0  0  0  0  0  0  0
    5.0930   -0.3581   -2.2112 N   0  0  0  0  0  0  0  0  0  0  0  0
    5.7377   -1.0560   -3.2990 C   0  0  0  0  0  0  0  0  0  0  0  0
    5.4915    0.5277   -1.9141 H   0  0  0  0  0  0  0  0  0  0  0  0
    6.5060   -1.7328   -2.8970 H   0  0  0  0  0  0  0  0  0  0  0  0
    4.9892   -1.6400   -3.8547 H   0  0  0  0  0  0  0  0  0  0  0  0
    6.2089   -0.3266   -3.9744 H   0  0  0  0  0  0  0  0  0  0  0  0
  1  3  1  0  0  0  0
  1  7  1  0  0  0  0
  1  2  2  0  0  0  0
 18 19  1  0  0  0  0
 19 24  1  0  0  0  0
 19 20  2  0  0  0  0
 25 26  1  0  0  0  0
 26 34  1  0  0  0  0
 26 27  2  0  0  0  0
  8  9  1  0  0  0  0
  9 17  1  0  0  0  0
  9 10  2  0  0  0  0
 25 28  1  0  0  0  0
  8 11  1  0  0  0  0
 34 35  1  0  0  0  0
 17 18  1  0  0  0  0
 24 25  1  0  0  0  0
  7  8  1  0  0  0  0
  3  4  1  0  0  0  0
  3  5  1  0  0  0  0
  3  6  1  0  0  0  0
 28 31  1  0  0  0  0
 28 32  1  0  0  0  0
 28 33  1  0  0  0  0
 11 14  1  0  0  0  0
 11 15  1  0  0  0  0
 11 16  1  0  0  0  0
 35 37  1  0  0  0  0
 35 38  1  0  0  0  0
 35 39  1  0  0  0  0
 18 22  1  0  0  0  0
 18 23  1  0  0  0  0
 25 30  1  0  0  0  0
  8 13  1  0  0  0  0
 34 36  1  0  0  0  0
 17 21  1  0  0  0  0
  7 12  1  0  0  0  0
 24 29  1  0  0  0  0
M  END
$$$$

  -OEChem-05262214473D

 39 38  0     1  0  0  0  0  0999 V2000
   -3.5200   -4.0268   -1.6943 C   0  0  0  0  0  0  0  0  0  0  0  0
   -2.8702   -4.8827   -1.1054 O   0  0  0  0  0  0  0  0  0  0  0  0
   -4.9704   -4.2579   -1.9614 C   0  0  0  0  0  0  0  0  0  0  0  0
   -5.1456   -4.7573   -2.9278 H   0  0  0  0  0  0  0  0  0  0  0  0
   -5.4379   -4.9112   -1.2072 H   0  0  0  0  0  0  0  0  0  0  0  0
   -5.5954   -3.3510   -1.9864 H   0  0  0  0  0  0  0  0  0  0  0  0
   -3.0424   -2.8131   -2.1606 N   0  0  0  0  0  0  0  0  0  0  0  0
   -1.6755   -2.3891   -2.0077 C   0  0  2  0  0  0  0  0  0  0  0  0
   -1.5782   -1.5673   -0.7292 C   0  0  0  0  0  0  0  0  0  0  0  0
   -2.5448   -1.0064   -0.2171 O   0  0  0  0  0  0  0  0  0  0  0  0
   -1.2087   -1.5823   -3.2094 C   0  0  0  0  0  0  0  0  0  0  0  0
   -3.6915   -2.1888   -2.6360 H   0  0  0  0  0  0  0  0  0  0  0  0
   -1.0721   -3.2977   -1.9053 H   0  0  0  0  0  0  0  0  0  0  0  0
   -1.8017   -0.6681   -3.3281 H   0  0  0  0  0  0  0  0  0  0  0  0
   -0.1601   -1.2849   -3.1045 H   0  0  0  0  0  0  0  0  0  0  0  0
   -1.3074   -2.1646   -4.1319 H   0  0  0  0  0  0  0  0  0  0  0  0
   -0.2835   -1.5112   -0.2725 N   0  0  0  0  0  0  0  0  0  0  0  0
    0.0769   -0.7658    0.9424 C   0  0  0  0  0  0  0  0  0  0  0  0
    1.5710   -0.5727    0.9927 C   0  0  0  0  0  0  0  0  0  0  0  0
    2.2768   -0.9960    1.9044 O   0  0  0  0  0  0  0  0  0  0  0  0
    0.4587   -2.0097   -0.7289 H   0  0  0  0  0  0  0  0  0  0  0  0
   -0.2517   -1.3286    1.8211 H   0  0  0  0  0  0  0  0  0  0  0  0
   -0.4225    0.2074    0.9281 H   0  0  0  0  0  0  0  0  0  0  0  0
    2.0328    0.1383   -0.1098 N   0  0  0  0  0  0  0  0  0  0  0  0
    3.4180    0.4691   -0.3176 C   0  0  2  0  0  0  0  0  0  0  0  0
    3.8466   -0.1198   -1.6552 C   0  0  0  0  0  0  0  0  0  0  0  0
    3.2656   -1.0616   -2.1905 O   0  0  0  0  0  0  0  0  0  0  0  0
    4.2884   -0.0583    0.8124 C   0  0  0  0  0  0  0  0  0  0  0  0
    1.3547    0.4409   -0.8071 H   0  0  0  0  0  0  0  0  0  0  0  0
    3.4789    1.5619   -0.3628 H   0  0  0  0  0  0  0  0  0  0  0  0
    4.2403   -1.1517    0.8733 H   0  0  0  0  0  0  0  0  0  0  0  0
    5.3378    0.2188    0.6674 H   0  0  0  0  0  0  0  0  0  0  0  0
    3.9599    0.3431    1.7772 H   0  0  0  0  0  0  0  0  0  0  0  0
    4.9802    0.5018   -2.1598 N   0  0  0  0  0  0  0  0  0  0  0  0
    5.5903    0.1146   -3.4104 C   0  0  0  0  0  0  0  0  0  0  0  0
    5.3848    1.2869   -1.6582 H   0  0  0  0  0  0  0  0  0  0  0  0
    6.3748   -0.6327   -3.2204 H   0  0  0  0  0  0  0  0  0  0  0  0
    4.8257   -0.3170   -4.0731 H   0  0  0  0  0  0  0  0  0  0  0  0
    6.0348    0.9988   -3.8906 H   0  0  0  0  0  0  0  0  0  0  0  0
  1  3  1  0  0  0  0
  1  7  1  0  0  0  0
  1  2  2  0  0  0  0
 18 19  1  0  0  0  0
 19 24  1  0  0  0  0
 19 20  2  0  0  0  0
 25 26  1  0  0  0  0
 26 34  1  0  0  0  0
 26 27  2  0  0  0  0
  8  9  1  0  0  0  0
  9 17  1  0  0  0  0
  9 10  2  0  0  0  0
 25 28  1  0  0  0  0
  8 11  1  0  0  0  0
 34 35  1  0  0  0  0
 17 18  1  0  0  0  0
 24 25  1  0  0  0  0
  7  8  1  0  0  0  0
  3  4  1  0  0  0  0
  3  5  1  0  0  0  0
  3  6  1  0  0  0  0
 28 31  1  0  0  0  0
 28 32  1  0  0  0  0
 28 33  1  0  0  0  0
 11 14  1  0  0  0  0
 11 15  1  0  0  0  0
 11 16  1  0  0  0  0
 35 37  1  0  0  0  0
 35 38  1  0  0  0  0
 35 39  1  0  0  0  0
 18 22  1  0  0  0  0
 18 23  1  0  0  0  0
 25 30  1  0  0  0  0
  8 13  1  0  0  0  0
 34 36  1  0  0  0  0
 17 21  1  0  0  0  0
  7 12  1  0  0  0  0
 24 29  1  0  0  0  0
M  END
$$$$

  -OEChem-05262214473D

 39 38  0     1  0  0  0  0  0999 V2000
   -3.5200   -4.0268   -1.6943 C   0  0  0  0  0  0  0  0  0  0  0  0
   -2.8702   -4.8827   -1.1054 O   0  0  0  0  0  0  0  0  0  0  0  0
   -4.9704   -4.2579   -1.9614 C   0  0  0  0  0  0  0  0  0  0  0  0
   -5.1456   -4.7573   -2.9278 H   0  0  0  0  0  0  0  0  0  0  0  0
   -5.4379   -4.9112   -1.2072 H   0  0  0  0  0  0  0  0  0  0  0  0
   -5.5954   -3.3510   -1.9864 H   0  0  0  0  0  0  0  0  0  0  0  0
   -3.0424   -2.8131   -2.1606 N   0  0  0  0  0  0  0  0  0  0  0  0
   -1.6755   -2.3891   -2.0077 C   0  0  2  0  0  0  0  0  0  0  0  0
   -1.5782   -1.5673   -0.7292 C   0  0  0  0  0  0  0  0  0  0  0  0
   -2.5448   -1.0064   -0.2171 O   0  0  0  0  0  0  0  0  0  0  0  0
   -1.2087   -1.5823   -3.2094 C   0  0  0  0  0  0  0  0  0  0  0  0
   -3.6915   -2.1888   -2.6360 H   0  0  0  0  0  0  0  0  0  0  0  0
   -1.0721   -3.2977   -1.9053 H   0  0  0  0  0  0  0  0  0  0  0  0
   -1.8017   -0.6681   -3.3281 H   0  0  0  0  0  0  0  0  0  0  0  0
   -0.1601   -1.2849   -3.1045 H   0  0  0  0  0  0  0  0  0  0  0  0
   -1.3074   -2.1646   -4.1319 H   0  0  0  0  0  0  0  0  0  0  0  0
   -0.2835   -1.5112   -0.2725 N   0  0  0  0  0  0  0  0  0  0  0  0
    0.0769   -0.7658    0.9424 C   0  0  0  0  0  0  0  0  0  0  0  0
    1.5710   -0.5727    0.9927 C   0  0  0  0  0  0  0  0  0  0  0  0
    2.3094   -1.2064    1.7421 O   0  0  0  0  0  0  0  0  0  0  0  0
    0.4587   -2.0097   -0.7289 H   0  0  0  0  0  0  0  0  0  0  0  0
   -0.2517   -1.3286    1.8211 H   0  0  0  0  0  0  0  0  0  0  0  0
   -0.4225    0.2074    0.9281 H   0  0  0  0  0  0  0  0  0  0  0  0
    1.9917    0.4031    0.0954 N   0  0  0  0  0  0  0  0  0  0  0  0
    3.3675    0.7941   -0.0647 C   0  0  2  0  0  0  0  0  0  0  0  0
    3.7526    0.5734   -1.5216 C   0  0  0  0  0  0  0  0  0  0  0  0
    3.1576   -0.2071   -2.2619 O   0  0  0  0  0  0  0  0  0  0  0  0
    4.2784    0.0059    0.8636 C   0  0  0  0  0  0  0  0  0  0  0  0
    1.2888    0.8656   -0.4788 H   0  0  0  0  0  0  0  0  0  0  0  0
    3.4221    1.8626    0.1702 H   0  0  0  0  0  0  0  0  0  0  0  0
    4.2371   -1.0670    0.6433 H   0  0  0  0  0  0  0  0  0  0  0  0
    5.3210    0.3245    0.7610 H   0  0  0  0  0  0  0  0  0  0  0  0
    3.9814    0.1422    1.9091 H   0  0  0  0  0  0  0  0  0  0  0  0
    4.8655    1.3183   -1.8859 N   0  0  0  0  0  0  0  0  0  0  0  0
    5.4340    1.2726   -3.2128 C   0  0  0  0  0  0  0  0  0  0  0  0
    5.2836    1.9537   -1.2127 H   0  0  0  0  0  0  0  0  0  0  0  0
    6.2278    0.5118   -3.2462 H   0  0  0  0  0  0  0  0  0  0  0  0
    4.6490    1.0154   -3.9392 H   0  0  0  0  0  0  0  0  0  0  0  0
    5.8580    2.2560   -3.4639 H   0  0  0  0  0  0  0  0  0  0  0  0
  1  3  1  0  0  0  0
  1  7  1  0  0  0  0
  1  2  2  0  0  0  0
 18 19  1  0  0  0  0
 19 24  1  0  0  0  0
 19 20  2  0  0  0  0
 25 26  1  0  0  0  0
 26 34  1  0  0  0  0
 26 27  2  0  0  0  0
  8  9  1  0  0  0  0
  9 17  1  0  0  0  0
  9 10  2  0  0  0  0
 25 28  1  0  0  0  0
  8 11  1  0  0  0  0
 34 35  1  0  0  0  0
 17 18  1  0  0  0  0
 24 25  1  0  0  0  0
  7  8  1  0  0  0  0
  3  4  1  0  0  0  0
  3  5  1  0  0  0  0
  3  6  1  0  0  0  0
 28 31  1  0  0  0  0
 28 32  1  0  0  0  0
 28 33  1  0  0  0  0
 11 14  1  0  0  0  0
 11 15  1  0  0  0  0
 11 16  1  0  0  0  0
 35 37  1  0  0  0  0
 35 38  1  0  0  0  0
 35 39  1  0  0  0  0
 18 22  1  0  0  0  0
 18 23  1  0  0  0  0
 25 30  1  0  0  0  0
  8 13  1  0  0  0  0
 34 36  1  0  0  0  0
 17 21  1  0  0  0  0
  7 12  1  0  0  0  0
 24 29  1  0  0  0  0
M  END
$$$$

  -OEChem-05262214473D

 39 38  0     1  0  0  0  0  0999 V2000
   -3.5200   -4.0268   -1.6943 C   0  0  0  0  0  0  0  0  0  0  0  0
   -2.8702   -4.8827   -1.1054 O   0  0  0  0  0  0  0  0  0  0  0  0
   -4.9704   -4.2579   -1.9614 C   0  0  0  0  0  0  0  0  0  0  0  0
   -5.1456   -4.7573   -2.9278 H   0  0  0  0  0  0  0  0  0  0  0  0
   -5.4379   -4.9112   -1.2072 H   0  0  0  0  0  0  0  0  0  0  0  0
   -5.5954   -3.3510   -1.9864 H   0  0  0  0  0  0  0  0  0  0  0  0
   -3.0424   -2.8131   -2.1606 N   0  0  0  0  0  0  0  0  0  0  0  0
   -1.6755   -2.3891   -2.0077 C   0  0  2  0  0  0  0  0  0  0  0  0
   -1.5782   -1.5673   -0.7292 C   0  0  0  0  0  0  0  0  0  0  0  0
   -2.5448   -1.0064   -0.2171 O   0  0  0  0  0  0  0  0  0  0  0  0
   -1.2087   -1.5823   -3.2094 C   0  0  0  0  0  0  0  0  0  0  0  0
   -3.6915   -2.1888   -2.6360 H   0  0  0  0  0  0  0  0  0  0  0  0
   -1.0721   -3.2977   -1.9053 H   0  0  0  0  0  0  0  0  0  0  0  0
   -1.8017   -0.6681   -3.3281 H   0  0  0  0  0  0  0  0  0  0  0  0
   -0.1601   -1.2849   -3.1045 H   0  0  0  0  0  0  0  0  0  0  0  0
   -1.3074   -2.1646   -4.1319 H   0  0  0  0  0  0  0  0  0  0  0  0
   -0.2835   -1.5112   -0.2725 N   0  0  0  0  0  0  0  0  0  0  0  0
    0.0769   -0.7658    0.9424 C   0  0  0  0  0  0  0  0  0  0  0  0
    1.5710   -0.5727    0.9927 C   0  0  0  0  0  0  0  0  0  0  0  0
    2.3374   -1.3678    1.5303 O   0  0  0  0  0  0  0  0  0  0  0  0
    0.4587   -2.0097   -0.7289 H   0  0  0  0  0  0  0  0  0  0  0  0
   -0.2517   -1.3286    1.8211 H   0  0  0  0  0  0  0  0  0  0  0  0
   -0.4225    0.2074    0.9281 H   0  0  0  0  0  0  0  0  0  0  0  0
    1.9565    0.6059    0.3630 N   0  0  0  0  0  0  0  0  0  0  0  0
    3.3243    1.0427    0.2646 C   0  0  2  0  0  0  0  0  0  0  0  0
    3.6602    1.2079   -1.2117 C   0  0  0  0  0  0  0  0  0  0  0  0
    3.0436    0.6357   -2.1080 O   0  0  0  0  0  0  0  0  0  0  0  0
    4.2699    0.0547    0.9299 C   0  0  0  0  0  0  0  0  0  0  0  0
    1.2324    1.1911   -0.0504 H   0  0  0  0  0  0  0  0  0  0  0  0
    3.3823    2.0159    0.7641 H   0  0  0  0  0  0  0  0  0  0  0  0
    4.2256   -0.9263    0.4430 H   0  0  0  0  0  0  0  0  0  0  0  0
    5.3070    0.4024    0.8792 H   0  0  0  0  0  0  0  0  0  0  0  0
    4.0083   -0.0855    1.9843 H   0  0  0  0  0  0  0  0  0  0  0  0
    4.7568    2.0356   -1.4080 N   0  0  0  0  0  0  0  0  0  0  0  0
    5.2796    2.3391   -2.7196 C   0  0  0  0  0  0  0  0  0  0  0  0
    5.1950    2.4826   -0.6080 H   0  0  0  0  0  0  0  0  0  0  0  0
    6.0751    1.6227   -2.9726 H   0  0  0  0  0  0  0  0  0  0  0  0
    4.4714    2.2666   -3.4622 H   0  0  0  0  0  0  0  0  0  0  0  0
    5.6906    3.3595   -2.7234 H   0  0  0  0  0  0  0  0  0  0  0  0
  1  3  1  0  0  0  0
  1  7  1  0  0  0  0
  1  2  2  0  0  0  0
 18 19  1  0  0  0  0
 19 24  1  0  0  0  0
 19 20  2  0  0  0  0
 25 26  1  0  0  0  0
 26 34  1  0  0  0  0
 26 27  2  0  0  0  0
  8  9  1  0  0  0  0
  9 17  1  0  0  0  0
  9 10  2  0  0  0  0
 25 28  1  0  0  0  0
  8 11  1  0  0  0  0
 34 35  1  0  0  0  0
 17 18  1  0  0  0  0
 24 25  1  0  0  0  0
  7  8  1  0  0  0  0
  3  4  1  0  0  0  0
  3  5  1  0  0  0  0
  3  6  1  0  0  0  0
 28 31  1  0  0  0  0
 28 32  1  0  0  0  0
 28 33  1  0  0  0  0
 11 14  1  0  0  0  0
 11 15  1  0  0  0  0
 11 16  1  0  0  0  0
 35 37  1  0  0  0  0
 35 38  1  0  0  0  0
 35 39  1  0  0  0  0
 18 22  1  0  0  0  0
 18 23  1  0  0  0  0
 25 30  1  0  0  0  0
  8 13  1  0  0  0  0
 34 36  1  0  0  0  0
 17 21  1  0  0  0  0
  7 12  1  0  0  0  0
 24 29  1  0  0  0  0
M  END
$$$$

  -OEChem-05262214473D

 39 38  0     1  0  0  0  0  0999 V2000
   -3.5200   -4.0268   -1.6943 C   0  0  0  0  0  0  0  0  0  0  0  0
   -2.8702   -4.8827   -1.1054 O   0  0  0  0  0  0  0  0  0  0  0  0
   -4.9704   -4.2579   -1.9614 C   0  0  0  0  0  0  0  0  0  0  0  0
   -5.1456   -4.7573   -2.9278 H   0  0  0  0  0  0  0  0  0  0  0  0
   -5.4379   -4.9112   -1.2072 H   0  0  0  0  0  0  0  0  0  0  0  0
   -5.5954   -3.3510   -1.9864 H   0  0  0  0  0  0  0  0  0  0  0  0
   -3.0424   -2.8131   -2.1606 N   0  0  0  0  0  0  0  0  0  0  0  0
   -1.6755   -2.3891   -2.0077 C   0  0  2  0  0  0  0  0  0  0  0  0
   -1.5782   -1.5673   -0.7292 C   0  0  0  0  0  0  0  0  0  0  0  0
   -2.5448   -1.0064   -0.2171 O   0  0  0  0  0  0  0  0  0  0  0  0
   -1.2087   -1.5823   -3.2094 C   0  0  0  0  0  0  0  0  0  0  0  0
   -3.6915   -2.1888   -2.6360 H   0  0  0  0  0  0  0  0  0  0  0  0
   -1.0721   -3.2977   -1.9053 H   0  0  0  0  0  0  0  0  0  0  0  0
   -1.8017   -0.6681   -3.3281 H   0  0  0  0  0  0  0  0  0  0  0  0
   -0.1601   -1.2849   -3.1045 H   0  0  0  0  0  0  0  0  0  0  0  0
   -1.3074   -2.1646   -4.1319 H   0  0  0  0  0  0  0  0  0  0  0  0
   -0.2835   -1.5112   -0.2725 N   0  0  0  0  0  0  0  0  0  0  0  0
    0.0769   -0.7658    0.9424 C   0  0  0  0  0  0  0  0  0  0  0  0
    1.5710   -0.5727    0.9927 C   0  0  0  0  0  0  0  0  0  0  0  0
    2.3588   -1.4690    1.2834 O   0  0  0  0  0  0  0  0  0  0  0  0
    0.4587   -2.0097   -0.7289 H   0  0  0  0  0  0  0  0  0  0  0  0
   -0.2517   -1.3286    1.8211 H   0  0  0  0  0  0  0  0  0  0  0  0
   -0.4225    0.2074    0.9281 H   0  0  0  0  0  0  0  0  0  0  0  0
    1.9296    0.7329    0.6747 N   0  0  0  0  0  0  0  0  0  0  0  0
    3.2914    1.1979    0.6479 C   0  0  2  0  0  0  0  0  0  0  0  0
    3.5757    1.7405   -0.7465 C   0  0  0  0  0  0  0  0  0  0  0  0
    2.9312    1.4093   -1.7394 O   0  0  0  0  0  0  0  0  0  0  0  0
    4.2634    0.0848    1.0067 C   0  0  0  0  0  0  0  0  0  0  0  0
    1.1892    1.3950    0.4487 H   0  0  0  0  0  0  0  0  0  0  0  0
    3.3622    2.0112    1.3783 H   0  0  0  0  0  0  0  0  0  0  0  0
    4.2067   -0.7391    0.2859 H   0  0  0  0  0  0  0  0  0  0  0  0
    5.2966    0.4472    1.0137 H   0  0  0  0  0  0  0  0  0  0  0  0
    4.0388   -0.3245    1.9976 H   0  0  0  0  0  0  0  0  0  0  0  0
    4.6613    2.6050   -0.7587 N   0  0  0  0  0  0  0  0  0  0  0  0
    5.1377    3.2414   -1.9646 C   0  0  0  0  0  0  0  0  0  0  0  0
    5.1248    2.8376    0.1147 H   0  0  0  0  0  0  0  0  0  0  0  0
    5.9271    2.6242   -2.4183 H   0  0  0  0  0  0  0  0  0  0  0  0
    4.3047    3.3513   -2.6746 H   0  0  0  0  0  0  0  0  0  0  0  0
    5.5438    4.2338   -1.7194 H   0  0  0  0  0  0  0  0  0  0  0  0
  1  3  1  0  0  0  0
  1  7  1  0  0  0  0
  1  2  2  0  0  0  0
 18 19  1  0  0  0  0
 19 24  1  0  0  0  0
 19 20  2  0  0  0  0
 25 26  1  0  0  0  0
 26 34  1  0  0  0  0
 26 27  2  0  0  0  0
  8  9  1  0  0  0  0
  9 17  1  0  0  0  0
  9 10  2  0  0  0  0
 25 28  1  0  0  0  0
  8 11  1  0  0  0  0
 34 35  1  0  0  0  0
 17 18  1  0  0  0  0
 24 25  1  0  0  0  0
  7  8  1  0  0  0  0
  3  4  1  0  0  0  0
  3  5  1  0  0  0  0
  3  6  1  0  0  0  0
 28 31  1  0  0  0  0
 28 32  1  0  0  0  0
 28 33  1  0  0  0  0
 11 14  1  0  0  0  0
 11 15  1  0  0  0  0
 11 16  1  0  0  0  0
 35 37  1  0  0  0  0
 35 38  1  0  0  0  0
 35 39  1  0  0  0  0
 18 22  1  0  0  0  0
 18 23  1  0  0  0  0
 25 30  1  0  0  0  0
  8 13  1  0  0  0  0
 34 36  1  0  0  0  0
 17 21  1  0  0  0  0
  7 12  1  0  0  0  0
 24 29  1  0  0  0  0
M  END
$$$$

  -OEChem-05262214473D

 39 38  0     1  0  0  0  0  0999 V2000
   -3.5200   -4.0268   -1.6943 C   0  0  0  0  0  0  0  0  0  0  0  0
   -2.8702   -4.8827   -1.1054 O   0  0  0  0  0  0  0  0  0  0  0  0
   -4.9704   -4.2579   -1.9614 C   0  0  0  0  0  0  0  0  0  0  0  0
   -5.1456   -4.7573   -2.9278 H   0  0  0  0  0  0  0  0  0  0  0  0
   -5.4379   -4.9112   -1.2072 H   0  0  0  0  0  0  0  0  0  0  0  0
   -5.5954   -3.3510   -1.9864 H   0  0  0  0  0  0  0  0  0  0  0  0
   -3.0424   -2.8131   -2.1606 N   0  0  0  0  0  0  0  0  0  0  0  0
   -1.6755   -2.3891   -2.0077 C   0  0  2  0  0  0  0  0  0  0  0  0
   -1.5782   -1.5673   -0.7292 C   0  0  0  0  0  0  0  0  0  0  0  0
   -2.5448   -1.0064   -0.2171 O   0  0  0  0  0  0  0  0  0  0  0  0
   -1.2087   -1.5823   -3.2094 C   0  0  0  0  0  0  0  0  0  0  0  0
   -3.6915   -2.1888   -2.6360 H   0  0  0  0  0  0  0  0  0  0  0  0
   -1.0721   -3.2977   -1.9053 H   0  0  0  0  0  0  0  0  0  0  0  0
   -1.8017   -0.6681   -3.3281 H   0  0  0  0  0  0  0  0  0  0  0  0
   -0.1601   -1.2849   -3.1045 H   0  0  0  0  0  0  0  0  0  0  0  0
   -1.3074   -2.1646   -4.1319 H   0  0  0  0  0  0  0  0  0  0  0  0
   -0.2835   -1.5112   -0.2725 N   0  0  0  0  0  0  0  0  0  0  0  0
    0.0769   -0.7658    0.9424 C   0  0  0  0  0  0  0  0  0  0  0  0
    1.5710   -0.5727    0.9927 C   0  0  0  0  0  0  0  0  0  0  0  0
    2.3721   -1.5033    1.0182 O   0  0  0  0  0  0  0  0  0  0  0  0
    0.4587   -2.0097   -0.7289 H   0  0  0  0  0  0  0  0  0  0  0  0
   -0.2517   -1.3286    1.8211 H   0  0  0  0  0  0  0  0  0  0  0  0
   -0.4225    0.2074    0.9281 H   0  0  0  0  0  0  0  0  0  0  0  0
    1.9129    0.7753    1.0091 N   0  0  0  0  0  0  0  0  0  0  0  0
    3.2709    1.2493    1.0591 C   0  0  2  0  0  0  0  0  0  0  0  0
    3.5049    2.1349   -0.1577 C   0  0  0  0  0  0  0  0  0  0  0  0
    2.8282    2.0610   -1.1812 O   0  0  0  0  0  0  0  0  0  0  0  0
    4.2594    0.0941    1.0888 C   0  0  0  0  0  0  0  0  0  0  0  0
    1.1623    1.4636    0.9845 H   0  0  0  0  0  0  0  0  0  0  0  0
    3.3632    1.8490    1.9712 H   0  0  0  0  0  0  0  0  0  0  0  0
    4.1817   -0.5182    0.1829 H   0  0  0  0  0  0  0  0  0  0  0  0
    5.2907    0.4559    1.1556 H   0  0  0  0  0  0  0  0  0  0  0  0
    4.0706   -0.5584    1.9481 H   0  0  0  0  0  0  0  0  0  0  0  0
    4.5858    2.9876    0.0177 N   0  0  0  0  0  0  0  0  0  0  0  0
    5.0178    3.9180   -0.9991 C   0  0  0  0  0  0  0  0  0  0  0  0
    5.0779    2.9945    0.9062 H   0  0  0  0  0  0  0  0  0  0  0  0
    5.7938    3.4480   -1.6210 H   0  0  0  0  0  0  0  0  0  0  0  0
    4.1605    4.1955   -1.6300 H   0  0  0  0  0  0  0  0  0  0  0  0
    5.4278    4.8196   -0.5205 H   0  0  0  0  0  0  0  0  0  0  0  0
  1  3  1  0  0  0  0
  1  7  1  0  0  0  0
  1  2  2  0  0  0  0
 18 19  1  0  0  0  0
 19 24  1  0  0  0  0
 19 20  2  0  0  0  0
 25 26  1  0  0  0  0
 26 34  1  0  0  0  0
 26 27  2  0  0  0  0
  8  9  1  0  0  0  0
  9 17  1  0  0  0  0
  9 10  2  0  0  0  0
 25 28  1  0  0  0  0
  8 11  1  0  0  0  0
 34 35  1  0  0  0  0
 17 18  1  0  0  0  0
 24 25  1  0  0  0  0
  7  8  1  0  0  0  0
  3  4  1  0  0  0  0
  3  5  1  0  0  0  0
  3  6  1  0  0  0  0
 28 31  1  0  0  0  0
 28 32  1  0  0  0  0
 28 33  1  0  0  0  0
 11 14  1  0  0  0  0
 11 15  1  0  0  0  0
 11 16  1  0  0  0  0
 35 37  1  0  0  0  0
 35 38  1  0  0  0  0
 35 39  1  0  0  0  0
 18 22  1  0  0  0  0
 18 23  1  0  0  0  0
 25 30  1  0  0  0  0
  8 13  1  0  0  0  0
 34 36  1  0  0  0  0
 17 21  1  0  0  0  0
  7 12  1  0  0  0  0
 24 29  1  0  0  0  0
M  END
$$$$

  -OEChem-05262214473D

 39 38  0     1  0  0  0  0  0999 V2000
   -3.5200   -4.0268   -1.6943 C   0  0  0  0  0  0  0  0  0  0  0  0
   -2.8702   -4.8827   -1.1054 O   0  0  0  0  0  0  0  0  0  0  0  0
   -4.9704   -4.2579   -1.9614 C   0  0  0  0  0  0  0  0  0  0  0  0
   -5.1456   -4.7573   -2.9278 H   0  0  0  0  0  0  0  0  0  0  0  0
   -5.4379   -4.9112   -1.2072 H   0  0  0  0  0  0  0  0  0  0  0  0
   -5.5954   -3.3510   -1.9864 H   0  0  0  0  0  0  0  0  0  0  0  0
   -3.0424   -2.8131   -2.1606 N   0  0  0  0  0  0  0  0  0  0  0  0
   -1.6755   -2.3891   -2.0077 C   0  0  2  0  0  0  0  0  0  0  0  0
   -1.5782   -1.5673   -0.7292 C   0  0  0  0  0  0  0  0  0  0  0  0
   -2.5448   -1.0064   -0.2171 O   0  0  0  0  0  0  0  0  0  0  0  0
   -1.2087   -1.5823   -3.2094 C   0  0  0  0  0  0  0  0  0  0  0  0
   -3.6915   -2.1888   -2.6360 H   0  0  0  0  0  0  0  0  0  0  0  0
   -1.0721   -3.2977   -1.9053 H   0  0  0  0  0  0  0  0  0  0  0  0
   -1.8017   -0.6681   -3.3281 H   0  0  0  0  0  0  0  0  0  0  0  0
   -0.1601   -1.2849   -3.1045 H   0  0  0  0  0  0  0  0  0  0  0  0
   -1.3074   -2.1646   -4.1319 H   0  0  0  0  0  0  0  0  0  0  0  0
   -0.2835   -1.5112   -0.2725 N   0  0  0  0  0  0  0  0  0  0  0  0
    0.0769   -0.7658    0.9424 C   0  0  0  0  0  0  0  0  0  0  0  0
    1.5710   -0.5727    0.9927 C   0  0  0  0  0  0  0  0  0  0  0  0
    2.3765   -1.4683    0.7528 O   0  0  0  0  0  0  0  0  0  0  0  0
    0.4587   -2.0097   -0.7289 H   0  0  0  0  0  0  0  0  0  0  0  0
   -0.2517   -1.3286    1.8211 H   0  0  0  0  0  0  0  0  0  0  0  0
   -0.4225    0.2074    0.9281 H   0  0  0  0  0  0  0  0  0  0  0  0
    1.9074    0.7304    1.3437 N   0  0  0  0  0  0  0  0  0  0  0  0
    3.2643    1.1933    1.4701 C   0  0  2  0  0  0  0  0  0  0  0  0
    3.4527    2.3642    0.5146 C   0  0  0  0  0  0  0  0  0  0  0  0
    2.7416    2.5464   -0.4714 O   0  0  0  0  0  0  0  0  0  0  0  0
    4.2582    0.0819    1.1706 C   0  0  0  0  0  0  0  0  0  0  0  0
    1.1535    1.3922    1.5206 H   0  0  0  0  0  0  0  0  0  0  0  0
    3.3852    1.5402    2.5021 H   0  0  0  0  0  0  0  0  0  0  0  0
    4.1521   -0.2785    0.1409 H   0  0  0  0  0  0  0  0  0  0  0  0
    5.2897    0.4279    1.2950 H   0  0  0  0  0  0  0  0  0  0  0  0
    4.1018   -0.7715    1.8392 H   0  0  0  0  0  0  0  0  0  0  0  0
    4.5352    3.1574    0.8683 N   0  0  0  0  0  0  0  0  0  0  0  0
    4.9281    4.3229    0.1111 C   0  0  0  0  0  0  0  0  0  0  0  0
    5.0574    2.9425    1.7126 H   0  0  0  0  0  0  0  0  0  0  0  0
    5.6844    4.0382   -0.6352 H   0  0  0  0  0  0  0  0  0  0  0  0
    4.0486    4.7417   -0.3997 H   0  0  0  0  0  0  0  0  0  0  0  0
    5.3504    5.0769    0.7917 H   0  0  0  0  0  0  0  0  0  0  0  0
  1  3  1  0  0  0  0
  1  7  1  0  0  0  0
  1  2  2  0  0  0  0
 18 19  1  0  0  0  0
 19 24  1  0  0  0  0
 19 20  2  0  0  0  0
 25 26  1  0  0  0  0
 26 34  1  0  0  0  0
 26 27  2  0  0  0  0
  8  9  1  0  0  0  0
  9 17  1  0  0  0  0
  9 10  2  0  0  0  0
 25 28  1  0  0  0  0
  8 11  1  0  0  0  0
 34 35  1  0  0  0  0
 17 18  1  0  0  0  0
 24 25  1  0  0  0  0
  7  8  1  0  0  0  0
  3  4  1  0  0  0  0
  3  5  1  0  0  0  0
  3  6  1  0  0  0  0
 28 31  1  0  0  0  0
 28 32  1  0  0  0  0
 28 33  1  0  0  0  0
 11 14  1  0  0  0  0
 11 15  1  0  0  0  0
 11 16  1  0  0  0  0
 35 37  1  0  0  0  0
 35 38  1  0  0  0  0
 35 39  1  0  0  0  0
 18 22  1  0  0  0  0
 18 23  1  0  0  0  0
 25 30  1  0  0  0  0
  8 13  1  0  0  0  0
 34 36  1  0  0  0  0
 17 21  1  0  0  0  0
  7 12  1  0  0  0  0
 24 29  1  0  0  0  0
M  END
$$$$

  -OEChem-05262214473D

 39 38  0     1  0  0  0  0  0999 V2000
   -3.5200   -4.0268   -1.6943 C   0  0  0  0  0  0  0  0  0  0  0  0
   -2.8702   -4.8827   -1.1054 O   0  0  0  0  0  0  0  0  0  0  0  0
   -4.9704   -4.2579   -1.9614 C   0  0  0  0  0  0  0  0  0  0  0  0
   -5.1456   -4.7573   -2.9278 H   0  0  0  0  0  0  0  0  0  0  0  0
   -5.4379   -4.9112   -1.2072 H   0  0  0  0  0  0  0  0  0  0  0  0
   -5.5954   -3.3510   -1.9864 H   0  0  0  0  0  0  0  0  0  0  0  0
   -3.0424   -2.8131   -2.1606 N   0  0  0  0  0  0  0  0  0  0  0  0
   -1.6755   -2.3891   -2.0077 C   0  0  2  0  0  0  0  0  0  0  0  0
   -1.5782   -1.5673   -0.7292 C   0  0  0  0  0  0  0  0  0  0  0  0
   -2.5448   -1.0064   -0.2171 O   0  0  0  0  0  0  0  0  0  0  0  0
   -1.2087   -1.5823   -3.2094 C   0  0  0  0  0  0  0  0  0  0  0  0
   -3.6915   -2.1888   -2.6360 H   0  0  0  0  0  0  0  0  0  0  0  0
   -1.0721   -3.2977   -1.9053 H   0  0  0  0  0  0  0  0  0  0  0  0
   -1.8017   -0.6681   -3.3281 H   0  0  0  0  0  0  0  0  0  0  0  0
   -0.1601   -1.2849   -3.1045 H   0  0  0  0  0  0  0  0  0  0  0  0
   -1.3074   -2.1646   -4.1319 H   0  0  0  0  0  0  0  0  0  0  0  0
   -0.2835   -1.5112   -0.2725 N   0  0  0  0  0  0  0  0  0  0  0  0
    0.0769   -0.7658    0.9424 C   0  0  0  0  0  0  0  0  0  0  0  0
    1.5710   -0.5727    0.9927 C   0  0  0  0  0  0  0  0  0  0  0  0
    2.3717   -1.3663    0.5054 O   0  0  0  0  0  0  0  0  0  0  0  0
    0.4587   -2.0097   -0.7289 H   0  0  0  0  0  0  0  0  0  0  0  0
   -0.2517   -1.3286    1.8211 H   0  0  0  0  0  0  0  0  0  0  0  0
   -0.4225    0.2074    0.9281 H   0  0  0  0  0  0  0  0  0  0  0  0
    1.9136    0.6011    1.6554 N   0  0  0  0  0  0  0  0  0  0  0  0
    3.2720    1.0336    1.8529 C   0  0  2  0  0  0  0  0  0  0  0  0
    3.4225    2.4127    1.2245 C   0  0  0  0  0  0  0  0  0  0  0  0
    2.6773    2.8325    0.3416 O   0  0  0  0  0  0  0  0  0  0  0  0
    4.2599    0.0492    1.2465 C   0  0  0  0  0  0  0  0  0  0  0  0
    1.1634    1.1856    2.0204 H   0  0  0  0  0  0  0  0  0  0  0  0
    3.4268    1.1059    2.9350 H   0  0  0  0  0  0  0  0  0  0  0  0
    4.1201   -0.0365    0.1628 H   0  0  0  0  0  0  0  0  0  0  0  0
    5.2935    0.3651    1.4225 H   0  0  0  0  0  0  0  0  0  0  0  0
    4.1302   -0.9491    1.6784 H   0  0  0  0  0  0  0  0  0  0  0  0
    4.5131    3.1027    1.7351 N   0  0  0  0  0  0  0  0  0  0  0  0
    4.8748    4.4283    1.2903 C   0  0  0  0  0  0  0  0  0  0  0  0
    5.0649    2.6853    2.4788 H   0  0  0  0  0  0  0  0  0  0  0  0
    5.6063    4.3543    0.4721 H   0  0  0  0  0  0  0  0  0  0  0  0
    3.9765    4.9527    0.9325 H   0  0  0  0  0  0  0  0  0  0  0  0
    5.3169    4.9880    2.1277 H   0  0  0  0  0  0  0  0  0  0  0  0
  1  3  1  0  0  0  0
  1  7  1  0  0  0  0
  1  2  2  0  0  0  0
 18 19  1  0  0  0  0
 19 24  1  0  0  0  0
 19 20  2  0  0  0  0
 25 26  1  0  0  0  0
 26 34  1  0  0  0  0
 26 27  2  0  0  0  0
  8  9  1  0  0  0  0
  9 17  1  0  0  0  0
  9 10  2  0  0  0  0
 25 28  1  0  0  0  0
  8 11  1  0  0  0  0
 34 35  1  0  0  0  0
 17 18  1  0  0  0  0
 24 25  1  0  0  0  0
  7  8  1  0  0  0  0
  3  4  1  0  0  0  0
  3  5  1  0  0  0  0
  3  6  1  0  0  0  0
 28 31  1  0  0  0  0
 28 32  1  0  0  0  0
 28 33  1  0  0  0  0
 11 14  1  0  0  0  0
 11 15  1  0  0  0  0
 11 16  1  0  0  0  0
 35 37  1  0  0  0  0
 35 38  1  0  0  0  0
 35 39  1  0  0  0  0
 18 22  1  0  0  0  0
 18 23  1  0  0  0  0
 25 30  1  0  0  0  0
  8 13  1  0  0  0  0
 34 36  1  0  0  0  0
 17 21  1  0  0  0  0
  7 12  1  0  0  0  0
 24 29  1  0  0  0  0
M  END
$$$$

  -OEChem-05262214473D

 39 38  0     1  0  0  0  0  0999 V2000
   -3.5200   -4.0268   -1.6943 C   0  0  0  0  0  0  0  0  0  0  0  0
   -2.8702   -4.8827   -1.1054 O   0  0  0  0  0  0  0  0  0  0  0  0
   -4.9704   -4.2579   -1.9614 C   0  0  0  0  0  0  0  0  0  0  0  0
   -5.1456   -4.7573   -2.9278 H   0  0  0  0  0  0  0  0  0  0  0  0
   -5.4379   -4.9112   -1.2072 H   0  0  0  0  0  0  0  0  0  0  0  0
   -5.5954   -3.3510   -1.9864 H   0  0  0  0  0  0  0  0  0  0  0  0
   -3.0424   -2.8131   -2.1606 N   0  0  0  0  0  0  0  0  0  0  0  0
   -1.6755   -2.3891   -2.0077 C   0  0  2  0  0  0  0  0  0  0  0  0
   -1.5782   -1.5673   -0.7292 C   0  0  0  0  0  0  0  0  0  0  0  0
   -2.5448   -1.0064   -0.2171 O   0  0  0  0  0  0  0  0  0  0  0  0
   -1.2087   -1.5823   -3.2094 C   0  0  0  0  0  0  0  0  0  0  0  0
   -3.6915   -2.1888   -2.6360 H   0  0  0  0  0  0  0  0  0  0  0  0
   -1.0721   -3.2977   -1.9053 H   0  0  0  0  0  0  0  0  0  0  0  0
   -1.8017   -0.6681   -3.3281 H   0  0  0  0  0  0  0  0  0  0  0  0
   -0.1601   -1.2849   -3.1045 H   0  0  0  0  0  0  0  0  0  0  0  0
   -1.3074   -2.1646   -4.1319 H   0  0  0  0  0  0  0  0  0  0  0  0
   -0.2835   -1.5112   -0.2725 N   0  0  0  0  0  0  0  0  0  0  0  0
    0.0769   -0.7658    0.9424 C   0  0  0  0  0  0  0  0  0  0  0  0
    1.5710   -0.5727    0.9927 C   0  0  0  0  0  0  0  0  0  0  0  0
    2.3579   -1.2044    0.2926 O   0  0  0  0  0  0  0  0  0  0  0  0
    0.4587   -2.0097   -0.7289 H   0  0  0  0  0  0  0  0  0  0  0  0
   -0.2517   -1.3286    1.8211 H   0  0  0  0  0  0  0  0  0  0  0  0
   -0.4225    0.2074    0.9281 H   0  0  0  0  0  0  0  0  0  0  0  0
    1.9311    0.3962    1.9232 N   0  0  0  0  0  0  0  0  0  0  0  0
    3.2936    0.7813    2.1815 C   0  0  2  0  0  0  0  0  0  0  0  0
    3.4165    2.2772    1.9237 C   0  0  0  0  0  0  0  0  0  0  0  0
    2.6397    2.8996    1.2024 O   0  0  0  0  0  0  0  0  0  0  0  0
    4.2643   -0.0019    1.3115 C   0  0  0  0  0  0  0  0  0  0  0  0
    1.1913    0.8579    2.4498 H   0  0  0  0  0  0  0  0  0  0  0  0
    3.4850    0.5757    3.2404 H   0  0  0  0  0  0  0  0  0  0  0  0
    4.0879    0.1913    0.2470 H   0  0  0  0  0  0  0  0  0  0  0  0
    5.3020    0.2717    1.5294 H   0  0  0  0  0  0  0  0  0  0  0  0
    4.1538   -1.0791    1.4765 H   0  0  0  0  0  0  0  0  0  0  0  0
    4.5210    2.8273    2.5591 N   0  0  0  0  0  0  0  0  0  0  0  0
    4.8615    4.2272    2.4581 C   0  0  0  0  0  0  0  0  0  0  0  0
    5.0997    2.2404    3.1527 H   0  0  0  0  0  0  0  0  0  0  0  0
    5.5648    4.3750    1.6254 H   0  0  0  0  0  0  0  0  0  0  0  0
    3.9491    4.8141    2.2759 H   0  0  0  0  0  0  0  0  0  0  0  0
    5.3296    4.5592    3.3966 H   0  0  0  0  0  0  0  0  0  0  0  0
  1  3  1  0  0  0  0
  1  7  1  0  0  0  0
  1  2  2  0  0  0  0
 18 19  1  0  0  0  0
 19 24  1  0  0  0  0
 19 20  2  0  0  0  0
 25 26  1  0  0  0  0
 26 34  1  0  0  0  0
 26 27  2  0  0  0  0
  8  9  1  0  0  0  0
  9 17  1  0  0  0  0
  9 10  2  0  0  0  0
 25 28  1  0  0  0  0
  8 11  1  0  0  0  0
 34 35  1  0  0  0  0
 17 18  1  0  0  0  0
 24 25  1  0  0  0  0
  7  8  1  0  0  0  0
  3  4  1  0  0  0  0
  3  5  1  0  0  0  0
  3  6  1  0  0  0  0
 28 31  1  0  0  0  0
 28 32  1  0  0  0  0
 28 33  1  0  0  0  0
 11 14  1  0  0  0  0
 11 15  1  0  0  0  0
 11 16  1  0  0  0  0
 35 37  1  0  0  0  0
 35 38  1  0  0  0  0
 35 39  1  0  0  0  0
 18 22  1  0  0  0  0
 18 23  1  0  0  0  0
 25 30  1  0  0  0  0
  8 13  1  0  0  0  0
 34 36  1  0  0  0  0
 17 21  1  0  0  0  0
  7 12  1  0  0  0  0
 24 29  1  0  0  0  0
M  END
$$$$

  -OEChem-05262214473D

 39 38  0     1  0  0  0  0  0999 V2000
   -3.5200   -4.0268   -1.6943 C   0  0  0  0  0  0  0  0  0  0  0  0
   -2.8702   -4.8827   -1.1054 O   0  0  0  0  0  0  0  0  0  0  0  0
   -4.9704   -4.2579   -1.9614 C   0  0  0  0  0  0  0  0  0  0  0  0
   -5.1456   -4.7573   -2.9278 H   0  0  0  0  0  0  0  0  0  0  0  0
   -5.4379   -4.9112   -1.2072 H   0  0  0  0  0  0  0  0  0  0  0  0
   -5.5954   -3.3510   -1.9864 H   0  0  0  0  0  0  0  0  0  0  0  0
   -3.0424   -2.8131   -2.1606 N   0  0  0  0  0  0  0  0  0  0  0  0
   -1.6755   -2.3891   -2.0077 C   0  0  2  0  0  0  0  0  0  0  0  0
   -1.5782   -1.5673   -0.7292 C   0  0  0  0  0  0  0  0  0  0  0  0
   -2.5448   -1.0064   -0.2171 O   0  0  0  0  0  0  0  0  0  0  0  0
   -1.2087   -1.5823   -3.2094 C   0  0  0  0  0  0  0  0  0  0  0  0
   -3.6915   -2.1888   -2.6360 H   0  0  0  0  0  0  0  0  0  0  0  0
   -1.0721   -3.2977   -1.9053 H   0  0  0  0  0  0  0  0  0  0  0  0
   -1.8017   -0.6681   -3.3281 H   0  0  0  0  0  0  0  0  0  0  0  0
   -0.1601   -1.2849   -3.1045 H   0  0  0  0  0  0  0  0  0  0  0  0
   -1.3074   -2.1646   -4.1319 H   0  0  0  0  0  0  0  0  0  0  0  0
   -0.2835   -1.5112   -0.2725 N   0  0  0  0  0  0  0  0  0  0  0  0
    0.0769   -0.7658    0.9424 C   0  0  0  0  0  0  0  0  0  0  0  0
    1.4896   -0.2542    0.8214 C   0  0  0  0  0  0  0  0  0  0  0  0
    2.1992   -0.4550   -0.1607 O   0  0  0  0  0  0  0  0  0  0  0  0
    0.4587   -2.0097   -0.7289 H   0  0  0  0  0  0  0  0  0  0  0  0
   -0.0018   -1.4292    1.8087 H   0  0  0  0  0  0  0  0  0  0  0  0
   -0.6125    0.0746    1.0660 H   0  0  0  0  0  0  0  0  0  0  0  0
    1.8744    0.4593    1.9516 N   0  0  0  0  0  0  0  0  0  0  0  0
    3.1737    1.0582    2.1080 C   0  0  2  0  0  0  0  0  0  0  0  0
    2.9787    2.5504    2.3418 C   0  0  0  0  0  0  0  0  0  0  0  0
    1.9671    3.1571    1.9955 O   0  0  0  0  0  0  0  0  0  0  0  0
    4.0483    0.8087    0.8892 C   0  0  0  0  0  0  0  0  0  0  0  0
    1.2009    0.5634    2.7087 H   0  0  0  0  0  0  0  0  0  0  0  0
    3.6261    0.6048    2.9967 H   0  0  0  0  0  0  0  0  0  0  0  0
    3.6112    1.2557   -0.0111 H   0  0  0  0  0  0  0  0  0  0  0  0
    5.0459    1.2404    1.0216 H   0  0  0  0  0  0  0  0  0  0  0  0
    4.1631   -0.2649    0.7050 H   0  0  0  0  0  0  0  0  0  0  0  0
    4.0850    3.1334    2.9438 N   0  0  0  0  0  0  0  0  0  0  0  0
    4.1499    4.5415    3.2584 C   0  0  0  0  0  0  0  0  0  0  0  0
    4.8721    2.5507    3.2135 H   0  0  0  0  0  0  0  0  0  0  0  0
    4.6164    5.0834    2.4225 H   0  0  0  0  0  0  0  0  0  0  0  0
    3.1331    4.9274    3.4234 H   0  0  0  0  0  0  0  0  0  0  0  0
    4.7493    4.6863    4.1693 H   0  0  0  0  0  0  0  0  0  0  0  0
  1  3  1  0  0  0  0
  1  7  1  0  0  0  0
  1  2  2  0  0  0  0
 18 19  1  0  0  0  0
 19 24  1  0  0  0  0
 19 20  2  0  0  0  0
 25 26  1  0  0  0  0
 26 34  1  0  0  0  0
 26 27  2  0  0  0  0
  8  9  1  0  0  0  0
  9 17  1  0  0  0  0
  9 10  2  0  0  0  0
 25 28  1  0  0  0  0
  8 11  1  0  0  0  0
 34 35  1  0  0  0  0
 17 18  1  0  0  0  0
 24 25  1  0  0  0  0
  7  8  1  0  0  0  0
  3  4  1  0  0  0  0
  3  5  1  0  0  0  0
  3  6  1  0  0  0  0
 28 31  1  0  0  0  0
 28 32  1  0  0  0  0
 28 33  1  0  0  0  0
 11 14  1  0  0  0  0
 11 15  1  0  0  0  0
 11 16  1  0  0  0  0
 35 37  1  0  0  0  0
 35 38  1  0  0  0  0
 35 39  1  0  0  0  0
 18 22  1  0  0  0  0
 18 23  1  0  0  0  0
 25 30  1  0  0  0  0
  8 13  1  0  0  0  0
 34 36  1  0  0  0  0
 17 21  1  0  0  0  0
  7 12  1  0  0  0  0
 24 29  1  0  0  0  0
M  END
$$$$

  -OEChem-05262214473D

 39 38  0     1  0  0  0  0  0999 V2000
   -3.5200   -4.0268   -1.6943 C   0  0  0  0  0  0  0  0  0  0  0  0
   -2.8702   -4.8827   -1.1054 O   0  0  0  0  0  0  0  0  0  0  0  0
   -4.9704   -4.2579   -1.9614 C   0  0  0  0  0  0  0  0  0  0  0  0
   -5.1456   -4.7573   -2.9278 H   0  0  0  0  0  0  0  0  0  0  0  0
   -5.4379   -4.9112   -1.2072 H   0  0  0  0  0  0  0  0  0  0  0  0
   -5.5954   -3.3510   -1.9864 H   0  0  0  0  0  0  0  0  0  0  0  0
   -3.0424   -2.8131   -2.1606 N   0  0  0  0  0  0  0  0  0  0  0  0
   -1.6755   -2.3891   -2.0077 C   0  0  2  0  0  0  0  0  0  0  0  0
   -1.5782   -1.5673   -0.7292 C   0  0  0  0  0  0  0  0  0  0  0  0
   -2.5448   -1.0064   -0.2171 O   0  0  0  0  0  0  0  0  0  0  0  0
   -1.2087   -1.5823   -3.2094 C   0  0  0  0  0  0  0  0  0  0  0  0
   -3.6915   -2.1888   -2.6360 H   0  0  0  0  0  0  0  0  0  0  0  0
   -1.0721   -3.2977   -1.9053 H   0  0  0  0  0  0  0  0  0  0  0  0
   -1.8017   -0.6681   -3.3281 H   0  0  0  0  0  0  0  0  0  0  0  0
   -0.1601   -1.2849   -3.1045 H   0  0  0  0  0  0  0  0  0  0  0  0
   -1.3074   -2.1646   -4.1319 H   0  0  0  0  0  0  0  0  0  0  0  0
   -0.2835   -1.5112   -0.2725 N   0  0  0  0  0  0  0  0  0  0  0  0
    0.0769   -0.7658    0.9424 C   0  0  0  0  0  0  0  0  0  0  0  0
    1.4896   -0.2542    0.8214 C   0  0  0  0  0  0  0  0  0  0  0  0
    2.1062   -0.2168   -0.2401 O   0  0  0  0  0  0  0  0  0  0  0  0
    0.4587   -2.0097   -0.7289 H   0  0  0  0  0  0  0  0  0  0  0  0
   -0.0018   -1.4292    1.8087 H   0  0  0  0  0  0  0  0  0  0  0  0
   -0.6125    0.0746    1.0660 H   0  0  0  0  0  0  0  0  0  0  0  0
    1.9917    0.1587    2.0510 N   0  0  0  0  0  0  0  0  0  0  0  0
    3.3179    0.6886    2.2293 C   0  0  2  0  0  0  0  0  0  0  0  0
    3.1908    2.0809    2.8334 C   0  0  0  0  0  0  0  0  0  0  0  0
    2.1731    2.7636    2.7369 O   0  0  0  0  0  0  0  0  0  0  0  0
    4.0771    0.7347    0.9124 C   0  0  0  0  0  0  0  0  0  0  0  0
    1.3889    0.0821    2.8685 H   0  0  0  0  0  0  0  0  0  0  0  0
    3.8299    0.0279    2.9375 H   0  0  0  0  0  0  0  0  0  0  0  0
    3.5792    1.3919    0.1901 H   0  0  0  0  0  0  0  0  0  0  0  0
    5.0955    1.1113    1.0545 H   0  0  0  0  0  0  0  0  0  0  0  0
    4.1418   -0.2628    0.4647 H   0  0  0  0  0  0  0  0  0  0  0  0
    4.3623    2.4886    3.4559 N   0  0  0  0  0  0  0  0  0  0  0  0
    4.4983    3.7770    4.0943 C   0  0  0  0  0  0  0  0  0  0  0  0
    5.1507    1.8500    3.5046 H   0  0  0  0  0  0  0  0  0  0  0  0
    4.9088    4.5015    3.3755 H   0  0  0  0  0  0  0  0  0  0  0  0
    3.5120    4.1213    4.4389 H   0  0  0  0  0  0  0  0  0  0  0  0
    5.1775    3.6897    4.9551 H   0  0  0  0  0  0  0  0  0  0  0  0
  1  3  1  0  0  0  0
  1  7  1  0  0  0  0
  1  2  2  0  0  0  0
 18 19  1  0  0  0  0
 19 24  1  0  0  0  0
 19 20  2  0  0  0  0
 25 26  1  0  0  0  0
 26 34  1  0  0  0  0
 26 27  2  0  0  0  0
  8  9  1  0  0  0  0
  9 17  1  0  0  0  0
  9 10  2  0  0  0  0
 25 28  1  0  0  0  0
  8 11  1  0  0  0  0
 34 35  1  0  0  0  0
 17 18  1  0  0  0  0
 24 25  1  0  0  0  0
  7  8  1  0  0  0  0
  3  4  1  0  0  0  0
  3  5  1  0  0  0  0
  3  6  1  0  0  0  0
 28 31  1  0  0  0  0
 28 32  1  0  0  0  0
 28 33  1  0  0  0  0
 11 14  1  0  0  0  0
 11 15  1  0  0  0  0
 11 16  1  0  0  0  0
 35 37  1  0  0  0  0
 35 38  1  0  0  0  0
 35 39  1  0  0  0  0
 18 22  1  0  0  0  0
 18 23  1  0  0  0  0
 25 30  1  0  0  0  0
  8 13  1  0  0  0  0
 34 36  1  0  0  0  0
 17 21  1  0  0  0  0
  7 12  1  0  0  0  0
 24 29  1  0  0  0  0
M  END
$$$$

  -OEChem-05262214473D

 39 38  0     1  0  0  0  0  0999 V2000
   -3.5200   -4.0268   -1.6943 C   0  0  0  0  0  0  0  0  0  0  0  0
   -2.8702   -4.8827   -1.1054 O   0  0  0  0  0  0  0  0  0  0  0  0
   -4.9704   -4.2579   -1.9614 C   0  0  0  0  0  0  0  0  0  0  0  0
   -5.1456   -4.7573   -2.9278 H   0  0  0  0  0  0  0  0  0  0  0  0
   -5.4379   -4.9112   -1.2072 H   0  0  0  0  0  0  0  0  0  0  0  0
   -5.5954   -3.3510   -1.9864 H   0  0  0  0  0  0  0  0  0  0  0  0
   -3.0424   -2.8131   -2.1606 N   0  0  0  0  0  0  0  0  0  0  0  0
   -1.6755   -2.3891   -2.0077 C   0  0  2  0  0  0  0  0  0  0  0  0
   -1.5782   -1.5673   -0.7292 C   0  0  0  0  0  0  0  0  0  0  0  0
   -2.5448   -1.0064   -0.2171 O   0  0  0  0  0  0  0  0  0  0  0  0
   -1.2087   -1.5823   -3.2094 C   0  0  0  0  0  0  0  0  0  0  0  0
   -3.6915   -2.1888   -2.6360 H   0  0  0  0  0  0  0  0  0  0  0  0
   -1.0721   -3.2977   -1.9053 H   0  0  0  0  0  0  0  0  0  0  0  0
   -1.8017   -0.6681   -3.3281 H   0  0  0  0  0  0  0  0  0  0  0  0
   -0.1601   -1.2849   -3.1045 H   0  0  0  0  0  0  0  0  0  0  0  0
   -1.3074   -2.1646   -4.1319 H   0  0  0  0  0  0  0  0  0  0  0  0
   -0.2835   -1.5112   -0.2725 N   0  0  0  0  0  0  0  0  0  0  0  0
    0.0769   -0.7658    0.9424 C   0  0  0  0  0  0  0  0  0  0  0  0
    1.4896   -0.2542    0.8214 C   0  0  0  0  0  0  0  0  0  0  0  0
    2.0143    0.0344   -0.2509 O   0  0  0  0  0  0  0  0  0  0  0  0
    0.4587   -2.0097   -0.7289 H   0  0  0  0  0  0  0  0  0  0  0  0
   -0.0018   -1.4292    1.8087 H   0  0  0  0  0  0  0  0  0  0  0  0
   -0.6125    0.0746    1.0660 H   0  0  0  0  0  0  0  0  0  0  0  0
    2.1076   -0.1581    2.0637 N   0  0  0  0  0  0  0  0  0  0  0  0
    3.4602    0.2992    2.2442 C   0  0  2  0  0  0  0  0  0  0  0  0
    3.4291    1.5036    3.1758 C   0  0  0  0  0  0  0  0  0  0  0  0
    2.4290    2.1994    3.3395 O   0  0  0  0  0  0  0  0  0  0  0  0
    4.1054    0.6570    0.9144 C   0  0  0  0  0  0  0  0  0  0  0  0
    1.5745   -0.4255    2.8896 H   0  0  0  0  0  0  0  0  0  0  0  0
    4.0095   -0.5191    2.7225 H   0  0  0  0  0  0  0  0  0  0  0  0
    3.5688    1.4752    0.4204 H   0  0  0  0  0  0  0  0  0  0  0  0
    5.1436    0.9775    1.0506 H   0  0  0  0  0  0  0  0  0  0  0  0
    4.1001   -0.2021    0.2349 H   0  0  0  0  0  0  0  0  0  0  0  0
    4.6618    1.7359    3.7698 N   0  0  0  0  0  0  0  0  0  0  0  0
    4.8923    2.8286    4.6856 C   0  0  0  0  0  0  0  0  0  0  0  0
    5.4308    1.0968    3.5913 H   0  0  0  0  0  0  0  0  0  0  0  0
    5.2627    3.7022    4.1291 H   0  0  0  0  0  0  0  0  0  0  0  0
    3.9504    3.0884    5.1909 H   0  0  0  0  0  0  0  0  0  0  0  0
    5.6394    2.5276    5.4348 H   0  0  0  0  0  0  0  0  0  0  0  0
  1  3  1  0  0  0  0
  1  7  1  0  0  0  0
  1  2  2  0  0  0  0
 18 19  1  0  0  0  0
 19 24  1  0  0  0  0
 19 20  2  0  0  0  0
 25 26  1  0  0  0  0
 26 34  1  0  0  0  0
 26 27  2  0  0  0  0
  8  9  1  0  0  0  0
  9 17  1  0  0  0  0
  9 10  2  0  0  0  0
 25 28  1  0  0  0  0
  8 11  1  0  0  0  0
 34 35  1  0  0  0  0
 17 18  1  0  0  0  0
 24 25  1  0  0  0  0
  7  8  1  0  0  0  0
  3  4  1  0  0  0  0
  3  5  1  0  0  0  0
  3  6  1  0  0  0  0
 28 31  1  0  0  0  0
 28 32  1  0  0  0  0
 28 33  1  0  0  0  0
 11 14  1  0  0  0  0
 11 15  1  0  0  0  0
 11 16  1  0  0  0  0
 35 37  1  0  0  0  0
 35 38  1  0  0  0  0
 35 39  1  0  0  0  0
 18 22  1  0  0  0  0
 18 23  1  0  0  0  0
 25 30  1  0  0  0  0
  8 13  1  0  0  0  0
 34 36  1  0  0  0  0
 17 21  1  0  0  0  0
  7 12  1  0  0  0  0
 24 29  1  0  0  0  0
M  END
$$$$

  -OEChem-05262214473D

 39 38  0     1  0  0  0  0  0999 V2000
   -3.5200   -4.0268   -1.6943 C   0  0  0  0  0  0  0  0  0  0  0  0
   -2.8702   -4.8827   -1.1054 O   0  0  0  0  0  0  0  0  0  0  0  0
   -4.9704   -4.2579   -1.9614 C   0  0  0  0  0  0  0  0  0  0  0  0
   -5.1456   -4.7573   -2.9278 H   0  0  0  0  0  0  0  0  0  0  0  0
   -5.4379   -4.9112   -1.2072 H   0  0  0  0  0  0  0  0  0  0  0  0
   -5.5954   -3.3510   -1.9864 H   0  0  0  0  0  0  0  0  0  0  0  0
   -3.0424   -2.8131   -2.1606 N   0  0  0  0  0  0  0  0  0  0  0  0
   -1.6755   -2.3891   -2.0077 C   0  0  2  0  0  0  0  0  0  0  0  0
   -1.5782   -1.5673   -0.7292 C   0  0  0  0  0  0  0  0  0  0  0  0
   -2.5448   -1.0064   -0.2171 O   0  0  0  0  0  0  0  0  0  0  0  0
   -1.2087   -1.5823   -3.2094 C   0  0  0  0  0  0  0  0  0  0  0  0
   -3.6915   -2.1888   -2.6360 H   0  0  0  0  0  0  0  0  0  0  0  0
   -1.0721   -3.2977   -1.9053 H   0  0  0  0  0  0  0  0  0  0  0  0
   -1.8017   -0.6681   -3.3281 H   0  0  0  0  0  0  0  0  0  0  0  0
   -0.1601   -1.2849   -3.1045 H   0  0  0  0  0  0  0  0  0  0  0  0
   -1.3074   -2.1646   -4.1319 H   0  0  0  0  0  0  0  0  0  0  0  0
   -0.2835   -1.5112   -0.2725 N   0  0  0  0  0  0  0  0  0  0  0  0
    0.0769   -0.7658    0.9424 C   0  0  0  0  0  0  0  0  0  0  0  0
    1.4896   -0.2542    0.8214 C   0  0  0  0  0  0  0  0  0  0  0  0
    1.9298    0.2816   -0.1922 O   0  0  0  0  0  0  0  0  0  0  0  0
    0.4587   -2.0097   -0.7289 H   0  0  0  0  0  0  0  0  0  0  0  0
   -0.0018   -1.4292    1.8087 H   0  0  0  0  0  0  0  0  0  0  0  0
   -0.6125    0.0746    1.0660 H   0  0  0  0  0  0  0  0  0  0  0  0
    2.2140   -0.4697    1.9890 N   0  0  0  0  0  0  0  0  0  0  0  0
    3.5909   -0.0836    2.1517 C   0  0  2  0  0  0  0  0  0  0  0  0
    3.6774    0.8580    3.3455 C   0  0  0  0  0  0  0  0  0  0  0  0
    2.7174    1.5029    3.7623 O   0  0  0  0  0  0  0  0  0  0  0  0
    4.1313    0.5809    0.8950 C   0  0  0  0  0  0  0  0  0  0  0  0
    1.7451   -0.9248    2.7705 H   0  0  0  0  0  0  0  0  0  0  0  0
    4.1528   -0.9991    2.3663 H   0  0  0  0  0  0  0  0  0  0  0  0
    3.5806    1.5000    0.6639 H   0  0  0  0  0  0  0  0  0  0  0  0
    5.1869    0.8482    1.0102 H   0  0  0  0  0  0  0  0  0  0  0  0
    4.0409   -0.0868    0.0314 H   0  0  0  0  0  0  0  0  0  0  0  0
    4.9629    0.9264    3.8641 N   0  0  0  0  0  0  0  0  0  0  0  0
    5.3052    1.7609    4.9922 C   0  0  0  0  0  0  0  0  0  0  0  0
    5.6934    0.3425    3.4677 H   0  0  0  0  0  0  0  0  0  0  0  0
    5.6542    2.7400    4.6321 H   0  0  0  0  0  0  0  0  0  0  0  0
    4.4184    1.8992    5.6282 H   0  0  0  0  0  0  0  0  0  0  0  0
    6.1035    1.2791    5.5757 H   0  0  0  0  0  0  0  0  0  0  0  0
  1  3  1  0  0  0  0
  1  7  1  0  0  0  0
  1  2  2  0  0  0  0
 18 19  1  0  0  0  0
 19 24  1  0  0  0  0
 19 20  2  0  0  0  0
 25 26  1  0  0  0  0
 26 34  1  0  0  0  0
 26 27  2  0  0  0  0
  8  9  1  0  0  0  0
  9 17  1  0  0  0  0
  9 10  2  0  0  0  0
 25 28  1  0  0  0  0
  8 11  1  0  0  0  0
 34 35  1  0  0  0  0
 17 18  1  0  0  0  0
 24 25  1  0  0  0  0
  7  8  1  0  0  0  0
  3  4  1  0  0  0  0
  3  5  1  0  0  0  0
  3  6  1  0  0  0  0
 28 31  1  0  0  0  0
 28 32  1  0  0  0  0
 28 33  1  0  0  0  0
 11 14  1  0  0  0  0
 11 15  1  0  0  0  0
 11 16  1  0  0  0  0
 35 37  1  0  0  0  0
 35 38  1  0  0  0  0
 35 39  1  0  0  0  0
 18 22  1  0  0  0  0
 18 23  1  0  0  0  0
 25 30  1  0  0  0  0
  8 13  1  0  0  0  0
 34 36  1  0  0  0  0
 17 21  1  0  0  0  0
  7 12  1  0  0  0  0
 24 29  1  0  0  0  0
M  END
$$$$

  -OEChem-05262214473D

 39 38  0     1  0  0  0  0  0999 V2000
   -3.5200   -4.0268   -1.6943 C   0  0  0  0  0  0  0  0  0  0  0  0
   -2.8702   -4.8827   -1.1054 O   0  0  0  0  0  0  0  0  0  0  0  0
   -4.9704   -4.2579   -1.9614 C   0  0  0  0  0  0  0  0  0  0  0  0
   -5.1456   -4.7573   -2.9278 H   0  0  0  0  0  0  0  0  0  0  0  0
   -5.4379   -4.9112   -1.2072 H   0  0  0  0  0  0  0  0  0  0  0  0
   -5.5954   -3.3510   -1.9864 H   0  0  0  0  0  0  0  0  0  0  0  0
   -3.0424   -2.8131   -2.1606 N   0  0  0  0  0  0  0  0  0  0  0  0
   -1.6755   -2.3891   -2.0077 C   0  0  2  0  0  0  0  0  0  0  0  0
   -1.5782   -1.5673   -0.7292 C   0  0  0  0  0  0  0  0  0  0  0  0
   -2.5448   -1.0064   -0.2171 O   0  0  0  0  0  0  0  0  0  0  0  0
   -1.2087   -1.5823   -3.2094 C   0  0  0  0  0  0  0  0  0  0  0  0
   -3.6915   -2.1888   -2.6360 H   0  0  0  0  0  0  0  0  0  0  0  0
   -1.0721   -3.2977   -1.9053 H   0  0  0  0  0  0  0  0  0  0  0  0
   -1.8017   -0.6681   -3.3281 H   0  0  0  0  0  0  0  0  0  0  0  0
   -0.1601   -1.2849   -3.1045 H   0  0  0  0  0  0  0  0  0  0  0  0
   -1.3074   -2.1646   -4.1319 H   0  0  0  0  0  0  0  0  0  0  0  0
   -0.2835   -1.5112   -0.2725 N   0  0  0  0  0  0  0  0  0  0  0  0
    0.0769   -0.7658    0.9424 C   0  0  0  0  0  0  0  0  0  0  0  0
    1.4896   -0.2542    0.8214 C   0  0  0  0  0  0  0  0  0  0  0  0
    1.8585    0.5079   -0.0683 O   0  0  0  0  0  0  0  0  0  0  0  0
    0.4587   -2.0097   -0.7289 H   0  0  0  0  0  0  0  0  0  0  0  0
   -0.0018   -1.4292    1.8087 H   0  0  0  0  0  0  0  0  0  0  0  0
   -0.6125    0.0746    1.0660 H   0  0  0  0  0  0  0  0  0  0  0  0
    2.3037   -0.7547    1.8320 N   0  0  0  0  0  0  0  0  0  0  0  0
    3.7010   -0.4335    1.9579 C   0  0  2  0  0  0  0  0  0  0  0  0
    3.9188    0.1881    3.3311 C   0  0  0  0  0  0  0  0  0  0  0  0
    3.0187    0.7216    3.9763 O   0  0  0  0  0  0  0  0  0  0  0  0
    4.1531    0.5115    0.8555 C   0  0  0  0  0  0  0  0  0  0  0  0
    1.8890   -1.3817    2.5194 H   0  0  0  0  0  0  0  0  0  0  0  0
    4.2500   -1.3793    1.8933 H   0  0  0  0  0  0  0  0  0  0  0  0
    3.6140    1.4647    0.9041 H   0  0  0  0  0  0  0  0  0  0  0  0
    5.2226    0.7323    0.9360 H   0  0  0  0  0  0  0  0  0  0  0  0
    3.9683    0.0752   -0.1320 H   0  0  0  0  0  0  0  0  0  0  0  0
    5.2453    0.1154    3.7325 N   0  0  0  0  0  0  0  0  0  0  0  0
    5.7087    0.6467    4.9930 C   0  0  0  0  0  0  0  0  0  0  0  0
    5.9205   -0.3617    3.1423 H   0  0  0  0  0  0  0  0  0  0  0  0
    6.0566    1.6804    4.8502 H   0  0  0  0  0  0  0  0  0  0  0  0
    4.8843    0.6347    5.7211 H   0  0  0  0  0  0  0  0  0  0  0  0
    6.5383    0.0293    5.3682 H   0  0  0  0  0  0  0  0  0  0  0  0
  1  3  1  0  0  0  0
  1  7  1  0  0  0  0
  1  2  2  0  0  0  0
 18 19  1  0  0  0  0
 19 24  1  0  0  0  0
 19 20  2  0  0  0  0
 25 26  1  0  0  0  0
 26 34  1  0  0  0  0
 26 27  2  0  0  0  0
  8  9  1  0  0  0  0
  9 17  1  0  0  0  0
  9 10  2  0  0  0  0
 25 28  1  0  0  0  0
  8 11  1  0  0  0  0
 34 35  1  0  0  0  0
 17 18  1  0  0  0  0
 24 25  1  0  0  0  0
  7  8  1  0  0  0  0
  3  4  1  0  0  0  0
  3  5  1  0  0  0  0
  3  6  1  0  0  0  0
 28 31  1  0  0  0  0
 28 32  1  0  0  0  0
 28 33  1  0  0  0  0
 11 14  1  0  0  0  0
 11 15  1  0  0  0  0
 11 16  1  0  0  0  0
 35 37  1  0  0  0  0
 35 38  1  0  0  0  0
 35 39  1  0  0  0  0
 18 22  1  0  0  0  0
 18 23  1  0  0  0  0
 25 30  1  0  0  0  0
  8 13  1  0  0  0  0
 34 36  1  0  0  0  0
 17 21  1  0  0  0  0
  7 12  1  0  0  0  0
 24 29  1  0  0  0  0
M  END
$$$$

  -OEChem-05262214473D

 39 38  0     1  0  0  0  0  0999 V2000
   -3.5200   -4.0268   -1.6943 C   0  0  0  0  0  0  0  0  0  0  0  0
   -2.8702   -4.8827   -1.1054 O   0  0  0  0  0  0  0  0  0  0  0  0
   -4.9704   -4.2579   -1.9614 C   0  0  0  0  0  0  0  0  0  0  0  0
   -5.1456   -4.7573   -2.9278 H   0  0  0  0  0  0  0  0  0  0  0  0
   -5.4379   -4.9112   -1.2072 H   0  0  0  0  0  0  0  0  0  0  0  0
   -5.5954   -3.3510   -1.9864 H   0  0  0  0  0  0  0  0  0  0  0  0
   -3.0424   -2.8131   -2.1606 N   0  0  0  0  0  0  0  0  0  0  0  0
   -1.6755   -2.3891   -2.0077 C   0  0  2  0  0  0  0  0  0  0  0  0
   -1.5782   -1.5673   -0.7292 C   0  0  0  0  0  0  0  0  0  0  0  0
   -2.5448   -1.0064   -0.2171 O   0  0  0  0  0  0  0  0  0  0  0  0
   -1.2087   -1.5823   -3.2094 C   0  0  0  0  0  0  0  0  0  0  0  0
   -3.6915   -2.1888   -2.6360 H   0  0  0  0  0  0  0  0  0  0  0  0
   -1.0721   -3.2977   -1.9053 H   0  0  0  0  0  0  0  0  0  0  0  0
   -1.8017   -0.6681   -3.3281 H   0  0  0  0  0  0  0  0  0  0  0  0
   -0.1601   -1.2849   -3.1045 H   0  0  0  0  0  0  0  0  0  0  0  0
   -1.3074   -2.1646   -4.1319 H   0  0  0  0  0  0  0  0  0  0  0  0
   -0.2835   -1.5112   -0.2725 N   0  0  0  0  0  0  0  0  0  0  0  0
    0.0769   -0.7658    0.9424 C   0  0  0  0  0  0  0  0  0  0  0  0
    1.4896   -0.2542    0.8214 C   0  0  0  0  0  0  0  0  0  0  0  0
    1.8052    0.6979    0.1127 O   0  0  0  0  0  0  0  0  0  0  0  0
    0.4587   -2.0097   -0.7289 H   0  0  0  0  0  0  0  0  0  0  0  0
   -0.0018   -1.4292    1.8087 H   0  0  0  0  0  0  0  0  0  0  0  0
   -0.6125    0.0746    1.0660 H   0  0  0  0  0  0  0  0  0  0  0  0
    2.3707   -0.9937    1.6032 N   0  0  0  0  0  0  0  0  0  0  0  0
    3.7831   -0.7268    1.6762 C   0  0  2  0  0  0  0  0  0  0  0  0
    4.1367   -0.4605    3.1334 C   0  0  0  0  0  0  0  0  0  0  0  0
    3.3122   -0.0912    3.9671 O   0  0  0  0  0  0  0  0  0  0  0  0
    4.1692    0.4537    0.7987 C   0  0  0  0  0  0  0  0  0  0  0  0
    1.9965   -1.7651    2.1533 H   0  0  0  0  0  0  0  0  0  0  0  0
    4.2943   -1.6338    1.3356 H   0  0  0  0  0  0  0  0  0  0  0  0
    3.6666    1.3716    1.1247 H   0  0  0  0  0  0  0  0  0  0  0  0
    5.2481    0.6375    0.8331 H   0  0  0  0  0  0  0  0  0  0  0  0
    3.8871    0.2727   -0.2442 H   0  0  0  0  0  0  0  0  0  0  0  0
    5.4897   -0.6419    3.3837 N   0  0  0  0  0  0  0  0  0  0  0  0
    6.0754   -0.4382    4.6881 C   0  0  0  0  0  0  0  0  0  0  0  0
    6.0966   -0.9676    2.6372 H   0  0  0  0  0  0  0  0  0  0  0  0
    6.4423    0.5957    4.7684 H   0  0  0  0  0  0  0  0  0  0  0  0
    5.3161   -0.6190    5.4632 H   0  0  0  0  0  0  0  0  0  0  0  0
    6.9140   -1.1365    4.8264 H   0  0  0  0  0  0  0  0  0  0  0  0
  1  3  1  0  0  0  0
  1  7  1  0  0  0  0
  1  2  2  0  0  0  0
 18 19  1  0  0  0  0
 19 24  1  0  0  0  0
 19 20  2  0  0  0  0
 25 26  1  0  0  0  0
 26 34  1  0  0  0  0
 26 27  2  0  0  0  0
  8  9  1  0  0  0  0
  9 17  1  0  0  0  0
  9 10  2  0  0  0  0
 25 28  1  0  0  0  0
  8 11  1  0  0  0  0
 34 35  1  0  0  0  0
 17 18  1  0  0  0  0
 24 25  1  0  0  0  0
  7  8  1  0  0  0  0
  3  4  1  0  0  0  0
  3  5  1  0  0  0  0
  3  6  1  0  0  0  0
 28 31  1  0  0  0  0
 28 32  1  0  0  0  0
 28 33  1  0  0  0  0
 11 14  1  0  0  0  0
 11 15  1  0  0  0  0
 11 16  1  0  0  0  0
 35 37  1  0  0  0  0
 35 38  1  0  0  0  0
 35 39  1  0  0  0  0
 18 22  1  0  0  0  0
 18 23  1  0  0  0  0
 25 30  1  0  0  0  0
  8 13  1  0  0  0  0
 34 36  1  0  0  0  0
 17 21  1  0  0  0  0
  7 12  1  0  0  0  0
 24 29  1  0  0  0  0
M  END
$$$$

  -OEChem-05262214473D

 39 38  0     1  0  0  0  0  0999 V2000
   -3.5200   -4.0268   -1.6943 C   0  0  0  0  0  0  0  0  0  0  0  0
   -2.8702   -4.8827   -1.1054 O   0  0  0  0  0  0  0  0  0  0  0  0
   -4.9704   -4.2579   -1.9614 C   0  0  0  0  0  0  0  0  0  0  0  0
   -5.1456   -4.7573   -2.9278 H   0  0  0  0  0  0  0  0  0  0  0  0
   -5.4379   -4.9112   -1.2072 H   0  0  0  0  0  0  0  0  0  0  0  0
   -5.5954   -3.3510   -1.9864 H   0  0  0  0  0  0  0  0  0  0  0  0
   -3.0424   -2.8131   -2.1606 N   0  0  0  0  0  0  0  0  0  0  0  0
   -1.6755   -2.3891   -2.0077 C   0  0  2  0  0  0  0  0  0  0  0  0
   -1.5782   -1.5673   -0.7292 C   0  0  0  0  0  0  0  0  0  0  0  0
   -2.5448   -1.0064   -0.2171 O   0  0  0  0  0  0  0  0  0  0  0  0
   -1.2087   -1.5823   -3.2094 C   0  0  0  0  0  0  0  0  0  0  0  0
   -3.6915   -2.1888   -2.6360 H   0  0  0  0  0  0  0  0  0  0  0  0
   -1.0721   -3.2977   -1.9053 H   0  0  0  0  0  0  0  0  0  0  0  0
   -1.8017   -0.6681   -3.3281 H   0  0  0  0  0  0  0  0  0  0  0  0
   -0.1601   -1.2849   -3.1045 H   0  0  0  0  0  0  0  0  0  0  0  0
   -1.3074   -2.1646   -4.1319 H   0  0  0  0  0  0  0  0  0  0  0  0
   -0.2835   -1.5112   -0.2725 N   0  0  0  0  0  0  0  0  0  0  0  0
    0.0769   -0.7658    0.9424 C   0  0  0  0  0  0  0  0  0  0  0  0
    1.4896   -0.2542    0.8214 C   0  0  0  0  0  0  0  0  0  0  0  0
    1.7736    0.8386    0.3382 O   0  0  0  0  0  0  0  0  0  0  0  0
    0.4587   -2.0097   -0.7289 H   0  0  0  0  0  0  0  0  0  0  0  0
   -0.0018   -1.4292    1.8087 H   0  0  0  0  0  0  0  0  0  0  0  0
   -0.6125    0.0746    1.0660 H   0  0  0  0  0  0  0  0  0  0  0  0
    2.4103   -1.1706    1.3184 N   0  0  0  0  0  0  0  0  0  0  0  0
    3.8315   -0.9435    1.3258 C   0  0  2  0  0  0  0  0  0  0  0  0
    4.3163   -1.0435    2.7660 C   0  0  0  0  0  0  0  0  0  0  0  0
    3.5780   -0.8802    3.7352 O   0  0  0  0  0  0  0  0  0  0  0  0
    4.1785    0.4112    0.7283 C   0  0  0  0  0  0  0  0  0  0  0  0
    2.0602   -2.0490    1.6973 H   0  0  0  0  0  0  0  0  0  0  0  0
    4.2829   -1.7453    0.7313 H   0  0  0  0  0  0  0  0  0  0  0  0
    3.7348    1.2271    1.3105 H   0  0  0  0  0  0  0  0  0  0  0  0
    5.2617    0.5704    0.7084 H   0  0  0  0  0  0  0  0  0  0  0  0
    3.8030    0.4925   -0.2975 H   0  0  0  0  0  0  0  0  0  0  0  0
    5.6793   -1.2939    2.8417 N   0  0  0  0  0  0  0  0  0  0  0  0
    6.3803   -1.4198    4.0982 C   0  0  0  0  0  0  0  0  0  0  0  0
    6.2098   -1.4341    1.9869 H   0  0  0  0  0  0  0  0  0  0  0  0
    6.7852   -0.4403    4.3925 H   0  0  0  0  0  0  0  0  0  0  0  0
    5.6845   -1.7763    4.8720 H   0  0  0  0  0  0  0  0  0  0  0  0
    7.2051   -2.1391    3.9873 H   0  0  0  0  0  0  0  0  0  0  0  0
  1  3  1  0  0  0  0
  1  7  1  0  0  0  0
  1  2  2  0  0  0  0
 18 19  1  0  0  0  0
 19 24  1  0  0  0  0
 19 20  2  0  0  0  0
 25 26  1  0  0  0  0
 26 34  1  0  0  0  0
 26 27  2  0  0  0  0
  8  9  1  0  0  0  0
  9 17  1  0  0  0  0
  9 10  2  0  0  0  0
 25 28  1  0  0  0  0
  8 11  1  0  0  0  0
 34 35  1  0  0  0  0
 17 18  1  0  0  0  0
 24 25  1  0  0  0  0
  7  8  1  0  0  0  0
  3  4  1  0  0  0  0
  3  5  1  0  0  0  0
  3  6  1  0  0  0  0
 28 31  1  0  0  0  0
 28 32  1  0  0  0  0
 28 33  1  0  0  0  0
 11 14  1  0  0  0  0
 11 15  1  0  0  0  0
 11 16  1  0  0  0  0
 35 37  1  0  0  0  0
 35 38  1  0  0  0  0
 35 39  1  0  0  0  0
 18 22  1  0  0  0  0
 18 23  1  0  0  0  0
 25 30  1  0  0  0  0
  8 13  1  0  0  0  0
 34 36  1  0  0  0  0
 17 21  1  0  0  0  0
  7 12  1  0  0  0  0
 24 29  1  0  0  0  0
M  END
$$$$

  -OEChem-05262214473D

 39 38  0     1  0  0  0  0  0999 V2000
   -3.5200   -4.0268   -1.6943 C   0  0  0  0  0  0  0  0  0  0  0  0
   -2.8702   -4.8827   -1.1054 O   0  0  0  0  0  0  0  0  0  0  0  0
   -4.9704   -4.2579   -1.9614 C   0  0  0  0  0  0  0  0  0  0  0  0
   -5.1456   -4.7573   -2.9278 H   0  0  0  0  0  0  0  0  0  0  0  0
   -5.4379   -4.9112   -1.2072 H   0  0  0  0  0  0  0  0  0  0  0  0
   -5.5954   -3.3510   -1.9864 H   0  0  0  0  0  0  0  0  0  0  0  0
   -3.0424   -2.8131   -2.1606 N   0  0  0  0  0  0  0  0  0  0  0  0
   -1.6755   -2.3891   -2.0077 C   0  0  2  0  0  0  0  0  0  0  0  0
   -1.5782   -1.5673   -0.7292 C   0  0  0  0  0  0  0  0  0  0  0  0
   -2.5448   -1.0064   -0.2171 O   0  0  0  0  0  0  0  0  0  0  0  0
   -1.2087   -1.5823   -3.2094 C   0  0  0  0  0  0  0  0  0  0  0  0
   -3.6915   -2.1888   -2.6360 H   0  0  0  0  0  0  0  0  0  0  0  0
   -1.0721   -3.2977   -1.9053 H   0  0  0  0  0  0  0  0  0  0  0  0
   -1.8017   -0.6681   -3.3281 H   0  0  0  0  0  0  0  0  0  0  0  0
   -0.1601   -1.2849   -3.1045 H   0  0  0  0  0  0  0  0  0  0  0  0
   -1.3074   -2.1646   -4.1319 H   0  0  0  0  0  0  0  0  0  0  0  0
   -0.2835   -1.5112   -0.2725 N   0  0  0  0  0  0  0  0  0  0  0  0
    0.0769   -0.7658    0.9424 C   0  0  0  0  0  0  0  0  0  0  0  0
    1.4896   -0.2542    0.8214 C   0  0  0  0  0  0  0  0  0  0  0  0
    1.7658    0.9205    0.5930 O   0  0  0  0  0  0  0  0  0  0  0  0
    0.4587   -2.0097   -0.7289 H   0  0  0  0  0  0  0  0  0  0  0  0
   -0.0018   -1.4292    1.8087 H   0  0  0  0  0  0  0  0  0  0  0  0
   -0.6125    0.0746    1.0660 H   0  0  0  0  0  0  0  0  0  0  0  0
    2.4199   -1.2731    0.9969 N   0  0  0  0  0  0  0  0  0  0  0  0
    3.8430   -1.0688    0.9304 C   0  0  2  0  0  0  0  0  0  0  0  0
    4.4455   -1.5214    2.2540 C   0  0  0  0  0  0  0  0  0  0  0  0
    3.7980   -1.5916    3.2965 O   0  0  0  0  0  0  0  0  0  0  0  0
    4.1804    0.3871    0.6492 C   0  0  0  0  0  0  0  0  0  0  0  0
    2.0758   -2.2138    1.1824 H   0  0  0  0  0  0  0  0  0  0  0  0
    4.2166   -1.7062    0.1216 H   0  0  0  0  0  0  0  0  0  0  0  0
    3.8141    1.0410    1.4489 H   0  0  0  0  0  0  0  0  0  0  0  0
    5.2625    0.5356    0.5705 H   0  0  0  0  0  0  0  0  0  0  0  0
    3.7216    0.7194   -0.2883 H   0  0  0  0  0  0  0  0  0  0  0  0
    5.8013   -1.7962    2.1434 N   0  0  0  0  0  0  0  0  0  0  0  0
    6.6026   -2.2312    3.2635 C   0  0  0  0  0  0  0  0  0  0  0  0
    6.2523   -1.7292    1.2357 H   0  0  0  0  0  0  0  0  0  0  0  0
    7.0619   -1.3569    3.7479 H   0  0  0  0  0  0  0  0  0  0  0  0
    5.9644   -2.7584    3.9879 H   0  0  0  0  0  0  0  0  0  0  0  0
    7.3918   -2.9100    2.9080 H   0  0  0  0  0  0  0  0  0  0  0  0
  1  3  1  0  0  0  0
  1  7  1  0  0  0  0
  1  2  2  0  0  0  0
 18 19  1  0  0  0  0
 19 24  1  0  0  0  0
 19 20  2  0  0  0  0
 25 26  1  0  0  0  0
 26 34  1  0  0  0  0
 26 27  2  0  0  0  0
  8  9  1  0  0  0  0
  9 17  1  0  0  0  0
  9 10  2  0  0  0  0
 25 28  1  0  0  0  0
  8 11  1  0  0  0  0
 34 35  1  0  0  0  0
 17 18  1  0  0  0  0
 24 25  1  0  0  0  0
  7  8  1  0  0  0  0
  3  4  1  0  0  0  0
  3  5  1  0  0  0  0
  3  6  1  0  0  0  0
 28 31  1  0  0  0  0
 28 32  1  0  0  0  0
 28 33  1  0  0  0  0
 11 14  1  0  0  0  0
 11 15  1  0  0  0  0
 11 16  1  0  0  0  0
 35 37  1  0  0  0  0
 35 38  1  0  0  0  0
 35 39  1  0  0  0  0
 18 22  1  0  0  0  0
 18 23  1  0  0  0  0
 25 30  1  0  0  0  0
  8 13  1  0  0  0  0
 34 36  1  0  0  0  0
 17 21  1  0  0  0  0
  7 12  1  0  0  0  0
 24 29  1  0  0  0  0
M  END
$$$$

  -OEChem-05262214473D

 39 38  0     1  0  0  0  0  0999 V2000
   -3.5200   -4.0268   -1.6943 C   0  0  0  0  0  0  0  0  0  0  0  0
   -2.8702   -4.8827   -1.1054 O   0  0  0  0  0  0  0  0  0  0  0  0
   -4.9704   -4.2579   -1.9614 C   0  0  0  0  0  0  0  0  0  0  0  0
   -5.1456   -4.7573   -2.9278 H   0  0  0  0  0  0  0  0  0  0  0  0
   -5.4379   -4.9112   -1.2072 H   0  0  0  0  0  0  0  0  0  0  0  0
   -5.5954   -3.3510   -1.9864 H   0  0  0  0  0  0  0  0  0  0  0  0
   -3.0424   -2.8131   -2.1606 N   0  0  0  0  0  0  0  0  0  0  0  0
   -1.6755   -2.3891   -2.0077 C   0  0  2  0  0  0  0  0  0  0  0  0
   -1.5782   -1.5673   -0.7292 C   0  0  0  0  0  0  0  0  0  0  0  0
   -2.5448   -1.0064   -0.2171 O   0  0  0  0  0  0  0  0  0  0  0  0
   -1.2087   -1.5823   -3.2094 C   0  0  0  0  0  0  0  0  0  0  0  0
   -3.6915   -2.1888   -2.6360 H   0  0  0  0  0  0  0  0  0  0  0  0
   -1.0721   -3.2977   -1.9053 H   0  0  0  0  0  0  0  0  0  0  0  0
   -1.8017   -0.6681   -3.3281 H   0  0  0  0  0  0  0  0  0  0  0  0
   -0.1601   -1.2849   -3.1045 H   0  0  0  0  0  0  0  0  0  0  0  0
   -1.3074   -2.1646   -4.1319 H   0  0  0  0  0  0  0  0  0  0  0  0
   -0.2835   -1.5112   -0.2725 N   0  0  0  0  0  0  0  0  0  0  0  0
    0.0769   -0.7658    0.9424 C   0  0  0  0  0  0  0  0  0  0  0  0
    1.4896   -0.2542    0.8214 C   0  0  0  0  0  0  0  0  0  0  0  0
    1.7823    0.9380    0.8596 O   0  0  0  0  0  0  0  0  0  0  0  0
    0.4587   -2.0097   -0.7289 H   0  0  0  0  0  0  0  0  0  0  0  0
   -0.0018   -1.4292    1.8087 H   0  0  0  0  0  0  0  0  0  0  0  0
   -0.6125    0.0746    1.0660 H   0  0  0  0  0  0  0  0  0  0  0  0
    2.3988   -1.2944    0.6607 N   0  0  0  0  0  0  0  0  0  0  0  0
    3.8168   -1.0942    0.5172 C   0  0  2  0  0  0  0  0  0  0  0  0
    4.5153   -1.8614    1.6321 C   0  0  0  0  0  0  0  0  0  0  0  0
    3.9572   -2.1769    2.6809 O   0  0  0  0  0  0  0  0  0  0  0  0
    4.1749    0.3830    0.5667 C   0  0  0  0  0  0  0  0  0  0  0  0
    2.0422   -2.2484    0.6437 H   0  0  0  0  0  0  0  0  0  0  0  0
    4.0997   -1.5191   -0.4521 H   0  0  0  0  0  0  0  0  0  0  0  0
    3.8989    0.8261    1.5306 H   0  0  0  0  0  0  0  0  0  0  0  0
    5.2504    0.5353    0.4288 H   0  0  0  0  0  0  0  0  0  0  0  0
    3.6485    0.9381   -0.2172 H   0  0  0  0  0  0  0  0  0  0  0  0
    5.8474   -2.1144    1.3362 N   0  0  0  0  0  0  0  0  0  0  0  0
    6.7271   -2.8171    2.2409 C   0  0  0  0  0  0  0  0  0  0  0  0
    6.2213   -1.8330    0.4347 H   0  0  0  0  0  0  0  0  0  0  0  0
    7.2535   -2.0917    2.8787 H   0  0  0  0  0  0  0  0  0  0  0  0
    6.1366   -3.4984    2.8711 H   0  0  0  0  0  0  0  0  0  0  0  0
    7.4613   -3.3967    1.6621 H   0  0  0  0  0  0  0  0  0  0  0  0
  1  3  1  0  0  0  0
  1  7  1  0  0  0  0
  1  2  2  0  0  0  0
 18 19  1  0  0  0  0
 19 24  1  0  0  0  0
 19 20  2  0  0  0  0
 25 26  1  0  0  0  0
 26 34  1  0  0  0  0
 26 27  2  0  0  0  0
  8  9  1  0  0  0  0
  9 17  1  0  0  0  0
  9 10  2  0  0  0  0
 25 28  1  0  0  0  0
  8 11  1  0  0  0  0
 34 35  1  0  0  0  0
 17 18  1  0  0  0  0
 24 25  1  0  0  0  0
  7  8  1  0  0  0  0
  3  4  1  0  0  0  0
  3  5  1  0  0  0  0
  3  6  1  0  0  0  0
 28 31  1  0  0  0  0
 28 32  1  0  0  0  0
 28 33  1  0  0  0  0
 11 14  1  0  0  0  0
 11 15  1  0  0  0  0
 11 16  1  0  0  0  0
 35 37  1  0  0  0  0
 35 38  1  0  0  0  0
 35 39  1  0  0  0  0
 18 22  1  0  0  0  0
 18 23  1  0  0  0  0
 25 30  1  0  0  0  0
  8 13  1  0  0  0  0
 34 36  1  0  0  0  0
 17 21  1  0  0  0  0
  7 12  1  0  0  0  0
 24 29  1  0  0  0  0
M  END
$$$$

  -OEChem-05262214473D

 39 38  0     1  0  0  0  0  0999 V2000
   -3.5200   -4.0268   -1.6943 C   0  0  0  0  0  0  0  0  0  0  0  0
   -2.8702   -4.8827   -1.1054 O   0  0  0  0  0  0  0  0  0  0  0  0
   -4.9704   -4.2579   -1.9614 C   0  0  0  0  0  0  0  0  0  0  0  0
   -5.1456   -4.7573   -2.9278 H   0  0  0  0  0  0  0  0  0  0  0  0
   -5.4379   -4.9112   -1.2072 H   0  0  0  0  0  0  0  0  0  0  0  0
   -5.5954   -3.3510   -1.9864 H   0  0  0  0  0  0  0  0  0  0  0  0
   -3.0424   -2.8131   -2.1606 N   0  0  0  0  0  0  0  0  0  0  0  0
   -1.6755   -2.3891   -2.0077 C   0  0  2  0  0  0  0  0  0  0  0  0
   -1.5782   -1.5673   -0.7292 C   0  0  0  0  0  0  0  0  0  0  0  0
   -2.5448   -1.0064   -0.2171 O   0  0  0  0  0  0  0  0  0  0  0  0
   -1.2087   -1.5823   -3.2094 C   0  0  0  0  0  0  0  0  0  0  0  0
   -3.6915   -2.1888   -2.6360 H   0  0  0  0  0  0  0  0  0  0  0  0
   -1.0721   -3.2977   -1.9053 H   0  0  0  0  0  0  0  0  0  0  0  0
   -1.8017   -0.6681   -3.3281 H   0  0  0  0  0  0  0  0  0  0  0  0
   -0.1601   -1.2849   -3.1045 H   0  0  0  0  0  0  0  0  0  0  0  0
   -1.3074   -2.1646   -4.1319 H   0  0  0  0  0  0  0  0  0  0  0  0
   -0.2835   -1.5112   -0.2725 N   0  0  0  0  0  0  0  0  0  0  0  0
    0.0769   -0.7658    0.9424 C   0  0  0  0  0  0  0  0  0  0  0  0
    1.4896   -0.2542    0.8214 C   0  0  0  0  0  0  0  0  0  0  0  0
    1.8220    0.8898    1.1199 O   0  0  0  0  0  0  0  0  0  0  0  0
    0.4587   -2.0097   -0.7289 H   0  0  0  0  0  0  0  0  0  0  0  0
   -0.0018   -1.4292    1.8087 H   0  0  0  0  0  0  0  0  0  0  0  0
   -0.6125    0.0746    1.0660 H   0  0  0  0  0  0  0  0  0  0  0  0
    2.3484   -1.2329    0.3326 N   0  0  0  0  0  0  0  0  0  0  0  0
    3.7547   -1.0179    0.1141 C   0  0  2  0  0  0  0  0  0  0  0  0
    4.5211   -2.0404    0.9428 C   0  0  0  0  0  0  0  0  0  0  0  0
    4.0447   -2.5963    1.9303 O   0  0  0  0  0  0  0  0  0  0  0  0
    4.1622    0.3991    0.4866 C   0  0  0  0  0  0  0  0  0  0  0  0
    1.9617   -2.1505    0.1179 H   0  0  0  0  0  0  0  0  0  0  0  0
    3.9403   -1.1968   -0.9506 H   0  0  0  0  0  0  0  0  0  0  0  0
    3.9835    0.5969    1.5498 H   0  0  0  0  0  0  0  0  0  0  0  0
    5.2263    0.5697    0.2929 H   0  0  0  0  0  0  0  0  0  0  0  0
    3.5887    1.1336   -0.0891 H   0  0  0  0  0  0  0  0  0  0  0  0
    5.8145   -2.2270    0.4754 N   0  0  0  0  0  0  0  0  0  0  0  0
    6.7454   -3.1375    1.1001 C   0  0  0  0  0  0  0  0  0  0  0  0
    6.1188   -1.7383   -0.3614 H   0  0  0  0  0  0  0  0  0  0  0  0
    7.3469   -2.5945    1.8440 H   0  0  0  0  0  0  0  0  0  0  0  0
    6.1896   -3.9459    1.5977 H   0  0  0  0  0  0  0  0  0  0  0  0
    7.4089   -3.5660    0.3345 H   0  0  0  0  0  0  0  0  0  0  0  0
  1  3  1  0  0  0  0
  1  7  1  0  0  0  0
  1  2  2  0  0  0  0
 18 19  1  0  0  0  0
 19 24  1  0  0  0  0
 19 20  2  0  0  0  0
 25 26  1  0  0  0  0
 26 34  1  0  0  0  0
 26 27  2  0  0  0  0
  8  9  1  0  0  0  0
  9 17  1  0  0  0  0
  9 10  2  0  0  0  0
 25 28  1  0  0  0  0
  8 11  1  0  0  0  0
 34 35  1  0  0  0  0
 17 18  1  0  0  0  0
 24 25  1  0  0  0  0
  7  8  1  0  0  0  0
  3  4  1  0  0  0  0
  3  5  1  0  0  0  0
  3  6  1  0  0  0  0
 28 31  1  0  0  0  0
 28 32  1  0  0  0  0
 28 33  1  0  0  0  0
 11 14  1  0  0  0  0
 11 15  1  0  0  0  0
 11 16  1  0  0  0  0
 35 37  1  0  0  0  0
 35 38  1  0  0  0  0
 35 39  1  0  0  0  0
 18 22  1  0  0  0  0
 18 23  1  0  0  0  0
 25 30  1  0  0  0  0
  8 13  1  0  0  0  0
 34 36  1  0  0  0  0
 17 21  1  0  0  0  0
  7 12  1  0  0  0  0
 24 29  1  0  0  0  0
M  END
$$$$

  -OEChem-05262214473D

 39 38  0     1  0  0  0  0  0999 V2000
   -3.5200   -4.0268   -1.6943 C   0  0  0  0  0  0  0  0  0  0  0  0
   -2.8702   -4.8827   -1.1054 O   0  0  0  0  0  0  0  0  0  0  0  0
   -4.9704   -4.2579   -1.9614 C   0  0  0  0  0  0  0  0  0  0  0  0
   -5.1456   -4.7573   -2.9278 H   0  0  0  0  0  0  0  0  0  0  0  0
   -5.4379   -4.9112   -1.2072 H   0  0  0  0  0  0  0  0  0  0  0  0
   -5.5954   -3.3510   -1.9864 H   0  0  0  0  0  0  0  0  0  0  0  0
   -3.0424   -2.8131   -2.1606 N   0  0  0  0  0  0  0  0  0  0  0  0
   -1.6755   -2.3891   -2.0077 C   0  0  2  0  0  0  0  0  0  0  0  0
   -1.5782   -1.5673   -0.7292 C   0  0  0  0  0  0  0  0  0  0  0  0
   -2.5448   -1.0064   -0.2171 O   0  0  0  0  0  0  0  0  0  0  0  0
   -1.2087   -1.5823   -3.2094 C   0  0  0  0  0  0  0  0  0  0  0  0
   -3.6915   -2.1888   -2.6360 H   0  0  0  0  0  0  0  0  0  0  0  0
   -1.0721   -3.2977   -1.9053 H   0  0  0  0  0  0  0  0  0  0  0  0
   -1.8017   -0.6681   -3.3281 H   0  0  0  0  0  0  0  0  0  0  0  0
   -0.1601   -1.2849   -3.1045 H   0  0  0  0  0  0  0  0  0  0  0  0
   -1.3074   -2.1646   -4.1319 H   0  0  0  0  0  0  0  0  0  0  0  0
   -0.2835   -1.5112   -0.2725 N   0  0  0  0  0  0  0  0  0  0  0  0
    0.0769   -0.7658    0.9424 C   0  0  0  0  0  0  0  0  0  0  0  0
    1.4896   -0.2542    0.8214 C   0  0  0  0  0  0  0  0  0  0  0  0
    1.8823    0.7793    1.3562 O   0  0  0  0  0  0  0  0  0  0  0  0
    0.4587   -2.0097   -0.7289 H   0  0  0  0  0  0  0  0  0  0  0  0
   -0.0018   -1.4292    1.8087 H   0  0  0  0  0  0  0  0  0  0  0  0
   -0.6125    0.0746    1.0660 H   0  0  0  0  0  0  0  0  0  0  0  0
    2.2723   -1.0929    0.0350 N   0  0  0  0  0  0  0  0  0  0  0  0
    3.6608   -0.8452   -0.2512 C   0  0  2  0  0  0  0  0  0  0  0  0
    4.4624   -2.0462    0.2330 C   0  0  0  0  0  0  0  0  0  0  0  0
    4.0547   -2.8211    1.0958 O   0  0  0  0  0  0  0  0  0  0  0  0
    4.1432    0.4343    0.4142 C   0  0  0  0  0  0  0  0  0  0  0  0
    1.8398   -1.9267   -0.3592 H   0  0  0  0  0  0  0  0  0  0  0  0
    3.7492   -0.7613   -1.3399 H   0  0  0  0  0  0  0  0  0  0  0  0
    4.0622    0.3691    1.5054 H   0  0  0  0  0  0  0  0  0  0  0  0
    5.1918    0.6364    0.1722 H   0  0  0  0  0  0  0  0  0  0  0  0
    3.5463    1.2926    0.0874 H   0  0  0  0  0  0  0  0  0  0  0  0
    5.7047   -2.1263   -0.3806 N   0  0  0  0  0  0  0  0  0  0  0  0
    6.6563   -3.1707   -0.0811 C   0  0  0  0  0  0  0  0  0  0  0  0
    5.9518   -1.4515   -1.0984 H   0  0  0  0  0  0  0  0  0  0  0  0
    7.3359   -2.8312    0.7144 H   0  0  0  0  0  0  0  0  0  0  0  0
    6.1196   -4.0703    0.2545 H   0  0  0  0  0  0  0  0  0  0  0  0
    7.2381   -3.4064   -0.9844 H   0  0  0  0  0  0  0  0  0  0  0  0
  1  3  1  0  0  0  0
  1  7  1  0  0  0  0
  1  2  2  0  0  0  0
 18 19  1  0  0  0  0
 19 24  1  0  0  0  0
 19 20  2  0  0  0  0
 25 26  1  0  0  0  0
 26 34  1  0  0  0  0
 26 27  2  0  0  0  0
  8  9  1  0  0  0  0
  9 17  1  0  0  0  0
  9 10  2  0  0  0  0
 25 28  1  0  0  0  0
  8 11  1  0  0  0  0
 34 35  1  0  0  0  0
 17 18  1  0  0  0  0
 24 25  1  0  0  0  0
  7  8  1  0  0  0  0
  3  4  1  0  0  0  0
  3  5  1  0  0  0  0
  3  6  1  0  0  0  0
 28 31  1  0  0  0  0
 28 32  1  0  0  0  0
 28 33  1  0  0  0  0
 11 14  1  0  0  0  0
 11 15  1  0  0  0  0
 11 16  1  0  0  0  0
 35 37  1  0  0  0  0
 35 38  1  0  0  0  0
 35 39  1  0  0  0  0
 18 22  1  0  0  0  0
 18 23  1  0  0  0  0
 25 30  1  0  0  0  0
  8 13  1  0  0  0  0
 34 36  1  0  0  0  0
 17 21  1  0  0  0  0
  7 12  1  0  0  0  0
 24 29  1  0  0  0  0
M  END
$$$$

  -OEChem-05262214473D

 39 38  0     1  0  0  0  0  0999 V2000
   -3.5200   -4.0268   -1.6943 C   0  0  0  0  0  0  0  0  0  0  0  0
   -2.8702   -4.8827   -1.1054 O   0  0  0  0  0  0  0  0  0  0  0  0
   -4.9704   -4.2579   -1.9614 C   0  0  0  0  0  0  0  0  0  0  0  0
   -5.1456   -4.7573   -2.9278 H   0  0  0  0  0  0  0  0  0  0  0  0
   -5.4379   -4.9112   -1.2072 H   0  0  0  0  0  0  0  0  0  0  0  0
   -5.5954   -3.3510   -1.9864 H   0  0  0  0  0  0  0  0  0  0  0  0
   -3.0424   -2.8131   -2.1606 N   0  0  0  0  0  0  0  0  0  0  0  0
   -1.6755   -2.3891   -2.0077 C   0  0  2  0  0  0  0  0  0  0  0  0
   -1.5782   -1.5673   -0.7292 C   0  0  0  0  0  0  0  0  0  0  0  0
   -2.5448   -1.0064   -0.2171 O   0  0  0  0  0  0  0  0  0  0  0  0
   -1.2087   -1.5823   -3.2094 C   0  0  0  0  0  0  0  0  0  0  0  0
   -3.6915   -2.1888   -2.6360 H   0  0  0  0  0  0  0  0  0  0  0  0
   -1.0721   -3.2977   -1.9053 H   0  0  0  0  0  0  0  0  0  0  0  0
   -1.8017   -0.6681   -3.3281 H   0  0  0  0  0  0  0  0  0  0  0  0
   -0.1601   -1.2849   -3.1045 H   0  0  0  0  0  0  0  0  0  0  0  0
   -1.3074   -2.1646   -4.1319 H   0  0  0  0  0  0  0  0  0  0  0  0
   -0.2835   -1.5112   -0.2725 N   0  0  0  0  0  0  0  0  0  0  0  0
    0.0769   -0.7658    0.9424 C   0  0  0  0  0  0  0  0  0  0  0  0
    1.4896   -0.2542    0.8214 C   0  0  0  0  0  0  0  0  0  0  0  0
    1.9589    0.6140    1.5524 O   0  0  0  0  0  0  0  0  0  0  0  0
    0.4587   -2.0097   -0.7289 H   0  0  0  0  0  0  0  0  0  0  0  0
   -0.0018   -1.4292    1.8087 H   0  0  0  0  0  0  0  0  0  0  0  0
   -0.6125    0.0746    1.0660 H   0  0  0  0  0  0  0  0  0  0  0  0
    2.1755   -0.8839   -0.2118 N   0  0  0  0  0  0  0  0  0  0  0  0
    3.5417   -0.5878   -0.5540 C   0  0  2  0  0  0  0  0  0  0  0  0
    4.3432   -1.8785   -0.4488 C   0  0  0  0  0  0  0  0  0  0  0  0
    3.9863   -2.8360    0.2344 O   0  0  0  0  0  0  0  0  0  0  0  0
    4.1193    0.4863    0.3545 C   0  0  0  0  0  0  0  0  0  0  0  0
    1.6848   -1.5923   -0.7551 H   0  0  0  0  0  0  0  0  0  0  0  0
    3.5395   -0.2422   -1.5935 H   0  0  0  0  0  0  0  0  0  0  0  0
    4.1296    0.1582    1.4003 H   0  0  0  0  0  0  0  0  0  0  0  0
    5.1493    0.7309    0.0747 H   0  0  0  0  0  0  0  0  0  0  0  0
    3.5240    1.4043    0.3001 H   0  0  0  0  0  0  0  0  0  0  0  0
    5.5255   -1.8191   -1.1733 N   0  0  0  0  0  0  0  0  0  0  0  0
    6.4657   -2.9144   -1.2224 C   0  0  0  0  0  0  0  0  0  0  0  0
    5.7318   -0.9923   -1.7261 H   0  0  0  0  0  0  0  0  0  0  0  0
    7.2210   -2.7855   -0.4331 H   0  0  0  0  0  0  0  0  0  0  0  0
    5.9314   -3.8633   -1.0670 H   0  0  0  0  0  0  0  0  0  0  0  0
    6.9607   -2.9288   -2.2046 H   0  0  0  0  0  0  0  0  0  0  0  0
  1  3  1  0  0  0  0
  1  7  1  0  0  0  0
  1  2  2  0  0  0  0
 18 19  1  0  0  0  0
 19 24  1  0  0  0  0
 19 20  2  0  0  0  0
 25 26  1  0  0  0  0
 26 34  1  0  0  0  0
 26 27  2  0  0  0  0
  8  9  1  0  0  0  0
  9 17  1  0  0  0  0
  9 10  2  0  0  0  0
 25 28  1  0  0  0  0
  8 11  1  0  0  0  0
 34 35  1  0  0  0  0
 17 18  1  0  0  0  0
 24 25  1  0  0  0  0
  7  8  1  0  0  0  0
  3  4  1  0  0  0  0
  3  5  1  0  0  0  0
  3  6  1  0  0  0  0
 28 31  1  0  0  0  0
 28 32  1  0  0  0  0
 28 33  1  0  0  0  0
 11 14  1  0  0  0  0
 11 15  1  0  0  0  0
 11 16  1  0  0  0  0
 35 37  1  0  0  0  0
 35 38  1  0  0  0  0
 35 39  1  0  0  0  0
 18 22  1  0  0  0  0
 18 23  1  0  0  0  0
 25 30  1  0  0  0  0
  8 13  1  0  0  0  0
 34 36  1  0  0  0  0
 17 21  1  0  0  0  0
  7 12  1  0  0  0  0
 24 29  1  0  0  0  0
M  END
$$$$

  -OEChem-05262214473D

 39 38  0     1  0  0  0  0  0999 V2000
   -3.5200   -4.0268   -1.6943 C   0  0  0  0  0  0  0  0  0  0  0  0
   -2.8702   -4.8827   -1.1054 O   0  0  0  0  0  0  0  0  0  0  0  0
   -4.9704   -4.2579   -1.9614 C   0  0  0  0  0  0  0  0  0  0  0  0
   -5.1456   -4.7573   -2.9278 H   0  0  0  0  0  0  0  0  0  0  0  0
   -5.4379   -4.9112   -1.2072 H   0  0  0  0  0  0  0  0  0  0  0  0
   -5.5954   -3.3510   -1.9864 H   0  0  0  0  0  0  0  0  0  0  0  0
   -3.0424   -2.8131   -2.1606 N   0  0  0  0  0  0  0  0  0  0  0  0
   -1.6755   -2.3891   -2.0077 C   0  0  2  0  0  0  0  0  0  0  0  0
   -1.5782   -1.5673   -0.7292 C   0  0  0  0  0  0  0  0  0  0  0  0
   -2.5448   -1.0064   -0.2171 O   0  0  0  0  0  0  0  0  0  0  0  0
   -1.2087   -1.5823   -3.2094 C   0  0  0  0  0  0  0  0  0  0  0  0
   -3.6915   -2.1888   -2.6360 H   0  0  0  0  0  0  0  0  0  0  0  0
   -1.0721   -3.2977   -1.9053 H   0  0  0  0  0  0  0  0  0  0  0  0
   -1.8017   -0.6681   -3.3281 H   0  0  0  0  0  0  0  0  0  0  0  0
   -0.1601   -1.2849   -3.1045 H   0  0  0  0  0  0  0  0  0  0  0  0
   -1.3074   -2.1646   -4.1319 H   0  0  0  0  0  0  0  0  0  0  0  0
   -0.2835   -1.5112   -0.2725 N   0  0  0  0  0  0  0  0  0  0  0  0
    0.0769   -0.7658    0.9424 C   0  0  0  0  0  0  0  0  0  0  0  0
    1.4896   -0.2542    0.8214 C   0  0  0  0  0  0  0  0  0  0  0  0
    2.0467    0.4052    1.6950 O   0  0  0  0  0  0  0  0  0  0  0  0
    0.4587   -2.0097   -0.7289 H   0  0  0  0  0  0  0  0  0  0  0  0
   -0.0018   -1.4292    1.8087 H   0  0  0  0  0  0  0  0  0  0  0  0
   -0.6125    0.0746    1.0660 H   0  0  0  0  0  0  0  0  0  0  0  0
    2.0646   -0.6202   -0.3910 N   0  0  0  0  0  0  0  0  0  0  0  0
    3.4053   -0.2632   -0.7735 C   0  0  2  0  0  0  0  0  0  0  0  0
    4.1718   -1.5486   -1.0563 C   0  0  0  0  0  0  0  0  0  0  0  0
    3.8442   -2.6400   -0.5953 O   0  0  0  0  0  0  0  0  0  0  0  0
    4.0920    0.5516    0.3116 C   0  0  0  0  0  0  0  0  0  0  0  0
    1.5073   -1.1700   -1.0427 H   0  0  0  0  0  0  0  0  0  0  0  0
    3.3255    0.3251   -1.6941 H   0  0  0  0  0  0  0  0  0  0  0  0
    4.1810   -0.0215    1.2417 H   0  0  0  0  0  0  0  0  0  0  0  0
    5.1016    0.8466    0.0072 H   0  0  0  0  0  0  0  0  0  0  0  0
    3.5236    1.4610    0.5346 H   0  0  0  0  0  0  0  0  0  0  0  0
    5.2892   -1.3263   -1.8487 N   0  0  0  0  0  0  0  0  0  0  0  0
    6.1867   -2.3860   -2.2458 C   0  0  0  0  0  0  0  0  0  0  0  0
    5.4736   -0.3919   -2.2017 H   0  0  0  0  0  0  0  0  0  0  0  0
    7.0103   -2.4607   -1.5204 H   0  0  0  0  0  0  0  0  0  0  0  0
    5.6379   -3.3388   -2.2767 H   0  0  0  0  0  0  0  0  0  0  0  0
    6.5954   -2.1657   -3.2430 H   0  0  0  0  0  0  0  0  0  0  0  0
  1  3  1  0  0  0  0
  1  7  1  0  0  0  0
  1  2  2  0  0  0  0
 18 19  1  0  0  0  0
 19 24  1  0  0  0  0
 19 20  2  0  0  0  0
 25 26  1  0  0  0  0
 26 34  1  0  0  0  0
 26 27  2  0  0  0  0
  8  9  1  0  0  0  0
  9 17  1  0  0  0  0
  9 10  2  0  0  0  0
 25 28  1  0  0  0  0
  8 11  1  0  0  0  0
 34 35  1  0  0  0  0
 17 18  1  0  0  0  0
 24 25  1  0  0  0  0
  7  8  1  0  0  0  0
  3  4  1  0  0  0  0
  3  5  1  0  0  0  0
  3  6  1  0  0  0  0
 28 31  1  0  0  0  0
 28 32  1  0  0  0  0
 28 33  1  0  0  0  0
 11 14  1  0  0  0  0
 11 15  1  0  0  0  0
 11 16  1  0  0  0  0
 35 37  1  0  0  0  0
 35 38  1  0  0  0  0
 35 39  1  0  0  0  0
 18 22  1  0  0  0  0
 18 23  1  0  0  0  0
 25 30  1  0  0  0  0
  8 13  1  0  0  0  0
 34 36  1  0  0  0  0
 17 21  1  0  0  0  0
  7 12  1  0  0  0  0
 24 29  1  0  0  0  0
M  END
$$$$

  -OEChem-05262214473D

 39 38  0     1  0  0  0  0  0999 V2000
   -3.5200   -4.0268   -1.6943 C   0  0  0  0  0  0  0  0  0  0  0  0
   -2.8702   -4.8827   -1.1054 O   0  0  0  0  0  0  0  0  0  0  0  0
   -4.9704   -4.2579   -1.9614 C   0  0  0  0  0  0  0  0  0  0  0  0
   -5.1456   -4.7573   -2.9278 H   0  0  0  0  0  0  0  0  0  0  0  0
   -5.4379   -4.9112   -1.2072 H   0  0  0  0  0  0  0  0  0  0  0  0
   -5.5954   -3.3510   -1.9864 H   0  0  0  0  0  0  0  0  0  0  0  0
   -3.0424   -2.8131   -2.1606 N   0  0  0  0  0  0  0  0  0  0  0  0
   -1.6755   -2.3891   -2.0077 C   0  0  2  0  0  0  0  0  0  0  0  0
   -1.5782   -1.5673   -0.7292 C   0  0  0  0  0  0  0  0  0  0  0  0
   -2.5448   -1.0064   -0.2171 O   0  0  0  0  0  0  0  0  0  0  0  0
   -1.2087   -1.5823   -3.2094 C   0  0  0  0  0  0  0  0  0  0  0  0
   -3.6915   -2.1888   -2.6360 H   0  0  0  0  0  0  0  0  0  0  0  0
   -1.0721   -3.2977   -1.9053 H   0  0  0  0  0  0  0  0  0  0  0  0
   -1.8017   -0.6681   -3.3281 H   0  0  0  0  0  0  0  0  0  0  0  0
   -0.1601   -1.2849   -3.1045 H   0  0  0  0  0  0  0  0  0  0  0  0
   -1.3074   -2.1646   -4.1319 H   0  0  0  0  0  0  0  0  0  0  0  0
   -0.2835   -1.5112   -0.2725 N   0  0  0  0  0  0  0  0  0  0  0  0
    0.0769   -0.7658    0.9424 C   0  0  0  0  0  0  0  0  0  0  0  0
    1.4896   -0.2542    0.8214 C   0  0  0  0  0  0  0  0  0  0  0  0
    2.1398    0.1670    1.7744 O   0  0  0  0  0  0  0  0  0  0  0  0
    0.4587   -2.0097   -0.7289 H   0  0  0  0  0  0  0  0  0  0  0  0
   -0.0018   -1.4292    1.8087 H   0  0  0  0  0  0  0  0  0  0  0  0
   -0.6125    0.0746    1.0660 H   0  0  0  0  0  0  0  0  0  0  0  0
    1.9473   -0.3197   -0.4903 N   0  0  0  0  0  0  0  0  0  0  0  0
    3.2611    0.1064   -0.8949 C   0  0  2  0  0  0  0  0  0  0  0  0
    3.9596   -1.0790   -1.5479 C   0  0  0  0  0  0  0  0  0  0  0  0
    3.6383   -2.2465   -1.3367 O   0  0  0  0  0  0  0  0  0  0  0  0
    4.0632    0.6256    0.2883 C   0  0  0  0  0  0  0  0  0  0  0  0
    1.3193   -0.6887   -1.2025 H   0  0  0  0  0  0  0  0  0  0  0  0
    3.1217    0.9019   -1.6349 H   0  0  0  0  0  0  0  0  0  0  0  0
    4.2131   -0.1576    1.0404 H   0  0  0  0  0  0  0  0  0  0  0  0
    5.0520    0.9758   -0.0257 H   0  0  0  0  0  0  0  0  0  0  0  0
    3.5449    1.4589    0.7749 H   0  0  0  0  0  0  0  0  0  0  0  0
    5.0119   -0.6816   -2.3608 N   0  0  0  0  0  0  0  0  0  0  0  0
    5.8383   -1.6215   -3.0817 C   0  0  0  0  0  0  0  0  0  0  0  0
    5.1950    0.3088   -2.4928 H   0  0  0  0  0  0  0  0  0  0  0  0
    6.7180   -1.8788   -2.4734 H   0  0  0  0  0  0  0  0  0  0  0  0
    5.2590   -2.5326   -3.2921 H   0  0  0  0  0  0  0  0  0  0  0  0
    6.1673   -1.1692   -4.0288 H   0  0  0  0  0  0  0  0  0  0  0  0
  1  3  1  0  0  0  0
  1  7  1  0  0  0  0
  1  2  2  0  0  0  0
 18 19  1  0  0  0  0
 19 24  1  0  0  0  0
 19 20  2  0  0  0  0
 25 26  1  0  0  0  0
 26 34  1  0  0  0  0
 26 27  2  0  0  0  0
  8  9  1  0  0  0  0
  9 17  1  0  0  0  0
  9 10  2  0  0  0  0
 25 28  1  0  0  0  0
  8 11  1  0  0  0  0
 34 35  1  0  0  0  0
 17 18  1  0  0  0  0
 24 25  1  0  0  0  0
  7  8  1  0  0  0  0
  3  4  1  0  0  0  0
  3  5  1  0  0  0  0
  3  6  1  0  0  0  0
 28 31  1  0  0  0  0
 28 32  1  0  0  0  0
 28 33  1  0  0  0  0
 11 14  1  0  0  0  0
 11 15  1  0  0  0  0
 11 16  1  0  0  0  0
 35 37  1  0  0  0  0
 35 38  1  0  0  0  0
 35 39  1  0  0  0  0
 18 22  1  0  0  0  0
 18 23  1  0  0  0  0
 25 30  1  0  0  0  0
  8 13  1  0  0  0  0
 34 36  1  0  0  0  0
 17 21  1  0  0  0  0
  7 12  1  0  0  0  0
 24 29  1  0  0  0  0
M  END
$$$$

  -OEChem-05262214473D

 39 38  0     1  0  0  0  0  0999 V2000
   -3.5200   -4.0268   -1.6943 C   0  0  0  0  0  0  0  0  0  0  0  0
   -2.8702   -4.8827   -1.1054 O   0  0  0  0  0  0  0  0  0  0  0  0
   -4.9704   -4.2579   -1.9614 C   0  0  0  0  0  0  0  0  0  0  0  0
   -5.1456   -4.7573   -2.9278 H   0  0  0  0  0  0  0  0  0  0  0  0
   -5.4379   -4.9112   -1.2072 H   0  0  0  0  0  0  0  0  0  0  0  0
   -5.5954   -3.3510   -1.9864 H   0  0  0  0  0  0  0  0  0  0  0  0
   -3.0424   -2.8131   -2.1606 N   0  0  0  0  0  0  0  0  0  0  0  0
   -1.6755   -2.3891   -2.0077 C   0  0  2  0  0  0  0  0  0  0  0  0
   -1.5782   -1.5673   -0.7292 C   0  0  0  0  0  0  0  0  0  0  0  0
   -2.5448   -1.0064   -0.2171 O   0  0  0  0  0  0  0  0  0  0  0  0
   -1.2087   -1.5823   -3.2094 C   0  0  0  0  0  0  0  0  0  0  0  0
   -3.6915   -2.1888   -2.6360 H   0  0  0  0  0  0  0  0  0  0  0  0
   -1.0721   -3.2977   -1.9053 H   0  0  0  0  0  0  0  0  0  0  0  0
   -1.8017   -0.6681   -3.3281 H   0  0  0  0  0  0  0  0  0  0  0  0
   -0.1601   -1.2849   -3.1045 H   0  0  0  0  0  0  0  0  0  0  0  0
   -1.3074   -2.1646   -4.1319 H   0  0  0  0  0  0  0  0  0  0  0  0
   -0.2835   -1.5112   -0.2725 N   0  0  0  0  0  0  0  0  0  0  0  0
    0.0769   -0.7658    0.9424 C   0  0  0  0  0  0  0  0  0  0  0  0
    1.4896   -0.2542    0.8214 C   0  0  0  0  0  0  0  0  0  0  0  0
    2.2317   -0.0842    1.7852 O   0  0  0  0  0  0  0  0  0  0  0  0
    0.4587   -2.0097   -0.7289 H   0  0  0  0  0  0  0  0  0  0  0  0
   -0.0018   -1.4292    1.8087 H   0  0  0  0  0  0  0  0  0  0  0  0
   -0.6125    0.0746    1.0660 H   0  0  0  0  0  0  0  0  0  0  0  0
    1.8315   -0.0028   -0.5031 N   0  0  0  0  0  0  0  0  0  0  0  0
    3.1188    0.4958   -0.9098 C   0  0  2  0  0  0  0  0  0  0  0  0
    3.7213   -0.5017   -1.8903 C   0  0  0  0  0  0  0  0  0  0  0  0
    3.3823   -1.6823   -1.9393 O   0  0  0  0  0  0  0  0  0  0  0  0
    4.0349    0.7033    0.2863 C   0  0  0  0  0  0  0  0  0  0  0  0
    1.1337   -0.1811   -1.2235 H   0  0  0  0  0  0  0  0  0  0  0  0
    2.9421    1.4490   -1.4199 H   0  0  0  0  0  0  0  0  0  0  0  0
    4.2235   -0.2409    0.8102 H   0  0  0  0  0  0  0  0  0  0  0  0
    5.0039    1.1096   -0.0218 H   0  0  0  0  0  0  0  0  0  0  0  0
    3.5866    1.3981    1.0047 H   0  0  0  0  0  0  0  0  0  0  0  0
    4.7125    0.0712   -2.6748 N   0  0  0  0  0  0  0  0  0  0  0  0
    5.4443   -0.6731   -3.6730 C   0  0  0  0  0  0  0  0  0  0  0  0
    4.9149    1.0620   -2.5795 H   0  0  0  0  0  0  0  0  0  0  0  0
    6.3640   -1.0795   -3.2270 H   0  0  0  0  0  0  0  0  0  0  0  0
    4.8206   -1.4997   -4.0442 H   0  0  0  0  0  0  0  0  0  0  0  0
    5.7054   -0.0070   -4.5086 H   0  0  0  0  0  0  0  0  0  0  0  0
  1  3  1  0  0  0  0
  1  7  1  0  0  0  0
  1  2  2  0  0  0  0
 18 19  1  0  0  0  0
 19 24  1  0  0  0  0
 19 20  2  0  0  0  0
 25 26  1  0  0  0  0
 26 34  1  0  0  0  0
 26 27  2  0  0  0  0
  8  9  1  0  0  0  0
  9 17  1  0  0  0  0
  9 10  2  0  0  0  0
 25 28  1  0  0  0  0
  8 11  1  0  0  0  0
 34 35  1  0  0  0  0
 17 18  1  0  0  0  0
 24 25  1  0  0  0  0
  7  8  1  0  0  0  0
  3  4  1  0  0  0  0
  3  5  1  0  0  0  0
  3  6  1  0  0  0  0
 28 31  1  0  0  0  0
 28 32  1  0  0  0  0
 28 33  1  0  0  0  0
 11 14  1  0  0  0  0
 11 15  1  0  0  0  0
 11 16  1  0  0  0  0
 35 37  1  0  0  0  0
 35 38  1  0  0  0  0
 35 39  1  0  0  0  0
 18 22  1  0  0  0  0
 18 23  1  0  0  0  0
 25 30  1  0  0  0  0
  8 13  1  0  0  0  0
 34 36  1  0  0  0  0
 17 21  1  0  0  0  0
  7 12  1  0  0  0  0
 24 29  1  0  0  0  0
M  END
$$$$

  -OEChem-05262214473D

 39 38  0     1  0  0  0  0  0999 V2000
   -3.5200   -4.0268   -1.6943 C   0  0  0  0  0  0  0  0  0  0  0  0
   -2.8702   -4.8827   -1.1054 O   0  0  0  0  0  0  0  0  0  0  0  0
   -4.9704   -4.2579   -1.9614 C   0  0  0  0  0  0  0  0  0  0  0  0
   -5.1456   -4.7573   -2.9278 H   0  0  0  0  0  0  0  0  0  0  0  0
   -5.4379   -4.9112   -1.2072 H   0  0  0  0  0  0  0  0  0  0  0  0
   -5.5954   -3.3510   -1.9864 H   0  0  0  0  0  0  0  0  0  0  0  0
   -3.0424   -2.8131   -2.1606 N   0  0  0  0  0  0  0  0  0  0  0  0
   -1.6755   -2.3891   -2.0077 C   0  0  2  0  0  0  0  0  0  0  0  0
   -1.5782   -1.5673   -0.7292 C   0  0  0  0  0  0  0  0  0  0  0  0
   -2.5448   -1.0064   -0.2171 O   0  0  0  0  0  0  0  0  0  0  0  0
   -1.2087   -1.5823   -3.2094 C   0  0  0  0  0  0  0  0  0  0  0  0
   -3.6915   -2.1888   -2.6360 H   0  0  0  0  0  0  0  0  0  0  0  0
   -1.0721   -3.2977   -1.9053 H   0  0  0  0  0  0  0  0  0  0  0  0
   -1.8017   -0.6681   -3.3281 H   0  0  0  0  0  0  0  0  0  0  0  0
   -0.1601   -1.2849   -3.1045 H   0  0  0  0  0  0  0  0  0  0  0  0
   -1.3074   -2.1646   -4.1319 H   0  0  0  0  0  0  0  0  0  0  0  0
   -0.2835   -1.5112   -0.2725 N   0  0  0  0  0  0  0  0  0  0  0  0
    0.0769   -0.7658    0.9424 C   0  0  0  0  0  0  0  0  0  0  0  0
    1.4896   -0.2542    0.8214 C   0  0  0  0  0  0  0  0  0  0  0  0
    2.3161   -0.3314    1.7266 O   0  0  0  0  0  0  0  0  0  0  0  0
    0.4587   -2.0097   -0.7289 H   0  0  0  0  0  0  0  0  0  0  0  0
   -0.0018   -1.4292    1.8087 H   0  0  0  0  0  0  0  0  0  0  0  0
   -0.6125    0.0746    1.0660 H   0  0  0  0  0  0  0  0  0  0  0  0
    1.7251    0.3087   -0.4284 N   0  0  0  0  0  0  0  0  0  0  0  0
    2.9882    0.8786   -0.8172 C   0  0  2  0  0  0  0  0  0  0  0  0
    3.4730    0.1438   -2.0600 C   0  0  0  0  0  0  0  0  0  0  0  0
    3.0940   -0.9859   -2.3620 O   0  0  0  0  0  0  0  0  0  0  0  0
    4.0090    0.7794    0.3057 C   0  0  0  0  0  0  0  0  0  0  0  0
    0.9631    0.3182   -1.1044 H   0  0  0  0  0  0  0  0  0  0  0  0
    2.7988    1.9290   -1.0638 H   0  0  0  0  0  0  0  0  0  0  0  0
    4.2116   -0.2657    0.5666 H   0  0  0  0  0  0  0  0  0  0  0  0
    4.9606    1.2388    0.0186 H   0  0  0  0  0  0  0  0  0  0  0  0
    3.6458    1.2828    1.2082 H   0  0  0  0  0  0  0  0  0  0  0  0
    4.4113    0.8807   -2.7691 N   0  0  0  0  0  0  0  0  0  0  0  0
    5.0314    0.3946   -3.9796 C   0  0  0  0  0  0  0  0  0  0  0  0
    4.6523    1.8164   -2.4559 H   0  0  0  0  0  0  0  0  0  0  0  0
    5.9725   -0.1173   -3.7300 H   0  0  0  0  0  0  0  0  0  0  0  0
    4.3525   -0.3105   -4.4815 H   0  0  0  0  0  0  0  0  0  0  0  0
    5.2413    1.2414   -4.6495 H   0  0  0  0  0  0  0  0  0  0  0  0
  1  3  1  0  0  0  0
  1  7  1  0  0  0  0
  1  2  2  0  0  0  0
 18 19  1  0  0  0  0
 19 24  1  0  0  0  0
 19 20  2  0  0  0  0
 25 26  1  0  0  0  0
 26 34  1  0  0  0  0
 26 27  2  0  0  0  0
  8  9  1  0  0  0  0
  9 17  1  0  0  0  0
  9 10  2  0  0  0  0
 25 28  1  0  0  0  0
  8 11  1  0  0  0  0
 34 35  1  0  0  0  0
 17 18  1  0  0  0  0
 24 25  1  0  0  0  0
  7  8  1  0  0  0  0
  3  4  1  0  0  0  0
  3  5  1  0  0  0  0
  3  6  1  0  0  0  0
 28 31  1  0  0  0  0
 28 32  1  0  0  0  0
 28 33  1  0  0  0  0
 11 14  1  0  0  0  0
 11 15  1  0  0  0  0
 11 16  1  0  0  0  0
 35 37  1  0  0  0  0
 35 38  1  0  0  0  0
 35 39  1  0  0  0  0
 18 22  1  0  0  0  0
 18 23  1  0  0  0  0
 25 30  1  0  0  0  0
  8 13  1  0  0  0  0
 34 36  1  0  0  0  0
 17 21  1  0  0  0  0
  7 12  1  0  0  0  0
 24 29  1  0  0  0  0
M  END
$$$$

  -OEChem-05262214473D

 39 38  0     1  0  0  0  0  0999 V2000
   -3.5200   -4.0268   -1.6943 C   0  0  0  0  0  0  0  0  0  0  0  0
   -2.8702   -4.8827   -1.1054 O   0  0  0  0  0  0  0  0  0  0  0  0
   -4.9704   -4.2579   -1.9614 C   0  0  0  0  0  0  0  0  0  0  0  0
   -5.1456   -4.7573   -2.9278 H   0  0  0  0  0  0  0  0  0  0  0  0
   -5.4379   -4.9112   -1.2072 H   0  0  0  0  0  0  0  0  0  0  0  0
   -5.5954   -3.3510   -1.9864 H   0  0  0  0  0  0  0  0  0  0  0  0
   -3.0424   -2.8131   -2.1606 N   0  0  0  0  0  0  0  0  0  0  0  0
   -1.6755   -2.3891   -2.0077 C   0  0  2  0  0  0  0  0  0  0  0  0
   -1.5782   -1.5673   -0.7292 C   0  0  0  0  0  0  0  0  0  0  0  0
   -2.5448   -1.0064   -0.2171 O   0  0  0  0  0  0  0  0  0  0  0  0
   -1.2087   -1.5823   -3.2094 C   0  0  0  0  0  0  0  0  0  0  0  0
   -3.6915   -2.1888   -2.6360 H   0  0  0  0  0  0  0  0  0  0  0  0
   -1.0721   -3.2977   -1.9053 H   0  0  0  0  0  0  0  0  0  0  0  0
   -1.8017   -0.6681   -3.3281 H   0  0  0  0  0  0  0  0  0  0  0  0
   -0.1601   -1.2849   -3.1045 H   0  0  0  0  0  0  0  0  0  0  0  0
   -1.3074   -2.1646   -4.1319 H   0  0  0  0  0  0  0  0  0  0  0  0
   -0.2835   -1.5112   -0.2725 N   0  0  0  0  0  0  0  0  0  0  0  0
    0.0769   -0.7658    0.9424 C   0  0  0  0  0  0  0  0  0  0  0  0
    1.4896   -0.2542    0.8214 C   0  0  0  0  0  0  0  0  0  0  0  0
    2.3875   -0.5577    1.6026 O   0  0  0  0  0  0  0  0  0  0  0  0
    0.4587   -2.0097   -0.7289 H   0  0  0  0  0  0  0  0  0  0  0  0
   -0.0018   -1.4292    1.8087 H   0  0  0  0  0  0  0  0  0  0  0  0
   -0.6125    0.0746    1.0660 H   0  0  0  0  0  0  0  0  0  0  0  0
    1.6353    0.5937   -0.2713 N   0  0  0  0  0  0  0  0  0  0  0  0
    2.8781    1.2285   -0.6234 C   0  0  2  0  0  0  0  0  0  0  0  0
    3.2317    0.8137   -2.0456 C   0  0  0  0  0  0  0  0  0  0  0  0
    2.7927   -0.2046   -2.5761 O   0  0  0  0  0  0  0  0  0  0  0  0
    3.9873    0.8488    0.3452 C   0  0  0  0  0  0  0  0  0  0  0  0
    0.8192    0.7751   -0.8533 H   0  0  0  0  0  0  0  0  0  0  0  0
    2.7016    2.3092   -0.5907 H   0  0  0  0  0  0  0  0  0  0  0  0
    4.1783   -0.2304    0.3264 H   0  0  0  0  0  0  0  0  0  0  0  0
    4.9249    1.3548    0.0928 H   0  0  0  0  0  0  0  0  0  0  0  0
    3.7184    1.1209    1.3716 H   0  0  0  0  0  0  0  0  0  0  0  0
    4.1289    1.6917   -2.6374 N   0  0  0  0  0  0  0  0  0  0  0  0
    4.6279    1.5089   -3.9804 C   0  0  0  0  0  0  0  0  0  0  0  0
    4.4252    2.5205   -2.1305 H   0  0  0  0  0  0  0  0  0  0  0  0
    5.5702    0.9423   -3.9481 H   0  0  0  0  0  0  0  0  0  0  0  0
    3.8867    0.9540   -4.5744 H   0  0  0  0  0  0  0  0  0  0  0  0
    4.8065    2.4912   -4.4420 H   0  0  0  0  0  0  0  0  0  0  0  0
  1  3  1  0  0  0  0
  1  7  1  0  0  0  0
  1  2  2  0  0  0  0
 18 19  1  0  0  0  0
 19 24  1  0  0  0  0
 19 20  2  0  0  0  0
 25 26  1  0  0  0  0
 26 34  1  0  0  0  0
 26 27  2  0  0  0  0
  8  9  1  0  0  0  0
  9 17  1  0  0  0  0
  9 10  2  0  0  0  0
 25 28  1  0  0  0  0
  8 11  1  0  0  0  0
 34 35  1  0  0  0  0
 17 18  1  0  0  0  0
 24 25  1  0  0  0  0
  7  8  1  0  0  0  0
  3  4  1  0  0  0  0
  3  5  1  0  0  0  0
  3  6  1  0  0  0  0
 28 31  1  0  0  0  0
 28 32  1  0  0  0  0
 28 33  1  0  0  0  0
 11 14  1  0  0  0  0
 11 15  1  0  0  0  0
 11 16  1  0  0  0  0
 35 37  1  0  0  0  0
 35 38  1  0  0  0  0
 35 39  1  0  0  0  0
 18 22  1  0  0  0  0
 18 23  1  0  0  0  0
 25 30  1  0  0  0  0
  8 13  1  0  0  0  0
 34 36  1  0  0  0  0
 17 21  1  0  0  0  0
  7 12  1  0  0  0  0
 24 29  1  0  0  0  0
M  END
$$$$

  -OEChem-05262214473D

 39 38  0     1  0  0  0  0  0999 V2000
   -3.5200   -4.0268   -1.6943 C   0  0  0  0  0  0  0  0  0  0  0  0
   -2.8702   -4.8827   -1.1054 O   0  0  0  0  0  0  0  0  0  0  0  0
   -4.9704   -4.2579   -1.9614 C   0  0  0  0  0  0  0  0  0  0  0  0
   -5.1456   -4.7573   -2.9278 H   0  0  0  0  0  0  0  0  0  0  0  0
   -5.4379   -4.9112   -1.2072 H   0  0  0  0  0  0  0  0  0  0  0  0
   -5.5954   -3.3510   -1.9864 H   0  0  0  0  0  0  0  0  0  0  0  0
   -3.0424   -2.8131   -2.1606 N   0  0  0  0  0  0  0  0  0  0  0  0
   -1.6755   -2.3891   -2.0077 C   0  0  2  0  0  0  0  0  0  0  0  0
   -1.5782   -1.5673   -0.7292 C   0  0  0  0  0  0  0  0  0  0  0  0
   -2.5448   -1.0064   -0.2171 O   0  0  0  0  0  0  0  0  0  0  0  0
   -1.2087   -1.5823   -3.2094 C   0  0  0  0  0  0  0  0  0  0  0  0
   -3.6915   -2.1888   -2.6360 H   0  0  0  0  0  0  0  0  0  0  0  0
   -1.0721   -3.2977   -1.9053 H   0  0  0  0  0  0  0  0  0  0  0  0
   -1.8017   -0.6681   -3.3281 H   0  0  0  0  0  0  0  0  0  0  0  0
   -0.1601   -1.2849   -3.1045 H   0  0  0  0  0  0  0  0  0  0  0  0
   -1.3074   -2.1646   -4.1319 H   0  0  0  0  0  0  0  0  0  0  0  0
   -0.2835   -1.5112   -0.2725 N   0  0  0  0  0  0  0  0  0  0  0  0
    0.0769   -0.7658    0.9424 C   0  0  0  0  0  0  0  0  0  0  0  0
    1.4896   -0.2542    0.8214 C   0  0  0  0  0  0  0  0  0  0  0  0
    2.4407   -0.7477    1.4217 O   0  0  0  0  0  0  0  0  0  0  0  0
    0.4587   -2.0097   -0.7289 H   0  0  0  0  0  0  0  0  0  0  0  0
   -0.0018   -1.4292    1.8087 H   0  0  0  0  0  0  0  0  0  0  0  0
   -0.6125    0.0746    1.0660 H   0  0  0  0  0  0  0  0  0  0  0  0
    1.5683    0.8328   -0.0426 N   0  0  0  0  0  0  0  0  0  0  0  0
    2.7960    1.5218   -0.3417 C   0  0  2  0  0  0  0  0  0  0  0  0
    3.0138    1.4623   -1.8479 C   0  0  0  0  0  0  0  0  0  0  0  0
    2.4992    0.6083   -2.5668 O   0  0  0  0  0  0  0  0  0  0  0  0
    3.9712    0.9066    0.4021 C   0  0  0  0  0  0  0  0  0  0  0  0
    0.7117    1.1586   -0.4873 H   0  0  0  0  0  0  0  0  0  0  0  0
    2.6573    2.5637   -0.0331 H   0  0  0  0  0  0  0  0  0  0  0  0
    4.1257   -0.1373    0.1059 H   0  0  0  0  0  0  0  0  0  0  0  0
    4.8994    1.4496    0.1957 H   0  0  0  0  0  0  0  0  0  0  0  0
    3.7996    0.9233    1.4838 H   0  0  0  0  0  0  0  0  0  0  0  0
    3.8846    2.4490   -2.2887 N   0  0  0  0  0  0  0  0  0  0  0  0
    4.2612    2.5937   -3.6755 C   0  0  0  0  0  0  0  0  0  0  0  0
    4.2491    3.1265   -1.6254 H   0  0  0  0  0  0  0  0  0  0  0  0
    5.1844    2.0270   -3.8664 H   0  0  0  0  0  0  0  0  0  0  0  0
    3.4549    2.2076   -4.3165 H   0  0  0  0  0  0  0  0  0  0  0  0
    4.4308    3.6571   -3.9002 H   0  0  0  0  0  0  0  0  0  0  0  0
  1  3  1  0  0  0  0
  1  7  1  0  0  0  0
  1  2  2  0  0  0  0
 18 19  1  0  0  0  0
 19 24  1  0  0  0  0
 19 20  2  0  0  0  0
 25 26  1  0  0  0  0
 26 34  1  0  0  0  0
 26 27  2  0  0  0  0
  8  9  1  0  0  0  0
  9 17  1  0  0  0  0
  9 10  2  0  0  0  0
 25 28  1  0  0  0  0
  8 11  1  0  0  0  0
 34 35  1  0  0  0  0
 17 18  1  0  0  0  0
 24 25  1  0  0  0  0
  7  8  1  0  0  0  0
  3  4  1  0  0  0  0
  3  5  1  0  0  0  0
  3  6  1  0  0  0  0
 28 31  1  0  0  0  0
 28 32  1  0  0  0  0
 28 33  1  0  0  0  0
 11 14  1  0  0  0  0
 11 15  1  0  0  0  0
 11 16  1  0  0  0  0
 35 37  1  0  0  0  0
 35 38  1  0  0  0  0
 35 39  1  0  0  0  0
 18 22  1  0  0  0  0
 18 23  1  0  0  0  0
 25 30  1  0  0  0  0
  8 13  1  0  0  0  0
 34 36  1  0  0  0  0
 17 21  1  0  0  0  0
  7 12  1  0  0  0  0
 24 29  1  0  0  0  0
M  END
$$$$

  -OEChem-05262214473D

 39 38  0     1  0  0  0  0  0999 V2000
   -3.5200   -4.0268   -1.6943 C   0  0  0  0  0  0  0  0  0  0  0  0
   -2.8702   -4.8827   -1.1054 O   0  0  0  0  0  0  0  0  0  0  0  0
   -4.9704   -4.2579   -1.9614 C   0  0  0  0  0  0  0  0  0  0  0  0
   -5.1456   -4.7573   -2.9278 H   0  0  0  0  0  0  0  0  0  0  0  0
   -5.4379   -4.9112   -1.2072 H   0  0  0  0  0  0  0  0  0  0  0  0
   -5.5954   -3.3510   -1.9864 H   0  0  0  0  0  0  0  0  0  0  0  0
   -3.0424   -2.8131   -2.1606 N   0  0  0  0  0  0  0  0  0  0  0  0
   -1.6755   -2.3891   -2.0077 C   0  0  2  0  0  0  0  0  0  0  0  0
   -1.5782   -1.5673   -0.7292 C   0  0  0  0  0  0  0  0  0  0  0  0
   -2.5448   -1.0064   -0.2171 O   0  0  0  0  0  0  0  0  0  0  0  0
   -1.2087   -1.5823   -3.2094 C   0  0  0  0  0  0  0  0  0  0  0  0
   -3.6915   -2.1888   -2.6360 H   0  0  0  0  0  0  0  0  0  0  0  0
   -1.0721   -3.2977   -1.9053 H   0  0  0  0  0  0  0  0  0  0  0  0
   -1.8017   -0.6681   -3.3281 H   0  0  0  0  0  0  0  0  0  0  0  0
   -0.1601   -1.2849   -3.1045 H   0  0  0  0  0  0  0  0  0  0  0  0
   -1.3074   -2.1646   -4.1319 H   0  0  0  0  0  0  0  0  0  0  0  0
   -0.2835   -1.5112   -0.2725 N   0  0  0  0  0  0  0  0  0  0  0  0
    0.0769   -0.7658    0.9424 C   0  0  0  0  0  0  0  0  0  0  0  0
    1.4896   -0.2542    0.8214 C   0  0  0  0  0  0  0  0  0  0  0  0
    2.4724   -0.8884    1.1961 O   0  0  0  0  0  0  0  0  0  0  0  0
    0.4587   -2.0097   -0.7289 H   0  0  0  0  0  0  0  0  0  0  0  0
   -0.0018   -1.4292    1.8087 H   0  0  0  0  0  0  0  0  0  0  0  0
   -0.6125    0.0746    1.0660 H   0  0  0  0  0  0  0  0  0  0  0  0
    1.5287    1.0097    0.2422 N   0  0  0  0  0  0  0  0  0  0  0  0
    2.7476    1.7385    0.0087 C   0  0  2  0  0  0  0  0  0  0  0  0
    2.8341    2.0454   -1.4805 C   0  0  0  0  0  0  0  0  0  0  0  0
    2.2334    1.3973   -2.3350 O   0  0  0  0  0  0  0  0  0  0  0  0
    3.9618    0.9491    0.4725 C   0  0  0  0  0  0  0  0  0  0  0  0
    0.6480    1.4424   -0.0313 H   0  0  0  0  0  0  0  0  0  0  0  0
    2.6686    2.6752    0.5712 H   0  0  0  0  0  0  0  0  0  0  0  0
    4.0574    0.0072   -0.0799 H   0  0  0  0  0  0  0  0  0  0  0  0
    4.8858    1.5166    0.3204 H   0  0  0  0  0  0  0  0  0  0  0  0
    3.8837    0.7035    1.5371 H   0  0  0  0  0  0  0  0  0  0  0  0
    3.6949    3.1010   -1.7467 N   0  0  0  0  0  0  0  0  0  0  0  0
    3.9563    3.5753   -3.0856 C   0  0  0  0  0  0  0  0  0  0  0  0
    4.1359    3.5929   -0.9751 H   0  0  0  0  0  0  0  0  0  0  0  0
    4.8415    3.0630   -3.4904 H   0  0  0  0  0  0  0  0  0  0  0  0
    3.0865    3.3649   -3.7253 H   0  0  0  0  0  0  0  0  0  0  0  0
    4.1396    4.6597   -3.0611 H   0  0  0  0  0  0  0  0  0  0  0  0
  1  3  1  0  0  0  0
  1  7  1  0  0  0  0
  1  2  2  0  0  0  0
 18 19  1  0  0  0  0
 19 24  1  0  0  0  0
 19 20  2  0  0  0  0
 25 26  1  0  0  0  0
 26 34  1  0  0  0  0
 26 27  2  0  0  0  0
  8  9  1  0  0  0  0
  9 17  1  0  0  0  0
  9 10  2  0  0  0  0
 25 28  1  0  0  0  0
  8 11  1  0  0  0  0
 34 35  1  0  0  0  0
 17 18  1  0  0  0  0
 24 25  1  0  0  0  0
  7  8  1  0  0  0  0
  3  4  1  0  0  0  0
  3  5  1  0  0  0  0
  3  6  1  0  0  0  0
 28 31  1  0  0  0  0
 28 32  1  0  0  0  0
 28 33  1  0  0  0  0
 11 14  1  0  0  0  0
 11 15  1  0  0  0  0
 11 16  1  0  0  0  0
 35 37  1  0  0  0  0
 35 38  1  0  0  0  0
 35 39  1  0  0  0  0
 18 22  1  0  0  0  0
 18 23  1  0  0  0  0
 25 30  1  0  0  0  0
  8 13  1  0  0  0  0
 34 36  1  0  0  0  0
 17 21  1  0  0  0  0
  7 12  1  0  0  0  0
 24 29  1  0  0  0  0
M  END
$$$$

  -OEChem-05262214473D

 39 38  0     1  0  0  0  0  0999 V2000
   -3.5200   -4.0268   -1.6943 C   0  0  0  0  0  0  0  0  0  0  0  0
   -2.8702   -4.8827   -1.1054 O   0  0  0  0  0  0  0  0  0  0  0  0
   -4.9704   -4.2579   -1.9614 C   0  0  0  0  0  0  0  0  0  0  0  0
   -5.1456   -4.7573   -2.9278 H   0  0  0  0  0  0  0  0  0  0  0  0
   -5.4379   -4.9112   -1.2072 H   0  0  0  0  0  0  0  0  0  0  0  0
   -5.5954   -3.3510   -1.9864 H   0  0  0  0  0  0  0  0  0  0  0  0
   -3.0424   -2.8131   -2.1606 N   0  0  0  0  0  0  0  0  0  0  0  0
   -1.6755   -2.3891   -2.0077 C   0  0  2  0  0  0  0  0  0  0  0  0
   -1.5782   -1.5673   -0.7292 C   0  0  0  0  0  0  0  0  0  0  0  0
   -2.5448   -1.0064   -0.2171 O   0  0  0  0  0  0  0  0  0  0  0  0
   -1.2087   -1.5823   -3.2094 C   0  0  0  0  0  0  0  0  0  0  0  0
   -3.6915   -2.1888   -2.6360 H   0  0  0  0  0  0  0  0  0  0  0  0
   -1.0721   -3.2977   -1.9053 H   0  0  0  0  0  0  0  0  0  0  0  0
   -1.8017   -0.6681   -3.3281 H   0  0  0  0  0  0  0  0  0  0  0  0
   -0.1601   -1.2849   -3.1045 H   0  0  0  0  0  0  0  0  0  0  0  0
   -1.3074   -2.1646   -4.1319 H   0  0  0  0  0  0  0  0  0  0  0  0
   -0.2835   -1.5112   -0.2725 N   0  0  0  0  0  0  0  0  0  0  0  0
    0.0769   -0.7658    0.9424 C   0  0  0  0  0  0  0  0  0  0  0  0
    1.4896   -0.2542    0.8214 C   0  0  0  0  0  0  0  0  0  0  0  0
    2.4802   -0.9703    0.9414 O   0  0  0  0  0  0  0  0  0  0  0  0
    0.4587   -2.0097   -0.7289 H   0  0  0  0  0  0  0  0  0  0  0  0
   -0.0018   -1.4292    1.8087 H   0  0  0  0  0  0  0  0  0  0  0  0
   -0.6125    0.0746    1.0660 H   0  0  0  0  0  0  0  0  0  0  0  0
    1.5191    1.1122    0.5637 N   0  0  0  0  0  0  0  0  0  0  0  0
    2.7361    1.8638    0.4041 C   0  0  2  0  0  0  0  0  0  0  0  0
    2.7050    2.5232   -0.9684 C   0  0  0  0  0  0  0  0  0  0  0  0
    2.0134    2.1087   -1.8963 O   0  0  0  0  0  0  0  0  0  0  0  0
    3.9599    0.9732    0.5516 C   0  0  0  0  0  0  0  0  0  0  0  0
    0.6324    1.6072    0.4837 H   0  0  0  0  0  0  0  0  0  0  0  0
    2.7350    2.6361    1.1810 H   0  0  0  0  0  0  0  0  0  0  0  0
    3.9782    0.1932   -0.2184 H   0  0  0  0  0  0  0  0  0  0  0  0
    4.8850    1.5515    0.4583 H   0  0  0  0  0  0  0  0  0  0  0  0
    3.9651    0.4766    1.5279 H   0  0  0  0  0  0  0  0  0  0  0  0
    3.5729    3.6033   -1.0483 N   0  0  0  0  0  0  0  0  0  0  0  0
    3.7340    4.3867   -2.2509 C   0  0  0  0  0  0  0  0  0  0  0  0
    4.0934    3.8881   -0.2238 H   0  0  0  0  0  0  0  0  0  0  0  0
    4.5648    3.9796   -2.8458 H   0  0  0  0  0  0  0  0  0  0  0  0
    2.8066    4.3470   -2.8412 H   0  0  0  0  0  0  0  0  0  0  0  0
    3.9530    5.4305   -1.9818 H   0  0  0  0  0  0  0  0  0  0  0  0
  1  3  1  0  0  0  0
  1  7  1  0  0  0  0
  1  2  2  0  0  0  0
 18 19  1  0  0  0  0
 19 24  1  0  0  0  0
 19 20  2  0  0  0  0
 25 26  1  0  0  0  0
 26 34  1  0  0  0  0
 26 27  2  0  0  0  0
  8  9  1  0  0  0  0
  9 17  1  0  0  0  0
  9 10  2  0  0  0  0
 25 28  1  0  0  0  0
  8 11  1  0  0  0  0
 34 35  1  0  0  0  0
 17 18  1  0  0  0  0
 24 25  1  0  0  0  0
  7  8  1  0  0  0  0
  3  4  1  0  0  0  0
  3  5  1  0  0  0  0
  3  6  1  0  0  0  0
 28 31  1  0  0  0  0
 28 32  1  0  0  0  0
 28 33  1  0  0  0  0
 11 14  1  0  0  0  0
 11 15  1  0  0  0  0
 11 16  1  0  0  0  0
 35 37  1  0  0  0  0
 35 38  1  0  0  0  0
 35 39  1  0  0  0  0
 18 22  1  0  0  0  0
 18 23  1  0  0  0  0
 25 30  1  0  0  0  0
  8 13  1  0  0  0  0
 34 36  1  0  0  0  0
 17 21  1  0  0  0  0
  7 12  1  0  0  0  0
 24 29  1  0  0  0  0
M  END
$$$$

  -OEChem-05262214473D

 39 38  0     1  0  0  0  0  0999 V2000
   -3.5200   -4.0268   -1.6943 C   0  0  0  0  0  0  0  0  0  0  0  0
   -2.8702   -4.8827   -1.1054 O   0  0  0  0  0  0  0  0  0  0  0  0
   -4.9704   -4.2579   -1.9614 C   0  0  0  0  0  0  0  0  0  0  0  0
   -5.1456   -4.7573   -2.9278 H   0  0  0  0  0  0  0  0  0  0  0  0
   -5.4379   -4.9112   -1.2072 H   0  0  0  0  0  0  0  0  0  0  0  0
   -5.5954   -3.3510   -1.9864 H   0  0  0  0  0  0  0  0  0  0  0  0
   -3.0424   -2.8131   -2.1606 N   0  0  0  0  0  0  0  0  0  0  0  0
   -1.6755   -2.3891   -2.0077 C   0  0  2  0  0  0  0  0  0  0  0  0
   -1.5782   -1.5673   -0.7292 C   0  0  0  0  0  0  0  0  0  0  0  0
   -2.5448   -1.0064   -0.2171 O   0  0  0  0  0  0  0  0  0  0  0  0
   -1.2087   -1.5823   -3.2094 C   0  0  0  0  0  0  0  0  0  0  0  0
   -3.6915   -2.1888   -2.6360 H   0  0  0  0  0  0  0  0  0  0  0  0
   -1.0721   -3.2977   -1.9053 H   0  0  0  0  0  0  0  0  0  0  0  0
   -1.8017   -0.6681   -3.3281 H   0  0  0  0  0  0  0  0  0  0  0  0
   -0.1601   -1.2849   -3.1045 H   0  0  0  0  0  0  0  0  0  0  0  0
   -1.3074   -2.1646   -4.1319 H   0  0  0  0  0  0  0  0  0  0  0  0
   -0.2835   -1.5112   -0.2725 N   0  0  0  0  0  0  0  0  0  0  0  0
    0.0769   -0.7658    0.9424 C   0  0  0  0  0  0  0  0  0  0  0  0
    1.4896   -0.2542    0.8214 C   0  0  0  0  0  0  0  0  0  0  0  0
    2.4637   -0.9877    0.6747 O   0  0  0  0  0  0  0  0  0  0  0  0
    0.4587   -2.0097   -0.7289 H   0  0  0  0  0  0  0  0  0  0  0  0
   -0.0018   -1.4292    1.8087 H   0  0  0  0  0  0  0  0  0  0  0  0
   -0.6125    0.0746    1.0660 H   0  0  0  0  0  0  0  0  0  0  0  0
    1.5402    1.1335    0.8999 N   0  0  0  0  0  0  0  0  0  0  0  0
    2.7623    1.8892    0.8173 C   0  0  2  0  0  0  0  0  0  0  0  0
    2.6351    2.8632   -0.3465 C   0  0  0  0  0  0  0  0  0  0  0  0
    1.8542    2.6940   -1.2806 O   0  0  0  0  0  0  0  0  0  0  0  0
    3.9654    0.9773    0.6340 C   0  0  0  0  0  0  0  0  0  0  0  0
    0.6660    1.6419    1.0224 H   0  0  0  0  0  0  0  0  0  0  0  0
    2.8519    2.4490    1.7547 H   0  0  0  0  0  0  0  0  0  0  0  0
    3.8934    0.4082   -0.3000 H   0  0  0  0  0  0  0  0  0  0  0  0
    4.8971    1.5517    0.6000 H   0  0  0  0  0  0  0  0  0  0  0  0
    4.0382    0.2579    1.4568 H   0  0  0  0  0  0  0  0  0  0  0  0
    3.5268    3.9215   -0.2412 N   0  0  0  0  0  0  0  0  0  0  0  0
    3.6095    4.9726   -1.2283 C   0  0  0  0  0  0  0  0  0  0  0  0
    4.1244    3.9918    0.5771 H   0  0  0  0  0  0  0  0  0  0  0  0
    4.3732    4.7143   -1.9766 H   0  0  0  0  0  0  0  0  0  0  0  0
    2.6343    5.0871   -1.7244 H   0  0  0  0  0  0  0  0  0  0  0  0
    3.8835    5.9172   -0.7358 H   0  0  0  0  0  0  0  0  0  0  0  0
  1  3  1  0  0  0  0
  1  7  1  0  0  0  0
  1  2  2  0  0  0  0
 18 19  1  0  0  0  0
 19 24  1  0  0  0  0
 19 20  2  0  0  0  0
 25 26  1  0  0  0  0
 26 34  1  0  0  0  0
 26 27  2  0  0  0  0
  8  9  1  0  0  0  0
  9 17  1  0  0  0  0
  9 10  2  0  0  0  0
 25 28  1  0  0  0  0
  8 11  1  0  0  0  0
 34 35  1  0  0  0  0
 17 18  1  0  0  0  0
 24 25  1  0  0  0  0
  7  8  1  0  0  0  0
  3  4  1  0  0  0  0
  3  5  1  0  0  0  0
  3  6  1  0  0  0  0
 28 31  1  0  0  0  0
 28 32  1  0  0  0  0
 28 33  1  0  0  0  0
 11 14  1  0  0  0  0
 11 15  1  0  0  0  0
 11 16  1  0  0  0  0
 35 37  1  0  0  0  0
 35 38  1  0  0  0  0
 35 39  1  0  0  0  0
 18 22  1  0  0  0  0
 18 23  1  0  0  0  0
 25 30  1  0  0  0  0
  8 13  1  0  0  0  0
 34 36  1  0  0  0  0
 17 21  1  0  0  0  0
  7 12  1  0  0  0  0
 24 29  1  0  0  0  0
M  END
$$$$

  -OEChem-05262214473D

 39 38  0     1  0  0  0  0  0999 V2000
   -3.5200   -4.0268   -1.6943 C   0  0  0  0  0  0  0  0  0  0  0  0
   -2.8702   -4.8827   -1.1054 O   0  0  0  0  0  0  0  0  0  0  0  0
   -4.9704   -4.2579   -1.9614 C   0  0  0  0  0  0  0  0  0  0  0  0
   -5.1456   -4.7573   -2.9278 H   0  0  0  0  0  0  0  0  0  0  0  0
   -5.4379   -4.9112   -1.2072 H   0  0  0  0  0  0  0  0  0  0  0  0
   -5.5954   -3.3510   -1.9864 H   0  0  0  0  0  0  0  0  0  0  0  0
   -3.0424   -2.8131   -2.1606 N   0  0  0  0  0  0  0  0  0  0  0  0
   -1.6755   -2.3891   -2.0077 C   0  0  2  0  0  0  0  0  0  0  0  0
   -1.5782   -1.5673   -0.7292 C   0  0  0  0  0  0  0  0  0  0  0  0
   -2.5448   -1.0064   -0.2171 O   0  0  0  0  0  0  0  0  0  0  0  0
   -1.2087   -1.5823   -3.2094 C   0  0  0  0  0  0  0  0  0  0  0  0
   -3.6915   -2.1888   -2.6360 H   0  0  0  0  0  0  0  0  0  0  0  0
   -1.0721   -3.2977   -1.9053 H   0  0  0  0  0  0  0  0  0  0  0  0
   -1.8017   -0.6681   -3.3281 H   0  0  0  0  0  0  0  0  0  0  0  0
   -0.1601   -1.2849   -3.1045 H   0  0  0  0  0  0  0  0  0  0  0  0
   -1.3074   -2.1646   -4.1319 H   0  0  0  0  0  0  0  0  0  0  0  0
   -0.2835   -1.5112   -0.2725 N   0  0  0  0  0  0  0  0  0  0  0  0
    0.0769   -0.7658    0.9424 C   0  0  0  0  0  0  0  0  0  0  0  0
    1.4896   -0.2542    0.8214 C   0  0  0  0  0  0  0  0  0  0  0  0
    2.4240   -0.9396    0.4144 O   0  0  0  0  0  0  0  0  0  0  0  0
    0.4587   -2.0097   -0.7289 H   0  0  0  0  0  0  0  0  0  0  0  0
   -0.0018   -1.4292    1.8087 H   0  0  0  0  0  0  0  0  0  0  0  0
   -0.6125    0.0746    1.0660 H   0  0  0  0  0  0  0  0  0  0  0  0
    1.5906    1.0720    1.2280 N   0  0  0  0  0  0  0  0  0  0  0  0
    2.8244    1.8129    1.2204 C   0  0  2  0  0  0  0  0  0  0  0  0
    2.6293    3.0423    0.3428 C   0  0  0  0  0  0  0  0  0  0  0  0
    1.7666    3.1133   -0.5300 O   0  0  0  0  0  0  0  0  0  0  0  0
    3.9781    0.9612    0.7141 C   0  0  0  0  0  0  0  0  0  0  0  0
    0.7465    1.5439    1.5482 H   0  0  0  0  0  0  0  0  0  0  0  0
    3.0113    2.1267    2.2531 H   0  0  0  0  0  0  0  0  0  0  0  0
    3.8088    0.6374   -0.3193 H   0  0  0  0  0  0  0  0  0  0  0  0
    4.9212    1.5173    0.7359 H   0  0  0  0  0  0  0  0  0  0  0  0
    4.0980    0.0624    1.3287 H   0  0  0  0  0  0  0  0  0  0  0  0
    3.5598    4.0341    0.6197 N   0  0  0  0  0  0  0  0  0  0  0  0
    3.5911    5.2930   -0.0875 C   0  0  0  0  0  0  0  0  0  0  0  0
    4.2269    3.8971    1.3733 H   0  0  0  0  0  0  0  0  0  0  0  0
    4.2798    5.2172   -0.9419 H   0  0  0  0  0  0  0  0  0  0  0  0
    2.5814    5.5345   -0.4510 H   0  0  0  0  0  0  0  0  0  0  0  0
    3.9359    6.0866    0.5918 H   0  0  0  0  0  0  0  0  0  0  0  0
  1  3  1  0  0  0  0
  1  7  1  0  0  0  0
  1  2  2  0  0  0  0
 18 19  1  0  0  0  0
 19 24  1  0  0  0  0
 19 20  2  0  0  0  0
 25 26  1  0  0  0  0
 26 34  1  0  0  0  0
 26 27  2  0  0  0  0
  8  9  1  0  0  0  0
  9 17  1  0  0  0  0
  9 10  2  0  0  0  0
 25 28  1  0  0  0  0
  8 11  1  0  0  0  0
 34 35  1  0  0  0  0
 17 18  1  0  0  0  0
 24 25  1  0  0  0  0
  7  8  1  0  0  0  0
  3  4  1  0  0  0  0
  3  5  1  0  0  0  0
  3  6  1  0  0  0  0
 28 31  1  0  0  0  0
 28 32  1  0  0  0  0
 28 33  1  0  0  0  0
 11 14  1  0  0  0  0
 11 15  1  0  0  0  0
 11 16  1  0  0  0  0
 35 37  1  0  0  0  0
 35 38  1  0  0  0  0
 35 39  1  0  0  0  0
 18 22  1  0  0  0  0
 18 23  1  0  0  0  0
 25 30  1  0  0  0  0
  8 13  1  0  0  0  0
 34 36  1  0  0  0  0
 17 21  1  0  0  0  0
  7 12  1  0  0  0  0
 24 29  1  0  0  0  0
M  END
$$$$

  -OEChem-05262214473D

 39 38  0     1  0  0  0  0  0999 V2000
   -3.5200   -4.0268   -1.6943 C   0  0  0  0  0  0  0  0  0  0  0  0
   -2.8702   -4.8827   -1.1054 O   0  0  0  0  0  0  0  0  0  0  0  0
   -4.9704   -4.2579   -1.9614 C   0  0  0  0  0  0  0  0  0  0  0  0
   -5.1456   -4.7573   -2.9278 H   0  0  0  0  0  0  0  0  0  0  0  0
   -5.4379   -4.9112   -1.2072 H   0  0  0  0  0  0  0  0  0  0  0  0
   -5.5954   -3.3510   -1.9864 H   0  0  0  0  0  0  0  0  0  0  0  0
   -3.0424   -2.8131   -2.1606 N   0  0  0  0  0  0  0  0  0  0  0  0
   -1.6755   -2.3891   -2.0077 C   0  0  2  0  0  0  0  0  0  0  0  0
   -1.5782   -1.5673   -0.7292 C   0  0  0  0  0  0  0  0  0  0  0  0
   -2.5448   -1.0064   -0.2171 O   0  0  0  0  0  0  0  0  0  0  0  0
   -1.2087   -1.5823   -3.2094 C   0  0  0  0  0  0  0  0  0  0  0  0
   -3.6915   -2.1888   -2.6360 H   0  0  0  0  0  0  0  0  0  0  0  0
   -1.0721   -3.2977   -1.9053 H   0  0  0  0  0  0  0  0  0  0  0  0
   -1.8017   -0.6681   -3.3281 H   0  0  0  0  0  0  0  0  0  0  0  0
   -0.1601   -1.2849   -3.1045 H   0  0  0  0  0  0  0  0  0  0  0  0
   -1.3074   -2.1646   -4.1319 H   0  0  0  0  0  0  0  0  0  0  0  0
   -0.2835   -1.5112   -0.2725 N   0  0  0  0  0  0  0  0  0  0  0  0
    0.0769   -0.7658    0.9424 C   0  0  0  0  0  0  0  0  0  0  0  0
    1.4896   -0.2542    0.8214 C   0  0  0  0  0  0  0  0  0  0  0  0
    2.3637   -0.8291    0.1781 O   0  0  0  0  0  0  0  0  0  0  0  0
    0.4587   -2.0097   -0.7289 H   0  0  0  0  0  0  0  0  0  0  0  0
   -0.0018   -1.4292    1.8087 H   0  0  0  0  0  0  0  0  0  0  0  0
   -0.6125    0.0746    1.0660 H   0  0  0  0  0  0  0  0  0  0  0  0
    1.6667    0.9320    1.5256 N   0  0  0  0  0  0  0  0  0  0  0  0
    2.9183    1.6402    1.5857 C   0  0  2  0  0  0  0  0  0  0  0  0
    2.6880    3.0481    1.0525 C   0  0  0  0  0  0  0  0  0  0  0  0
    1.7567    3.3381    0.3044 O   0  0  0  0  0  0  0  0  0  0  0  0
    3.9971    0.9260    0.7865 C   0  0  0  0  0  0  0  0  0  0  0  0
    0.8684    1.3201    2.0253 H   0  0  0  0  0  0  0  0  0  0  0  0
    3.2024    1.6911    2.6425 H   0  0  0  0  0  0  0  0  0  0  0  0
    3.7301    0.8652   -0.2748 H   0  0  0  0  0  0  0  0  0  0  0  0
    4.9557    1.4506    0.8566 H   0  0  0  0  0  0  0  0  0  0  0  0
    4.1405   -0.0965    1.1522 H   0  0  0  0  0  0  0  0  0  0  0  0
    3.6696    3.9334    1.4756 N   0  0  0  0  0  0  0  0  0  0  0  0
    3.6803    5.3262    1.0937 C   0  0  0  0  0  0  0  0  0  0  0  0
    4.3939    3.6103    2.1103 H   0  0  0  0  0  0  0  0  0  0  0  0
    4.2909    5.4538    0.1877 H   0  0  0  0  0  0  0  0  0  0  0  0
    2.6514    5.6590    0.8923 H   0  0  0  0  0  0  0  0  0  0  0  0
    4.1066    5.9270    1.9106 H   0  0  0  0  0  0  0  0  0  0  0  0
  1  3  1  0  0  0  0
  1  7  1  0  0  0  0
  1  2  2  0  0  0  0
 18 19  1  0  0  0  0
 19 24  1  0  0  0  0
 19 20  2  0  0  0  0
 25 26  1  0  0  0  0
 26 34  1  0  0  0  0
 26 27  2  0  0  0  0
  8  9  1  0  0  0  0
  9 17  1  0  0  0  0
  9 10  2  0  0  0  0
 25 28  1  0  0  0  0
  8 11  1  0  0  0  0
 34 35  1  0  0  0  0
 17 18  1  0  0  0  0
 24 25  1  0  0  0  0
  7  8  1  0  0  0  0
  3  4  1  0  0  0  0
  3  5  1  0  0  0  0
  3  6  1  0  0  0  0
 28 31  1  0  0  0  0
 28 32  1  0  0  0  0
 28 33  1  0  0  0  0
 11 14  1  0  0  0  0
 11 15  1  0  0  0  0
 11 16  1  0  0  0  0
 35 37  1  0  0  0  0
 35 38  1  0  0  0  0
 35 39  1  0  0  0  0
 18 22  1  0  0  0  0
 18 23  1  0  0  0  0
 25 30  1  0  0  0  0
  8 13  1  0  0  0  0
 34 36  1  0  0  0  0
 17 21  1  0  0  0  0
  7 12  1  0  0  0  0
 24 29  1  0  0  0  0
M  END
$$$$

  -OEChem-05262214473D

 39 38  0     1  0  0  0  0  0999 V2000
   -3.5200   -4.0268   -1.6943 C   0  0  0  0  0  0  0  0  0  0  0  0
   -2.8702   -4.8827   -1.1054 O   0  0  0  0  0  0  0  0  0  0  0  0
   -4.9704   -4.2579   -1.9614 C   0  0  0  0  0  0  0  0  0  0  0  0
   -5.1456   -4.7573   -2.9278 H   0  0  0  0  0  0  0  0  0  0  0  0
   -5.4379   -4.9112   -1.2072 H   0  0  0  0  0  0  0  0  0  0  0  0
   -5.5954   -3.3510   -1.9864 H   0  0  0  0  0  0  0  0  0  0  0  0
   -3.0424   -2.8131   -2.1606 N   0  0  0  0  0  0  0  0  0  0  0  0
   -1.6755   -2.3891   -2.0077 C   0  0  2  0  0  0  0  0  0  0  0  0
   -1.5782   -1.5673   -0.7292 C   0  0  0  0  0  0  0  0  0  0  0  0
   -2.5448   -1.0064   -0.2171 O   0  0  0  0  0  0  0  0  0  0  0  0
   -1.2087   -1.5823   -3.2094 C   0  0  0  0  0  0  0  0  0  0  0  0
   -3.6915   -2.1888   -2.6360 H   0  0  0  0  0  0  0  0  0  0  0  0
   -1.0721   -3.2977   -1.9053 H   0  0  0  0  0  0  0  0  0  0  0  0
   -1.8017   -0.6681   -3.3281 H   0  0  0  0  0  0  0  0  0  0  0  0
   -0.1601   -1.2849   -3.1045 H   0  0  0  0  0  0  0  0  0  0  0  0
   -1.3074   -2.1646   -4.1319 H   0  0  0  0  0  0  0  0  0  0  0  0
   -0.2835   -1.5112   -0.2725 N   0  0  0  0  0  0  0  0  0  0  0  0
    0.0769   -0.7658    0.9424 C   0  0  0  0  0  0  0  0  0  0  0  0
    1.4896   -0.2542    0.8214 C   0  0  0  0  0  0  0  0  0  0  0  0
    2.2871   -0.6638   -0.0181 O   0  0  0  0  0  0  0  0  0  0  0  0
    0.4587   -2.0097   -0.7289 H   0  0  0  0  0  0  0  0  0  0  0  0
   -0.0018   -1.4292    1.8087 H   0  0  0  0  0  0  0  0  0  0  0  0
   -0.6125    0.0746    1.0660 H   0  0  0  0  0  0  0  0  0  0  0  0
    1.7636    0.7230    1.7724 N   0  0  0  0  0  0  0  0  0  0  0  0
    3.0374    1.3828    1.8885 C   0  0  2  0  0  0  0  0  0  0  0  0
    2.8072    2.8803    1.7344 C   0  0  0  0  0  0  0  0  0  0  0  0
    1.8251    3.3530    1.1659 O   0  0  0  0  0  0  0  0  0  0  0  0
    4.0211    0.8739    0.8462 C   0  0  0  0  0  0  0  0  0  0  0  0
    1.0234    0.9857    2.4211 H   0  0  0  0  0  0  0  0  0  0  0  0
    3.4121    1.1720    2.8961 H   0  0  0  0  0  0  0  0  0  0  0  0
    3.6627    1.0761   -0.1697 H   0  0  0  0  0  0  0  0  0  0  0  0
    4.9982    1.3562    0.9541 H   0  0  0  0  0  0  0  0  0  0  0  0
    4.1627   -0.2082    0.9395 H   0  0  0  0  0  0  0  0  0  0  0  0
    3.8487    3.6261    2.2683 N   0  0  0  0  0  0  0  0  0  0  0  0
    3.8709    5.0699    2.2350 C   0  0  0  0  0  0  0  0  0  0  0  0
    4.6139    3.1511    2.7380 H   0  0  0  0  0  0  0  0  0  0  0  0
    4.4057    5.4082    1.3352 H   0  0  0  0  0  0  0  0  0  0  0  0
    2.8396    5.4519    2.2137 H   0  0  0  0  0  0  0  0  0  0  0  0
    4.3841    5.4494    3.1308 H   0  0  0  0  0  0  0  0  0  0  0  0
  1  3  1  0  0  0  0
  1  7  1  0  0  0  0
  1  2  2  0  0  0  0
 18 19  1  0  0  0  0
 19 24  1  0  0  0  0
 19 20  2  0  0  0  0
 25 26  1  0  0  0  0
 26 34  1  0  0  0  0
 26 27  2  0  0  0  0
  8  9  1  0  0  0  0
  9 17  1  0  0  0  0
  9 10  2  0  0  0  0
 25 28  1  0  0  0  0
  8 11  1  0  0  0  0
 34 35  1  0  0  0  0
 17 18  1  0  0  0  0
 24 25  1  0  0  0  0
  7  8  1  0  0  0  0
  3  4  1  0  0  0  0
  3  5  1  0  0  0  0
  3  6  1  0  0  0  0
 28 31  1  0  0  0  0
 28 32  1  0  0  0  0
 28 33  1  0  0  0  0
 11 14  1  0  0  0  0
 11 15  1  0  0  0  0
 11 16  1  0  0  0  0
 35 37  1  0  0  0  0
 35 38  1  0  0  0  0
 35 39  1  0  0  0  0
 18 22  1  0  0  0  0
 18 23  1  0  0  0  0
 25 30  1  0  0  0  0
  8 13  1  0  0  0  0
 34 36  1  0  0  0  0
 17 21  1  0  0  0  0
  7 12  1  0  0  0  0
 24 29  1  0  0  0  0
M  END
$$$$

  -OEChem-05262214473D

 39 38  0     1  0  0  0  0  0999 V2000
   -3.5200   -4.0268   -1.6943 C   0  0  0  0  0  0  0  0  0  0  0  0
   -2.8702   -4.8827   -1.1054 O   0  0  0  0  0  0  0  0  0  0  0  0
   -4.9704   -4.2579   -1.9614 C   0  0  0  0  0  0  0  0  0  0  0  0
   -5.1456   -4.7573   -2.9278 H   0  0  0  0  0  0  0  0  0  0  0  0
   -5.4379   -4.9112   -1.2072 H   0  0  0  0  0  0  0  0  0  0  0  0
   -5.5954   -3.3510   -1.9864 H   0  0  0  0  0  0  0  0  0  0  0  0
   -3.0424   -2.8131   -2.1606 N   0  0  0  0  0  0  0  0  0  0  0  0
   -1.6755   -2.3891   -2.0077 C   0  0  2  0  0  0  0  0  0  0  0  0
   -1.5782   -1.5673   -0.7292 C   0  0  0  0  0  0  0  0  0  0  0  0
   -2.5448   -1.0064   -0.2171 O   0  0  0  0  0  0  0  0  0  0  0  0
   -1.2087   -1.5823   -3.2094 C   0  0  0  0  0  0  0  0  0  0  0  0
   -3.6915   -2.1888   -2.6360 H   0  0  0  0  0  0  0  0  0  0  0  0
   -1.0721   -3.2977   -1.9053 H   0  0  0  0  0  0  0  0  0  0  0  0
   -1.8017   -0.6681   -3.3281 H   0  0  0  0  0  0  0  0  0  0  0  0
   -0.1601   -1.2849   -3.1045 H   0  0  0  0  0  0  0  0  0  0  0  0
   -1.3074   -2.1646   -4.1319 H   0  0  0  0  0  0  0  0  0  0  0  0
   -0.2835   -1.5112   -0.2725 N   0  0  0  0  0  0  0  0  0  0  0  0
    0.0769   -0.7658    0.9424 C   0  0  0  0  0  0  0  0  0  0  0  0
    1.3204    0.0469    0.6868 C   0  0  0  0  0  0  0  0  0  0  0  0
    1.9137    0.0543   -0.3885 O   0  0  0  0  0  0  0  0  0  0  0  0
    0.4587   -2.0097   -0.7289 H   0  0  0  0  0  0  0  0  0  0  0  0
    0.2595   -1.4722    1.7576 H   0  0  0  0  0  0  0  0  0  0  0  0
   -0.7496   -0.1032    1.2157 H   0  0  0  0  0  0  0  0  0  0  0  0
    1.6994    0.7707    1.8124 N   0  0  0  0  0  0  0  0  0  0  0  0
    2.8532    1.6301    1.8521 C   0  0  2  0  0  0  0  0  0  0  0  0
    2.3838    3.0306    2.2236 C   0  0  0  0  0  0  0  0  0  0  0  0
    1.2297    3.4183    2.0540 O   0  0  0  0  0  0  0  0  0  0  0  0
    3.5837    1.6377    0.5184 C   0  0  0  0  0  0  0  0  0  0  0  0
    1.1303    0.6881    2.6532 H   0  0  0  0  0  0  0  0  0  0  0  0
    3.5089    1.2432    2.6398 H   0  0  0  0  0  0  0  0  0  0  0  0
    2.9426    2.0223   -0.2831 H   0  0  0  0  0  0  0  0  0  0  0  0
    4.4771    2.2695    0.5589 H   0  0  0  0  0  0  0  0  0  0  0  0
    3.8945    0.6253    0.2385 H   0  0  0  0  0  0  0  0  0  0  0  0
    3.4157    3.8105    2.7269 N   0  0  0  0  0  0  0  0  0  0  0  0
    3.2268    5.1816    3.1395 C   0  0  0  0  0  0  0  0  0  0  0  0
    4.3370    3.4009    2.8506 H   0  0  0  0  0  0  0  0  0  0  0  0
    3.4493    5.8526    2.2968 H   0  0  0  0  0  0  0  0  0  0  0  0
    2.1844    5.3279    3.4591 H   0  0  0  0  0  0  0  0  0  0  0  0
    3.9025    5.4087    3.9772 H   0  0  0  0  0  0  0  0  0  0  0  0
  1  3  1  0  0  0  0
  1  7  1  0  0  0  0
  1  2  2  0  0  0  0
 18 19  1  0  0  0  0
 19 24  1  0  0  0  0
 19 20  2  0  0  0  0
 25 26  1  0  0  0  0
 26 34  1  0  0  0  0
 26 27  2  0  0  0  0
  8  9  1  0  0  0  0
  9 17  1  0  0  0  0
  9 10  2  0  0  0  0
 25 28  1  0  0  0  0
  8 11  1  0  0  0  0
 34 35  1  0  0  0  0
 17 18  1  0  0  0  0
 24 25  1  0  0  0  0
  7  8  1  0  0  0  0
  3  4  1  0  0  0  0
  3  5  1  0  0  0  0
  3  6  1  0  0  0  0
 28 31  1  0  0  0  0
 28 32  1  0  0  0  0
 28 33  1  0  0  0  0
 11 14  1  0  0  0  0
 11 15  1  0  0  0  0
 11 16  1  0  0  0  0
 35 37  1  0  0  0  0
 35 38  1  0  0  0  0
 35 39  1  0  0  0  0
 18 22  1  0  0  0  0
 18 23  1  0  0  0  0
 25 30  1  0  0  0  0
  8 13  1  0  0  0  0
 34 36  1  0  0  0  0
 17 21  1  0  0  0  0
  7 12  1  0  0  0  0
 24 29  1  0  0  0  0
M  END
$$$$

  -OEChem-05262214473D

 39 38  0     1  0  0  0  0  0999 V2000
   -3.5200   -4.0268   -1.6943 C   0  0  0  0  0  0  0  0  0  0  0  0
   -2.8702   -4.8827   -1.1054 O   0  0  0  0  0  0  0  0  0  0  0  0
   -4.9704   -4.2579   -1.9614 C   0  0  0  0  0  0  0  0  0  0  0  0
   -5.1456   -4.7573   -2.9278 H   0  0  0  0  0  0  0  0  0  0  0  0
   -5.4379   -4.9112   -1.2072 H   0  0  0  0  0  0  0  0  0  0  0  0
   -5.5954   -3.3510   -1.9864 H   0  0  0  0  0  0  0  0  0  0  0  0
   -3.0424   -2.8131   -2.1606 N   0  0  0  0  0  0  0  0  0  0  0  0
   -1.6755   -2.3891   -2.0077 C   0  0  2  0  0  0  0  0  0  0  0  0
   -1.5782   -1.5673   -0.7292 C   0  0  0  0  0  0  0  0  0  0  0  0
   -2.5448   -1.0064   -0.2171 O   0  0  0  0  0  0  0  0  0  0  0  0
   -1.2087   -1.5823   -3.2094 C   0  0  0  0  0  0  0  0  0  0  0  0
   -3.6915   -2.1888   -2.6360 H   0  0  0  0  0  0  0  0  0  0  0  0
   -1.0721   -3.2977   -1.9053 H   0  0  0  0  0  0  0  0  0  0  0  0
   -1.8017   -0.6681   -3.3281 H   0  0  0  0  0  0  0  0  0  0  0  0
   -0.1601   -1.2849   -3.1045 H   0  0  0  0  0  0  0  0  0  0  0  0
   -1.3074   -2.1646   -4.1319 H   0  0  0  0  0  0  0  0  0  0  0  0
   -0.2835   -1.5112   -0.2725 N   0  0  0  0  0  0  0  0  0  0  0  0
    0.0769   -0.7658    0.9424 C   0  0  0  0  0  0  0  0  0  0  0  0
    1.3204    0.0469    0.6868 C   0  0  0  0  0  0  0  0  0  0  0  0
    1.7628    0.2700   -0.4370 O   0  0  0  0  0  0  0  0  0  0  0  0
    0.4587   -2.0097   -0.7289 H   0  0  0  0  0  0  0  0  0  0  0  0
    0.2595   -1.4722    1.7576 H   0  0  0  0  0  0  0  0  0  0  0  0
   -0.7496   -0.1032    1.2157 H   0  0  0  0  0  0  0  0  0  0  0  0
    1.8897    0.4985    1.8728 N   0  0  0  0  0  0  0  0  0  0  0  0
    3.0870    1.2954    1.9255 C   0  0  2  0  0  0  0  0  0  0  0  0
    2.7555    2.5950    2.6471 C   0  0  0  0  0  0  0  0  0  0  0  0
    1.6140    3.0432    2.7312 O   0  0  0  0  0  0  0  0  0  0  0  0
    3.6303    1.5707    0.5321 C   0  0  0  0  0  0  0  0  0  0  0  0
    1.4352    0.2521    2.7505 H   0  0  0  0  0  0  0  0  0  0  0  0
    3.8189    0.7283    2.5110 H   0  0  0  0  0  0  0  0  0  0  0  0
    2.9108    2.1381   -0.0695 H   0  0  0  0  0  0  0  0  0  0  0  0
    4.5567    2.1528    0.5753 H   0  0  0  0  0  0  0  0  0  0  0  0
    3.8402    0.6345    0.0036 H   0  0  0  0  0  0  0  0  0  0  0  0
    3.8900    3.2174    3.1489 N   0  0  0  0  0  0  0  0  0  0  0  0
    3.8397    4.4714    3.8636 C   0  0  0  0  0  0  0  0  0  0  0  0
    4.7938    2.7645    3.0494 H   0  0  0  0  0  0  0  0  0  0  0  0
    3.9859    5.3024    3.1578 H   0  0  0  0  0  0  0  0  0  0  0  0
    2.8604    4.5748    4.3538 H   0  0  0  0  0  0  0  0  0  0  0  0
    4.6344    4.4921    4.6239 H   0  0  0  0  0  0  0  0  0  0  0  0
  1  3  1  0  0  0  0
  1  7  1  0  0  0  0
  1  2  2  0  0  0  0
 18 19  1  0  0  0  0
 19 24  1  0  0  0  0
 19 20  2  0  0  0  0
 25 26  1  0  0  0  0
 26 34  1  0  0  0  0
 26 27  2  0  0  0  0
  8  9  1  0  0  0  0
  9 17  1  0  0  0  0
  9 10  2  0  0  0  0
 25 28  1  0  0  0  0
  8 11  1  0  0  0  0
 34 35  1  0  0  0  0
 17 18  1  0  0  0  0
 24 25  1  0  0  0  0
  7  8  1  0  0  0  0
  3  4  1  0  0  0  0
  3  5  1  0  0  0  0
  3  6  1  0  0  0  0
 28 31  1  0  0  0  0
 28 32  1  0  0  0  0
 28 33  1  0  0  0  0
 11 14  1  0  0  0  0
 11 15  1  0  0  0  0
 11 16  1  0  0  0  0
 35 37  1  0  0  0  0
 35 38  1  0  0  0  0
 35 39  1  0  0  0  0
 18 22  1  0  0  0  0
 18 23  1  0  0  0  0
 25 30  1  0  0  0  0
  8 13  1  0  0  0  0
 34 36  1  0  0  0  0
 17 21  1  0  0  0  0
  7 12  1  0  0  0  0
 24 29  1  0  0  0  0
M  END
$$$$

  -OEChem-05262214473D

 39 38  0     1  0  0  0  0  0999 V2000
   -3.5200   -4.0268   -1.6943 C   0  0  0  0  0  0  0  0  0  0  0  0
   -2.8702   -4.8827   -1.1054 O   0  0  0  0  0  0  0  0  0  0  0  0
   -4.9704   -4.2579   -1.9614 C   0  0  0  0  0  0  0  0  0  0  0  0
   -5.1456   -4.7573   -2.9278 H   0  0  0  0  0  0  0  0  0  0  0  0
   -5.4379   -4.9112   -1.2072 H   0  0  0  0  0  0  0  0  0  0  0  0
   -5.5954   -3.3510   -1.9864 H   0  0  0  0  0  0  0  0  0  0  0  0
   -3.0424   -2.8131   -2.1606 N   0  0  0  0  0  0  0  0  0  0  0  0
   -1.6755   -2.3891   -2.0077 C   0  0  2  0  0  0  0  0  0  0  0  0
   -1.5782   -1.5673   -0.7292 C   0  0  0  0  0  0  0  0  0  0  0  0
   -2.5448   -1.0064   -0.2171 O   0  0  0  0  0  0  0  0  0  0  0  0
   -1.2087   -1.5823   -3.2094 C   0  0  0  0  0  0  0  0  0  0  0  0
   -3.6915   -2.1888   -2.6360 H   0  0  0  0  0  0  0  0  0  0  0  0
   -1.0721   -3.2977   -1.9053 H   0  0  0  0  0  0  0  0  0  0  0  0
   -1.8017   -0.6681   -3.3281 H   0  0  0  0  0  0  0  0  0  0  0  0
   -0.1601   -1.2849   -3.1045 H   0  0  0  0  0  0  0  0  0  0  0  0
   -1.3074   -2.1646   -4.1319 H   0  0  0  0  0  0  0  0  0  0  0  0
   -0.2835   -1.5112   -0.2725 N   0  0  0  0  0  0  0  0  0  0  0  0
    0.0769   -0.7658    0.9424 C   0  0  0  0  0  0  0  0  0  0  0  0
    1.3204    0.0469    0.6868 C   0  0  0  0  0  0  0  0  0  0  0  0
    1.6197    0.4954   -0.4167 O   0  0  0  0  0  0  0  0  0  0  0  0
    0.4587   -2.0097   -0.7289 H   0  0  0  0  0  0  0  0  0  0  0  0
    0.2595   -1.4722    1.7576 H   0  0  0  0  0  0  0  0  0  0  0  0
   -0.7496   -0.1032    1.2157 H   0  0  0  0  0  0  0  0  0  0  0  0
    2.0700    0.2143    1.8464 N   0  0  0  0  0  0  0  0  0  0  0  0
    3.3084    0.9461    1.8923 C   0  0  2  0  0  0  0  0  0  0  0  0
    3.1545    2.0675    2.9113 C   0  0  0  0  0  0  0  0  0  0  0  0
    2.0632    2.5194    3.2516 O   0  0  0  0  0  0  0  0  0  0  0  0
    3.6743    1.5010    0.5245 C   0  0  0  0  0  0  0  0  0  0  0  0
    1.7242   -0.2032    2.7088 H   0  0  0  0  0  0  0  0  0  0  0  0
    4.0777    0.2449    2.2335 H   0  0  0  0  0  0  0  0  0  0  0  0
    2.9150    2.2057    0.1661 H   0  0  0  0  0  0  0  0  0  0  0  0
    4.6308    2.0331    0.5550 H   0  0  0  0  0  0  0  0  0  0  0  0
    3.7553    0.6959   -0.2138 H   0  0  0  0  0  0  0  0  0  0  0  0
    4.3810    2.5335    3.3637 N   0  0  0  0  0  0  0  0  0  0  0  0
    4.5016    3.6039    4.3259 C   0  0  0  0  0  0  0  0  0  0  0  0
    5.2348    2.0872    3.0418 H   0  0  0  0  0  0  0  0  0  0  0  0
    4.6002    4.5635    3.7972 H   0  0  0  0  0  0  0  0  0  0  0  0
    3.6052    3.6268    4.9630 H   0  0  0  0  0  0  0  0  0  0  0  0
    5.3914    3.4366    4.9507 H   0  0  0  0  0  0  0  0  0  0  0  0
  1  3  1  0  0  0  0
  1  7  1  0  0  0  0
  1  2  2  0  0  0  0
 18 19  1  0  0  0  0
 19 24  1  0  0  0  0
 19 20  2  0  0  0  0
 25 26  1  0  0  0  0
 26 34  1  0  0  0  0
 26 27  2  0  0  0  0
  8  9  1  0  0  0  0
  9 17  1  0  0  0  0
  9 10  2  0  0  0  0
 25 28  1  0  0  0  0
  8 11  1  0  0  0  0
 34 35  1  0  0  0  0
 17 18  1  0  0  0  0
 24 25  1  0  0  0  0
  7  8  1  0  0  0  0
  3  4  1  0  0  0  0
  3  5  1  0  0  0  0
  3  6  1  0  0  0  0
 28 31  1  0  0  0  0
 28 32  1  0  0  0  0
 28 33  1  0  0  0  0
 11 14  1  0  0  0  0
 11 15  1  0  0  0  0
 11 16  1  0  0  0  0
 35 37  1  0  0  0  0
 35 38  1  0  0  0  0
 35 39  1  0  0  0  0
 18 22  1  0  0  0  0
 18 23  1  0  0  0  0
 25 30  1  0  0  0  0
  8 13  1  0  0  0  0
 34 36  1  0  0  0  0
 17 21  1  0  0  0  0
  7 12  1  0  0  0  0
 24 29  1  0  0  0  0
M  END
$$$$

  -OEChem-05262214473D

 39 38  0     1  0  0  0  0  0999 V2000
   -3.5200   -4.0268   -1.6943 C   0  0  0  0  0  0  0  0  0  0  0  0
   -2.8702   -4.8827   -1.1054 O   0  0  0  0  0  0  0  0  0  0  0  0
   -4.9704   -4.2579   -1.9614 C   0  0  0  0  0  0  0  0  0  0  0  0
   -5.1456   -4.7573   -2.9278 H   0  0  0  0  0  0  0  0  0  0  0  0
   -5.4379   -4.9112   -1.2072 H   0  0  0  0  0  0  0  0  0  0  0  0
   -5.5954   -3.3510   -1.9864 H   0  0  0  0  0  0  0  0  0  0  0  0
   -3.0424   -2.8131   -2.1606 N   0  0  0  0  0  0  0  0  0  0  0  0
   -1.6755   -2.3891   -2.0077 C   0  0  2  0  0  0  0  0  0  0  0  0
   -1.5782   -1.5673   -0.7292 C   0  0  0  0  0  0  0  0  0  0  0  0
   -2.5448   -1.0064   -0.2171 O   0  0  0  0  0  0  0  0  0  0  0  0
   -1.2087   -1.5823   -3.2094 C   0  0  0  0  0  0  0  0  0  0  0  0
   -3.6915   -2.1888   -2.6360 H   0  0  0  0  0  0  0  0  0  0  0  0
   -1.0721   -3.2977   -1.9053 H   0  0  0  0  0  0  0  0  0  0  0  0
   -1.8017   -0.6681   -3.3281 H   0  0  0  0  0  0  0  0  0  0  0  0
   -0.1601   -1.2849   -3.1045 H   0  0  0  0  0  0  0  0  0  0  0  0
   -1.3074   -2.1646   -4.1319 H   0  0  0  0  0  0  0  0  0  0  0  0
   -0.2835   -1.5112   -0.2725 N   0  0  0  0  0  0  0  0  0  0  0  0
    0.0769   -0.7658    0.9424 C   0  0  0  0  0  0  0  0  0  0  0  0
    1.3204    0.0469    0.6868 C   0  0  0  0  0  0  0  0  0  0  0  0
    1.4942    0.7150   -0.3290 O   0  0  0  0  0  0  0  0  0  0  0  0
    0.4587   -2.0097   -0.7289 H   0  0  0  0  0  0  0  0  0  0  0  0
    0.2595   -1.4722    1.7576 H   0  0  0  0  0  0  0  0  0  0  0  0
   -0.7496   -0.1032    1.2157 H   0  0  0  0  0  0  0  0  0  0  0  0
    2.2280   -0.0625    1.7350 N   0  0  0  0  0  0  0  0  0  0  0  0
    3.5024    0.6061    1.7547 C   0  0  2  0  0  0  0  0  0  0  0  0
    3.5537    1.4841    2.9981 C   0  0  0  0  0  0  0  0  0  0  0  0
    2.5468    1.8827    3.5798 O   0  0  0  0  0  0  0  0  0  0  0  0
    3.7126    1.4334    0.4961 C   0  0  0  0  0  0  0  0  0  0  0  0
    1.9775   -0.6468    2.5310 H   0  0  0  0  0  0  0  0  0  0  0  0
    4.2679   -0.1742    1.8261 H   0  0  0  0  0  0  0  0  0  0  0  0
    2.9550    2.2205    0.4074 H   0  0  0  0  0  0  0  0  0  0  0  0
    4.6943    1.9186    0.4996 H   0  0  0  0  0  0  0  0  0  0  0  0
    3.6458    0.8054   -0.3988 H   0  0  0  0  0  0  0  0  0  0  0  0
    4.8553    1.8056    3.3566 N   0  0  0  0  0  0  0  0  0  0  0  0
    5.1674    2.6382    4.4948 C   0  0  0  0  0  0  0  0  0  0  0  0
    5.6300    1.4152    2.8283 H   0  0  0  0  0  0  0  0  0  0  0  0
    5.2503    3.6863    4.1713 H   0  0  0  0  0  0  0  0  0  0  0  0
    4.3680    2.5482    5.2450 H   0  0  0  0  0  0  0  0  0  0  0  0
    6.1218    2.3140    4.9353 H   0  0  0  0  0  0  0  0  0  0  0  0
  1  3  1  0  0  0  0
  1  7  1  0  0  0  0
  1  2  2  0  0  0  0
 18 19  1  0  0  0  0
 19 24  1  0  0  0  0
 19 20  2  0  0  0  0
 25 26  1  0  0  0  0
 26 34  1  0  0  0  0
 26 27  2  0  0  0  0
  8  9  1  0  0  0  0
  9 17  1  0  0  0  0
  9 10  2  0  0  0  0
 25 28  1  0  0  0  0
  8 11  1  0  0  0  0
 34 35  1  0  0  0  0
 17 18  1  0  0  0  0
 24 25  1  0  0  0  0
  7  8  1  0  0  0  0
  3  4  1  0  0  0  0
  3  5  1  0  0  0  0
  3  6  1  0  0  0  0
 28 31  1  0  0  0  0
 28 32  1  0  0  0  0
 28 33  1  0  0  0  0
 11 14  1  0  0  0  0
 11 15  1  0  0  0  0
 11 16  1  0  0  0  0
 35 37  1  0  0  0  0
 35 38  1  0  0  0  0
 35 39  1  0  0  0  0
 18 22  1  0  0  0  0
 18 23  1  0  0  0  0
 25 30  1  0  0  0  0
  8 13  1  0  0  0  0
 34 36  1  0  0  0  0
 17 21  1  0  0  0  0
  7 12  1  0  0  0  0
 24 29  1  0  0  0  0
M  END
$$$$

  -OEChem-05262214473D

 39 38  0     1  0  0  0  0  0999 V2000
   -3.5200   -4.0268   -1.6943 C   0  0  0  0  0  0  0  0  0  0  0  0
   -2.8702   -4.8827   -1.1054 O   0  0  0  0  0  0  0  0  0  0  0  0
   -4.9704   -4.2579   -1.9614 C   0  0  0  0  0  0  0  0  0  0  0  0
   -5.1456   -4.7573   -2.9278 H   0  0  0  0  0  0  0  0  0  0  0  0
   -5.4379   -4.9112   -1.2072 H   0  0  0  0  0  0  0  0  0  0  0  0
   -5.5954   -3.3510   -1.9864 H   0  0  0  0  0  0  0  0  0  0  0  0
   -3.0424   -2.8131   -2.1606 N   0  0  0  0  0  0  0  0  0  0  0  0
   -1.6755   -2.3891   -2.0077 C   0  0  2  0  0  0  0  0  0  0  0  0
   -1.5782   -1.5673   -0.7292 C   0  0  0  0  0  0  0  0  0  0  0  0
   -2.5448   -1.0064   -0.2171 O   0  0  0  0  0  0  0  0  0  0  0  0
   -1.2087   -1.5823   -3.2094 C   0  0  0  0  0  0  0  0  0  0  0  0
   -3.6915   -2.1888   -2.6360 H   0  0  0  0  0  0  0  0  0  0  0  0
   -1.0721   -3.2977   -1.9053 H   0  0  0  0  0  0  0  0  0  0  0  0
   -1.8017   -0.6681   -3.3281 H   0  0  0  0  0  0  0  0  0  0  0  0
   -0.1601   -1.2849   -3.1045 H   0  0  0  0  0  0  0  0  0  0  0  0
   -1.3074   -2.1646   -4.1319 H   0  0  0  0  0  0  0  0  0  0  0  0
   -0.2835   -1.5112   -0.2725 N   0  0  0  0  0  0  0  0  0  0  0  0
    0.0769   -0.7658    0.9424 C   0  0  0  0  0  0  0  0  0  0  0  0
    1.3204    0.0469    0.6868 C   0  0  0  0  0  0  0  0  0  0  0  0
    1.3949    0.9139   -0.1798 O   0  0  0  0  0  0  0  0  0  0  0  0
    0.4587   -2.0097   -0.7289 H   0  0  0  0  0  0  0  0  0  0  0  0
    0.2595   -1.4722    1.7576 H   0  0  0  0  0  0  0  0  0  0  0  0
   -0.7496   -0.1032    1.2157 H   0  0  0  0  0  0  0  0  0  0  0  0
    2.3529   -0.3130    1.5464 N   0  0  0  0  0  0  0  0  0  0  0  0
    3.6555    0.2986    1.5222 C   0  0  2  0  0  0  0  0  0  0  0  0
    3.9257    0.8845    2.9018 C   0  0  0  0  0  0  0  0  0  0  0  0
    3.0317    1.1764    3.6934 O   0  0  0  0  0  0  0  0  0  0  0  0
    3.7428    1.3725    0.4490 C   0  0  0  0  0  0  0  0  0  0  0  0
    2.1780   -1.0484    2.2292 H   0  0  0  0  0  0  0  0  0  0  0  0
    4.3763   -0.5003    1.3165 H   0  0  0  0  0  0  0  0  0  0  0  0
    3.0278    2.1816    0.6381 H   0  0  0  0  0  0  0  0  0  0  0  0
    4.7429    1.8170    0.4128 H   0  0  0  0  0  0  0  0  0  0  0  0
    3.5189    0.9554   -0.5388 H   0  0  0  0  0  0  0  0  0  0  0  0
    5.2805    1.0832    3.1282 N   0  0  0  0  0  0  0  0  0  0  0  0
    5.7918    1.6401    4.3588 C   0  0  0  0  0  0  0  0  0  0  0  0
    5.9525    0.7944    2.4234 H   0  0  0  0  0  0  0  0  0  0  0  0
    5.8920    2.7305    4.2546 H   0  0  0  0  0  0  0  0  0  0  0  0
    5.0968    1.4128    5.1806 H   0  0  0  0  0  0  0  0  0  0  0  0
    6.7760    1.2009    4.5789 H   0  0  0  0  0  0  0  0  0  0  0  0
  1  3  1  0  0  0  0
  1  7  1  0  0  0  0
  1  2  2  0  0  0  0
 18 19  1  0  0  0  0
 19 24  1  0  0  0  0
 19 20  2  0  0  0  0
 25 26  1  0  0  0  0
 26 34  1  0  0  0  0
 26 27  2  0  0  0  0
  8  9  1  0  0  0  0
  9 17  1  0  0  0  0
  9 10  2  0  0  0  0
 25 28  1  0  0  0  0
  8 11  1  0  0  0  0
 34 35  1  0  0  0  0
 17 18  1  0  0  0  0
 24 25  1  0  0  0  0
  7  8  1  0  0  0  0
  3  4  1  0  0  0  0
  3  5  1  0  0  0  0
  3  6  1  0  0  0  0
 28 31  1  0  0  0  0
 28 32  1  0  0  0  0
 28 33  1  0  0  0  0
 11 14  1  0  0  0  0
 11 15  1  0  0  0  0
 11 16  1  0  0  0  0
 35 37  1  0  0  0  0
 35 38  1  0  0  0  0
 35 39  1  0  0  0  0
 18 22  1  0  0  0  0
 18 23  1  0  0  0  0
 25 30  1  0  0  0  0
  8 13  1  0  0  0  0
 34 36  1  0  0  0  0
 17 21  1  0  0  0  0
  7 12  1  0  0  0  0
 24 29  1  0  0  0  0
M  END
$$$$

  -OEChem-05262214473D

 39 38  0     1  0  0  0  0  0999 V2000
   -3.5200   -4.0268   -1.6943 C   0  0  0  0  0  0  0  0  0  0  0  0
   -2.8702   -4.8827   -1.1054 O   0  0  0  0  0  0  0  0  0  0  0  0
   -4.9704   -4.2579   -1.9614 C   0  0  0  0  0  0  0  0  0  0  0  0
   -5.1456   -4.7573   -2.9278 H   0  0  0  0  0  0  0  0  0  0  0  0
   -5.4379   -4.9112   -1.2072 H   0  0  0  0  0  0  0  0  0  0  0  0
   -5.5954   -3.3510   -1.9864 H   0  0  0  0  0  0  0  0  0  0  0  0
   -3.0424   -2.8131   -2.1606 N   0  0  0  0  0  0  0  0  0  0  0  0
   -1.6755   -2.3891   -2.0077 C   0  0  2  0  0  0  0  0  0  0  0  0
   -1.5782   -1.5673   -0.7292 C   0  0  0  0  0  0  0  0  0  0  0  0
   -2.5448   -1.0064   -0.2171 O   0  0  0  0  0  0  0  0  0  0  0  0
   -1.2087   -1.5823   -3.2094 C   0  0  0  0  0  0  0  0  0  0  0  0
   -3.6915   -2.1888   -2.6360 H   0  0  0  0  0  0  0  0  0  0  0  0
   -1.0721   -3.2977   -1.9053 H   0  0  0  0  0  0  0  0  0  0  0  0
   -1.8017   -0.6681   -3.3281 H   0  0  0  0  0  0  0  0  0  0  0  0
   -0.1601   -1.2849   -3.1045 H   0  0  0  0  0  0  0  0  0  0  0  0
   -1.3074   -2.1646   -4.1319 H   0  0  0  0  0  0  0  0  0  0  0  0
   -0.2835   -1.5112   -0.2725 N   0  0  0  0  0  0  0  0  0  0  0  0
    0.0769   -0.7658    0.9424 C   0  0  0  0  0  0  0  0  0  0  0  0
    1.3204    0.0469    0.6868 C   0  0  0  0  0  0  0  0  0  0  0  0
    1.3284    1.0786    0.0205 O   0  0  0  0  0  0  0  0  0  0  0  0
    0.4587   -2.0097   -0.7289 H   0  0  0  0  0  0  0  0  0  0  0  0
    0.2595   -1.4722    1.7576 H   0  0  0  0  0  0  0  0  0  0  0  0
   -0.7496   -0.1032    1.2157 H   0  0  0  0  0  0  0  0  0  0  0  0
    2.4363   -0.5202    1.2932 N   0  0  0  0  0  0  0  0  0  0  0  0
    3.7576    0.0444    1.2105 C   0  0  2  0  0  0  0  0  0  0  0  0
    4.2453    0.3095    2.6287 C   0  0  0  0  0  0  0  0  0  0  0  0
    3.4850    0.4486    3.5846 O   0  0  0  0  0  0  0  0  0  0  0  0
    3.7626    1.3224    0.3862 C   0  0  0  0  0  0  0  0  0  0  0  0
    2.3118   -1.3807    1.8239 H   0  0  0  0  0  0  0  0  0  0  0  0
    4.3956   -0.7113    0.7396 H   0  0  0  0  0  0  0  0  0  0  0  0
    3.1287    2.0915    0.8425 H   0  0  0  0  0  0  0  0  0  0  0  0
    4.7732    1.7352    0.3004 H   0  0  0  0  0  0  0  0  0  0  0  0
    3.3835    1.1358   -0.6244 H   0  0  0  0  0  0  0  0  0  0  0  0
    5.6276    0.4155    2.6940 N   0  0  0  0  0  0  0  0  0  0  0  0
    6.3320    0.6776    3.9273 C   0  0  0  0  0  0  0  0  0  0  0  0
    6.1803    0.2671    1.8548 H   0  0  0  0  0  0  0  0  0  0  0  0
    6.4816    1.7614    4.0415 H   0  0  0  0  0  0  0  0  0  0  0  0
    5.7420    0.2977    4.7744 H   0  0  0  0  0  0  0  0  0  0  0  0
    7.3093    0.1731    3.9056 H   0  0  0  0  0  0  0  0  0  0  0  0
  1  3  1  0  0  0  0
  1  7  1  0  0  0  0
  1  2  2  0  0  0  0
 18 19  1  0  0  0  0
 19 24  1  0  0  0  0
 19 20  2  0  0  0  0
 25 26  1  0  0  0  0
 26 34  1  0  0  0  0
 26 27  2  0  0  0  0
  8  9  1  0  0  0  0
  9 17  1  0  0  0  0
  9 10  2  0  0  0  0
 25 28  1  0  0  0  0
  8 11  1  0  0  0  0
 34 35  1  0  0  0  0
 17 18  1  0  0  0  0
 24 25  1  0  0  0  0
  7  8  1  0  0  0  0
  3  4  1  0  0  0  0
  3  5  1  0  0  0  0
  3  6  1  0  0  0  0
 28 31  1  0  0  0  0
 28 32  1  0  0  0  0
 28 33  1  0  0  0  0
 11 14  1  0  0  0  0
 11 15  1  0  0  0  0
 11 16  1  0  0  0  0
 35 37  1  0  0  0  0
 35 38  1  0  0  0  0
 35 39  1  0  0  0  0
 18 22  1  0  0  0  0
 18 23  1  0  0  0  0
 25 30  1  0  0  0  0
  8 13  1  0  0  0  0
 34 36  1  0  0  0  0
 17 21  1  0  0  0  0
  7 12  1  0  0  0  0
 24 29  1  0  0  0  0
M  END
$$$$

  -OEChem-05262214473D

 39 38  0     1  0  0  0  0  0999 V2000
   -3.5200   -4.0268   -1.6943 C   0  0  0  0  0  0  0  0  0  0  0  0
   -2.8702   -4.8827   -1.1054 O   0  0  0  0  0  0  0  0  0  0  0  0
   -4.9704   -4.2579   -1.9614 C   0  0  0  0  0  0  0  0  0  0  0  0
   -5.1456   -4.7573   -2.9278 H   0  0  0  0  0  0  0  0  0  0  0  0
   -5.4379   -4.9112   -1.2072 H   0  0  0  0  0  0  0  0  0  0  0  0
   -5.5954   -3.3510   -1.9864 H   0  0  0  0  0  0  0  0  0  0  0  0
   -3.0424   -2.8131   -2.1606 N   0  0  0  0  0  0  0  0  0  0  0  0
   -1.6755   -2.3891   -2.0077 C   0  0  2  0  0  0  0  0  0  0  0  0
   -1.5782   -1.5673   -0.7292 C   0  0  0  0  0  0  0  0  0  0  0  0
   -2.5448   -1.0064   -0.2171 O   0  0  0  0  0  0  0  0  0  0  0  0
   -1.2087   -1.5823   -3.2094 C   0  0  0  0  0  0  0  0  0  0  0  0
   -3.6915   -2.1888   -2.6360 H   0  0  0  0  0  0  0  0  0  0  0  0
   -1.0721   -3.2977   -1.9053 H   0  0  0  0  0  0  0  0  0  0  0  0
   -1.8017   -0.6681   -3.3281 H   0  0  0  0  0  0  0  0  0  0  0  0
   -0.1601   -1.2849   -3.1045 H   0  0  0  0  0  0  0  0  0  0  0  0
   -1.3074   -2.1646   -4.1319 H   0  0  0  0  0  0  0  0  0  0  0  0
   -0.2835   -1.5112   -0.2725 N   0  0  0  0  0  0  0  0  0  0  0  0
    0.0769   -0.7658    0.9424 C   0  0  0  0  0  0  0  0  0  0  0  0
    1.3204    0.0469    0.6868 C   0  0  0  0  0  0  0  0  0  0  0  0
    1.2995    1.1978    0.2585 O   0  0  0  0  0  0  0  0  0  0  0  0
    0.4587   -2.0097   -0.7289 H   0  0  0  0  0  0  0  0  0  0  0  0
    0.2595   -1.4722    1.7576 H   0  0  0  0  0  0  0  0  0  0  0  0
   -0.7496   -0.1032    1.2157 H   0  0  0  0  0  0  0  0  0  0  0  0
    2.4724   -0.6699    0.9928 N   0  0  0  0  0  0  0  0  0  0  0  0
    3.8015   -0.1390    0.8410 C   0  0  2  0  0  0  0  0  0  0  0  0
    4.4907   -0.2015    2.1977 C   0  0  0  0  0  0  0  0  0  0  0  0
    3.8756   -0.2510    3.2609 O   0  0  0  0  0  0  0  0  0  0  0  0
    3.7708    1.2865    0.3121 C   0  0  0  0  0  0  0  0  0  0  0  0
    2.3700   -1.6210    1.3429 H   0  0  0  0  0  0  0  0  0  0  0  0
    4.3244   -0.7928    0.1345 H   0  0  0  0  0  0  0  0  0  0  0  0
    3.2507    1.9564    1.0066 H   0  0  0  0  0  0  0  0  0  0  0  0
    4.7832    1.6789    0.1702 H   0  0  0  0  0  0  0  0  0  0  0  0
    3.2486    1.3343   -0.6495 H   0  0  0  0  0  0  0  0  0  0  0  0
    5.8730   -0.1520    2.0836 N   0  0  0  0  0  0  0  0  0  0  0  0
    6.7514   -0.1836    3.2296 C   0  0  0  0  0  0  0  0  0  0  0  0
    6.2978   -0.1309    1.1612 H   0  0  0  0  0  0  0  0  0  0  0  0
    6.9787    0.8450    3.5465 H   0  0  0  0  0  0  0  0  0  0  0  0
    6.2595   -0.7209    4.0538 H   0  0  0  0  0  0  0  0  0  0  0  0
    7.6853   -0.6993    2.9614 H   0  0  0  0  0  0  0  0  0  0  0  0
  1  3  1  0  0  0  0
  1  7  1  0  0  0  0
  1  2  2  0  0  0  0
 18 19  1  0  0  0  0
 19 24  1  0  0  0  0
 19 20  2  0  0  0  0
 25 26  1  0  0  0  0
 26 34  1  0  0  0  0
 26 27  2  0  0  0  0
  8  9  1  0  0  0  0
  9 17  1  0  0  0  0
  9 10  2  0  0  0  0
 25 28  1  0  0  0  0
  8 11  1  0  0  0  0
 34 35  1  0  0  0  0
 17 18  1  0  0  0  0
 24 25  1  0  0  0  0
  7  8  1  0  0  0  0
  3  4  1  0  0  0  0
  3  5  1  0  0  0  0
  3  6  1  0  0  0  0
 28 31  1  0  0  0  0
 28 32  1  0  0  0  0
 28 33  1  0  0  0  0
 11 14  1  0  0  0  0
 11 15  1  0  0  0  0
 11 16  1  0  0  0  0
 35 37  1  0  0  0  0
 35 38  1  0  0  0  0
 35 39  1  0  0  0  0
 18 22  1  0  0  0  0
 18 23  1  0  0  0  0
 25 30  1  0  0  0  0
  8 13  1  0  0  0  0
 34 36  1  0  0  0  0
 17 21  1  0  0  0  0
  7 12  1  0  0  0  0
 24 29  1  0  0  0  0
M  END
$$$$

  -OEChem-05262214473D

 39 38  0     1  0  0  0  0  0999 V2000
   -3.5200   -4.0268   -1.6943 C   0  0  0  0  0  0  0  0  0  0  0  0
   -2.8702   -4.8827   -1.1054 O   0  0  0  0  0  0  0  0  0  0  0  0
   -4.9704   -4.2579   -1.9614 C   0  0  0  0  0  0  0  0  0  0  0  0
   -5.1456   -4.7573   -2.9278 H   0  0  0  0  0  0  0  0  0  0  0  0
   -5.4379   -4.9112   -1.2072 H   0  0  0  0  0  0  0  0  0  0  0  0
   -5.5954   -3.3510   -1.9864 H   0  0  0  0  0  0  0  0  0  0  0  0
   -3.0424   -2.8131   -2.1606 N   0  0  0  0  0  0  0  0  0  0  0  0
   -1.6755   -2.3891   -2.0077 C   0  0  2  0  0  0  0  0  0  0  0  0
   -1.5782   -1.5673   -0.7292 C   0  0  0  0  0  0  0  0  0  0  0  0
   -2.5448   -1.0064   -0.2171 O   0  0  0  0  0  0  0  0  0  0  0  0
   -1.2087   -1.5823   -3.2094 C   0  0  0  0  0  0  0  0  0  0  0  0
   -3.6915   -2.1888   -2.6360 H   0  0  0  0  0  0  0  0  0  0  0  0
   -1.0721   -3.2977   -1.9053 H   0  0  0  0  0  0  0  0  0  0  0  0
   -1.8017   -0.6681   -3.3281 H   0  0  0  0  0  0  0  0  0  0  0  0
   -0.1601   -1.2849   -3.1045 H   0  0  0  0  0  0  0  0  0  0  0  0
   -1.3074   -2.1646   -4.1319 H   0  0  0  0  0  0  0  0  0  0  0  0
   -0.2835   -1.5112   -0.2725 N   0  0  0  0  0  0  0  0  0  0  0  0
    0.0769   -0.7658    0.9424 C   0  0  0  0  0  0  0  0  0  0  0  0
    1.3204    0.0469    0.6868 C   0  0  0  0  0  0  0  0  0  0  0  0
    1.3099    1.2633    0.5178 O   0  0  0  0  0  0  0  0  0  0  0  0
    0.4587   -2.0097   -0.7289 H   0  0  0  0  0  0  0  0  0  0  0  0
    0.2595   -1.4722    1.7576 H   0  0  0  0  0  0  0  0  0  0  0  0
   -0.7496   -0.1032    1.2157 H   0  0  0  0  0  0  0  0  0  0  0  0
    2.4588   -0.7519    0.6656 N   0  0  0  0  0  0  0  0  0  0  0  0
    3.7843   -0.2391    0.4388 C   0  0  2  0  0  0  0  0  0  0  0  0
    4.6451   -0.6139    1.6379 C   0  0  0  0  0  0  0  0  0  0  0  0
    4.1771   -0.8749    2.7443 O   0  0  0  0  0  0  0  0  0  0  0  0
    3.7668    1.2674    0.2318 C   0  0  0  0  0  0  0  0  0  0  0  0
    2.3485   -1.7530    0.8187 H   0  0  0  0  0  0  0  0  0  0  0  0
    4.1677   -0.7391   -0.4573 H   0  0  0  0  0  0  0  0  0  0  0  0
    3.3856    1.7855    1.1192 H   0  0  0  0  0  0  0  0  0  0  0  0
    4.7722    1.6519    0.0310 H   0  0  0  0  0  0  0  0  0  0  0  0
    3.1235    1.5373   -0.6127 H   0  0  0  0  0  0  0  0  0  0  0  0
    5.9999   -0.5806    1.3386 N   0  0  0  0  0  0  0  0  0  0  0  0
    7.0214   -0.8849    2.3132 C   0  0  0  0  0  0  0  0  0  0  0  0
    6.2970   -0.3724    0.3898 H   0  0  0  0  0  0  0  0  0  0  0  0
    7.3496    0.0436    2.8032 H   0  0  0  0  0  0  0  0  0  0  0  0
    6.6142   -1.5736    3.0681 H   0  0  0  0  0  0  0  0  0  0  0  0
    7.8785   -1.3569    1.8107 H   0  0  0  0  0  0  0  0  0  0  0  0
  1  3  1  0  0  0  0
  1  7  1  0  0  0  0
  1  2  2  0  0  0  0
 18 19  1  0  0  0  0
 19 24  1  0  0  0  0
 19 20  2  0  0  0  0
 25 26  1  0  0  0  0
 26 34  1  0  0  0  0
 26 27  2  0  0  0  0
  8  9  1  0  0  0  0
  9 17  1  0  0  0  0
  9 10  2  0  0  0  0
 25 28  1  0  0  0  0
  8 11  1  0  0  0  0
 34 35  1  0  0  0  0
 17 18  1  0  0  0  0
 24 25  1  0  0  0  0
  7  8  1  0  0  0  0
  3  4  1  0  0  0  0
  3  5  1  0  0  0  0
  3  6  1  0  0  0  0
 28 31  1  0  0  0  0
 28 32  1  0  0  0  0
 28 33  1  0  0  0  0
 11 14  1  0  0  0  0
 11 15  1  0  0  0  0
 11 16  1  0  0  0  0
 35 37  1  0  0  0  0
 35 38  1  0  0  0  0
 35 39  1  0  0  0  0
 18 22  1  0  0  0  0
 18 23  1  0  0  0  0
 25 30  1  0  0  0  0
  8 13  1  0  0  0  0
 34 36  1  0  0  0  0
 17 21  1  0  0  0  0
  7 12  1  0  0  0  0
 24 29  1  0  0  0  0
M  END
$$$$

  -OEChem-05262214473D

 39 38  0     1  0  0  0  0  0999 V2000
   -3.5200   -4.0268   -1.6943 C   0  0  0  0  0  0  0  0  0  0  0  0
   -2.8702   -4.8827   -1.1054 O   0  0  0  0  0  0  0  0  0  0  0  0
   -4.9704   -4.2579   -1.9614 C   0  0  0  0  0  0  0  0  0  0  0  0
   -5.1456   -4.7573   -2.9278 H   0  0  0  0  0  0  0  0  0  0  0  0
   -5.4379   -4.9112   -1.2072 H   0  0  0  0  0  0  0  0  0  0  0  0
   -5.5954   -3.3510   -1.9864 H   0  0  0  0  0  0  0  0  0  0  0  0
   -3.0424   -2.8131   -2.1606 N   0  0  0  0  0  0  0  0  0  0  0  0
   -1.6755   -2.3891   -2.0077 C   0  0  2  0  0  0  0  0  0  0  0  0
   -1.5782   -1.5673   -0.7292 C   0  0  0  0  0  0  0  0  0  0  0  0
   -2.5448   -1.0064   -0.2171 O   0  0  0  0  0  0  0  0  0  0  0  0
   -1.2087   -1.5823   -3.2094 C   0  0  0  0  0  0  0  0  0  0  0  0
   -3.6915   -2.1888   -2.6360 H   0  0  0  0  0  0  0  0  0  0  0  0
   -1.0721   -3.2977   -1.9053 H   0  0  0  0  0  0  0  0  0  0  0  0
   -1.8017   -0.6681   -3.3281 H   0  0  0  0  0  0  0  0  0  0  0  0
   -0.1601   -1.2849   -3.1045 H   0  0  0  0  0  0  0  0  0  0  0  0
   -1.3074   -2.1646   -4.1319 H   0  0  0  0  0  0  0  0  0  0  0  0
   -0.2835   -1.5112   -0.2725 N   0  0  0  0  0  0  0  0  0  0  0  0
    0.0769   -0.7658    0.9424 C   0  0  0  0  0  0  0  0  0  0  0  0
    1.3204    0.0469    0.6868 C   0  0  0  0  0  0  0  0  0  0  0  0
    1.3591    1.2709    0.7809 O   0  0  0  0  0  0  0  0  0  0  0  0
    0.4587   -2.0097   -0.7289 H   0  0  0  0  0  0  0  0  0  0  0  0
    0.2595   -1.4722    1.7576 H   0  0  0  0  0  0  0  0  0  0  0  0
   -0.7496   -0.1032    1.2157 H   0  0  0  0  0  0  0  0  0  0  0  0
    2.3963   -0.7607    0.3340 N   0  0  0  0  0  0  0  0  0  0  0  0
    3.7071   -0.2493    0.0312 C   0  0  2  0  0  0  0  0  0  0  0  0
    4.6981   -0.8995    0.9876 C   0  0  0  0  0  0  0  0  0  0  0  0
    4.3689   -1.3804    2.0700 O   0  0  0  0  0  0  0  0  0  0  0  0
    3.7509    1.2662    0.1506 C   0  0  0  0  0  0  0  0  0  0  0  0
    2.2488   -1.7676    0.2873 H   0  0  0  0  0  0  0  0  0  0  0  0
    3.9361   -0.5541   -0.9957 H   0  0  0  0  0  0  0  0  0  0  0  0
    3.5240    1.5905    1.1727 H   0  0  0  0  0  0  0  0  0  0  0  0
    4.7410    1.6560   -0.1077 H   0  0  0  0  0  0  0  0  0  0  0  0
    3.0168    1.7310   -0.5163 H   0  0  0  0  0  0  0  0  0  0  0  0
    5.9998   -0.8411    0.5097 N   0  0  0  0  0  0  0  0  0  0  0  0
    7.1235   -1.3785    1.2407 C   0  0  0  0  0  0  0  0  0  0  0  0
    6.1781   -0.4409   -0.4067 H   0  0  0  0  0  0  0  0  0  0  0  0
    7.5691   -0.5880    1.8625 H   0  0  0  0  0  0  0  0  0  0  0  0
    6.7818   -2.2024    1.8844 H   0  0  0  0  0  0  0  0  0  0  0  0
    7.8757   -1.7549    0.5318 H   0  0  0  0  0  0  0  0  0  0  0  0
  1  3  1  0  0  0  0
  1  7  1  0  0  0  0
  1  2  2  0  0  0  0
 18 19  1  0  0  0  0
 19 24  1  0  0  0  0
 19 20  2  0  0  0  0
 25 26  1  0  0  0  0
 26 34  1  0  0  0  0
 26 27  2  0  0  0  0
  8  9  1  0  0  0  0
  9 17  1  0  0  0  0
  9 10  2  0  0  0  0
 25 28  1  0  0  0  0
  8 11  1  0  0  0  0
 34 35  1  0  0  0  0
 17 18  1  0  0  0  0
 24 25  1  0  0  0  0
  7  8  1  0  0  0  0
  3  4  1  0  0  0  0
  3  5  1  0  0  0  0
  3  6  1  0  0  0  0
 28 31  1  0  0  0  0
 28 32  1  0  0  0  0
 28 33  1  0  0  0  0
 11 14  1  0  0  0  0
 11 15  1  0  0  0  0
 11 16  1  0  0  0  0
 35 37  1  0  0  0  0
 35 38  1  0  0  0  0
 35 39  1  0  0  0  0
 18 22  1  0  0  0  0
 18 23  1  0  0  0  0
 25 30  1  0  0  0  0
  8 13  1  0  0  0  0
 34 36  1  0  0  0  0
 17 21  1  0  0  0  0
  7 12  1  0  0  0  0
 24 29  1  0  0  0  0
M  END
$$$$

  -OEChem-05262214473D

 39 38  0     1  0  0  0  0  0999 V2000
   -3.5200   -4.0268   -1.6943 C   0  0  0  0  0  0  0  0  0  0  0  0
   -2.8702   -4.8827   -1.1054 O   0  0  0  0  0  0  0  0  0  0  0  0
   -4.9704   -4.2579   -1.9614 C   0  0  0  0  0  0  0  0  0  0  0  0
   -5.1456   -4.7573   -2.9278 H   0  0  0  0  0  0  0  0  0  0  0  0
   -5.4379   -4.9112   -1.2072 H   0  0  0  0  0  0  0  0  0  0  0  0
   -5.5954   -3.3510   -1.9864 H   0  0  0  0  0  0  0  0  0  0  0  0
   -3.0424   -2.8131   -2.1606 N   0  0  0  0  0  0  0  0  0  0  0  0
   -1.6755   -2.3891   -2.0077 C   0  0  2  0  0  0  0  0  0  0  0  0
   -1.5782   -1.5673   -0.7292 C   0  0  0  0  0  0  0  0  0  0  0  0
   -2.5448   -1.0064   -0.2171 O   0  0  0  0  0  0  0  0  0  0  0  0
   -1.2087   -1.5823   -3.2094 C   0  0  0  0  0  0  0  0  0  0  0  0
   -3.6915   -2.1888   -2.6360 H   0  0  0  0  0  0  0  0  0  0  0  0
   -1.0721   -3.2977   -1.9053 H   0  0  0  0  0  0  0  0  0  0  0  0
   -1.8017   -0.6681   -3.3281 H   0  0  0  0  0  0  0  0  0  0  0  0
   -0.1601   -1.2849   -3.1045 H   0  0  0  0  0  0  0  0  0  0  0  0
   -1.3074   -2.1646   -4.1319 H   0  0  0  0  0  0  0  0  0  0  0  0
   -0.2835   -1.5112   -0.2725 N   0  0  0  0  0  0  0  0  0  0  0  0
    0.0769   -0.7658    0.9424 C   0  0  0  0  0  0  0  0  0  0  0  0
    1.3204    0.0469    0.6868 C   0  0  0  0  0  0  0  0  0  0  0  0
    1.4436    1.2198    1.0297 O   0  0  0  0  0  0  0  0  0  0  0  0
    0.4587   -2.0097   -0.7289 H   0  0  0  0  0  0  0  0  0  0  0  0
    0.2595   -1.4722    1.7576 H   0  0  0  0  0  0  0  0  0  0  0  0
   -0.7496   -0.1032    1.2157 H   0  0  0  0  0  0  0  0  0  0  0  0
    2.2894   -0.6957    0.0205 N   0  0  0  0  0  0  0  0  0  0  0  0
    3.5753   -0.1687   -0.3538 C   0  0  2  0  0  0  0  0  0  0  0  0
    4.6460   -1.0388    0.2912 C   0  0  0  0  0  0  0  0  0  0  0  0
    4.4379   -1.7331    1.2840 O   0  0  0  0  0  0  0  0  0  0  0  0
    3.7242    1.2830    0.0741 C   0  0  0  0  0  0  0  0  0  0  0  0
    2.0777   -1.6638   -0.2152 H   0  0  0  0  0  0  0  0  0  0  0  0
    3.6454   -0.2502   -1.4439 H   0  0  0  0  0  0  0  0  0  0  0  0
    3.6566    1.3846    1.1635 H   0  0  0  0  0  0  0  0  0  0  0  0
    4.6917    1.6910   -0.2365 H   0  0  0  0  0  0  0  0  0  0  0  0
    2.9356    1.9022   -0.3669 H   0  0  0  0  0  0  0  0  0  0  0  0
    5.8725   -0.9157   -0.3465 N   0  0  0  0  0  0  0  0  0  0  0  0
    7.0509   -1.6308    0.0850 C   0  0  0  0  0  0  0  0  0  0  0  0
    5.9491   -0.3317   -1.1741 H   0  0  0  0  0  0  0  0  0  0  0  0
    7.6220   -1.0069    0.7883 H   0  0  0  0  0  0  0  0  0  0  0  0
    6.7510   -2.5644    0.5834 H   0  0  0  0  0  0  0  0  0  0  0  0
    7.6771   -1.8661   -0.7882 H   0  0  0  0  0  0  0  0  0  0  0  0
  1  3  1  0  0  0  0
  1  7  1  0  0  0  0
  1  2  2  0  0  0  0
 18 19  1  0  0  0  0
 19 24  1  0  0  0  0
 19 20  2  0  0  0  0
 25 26  1  0  0  0  0
 26 34  1  0  0  0  0
 26 27  2  0  0  0  0
  8  9  1  0  0  0  0
  9 17  1  0  0  0  0
  9 10  2  0  0  0  0
 25 28  1  0  0  0  0
  8 11  1  0  0  0  0
 34 35  1  0  0  0  0
 17 18  1  0  0  0  0
 24 25  1  0  0  0  0
  7  8  1  0  0  0  0
  3  4  1  0  0  0  0
  3  5  1  0  0  0  0
  3  6  1  0  0  0  0
 28 31  1  0  0  0  0
 28 32  1  0  0  0  0
 28 33  1  0  0  0  0
 11 14  1  0  0  0  0
 11 15  1  0  0  0  0
 11 16  1  0  0  0  0
 35 37  1  0  0  0  0
 35 38  1  0  0  0  0
 35 39  1  0  0  0  0
 18 22  1  0  0  0  0
 18 23  1  0  0  0  0
 25 30  1  0  0  0  0
  8 13  1  0  0  0  0
 34 36  1  0  0  0  0
 17 21  1  0  0  0  0
  7 12  1  0  0  0  0
 24 29  1  0  0  0  0
M  END
$$$$

  -OEChem-05262214473D

 39 38  0     1  0  0  0  0  0999 V2000
   -3.5200   -4.0268   -1.6943 C   0  0  0  0  0  0  0  0  0  0  0  0
   -2.8702   -4.8827   -1.1054 O   0  0  0  0  0  0  0  0  0  0  0  0
   -4.9704   -4.2579   -1.9614 C   0  0  0  0  0  0  0  0  0  0  0  0
   -5.1456   -4.7573   -2.9278 H   0  0  0  0  0  0  0  0  0  0  0  0
   -5.4379   -4.9112   -1.2072 H   0  0  0  0  0  0  0  0  0  0  0  0
   -5.5954   -3.3510   -1.9864 H   0  0  0  0  0  0  0  0  0  0  0  0
   -3.0424   -2.8131   -2.1606 N   0  0  0  0  0  0  0  0  0  0  0  0
   -1.6755   -2.3891   -2.0077 C   0  0  2  0  0  0  0  0  0  0  0  0
   -1.5782   -1.5673   -0.7292 C   0  0  0  0  0  0  0  0  0  0  0  0
   -2.5448   -1.0064   -0.2171 O   0  0  0  0  0  0  0  0  0  0  0  0
   -1.2087   -1.5823   -3.2094 C   0  0  0  0  0  0  0  0  0  0  0  0
   -3.6915   -2.1888   -2.6360 H   0  0  0  0  0  0  0  0  0  0  0  0
   -1.0721   -3.2977   -1.9053 H   0  0  0  0  0  0  0  0  0  0  0  0
   -1.8017   -0.6681   -3.3281 H   0  0  0  0  0  0  0  0  0  0  0  0
   -0.1601   -1.2849   -3.1045 H   0  0  0  0  0  0  0  0  0  0  0  0
   -1.3074   -2.1646   -4.1319 H   0  0  0  0  0  0  0  0  0  0  0  0
   -0.2835   -1.5112   -0.2725 N   0  0  0  0  0  0  0  0  0  0  0  0
    0.0769   -0.7658    0.9424 C   0  0  0  0  0  0  0  0  0  0  0  0
    1.3204    0.0469    0.6868 C   0  0  0  0  0  0  0  0  0  0  0  0
    1.5577    1.1136    1.2474 O   0  0  0  0  0  0  0  0  0  0  0  0
    0.4587   -2.0097   -0.7289 H   0  0  0  0  0  0  0  0  0  0  0  0
    0.2595   -1.4722    1.7576 H   0  0  0  0  0  0  0  0  0  0  0  0
   -0.7496   -0.1032    1.2157 H   0  0  0  0  0  0  0  0  0  0  0  0
    2.1452   -0.5612   -0.2536 N   0  0  0  0  0  0  0  0  0  0  0  0
    3.3978   -0.0028   -0.6901 C   0  0  2  0  0  0  0  0  0  0  0  0
    4.4924   -1.0224   -0.4041 C   0  0  0  0  0  0  0  0  0  0  0  0
    4.3793   -1.9090    0.4399 O   0  0  0  0  0  0  0  0  0  0  0  0
    3.6884    1.3168    0.0076 C   0  0  0  0  0  0  0  0  0  0  0  0
    1.8469   -1.4488   -0.6546 H   0  0  0  0  0  0  0  0  0  0  0  0
    3.3154    0.1518   -1.7714 H   0  0  0  0  0  0  0  0  0  0  0  0
    3.7744    1.1819    1.0920 H   0  0  0  0  0  0  0  0  0  0  0  0
    4.6277    1.7544   -0.3465 H   0  0  0  0  0  0  0  0  0  0  0  0
    2.8855    2.0392   -0.1747 H   0  0  0  0  0  0  0  0  0  0  0  0
    5.6269   -0.7993   -1.1717 N   0  0  0  0  0  0  0  0  0  0  0  0
    6.8083   -1.6245   -1.0750 C   0  0  0  0  0  0  0  0  0  0  0  0
    5.6255   -0.0524   -1.8601 H   0  0  0  0  0  0  0  0  0  0  0  0
    7.5049   -1.1845   -0.3461 H   0  0  0  0  0  0  0  0  0  0  0  0
    6.5238   -2.6349   -0.7462 H   0  0  0  0  0  0  0  0  0  0  0  0
    7.2962   -1.6829   -2.0591 H   0  0  0  0  0  0  0  0  0  0  0  0
  1  3  1  0  0  0  0
  1  7  1  0  0  0  0
  1  2  2  0  0  0  0
 18 19  1  0  0  0  0
 19 24  1  0  0  0  0
 19 20  2  0  0  0  0
 25 26  1  0  0  0  0
 26 34  1  0  0  0  0
 26 27  2  0  0  0  0
  8  9  1  0  0  0  0
  9 17  1  0  0  0  0
  9 10  2  0  0  0  0
 25 28  1  0  0  0  0
  8 11  1  0  0  0  0
 34 35  1  0  0  0  0
 17 18  1  0  0  0  0
 24 25  1  0  0  0  0
  7  8  1  0  0  0  0
  3  4  1  0  0  0  0
  3  5  1  0  0  0  0
  3  6  1  0  0  0  0
 28 31  1  0  0  0  0
 28 32  1  0  0  0  0
 28 33  1  0  0  0  0
 11 14  1  0  0  0  0
 11 15  1  0  0  0  0
 11 16  1  0  0  0  0
 35 37  1  0  0  0  0
 35 38  1  0  0  0  0
 35 39  1  0  0  0  0
 18 22  1  0  0  0  0
 18 23  1  0  0  0  0
 25 30  1  0  0  0  0
  8 13  1  0  0  0  0
 34 36  1  0  0  0  0
 17 21  1  0  0  0  0
  7 12  1  0  0  0  0
 24 29  1  0  0  0  0
M  END
$$$$

  -OEChem-05262214473D

 39 38  0     1  0  0  0  0  0999 V2000
   -3.5200   -4.0268   -1.6943 C   0  0  0  0  0  0  0  0  0  0  0  0
   -2.8702   -4.8827   -1.1054 O   0  0  0  0  0  0  0  0  0  0  0  0
   -4.9704   -4.2579   -1.9614 C   0  0  0  0  0  0  0  0  0  0  0  0
   -5.1456   -4.7573   -2.9278 H   0  0  0  0  0  0  0  0  0  0  0  0
   -5.4379   -4.9112   -1.2072 H   0  0  0  0  0  0  0  0  0  0  0  0
   -5.5954   -3.3510   -1.9864 H   0  0  0  0  0  0  0  0  0  0  0  0
   -3.0424   -2.8131   -2.1606 N   0  0  0  0  0  0  0  0  0  0  0  0
   -1.6755   -2.3891   -2.0077 C   0  0  2  0  0  0  0  0  0  0  0  0
   -1.5782   -1.5673   -0.7292 C   0  0  0  0  0  0  0  0  0  0  0  0
   -2.5448   -1.0064   -0.2171 O   0  0  0  0  0  0  0  0  0  0  0  0
   -1.2087   -1.5823   -3.2094 C   0  0  0  0  0  0  0  0  0  0  0  0
   -3.6915   -2.1888   -2.6360 H   0  0  0  0  0  0  0  0  0  0  0  0
   -1.0721   -3.2977   -1.9053 H   0  0  0  0  0  0  0  0  0  0  0  0
   -1.8017   -0.6681   -3.3281 H   0  0  0  0  0  0  0  0  0  0  0  0
   -0.1601   -1.2849   -3.1045 H   0  0  0  0  0  0  0  0  0  0  0  0
   -1.3074   -2.1646   -4.1319 H   0  0  0  0  0  0  0  0  0  0  0  0
   -0.2835   -1.5112   -0.2725 N   0  0  0  0  0  0  0  0  0  0  0  0
    0.0769   -0.7658    0.9424 C   0  0  0  0  0  0  0  0  0  0  0  0
    1.3204    0.0469    0.6868 C   0  0  0  0  0  0  0  0  0  0  0  0
    1.6936    0.9596    1.4191 O   0  0  0  0  0  0  0  0  0  0  0  0
    0.4587   -2.0097   -0.7289 H   0  0  0  0  0  0  0  0  0  0  0  0
    0.2595   -1.4722    1.7576 H   0  0  0  0  0  0  0  0  0  0  0  0
   -0.7496   -0.1032    1.2157 H   0  0  0  0  0  0  0  0  0  0  0  0
    1.9736   -0.3665   -0.4694 N   0  0  0  0  0  0  0  0  0  0  0  0
    3.1867    0.2370   -0.9547 C   0  0  2  0  0  0  0  0  0  0  0  0
    4.2477   -0.8514   -1.0507 C   0  0  0  0  0  0  0  0  0  0  0  0
    4.1973   -1.8961   -0.4049 O   0  0  0  0  0  0  0  0  0  0  0  0
    3.6461    1.3652   -0.0444 C   0  0  0  0  0  0  0  0  0  0  0  0
    1.5721   -1.1372   -1.0009 H   0  0  0  0  0  0  0  0  0  0  0  0
    2.9686    0.6245   -1.9559 H   0  0  0  0  0  0  0  0  0  0  0  0
    3.8693    0.9962    0.9633 H   0  0  0  0  0  0  0  0  0  0  0  0
    4.5532    1.8420   -0.4302 H   0  0  0  0  0  0  0  0  0  0  0  0
    2.8700    2.1328    0.0471 H   0  0  0  0  0  0  0  0  0  0  0  0
    5.2796   -0.5000   -1.9097 N   0  0  0  0  0  0  0  0  0  0  0  0
    6.4125   -1.3601   -2.1603 C   0  0  0  0  0  0  0  0  0  0  0  0
    5.2296    0.3780   -2.4180 H   0  0  0  0  0  0  0  0  0  0  0  0
    7.2256   -1.1086   -1.4635 H   0  0  0  0  0  0  0  0  0  0  0  0
    6.1157   -2.4091   -2.0139 H   0  0  0  0  0  0  0  0  0  0  0  0
    6.7589   -1.2179   -3.1945 H   0  0  0  0  0  0  0  0  0  0  0  0
  1  3  1  0  0  0  0
  1  7  1  0  0  0  0
  1  2  2  0  0  0  0
 18 19  1  0  0  0  0
 19 24  1  0  0  0  0
 19 20  2  0  0  0  0
 25 26  1  0  0  0  0
 26 34  1  0  0  0  0
 26 27  2  0  0  0  0
  8  9  1  0  0  0  0
  9 17  1  0  0  0  0
  9 10  2  0  0  0  0
 25 28  1  0  0  0  0
  8 11  1  0  0  0  0
 34 35  1  0  0  0  0
 17 18  1  0  0  0  0
 24 25  1  0  0  0  0
  7  8  1  0  0  0  0
  3  4  1  0  0  0  0
  3  5  1  0  0  0  0
  3  6  1  0  0  0  0
 28 31  1  0  0  0  0
 28 32  1  0  0  0  0
 28 33  1  0  0  0  0
 11 14  1  0  0  0  0
 11 15  1  0  0  0  0
 11 16  1  0  0  0  0
 35 37  1  0  0  0  0
 35 38  1  0  0  0  0
 35 39  1  0  0  0  0
 18 22  1  0  0  0  0
 18 23  1  0  0  0  0
 25 30  1  0  0  0  0
  8 13  1  0  0  0  0
 34 36  1  0  0  0  0
 17 21  1  0  0  0  0
  7 12  1  0  0  0  0
 24 29  1  0  0  0  0
M  END
$$$$

  -OEChem-05262214473D

 39 38  0     1  0  0  0  0  0999 V2000
   -3.5200   -4.0268   -1.6943 C   0  0  0  0  0  0  0  0  0  0  0  0
   -2.8702   -4.8827   -1.1054 O   0  0  0  0  0  0  0  0  0  0  0  0
   -4.9704   -4.2579   -1.9614 C   0  0  0  0  0  0  0  0  0  0  0  0
   -5.1456   -4.7573   -2.9278 H   0  0  0  0  0  0  0  0  0  0  0  0
   -5.4379   -4.9112   -1.2072 H   0  0  0  0  0  0  0  0  0  0  0  0
   -5.5954   -3.3510   -1.9864 H   0  0  0  0  0  0  0  0  0  0  0  0
   -3.0424   -2.8131   -2.1606 N   0  0  0  0  0  0  0  0  0  0  0  0
   -1.6755   -2.3891   -2.0077 C   0  0  2  0  0  0  0  0  0  0  0  0
   -1.5782   -1.5673   -0.7292 C   0  0  0  0  0  0  0  0  0  0  0  0
   -2.5448   -1.0064   -0.2171 O   0  0  0  0  0  0  0  0  0  0  0  0
   -1.2087   -1.5823   -3.2094 C   0  0  0  0  0  0  0  0  0  0  0  0
   -3.6915   -2.1888   -2.6360 H   0  0  0  0  0  0  0  0  0  0  0  0
   -1.0721   -3.2977   -1.9053 H   0  0  0  0  0  0  0  0  0  0  0  0
   -1.8017   -0.6681   -3.3281 H   0  0  0  0  0  0  0  0  0  0  0  0
   -0.1601   -1.2849   -3.1045 H   0  0  0  0  0  0  0  0  0  0  0  0
   -1.3074   -2.1646   -4.1319 H   0  0  0  0  0  0  0  0  0  0  0  0
   -0.2835   -1.5112   -0.2725 N   0  0  0  0  0  0  0  0  0  0  0  0
    0.0769   -0.7658    0.9424 C   0  0  0  0  0  0  0  0  0  0  0  0
    1.3204    0.0469    0.6868 C   0  0  0  0  0  0  0  0  0  0  0  0
    1.8421    0.7682    1.5330 O   0  0  0  0  0  0  0  0  0  0  0  0
    0.4587   -2.0097   -0.7289 H   0  0  0  0  0  0  0  0  0  0  0  0
    0.2595   -1.4722    1.7576 H   0  0  0  0  0  0  0  0  0  0  0  0
   -0.7496   -0.1032    1.2157 H   0  0  0  0  0  0  0  0  0  0  0  0
    1.7862   -0.1248   -0.6124 N   0  0  0  0  0  0  0  0  0  0  0  0
    2.9564    0.5344   -1.1297 C   0  0  2  0  0  0  0  0  0  0  0  0
    3.9286   -0.5373   -1.6046 C   0  0  0  0  0  0  0  0  0  0  0  0
    3.9041   -1.6953   -1.1927 O   0  0  0  0  0  0  0  0  0  0  0  0
    3.6001    1.4250   -0.0784 C   0  0  0  0  0  0  0  0  0  0  0  0
    1.2720   -0.7502   -1.2305 H   0  0  0  0  0  0  0  0  0  0  0  0
    2.6286    1.1357   -1.9847 H   0  0  0  0  0  0  0  0  0  0  0  0
    3.9349    0.8401    0.7861 H   0  0  0  0  0  0  0  0  0  0  0  0
    4.4735    1.9477   -0.4821 H   0  0  0  0  0  0  0  0  0  0  0  0
    2.8901    2.1764    0.2836 H   0  0  0  0  0  0  0  0  0  0  0  0
    4.8543   -0.0380   -2.5101 N   0  0  0  0  0  0  0  0  0  0  0  0
    5.8903   -0.8556   -3.0969 C   0  0  0  0  0  0  0  0  0  0  0  0
    4.7881    0.9303   -2.8096 H   0  0  0  0  0  0  0  0  0  0  0  0
    6.8034   -0.7845   -2.4876 H   0  0  0  0  0  0  0  0  0  0  0  0
    5.5545   -1.9025   -3.1333 H   0  0  0  0  0  0  0  0  0  0  0  0
    6.1020   -0.5028   -4.1170 H   0  0  0  0  0  0  0  0  0  0  0  0
  1  3  1  0  0  0  0
  1  7  1  0  0  0  0
  1  2  2  0  0  0  0
 18 19  1  0  0  0  0
 19 24  1  0  0  0  0
 19 20  2  0  0  0  0
 25 26  1  0  0  0  0
 26 34  1  0  0  0  0
 26 27  2  0  0  0  0
  8  9  1  0  0  0  0
  9 17  1  0  0  0  0
  9 10  2  0  0  0  0
 25 28  1  0  0  0  0
  8 11  1  0  0  0  0
 34 35  1  0  0  0  0
 17 18  1  0  0  0  0
 24 25  1  0  0  0  0
  7  8  1  0  0  0  0
  3  4  1  0  0  0  0
  3  5  1  0  0  0  0
  3  6  1  0  0  0  0
 28 31  1  0  0  0  0
 28 32  1  0  0  0  0
 28 33  1  0  0  0  0
 11 14  1  0  0  0  0
 11 15  1  0  0  0  0
 11 16  1  0  0  0  0
 35 37  1  0  0  0  0
 35 38  1  0  0  0  0
 35 39  1  0  0  0  0
 18 22  1  0  0  0  0
 18 23  1  0  0  0  0
 25 30  1  0  0  0  0
  8 13  1  0  0  0  0
 34 36  1  0  0  0  0
 17 21  1  0  0  0  0
  7 12  1  0  0  0  0
 24 29  1  0  0  0  0
M  END
$$$$

  -OEChem-05262214473D

 39 38  0     1  0  0  0  0  0999 V2000
   -3.5200   -4.0268   -1.6943 C   0  0  0  0  0  0  0  0  0  0  0  0
   -2.8702   -4.8827   -1.1054 O   0  0  0  0  0  0  0  0  0  0  0  0
   -4.9704   -4.2579   -1.9614 C   0  0  0  0  0  0  0  0  0  0  0  0
   -5.1456   -4.7573   -2.9278 H   0  0  0  0  0  0  0  0  0  0  0  0
   -5.4379   -4.9112   -1.2072 H   0  0  0  0  0  0  0  0  0  0  0  0
   -5.5954   -3.3510   -1.9864 H   0  0  0  0  0  0  0  0  0  0  0  0
   -3.0424   -2.8131   -2.1606 N   0  0  0  0  0  0  0  0  0  0  0  0
   -1.6755   -2.3891   -2.0077 C   0  0  2  0  0  0  0  0  0  0  0  0
   -1.5782   -1.5673   -0.7292 C   0  0  0  0  0  0  0  0  0  0  0  0
   -2.5448   -1.0064   -0.2171 O   0  0  0  0  0  0  0  0  0  0  0  0
   -1.2087   -1.5823   -3.2094 C   0  0  0  0  0  0  0  0  0  0  0  0
   -3.6915   -2.1888   -2.6360 H   0  0  0  0  0  0  0  0  0  0  0  0
   -1.0721   -3.2977   -1.9053 H   0  0  0  0  0  0  0  0  0  0  0  0
   -1.8017   -0.6681   -3.3281 H   0  0  0  0  0  0  0  0  0  0  0  0
   -0.1601   -1.2849   -3.1045 H   0  0  0  0  0  0  0  0  0  0  0  0
   -1.3074   -2.1646   -4.1319 H   0  0  0  0  0  0  0  0  0  0  0  0
   -0.2835   -1.5112   -0.2725 N   0  0  0  0  0  0  0  0  0  0  0  0
    0.0769   -0.7658    0.9424 C   0  0  0  0  0  0  0  0  0  0  0  0
    1.3204    0.0469    0.6868 C   0  0  0  0  0  0  0  0  0  0  0  0
    1.9931    0.5525    1.5815 O   0  0  0  0  0  0  0  0  0  0  0  0
    0.4587   -2.0097   -0.7289 H   0  0  0  0  0  0  0  0  0  0  0  0
    0.2595   -1.4722    1.7576 H   0  0  0  0  0  0  0  0  0  0  0  0
   -0.7496   -0.1032    1.2157 H   0  0  0  0  0  0  0  0  0  0  0  0
    1.5959    0.1474   -0.6727 N   0  0  0  0  0  0  0  0  0  0  0  0
    2.7225    0.8692   -1.2031 C   0  0  2  0  0  0  0  0  0  0  0  0
    3.5569   -0.1018   -2.0281 C   0  0  0  0  0  0  0  0  0  0  0  0
    3.5198   -1.3202   -1.8699 O   0  0  0  0  0  0  0  0  0  0  0  0
    3.5535    1.4919   -0.0921 C   0  0  0  0  0  0  0  0  0  0  0  0
    0.9671   -0.3142   -1.3278 H   0  0  0  0  0  0  0  0  0  0  0  0
    2.3186    1.6506   -1.8560 H   0  0  0  0  0  0  0  0  0  0  0  0
    3.9666    0.7243    0.5724 H   0  0  0  0  0  0  0  0  0  0  0  0
    4.3939    2.0644   -0.4984 H   0  0  0  0  0  0  0  0  0  0  0  0
    2.9444    2.1672    0.5185 H   0  0  0  0  0  0  0  0  0  0  0  0
    4.3799    0.5551   -2.9322 N   0  0  0  0  0  0  0  0  0  0  0  0
    5.2773   -0.1454   -3.8210 C   0  0  0  0  0  0  0  0  0  0  0  0
    4.3313    1.5668   -3.0084 H   0  0  0  0  0  0  0  0  0  0  0  0
    6.2668   -0.2342   -3.3486 H   0  0  0  0  0  0  0  0  0  0  0  0
    4.8785   -1.1494   -4.0280 H   0  0  0  0  0  0  0  0  0  0  0  0
    5.3701    0.4138   -4.7637 H   0  0  0  0  0  0  0  0  0  0  0  0
  1  3  1  0  0  0  0
  1  7  1  0  0  0  0
  1  2  2  0  0  0  0
 18 19  1  0  0  0  0
 19 24  1  0  0  0  0
 19 20  2  0  0  0  0
 25 26  1  0  0  0  0
 26 34  1  0  0  0  0
 26 27  2  0  0  0  0
  8  9  1  0  0  0  0
  9 17  1  0  0  0  0
  9 10  2  0  0  0  0
 25 28  1  0  0  0  0
  8 11  1  0  0  0  0
 34 35  1  0  0  0  0
 17 18  1  0  0  0  0
 24 25  1  0  0  0  0
  7  8  1  0  0  0  0
  3  4  1  0  0  0  0
  3  5  1  0  0  0  0
  3  6  1  0  0  0  0
 28 31  1  0  0  0  0
 28 32  1  0  0  0  0
 28 33  1  0  0  0  0
 11 14  1  0  0  0  0
 11 15  1  0  0  0  0
 11 16  1  0  0  0  0
 35 37  1  0  0  0  0
 35 38  1  0  0  0  0
 35 39  1  0  0  0  0
 18 22  1  0  0  0  0
 18 23  1  0  0  0  0
 25 30  1  0  0  0  0
  8 13  1  0  0  0  0
 34 36  1  0  0  0  0
 17 21  1  0  0  0  0
  7 12  1  0  0  0  0
 24 29  1  0  0  0  0
M  END
$$$$

  -OEChem-05262214473D

 39 38  0     1  0  0  0  0  0999 V2000
   -3.5200   -4.0268   -1.6943 C   0  0  0  0  0  0  0  0  0  0  0  0
   -2.8702   -4.8827   -1.1054 O   0  0  0  0  0  0  0  0  0  0  0  0
   -4.9704   -4.2579   -1.9614 C   0  0  0  0  0  0  0  0  0  0  0  0
   -5.1456   -4.7573   -2.9278 H   0  0  0  0  0  0  0  0  0  0  0  0
   -5.4379   -4.9112   -1.2072 H   0  0  0  0  0  0  0  0  0  0  0  0
   -5.5954   -3.3510   -1.9864 H   0  0  0  0  0  0  0  0  0  0  0  0
   -3.0424   -2.8131   -2.1606 N   0  0  0  0  0  0  0  0  0  0  0  0
   -1.6755   -2.3891   -2.0077 C   0  0  2  0  0  0  0  0  0  0  0  0
   -1.5782   -1.5673   -0.7292 C   0  0  0  0  0  0  0  0  0  0  0  0
   -2.5448   -1.0064   -0.2171 O   0  0  0  0  0  0  0  0  0  0  0  0
   -1.2087   -1.5823   -3.2094 C   0  0  0  0  0  0  0  0  0  0  0  0
   -3.6915   -2.1888   -2.6360 H   0  0  0  0  0  0  0  0  0  0  0  0
   -1.0721   -3.2977   -1.9053 H   0  0  0  0  0  0  0  0  0  0  0  0
   -1.8017   -0.6681   -3.3281 H   0  0  0  0  0  0  0  0  0  0  0  0
   -0.1601   -1.2849   -3.1045 H   0  0  0  0  0  0  0  0  0  0  0  0
   -1.3074   -2.1646   -4.1319 H   0  0  0  0  0  0  0  0  0  0  0  0
   -0.2835   -1.5112   -0.2725 N   0  0  0  0  0  0  0  0  0  0  0  0
    0.0769   -0.7658    0.9424 C   0  0  0  0  0  0  0  0  0  0  0  0
    1.3204    0.0469    0.6868 C   0  0  0  0  0  0  0  0  0  0  0  0
    2.1362    0.3271    1.5612 O   0  0  0  0  0  0  0  0  0  0  0  0
    0.4587   -2.0097   -0.7289 H   0  0  0  0  0  0  0  0  0  0  0  0
    0.2595   -1.4722    1.7576 H   0  0  0  0  0  0  0  0  0  0  0  0
   -0.7496   -0.1032    1.2157 H   0  0  0  0  0  0  0  0  0  0  0  0
    1.4157    0.4316   -0.6463 N   0  0  0  0  0  0  0  0  0  0  0  0
    2.5011    1.2184   -1.1699 C   0  0  2  0  0  0  0  0  0  0  0  0
    3.1579    0.4257   -2.2922 C   0  0  0  0  0  0  0  0  0  0  0  0
    3.0706   -0.7965   -2.3903 O   0  0  0  0  0  0  0  0  0  0  0  0
    3.5095    1.5616   -0.0845 C   0  0  0  0  0  0  0  0  0  0  0  0
    0.6781    0.1411   -1.2861 H   0  0  0  0  0  0  0  0  0  0  0  0
    2.0597    2.1340   -1.5785 H   0  0  0  0  0  0  0  0  0  0  0  0
    3.9624    0.6567    0.3369 H   0  0  0  0  0  0  0  0  0  0  0  0
    4.3198    2.1841   -0.4782 H   0  0  0  0  0  0  0  0  0  0  0  0
    3.0292    2.1058    0.7358 H   0  0  0  0  0  0  0  0  0  0  0  0
    3.8889    1.2389   -3.1470 N   0  0  0  0  0  0  0  0  0  0  0  0
    4.6154    0.7221   -4.2832 C   0  0  0  0  0  0  0  0  0  0  0  0
    3.8903    2.2441   -3.0008 H   0  0  0  0  0  0  0  0  0  0  0  0
    5.6525    0.5047   -3.9880 H   0  0  0  0  0  0  0  0  0  0  0  0
    4.1337   -0.2013   -4.6371 H   0  0  0  0  0  0  0  0  0  0  0  0
    4.6131    1.4694   -5.0905 H   0  0  0  0  0  0  0  0  0  0  0  0
  1  3  1  0  0  0  0
  1  7  1  0  0  0  0
  1  2  2  0  0  0  0
 18 19  1  0  0  0  0
 19 24  1  0  0  0  0
 19 20  2  0  0  0  0
 25 26  1  0  0  0  0
 26 34  1  0  0  0  0
 26 27  2  0  0  0  0
  8  9  1  0  0  0  0
  9 17  1  0  0  0  0
  9 10  2  0  0  0  0
 25 28  1  0  0  0  0
  8 11  1  0  0  0  0
 34 35  1  0  0  0  0
 17 18  1  0  0  0  0
 24 25  1  0  0  0  0
  7  8  1  0  0  0  0
  3  4  1  0  0  0  0
  3  5  1  0  0  0  0
  3  6  1  0  0  0  0
 28 31  1  0  0  0  0
 28 32  1  0  0  0  0
 28 33  1  0  0  0  0
 11 14  1  0  0  0  0
 11 15  1  0  0  0  0
 11 16  1  0  0  0  0
 35 37  1  0  0  0  0
 35 38  1  0  0  0  0
 35 39  1  0  0  0  0
 18 22  1  0  0  0  0
 18 23  1  0  0  0  0
 25 30  1  0  0  0  0
  8 13  1  0  0  0  0
 34 36  1  0  0  0  0
 17 21  1  0  0  0  0
  7 12  1  0  0  0  0
 24 29  1  0  0  0  0
M  END
$$$$

  -OEChem-05262214473D

 39 38  0     1  0  0  0  0  0999 V2000
   -3.5200   -4.0268   -1.6943 C   0  0  0  0  0  0  0  0  0  0  0  0
   -2.8702   -4.8827   -1.1054 O   0  0  0  0  0  0  0  0  0  0  0  0
   -4.9704   -4.2579   -1.9614 C   0  0  0  0  0  0  0  0  0  0  0  0
   -5.1456   -4.7573   -2.9278 H   0  0  0  0  0  0  0  0  0  0  0  0
   -5.4379   -4.9112   -1.2072 H   0  0  0  0  0  0  0  0  0  0  0  0
   -5.5954   -3.3510   -1.9864 H   0  0  0  0  0  0  0  0  0  0  0  0
   -3.0424   -2.8131   -2.1606 N   0  0  0  0  0  0  0  0  0  0  0  0
   -1.6755   -2.3891   -2.0077 C   0  0  2  0  0  0  0  0  0  0  0  0
   -1.5782   -1.5673   -0.7292 C   0  0  0  0  0  0  0  0  0  0  0  0
   -2.5448   -1.0064   -0.2171 O   0  0  0  0  0  0  0  0  0  0  0  0
   -1.2087   -1.5823   -3.2094 C   0  0  0  0  0  0  0  0  0  0  0  0
   -3.6915   -2.1888   -2.6360 H   0  0  0  0  0  0  0  0  0  0  0  0
   -1.0721   -3.2977   -1.9053 H   0  0  0  0  0  0  0  0  0  0  0  0
   -1.8017   -0.6681   -3.3281 H   0  0  0  0  0  0  0  0  0  0  0  0
   -0.1601   -1.2849   -3.1045 H   0  0  0  0  0  0  0  0  0  0  0  0
   -1.3074   -2.1646   -4.1319 H   0  0  0  0  0  0  0  0  0  0  0  0
   -0.2835   -1.5112   -0.2725 N   0  0  0  0  0  0  0  0  0  0  0  0
    0.0769   -0.7658    0.9424 C   0  0  0  0  0  0  0  0  0  0  0  0
    1.3204    0.0469    0.6868 C   0  0  0  0  0  0  0  0  0  0  0  0
    2.2617    0.1075    1.4735 O   0  0  0  0  0  0  0  0  0  0  0  0
    0.4587   -2.0097   -0.7289 H   0  0  0  0  0  0  0  0  0  0  0  0
    0.2595   -1.4722    1.7576 H   0  0  0  0  0  0  0  0  0  0  0  0
   -0.7496   -0.1032    1.2157 H   0  0  0  0  0  0  0  0  0  0  0  0
    1.2577    0.7084   -0.5350 N   0  0  0  0  0  0  0  0  0  0  0  0
    2.3072    1.5584   -1.0323 C   0  0  2  0  0  0  0  0  0  0  0  0
    2.7588    1.0092   -2.3791 C   0  0  0  0  0  0  0  0  0  0  0  0
    2.5870   -0.1598   -2.7185 O   0  0  0  0  0  0  0  0  0  0  0  0
    3.4712    1.6292   -0.0562 C   0  0  0  0  0  0  0  0  0  0  0  0
    0.4247    0.5847   -1.1083 H   0  0  0  0  0  0  0  0  0  0  0  0
    1.8696    2.5531   -1.1711 H   0  0  0  0  0  0  0  0  0  0  0  0
    3.9225    0.6419    0.0955 H   0  0  0  0  0  0  0  0  0  0  0  0
    4.2563    2.2987   -0.4228 H   0  0  0  0  0  0  0  0  0  0  0  0
    3.1387    1.9963    0.9208 H   0  0  0  0  0  0  0  0  0  0  0  0
    3.4147    1.9668   -3.1399 N   0  0  0  0  0  0  0  0  0  0  0  0
    3.9496    1.6878   -4.4522 C   0  0  0  0  0  0  0  0  0  0  0  0
    3.4951    2.9160   -2.7873 H   0  0  0  0  0  0  0  0  0  0  0  0
    5.0023    1.3819   -4.3621 H   0  0  0  0  0  0  0  0  0  0  0  0
    3.3709    0.8772   -4.9191 H   0  0  0  0  0  0  0  0  0  0  0  0
    3.8827    2.5920   -5.0751 H   0  0  0  0  0  0  0  0  0  0  0  0
  1  3  1  0  0  0  0
  1  7  1  0  0  0  0
  1  2  2  0  0  0  0
 18 19  1  0  0  0  0
 19 24  1  0  0  0  0
 19 20  2  0  0  0  0
 25 26  1  0  0  0  0
 26 34  1  0  0  0  0
 26 27  2  0  0  0  0
  8  9  1  0  0  0  0
  9 17  1  0  0  0  0
  9 10  2  0  0  0  0
 25 28  1  0  0  0  0
  8 11  1  0  0  0  0
 34 35  1  0  0  0  0
 17 18  1  0  0  0  0
 24 25  1  0  0  0  0
  7  8  1  0  0  0  0
  3  4  1  0  0  0  0
  3  5  1  0  0  0  0
  3  6  1  0  0  0  0
 28 31  1  0  0  0  0
 28 32  1  0  0  0  0
 28 33  1  0  0  0  0
 11 14  1  0  0  0  0
 11 15  1  0  0  0  0
 11 16  1  0  0  0  0
 35 37  1  0  0  0  0
 35 38  1  0  0  0  0
 35 39  1  0  0  0  0
 18 22  1  0  0  0  0
 18 23  1  0  0  0  0
 25 30  1  0  0  0  0
  8 13  1  0  0  0  0
 34 36  1  0  0  0  0
 17 21  1  0  0  0  0
  7 12  1  0  0  0  0
 24 29  1  0  0  0  0
M  END
$$$$

  -OEChem-05262214473D

 39 38  0     1  0  0  0  0  0999 V2000
   -3.5200   -4.0268   -1.6943 C   0  0  0  0  0  0  0  0  0  0  0  0
   -2.8702   -4.8827   -1.1054 O   0  0  0  0  0  0  0  0  0  0  0  0
   -4.9704   -4.2579   -1.9614 C   0  0  0  0  0  0  0  0  0  0  0  0
   -5.1456   -4.7573   -2.9278 H   0  0  0  0  0  0  0  0  0  0  0  0
   -5.4379   -4.9112   -1.2072 H   0  0  0  0  0  0  0  0  0  0  0  0
   -5.5954   -3.3510   -1.9864 H   0  0  0  0  0  0  0  0  0  0  0  0
   -3.0424   -2.8131   -2.1606 N   0  0  0  0  0  0  0  0  0  0  0  0
   -1.6755   -2.3891   -2.0077 C   0  0  2  0  0  0  0  0  0  0  0  0
   -1.5782   -1.5673   -0.7292 C   0  0  0  0  0  0  0  0  0  0  0  0
   -2.5448   -1.0064   -0.2171 O   0  0  0  0  0  0  0  0  0  0  0  0
   -1.2087   -1.5823   -3.2094 C   0  0  0  0  0  0  0  0  0  0  0  0
   -3.6915   -2.1888   -2.6360 H   0  0  0  0  0  0  0  0  0  0  0  0
   -1.0721   -3.2977   -1.9053 H   0  0  0  0  0  0  0  0  0  0  0  0
   -1.8017   -0.6681   -3.3281 H   0  0  0  0  0  0  0  0  0  0  0  0
   -0.1601   -1.2849   -3.1045 H   0  0  0  0  0  0  0  0  0  0  0  0
   -1.3074   -2.1646   -4.1319 H   0  0  0  0  0  0  0  0  0  0  0  0
   -0.2835   -1.5112   -0.2725 N   0  0  0  0  0  0  0  0  0  0  0  0
    0.0769   -0.7658    0.9424 C   0  0  0  0  0  0  0  0  0  0  0  0
    1.3204    0.0469    0.6868 C   0  0  0  0  0  0  0  0  0  0  0  0
    2.3610   -0.0914    1.3244 O   0  0  0  0  0  0  0  0  0  0  0  0
    0.4587   -2.0097   -0.7289 H   0  0  0  0  0  0  0  0  0  0  0  0
    0.2595   -1.4722    1.7576 H   0  0  0  0  0  0  0  0  0  0  0  0
   -0.7496   -0.1032    1.2157 H   0  0  0  0  0  0  0  0  0  0  0  0
    1.1327    0.9589   -0.3463 N   0  0  0  0  0  0  0  0  0  0  0  0
    2.1540    1.8660   -0.7998 C   0  0  2  0  0  0  0  0  0  0  0  0
    2.3868    1.6088   -2.2827 C   0  0  0  0  0  0  0  0  0  0  0  0
    2.1021    0.5466   -2.8321 O   0  0  0  0  0  0  0  0  0  0  0  0
    3.4411    1.6901   -0.0090 C   0  0  0  0  0  0  0  0  0  0  0  0
    0.2243    0.9863   -0.8064 H   0  0  0  0  0  0  0  0  0  0  0  0
    1.7612    2.8792   -0.6615 H   0  0  0  0  0  0  0  0  0  0  0  0
    3.8496    0.6809   -0.1352 H   0  0  0  0  0  0  0  0  0  0  0  0
    4.2078    2.4003   -0.3360 H   0  0  0  0  0  0  0  0  0  0  0  0
    3.2656    1.8463    1.0608 H   0  0  0  0  0  0  0  0  0  0  0  0
    2.9895    2.6893   -2.9115 N   0  0  0  0  0  0  0  0  0  0  0  0
    3.3253    2.6859   -4.3162 C   0  0  0  0  0  0  0  0  0  0  0  0
    3.1726    3.5368   -2.3825 H   0  0  0  0  0  0  0  0  0  0  0  0
    4.3606    2.3376   -4.4454 H   0  0  0  0  0  0  0  0  0  0  0  0
    2.6421    2.0127   -4.8548 H   0  0  0  0  0  0  0  0  0  0  0  0
    3.2285    3.7051   -4.7187 H   0  0  0  0  0  0  0  0  0  0  0  0
  1  3  1  0  0  0  0
  1  7  1  0  0  0  0
  1  2  2  0  0  0  0
 18 19  1  0  0  0  0
 19 24  1  0  0  0  0
 19 20  2  0  0  0  0
 25 26  1  0  0  0  0
 26 34  1  0  0  0  0
 26 27  2  0  0  0  0
  8  9  1  0  0  0  0
  9 17  1  0  0  0  0
  9 10  2  0  0  0  0
 25 28  1  0  0  0  0
  8 11  1  0  0  0  0
 34 35  1  0  0  0  0
 17 18  1  0  0  0  0
 24 25  1  0  0  0  0
  7  8  1  0  0  0  0
  3  4  1  0  0  0  0
  3  5  1  0  0  0  0
  3  6  1  0  0  0  0
 28 31  1  0  0  0  0
 28 32  1  0  0  0  0
 28 33  1  0  0  0  0
 11 14  1  0  0  0  0
 11 15  1  0  0  0  0
 11 16  1  0  0  0  0
 35 37  1  0  0  0  0
 35 38  1  0  0  0  0
 35 39  1  0  0  0  0
 18 22  1  0  0  0  0
 18 23  1  0  0  0  0
 25 30  1  0  0  0  0
  8 13  1  0  0  0  0
 34 36  1  0  0  0  0
 17 21  1  0  0  0  0
  7 12  1  0  0  0  0
 24 29  1  0  0  0  0
M  END
$$$$

  -OEChem-05262214473D

 39 38  0     1  0  0  0  0  0999 V2000
   -3.5200   -4.0268   -1.6943 C   0  0  0  0  0  0  0  0  0  0  0  0
   -2.8702   -4.8827   -1.1054 O   0  0  0  0  0  0  0  0  0  0  0  0
   -4.9704   -4.2579   -1.9614 C   0  0  0  0  0  0  0  0  0  0  0  0
   -5.1456   -4.7573   -2.9278 H   0  0  0  0  0  0  0  0  0  0  0  0
   -5.4379   -4.9112   -1.2072 H   0  0  0  0  0  0  0  0  0  0  0  0
   -5.5954   -3.3510   -1.9864 H   0  0  0  0  0  0  0  0  0  0  0  0
   -3.0424   -2.8131   -2.1606 N   0  0  0  0  0  0  0  0  0  0  0  0
   -1.6755   -2.3891   -2.0077 C   0  0  2  0  0  0  0  0  0  0  0  0
   -1.5782   -1.5673   -0.7292 C   0  0  0  0  0  0  0  0  0  0  0  0
   -2.5448   -1.0064   -0.2171 O   0  0  0  0  0  0  0  0  0  0  0  0
   -1.2087   -1.5823   -3.2094 C   0  0  0  0  0  0  0  0  0  0  0  0
   -3.6915   -2.1888   -2.6360 H   0  0  0  0  0  0  0  0  0  0  0  0
   -1.0721   -3.2977   -1.9053 H   0  0  0  0  0  0  0  0  0  0  0  0
   -1.8017   -0.6681   -3.3281 H   0  0  0  0  0  0  0  0  0  0  0  0
   -0.1601   -1.2849   -3.1045 H   0  0  0  0  0  0  0  0  0  0  0  0
   -1.3074   -2.1646   -4.1319 H   0  0  0  0  0  0  0  0  0  0  0  0
   -0.2835   -1.5112   -0.2725 N   0  0  0  0  0  0  0  0  0  0  0  0
    0.0769   -0.7658    0.9424 C   0  0  0  0  0  0  0  0  0  0  0  0
    1.3204    0.0469    0.6868 C   0  0  0  0  0  0  0  0  0  0  0  0
    2.4274   -0.2561    1.1240 O   0  0  0  0  0  0  0  0  0  0  0  0
    0.4587   -2.0097   -0.7289 H   0  0  0  0  0  0  0  0  0  0  0  0
    0.2595   -1.4722    1.7576 H   0  0  0  0  0  0  0  0  0  0  0  0
   -0.7496   -0.1032    1.2157 H   0  0  0  0  0  0  0  0  0  0  0  0
    1.0494    1.1661   -0.0932 N   0  0  0  0  0  0  0  0  0  0  0  0
    2.0520    2.1201   -0.4881 C   0  0  2  0  0  0  0  0  0  0  0  0
    2.0672    2.1837   -2.0097 C   0  0  0  0  0  0  0  0  0  0  0  0
    1.6488    1.2744   -2.7233 O   0  0  0  0  0  0  0  0  0  0  0  0
    3.4212    1.7402    0.0537 C   0  0  0  0  0  0  0  0  0  0  0  0
    0.0905    1.3186   -0.4012 H   0  0  0  0  0  0  0  0  0  0  0  0
    1.7419    3.0902   -0.0846 H   0  0  0  0  0  0  0  0  0  0  0  0
    3.7487    0.7710   -0.3396 H   0  0  0  0  0  0  0  0  0  0  0  0
    4.1774    2.4820   -0.2236 H   0  0  0  0  0  0  0  0  0  0  0  0
    3.4010    1.6659    1.1464 H   0  0  0  0  0  0  0  0  0  0  0  0
    2.6424    3.3570   -2.4773 N   0  0  0  0  0  0  0  0  0  0  0  0
    2.7850    3.6484   -3.8847 C   0  0  0  0  0  0  0  0  0  0  0  0
    2.9448    4.0642   -1.8139 H   0  0  0  0  0  0  0  0  0  0  0  0
    3.7711    3.3067   -4.2323 H   0  0  0  0  0  0  0  0  0  0  0  0
    1.9970    3.1277   -4.4485 H   0  0  0  0  0  0  0  0  0  0  0  0
    2.6952    4.7329   -4.0454 H   0  0  0  0  0  0  0  0  0  0  0  0
  1  3  1  0  0  0  0
  1  7  1  0  0  0  0
  1  2  2  0  0  0  0
 18 19  1  0  0  0  0
 19 24  1  0  0  0  0
 19 20  2  0  0  0  0
 25 26  1  0  0  0  0
 26 34  1  0  0  0  0
 26 27  2  0  0  0  0
  8  9  1  0  0  0  0
  9 17  1  0  0  0  0
  9 10  2  0  0  0  0
 25 28  1  0  0  0  0
  8 11  1  0  0  0  0
 34 35  1  0  0  0  0
 17 18  1  0  0  0  0
 24 25  1  0  0  0  0
  7  8  1  0  0  0  0
  3  4  1  0  0  0  0
  3  5  1  0  0  0  0
  3  6  1  0  0  0  0
 28 31  1  0  0  0  0
 28 32  1  0  0  0  0
 28 33  1  0  0  0  0
 11 14  1  0  0  0  0
 11 15  1  0  0  0  0
 11 16  1  0  0  0  0
 35 37  1  0  0  0  0
 35 38  1  0  0  0  0
 35 39  1  0  0  0  0
 18 22  1  0  0  0  0
 18 23  1  0  0  0  0
 25 30  1  0  0  0  0
  8 13  1  0  0  0  0
 34 36  1  0  0  0  0
 17 21  1  0  0  0  0
  7 12  1  0  0  0  0
 24 29  1  0  0  0  0
M  END
$$$$

  -OEChem-05262214473D

 39 38  0     1  0  0  0  0  0999 V2000
   -3.5200   -4.0268   -1.6943 C   0  0  0  0  0  0  0  0  0  0  0  0
   -2.8702   -4.8827   -1.1054 O   0  0  0  0  0  0  0  0  0  0  0  0
   -4.9704   -4.2579   -1.9614 C   0  0  0  0  0  0  0  0  0  0  0  0
   -5.1456   -4.7573   -2.9278 H   0  0  0  0  0  0  0  0  0  0  0  0
   -5.4379   -4.9112   -1.2072 H   0  0  0  0  0  0  0  0  0  0  0  0
   -5.5954   -3.3510   -1.9864 H   0  0  0  0  0  0  0  0  0  0  0  0
   -3.0424   -2.8131   -2.1606 N   0  0  0  0  0  0  0  0  0  0  0  0
   -1.6755   -2.3891   -2.0077 C   0  0  2  0  0  0  0  0  0  0  0  0
   -1.5782   -1.5673   -0.7292 C   0  0  0  0  0  0  0  0  0  0  0  0
   -2.5448   -1.0064   -0.2171 O   0  0  0  0  0  0  0  0  0  0  0  0
   -1.2087   -1.5823   -3.2094 C   0  0  0  0  0  0  0  0  0  0  0  0
   -3.6915   -2.1888   -2.6360 H   0  0  0  0  0  0  0  0  0  0  0  0
   -1.0721   -3.2977   -1.9053 H   0  0  0  0  0  0  0  0  0  0  0  0
   -1.8017   -0.6681   -3.3281 H   0  0  0  0  0  0  0  0  0  0  0  0
   -0.1601   -1.2849   -3.1045 H   0  0  0  0  0  0  0  0  0  0  0  0
   -1.3074   -2.1646   -4.1319 H   0  0  0  0  0  0  0  0  0  0  0  0
   -0.2835   -1.5112   -0.2725 N   0  0  0  0  0  0  0  0  0  0  0  0
    0.0769   -0.7658    0.9424 C   0  0  0  0  0  0  0  0  0  0  0  0
    1.3204    0.0469    0.6868 C   0  0  0  0  0  0  0  0  0  0  0  0
    2.4564   -0.3753    0.8860 O   0  0  0  0  0  0  0  0  0  0  0  0
    0.4587   -2.0097   -0.7289 H   0  0  0  0  0  0  0  0  0  0  0  0
    0.2595   -1.4722    1.7576 H   0  0  0  0  0  0  0  0  0  0  0  0
   -0.7496   -0.1032    1.2157 H   0  0  0  0  0  0  0  0  0  0  0  0
    1.0133    1.3158    0.2073 N   0  0  0  0  0  0  0  0  0  0  0  0
    2.0081    2.3035   -0.1186 C   0  0  2  0  0  0  0  0  0  0  0  0
    1.8218    2.6948   -1.5786 C   0  0  0  0  0  0  0  0  0  0  0  0
    1.2582    1.9740   -2.3996 O   0  0  0  0  0  0  0  0  0  0  0  0
    3.4130    1.7761    0.1278 C   0  0  0  0  0  0  0  0  0  0  0  0
    0.0323    1.5589    0.0799 H   0  0  0  0  0  0  0  0  0  0  0  0
    1.8130    3.1716    0.5205 H   0  0  0  0  0  0  0  0  0  0  0  0
    3.6267    0.9061   -0.5037 H   0  0  0  0  0  0  0  0  0  0  0  0
    4.1674    2.5383   -0.0934 H   0  0  0  0  0  0  0  0  0  0  0  0
    3.5359    1.4674    1.1716 H   0  0  0  0  0  0  0  0  0  0  0  0
    2.3970    3.9245   -1.8669 N   0  0  0  0  0  0  0  0  0  0  0  0
    2.3656    4.5096   -3.1870 C   0  0  0  0  0  0  0  0  0  0  0  0
    2.8273    4.4622   -1.1202 H   0  0  0  0  0  0  0  0  0  0  0  0
    3.2740    4.2232   -3.7373 H   0  0  0  0  0  0  0  0  0  0  0  0
    1.4794    4.1463   -3.7280 H   0  0  0  0  0  0  0  0  0  0  0  0
    2.3192    5.6053   -3.1012 H   0  0  0  0  0  0  0  0  0  0  0  0
  1  3  1  0  0  0  0
  1  7  1  0  0  0  0
  1  2  2  0  0  0  0
 18 19  1  0  0  0  0
 19 24  1  0  0  0  0
 19 20  2  0  0  0  0
 25 26  1  0  0  0  0
 26 34  1  0  0  0  0
 26 27  2  0  0  0  0
  8  9  1  0  0  0  0
  9 17  1  0  0  0  0
  9 10  2  0  0  0  0
 25 28  1  0  0  0  0
  8 11  1  0  0  0  0
 34 35  1  0  0  0  0
 17 18  1  0  0  0  0
 24 25  1  0  0  0  0
  7  8  1  0  0  0  0
  3  4  1  0  0  0  0
  3  5  1  0  0  0  0
  3  6  1  0  0  0  0
 28 31  1  0  0  0  0
 28 32  1  0  0  0  0
 28 33  1  0  0  0  0
 11 14  1  0  0  0  0
 11 15  1  0  0  0  0
 11 16  1  0  0  0  0
 35 37  1  0  0  0  0
 35 38  1  0  0  0  0
 35 39  1  0  0  0  0
 18 22  1  0  0  0  0
 18 23  1  0  0  0  0
 25 30  1  0  0  0  0
  8 13  1  0  0  0  0
 34 36  1  0  0  0  0
 17 21  1  0  0  0  0
  7 12  1  0  0  0  0
 24 29  1  0  0  0  0
M  END
$$$$

  -OEChem-05262214473D

 39 38  0     1  0  0  0  0  0999 V2000
   -3.5200   -4.0268   -1.6943 C   0  0  0  0  0  0  0  0  0  0  0  0
   -2.8702   -4.8827   -1.1054 O   0  0  0  0  0  0  0  0  0  0  0  0
   -4.9704   -4.2579   -1.9614 C   0  0  0  0  0  0  0  0  0  0  0  0
   -5.1456   -4.7573   -2.9278 H   0  0  0  0  0  0  0  0  0  0  0  0
   -5.4379   -4.9112   -1.2072 H   0  0  0  0  0  0  0  0  0  0  0  0
   -5.5954   -3.3510   -1.9864 H   0  0  0  0  0  0  0  0  0  0  0  0
   -3.0424   -2.8131   -2.1606 N   0  0  0  0  0  0  0  0  0  0  0  0
   -1.6755   -2.3891   -2.0077 C   0  0  2  0  0  0  0  0  0  0  0  0
   -1.5782   -1.5673   -0.7292 C   0  0  0  0  0  0  0  0  0  0  0  0
   -2.5448   -1.0064   -0.2171 O   0  0  0  0  0  0  0  0  0  0  0  0
   -1.2087   -1.5823   -3.2094 C   0  0  0  0  0  0  0  0  0  0  0  0
   -3.6915   -2.1888   -2.6360 H   0  0  0  0  0  0  0  0  0  0  0  0
   -1.0721   -3.2977   -1.9053 H   0  0  0  0  0  0  0  0  0  0  0  0
   -1.8017   -0.6681   -3.3281 H   0  0  0  0  0  0  0  0  0  0  0  0
   -0.1601   -1.2849   -3.1045 H   0  0  0  0  0  0  0  0  0  0  0  0
   -1.3074   -2.1646   -4.1319 H   0  0  0  0  0  0  0  0  0  0  0  0
   -0.2835   -1.5112   -0.2725 N   0  0  0  0  0  0  0  0  0  0  0  0
    0.0769   -0.7658    0.9424 C   0  0  0  0  0  0  0  0  0  0  0  0
    1.3204    0.0469    0.6868 C   0  0  0  0  0  0  0  0  0  0  0  0
    2.4460   -0.4409    0.6267 O   0  0  0  0  0  0  0  0  0  0  0  0
    0.4587   -2.0097   -0.7289 H   0  0  0  0  0  0  0  0  0  0  0  0
    0.2595   -1.4722    1.7576 H   0  0  0  0  0  0  0  0  0  0  0  0
   -0.7496   -0.1032    1.2157 H   0  0  0  0  0  0  0  0  0  0  0  0
    1.0269    1.3978    0.5344 N   0  0  0  0  0  0  0  0  0  0  0  0
    2.0253    2.4037    0.2836 C   0  0  2  0  0  0  0  0  0  0  0  0
    1.6674    3.1071   -1.0189 C   0  0  0  0  0  0  0  0  0  0  0  0
    0.9567    2.5978   -1.8830 O   0  0  0  0  0  0  0  0  0  0  0  0
    3.4170    1.7953    0.2082 C   0  0  0  0  0  0  0  0  0  0  0  0
    0.0538    1.6909    0.6040 H   0  0  0  0  0  0  0  0  0  0  0  0
    1.9697    3.1180    1.1123 H   0  0  0  0  0  0  0  0  0  0  0  0
    3.4919    1.0769   -0.6163 H   0  0  0  0  0  0  0  0  0  0  0  0
    4.1784    2.5653    0.0458 H   0  0  0  0  0  0  0  0  0  0  0  0
    3.6610    1.2644    1.1347 H   0  0  0  0  0  0  0  0  0  0  0  0
    2.2701    4.3530   -1.1219 N   0  0  0  0  0  0  0  0  0  0  0  0
    2.0956    5.2109   -2.2706 C   0  0  0  0  0  0  0  0  0  0  0  0
    2.8280    4.7036   -0.3489 H   0  0  0  0  0  0  0  0  0  0  0  0
    2.9030    5.0246   -2.9941 H   0  0  0  0  0  0  0  0  0  0  0  0
    1.1247    4.9990   -2.7423 H   0  0  0  0  0  0  0  0  0  0  0  0
    2.1259    6.2629   -1.9505 H   0  0  0  0  0  0  0  0  0  0  0  0
  1  3  1  0  0  0  0
  1  7  1  0  0  0  0
  1  2  2  0  0  0  0
 18 19  1  0  0  0  0
 19 24  1  0  0  0  0
 19 20  2  0  0  0  0
 25 26  1  0  0  0  0
 26 34  1  0  0  0  0
 26 27  2  0  0  0  0
  8  9  1  0  0  0  0
  9 17  1  0  0  0  0
  9 10  2  0  0  0  0
 25 28  1  0  0  0  0
  8 11  1  0  0  0  0
 34 35  1  0  0  0  0
 17 18  1  0  0  0  0
 24 25  1  0  0  0  0
  7  8  1  0  0  0  0
  3  4  1  0  0  0  0
  3  5  1  0  0  0  0
  3  6  1  0  0  0  0
 28 31  1  0  0  0  0
 28 32  1  0  0  0  0
 28 33  1  0  0  0  0
 11 14  1  0  0  0  0
 11 15  1  0  0  0  0
 11 16  1  0  0  0  0
 35 37  1  0  0  0  0
 35 38  1  0  0  0  0
 35 39  1  0  0  0  0
 18 22  1  0  0  0  0
 18 23  1  0  0  0  0
 25 30  1  0  0  0  0
  8 13  1  0  0  0  0
 34 36  1  0  0  0  0
 17 21  1  0  0  0  0
  7 12  1  0  0  0  0
 24 29  1  0  0  0  0
M  END
$$$$

  -OEChem-05262214473D

 39 38  0     1  0  0  0  0  0999 V2000
   -3.5200   -4.0268   -1.6943 C   0  0  0  0  0  0  0  0  0  0  0  0
   -2.8702   -4.8827   -1.1054 O   0  0  0  0  0  0  0  0  0  0  0  0
   -4.9704   -4.2579   -1.9614 C   0  0  0  0  0  0  0  0  0  0  0  0
   -5.1456   -4.7573   -2.9278 H   0  0  0  0  0  0  0  0  0  0  0  0
   -5.4379   -4.9112   -1.2072 H   0  0  0  0  0  0  0  0  0  0  0  0
   -5.5954   -3.3510   -1.9864 H   0  0  0  0  0  0  0  0  0  0  0  0
   -3.0424   -2.8131   -2.1606 N   0  0  0  0  0  0  0  0  0  0  0  0
   -1.6755   -2.3891   -2.0077 C   0  0  2  0  0  0  0  0  0  0  0  0
   -1.5782   -1.5673   -0.7292 C   0  0  0  0  0  0  0  0  0  0  0  0
   -2.5448   -1.0064   -0.2171 O   0  0  0  0  0  0  0  0  0  0  0  0
   -1.2087   -1.5823   -3.2094 C   0  0  0  0  0  0  0  0  0  0  0  0
   -3.6915   -2.1888   -2.6360 H   0  0  0  0  0  0  0  0  0  0  0  0
   -1.0721   -3.2977   -1.9053 H   0  0  0  0  0  0  0  0  0  0  0  0
   -1.8017   -0.6681   -3.3281 H   0  0  0  0  0  0  0  0  0  0  0  0
   -0.1601   -1.2849   -3.1045 H   0  0  0  0  0  0  0  0  0  0  0  0
   -1.3074   -2.1646   -4.1319 H   0  0  0  0  0  0  0  0  0  0  0  0
   -0.2835   -1.5112   -0.2725 N   0  0  0  0  0  0  0  0  0  0  0  0
    0.0769   -0.7658    0.9424 C   0  0  0  0  0  0  0  0  0  0  0  0
    1.3204    0.0469    0.6868 C   0  0  0  0  0  0  0  0  0  0  0  0
    2.3968   -0.4484    0.3636 O   0  0  0  0  0  0  0  0  0  0  0  0
    0.4587   -2.0097   -0.7289 H   0  0  0  0  0  0  0  0  0  0  0  0
    0.2595   -1.4722    1.7576 H   0  0  0  0  0  0  0  0  0  0  0  0
   -0.7496   -0.1032    1.2157 H   0  0  0  0  0  0  0  0  0  0  0  0
    1.0893    1.4066    0.8661 N   0  0  0  0  0  0  0  0  0  0  0  0
    2.1024    2.4138    0.6912 C   0  0  2  0  0  0  0  0  0  0  0  0
    1.6144    3.3927   -0.3686 C   0  0  0  0  0  0  0  0  0  0  0  0
    0.7649    3.1033   -1.2087 O   0  0  0  0  0  0  0  0  0  0  0  0
    3.4329    1.7965    0.2894 C   0  0  0  0  0  0  0  0  0  0  0  0
    0.1535    1.7055    1.1354 H   0  0  0  0  0  0  0  0  0  0  0  0
    2.2013    2.9329    1.6507 H   0  0  0  0  0  0  0  0  0  0  0  0
    3.3534    1.2720   -0.6698 H   0  0  0  0  0  0  0  0  0  0  0  0
    4.2096    2.5612    0.1845 H   0  0  0  0  0  0  0  0  0  0  0  0
    3.7678    1.0707    1.0383 H   0  0  0  0  0  0  0  0  0  0  0  0
    2.2702    4.6135   -0.2930 N   0  0  0  0  0  0  0  0  0  0  0  0
    1.9935    5.7045   -1.1981 C   0  0  0  0  0  0  0  0  0  0  0  0
    2.9470    4.7721    0.4476 H   0  0  0  0  0  0  0  0  0  0  0  0
    2.6836    5.6562   -2.0533 H   0  0  0  0  0  0  0  0  0  0  0  0
    0.9571    5.6278   -1.5586 H   0  0  0  0  0  0  0  0  0  0  0  0
    2.1287    6.6608   -0.6715 H   0  0  0  0  0  0  0  0  0  0  0  0
  1  3  1  0  0  0  0
  1  7  1  0  0  0  0
  1  2  2  0  0  0  0
 18 19  1  0  0  0  0
 19 24  1  0  0  0  0
 19 20  2  0  0  0  0
 25 26  1  0  0  0  0
 26 34  1  0  0  0  0
 26 27  2  0  0  0  0
  8  9  1  0  0  0  0
  9 17  1  0  0  0  0
  9 10  2  0  0  0  0
 25 28  1  0  0  0  0
  8 11  1  0  0  0  0
 34 35  1  0  0  0  0
 17 18  1  0  0  0  0
 24 25  1  0  0  0  0
  7  8  1  0  0  0  0
  3  4  1  0  0  0  0
  3  5  1  0  0  0  0
  3  6  1  0  0  0  0
 28 31  1  0  0  0  0
 28 32  1  0  0  0  0
 28 33  1  0  0  0  0
 11 14  1  0  0  0  0
 11 15  1  0  0  0  0
 11 16  1  0  0  0  0
 35 37  1  0  0  0  0
 35 38  1  0  0  0  0
 35 39  1  0  0  0  0
 18 22  1  0  0  0  0
 18 23  1  0  0  0  0
 25 30  1  0  0  0  0
  8 13  1  0  0  0  0
 34 36  1  0  0  0  0
 17 21  1  0  0  0  0
  7 12  1  0  0  0  0
 24 29  1  0  0  0  0
M  END
$$$$

  -OEChem-05262214473D

 39 38  0     1  0  0  0  0  0999 V2000
   -3.5200   -4.0268   -1.6943 C   0  0  0  0  0  0  0  0  0  0  0  0
   -2.8702   -4.8827   -1.1054 O   0  0  0  0  0  0  0  0  0  0  0  0
   -4.9704   -4.2579   -1.9614 C   0  0  0  0  0  0  0  0  0  0  0  0
   -5.1456   -4.7573   -2.9278 H   0  0  0  0  0  0  0  0  0  0  0  0
   -5.4379   -4.9112   -1.2072 H   0  0  0  0  0  0  0  0  0  0  0  0
   -5.5954   -3.3510   -1.9864 H   0  0  0  0  0  0  0  0  0  0  0  0
   -3.0424   -2.8131   -2.1606 N   0  0  0  0  0  0  0  0  0  0  0  0
   -1.6755   -2.3891   -2.0077 C   0  0  2  0  0  0  0  0  0  0  0  0
   -1.5782   -1.5673   -0.7292 C   0  0  0  0  0  0  0  0  0  0  0  0
   -2.5448   -1.0064   -0.2171 O   0  0  0  0  0  0  0  0  0  0  0  0
   -1.2087   -1.5823   -3.2094 C   0  0  0  0  0  0  0  0  0  0  0  0
   -3.6915   -2.1888   -2.6360 H   0  0  0  0  0  0  0  0  0  0  0  0
   -1.0721   -3.2977   -1.9053 H   0  0  0  0  0  0  0  0  0  0  0  0
   -1.8017   -0.6681   -3.3281 H   0  0  0  0  0  0  0  0  0  0  0  0
   -0.1601   -1.2849   -3.1045 H   0  0  0  0  0  0  0  0  0  0  0  0
   -1.3074   -2.1646   -4.1319 H   0  0  0  0  0  0  0  0  0  0  0  0
   -0.2835   -1.5112   -0.2725 N   0  0  0  0  0  0  0  0  0  0  0  0
    0.0769   -0.7658    0.9424 C   0  0  0  0  0  0  0  0  0  0  0  0
    1.3204    0.0469    0.6868 C   0  0  0  0  0  0  0  0  0  0  0  0
    2.3123   -0.3973    0.1148 O   0  0  0  0  0  0  0  0  0  0  0  0
    0.4587   -2.0097   -0.7289 H   0  0  0  0  0  0  0  0  0  0  0  0
    0.2595   -1.4722    1.7576 H   0  0  0  0  0  0  0  0  0  0  0  0
   -0.7496   -0.1032    1.2157 H   0  0  0  0  0  0  0  0  0  0  0  0
    1.1963    1.3416    1.1796 N   0  0  0  0  0  0  0  0  0  0  0  0
    2.2342    2.3332    1.0762 C   0  0  2  0  0  0  0  0  0  0  0  0
    1.6665    3.5321    0.3279 C   0  0  0  0  0  0  0  0  0  0  0  0
    0.6959    3.4561   -0.4227 O   0  0  0  0  0  0  0  0  0  0  0  0
    3.4596    1.7796    0.3658 C   0  0  0  0  0  0  0  0  0  0  0  0
    0.3245    1.6017    1.6379 H   0  0  0  0  0  0  0  0  0  0  0  0
    2.4920    2.6290    2.0990 H   0  0  0  0  0  0  0  0  0  0  0  0
    3.2208    1.4778   -0.6605 H   0  0  0  0  0  0  0  0  0  0  0  0
    4.2589    2.5262    0.3133 H   0  0  0  0  0  0  0  0  0  0  0  0
    3.8489    0.8995    0.8889 H   0  0  0  0  0  0  0  0  0  0  0  0
    2.3974    4.6881    0.5632 N   0  0  0  0  0  0  0  0  0  0  0  0
    2.0662    5.9568   -0.0424 C   0  0  0  0  0  0  0  0  0  0  0  0
    3.1760    4.6630    1.2150 H   0  0  0  0  0  0  0  0  0  0  0  0
    2.6307    6.0750   -0.9791 H   0  0  0  0  0  0  0  0  0  0  0  0
    0.9879    5.9898   -0.2576 H   0  0  0  0  0  0  0  0  0  0  0  0
    2.3274    6.7720    0.6484 H   0  0  0  0  0  0  0  0  0  0  0  0
  1  3  1  0  0  0  0
  1  7  1  0  0  0  0
  1  2  2  0  0  0  0
 18 19  1  0  0  0  0
 19 24  1  0  0  0  0
 19 20  2  0  0  0  0
 25 26  1  0  0  0  0
 26 34  1  0  0  0  0
 26 27  2  0  0  0  0
  8  9  1  0  0  0  0
  9 17  1  0  0  0  0
  9 10  2  0  0  0  0
 25 28  1  0  0  0  0
  8 11  1  0  0  0  0
 34 35  1  0  0  0  0
 17 18  1  0  0  0  0
 24 25  1  0  0  0  0
  7  8  1  0  0  0  0
  3  4  1  0  0  0  0
  3  5  1  0  0  0  0
  3  6  1  0  0  0  0
 28 31  1  0  0  0  0
 28 32  1  0  0  0  0
 28 33  1  0  0  0  0
 11 14  1  0  0  0  0
 11 15  1  0  0  0  0
 11 16  1  0  0  0  0
 35 37  1  0  0  0  0
 35 38  1  0  0  0  0
 35 39  1  0  0  0  0
 18 22  1  0  0  0  0
 18 23  1  0  0  0  0
 25 30  1  0  0  0  0
  8 13  1  0  0  0  0
 34 36  1  0  0  0  0
 17 21  1  0  0  0  0
  7 12  1  0  0  0  0
 24 29  1  0  0  0  0
M  END
$$$$

  -OEChem-05262214473D

 39 38  0     1  0  0  0  0  0999 V2000
   -3.5200   -4.0268   -1.6943 C   0  0  0  0  0  0  0  0  0  0  0  0
   -2.8702   -4.8827   -1.1054 O   0  0  0  0  0  0  0  0  0  0  0  0
   -4.9704   -4.2579   -1.9614 C   0  0  0  0  0  0  0  0  0  0  0  0
   -5.1456   -4.7573   -2.9278 H   0  0  0  0  0  0  0  0  0  0  0  0
   -5.4379   -4.9112   -1.2072 H   0  0  0  0  0  0  0  0  0  0  0  0
   -5.5954   -3.3510   -1.9864 H   0  0  0  0  0  0  0  0  0  0  0  0
   -3.0424   -2.8131   -2.1606 N   0  0  0  0  0  0  0  0  0  0  0  0
   -1.6755   -2.3891   -2.0077 C   0  0  2  0  0  0  0  0  0  0  0  0
   -1.5782   -1.5673   -0.7292 C   0  0  0  0  0  0  0  0  0  0  0  0
   -2.5448   -1.0064   -0.2171 O   0  0  0  0  0  0  0  0  0  0  0  0
   -1.2087   -1.5823   -3.2094 C   0  0  0  0  0  0  0  0  0  0  0  0
   -3.6915   -2.1888   -2.6360 H   0  0  0  0  0  0  0  0  0  0  0  0
   -1.0721   -3.2977   -1.9053 H   0  0  0  0  0  0  0  0  0  0  0  0
   -1.8017   -0.6681   -3.3281 H   0  0  0  0  0  0  0  0  0  0  0  0
   -0.1601   -1.2849   -3.1045 H   0  0  0  0  0  0  0  0  0  0  0  0
   -1.3074   -2.1646   -4.1319 H   0  0  0  0  0  0  0  0  0  0  0  0
   -0.2835   -1.5112   -0.2725 N   0  0  0  0  0  0  0  0  0  0  0  0
    0.0769   -0.7658    0.9424 C   0  0  0  0  0  0  0  0  0  0  0  0
    1.3204    0.0469    0.6868 C   0  0  0  0  0  0  0  0  0  0  0  0
    2.1982   -0.2911   -0.1029 O   0  0  0  0  0  0  0  0  0  0  0  0
    0.4587   -2.0097   -0.7289 H   0  0  0  0  0  0  0  0  0  0  0  0
    0.2595   -1.4722    1.7576 H   0  0  0  0  0  0  0  0  0  0  0  0
   -0.7496   -0.1032    1.2157 H   0  0  0  0  0  0  0  0  0  0  0  0
    1.3405    1.2071    1.4536 N   0  0  0  0  0  0  0  0  0  0  0  0
    2.4117    2.1674    1.4125 C   0  0  2  0  0  0  0  0  0  0  0  0
    1.8201    3.5156    1.0231 C   0  0  0  0  0  0  0  0  0  0  0  0
    0.7545    3.6320    0.4214 O   0  0  0  0  0  0  0  0  0  0  0  0
    3.4954    1.7458    0.4323 C   0  0  0  0  0  0  0  0  0  0  0  0
    0.5554    1.3867    2.0773 H   0  0  0  0  0  0  0  0  0  0  0  0
    2.8220    2.2271    2.4265 H   0  0  0  0  0  0  0  0  0  0  0  0
    3.1030    1.6805   -0.5891 H   0  0  0  0  0  0  0  0  0  0  0  0
    4.3229    2.4628    0.4233 H   0  0  0  0  0  0  0  0  0  0  0  0
    3.8990    0.7625    0.6968 H   0  0  0  0  0  0  0  0  0  0  0  0
    2.6431    4.5718    1.3884 N   0  0  0  0  0  0  0  0  0  0  0  0
    2.3087    5.9505    1.1176 C   0  0  0  0  0  0  0  0  0  0  0  0
    3.4996    4.3837    1.9011 H   0  0  0  0  0  0  0  0  0  0  0  0
    2.7478    6.2526    0.1553 H   0  0  0  0  0  0  0  0  0  0  0  0
    1.2152    6.0603    1.0721 H   0  0  0  0  0  0  0  0  0  0  0  0
    2.7083    6.5889    1.9193 H   0  0  0  0  0  0  0  0  0  0  0  0
  1  3  1  0  0  0  0
  1  7  1  0  0  0  0
  1  2  2  0  0  0  0
 18 19  1  0  0  0  0
 19 24  1  0  0  0  0
 19 20  2  0  0  0  0
 25 26  1  0  0  0  0
 26 34  1  0  0  0  0
 26 27  2  0  0  0  0
  8  9  1  0  0  0  0
  9 17  1  0  0  0  0
  9 10  2  0  0  0  0
 25 28  1  0  0  0  0
  8 11  1  0  0  0  0
 34 35  1  0  0  0  0
 17 18  1  0  0  0  0
 24 25  1  0  0  0  0
  7  8  1  0  0  0  0
  3  4  1  0  0  0  0
  3  5  1  0  0  0  0
  3  6  1  0  0  0  0
 28 31  1  0  0  0  0
 28 32  1  0  0  0  0
 28 33  1  0  0  0  0
 11 14  1  0  0  0  0
 11 15  1  0  0  0  0
 11 16  1  0  0  0  0
 35 37  1  0  0  0  0
 35 38  1  0  0  0  0
 35 39  1  0  0  0  0
 18 22  1  0  0  0  0
 18 23  1  0  0  0  0
 25 30  1  0  0  0  0
  8 13  1  0  0  0  0
 34 36  1  0  0  0  0
 17 21  1  0  0  0  0
  7 12  1  0  0  0  0
 24 29  1  0  0  0  0
M  END
$$$$

  -OEChem-05262214473D

 39 38  0     1  0  0  0  0  0999 V2000
   -3.5200   -4.0268   -1.6943 C   0  0  0  0  0  0  0  0  0  0  0  0
   -2.8702   -4.8827   -1.1054 O   0  0  0  0  0  0  0  0  0  0  0  0
   -4.9704   -4.2579   -1.9614 C   0  0  0  0  0  0  0  0  0  0  0  0
   -5.1456   -4.7573   -2.9278 H   0  0  0  0  0  0  0  0  0  0  0  0
   -5.4379   -4.9112   -1.2072 H   0  0  0  0  0  0  0  0  0  0  0  0
   -5.5954   -3.3510   -1.9864 H   0  0  0  0  0  0  0  0  0  0  0  0
   -3.0424   -2.8131   -2.1606 N   0  0  0  0  0  0  0  0  0  0  0  0
   -1.6755   -2.3891   -2.0077 C   0  0  2  0  0  0  0  0  0  0  0  0
   -1.5782   -1.5673   -0.7292 C   0  0  0  0  0  0  0  0  0  0  0  0
   -2.5448   -1.0064   -0.2171 O   0  0  0  0  0  0  0  0  0  0  0  0
   -1.2087   -1.5823   -3.2094 C   0  0  0  0  0  0  0  0  0  0  0  0
   -3.6915   -2.1888   -2.6360 H   0  0  0  0  0  0  0  0  0  0  0  0
   -1.0721   -3.2977   -1.9053 H   0  0  0  0  0  0  0  0  0  0  0  0
   -1.8017   -0.6681   -3.3281 H   0  0  0  0  0  0  0  0  0  0  0  0
   -0.1601   -1.2849   -3.1045 H   0  0  0  0  0  0  0  0  0  0  0  0
   -1.3074   -2.1646   -4.1319 H   0  0  0  0  0  0  0  0  0  0  0  0
   -0.2835   -1.5112   -0.2725 N   0  0  0  0  0  0  0  0  0  0  0  0
    0.0769   -0.7658    0.9424 C   0  0  0  0  0  0  0  0  0  0  0  0
    1.3204    0.0469    0.6868 C   0  0  0  0  0  0  0  0  0  0  0  0
    2.0622   -0.1371   -0.2745 O   0  0  0  0  0  0  0  0  0  0  0  0
    0.4587   -2.0097   -0.7289 H   0  0  0  0  0  0  0  0  0  0  0  0
    0.2595   -1.4722    1.7576 H   0  0  0  0  0  0  0  0  0  0  0  0
   -0.7496   -0.1032    1.2157 H   0  0  0  0  0  0  0  0  0  0  0  0
    1.5121    1.0124    1.6694 N   0  0  0  0  0  0  0  0  0  0  0  0
    2.6229    1.9276    1.6772 C   0  0  2  0  0  0  0  0  0  0  0  0
    2.0648    3.3446    1.6697 C   0  0  0  0  0  0  0  0  0  0  0  0
    0.9365    3.6191    1.2662 O   0  0  0  0  0  0  0  0  0  0  0  0
    3.5377    1.6974    0.4843 C   0  0  0  0  0  0  0  0  0  0  0  0
    0.8302    1.0751    2.4236 H   0  0  0  0  0  0  0  0  0  0  0  0
    3.1689    1.7544    2.6109 H   0  0  0  0  0  0  0  0  0  0  0  0
    3.0081    1.8663   -0.4604 H   0  0  0  0  0  0  0  0  0  0  0  0
    4.3974    2.3753    0.5070 H   0  0  0  0  0  0  0  0  0  0  0  0
    3.9145    0.6690    0.4749 H   0  0  0  0  0  0  0  0  0  0  0  0
    2.9904    4.2724    2.1264 N   0  0  0  0  0  0  0  0  0  0  0  0
    2.7046    5.6861    2.2029 C   0  0  0  0  0  0  0  0  0  0  0  0
    3.8955    3.9532    2.4589 H   0  0  0  0  0  0  0  0  0  0  0  0
    3.0270    6.1767    1.2727 H   0  0  0  0  0  0  0  0  0  0  0  0
    1.6233    5.8346    2.3398 H   0  0  0  0  0  0  0  0  0  0  0  0
    3.2455    6.1239    3.0547 H   0  0  0  0  0  0  0  0  0  0  0  0
  1  3  1  0  0  0  0
  1  7  1  0  0  0  0
  1  2  2  0  0  0  0
 18 19  1  0  0  0  0
 19 24  1  0  0  0  0
 19 20  2  0  0  0  0
 25 26  1  0  0  0  0
 26 34  1  0  0  0  0
 26 27  2  0  0  0  0
  8  9  1  0  0  0  0
  9 17  1  0  0  0  0
  9 10  2  0  0  0  0
 25 28  1  0  0  0  0
  8 11  1  0  0  0  0
 34 35  1  0  0  0  0
 17 18  1  0  0  0  0
 24 25  1  0  0  0  0
  7  8  1  0  0  0  0
  3  4  1  0  0  0  0
  3  5  1  0  0  0  0
  3  6  1  0  0  0  0
 28 31  1  0  0  0  0
 28 32  1  0  0  0  0
 28 33  1  0  0  0  0
 11 14  1  0  0  0  0
 11 15  1  0  0  0  0
 11 16  1  0  0  0  0
 35 37  1  0  0  0  0
 35 38  1  0  0  0  0
 35 39  1  0  0  0  0
 18 22  1  0  0  0  0
 18 23  1  0  0  0  0
 25 30  1  0  0  0  0
  8 13  1  0  0  0  0
 34 36  1  0  0  0  0
 17 21  1  0  0  0  0
  7 12  1  0  0  0  0
 24 29  1  0  0  0  0
M  END
$$$$

  -OEChem-05262214473D

 39 38  0     1  0  0  0  0  0999 V2000
   -3.5200   -4.0268   -1.6943 C   0  0  0  0  0  0  0  0  0  0  0  0
   -2.8702   -4.8827   -1.1054 O   0  0  0  0  0  0  0  0  0  0  0  0
   -4.9704   -4.2579   -1.9614 C   0  0  0  0  0  0  0  0  0  0  0  0
   -5.1456   -4.7573   -2.9278 H   0  0  0  0  0  0  0  0  0  0  0  0
   -5.4379   -4.9112   -1.2072 H   0  0  0  0  0  0  0  0  0  0  0  0
   -5.5954   -3.3510   -1.9864 H   0  0  0  0  0  0  0  0  0  0  0  0
   -3.0424   -2.8131   -2.1606 N   0  0  0  0  0  0  0  0  0  0  0  0
   -1.6755   -2.3891   -2.0077 C   0  0  2  0  0  0  0  0  0  0  0  0
   -1.5782   -1.5673   -0.7292 C   0  0  0  0  0  0  0  0  0  0  0  0
   -2.5448   -1.0064   -0.2171 O   0  0  0  0  0  0  0  0  0  0  0  0
   -1.2087   -1.5823   -3.2094 C   0  0  0  0  0  0  0  0  0  0  0  0
   -3.6915   -2.1888   -2.6360 H   0  0  0  0  0  0  0  0  0  0  0  0
   -1.0721   -3.2977   -1.9053 H   0  0  0  0  0  0  0  0  0  0  0  0
   -1.8017   -0.6681   -3.3281 H   0  0  0  0  0  0  0  0  0  0  0  0
   -0.1601   -1.2849   -3.1045 H   0  0  0  0  0  0  0  0  0  0  0  0
   -1.3074   -2.1646   -4.1319 H   0  0  0  0  0  0  0  0  0  0  0  0
   -0.2835   -1.5112   -0.2725 N   0  0  0  0  0  0  0  0  0  0  0  0
    0.0769   -0.7658    0.9424 C   0  0  0  0  0  0  0  0  0  0  0  0
    1.0749    0.3101    0.5982 C   0  0  0  0  0  0  0  0  0  0  0  0
    1.4991    0.4996   -0.5387 O   0  0  0  0  0  0  0  0  0  0  0  0
    0.4587   -2.0097   -0.7289 H   0  0  0  0  0  0  0  0  0  0  0  0
    0.5143   -1.4546    1.6712 H   0  0  0  0  0  0  0  0  0  0  0  0
   -0.8242   -0.3136    1.3670 H   0  0  0  0  0  0  0  0  0  0  0  0
    1.4455    1.0429    1.7207 N   0  0  0  0  0  0  0  0  0  0  0  0
    2.3877    2.1303    1.6834 C   0  0  2  0  0  0  0  0  0  0  0  0
    1.6911    3.3746    2.2180 C   0  0  0  0  0  0  0  0  0  0  0  0
    0.4692    3.5091    2.2239 O   0  0  0  0  0  0  0  0  0  0  0  0
    2.9090    2.3626    0.2738 C   0  0  0  0  0  0  0  0  0  0  0  0
    1.0281    0.7969    2.6167 H   0  0  0  0  0  0  0  0  0  0  0  0
    3.2123    1.8574    2.3509 H   0  0  0  0  0  0  0  0  0  0  0  0
    2.0970    2.6370   -0.4095 H   0  0  0  0  0  0  0  0  0  0  0  0
    3.6469    3.1713    0.2519 H   0  0  0  0  0  0  0  0  0  0  0  0
    3.3833    1.4573   -0.1204 H   0  0  0  0  0  0  0  0  0  0  0  0
    2.5959    4.3351    2.6481 N   0  0  0  0  0  0  0  0  0  0  0  0
    2.1826    5.6100    3.1864 C   0  0  0  0  0  0  0  0  0  0  0  0
    3.5906    4.1308    2.6242 H   0  0  0  0  0  0  0  0  0  0  0  0
    2.1409    6.3541    2.3772 H   0  0  0  0  0  0  0  0  0  0  0  0
    1.1871    5.5096    3.6435 H   0  0  0  0  0  0  0  0  0  0  0  0
    2.9048    5.9376    3.9487 H   0  0  0  0  0  0  0  0  0  0  0  0
  1  3  1  0  0  0  0
  1  7  1  0  0  0  0
  1  2  2  0  0  0  0
 18 19  1  0  0  0  0
 19 24  1  0  0  0  0
 19 20  2  0  0  0  0
 25 26  1  0  0  0  0
 26 34  1  0  0  0  0
 26 27  2  0  0  0  0
  8  9  1  0  0  0  0
  9 17  1  0  0  0  0
  9 10  2  0  0  0  0
 25 28  1  0  0  0  0
  8 11  1  0  0  0  0
 34 35  1  0  0  0  0
 17 18  1  0  0  0  0
 24 25  1  0  0  0  0
  7  8  1  0  0  0  0
  3  4  1  0  0  0  0
  3  5  1  0  0  0  0
  3  6  1  0  0  0  0
 28 31  1  0  0  0  0
 28 32  1  0  0  0  0
 28 33  1  0  0  0  0
 11 14  1  0  0  0  0
 11 15  1  0  0  0  0
 11 16  1  0  0  0  0
 35 37  1  0  0  0  0
 35 38  1  0  0  0  0
 35 39  1  0  0  0  0
 18 22  1  0  0  0  0
 18 23  1  0  0  0  0
 25 30  1  0  0  0  0
  8 13  1  0  0  0  0
 34 36  1  0  0  0  0
 17 21  1  0  0  0  0
  7 12  1  0  0  0  0
 24 29  1  0  0  0  0
M  END
$$$$

  -OEChem-05262214473D

 39 38  0     1  0  0  0  0  0999 V2000
   -3.5200   -4.0268   -1.6943 C   0  0  0  0  0  0  0  0  0  0  0  0
   -2.8702   -4.8827   -1.1054 O   0  0  0  0  0  0  0  0  0  0  0  0
   -4.9704   -4.2579   -1.9614 C   0  0  0  0  0  0  0  0  0  0  0  0
   -5.1456   -4.7573   -2.9278 H   0  0  0  0  0  0  0  0  0  0  0  0
   -5.4379   -4.9112   -1.2072 H   0  0  0  0  0  0  0  0  0  0  0  0
   -5.5954   -3.3510   -1.9864 H   0  0  0  0  0  0  0  0  0  0  0  0
   -3.0424   -2.8131   -2.1606 N   0  0  0  0  0  0  0  0  0  0  0  0
   -1.6755   -2.3891   -2.0077 C   0  0  2  0  0  0  0  0  0  0  0  0
   -1.5782   -1.5673   -0.7292 C   0  0  0  0  0  0  0  0  0  0  0  0
   -2.5448   -1.0064   -0.2171 O   0  0  0  0  0  0  0  0  0  0  0  0
   -1.2087   -1.5823   -3.2094 C   0  0  0  0  0  0  0  0  0  0  0  0
   -3.6915   -2.1888   -2.6360 H   0  0  0  0  0  0  0  0  0  0  0  0
   -1.0721   -3.2977   -1.9053 H   0  0  0  0  0  0  0  0  0  0  0  0
   -1.8017   -0.6681   -3.3281 H   0  0  0  0  0  0  0  0  0  0  0  0
   -0.1601   -1.2849   -3.1045 H   0  0  0  0  0  0  0  0  0  0  0  0
   -1.3074   -2.1646   -4.1319 H   0  0  0  0  0  0  0  0  0  0  0  0
   -0.2835   -1.5112   -0.2725 N   0  0  0  0  0  0  0  0  0  0  0  0
    0.0769   -0.7658    0.9424 C   0  0  0  0  0  0  0  0  0  0  0  0
    1.0749    0.3101    0.5982 C   0  0  0  0  0  0  0  0  0  0  0  0
    1.3011    0.6793   -0.5512 O   0  0  0  0  0  0  0  0  0  0  0  0
    0.4587   -2.0097   -0.7289 H   0  0  0  0  0  0  0  0  0  0  0  0
    0.5143   -1.4546    1.6712 H   0  0  0  0  0  0  0  0  0  0  0  0
   -0.8242   -0.3136    1.3670 H   0  0  0  0  0  0  0  0  0  0  0  0
    1.6952    0.8161    1.7356 N   0  0  0  0  0  0  0  0  0  0  0  0
    2.6943    1.8514    1.7008 C   0  0  2  0  0  0  0  0  0  0  0  0
    2.2007    3.0103    2.5569 C   0  0  0  0  0  0  0  0  0  0  0  0
    1.0134    3.1941    2.8168 O   0  0  0  0  0  0  0  0  0  0  0  0
    2.9700    2.3068    0.2763 C   0  0  0  0  0  0  0  0  0  0  0  0
    1.4281    0.4337    2.6412 H   0  0  0  0  0  0  0  0  0  0  0  0
    3.6025    1.4295    2.1450 H   0  0  0  0  0  0  0  0  0  0  0  0
    2.0715    2.7325   -0.1852 H   0  0  0  0  0  0  0  0  0  0  0  0
    3.7507    3.0741    0.2491 H   0  0  0  0  0  0  0  0  0  0  0  0
    3.2964    1.4660   -0.3453 H   0  0  0  0  0  0  0  0  0  0  0  0
    3.2377    3.8397    2.9605 N   0  0  0  0  0  0  0  0  0  0  0  0
    3.0248    5.0159    3.7712 C   0  0  0  0  0  0  0  0  0  0  0  0
    4.1937    3.6003    2.7146 H   0  0  0  0  0  0  0  0  0  0  0  0
    2.8946    5.8924    3.1195 H   0  0  0  0  0  0  0  0  0  0  0  0
    2.1229    4.8790    4.3860 H   0  0  0  0  0  0  0  0  0  0  0  0
    3.8947    5.1720    4.4261 H   0  0  0  0  0  0  0  0  0  0  0  0
  1  3  1  0  0  0  0
  1  7  1  0  0  0  0
  1  2  2  0  0  0  0
 18 19  1  0  0  0  0
 19 24  1  0  0  0  0
 19 20  2  0  0  0  0
 25 26  1  0  0  0  0
 26 34  1  0  0  0  0
 26 27  2  0  0  0  0
  8  9  1  0  0  0  0
  9 17  1  0  0  0  0
  9 10  2  0  0  0  0
 25 28  1  0  0  0  0
  8 11  1  0  0  0  0
 34 35  1  0  0  0  0
 17 18  1  0  0  0  0
 24 25  1  0  0  0  0
  7  8  1  0  0  0  0
  3  4  1  0  0  0  0
  3  5  1  0  0  0  0
  3  6  1  0  0  0  0
 28 31  1  0  0  0  0
 28 32  1  0  0  0  0
 28 33  1  0  0  0  0
 11 14  1  0  0  0  0
 11 15  1  0  0  0  0
 11 16  1  0  0  0  0
 35 37  1  0  0  0  0
 35 38  1  0  0  0  0
 35 39  1  0  0  0  0
 18 22  1  0  0  0  0
 18 23  1  0  0  0  0
 25 30  1  0  0  0  0
  8 13  1  0  0  0  0
 34 36  1  0  0  0  0
 17 21  1  0  0  0  0
  7 12  1  0  0  0  0
 24 29  1  0  0  0  0
M  END
$$$$

  -OEChem-05262214473D

 39 38  0     1  0  0  0  0  0999 V2000
   -3.5200   -4.0268   -1.6943 C   0  0  0  0  0  0  0  0  0  0  0  0
   -2.8702   -4.8827   -1.1054 O   0  0  0  0  0  0  0  0  0  0  0  0
   -4.9704   -4.2579   -1.9614 C   0  0  0  0  0  0  0  0  0  0  0  0
   -5.1456   -4.7573   -2.9278 H   0  0  0  0  0  0  0  0  0  0  0  0
   -5.4379   -4.9112   -1.2072 H   0  0  0  0  0  0  0  0  0  0  0  0
   -5.5954   -3.3510   -1.9864 H   0  0  0  0  0  0  0  0  0  0  0  0
   -3.0424   -2.8131   -2.1606 N   0  0  0  0  0  0  0  0  0  0  0  0
   -1.6755   -2.3891   -2.0077 C   0  0  2  0  0  0  0  0  0  0  0  0
   -1.5782   -1.5673   -0.7292 C   0  0  0  0  0  0  0  0  0  0  0  0
   -2.5448   -1.0064   -0.2171 O   0  0  0  0  0  0  0  0  0  0  0  0
   -1.2087   -1.5823   -3.2094 C   0  0  0  0  0  0  0  0  0  0  0  0
   -3.6915   -2.1888   -2.6360 H   0  0  0  0  0  0  0  0  0  0  0  0
   -1.0721   -3.2977   -1.9053 H   0  0  0  0  0  0  0  0  0  0  0  0
   -1.8017   -0.6681   -3.3281 H   0  0  0  0  0  0  0  0  0  0  0  0
   -0.1601   -1.2849   -3.1045 H   0  0  0  0  0  0  0  0  0  0  0  0
   -1.3074   -2.1646   -4.1319 H   0  0  0  0  0  0  0  0  0  0  0  0
   -0.2835   -1.5112   -0.2725 N   0  0  0  0  0  0  0  0  0  0  0  0
    0.0769   -0.7658    0.9424 C   0  0  0  0  0  0  0  0  0  0  0  0
    1.0749    0.3101    0.5982 C   0  0  0  0  0  0  0  0  0  0  0  0
    1.1182    0.8668   -0.4958 O   0  0  0  0  0  0  0  0  0  0  0  0
    0.4587   -2.0097   -0.7289 H   0  0  0  0  0  0  0  0  0  0  0  0
    0.5143   -1.4546    1.6712 H   0  0  0  0  0  0  0  0  0  0  0  0
   -0.8242   -0.3136    1.3670 H   0  0  0  0  0  0  0  0  0  0  0  0
    1.9256    0.5797    1.6650 N   0  0  0  0  0  0  0  0  0  0  0  0
    2.9773    1.5609    1.6133 C   0  0  2  0  0  0  0  0  0  0  0  0
    2.7340    2.5702    2.7276 C   0  0  0  0  0  0  0  0  0  0  0  0
    1.6299    2.7560    3.2351 O   0  0  0  0  0  0  0  0  0  0  0  0
    3.0261    2.2488    0.2579 C   0  0  0  0  0  0  0  0  0  0  0  0
    1.7975    0.0550    2.5286 H   0  0  0  0  0  0  0  0  0  0  0  0
    3.9161    1.0284    1.8007 H   0  0  0  0  0  0  0  0  0  0  0  0
    2.0940    2.7877    0.0525 H   0  0  0  0  0  0  0  0  0  0  0  0
    3.8447    2.9746    0.2106 H   0  0  0  0  0  0  0  0  0  0  0  0
    3.1714    1.5181   -0.5450 H   0  0  0  0  0  0  0  0  0  0  0  0
    3.8860    3.2697    3.0588 N   0  0  0  0  0  0  0  0  0  0  0  0
    3.9113    4.2920    4.0788 C   0  0  0  0  0  0  0  0  0  0  0  0
    4.7615    3.0367    2.5996 H   0  0  0  0  0  0  0  0  0  0  0  0
    3.7325    5.2748    3.6182 H   0  0  0  0  0  0  0  0  0  0  0  0
    3.1267    4.0874    4.8222 H   0  0  0  0  0  0  0  0  0  0  0  0
    4.8939    4.2922    4.5732 H   0  0  0  0  0  0  0  0  0  0  0  0
  1  3  1  0  0  0  0
  1  7  1  0  0  0  0
  1  2  2  0  0  0  0
 18 19  1  0  0  0  0
 19 24  1  0  0  0  0
 19 20  2  0  0  0  0
 25 26  1  0  0  0  0
 26 34  1  0  0  0  0
 26 27  2  0  0  0  0
  8  9  1  0  0  0  0
  9 17  1  0  0  0  0
  9 10  2  0  0  0  0
 25 28  1  0  0  0  0
  8 11  1  0  0  0  0
 34 35  1  0  0  0  0
 17 18  1  0  0  0  0
 24 25  1  0  0  0  0
  7  8  1  0  0  0  0
  3  4  1  0  0  0  0
  3  5  1  0  0  0  0
  3  6  1  0  0  0  0
 28 31  1  0  0  0  0
 28 32  1  0  0  0  0
 28 33  1  0  0  0  0
 11 14  1  0  0  0  0
 11 15  1  0  0  0  0
 11 16  1  0  0  0  0
 35 37  1  0  0  0  0
 35 38  1  0  0  0  0
 35 39  1  0  0  0  0
 18 22  1  0  0  0  0
 18 23  1  0  0  0  0
 25 30  1  0  0  0  0
  8 13  1  0  0  0  0
 34 36  1  0  0  0  0
 17 21  1  0  0  0  0
  7 12  1  0  0  0  0
 24 29  1  0  0  0  0
M  END
$$$$

  -OEChem-05262214473D

 39 38  0     1  0  0  0  0  0999 V2000
   -3.5200   -4.0268   -1.6943 C   0  0  0  0  0  0  0  0  0  0  0  0
   -2.8702   -4.8827   -1.1054 O   0  0  0  0  0  0  0  0  0  0  0  0
   -4.9704   -4.2579   -1.9614 C   0  0  0  0  0  0  0  0  0  0  0  0
   -5.1456   -4.7573   -2.9278 H   0  0  0  0  0  0  0  0  0  0  0  0
   -5.4379   -4.9112   -1.2072 H   0  0  0  0  0  0  0  0  0  0  0  0
   -5.5954   -3.3510   -1.9864 H   0  0  0  0  0  0  0  0  0  0  0  0
   -3.0424   -2.8131   -2.1606 N   0  0  0  0  0  0  0  0  0  0  0  0
   -1.6755   -2.3891   -2.0077 C   0  0  2  0  0  0  0  0  0  0  0  0
   -1.5782   -1.5673   -0.7292 C   0  0  0  0  0  0  0  0  0  0  0  0
   -2.5448   -1.0064   -0.2171 O   0  0  0  0  0  0  0  0  0  0  0  0
   -1.2087   -1.5823   -3.2094 C   0  0  0  0  0  0  0  0  0  0  0  0
   -3.6915   -2.1888   -2.6360 H   0  0  0  0  0  0  0  0  0  0  0  0
   -1.0721   -3.2977   -1.9053 H   0  0  0  0  0  0  0  0  0  0  0  0
   -1.8017   -0.6681   -3.3281 H   0  0  0  0  0  0  0  0  0  0  0  0
   -0.1601   -1.2849   -3.1045 H   0  0  0  0  0  0  0  0  0  0  0  0
   -1.3074   -2.1646   -4.1319 H   0  0  0  0  0  0  0  0  0  0  0  0
   -0.2835   -1.5112   -0.2725 N   0  0  0  0  0  0  0  0  0  0  0  0
    0.0769   -0.7658    0.9424 C   0  0  0  0  0  0  0  0  0  0  0  0
    1.0749    0.3101    0.5982 C   0  0  0  0  0  0  0  0  0  0  0  0
    0.9628    1.0492   -0.3763 O   0  0  0  0  0  0  0  0  0  0  0  0
    0.4587   -2.0097   -0.7289 H   0  0  0  0  0  0  0  0  0  0  0  0
    0.5143   -1.4546    1.6712 H   0  0  0  0  0  0  0  0  0  0  0  0
   -0.8242   -0.3136    1.3670 H   0  0  0  0  0  0  0  0  0  0  0  0
    2.1212    0.3499    1.5137 N   0  0  0  0  0  0  0  0  0  0  0  0
    3.2173    1.2786    1.4267 C   0  0  2  0  0  0  0  0  0  0  0  0
    3.2546    2.0843    2.7185 C   0  0  0  0  0  0  0  0  0  0  0  0
    2.2768    2.2247    3.4501 O   0  0  0  0  0  0  0  0  0  0  0  0
    3.0735    2.1927    0.2199 C   0  0  0  0  0  0  0  0  0  0  0  0
    2.1111   -0.3134    2.2868 H   0  0  0  0  0  0  0  0  0  0  0  0
    4.1317    0.6815    1.3414 H   0  0  0  0  0  0  0  0  0  0  0  0
    2.1628    2.7990    0.2875 H   0  0  0  0  0  0  0  0  0  0  0  0
    3.9225    2.8795    0.1390 H   0  0  0  0  0  0  0  0  0  0  0  0
    3.0168    1.6100   -0.7059 H   0  0  0  0  0  0  0  0  0  0  0  0
    4.4967    2.6640    2.9363 N   0  0  0  0  0  0  0  0  0  0  0  0
    4.7815    3.4876    4.0880 C   0  0  0  0  0  0  0  0  0  0  0  0
    5.2555    2.4785    2.2870 H   0  0  0  0  0  0  0  0  0  0  0  0
    4.5973    4.5432    3.8392 H   0  0  0  0  0  0  0  0  0  0  0  0
    4.1301    3.1887    4.9225 H   0  0  0  0  0  0  0  0  0  0  0  0
    5.8341    3.3581    4.3800 H   0  0  0  0  0  0  0  0  0  0  0  0
  1  3  1  0  0  0  0
  1  7  1  0  0  0  0
  1  2  2  0  0  0  0
 18 19  1  0  0  0  0
 19 24  1  0  0  0  0
 19 20  2  0  0  0  0
 25 26  1  0  0  0  0
 26 34  1  0  0  0  0
 26 27  2  0  0  0  0
  8  9  1  0  0  0  0
  9 17  1  0  0  0  0
  9 10  2  0  0  0  0
 25 28  1  0  0  0  0
  8 11  1  0  0  0  0
 34 35  1  0  0  0  0
 17 18  1  0  0  0  0
 24 25  1  0  0  0  0
  7  8  1  0  0  0  0
  3  4  1  0  0  0  0
  3  5  1  0  0  0  0
  3  6  1  0  0  0  0
 28 31  1  0  0  0  0
 28 32  1  0  0  0  0
 28 33  1  0  0  0  0
 11 14  1  0  0  0  0
 11 15  1  0  0  0  0
 11 16  1  0  0  0  0
 35 37  1  0  0  0  0
 35 38  1  0  0  0  0
 35 39  1  0  0  0  0
 18 22  1  0  0  0  0
 18 23  1  0  0  0  0
 25 30  1  0  0  0  0
  8 13  1  0  0  0  0
 34 36  1  0  0  0  0
 17 21  1  0  0  0  0
  7 12  1  0  0  0  0
 24 29  1  0  0  0  0
M  END
$$$$

  -OEChem-05262214473D

 39 38  0     1  0  0  0  0  0999 V2000
   -3.5200   -4.0268   -1.6943 C   0  0  0  0  0  0  0  0  0  0  0  0
   -2.8702   -4.8827   -1.1054 O   0  0  0  0  0  0  0  0  0  0  0  0
   -4.9704   -4.2579   -1.9614 C   0  0  0  0  0  0  0  0  0  0  0  0
   -5.1456   -4.7573   -2.9278 H   0  0  0  0  0  0  0  0  0  0  0  0
   -5.4379   -4.9112   -1.2072 H   0  0  0  0  0  0  0  0  0  0  0  0
   -5.5954   -3.3510   -1.9864 H   0  0  0  0  0  0  0  0  0  0  0  0
   -3.0424   -2.8131   -2.1606 N   0  0  0  0  0  0  0  0  0  0  0  0
   -1.6755   -2.3891   -2.0077 C   0  0  2  0  0  0  0  0  0  0  0  0
   -1.5782   -1.5673   -0.7292 C   0  0  0  0  0  0  0  0  0  0  0  0
   -2.5448   -1.0064   -0.2171 O   0  0  0  0  0  0  0  0  0  0  0  0
   -1.2087   -1.5823   -3.2094 C   0  0  0  0  0  0  0  0  0  0  0  0
   -3.6915   -2.1888   -2.6360 H   0  0  0  0  0  0  0  0  0  0  0  0
   -1.0721   -3.2977   -1.9053 H   0  0  0  0  0  0  0  0  0  0  0  0
   -1.8017   -0.6681   -3.3281 H   0  0  0  0  0  0  0  0  0  0  0  0
   -0.1601   -1.2849   -3.1045 H   0  0  0  0  0  0  0  0  0  0  0  0
   -1.3074   -2.1646   -4.1319 H   0  0  0  0  0  0  0  0  0  0  0  0
   -0.2835   -1.5112   -0.2725 N   0  0  0  0  0  0  0  0  0  0  0  0
    0.0769   -0.7658    0.9424 C   0  0  0  0  0  0  0  0  0  0  0  0
    1.0749    0.3101    0.5982 C   0  0  0  0  0  0  0  0  0  0  0  0
    0.8455    1.2140   -0.2010 O   0  0  0  0  0  0  0  0  0  0  0  0
    0.4587   -2.0097   -0.7289 H   0  0  0  0  0  0  0  0  0  0  0  0
    0.5143   -1.4546    1.6712 H   0  0  0  0  0  0  0  0  0  0  0  0
   -0.8242   -0.3136    1.3670 H   0  0  0  0  0  0  0  0  0  0  0  0
    2.2686    0.1423    1.2921 N   0  0  0  0  0  0  0  0  0  0  0  0
    3.3979    1.0237    1.1537 C   0  0  2  0  0  0  0  0  0  0  0  0
    3.7271    1.5858    2.5303 C   0  0  0  0  0  0  0  0  0  0  0  0
    2.9099    1.6364    3.4472 O   0  0  0  0  0  0  0  0  0  0  0  0
    3.1089    2.1422    0.1647 C   0  0  0  0  0  0  0  0  0  0  0  0
    2.3477   -0.6463    1.9321 H   0  0  0  0  0  0  0  0  0  0  0  0
    4.2346    0.4123    0.7986 H   0  0  0  0  0  0  0  0  0  0  0  0
    2.2734    2.7656    0.5036 H   0  0  0  0  0  0  0  0  0  0  0  0
    3.9788    2.7953    0.0391 H   0  0  0  0  0  0  0  0  0  0  0  0
    2.8433    1.7354   -0.8170 H   0  0  0  0  0  0  0  0  0  0  0  0
    5.0281    2.0638    2.6014 N   0  0  0  0  0  0  0  0  0  0  0  0
    5.5763    2.6576    3.7984 C   0  0  0  0  0  0  0  0  0  0  0  0
    5.6418    1.9636    1.7982 H   0  0  0  0  0  0  0  0  0  0  0  0
    5.4304    3.7475    3.7676 H   0  0  0  0  0  0  0  0  0  0  0  0
    5.0648    2.2441    4.6800 H   0  0  0  0  0  0  0  0  0  0  0  0
    6.6515    2.4334    3.8595 H   0  0  0  0  0  0  0  0  0  0  0  0
  1  3  1  0  0  0  0
  1  7  1  0  0  0  0
  1  2  2  0  0  0  0
 18 19  1  0  0  0  0
 19 24  1  0  0  0  0
 19 20  2  0  0  0  0
 25 26  1  0  0  0  0
 26 34  1  0  0  0  0
 26 27  2  0  0  0  0
  8  9  1  0  0  0  0
  9 17  1  0  0  0  0
  9 10  2  0  0  0  0
 25 28  1  0  0  0  0
  8 11  1  0  0  0  0
 34 35  1  0  0  0  0
 17 18  1  0  0  0  0
 24 25  1  0  0  0  0
  7  8  1  0  0  0  0
  3  4  1  0  0  0  0
  3  5  1  0  0  0  0
  3  6  1  0  0  0  0
 28 31  1  0  0  0  0
 28 32  1  0  0  0  0
 28 33  1  0  0  0  0
 11 14  1  0  0  0  0
 11 15  1  0  0  0  0
 11 16  1  0  0  0  0
 35 37  1  0  0  0  0
 35 38  1  0  0  0  0
 35 39  1  0  0  0  0
 18 22  1  0  0  0  0
 18 23  1  0  0  0  0
 25 30  1  0  0  0  0
  8 13  1  0  0  0  0
 34 36  1  0  0  0  0
 17 21  1  0  0  0  0
  7 12  1  0  0  0  0
 24 29  1  0  0  0  0
M  END
$$$$

  -OEChem-05262214473D

 39 38  0     1  0  0  0  0  0999 V2000
   -3.5200   -4.0268   -1.6943 C   0  0  0  0  0  0  0  0  0  0  0  0
   -2.8702   -4.8827   -1.1054 O   0  0  0  0  0  0  0  0  0  0  0  0
   -4.9704   -4.2579   -1.9614 C   0  0  0  0  0  0  0  0  0  0  0  0
   -5.1456   -4.7573   -2.9278 H   0  0  0  0  0  0  0  0  0  0  0  0
   -5.4379   -4.9112   -1.2072 H   0  0  0  0  0  0  0  0  0  0  0  0
   -5.5954   -3.3510   -1.9864 H   0  0  0  0  0  0  0  0  0  0  0  0
   -3.0424   -2.8131   -2.1606 N   0  0  0  0  0  0  0  0  0  0  0  0
   -1.6755   -2.3891   -2.0077 C   0  0  2  0  0  0  0  0  0  0  0  0
   -1.5782   -1.5673   -0.7292 C   0  0  0  0  0  0  0  0  0  0  0  0
   -2.5448   -1.0064   -0.2171 O   0  0  0  0  0  0  0  0  0  0  0  0
   -1.2087   -1.5823   -3.2094 C   0  0  0  0  0  0  0  0  0  0  0  0
   -3.6915   -2.1888   -2.6360 H   0  0  0  0  0  0  0  0  0  0  0  0
   -1.0721   -3.2977   -1.9053 H   0  0  0  0  0  0  0  0  0  0  0  0
   -1.8017   -0.6681   -3.3281 H   0  0  0  0  0  0  0  0  0  0  0  0
   -0.1601   -1.2849   -3.1045 H   0  0  0  0  0  0  0  0  0  0  0  0
   -1.3074   -2.1646   -4.1319 H   0  0  0  0  0  0  0  0  0  0  0  0
   -0.2835   -1.5112   -0.2725 N   0  0  0  0  0  0  0  0  0  0  0  0
    0.0769   -0.7658    0.9424 C   0  0  0  0  0  0  0  0  0  0  0  0
    1.0749    0.3101    0.5982 C   0  0  0  0  0  0  0  0  0  0  0  0
    0.7744    1.3502    0.0182 O   0  0  0  0  0  0  0  0  0  0  0  0
    0.4587   -2.0097   -0.7289 H   0  0  0  0  0  0  0  0  0  0  0  0
    0.5143   -1.4546    1.6712 H   0  0  0  0  0  0  0  0  0  0  0  0
   -0.8242   -0.3136    1.3670 H   0  0  0  0  0  0  0  0  0  0  0  0
    2.3577   -0.0290    1.0152 N   0  0  0  0  0  0  0  0  0  0  0  0
    3.5069    0.8135    0.8130 C   0  0  2  0  0  0  0  0  0  0  0  0
    4.1193    1.1086    2.1758 C   0  0  0  0  0  0  0  0  0  0  0  0
    3.4862    1.0313    3.2267 O   0  0  0  0  0  0  0  0  0  0  0  0
    3.1300    2.1008    0.0963 C   0  0  0  0  0  0  0  0  0  0  0  0
    2.4909   -0.9210    1.4887 H   0  0  0  0  0  0  0  0  0  0  0  0
    4.2178    0.2392    0.2091 H   0  0  0  0  0  0  0  0  0  0  0  0
    2.4182    2.6897    0.6862 H   0  0  0  0  0  0  0  0  0  0  0  0
    4.0098    2.7278   -0.0822 H   0  0  0  0  0  0  0  0  0  0  0  0
    2.6625    1.8859   -0.8707 H   0  0  0  0  0  0  0  0  0  0  0  0
    5.4441    1.5101    2.0768 N   0  0  0  0  0  0  0  0  0  0  0  0
    6.2414    1.8586    3.2295 C   0  0  0  0  0  0  0  0  0  0  0  0
    5.8943    1.5273    1.1664 H   0  0  0  0  0  0  0  0  0  0  0  0
    6.1747    2.9420    3.4082 H   0  0  0  0  0  0  0  0  0  0  0  0
    5.8669    1.3180    4.1113 H   0  0  0  0  0  0  0  0  0  0  0  0
    7.2901    1.5810    3.0474 H   0  0  0  0  0  0  0  0  0  0  0  0
  1  3  1  0  0  0  0
  1  7  1  0  0  0  0
  1  2  2  0  0  0  0
 18 19  1  0  0  0  0
 19 24  1  0  0  0  0
 19 20  2  0  0  0  0
 25 26  1  0  0  0  0
 26 34  1  0  0  0  0
 26 27  2  0  0  0  0
  8  9  1  0  0  0  0
  9 17  1  0  0  0  0
  9 10  2  0  0  0  0
 25 28  1  0  0  0  0
  8 11  1  0  0  0  0
 34 35  1  0  0  0  0
 17 18  1  0  0  0  0
 24 25  1  0  0  0  0
  7  8  1  0  0  0  0
  3  4  1  0  0  0  0
  3  5  1  0  0  0  0
  3  6  1  0  0  0  0
 28 31  1  0  0  0  0
 28 32  1  0  0  0  0
 28 33  1  0  0  0  0
 11 14  1  0  0  0  0
 11 15  1  0  0  0  0
 11 16  1  0  0  0  0
 35 37  1  0  0  0  0
 35 38  1  0  0  0  0
 35 39  1  0  0  0  0
 18 22  1  0  0  0  0
 18 23  1  0  0  0  0
 25 30  1  0  0  0  0
  8 13  1  0  0  0  0
 34 36  1  0  0  0  0
 17 21  1  0  0  0  0
  7 12  1  0  0  0  0
 24 29  1  0  0  0  0
M  END
$$$$

  -OEChem-05262214473D

 39 38  0     1  0  0  0  0  0999 V2000
   -3.5200   -4.0268   -1.6943 C   0  0  0  0  0  0  0  0  0  0  0  0
   -2.8702   -4.8827   -1.1054 O   0  0  0  0  0  0  0  0  0  0  0  0
   -4.9704   -4.2579   -1.9614 C   0  0  0  0  0  0  0  0  0  0  0  0
   -5.1456   -4.7573   -2.9278 H   0  0  0  0  0  0  0  0  0  0  0  0
   -5.4379   -4.9112   -1.2072 H   0  0  0  0  0  0  0  0  0  0  0  0
   -5.5954   -3.3510   -1.9864 H   0  0  0  0  0  0  0  0  0  0  0  0
   -3.0424   -2.8131   -2.1606 N   0  0  0  0  0  0  0  0  0  0  0  0
   -1.6755   -2.3891   -2.0077 C   0  0  2  0  0  0  0  0  0  0  0  0
   -1.5782   -1.5673   -0.7292 C   0  0  0  0  0  0  0  0  0  0  0  0
   -2.5448   -1.0064   -0.2171 O   0  0  0  0  0  0  0  0  0  0  0  0
   -1.2087   -1.5823   -3.2094 C   0  0  0  0  0  0  0  0  0  0  0  0
   -3.6915   -2.1888   -2.6360 H   0  0  0  0  0  0  0  0  0  0  0  0
   -1.0721   -3.2977   -1.9053 H   0  0  0  0  0  0  0  0  0  0  0  0
   -1.8017   -0.6681   -3.3281 H   0  0  0  0  0  0  0  0  0  0  0  0
   -0.1601   -1.2849   -3.1045 H   0  0  0  0  0  0  0  0  0  0  0  0
   -1.3074   -2.1646   -4.1319 H   0  0  0  0  0  0  0  0  0  0  0  0
   -0.2835   -1.5112   -0.2725 N   0  0  0  0  0  0  0  0  0  0  0  0
    0.0769   -0.7658    0.9424 C   0  0  0  0  0  0  0  0  0  0  0  0
    1.0749    0.3101    0.5982 C   0  0  0  0  0  0  0  0  0  0  0  0
    0.7542    1.4483    0.2665 O   0  0  0  0  0  0  0  0  0  0  0  0
    0.4587   -2.0097   -0.7289 H   0  0  0  0  0  0  0  0  0  0  0  0
    0.5143   -1.4546    1.6712 H   0  0  0  0  0  0  0  0  0  0  0  0
   -0.8242   -0.3136    1.3670 H   0  0  0  0  0  0  0  0  0  0  0  0
    2.3825   -0.1523    0.7019 N   0  0  0  0  0  0  0  0  0  0  0  0
    3.5368    0.6625    0.4277 C   0  0  2  0  0  0  0  0  0  0  0  0
    4.4044    0.6851    1.6792 C   0  0  0  0  0  0  0  0  0  0  0  0
    3.9663    0.4505    2.8035 O   0  0  0  0  0  0  0  0  0  0  0  0
    3.1352    2.0713    0.0192 C   0  0  0  0  0  0  0  0  0  0  0  0
    2.5311   -1.1189    0.9870 H   0  0  0  0  0  0  0  0  0  0  0  0
    4.0825    0.1741   -0.3869 H   0  0  0  0  0  0  0  0  0  0  0  0
    2.5873    2.5766    0.8229 H   0  0  0  0  0  0  0  0  0  0  0  0
    4.0133    2.6815   -0.2166 H   0  0  0  0  0  0  0  0  0  0  0  0
    2.4869    2.0512   -0.8635 H   0  0  0  0  0  0  0  0  0  0  0  0
    5.7163    1.0405    1.3984 N   0  0  0  0  0  0  0  0  0  0  0  0
    6.7316    1.1450    2.4203 C   0  0  0  0  0  0  0  0  0  0  0  0
    5.9957    1.1991    0.4347 H   0  0  0  0  0  0  0  0  0  0  0  0
    6.7797    2.1815    2.7854 H   0  0  0  0  0  0  0  0  0  0  0  0
    6.4819    0.4735    3.2550 H   0  0  0  0  0  0  0  0  0  0  0  0
    7.7066    0.8592    1.9988 H   0  0  0  0  0  0  0  0  0  0  0  0
  1  3  1  0  0  0  0
  1  7  1  0  0  0  0
  1  2  2  0  0  0  0
 18 19  1  0  0  0  0
 19 24  1  0  0  0  0
 19 20  2  0  0  0  0
 25 26  1  0  0  0  0
 26 34  1  0  0  0  0
 26 27  2  0  0  0  0
  8  9  1  0  0  0  0
  9 17  1  0  0  0  0
  9 10  2  0  0  0  0
 25 28  1  0  0  0  0
  8 11  1  0  0  0  0
 34 35  1  0  0  0  0
 17 18  1  0  0  0  0
 24 25  1  0  0  0  0
  7  8  1  0  0  0  0
  3  4  1  0  0  0  0
  3  5  1  0  0  0  0
  3  6  1  0  0  0  0
 28 31  1  0  0  0  0
 28 32  1  0  0  0  0
 28 33  1  0  0  0  0
 11 14  1  0  0  0  0
 11 15  1  0  0  0  0
 11 16  1  0  0  0  0
 35 37  1  0  0  0  0
 35 38  1  0  0  0  0
 35 39  1  0  0  0  0
 18 22  1  0  0  0  0
 18 23  1  0  0  0  0
 25 30  1  0  0  0  0
  8 13  1  0  0  0  0
 34 36  1  0  0  0  0
 17 21  1  0  0  0  0
  7 12  1  0  0  0  0
 24 29  1  0  0  0  0
M  END
$$$$

  -OEChem-05262214473D

 39 38  0     1  0  0  0  0  0999 V2000
   -3.5200   -4.0268   -1.6943 C   0  0  0  0  0  0  0  0  0  0  0  0
   -2.8702   -4.8827   -1.1054 O   0  0  0  0  0  0  0  0  0  0  0  0
   -4.9704   -4.2579   -1.9614 C   0  0  0  0  0  0  0  0  0  0  0  0
   -5.1456   -4.7573   -2.9278 H   0  0  0  0  0  0  0  0  0  0  0  0
   -5.4379   -4.9112   -1.2072 H   0  0  0  0  0  0  0  0  0  0  0  0
   -5.5954   -3.3510   -1.9864 H   0  0  0  0  0  0  0  0  0  0  0  0
   -3.0424   -2.8131   -2.1606 N   0  0  0  0  0  0  0  0  0  0  0  0
   -1.6755   -2.3891   -2.0077 C   0  0  2  0  0  0  0  0  0  0  0  0
   -1.5782   -1.5673   -0.7292 C   0  0  0  0  0  0  0  0  0  0  0  0
   -2.5448   -1.0064   -0.2171 O   0  0  0  0  0  0  0  0  0  0  0  0
   -1.2087   -1.5823   -3.2094 C   0  0  0  0  0  0  0  0  0  0  0  0
   -3.6915   -2.1888   -2.6360 H   0  0  0  0  0  0  0  0  0  0  0  0
   -1.0721   -3.2977   -1.9053 H   0  0  0  0  0  0  0  0  0  0  0  0
   -1.8017   -0.6681   -3.3281 H   0  0  0  0  0  0  0  0  0  0  0  0
   -0.1601   -1.2849   -3.1045 H   0  0  0  0  0  0  0  0  0  0  0  0
   -1.3074   -2.1646   -4.1319 H   0  0  0  0  0  0  0  0  0  0  0  0
   -0.2835   -1.5112   -0.2725 N   0  0  0  0  0  0  0  0  0  0  0  0
    0.0769   -0.7658    0.9424 C   0  0  0  0  0  0  0  0  0  0  0  0
    1.0749    0.3101    0.5982 C   0  0  0  0  0  0  0  0  0  0  0  0
    0.7864    1.5018    0.5268 O   0  0  0  0  0  0  0  0  0  0  0  0
    0.4587   -2.0097   -0.7289 H   0  0  0  0  0  0  0  0  0  0  0  0
    0.5143   -1.4546    1.6712 H   0  0  0  0  0  0  0  0  0  0  0  0
   -0.8242   -0.3136    1.3670 H   0  0  0  0  0  0  0  0  0  0  0  0
    2.3413   -0.2192    0.3736 N   0  0  0  0  0  0  0  0  0  0  0  0
    3.4856    0.5809    0.0242 C   0  0  2  0  0  0  0  0  0  0  0  0
    4.5631    0.3444    1.0743 C   0  0  0  0  0  0  0  0  0  0  0  0
    4.3176   -0.0664    2.2065 O   0  0  0  0  0  0  0  0  0  0  0  0
    3.1243    2.0556   -0.0613 C   0  0  0  0  0  0  0  0  0  0  0  0
    2.4656   -1.2264    0.4609 H   0  0  0  0  0  0  0  0  0  0  0  0
    3.8378    0.2213   -0.9487 H   0  0  0  0  0  0  0  0  0  0  0  0
    2.7692    2.4339    0.9043 H   0  0  0  0  0  0  0  0  0  0  0  0
    3.9891    2.6596   -0.3550 H   0  0  0  0  0  0  0  0  0  0  0  0
    2.3283    2.2200   -0.7957 H   0  0  0  0  0  0  0  0  0  0  0  0
    5.8261    0.6871    0.6123 N   0  0  0  0  0  0  0  0  0  0  0  0
    7.0133    0.5653    1.4257 C   0  0  0  0  0  0  0  0  0  0  0  0
    5.9390    1.0015   -0.3469 H   0  0  0  0  0  0  0  0  0  0  0  0
    7.2041    1.5178    1.9418 H   0  0  0  0  0  0  0  0  0  0  0  0
    6.8678   -0.2318    2.1696 H   0  0  0  0  0  0  0  0  0  0  0  0
    7.8725    0.3169    0.7854 H   0  0  0  0  0  0  0  0  0  0  0  0
  1  3  1  0  0  0  0
  1  7  1  0  0  0  0
  1  2  2  0  0  0  0
 18 19  1  0  0  0  0
 19 24  1  0  0  0  0
 19 20  2  0  0  0  0
 25 26  1  0  0  0  0
 26 34  1  0  0  0  0
 26 27  2  0  0  0  0
  8  9  1  0  0  0  0
  9 17  1  0  0  0  0
  9 10  2  0  0  0  0
 25 28  1  0  0  0  0
  8 11  1  0  0  0  0
 34 35  1  0  0  0  0
 17 18  1  0  0  0  0
 24 25  1  0  0  0  0
  7  8  1  0  0  0  0
  3  4  1  0  0  0  0
  3  5  1  0  0  0  0
  3  6  1  0  0  0  0
 28 31  1  0  0  0  0
 28 32  1  0  0  0  0
 28 33  1  0  0  0  0
 11 14  1  0  0  0  0
 11 15  1  0  0  0  0
 11 16  1  0  0  0  0
 35 37  1  0  0  0  0
 35 38  1  0  0  0  0
 35 39  1  0  0  0  0
 18 22  1  0  0  0  0
 18 23  1  0  0  0  0
 25 30  1  0  0  0  0
  8 13  1  0  0  0  0
 34 36  1  0  0  0  0
 17 21  1  0  0  0  0
  7 12  1  0  0  0  0
 24 29  1  0  0  0  0
M  END
$$$$

  -OEChem-05262214473D

 39 38  0     1  0  0  0  0  0999 V2000
   -3.5200   -4.0268   -1.6943 C   0  0  0  0  0  0  0  0  0  0  0  0
   -2.8702   -4.8827   -1.1054 O   0  0  0  0  0  0  0  0  0  0  0  0
   -4.9704   -4.2579   -1.9614 C   0  0  0  0  0  0  0  0  0  0  0  0
   -5.1456   -4.7573   -2.9278 H   0  0  0  0  0  0  0  0  0  0  0  0
   -5.4379   -4.9112   -1.2072 H   0  0  0  0  0  0  0  0  0  0  0  0
   -5.5954   -3.3510   -1.9864 H   0  0  0  0  0  0  0  0  0  0  0  0
   -3.0424   -2.8131   -2.1606 N   0  0  0  0  0  0  0  0  0  0  0  0
   -1.6755   -2.3891   -2.0077 C   0  0  2  0  0  0  0  0  0  0  0  0
   -1.5782   -1.5673   -0.7292 C   0  0  0  0  0  0  0  0  0  0  0  0
   -2.5448   -1.0064   -0.2171 O   0  0  0  0  0  0  0  0  0  0  0  0
   -1.2087   -1.5823   -3.2094 C   0  0  0  0  0  0  0  0  0  0  0  0
   -3.6915   -2.1888   -2.6360 H   0  0  0  0  0  0  0  0  0  0  0  0
   -1.0721   -3.2977   -1.9053 H   0  0  0  0  0  0  0  0  0  0  0  0
   -1.8017   -0.6681   -3.3281 H   0  0  0  0  0  0  0  0  0  0  0  0
   -0.1601   -1.2849   -3.1045 H   0  0  0  0  0  0  0  0  0  0  0  0
   -1.3074   -2.1646   -4.1319 H   0  0  0  0  0  0  0  0  0  0  0  0
   -0.2835   -1.5112   -0.2725 N   0  0  0  0  0  0  0  0  0  0  0  0
    0.0769   -0.7658    0.9424 C   0  0  0  0  0  0  0  0  0  0  0  0
    1.0749    0.3101    0.5982 C   0  0  0  0  0  0  0  0  0  0  0  0
    0.8687    1.5069    0.7815 O   0  0  0  0  0  0  0  0  0  0  0  0
    0.4587   -2.0097   -0.7289 H   0  0  0  0  0  0  0  0  0  0  0  0
    0.5143   -1.4546    1.6712 H   0  0  0  0  0  0  0  0  0  0  0  0
   -0.8242   -0.3136    1.3670 H   0  0  0  0  0  0  0  0  0  0  0  0
    2.2370   -0.2251    0.0526 N   0  0  0  0  0  0  0  0  0  0  0  0
    3.3567    0.5742   -0.3701 C   0  0  2  0  0  0  0  0  0  0  0  0
    4.5844    0.1096    0.4022 C   0  0  0  0  0  0  0  0  0  0  0  0
    4.5160   -0.4841    1.4764 O   0  0  0  0  0  0  0  0  0  0  0  0
    3.0979    2.0550   -0.1397 C   0  0  0  0  0  0  0  0  0  0  0  0
    2.2988   -1.2363   -0.0535 H   0  0  0  0  0  0  0  0  0  0  0  0
    3.5004    0.3776   -1.4381 H   0  0  0  0  0  0  0  0  0  0  0  0
    2.9515    2.2713    0.9248 H   0  0  0  0  0  0  0  0  0  0  0  0
    3.9389    2.6637   -0.4880 H   0  0  0  0  0  0  0  0  0  0  0  0
    2.1977    2.3807   -0.6720 H   0  0  0  0  0  0  0  0  0  0  0  0
    5.7661    0.4739   -0.2278 N   0  0  0  0  0  0  0  0  0  0  0  0
    7.0675    0.1592    0.3137 C   0  0  0  0  0  0  0  0  0  0  0  0
    5.7282    0.9480   -1.1254 H   0  0  0  0  0  0  0  0  0  0  0  0
    7.4189    0.9963    0.9349 H   0  0  0  0  0  0  0  0  0  0  0  0
    6.9984   -0.7500    0.9290 H   0  0  0  0  0  0  0  0  0  0  0  0
    7.7766   -0.0087   -0.5103 H   0  0  0  0  0  0  0  0  0  0  0  0
  1  3  1  0  0  0  0
  1  7  1  0  0  0  0
  1  2  2  0  0  0  0
 18 19  1  0  0  0  0
 19 24  1  0  0  0  0
 19 20  2  0  0  0  0
 25 26  1  0  0  0  0
 26 34  1  0  0  0  0
 26 27  2  0  0  0  0
  8  9  1  0  0  0  0
  9 17  1  0  0  0  0
  9 10  2  0  0  0  0
 25 28  1  0  0  0  0
  8 11  1  0  0  0  0
 34 35  1  0  0  0  0
 17 18  1  0  0  0  0
 24 25  1  0  0  0  0
  7  8  1  0  0  0  0
  3  4  1  0  0  0  0
  3  5  1  0  0  0  0
  3  6  1  0  0  0  0
 28 31  1  0  0  0  0
 28 32  1  0  0  0  0
 28 33  1  0  0  0  0
 11 14  1  0  0  0  0
 11 15  1  0  0  0  0
 11 16  1  0  0  0  0
 35 37  1  0  0  0  0
 35 38  1  0  0  0  0
 35 39  1  0  0  0  0
 18 22  1  0  0  0  0
 18 23  1  0  0  0  0
 25 30  1  0  0  0  0
  8 13  1  0  0  0  0
 34 36  1  0  0  0  0
 17 21  1  0  0  0  0
  7 12  1  0  0  0  0
 24 29  1  0  0  0  0
M  END
$$$$

  -OEChem-05262214473D

 39 38  0     1  0  0  0  0  0999 V2000
   -3.5200   -4.0268   -1.6943 C   0  0  0  0  0  0  0  0  0  0  0  0
   -2.8702   -4.8827   -1.1054 O   0  0  0  0  0  0  0  0  0  0  0  0
   -4.9704   -4.2579   -1.9614 C   0  0  0  0  0  0  0  0  0  0  0  0
   -5.1456   -4.7573   -2.9278 H   0  0  0  0  0  0  0  0  0  0  0  0
   -5.4379   -4.9112   -1.2072 H   0  0  0  0  0  0  0  0  0  0  0  0
   -5.5954   -3.3510   -1.9864 H   0  0  0  0  0  0  0  0  0  0  0  0
   -3.0424   -2.8131   -2.1606 N   0  0  0  0  0  0  0  0  0  0  0  0
   -1.6755   -2.3891   -2.0077 C   0  0  2  0  0  0  0  0  0  0  0  0
   -1.5782   -1.5673   -0.7292 C   0  0  0  0  0  0  0  0  0  0  0  0
   -2.5448   -1.0064   -0.2171 O   0  0  0  0  0  0  0  0  0  0  0  0
   -1.2087   -1.5823   -3.2094 C   0  0  0  0  0  0  0  0  0  0  0  0
   -3.6915   -2.1888   -2.6360 H   0  0  0  0  0  0  0  0  0  0  0  0
   -1.0721   -3.2977   -1.9053 H   0  0  0  0  0  0  0  0  0  0  0  0
   -1.8017   -0.6681   -3.3281 H   0  0  0  0  0  0  0  0  0  0  0  0
   -0.1601   -1.2849   -3.1045 H   0  0  0  0  0  0  0  0  0  0  0  0
   -1.3074   -2.1646   -4.1319 H   0  0  0  0  0  0  0  0  0  0  0  0
   -0.2835   -1.5112   -0.2725 N   0  0  0  0  0  0  0  0  0  0  0  0
    0.0769   -0.7658    0.9424 C   0  0  0  0  0  0  0  0  0  0  0  0
    1.0749    0.3101    0.5982 C   0  0  0  0  0  0  0  0  0  0  0  0
    0.9956    1.4633    1.0132 O   0  0  0  0  0  0  0  0  0  0  0  0
    0.4587   -2.0097   -0.7289 H   0  0  0  0  0  0  0  0  0  0  0  0
    0.5143   -1.4546    1.6712 H   0  0  0  0  0  0  0  0  0  0  0  0
   -0.8242   -0.3136    1.3670 H   0  0  0  0  0  0  0  0  0  0  0  0
    2.0765   -0.1696   -0.2392 N   0  0  0  0  0  0  0  0  0  0  0  0
    3.1591    0.6430   -0.7283 C   0  0  2  0  0  0  0  0  0  0  0  0
    4.4669   -0.0033   -0.2911 C   0  0  0  0  0  0  0  0  0  0  0  0
    4.5482   -0.7743    0.6629 O   0  0  0  0  0  0  0  0  0  0  0  0
    3.0579    2.0694   -0.2107 C   0  0  0  0  0  0  0  0  0  0  0  0
    2.0420   -1.1478   -0.5212 H   0  0  0  0  0  0  0  0  0  0  0  0
    3.0934    0.6324   -1.8218 H   0  0  0  0  0  0  0  0  0  0  0  0
    3.1217    2.1001    0.8831 H   0  0  0  0  0  0  0  0  0  0  0  0
    3.8661    2.6933   -0.6065 H   0  0  0  0  0  0  0  0  0  0  0  0
    2.1039    2.5225   -0.5008 H   0  0  0  0  0  0  0  0  0  0  0  0
    5.5403    0.4156   -1.0648 N   0  0  0  0  0  0  0  0  0  0  0  0
    6.8904   -0.0456   -0.8400 C   0  0  0  0  0  0  0  0  0  0  0  0
    5.3776    1.0421   -1.8476 H   0  0  0  0  0  0  0  0  0  0  0  0
    7.4096    0.6524   -0.1669 H   0  0  0  0  0  0  0  0  0  0  0  0
    6.8647   -1.0455   -0.3822 H   0  0  0  0  0  0  0  0  0  0  0  0
    7.4253   -0.0955   -1.7999 H   0  0  0  0  0  0  0  0  0  0  0  0
  1  3  1  0  0  0  0
  1  7  1  0  0  0  0
  1  2  2  0  0  0  0
 18 19  1  0  0  0  0
 19 24  1  0  0  0  0
 19 20  2  0  0  0  0
 25 26  1  0  0  0  0
 26 34  1  0  0  0  0
 26 27  2  0  0  0  0
  8  9  1  0  0  0  0
  9 17  1  0  0  0  0
  9 10  2  0  0  0  0
 25 28  1  0  0  0  0
  8 11  1  0  0  0  0
 34 35  1  0  0  0  0
 17 18  1  0  0  0  0
 24 25  1  0  0  0  0
  7  8  1  0  0  0  0
  3  4  1  0  0  0  0
  3  5  1  0  0  0  0
  3  6  1  0  0  0  0
 28 31  1  0  0  0  0
 28 32  1  0  0  0  0
 28 33  1  0  0  0  0
 11 14  1  0  0  0  0
 11 15  1  0  0  0  0
 11 16  1  0  0  0  0
 35 37  1  0  0  0  0
 35 38  1  0  0  0  0
 35 39  1  0  0  0  0
 18 22  1  0  0  0  0
 18 23  1  0  0  0  0
 25 30  1  0  0  0  0
  8 13  1  0  0  0  0
 34 36  1  0  0  0  0
 17 21  1  0  0  0  0
  7 12  1  0  0  0  0
 24 29  1  0  0  0  0
M  END
$$$$

  -OEChem-05262214473D

 39 38  0     1  0  0  0  0  0999 V2000
   -3.5200   -4.0268   -1.6943 C   0  0  0  0  0  0  0  0  0  0  0  0
   -2.8702   -4.8827   -1.1054 O   0  0  0  0  0  0  0  0  0  0  0  0
   -4.9704   -4.2579   -1.9614 C   0  0  0  0  0  0  0  0  0  0  0  0
   -5.1456   -4.7573   -2.9278 H   0  0  0  0  0  0  0  0  0  0  0  0
   -5.4379   -4.9112   -1.2072 H   0  0  0  0  0  0  0  0  0  0  0  0
   -5.5954   -3.3510   -1.9864 H   0  0  0  0  0  0  0  0  0  0  0  0
   -3.0424   -2.8131   -2.1606 N   0  0  0  0  0  0  0  0  0  0  0  0
   -1.6755   -2.3891   -2.0077 C   0  0  2  0  0  0  0  0  0  0  0  0
   -1.5782   -1.5673   -0.7292 C   0  0  0  0  0  0  0  0  0  0  0  0
   -2.5448   -1.0064   -0.2171 O   0  0  0  0  0  0  0  0  0  0  0  0
   -1.2087   -1.5823   -3.2094 C   0  0  0  0  0  0  0  0  0  0  0  0
   -3.6915   -2.1888   -2.6360 H   0  0  0  0  0  0  0  0  0  0  0  0
   -1.0721   -3.2977   -1.9053 H   0  0  0  0  0  0  0  0  0  0  0  0
   -1.8017   -0.6681   -3.3281 H   0  0  0  0  0  0  0  0  0  0  0  0
   -0.1601   -1.2849   -3.1045 H   0  0  0  0  0  0  0  0  0  0  0  0
   -1.3074   -2.1646   -4.1319 H   0  0  0  0  0  0  0  0  0  0  0  0
   -0.2835   -1.5112   -0.2725 N   0  0  0  0  0  0  0  0  0  0  0  0
    0.0769   -0.7658    0.9424 C   0  0  0  0  0  0  0  0  0  0  0  0
    1.0749    0.3101    0.5982 C   0  0  0  0  0  0  0  0  0  0  0  0
    1.1584    1.3740    1.2061 O   0  0  0  0  0  0  0  0  0  0  0  0
    0.4587   -2.0097   -0.7289 H   0  0  0  0  0  0  0  0  0  0  0  0
    0.5143   -1.4546    1.6712 H   0  0  0  0  0  0  0  0  0  0  0  0
   -0.8242   -0.3136    1.3670 H   0  0  0  0  0  0  0  0  0  0  0  0
    1.8709   -0.0565   -0.4819 N   0  0  0  0  0  0  0  0  0  0  0  0
    2.9060    0.7825   -1.0260 C   0  0  2  0  0  0  0  0  0  0  0  0
    4.2188    0.0133   -0.9584 C   0  0  0  0  0  0  0  0  0  0  0  0
    4.4118   -0.9170   -0.1785 O   0  0  0  0  0  0  0  0  0  0  0  0
    3.0071    2.0978   -0.2694 C   0  0  0  0  0  0  0  0  0  0  0  0
    1.7128   -0.9670   -0.9105 H   0  0  0  0  0  0  0  0  0  0  0  0
    2.6445    0.9684   -2.0734 H   0  0  0  0  0  0  0  0  0  0  0  0
    3.2684    1.9317    0.7821 H   0  0  0  0  0  0  0  0  0  0  0  0
    3.7756    2.7466   -0.7024 H   0  0  0  0  0  0  0  0  0  0  0  0
    2.0532    2.6357   -0.2939 H   0  0  0  0  0  0  0  0  0  0  0  0
    5.1642    0.5160   -1.8415 N   0  0  0  0  0  0  0  0  0  0  0  0
    6.4941   -0.0354   -1.9568 C   0  0  0  0  0  0  0  0  0  0  0  0
    4.9112    1.2775   -2.4642 H   0  0  0  0  0  0  0  0  0  0  0  0
    7.1768    0.5096   -1.2883 H   0  0  0  0  0  0  0  0  0  0  0  0
    6.4759   -1.0984   -1.6748 H   0  0  0  0  0  0  0  0  0  0  0  0
    6.8426    0.0625   -2.9955 H   0  0  0  0  0  0  0  0  0  0  0  0
  1  3  1  0  0  0  0
  1  7  1  0  0  0  0
  1  2  2  0  0  0  0
 18 19  1  0  0  0  0
 19 24  1  0  0  0  0
 19 20  2  0  0  0  0
 25 26  1  0  0  0  0
 26 34  1  0  0  0  0
 26 27  2  0  0  0  0
  8  9  1  0  0  0  0
  9 17  1  0  0  0  0
  9 10  2  0  0  0  0
 25 28  1  0  0  0  0
  8 11  1  0  0  0  0
 34 35  1  0  0  0  0
 17 18  1  0  0  0  0
 24 25  1  0  0  0  0
  7  8  1  0  0  0  0
  3  4  1  0  0  0  0
  3  5  1  0  0  0  0
  3  6  1  0  0  0  0
 28 31  1  0  0  0  0
 28 32  1  0  0  0  0
 28 33  1  0  0  0  0
 11 14  1  0  0  0  0
 11 15  1  0  0  0  0
 11 16  1  0  0  0  0
 35 37  1  0  0  0  0
 35 38  1  0  0  0  0
 35 39  1  0  0  0  0
 18 22  1  0  0  0  0
 18 23  1  0  0  0  0
 25 30  1  0  0  0  0
  8 13  1  0  0  0  0
 34 36  1  0  0  0  0
 17 21  1  0  0  0  0
  7 12  1  0  0  0  0
 24 29  1  0  0  0  0
M  END
$$$$

  -OEChem-05262214473D

 39 38  0     1  0  0  0  0  0999 V2000
   -3.5200   -4.0268   -1.6943 C   0  0  0  0  0  0  0  0  0  0  0  0
   -2.8702   -4.8827   -1.1054 O   0  0  0  0  0  0  0  0  0  0  0  0
   -4.9704   -4.2579   -1.9614 C   0  0  0  0  0  0  0  0  0  0  0  0
   -5.1456   -4.7573   -2.9278 H   0  0  0  0  0  0  0  0  0  0  0  0
   -5.4379   -4.9112   -1.2072 H   0  0  0  0  0  0  0  0  0  0  0  0
   -5.5954   -3.3510   -1.9864 H   0  0  0  0  0  0  0  0  0  0  0  0
   -3.0424   -2.8131   -2.1606 N   0  0  0  0  0  0  0  0  0  0  0  0
   -1.6755   -2.3891   -2.0077 C   0  0  2  0  0  0  0  0  0  0  0  0
   -1.5782   -1.5673   -0.7292 C   0  0  0  0  0  0  0  0  0  0  0  0
   -2.5448   -1.0064   -0.2171 O   0  0  0  0  0  0  0  0  0  0  0  0
   -1.2087   -1.5823   -3.2094 C   0  0  0  0  0  0  0  0  0  0  0  0
   -3.6915   -2.1888   -2.6360 H   0  0  0  0  0  0  0  0  0  0  0  0
   -1.0721   -3.2977   -1.9053 H   0  0  0  0  0  0  0  0  0  0  0  0
   -1.8017   -0.6681   -3.3281 H   0  0  0  0  0  0  0  0  0  0  0  0
   -0.1601   -1.2849   -3.1045 H   0  0  0  0  0  0  0  0  0  0  0  0
   -1.3074   -2.1646   -4.1319 H   0  0  0  0  0  0  0  0  0  0  0  0
   -0.2835   -1.5112   -0.2725 N   0  0  0  0  0  0  0  0  0  0  0  0
    0.0769   -0.7658    0.9424 C   0  0  0  0  0  0  0  0  0  0  0  0
    1.0749    0.3101    0.5982 C   0  0  0  0  0  0  0  0  0  0  0  0
    1.3460    1.2451    1.3470 O   0  0  0  0  0  0  0  0  0  0  0  0
    0.4587   -2.0097   -0.7289 H   0  0  0  0  0  0  0  0  0  0  0  0
    0.5143   -1.4546    1.6712 H   0  0  0  0  0  0  0  0  0  0  0  0
   -0.8242   -0.3136    1.3670 H   0  0  0  0  0  0  0  0  0  0  0  0
    1.6341    0.1065   -0.6589 N   0  0  0  0  0  0  0  0  0  0  0  0
    2.6148    0.9832   -1.2429 C   0  0  2  0  0  0  0  0  0  0  0  0
    3.8568    0.1585   -1.5543 C   0  0  0  0  0  0  0  0  0  0  0  0
    4.1161   -0.9026   -0.9905 O   0  0  0  0  0  0  0  0  0  0  0  0
    2.9488    2.1383   -0.3119 C   0  0  0  0  0  0  0  0  0  0  0  0
    1.3336   -0.7061   -1.1946 H   0  0  0  0  0  0  0  0  0  0  0  0
    2.1842    1.3625   -2.1760 H   0  0  0  0  0  0  0  0  0  0  0  0
    3.3814    1.7777    0.6285 H   0  0  0  0  0  0  0  0  0  0  0  0
    3.6736    2.8198   -0.7692 H   0  0  0  0  0  0  0  0  0  0  0  0
    2.0492    2.7126   -0.0652 H   0  0  0  0  0  0  0  0  0  0  0  0
    4.6633    0.7683   -2.5050 N   0  0  0  0  0  0  0  0  0  0  0  0
    5.9056    0.1894   -2.9606 C   0  0  0  0  0  0  0  0  0  0  0  0
    4.3606    1.6381   -2.9334 H   0  0  0  0  0  0  0  0  0  0  0  0
    6.7362    0.5776   -2.3529 H   0  0  0  0  0  0  0  0  0  0  0  0
    5.8584   -0.9051   -2.8605 H   0  0  0  0  0  0  0  0  0  0  0  0
    6.0683    0.4543   -4.0157 H   0  0  0  0  0  0  0  0  0  0  0  0
  1  3  1  0  0  0  0
  1  7  1  0  0  0  0
  1  2  2  0  0  0  0
 18 19  1  0  0  0  0
 19 24  1  0  0  0  0
 19 20  2  0  0  0  0
 25 26  1  0  0  0  0
 26 34  1  0  0  0  0
 26 27  2  0  0  0  0
  8  9  1  0  0  0  0
  9 17  1  0  0  0  0
  9 10  2  0  0  0  0
 25 28  1  0  0  0  0
  8 11  1  0  0  0  0
 34 35  1  0  0  0  0
 17 18  1  0  0  0  0
 24 25  1  0  0  0  0
  7  8  1  0  0  0  0
  3  4  1  0  0  0  0
  3  5  1  0  0  0  0
  3  6  1  0  0  0  0
 28 31  1  0  0  0  0
 28 32  1  0  0  0  0
 28 33  1  0  0  0  0
 11 14  1  0  0  0  0
 11 15  1  0  0  0  0
 11 16  1  0  0  0  0
 35 37  1  0  0  0  0
 35 38  1  0  0  0  0
 35 39  1  0  0  0  0
 18 22  1  0  0  0  0
 18 23  1  0  0  0  0
 25 30  1  0  0  0  0
  8 13  1  0  0  0  0
 34 36  1  0  0  0  0
 17 21  1  0  0  0  0
  7 12  1  0  0  0  0
 24 29  1  0  0  0  0
M  END
$$$$

  -OEChem-05262214473D

 39 38  0     1  0  0  0  0  0999 V2000
   -3.5200   -4.0268   -1.6943 C   0  0  0  0  0  0  0  0  0  0  0  0
   -2.8702   -4.8827   -1.1054 O   0  0  0  0  0  0  0  0  0  0  0  0
   -4.9704   -4.2579   -1.9614 C   0  0  0  0  0  0  0  0  0  0  0  0
   -5.1456   -4.7573   -2.9278 H   0  0  0  0  0  0  0  0  0  0  0  0
   -5.4379   -4.9112   -1.2072 H   0  0  0  0  0  0  0  0  0  0  0  0
   -5.5954   -3.3510   -1.9864 H   0  0  0  0  0  0  0  0  0  0  0  0
   -3.0424   -2.8131   -2.1606 N   0  0  0  0  0  0  0  0  0  0  0  0
   -1.6755   -2.3891   -2.0077 C   0  0  2  0  0  0  0  0  0  0  0  0
   -1.5782   -1.5673   -0.7292 C   0  0  0  0  0  0  0  0  0  0  0  0
   -2.5448   -1.0064   -0.2171 O   0  0  0  0  0  0  0  0  0  0  0  0
   -1.2087   -1.5823   -3.2094 C   0  0  0  0  0  0  0  0  0  0  0  0
   -3.6915   -2.1888   -2.6360 H   0  0  0  0  0  0  0  0  0  0  0  0
   -1.0721   -3.2977   -1.9053 H   0  0  0  0  0  0  0  0  0  0  0  0
   -1.8017   -0.6681   -3.3281 H   0  0  0  0  0  0  0  0  0  0  0  0
   -0.1601   -1.2849   -3.1045 H   0  0  0  0  0  0  0  0  0  0  0  0
   -1.3074   -2.1646   -4.1319 H   0  0  0  0  0  0  0  0  0  0  0  0
   -0.2835   -1.5112   -0.2725 N   0  0  0  0  0  0  0  0  0  0  0  0
    0.0769   -0.7658    0.9424 C   0  0  0  0  0  0  0  0  0  0  0  0
    1.0749    0.3101    0.5982 C   0  0  0  0  0  0  0  0  0  0  0  0
    1.5456    1.0853    1.4264 O   0  0  0  0  0  0  0  0  0  0  0  0
    0.4587   -2.0097   -0.7289 H   0  0  0  0  0  0  0  0  0  0  0  0
    0.5143   -1.4546    1.6712 H   0  0  0  0  0  0  0  0  0  0  0  0
   -0.8242   -0.3136    1.3670 H   0  0  0  0  0  0  0  0  0  0  0  0
    1.3824    0.3083   -0.7583 N   0  0  0  0  0  0  0  0  0  0  0  0
    2.3053    1.2314   -1.3643 C   0  0  2  0  0  0  0  0  0  0  0  0
    3.4056    0.4222   -2.0382 C   0  0  0  0  0  0  0  0  0  0  0  0
    3.6814   -0.7320   -1.7177 O   0  0  0  0  0  0  0  0  0  0  0  0
    2.8870    2.1881   -0.3351 C   0  0  0  0  0  0  0  0  0  0  0  0
    0.9303   -0.3831   -1.3544 H   0  0  0  0  0  0  0  0  0  0  0  0
    1.7439    1.7880   -2.1226 H   0  0  0  0  0  0  0  0  0  0  0  0
    3.4531    1.6486    0.4329 H   0  0  0  0  0  0  0  0  0  0  0  0
    3.5671    2.9080   -0.8024 H   0  0  0  0  0  0  0  0  0  0  0  0
    2.0922    2.7479    0.1696 H   0  0  0  0  0  0  0  0  0  0  0  0
    4.0718    1.1553   -3.0102 N   0  0  0  0  0  0  0  0  0  0  0  0
    5.1650    0.6132   -3.7830 C   0  0  0  0  0  0  0  0  0  0  0  0
    3.7634    2.0994   -3.2230 H   0  0  0  0  0  0  0  0  0  0  0  0
    6.1181    0.8517   -3.2882 H   0  0  0  0  0  0  0  0  0  0  0  0
    5.0544   -0.4786   -3.8586 H   0  0  0  0  0  0  0  0  0  0  0  0
    5.1550    1.0535   -4.7910 H   0  0  0  0  0  0  0  0  0  0  0  0
  1  3  1  0  0  0  0
  1  7  1  0  0  0  0
  1  2  2  0  0  0  0
 18 19  1  0  0  0  0
 19 24  1  0  0  0  0
 19 20  2  0  0  0  0
 25 26  1  0  0  0  0
 26 34  1  0  0  0  0
 26 27  2  0  0  0  0
  8  9  1  0  0  0  0
  9 17  1  0  0  0  0
  9 10  2  0  0  0  0
 25 28  1  0  0  0  0
  8 11  1  0  0  0  0
 34 35  1  0  0  0  0
 17 18  1  0  0  0  0
 24 25  1  0  0  0  0
  7  8  1  0  0  0  0
  3  4  1  0  0  0  0
  3  5  1  0  0  0  0
  3  6  1  0  0  0  0
 28 31  1  0  0  0  0
 28 32  1  0  0  0  0
 28 33  1  0  0  0  0
 11 14  1  0  0  0  0
 11 15  1  0  0  0  0
 11 16  1  0  0  0  0
 35 37  1  0  0  0  0
 35 38  1  0  0  0  0
 35 39  1  0  0  0  0
 18 22  1  0  0  0  0
 18 23  1  0  0  0  0
 25 30  1  0  0  0  0
  8 13  1  0  0  0  0
 34 36  1  0  0  0  0
 17 21  1  0  0  0  0
  7 12  1  0  0  0  0
 24 29  1  0  0  0  0
M  END
$$$$

  -OEChem-05262214473D

 39 38  0     1  0  0  0  0  0999 V2000
   -3.5200   -4.0268   -1.6943 C   0  0  0  0  0  0  0  0  0  0  0  0
   -2.8702   -4.8827   -1.1054 O   0  0  0  0  0  0  0  0  0  0  0  0
   -4.9704   -4.2579   -1.9614 C   0  0  0  0  0  0  0  0  0  0  0  0
   -5.1456   -4.7573   -2.9278 H   0  0  0  0  0  0  0  0  0  0  0  0
   -5.4379   -4.9112   -1.2072 H   0  0  0  0  0  0  0  0  0  0  0  0
   -5.5954   -3.3510   -1.9864 H   0  0  0  0  0  0  0  0  0  0  0  0
   -3.0424   -2.8131   -2.1606 N   0  0  0  0  0  0  0  0  0  0  0  0
   -1.6755   -2.3891   -2.0077 C   0  0  2  0  0  0  0  0  0  0  0  0
   -1.5782   -1.5673   -0.7292 C   0  0  0  0  0  0  0  0  0  0  0  0
   -2.5448   -1.0064   -0.2171 O   0  0  0  0  0  0  0  0  0  0  0  0
   -1.2087   -1.5823   -3.2094 C   0  0  0  0  0  0  0  0  0  0  0  0
   -3.6915   -2.1888   -2.6360 H   0  0  0  0  0  0  0  0  0  0  0  0
   -1.0721   -3.2977   -1.9053 H   0  0  0  0  0  0  0  0  0  0  0  0
   -1.8017   -0.6681   -3.3281 H   0  0  0  0  0  0  0  0  0  0  0  0
   -0.1601   -1.2849   -3.1045 H   0  0  0  0  0  0  0  0  0  0  0  0
   -1.3074   -2.1646   -4.1319 H   0  0  0  0  0  0  0  0  0  0  0  0
   -0.2835   -1.5112   -0.2725 N   0  0  0  0  0  0  0  0  0  0  0  0
    0.0769   -0.7658    0.9424 C   0  0  0  0  0  0  0  0  0  0  0  0
    1.0749    0.3101    0.5982 C   0  0  0  0  0  0  0  0  0  0  0  0
    1.7436    0.9056    1.4388 O   0  0  0  0  0  0  0  0  0  0  0  0
    0.4587   -2.0097   -0.7289 H   0  0  0  0  0  0  0  0  0  0  0  0
    0.5143   -1.4546    1.6712 H   0  0  0  0  0  0  0  0  0  0  0  0
   -0.8242   -0.3136    1.3670 H   0  0  0  0  0  0  0  0  0  0  0  0
    1.1327    0.5351   -0.7731 N   0  0  0  0  0  0  0  0  0  0  0  0
    1.9987    1.5103   -1.3818 C   0  0  2  0  0  0  0  0  0  0  0  0
    2.8960    0.7865   -2.3770 C   0  0  0  0  0  0  0  0  0  0  0  0
    3.1373   -0.4170   -2.3107 O   0  0  0  0  0  0  0  0  0  0  0  0
    2.8260    2.2439   -0.3377 C   0  0  0  0  0  0  0  0  0  0  0  0
    0.5303   -0.0198   -1.3788 H   0  0  0  0  0  0  0  0  0  0  0  0
    1.3537    2.2159   -1.9167 H   0  0  0  0  0  0  0  0  0  0  0  0
    3.4786    1.5532    0.2086 H   0  0  0  0  0  0  0  0  0  0  0  0
    3.4633    3.0052   -0.7996 H   0  0  0  0  0  0  0  0  0  0  0  0
    2.1791    2.7392    0.3945 H   0  0  0  0  0  0  0  0  0  0  0  0
    3.4300    1.6507   -3.3226 N   0  0  0  0  0  0  0  0  0  0  0  0
    4.3228    1.2074   -4.3678 C   0  0  0  0  0  0  0  0  0  0  0  0
    3.1603    2.6299   -3.3134 H   0  0  0  0  0  0  0  0  0  0  0  0
    5.3644    1.3134   -4.0305 H   0  0  0  0  0  0  0  0  0  0  0  0
    4.1186    0.1519   -4.6011 H   0  0  0  0  0  0  0  0  0  0  0  0
    4.1651    1.8190   -5.2684 H   0  0  0  0  0  0  0  0  0  0  0  0
  1  3  1  0  0  0  0
  1  7  1  0  0  0  0
  1  2  2  0  0  0  0
 18 19  1  0  0  0  0
 19 24  1  0  0  0  0
 19 20  2  0  0  0  0
 25 26  1  0  0  0  0
 26 34  1  0  0  0  0
 26 27  2  0  0  0  0
  8  9  1  0  0  0  0
  9 17  1  0  0  0  0
  9 10  2  0  0  0  0
 25 28  1  0  0  0  0
  8 11  1  0  0  0  0
 34 35  1  0  0  0  0
 17 18  1  0  0  0  0
 24 25  1  0  0  0  0
  7  8  1  0  0  0  0
  3  4  1  0  0  0  0
  3  5  1  0  0  0  0
  3  6  1  0  0  0  0
 28 31  1  0  0  0  0
 28 32  1  0  0  0  0
 28 33  1  0  0  0  0
 11 14  1  0  0  0  0
 11 15  1  0  0  0  0
 11 16  1  0  0  0  0
 35 37  1  0  0  0  0
 35 38  1  0  0  0  0
 35 39  1  0  0  0  0
 18 22  1  0  0  0  0
 18 23  1  0  0  0  0
 25 30  1  0  0  0  0
  8 13  1  0  0  0  0
 34 36  1  0  0  0  0
 17 21  1  0  0  0  0
  7 12  1  0  0  0  0
 24 29  1  0  0  0  0
M  END
$$$$

  -OEChem-05262214473D

 39 38  0     1  0  0  0  0  0999 V2000
   -3.5200   -4.0268   -1.6943 C   0  0  0  0  0  0  0  0  0  0  0  0
   -2.8702   -4.8827   -1.1054 O   0  0  0  0  0  0  0  0  0  0  0  0
   -4.9704   -4.2579   -1.9614 C   0  0  0  0  0  0  0  0  0  0  0  0
   -5.1456   -4.7573   -2.9278 H   0  0  0  0  0  0  0  0  0  0  0  0
   -5.4379   -4.9112   -1.2072 H   0  0  0  0  0  0  0  0  0  0  0  0
   -5.5954   -3.3510   -1.9864 H   0  0  0  0  0  0  0  0  0  0  0  0
   -3.0424   -2.8131   -2.1606 N   0  0  0  0  0  0  0  0  0  0  0  0
   -1.6755   -2.3891   -2.0077 C   0  0  2  0  0  0  0  0  0  0  0  0
   -1.5782   -1.5673   -0.7292 C   0  0  0  0  0  0  0  0  0  0  0  0
   -2.5448   -1.0064   -0.2171 O   0  0  0  0  0  0  0  0  0  0  0  0
   -1.2087   -1.5823   -3.2094 C   0  0  0  0  0  0  0  0  0  0  0  0
   -3.6915   -2.1888   -2.6360 H   0  0  0  0  0  0  0  0  0  0  0  0
   -1.0721   -3.2977   -1.9053 H   0  0  0  0  0  0  0  0  0  0  0  0
   -1.8017   -0.6681   -3.3281 H   0  0  0  0  0  0  0  0  0  0  0  0
   -0.1601   -1.2849   -3.1045 H   0  0  0  0  0  0  0  0  0  0  0  0
   -1.3074   -2.1646   -4.1319 H   0  0  0  0  0  0  0  0  0  0  0  0
   -0.2835   -1.5112   -0.2725 N   0  0  0  0  0  0  0  0  0  0  0  0
    0.0769   -0.7658    0.9424 C   0  0  0  0  0  0  0  0  0  0  0  0
    1.0749    0.3101    0.5982 C   0  0  0  0  0  0  0  0  0  0  0  0
    1.9266    0.7182    1.3834 O   0  0  0  0  0  0  0  0  0  0  0  0
    0.4587   -2.0097   -0.7289 H   0  0  0  0  0  0  0  0  0  0  0  0
    0.5143   -1.4546    1.6712 H   0  0  0  0  0  0  0  0  0  0  0  0
   -0.8242   -0.3136    1.3670 H   0  0  0  0  0  0  0  0  0  0  0  0
    0.9023    0.7714   -0.7025 N   0  0  0  0  0  0  0  0  0  0  0  0
    1.7157    1.8008   -1.2942 C   0  0  2  0  0  0  0  0  0  0  0  0
    2.3627    1.2266   -2.5477 C   0  0  0  0  0  0  0  0  0  0  0  0
    2.5208    0.0211   -2.7289 O   0  0  0  0  0  0  0  0  0  0  0  0
    2.7698    2.3019   -0.3193 C   0  0  0  0  0  0  0  0  0  0  0  0
    0.1609    0.3589   -1.2662 H   0  0  0  0  0  0  0  0  0  0  0  0
    1.0401    2.6170   -1.5724 H   0  0  0  0  0  0  0  0  0  0  0  0
    3.4561    1.4979   -0.0291 H   0  0  0  0  0  0  0  0  0  0  0  0
    3.3693    3.1047   -0.7611 H   0  0  0  0  0  0  0  0  0  0  0  0
    2.3041    2.6872    0.5942 H   0  0  0  0  0  0  0  0  0  0  0  0
    2.7817    2.2207   -3.4209 N   0  0  0  0  0  0  0  0  0  0  0  0
    3.4363    1.9313   -4.6754 C   0  0  0  0  0  0  0  0  0  0  0  0
    2.5925    3.1935   -3.1984 H   0  0  0  0  0  0  0  0  0  0  0  0
    4.5265    1.9310   -4.5292 H   0  0  0  0  0  0  0  0  0  0  0  0
    3.1148    0.9435   -5.0373 H   0  0  0  0  0  0  0  0  0  0  0  0
    3.1659    2.6988   -5.4155 H   0  0  0  0  0  0  0  0  0  0  0  0
  1  3  1  0  0  0  0
  1  7  1  0  0  0  0
  1  2  2  0  0  0  0
 18 19  1  0  0  0  0
 19 24  1  0  0  0  0
 19 20  2  0  0  0  0
 25 26  1  0  0  0  0
 26 34  1  0  0  0  0
 26 27  2  0  0  0  0
  8  9  1  0  0  0  0
  9 17  1  0  0  0  0
  9 10  2  0  0  0  0
 25 28  1  0  0  0  0
  8 11  1  0  0  0  0
 34 35  1  0  0  0  0
 17 18  1  0  0  0  0
 24 25  1  0  0  0  0
  7  8  1  0  0  0  0
  3  4  1  0  0  0  0
  3  5  1  0  0  0  0
  3  6  1  0  0  0  0
 28 31  1  0  0  0  0
 28 32  1  0  0  0  0
 28 33  1  0  0  0  0
 11 14  1  0  0  0  0
 11 15  1  0  0  0  0
 11 16  1  0  0  0  0
 35 37  1  0  0  0  0
 35 38  1  0  0  0  0
 35 39  1  0  0  0  0
 18 22  1  0  0  0  0
 18 23  1  0  0  0  0
 25 30  1  0  0  0  0
  8 13  1  0  0  0  0
 34 36  1  0  0  0  0
 17 21  1  0  0  0  0
  7 12  1  0  0  0  0
 24 29  1  0  0  0  0
M  END
$$$$

  -OEChem-05262214473D

 39 38  0     1  0  0  0  0  0999 V2000
   -3.5200   -4.0268   -1.6943 C   0  0  0  0  0  0  0  0  0  0  0  0
   -2.8702   -4.8827   -1.1054 O   0  0  0  0  0  0  0  0  0  0  0  0
   -4.9704   -4.2579   -1.9614 C   0  0  0  0  0  0  0  0  0  0  0  0
   -5.1456   -4.7573   -2.9278 H   0  0  0  0  0  0  0  0  0  0  0  0
   -5.4379   -4.9112   -1.2072 H   0  0  0  0  0  0  0  0  0  0  0  0
   -5.5954   -3.3510   -1.9864 H   0  0  0  0  0  0  0  0  0  0  0  0
   -3.0424   -2.8131   -2.1606 N   0  0  0  0  0  0  0  0  0  0  0  0
   -1.6755   -2.3891   -2.0077 C   0  0  2  0  0  0  0  0  0  0  0  0
   -1.5782   -1.5673   -0.7292 C   0  0  0  0  0  0  0  0  0  0  0  0
   -2.5448   -1.0064   -0.2171 O   0  0  0  0  0  0  0  0  0  0  0  0
   -1.2087   -1.5823   -3.2094 C   0  0  0  0  0  0  0  0  0  0  0  0
   -3.6915   -2.1888   -2.6360 H   0  0  0  0  0  0  0  0  0  0  0  0
   -1.0721   -3.2977   -1.9053 H   0  0  0  0  0  0  0  0  0  0  0  0
   -1.8017   -0.6681   -3.3281 H   0  0  0  0  0  0  0  0  0  0  0  0
   -0.1601   -1.2849   -3.1045 H   0  0  0  0  0  0  0  0  0  0  0  0
   -1.3074   -2.1646   -4.1319 H   0  0  0  0  0  0  0  0  0  0  0  0
   -0.2835   -1.5112   -0.2725 N   0  0  0  0  0  0  0  0  0  0  0  0
    0.0769   -0.7658    0.9424 C   0  0  0  0  0  0  0  0  0  0  0  0
    1.0749    0.3101    0.5982 C   0  0  0  0  0  0  0  0  0  0  0  0
    2.0820    0.5358    1.2640 O   0  0  0  0  0  0  0  0  0  0  0  0
    0.4587   -2.0097   -0.7289 H   0  0  0  0  0  0  0  0  0  0  0  0
    0.5143   -1.4546    1.6712 H   0  0  0  0  0  0  0  0  0  0  0  0
   -0.8242   -0.3136    1.3670 H   0  0  0  0  0  0  0  0  0  0  0  0
    0.7067    1.0013   -0.5513 N   0  0  0  0  0  0  0  0  0  0  0  0
    1.4758    2.0831   -1.1076 C   0  0  2  0  0  0  0  0  0  0  0  0
    1.8420    1.7125   -2.5387 C   0  0  0  0  0  0  0  0  0  0  0  0
    1.8739    0.5524   -2.9439 O   0  0  0  0  0  0  0  0  0  0  0  0
    2.7225    2.3580   -0.2813 C   0  0  0  0  0  0  0  0  0  0  0  0
   -0.1528    0.7272   -1.0244 H   0  0  0  0  0  0  0  0  0  0  0  0
    0.8245    2.9640   -1.1132 H   0  0  0  0  0  0  0  0  0  0  0  0
    3.3873    1.4867   -0.2640 H   0  0  0  0  0  0  0  0  0  0  0  0
    3.2915    3.1998   -0.6895 H   0  0  0  0  0  0  0  0  0  0  0  0
    2.4587    2.5953    0.7550 H   0  0  0  0  0  0  0  0  0  0  0  0
    2.1710    2.8264   -3.2984 N   0  0  0  0  0  0  0  0  0  0  0  0
    2.5660    2.7356   -4.6846 C   0  0  0  0  0  0  0  0  0  0  0  0
    2.0985    3.7517   -2.8858 H   0  0  0  0  0  0  0  0  0  0  0  0
    3.6616    2.6626   -4.7502 H   0  0  0  0  0  0  0  0  0  0  0  0
    2.1114    1.8423   -5.1376 H   0  0  0  0  0  0  0  0  0  0  0  0
    2.2257    3.6329   -5.2223 H   0  0  0  0  0  0  0  0  0  0  0  0
  1  3  1  0  0  0  0
  1  7  1  0  0  0  0
  1  2  2  0  0  0  0
 18 19  1  0  0  0  0
 19 24  1  0  0  0  0
 19 20  2  0  0  0  0
 25 26  1  0  0  0  0
 26 34  1  0  0  0  0
 26 27  2  0  0  0  0
  8  9  1  0  0  0  0
  9 17  1  0  0  0  0
  9 10  2  0  0  0  0
 25 28  1  0  0  0  0
  8 11  1  0  0  0  0
 34 35  1  0  0  0  0
 17 18  1  0  0  0  0
 24 25  1  0  0  0  0
  7  8  1  0  0  0  0
  3  4  1  0  0  0  0
  3  5  1  0  0  0  0
  3  6  1  0  0  0  0
 28 31  1  0  0  0  0
 28 32  1  0  0  0  0
 28 33  1  0  0  0  0
 11 14  1  0  0  0  0
 11 15  1  0  0  0  0
 11 16  1  0  0  0  0
 35 37  1  0  0  0  0
 35 38  1  0  0  0  0
 35 39  1  0  0  0  0
 18 22  1  0  0  0  0
 18 23  1  0  0  0  0
 25 30  1  0  0  0  0
  8 13  1  0  0  0  0
 34 36  1  0  0  0  0
 17 21  1  0  0  0  0
  7 12  1  0  0  0  0
 24 29  1  0  0  0  0
M  END
$$$$

  -OEChem-05262214473D

 39 38  0     1  0  0  0  0  0999 V2000
   -3.5200   -4.0268   -1.6943 C   0  0  0  0  0  0  0  0  0  0  0  0
   -2.8702   -4.8827   -1.1054 O   0  0  0  0  0  0  0  0  0  0  0  0
   -4.9704   -4.2579   -1.9614 C   0  0  0  0  0  0  0  0  0  0  0  0
   -5.1456   -4.7573   -2.9278 H   0  0  0  0  0  0  0  0  0  0  0  0
   -5.4379   -4.9112   -1.2072 H   0  0  0  0  0  0  0  0  0  0  0  0
   -5.5954   -3.3510   -1.9864 H   0  0  0  0  0  0  0  0  0  0  0  0
   -3.0424   -2.8131   -2.1606 N   0  0  0  0  0  0  0  0  0  0  0  0
   -1.6755   -2.3891   -2.0077 C   0  0  2  0  0  0  0  0  0  0  0  0
   -1.5782   -1.5673   -0.7292 C   0  0  0  0  0  0  0  0  0  0  0  0
   -2.5448   -1.0064   -0.2171 O   0  0  0  0  0  0  0  0  0  0  0  0
   -1.2087   -1.5823   -3.2094 C   0  0  0  0  0  0  0  0  0  0  0  0
   -3.6915   -2.1888   -2.6360 H   0  0  0  0  0  0  0  0  0  0  0  0
   -1.0721   -3.2977   -1.9053 H   0  0  0  0  0  0  0  0  0  0  0  0
   -1.8017   -0.6681   -3.3281 H   0  0  0  0  0  0  0  0  0  0  0  0
   -0.1601   -1.2849   -3.1045 H   0  0  0  0  0  0  0  0  0  0  0  0
   -1.3074   -2.1646   -4.1319 H   0  0  0  0  0  0  0  0  0  0  0  0
   -0.2835   -1.5112   -0.2725 N   0  0  0  0  0  0  0  0  0  0  0  0
    0.0769   -0.7658    0.9424 C   0  0  0  0  0  0  0  0  0  0  0  0
    1.0749    0.3101    0.5982 C   0  0  0  0  0  0  0  0  0  0  0  0
    2.1993    0.3709    1.0887 O   0  0  0  0  0  0  0  0  0  0  0  0
    0.4587   -2.0097   -0.7289 H   0  0  0  0  0  0  0  0  0  0  0  0
    0.5143   -1.4546    1.6712 H   0  0  0  0  0  0  0  0  0  0  0  0
   -0.8242   -0.3136    1.3670 H   0  0  0  0  0  0  0  0  0  0  0  0
    0.5593    1.2089   -0.3296 N   0  0  0  0  0  0  0  0  0  0  0  0
    1.2951    2.3381   -0.8346 C   0  0  2  0  0  0  0  0  0  0  0  0
    1.3695    2.2110   -2.3505 C   0  0  0  0  0  0  0  0  0  0  0  0
    1.2407    1.1407   -2.9411 O   0  0  0  0  0  0  0  0  0  0  0  0
    2.6870    2.4085   -0.2261 C   0  0  0  0  0  0  0  0  0  0  0  0
   -0.3893    1.0601   -0.6697 H   0  0  0  0  0  0  0  0  0  0  0  0
    0.7216    3.2331   -0.5703 H   0  0  0  0  0  0  0  0  0  0  0  0
    3.2767    1.5201   -0.4802 H   0  0  0  0  0  0  0  0  0  0  0  0
    3.2352    3.2840   -0.5896 H   0  0  0  0  0  0  0  0  0  0  0  0
    2.6322    2.4698    0.8661 H   0  0  0  0  0  0  0  0  0  0  0  0
    1.6396    3.4266   -2.9634 N   0  0  0  0  0  0  0  0  0  0  0  0
    1.7713    3.5656   -4.3950 C   0  0  0  0  0  0  0  0  0  0  0  0
    1.7122    4.2666   -2.3970 H   0  0  0  0  0  0  0  0  0  0  0  0
    2.8286    3.4583   -4.6786 H   0  0  0  0  0  0  0  0  0  0  0  0
    1.1768    2.7869   -4.8951 H   0  0  0  0  0  0  0  0  0  0  0  0
    1.4083    4.5577   -4.7018 H   0  0  0  0  0  0  0  0  0  0  0  0
  1  3  1  0  0  0  0
  1  7  1  0  0  0  0
  1  2  2  0  0  0  0
 18 19  1  0  0  0  0
 19 24  1  0  0  0  0
 19 20  2  0  0  0  0
 25 26  1  0  0  0  0
 26 34  1  0  0  0  0
 26 27  2  0  0  0  0
  8  9  1  0  0  0  0
  9 17  1  0  0  0  0
  9 10  2  0  0  0  0
 25 28  1  0  0  0  0
  8 11  1  0  0  0  0
 34 35  1  0  0  0  0
 17 18  1  0  0  0  0
 24 25  1  0  0  0  0
  7  8  1  0  0  0  0
  3  4  1  0  0  0  0
  3  5  1  0  0  0  0
  3  6  1  0  0  0  0
 28 31  1  0  0  0  0
 28 32  1  0  0  0  0
 28 33  1  0  0  0  0
 11 14  1  0  0  0  0
 11 15  1  0  0  0  0
 11 16  1  0  0  0  0
 35 37  1  0  0  0  0
 35 38  1  0  0  0  0
 35 39  1  0  0  0  0
 18 22  1  0  0  0  0
 18 23  1  0  0  0  0
 25 30  1  0  0  0  0
  8 13  1  0  0  0  0
 34 36  1  0  0  0  0
 17 21  1  0  0  0  0
  7 12  1  0  0  0  0
 24 29  1  0  0  0  0
M  END
$$$$

  -OEChem-05262214473D

 39 38  0     1  0  0  0  0  0999 V2000
   -3.5200   -4.0268   -1.6943 C   0  0  0  0  0  0  0  0  0  0  0  0
   -2.8702   -4.8827   -1.1054 O   0  0  0  0  0  0  0  0  0  0  0  0
   -4.9704   -4.2579   -1.9614 C   0  0  0  0  0  0  0  0  0  0  0  0
   -5.1456   -4.7573   -2.9278 H   0  0  0  0  0  0  0  0  0  0  0  0
   -5.4379   -4.9112   -1.2072 H   0  0  0  0  0  0  0  0  0  0  0  0
   -5.5954   -3.3510   -1.9864 H   0  0  0  0  0  0  0  0  0  0  0  0
   -3.0424   -2.8131   -2.1606 N   0  0  0  0  0  0  0  0  0  0  0  0
   -1.6755   -2.3891   -2.0077 C   0  0  2  0  0  0  0  0  0  0  0  0
   -1.5782   -1.5673   -0.7292 C   0  0  0  0  0  0  0  0  0  0  0  0
   -2.5448   -1.0064   -0.2171 O   0  0  0  0  0  0  0  0  0  0  0  0
   -1.2087   -1.5823   -3.2094 C   0  0  0  0  0  0  0  0  0  0  0  0
   -3.6915   -2.1888   -2.6360 H   0  0  0  0  0  0  0  0  0  0  0  0
   -1.0721   -3.2977   -1.9053 H   0  0  0  0  0  0  0  0  0  0  0  0
   -1.8017   -0.6681   -3.3281 H   0  0  0  0  0  0  0  0  0  0  0  0
   -0.1601   -1.2849   -3.1045 H   0  0  0  0  0  0  0  0  0  0  0  0
   -1.3074   -2.1646   -4.1319 H   0  0  0  0  0  0  0  0  0  0  0  0
   -0.2835   -1.5112   -0.2725 N   0  0  0  0  0  0  0  0  0  0  0  0
    0.0769   -0.7658    0.9424 C   0  0  0  0  0  0  0  0  0  0  0  0
    1.0749    0.3101    0.5982 C   0  0  0  0  0  0  0  0  0  0  0  0
    2.2704    0.2347    0.8694 O   0  0  0  0  0  0  0  0  0  0  0  0
    0.4587   -2.0097   -0.7289 H   0  0  0  0  0  0  0  0  0  0  0  0
    0.5143   -1.4546    1.6712 H   0  0  0  0  0  0  0  0  0  0  0  0
   -0.8242   -0.3136    1.3670 H   0  0  0  0  0  0  0  0  0  0  0  0
    0.4702    1.3802   -0.0527 N   0  0  0  0  0  0  0  0  0  0  0  0
    1.1861    2.5482   -0.4939 C   0  0  2  0  0  0  0  0  0  0  0  0
    0.9773    2.6883   -1.9960 C   0  0  0  0  0  0  0  0  0  0  0  0
    0.6645    1.7458   -2.7205 O   0  0  0  0  0  0  0  0  0  0  0  0
    2.6660    2.4499   -0.1577 C   0  0  0  0  0  0  0  0  0  0  0  0
   -0.5325    1.3349   -0.2264 H   0  0  0  0  0  0  0  0  0  0  0  0
    0.7384    3.4062    0.0192 H   0  0  0  0  0  0  0  0  0  0  0  0
    3.1319    1.5959   -0.6628 H   0  0  0  0  0  0  0  0  0  0  0  0
    3.2042    3.3515   -0.4684 H   0  0  0  0  0  0  0  0  0  0  0  0
    2.8130    2.3193    0.9199 H   0  0  0  0  0  0  0  0  0  0  0  0
    1.2236    3.9803   -2.4389 N   0  0  0  0  0  0  0  0  0  0  0  0
    1.1061    4.3647   -3.8261 C   0  0  0  0  0  0  0  0  0  0  0  0
    1.4597    4.7030   -1.7652 H   0  0  0  0  0  0  0  0  0  0  0  0
    2.0843    4.2638   -4.3192 H   0  0  0  0  0  0  0  0  0  0  0  0
    0.3746    3.7130   -4.3264 H   0  0  0  0  0  0  0  0  0  0  0  0
    0.7697    5.4100   -3.8897 H   0  0  0  0  0  0  0  0  0  0  0  0
  1  3  1  0  0  0  0
  1  7  1  0  0  0  0
  1  2  2  0  0  0  0
 18 19  1  0  0  0  0
 19 24  1  0  0  0  0
 19 20  2  0  0  0  0
 25 26  1  0  0  0  0
 26 34  1  0  0  0  0
 26 27  2  0  0  0  0
  8  9  1  0  0  0  0
  9 17  1  0  0  0  0
  9 10  2  0  0  0  0
 25 28  1  0  0  0  0
  8 11  1  0  0  0  0
 34 35  1  0  0  0  0
 17 18  1  0  0  0  0
 24 25  1  0  0  0  0
  7  8  1  0  0  0  0
  3  4  1  0  0  0  0
  3  5  1  0  0  0  0
  3  6  1  0  0  0  0
 28 31  1  0  0  0  0
 28 32  1  0  0  0  0
 28 33  1  0  0  0  0
 11 14  1  0  0  0  0
 11 15  1  0  0  0  0
 11 16  1  0  0  0  0
 35 37  1  0  0  0  0
 35 38  1  0  0  0  0
 35 39  1  0  0  0  0
 18 22  1  0  0  0  0
 18 23  1  0  0  0  0
 25 30  1  0  0  0  0
  8 13  1  0  0  0  0
 34 36  1  0  0  0  0
 17 21  1  0  0  0  0
  7 12  1  0  0  0  0
 24 29  1  0  0  0  0
M  END
$$$$

  -OEChem-05262214473D

 39 38  0     1  0  0  0  0  0999 V2000
   -3.5200   -4.0268   -1.6943 C   0  0  0  0  0  0  0  0  0  0  0  0
   -2.8702   -4.8827   -1.1054 O   0  0  0  0  0  0  0  0  0  0  0  0
   -4.9704   -4.2579   -1.9614 C   0  0  0  0  0  0  0  0  0  0  0  0
   -5.1456   -4.7573   -2.9278 H   0  0  0  0  0  0  0  0  0  0  0  0
   -5.4379   -4.9112   -1.2072 H   0  0  0  0  0  0  0  0  0  0  0  0
   -5.5954   -3.3510   -1.9864 H   0  0  0  0  0  0  0  0  0  0  0  0
   -3.0424   -2.8131   -2.1606 N   0  0  0  0  0  0  0  0  0  0  0  0
   -1.6755   -2.3891   -2.0077 C   0  0  2  0  0  0  0  0  0  0  0  0
   -1.5782   -1.5673   -0.7292 C   0  0  0  0  0  0  0  0  0  0  0  0
   -2.5448   -1.0064   -0.2171 O   0  0  0  0  0  0  0  0  0  0  0  0
   -1.2087   -1.5823   -3.2094 C   0  0  0  0  0  0  0  0  0  0  0  0
   -3.6915   -2.1888   -2.6360 H   0  0  0  0  0  0  0  0  0  0  0  0
   -1.0721   -3.2977   -1.9053 H   0  0  0  0  0  0  0  0  0  0  0  0
   -1.8017   -0.6681   -3.3281 H   0  0  0  0  0  0  0  0  0  0  0  0
   -0.1601   -1.2849   -3.1045 H   0  0  0  0  0  0  0  0  0  0  0  0
   -1.3074   -2.1646   -4.1319 H   0  0  0  0  0  0  0  0  0  0  0  0
   -0.2835   -1.5112   -0.2725 N   0  0  0  0  0  0  0  0  0  0  0  0
    0.0769   -0.7658    0.9424 C   0  0  0  0  0  0  0  0  0  0  0  0
    1.0749    0.3101    0.5982 C   0  0  0  0  0  0  0  0  0  0  0  0
    2.2906    0.1366    0.6211 O   0  0  0  0  0  0  0  0  0  0  0  0
    0.4587   -2.0097   -0.7289 H   0  0  0  0  0  0  0  0  0  0  0  0
    0.5143   -1.4546    1.6712 H   0  0  0  0  0  0  0  0  0  0  0  0
   -0.8242   -0.3136    1.3670 H   0  0  0  0  0  0  0  0  0  0  0  0
    0.4454    1.5035    0.2606 N   0  0  0  0  0  0  0  0  0  0  0  0
    1.1562    2.6992   -0.1087 C   0  0  2  0  0  0  0  0  0  0  0  0
    0.6922    3.1117   -1.4994 C   0  0  0  0  0  0  0  0  0  0  0  0
    0.1843    2.3266   -2.2974 O   0  0  0  0  0  0  0  0  0  0  0  0
    2.6608    2.4794   -0.0806 C   0  0  0  0  0  0  0  0  0  0  0  0
   -0.5728    1.5328    0.2754 H   0  0  0  0  0  0  0  0  0  0  0  0
    0.8737    3.4714    0.6152 H   0  0  0  0  0  0  0  0  0  0  0  0
    2.9628    1.7091   -0.7995 H   0  0  0  0  0  0  0  0  0  0  0  0
    3.2007    3.3978   -0.3339 H   0  0  0  0  0  0  0  0  0  0  0  0
    2.9886    2.1541    0.9126 H   0  0  0  0  0  0  0  0  0  0  0  0
    0.9514    4.4499   -1.7605 N   0  0  0  0  0  0  0  0  0  0  0  0
    0.6160    5.0783   -3.0169 C   0  0  0  0  0  0  0  0  0  0  0  0
    1.3583    5.0311   -1.0336 H   0  0  0  0  0  0  0  0  0  0  0  0
    1.4793    5.0243   -3.6964 H   0  0  0  0  0  0  0  0  0  0  0  0
   -0.2404    4.5575   -3.4701 H   0  0  0  0  0  0  0  0  0  0  0  0
    0.3532    6.1319   -2.8411 H   0  0  0  0  0  0  0  0  0  0  0  0
  1  3  1  0  0  0  0
  1  7  1  0  0  0  0
  1  2  2  0  0  0  0
 18 19  1  0  0  0  0
 19 24  1  0  0  0  0
 19 20  2  0  0  0  0
 25 26  1  0  0  0  0
 26 34  1  0  0  0  0
 26 27  2  0  0  0  0
  8  9  1  0  0  0  0
  9 17  1  0  0  0  0
  9 10  2  0  0  0  0
 25 28  1  0  0  0  0
  8 11  1  0  0  0  0
 34 35  1  0  0  0  0
 17 18  1  0  0  0  0
 24 25  1  0  0  0  0
  7  8  1  0  0  0  0
  3  4  1  0  0  0  0
  3  5  1  0  0  0  0
  3  6  1  0  0  0  0
 28 31  1  0  0  0  0
 28 32  1  0  0  0  0
 28 33  1  0  0  0  0
 11 14  1  0  0  0  0
 11 15  1  0  0  0  0
 11 16  1  0  0  0  0
 35 37  1  0  0  0  0
 35 38  1  0  0  0  0
 35 39  1  0  0  0  0
 18 22  1  0  0  0  0
 18 23  1  0  0  0  0
 25 30  1  0  0  0  0
  8 13  1  0  0  0  0
 34 36  1  0  0  0  0
 17 21  1  0  0  0  0
  7 12  1  0  0  0  0
 24 29  1  0  0  0  0
M  END
$$$$

  -OEChem-05262214473D

 39 38  0     1  0  0  0  0  0999 V2000
   -3.5200   -4.0268   -1.6943 C   0  0  0  0  0  0  0  0  0  0  0  0
   -2.8702   -4.8827   -1.1054 O   0  0  0  0  0  0  0  0  0  0  0  0
   -4.9704   -4.2579   -1.9614 C   0  0  0  0  0  0  0  0  0  0  0  0
   -5.1456   -4.7573   -2.9278 H   0  0  0  0  0  0  0  0  0  0  0  0
   -5.4379   -4.9112   -1.2072 H   0  0  0  0  0  0  0  0  0  0  0  0
   -5.5954   -3.3510   -1.9864 H   0  0  0  0  0  0  0  0  0  0  0  0
   -3.0424   -2.8131   -2.1606 N   0  0  0  0  0  0  0  0  0  0  0  0
   -1.6755   -2.3891   -2.0077 C   0  0  2  0  0  0  0  0  0  0  0  0
   -1.5782   -1.5673   -0.7292 C   0  0  0  0  0  0  0  0  0  0  0  0
   -2.5448   -1.0064   -0.2171 O   0  0  0  0  0  0  0  0  0  0  0  0
   -1.2087   -1.5823   -3.2094 C   0  0  0  0  0  0  0  0  0  0  0  0
   -3.6915   -2.1888   -2.6360 H   0  0  0  0  0  0  0  0  0  0  0  0
   -1.0721   -3.2977   -1.9053 H   0  0  0  0  0  0  0  0  0  0  0  0
   -1.8017   -0.6681   -3.3281 H   0  0  0  0  0  0  0  0  0  0  0  0
   -0.1601   -1.2849   -3.1045 H   0  0  0  0  0  0  0  0  0  0  0  0
   -1.3074   -2.1646   -4.1319 H   0  0  0  0  0  0  0  0  0  0  0  0
   -0.2835   -1.5112   -0.2725 N   0  0  0  0  0  0  0  0  0  0  0  0
    0.0769   -0.7658    0.9424 C   0  0  0  0  0  0  0  0  0  0  0  0
    1.0749    0.3101    0.5982 C   0  0  0  0  0  0  0  0  0  0  0  0
    2.2584    0.0832    0.3608 O   0  0  0  0  0  0  0  0  0  0  0  0
    0.4587   -2.0097   -0.7289 H   0  0  0  0  0  0  0  0  0  0  0  0
    0.5143   -1.4546    1.6712 H   0  0  0  0  0  0  0  0  0  0  0  0
   -0.8242   -0.3136    1.3670 H   0  0  0  0  0  0  0  0  0  0  0  0
    0.4866    1.5703    0.5889 N   0  0  0  0  0  0  0  0  0  0  0  0
    1.2074    2.7808    0.2949 C   0  0  2  0  0  0  0  0  0  0  0  0
    0.5336    3.4524   -0.8944 C   0  0  0  0  0  0  0  0  0  0  0  0
   -0.1669    2.8435   -1.7004 O   0  0  0  0  0  0  0  0  0  0  0  0
    2.6717    2.4951   -0.0001 C   0  0  0  0  0  0  0  0  0  0  0  0
   -0.5072    1.6403    0.8014 H   0  0  0  0  0  0  0  0  0  0  0  0
    1.1184    3.4242    1.1770 H   0  0  0  0  0  0  0  0  0  0  0  0
    2.7809    1.8518   -0.8808 H   0  0  0  0  0  0  0  0  0  0  0  0
    3.2249    3.4196   -0.1955 H   0  0  0  0  0  0  0  0  0  0  0  0
    3.1472    1.9853    0.8448 H   0  0  0  0  0  0  0  0  0  0  0  0
    0.8416    4.8033   -0.9744 N   0  0  0  0  0  0  0  0  0  0  0  0
    0.3342    5.6579   -2.0223 C   0  0  0  0  0  0  0  0  0  0  0  0
    1.4150    5.2287   -0.2519 H   0  0  0  0  0  0  0  0  0  0  0  0
    1.0549    5.6879   -2.8528 H   0  0  0  0  0  0  0  0  0  0  0  0
   -0.6263    5.2628   -2.3847 H   0  0  0  0  0  0  0  0  0  0  0  0
    0.1873    6.6741   -1.6277 H   0  0  0  0  0  0  0  0  0  0  0  0
  1  3  1  0  0  0  0
  1  7  1  0  0  0  0
  1  2  2  0  0  0  0
 18 19  1  0  0  0  0
 19 24  1  0  0  0  0
 19 20  2  0  0  0  0
 25 26  1  0  0  0  0
 26 34  1  0  0  0  0
 26 27  2  0  0  0  0
  8  9  1  0  0  0  0
  9 17  1  0  0  0  0
  9 10  2  0  0  0  0
 25 28  1  0  0  0  0
  8 11  1  0  0  0  0
 34 35  1  0  0  0  0
 17 18  1  0  0  0  0
 24 25  1  0  0  0  0
  7  8  1  0  0  0  0
  3  4  1  0  0  0  0
  3  5  1  0  0  0  0
  3  6  1  0  0  0  0
 28 31  1  0  0  0  0
 28 32  1  0  0  0  0
 28 33  1  0  0  0  0
 11 14  1  0  0  0  0
 11 15  1  0  0  0  0
 11 16  1  0  0  0  0
 35 37  1  0  0  0  0
 35 38  1  0  0  0  0
 35 39  1  0  0  0  0
 18 22  1  0  0  0  0
 18 23  1  0  0  0  0
 25 30  1  0  0  0  0
  8 13  1  0  0  0  0
 34 36  1  0  0  0  0
 17 21  1  0  0  0  0
  7 12  1  0  0  0  0
 24 29  1  0  0  0  0
M  END
$$$$

  -OEChem-05262214473D

 39 38  0     1  0  0  0  0  0999 V2000
   -3.5200   -4.0268   -1.6943 C   0  0  0  0  0  0  0  0  0  0  0  0
   -2.8702   -4.8827   -1.1054 O   0  0  0  0  0  0  0  0  0  0  0  0
   -4.9704   -4.2579   -1.9614 C   0  0  0  0  0  0  0  0  0  0  0  0
   -5.1456   -4.7573   -2.9278 H   0  0  0  0  0  0  0  0  0  0  0  0
   -5.4379   -4.9112   -1.2072 H   0  0  0  0  0  0  0  0  0  0  0  0
   -5.5954   -3.3510   -1.9864 H   0  0  0  0  0  0  0  0  0  0  0  0
   -3.0424   -2.8131   -2.1606 N   0  0  0  0  0  0  0  0  0  0  0  0
   -1.6755   -2.3891   -2.0077 C   0  0  2  0  0  0  0  0  0  0  0  0
   -1.5782   -1.5673   -0.7292 C   0  0  0  0  0  0  0  0  0  0  0  0
   -2.5448   -1.0064   -0.2171 O   0  0  0  0  0  0  0  0  0  0  0  0
   -1.2087   -1.5823   -3.2094 C   0  0  0  0  0  0  0  0  0  0  0  0
   -3.6915   -2.1888   -2.6360 H   0  0  0  0  0  0  0  0  0  0  0  0
   -1.0721   -3.2977   -1.9053 H   0  0  0  0  0  0  0  0  0  0  0  0
   -1.8017   -0.6681   -3.3281 H   0  0  0  0  0  0  0  0  0  0  0  0
   -0.1601   -1.2849   -3.1045 H   0  0  0  0  0  0  0  0  0  0  0  0
   -1.3074   -2.1646   -4.1319 H   0  0  0  0  0  0  0  0  0  0  0  0
   -0.2835   -1.5112   -0.2725 N   0  0  0  0  0  0  0  0  0  0  0  0
    0.0769   -0.7658    0.9424 C   0  0  0  0  0  0  0  0  0  0  0  0
    1.0749    0.3101    0.5982 C   0  0  0  0  0  0  0  0  0  0  0  0
    2.1760    0.0780    0.1061 O   0  0  0  0  0  0  0  0  0  0  0  0
    0.4587   -2.0097   -0.7289 H   0  0  0  0  0  0  0  0  0  0  0  0
    0.5143   -1.4546    1.6712 H   0  0  0  0  0  0  0  0  0  0  0  0
   -0.8242   -0.3136    1.3670 H   0  0  0  0  0  0  0  0  0  0  0  0
    0.5909    1.5762    0.9099 N   0  0  0  0  0  0  0  0  0  0  0  0
    1.3363    2.7875    0.6892 C   0  0  2  0  0  0  0  0  0  0  0  0
    0.5123    3.6873   -0.2224 C   0  0  0  0  0  0  0  0  0  0  0  0
   -0.3654    3.2612   -0.9703 O   0  0  0  0  0  0  0  0  0  0  0  0
    2.6981    2.4957    0.0783 C   0  0  0  0  0  0  0  0  0  0  0  0
   -0.3404    1.6501    1.3159 H   0  0  0  0  0  0  0  0  0  0  0  0
    1.4557    3.2678    1.6664 H   0  0  0  0  0  0  0  0  0  0  0  0
    2.5986    2.0143   -0.9014 H   0  0  0  0  0  0  0  0  0  0  0  0
    3.2751    3.4156   -0.0625 H   0  0  0  0  0  0  0  0  0  0  0  0
    3.2778    1.8245    0.7211 H   0  0  0  0  0  0  0  0  0  0  0  0
    0.9016    5.0165   -0.1343 N   0  0  0  0  0  0  0  0  0  0  0  0
    0.2801    6.0640   -0.9103 C   0  0  0  0  0  0  0  0  0  0  0  0
    1.6258    5.2823    0.5266 H   0  0  0  0  0  0  0  0  0  0  0  0
    0.8401    6.2095   -1.8459 H   0  0  0  0  0  0  0  0  0  0  0  0
   -0.7569    5.7809   -1.1441 H   0  0  0  0  0  0  0  0  0  0  0  0
    0.2832    6.9997   -0.3320 H   0  0  0  0  0  0  0  0  0  0  0  0
  1  3  1  0  0  0  0
  1  7  1  0  0  0  0
  1  2  2  0  0  0  0
 18 19  1  0  0  0  0
 19 24  1  0  0  0  0
 19 20  2  0  0  0  0
 25 26  1  0  0  0  0
 26 34  1  0  0  0  0
 26 27  2  0  0  0  0
  8  9  1  0  0  0  0
  9 17  1  0  0  0  0
  9 10  2  0  0  0  0
 25 28  1  0  0  0  0
  8 11  1  0  0  0  0
 34 35  1  0  0  0  0
 17 18  1  0  0  0  0
 24 25  1  0  0  0  0
  7  8  1  0  0  0  0
  3  4  1  0  0  0  0
  3  5  1  0  0  0  0
  3  6  1  0  0  0  0
 28 31  1  0  0  0  0
 28 32  1  0  0  0  0
 28 33  1  0  0  0  0
 11 14  1  0  0  0  0
 11 15  1  0  0  0  0
 11 16  1  0  0  0  0
 35 37  1  0  0  0  0
 35 38  1  0  0  0  0
 35 39  1  0  0  0  0
 18 22  1  0  0  0  0
 18 23  1  0  0  0  0
 25 30  1  0  0  0  0
  8 13  1  0  0  0  0
 34 36  1  0  0  0  0
 17 21  1  0  0  0  0
  7 12  1  0  0  0  0
 24 29  1  0  0  0  0
M  END
$$$$

  -OEChem-05262214473D

 39 38  0     1  0  0  0  0  0999 V2000
   -3.5200   -4.0268   -1.6943 C   0  0  0  0  0  0  0  0  0  0  0  0
   -2.8702   -4.8827   -1.1054 O   0  0  0  0  0  0  0  0  0  0  0  0
   -4.9704   -4.2579   -1.9614 C   0  0  0  0  0  0  0  0  0  0  0  0
   -5.1456   -4.7573   -2.9278 H   0  0  0  0  0  0  0  0  0  0  0  0
   -5.4379   -4.9112   -1.2072 H   0  0  0  0  0  0  0  0  0  0  0  0
   -5.5954   -3.3510   -1.9864 H   0  0  0  0  0  0  0  0  0  0  0  0
   -3.0424   -2.8131   -2.1606 N   0  0  0  0  0  0  0  0  0  0  0  0
   -1.6755   -2.3891   -2.0077 C   0  0  2  0  0  0  0  0  0  0  0  0
   -1.5782   -1.5673   -0.7292 C   0  0  0  0  0  0  0  0  0  0  0  0
   -2.5448   -1.0064   -0.2171 O   0  0  0  0  0  0  0  0  0  0  0  0
   -1.2087   -1.5823   -3.2094 C   0  0  0  0  0  0  0  0  0  0  0  0
   -3.6915   -2.1888   -2.6360 H   0  0  0  0  0  0  0  0  0  0  0  0
   -1.0721   -3.2977   -1.9053 H   0  0  0  0  0  0  0  0  0  0  0  0
   -1.8017   -0.6681   -3.3281 H   0  0  0  0  0  0  0  0  0  0  0  0
   -0.1601   -1.2849   -3.1045 H   0  0  0  0  0  0  0  0  0  0  0  0
   -1.3074   -2.1646   -4.1319 H   0  0  0  0  0  0  0  0  0  0  0  0
   -0.2835   -1.5112   -0.2725 N   0  0  0  0  0  0  0  0  0  0  0  0
    0.0769   -0.7658    0.9424 C   0  0  0  0  0  0  0  0  0  0  0  0
    1.0749    0.3101    0.5982 C   0  0  0  0  0  0  0  0  0  0  0  0
    2.0491    0.1216   -0.1256 O   0  0  0  0  0  0  0  0  0  0  0  0
    0.4587   -2.0097   -0.7289 H   0  0  0  0  0  0  0  0  0  0  0  0
    0.5143   -1.4546    1.6712 H   0  0  0  0  0  0  0  0  0  0  0  0
   -0.8242   -0.3136    1.3670 H   0  0  0  0  0  0  0  0  0  0  0  0
    0.7514    1.5207    1.2016 N   0  0  0  0  0  0  0  0  0  0  0  0
    1.5340    2.7187    1.0474 C   0  0  2  0  0  0  0  0  0  0  0  0
    0.6297    3.8002    0.4709 C   0  0  0  0  0  0  0  0  0  0  0  0
   -0.3975    3.5513   -0.1568 O   0  0  0  0  0  0  0  0  0  0  0  0
    2.7380    2.4813    0.1493 C   0  0  0  0  0  0  0  0  0  0  0  0
   -0.0836    1.5616    1.7836 H   0  0  0  0  0  0  0  0  0  0  0  0
    1.8628    3.0130    2.0500 H   0  0  0  0  0  0  0  0  0  0  0  0
    2.4284    2.1856   -0.8597 H   0  0  0  0  0  0  0  0  0  0  0  0
    3.3479    3.3860    0.0560 H   0  0  0  0  0  0  0  0  0  0  0  0
    3.3716    1.6827    0.5500 H   0  0  0  0  0  0  0  0  0  0  0  0
    1.1274    5.0748    0.7027 N   0  0  0  0  0  0  0  0  0  0  0  0
    0.4572    6.2689    0.2434 C   0  0  0  0  0  0  0  0  0  0  0  0
    1.9764    5.1881    1.2487 H   0  0  0  0  0  0  0  0  0  0  0  0
    0.8494    6.5534   -0.7441 H   0  0  0  0  0  0  0  0  0  0  0  0
   -0.6232    6.0765    0.1672 H   0  0  0  0  0  0  0  0  0  0  0  0
    0.6345    7.0865    0.9576 H   0  0  0  0  0  0  0  0  0  0  0  0
  1  3  1  0  0  0  0
  1  7  1  0  0  0  0
  1  2  2  0  0  0  0
 18 19  1  0  0  0  0
 19 24  1  0  0  0  0
 19 20  2  0  0  0  0
 25 26  1  0  0  0  0
 26 34  1  0  0  0  0
 26 27  2  0  0  0  0
  8  9  1  0  0  0  0
  9 17  1  0  0  0  0
  9 10  2  0  0  0  0
 25 28  1  0  0  0  0
  8 11  1  0  0  0  0
 34 35  1  0  0  0  0
 17 18  1  0  0  0  0
 24 25  1  0  0  0  0
  7  8  1  0  0  0  0
  3  4  1  0  0  0  0
  3  5  1  0  0  0  0
  3  6  1  0  0  0  0
 28 31  1  0  0  0  0
 28 32  1  0  0  0  0
 28 33  1  0  0  0  0
 11 14  1  0  0  0  0
 11 15  1  0  0  0  0
 11 16  1  0  0  0  0
 35 37  1  0  0  0  0
 35 38  1  0  0  0  0
 35 39  1  0  0  0  0
 18 22  1  0  0  0  0
 18 23  1  0  0  0  0
 25 30  1  0  0  0  0
  8 13  1  0  0  0  0
 34 36  1  0  0  0  0
 17 21  1  0  0  0  0
  7 12  1  0  0  0  0
 24 29  1  0  0  0  0
M  END
$$$$

  -OEChem-05262214473D

 39 38  0     1  0  0  0  0  0999 V2000
   -3.5200   -4.0268   -1.6943 C   0  0  0  0  0  0  0  0  0  0  0  0
   -2.8702   -4.8827   -1.1054 O   0  0  0  0  0  0  0  0  0  0  0  0
   -4.9704   -4.2579   -1.9614 C   0  0  0  0  0  0  0  0  0  0  0  0
   -5.1456   -4.7573   -2.9278 H   0  0  0  0  0  0  0  0  0  0  0  0
   -5.4379   -4.9112   -1.2072 H   0  0  0  0  0  0  0  0  0  0  0  0
   -5.5954   -3.3510   -1.9864 H   0  0  0  0  0  0  0  0  0  0  0  0
   -3.0424   -2.8131   -2.1606 N   0  0  0  0  0  0  0  0  0  0  0  0
   -1.6755   -2.3891   -2.0077 C   0  0  2  0  0  0  0  0  0  0  0  0
   -1.5782   -1.5673   -0.7292 C   0  0  0  0  0  0  0  0  0  0  0  0
   -2.5448   -1.0064   -0.2171 O   0  0  0  0  0  0  0  0  0  0  0  0
   -1.2087   -1.5823   -3.2094 C   0  0  0  0  0  0  0  0  0  0  0  0
   -3.6915   -2.1888   -2.6360 H   0  0  0  0  0  0  0  0  0  0  0  0
   -1.0721   -3.2977   -1.9053 H   0  0  0  0  0  0  0  0  0  0  0  0
   -1.8017   -0.6681   -3.3281 H   0  0  0  0  0  0  0  0  0  0  0  0
   -0.1601   -1.2849   -3.1045 H   0  0  0  0  0  0  0  0  0  0  0  0
   -1.3074   -2.1646   -4.1319 H   0  0  0  0  0  0  0  0  0  0  0  0
   -0.2835   -1.5112   -0.2725 N   0  0  0  0  0  0  0  0  0  0  0  0
    0.0769   -0.7658    0.9424 C   0  0  0  0  0  0  0  0  0  0  0  0
    1.0749    0.3101    0.5982 C   0  0  0  0  0  0  0  0  0  0  0  0
    1.8863    0.2109   -0.3184 O   0  0  0  0  0  0  0  0  0  0  0  0
    0.4587   -2.0097   -0.7289 H   0  0  0  0  0  0  0  0  0  0  0  0
    0.5143   -1.4546    1.6712 H   0  0  0  0  0  0  0  0  0  0  0  0
   -0.8242   -0.3136    1.3670 H   0  0  0  0  0  0  0  0  0  0  0  0
    0.9570    1.4076    1.4443 N   0  0  0  0  0  0  0  0  0  0  0  0
    1.7870    2.5793    1.3451 C   0  0  2  0  0  0  0  0  0  0  0  0
    0.8779    3.7835    1.1383 C   0  0  0  0  0  0  0  0  0  0  0  0
   -0.2611    3.6941    0.6846 O   0  0  0  0  0  0  0  0  0  0  0  0
    2.7889    2.4529    0.2080 C   0  0  0  0  0  0  0  0  0  0  0  0
    0.2456    1.3808    2.1728 H   0  0  0  0  0  0  0  0  0  0  0  0
    2.3117    2.6771    2.3017 H   0  0  0  0  0  0  0  0  0  0  0  0
    2.2817    2.3540   -0.7586 H   0  0  0  0  0  0  0  0  0  0  0  0
    3.4384    3.3327    0.1519 H   0  0  0  0  0  0  0  0  0  0  0  0
    3.4223    1.5695    0.3430 H   0  0  0  0  0  0  0  0  0  0  0  0
    1.5035    4.9744    1.4794 N   0  0  0  0  0  0  0  0  0  0  0  0
    0.8535    6.2586    1.3602 C   0  0  0  0  0  0  0  0  0  0  0  0
    2.4428    4.9527    1.8654 H   0  0  0  0  0  0  0  0  0  0  0  0
    1.0822    6.6962    0.3772 H   0  0  0  0  0  0  0  0  0  0  0  0
   -0.2344    6.1294    1.4597 H   0  0  0  0  0  0  0  0  0  0  0  0
    1.2172    6.9286    2.1532 H   0  0  0  0  0  0  0  0  0  0  0  0
  1  3  1  0  0  0  0
  1  7  1  0  0  0  0
  1  2  2  0  0  0  0
 18 19  1  0  0  0  0
 19 24  1  0  0  0  0
 19 20  2  0  0  0  0
 25 26  1  0  0  0  0
 26 34  1  0  0  0  0
 26 27  2  0  0  0  0
  8  9  1  0  0  0  0
  9 17  1  0  0  0  0
  9 10  2  0  0  0  0
 25 28  1  0  0  0  0
  8 11  1  0  0  0  0
 34 35  1  0  0  0  0
 17 18  1  0  0  0  0
 24 25  1  0  0  0  0
  7  8  1  0  0  0  0
  3  4  1  0  0  0  0
  3  5  1  0  0  0  0
  3  6  1  0  0  0  0
 28 31  1  0  0  0  0
 28 32  1  0  0  0  0
 28 33  1  0  0  0  0
 11 14  1  0  0  0  0
 11 15  1  0  0  0  0
 11 16  1  0  0  0  0
 35 37  1  0  0  0  0
 35 38  1  0  0  0  0
 35 39  1  0  0  0  0
 18 22  1  0  0  0  0
 18 23  1  0  0  0  0
 25 30  1  0  0  0  0
  8 13  1  0  0  0  0
 34 36  1  0  0  0  0
 17 21  1  0  0  0  0
  7 12  1  0  0  0  0
 24 29  1  0  0  0  0
M  END
$$$$

  -OEChem-05262214473D

 39 38  0     1  0  0  0  0  0999 V2000
   -3.5200   -4.0268   -1.6943 C   0  0  0  0  0  0  0  0  0  0  0  0
   -2.8702   -4.8827   -1.1054 O   0  0  0  0  0  0  0  0  0  0  0  0
   -4.9704   -4.2579   -1.9614 C   0  0  0  0  0  0  0  0  0  0  0  0
   -5.1456   -4.7573   -2.9278 H   0  0  0  0  0  0  0  0  0  0  0  0
   -5.4379   -4.9112   -1.2072 H   0  0  0  0  0  0  0  0  0  0  0  0
   -5.5954   -3.3510   -1.9864 H   0  0  0  0  0  0  0  0  0  0  0  0
   -3.0424   -2.8131   -2.1606 N   0  0  0  0  0  0  0  0  0  0  0  0
   -1.6755   -2.3891   -2.0077 C   0  0  2  0  0  0  0  0  0  0  0  0
   -1.5782   -1.5673   -0.7292 C   0  0  0  0  0  0  0  0  0  0  0  0
   -2.5448   -1.0064   -0.2171 O   0  0  0  0  0  0  0  0  0  0  0  0
   -1.2087   -1.5823   -3.2094 C   0  0  0  0  0  0  0  0  0  0  0  0
   -3.6915   -2.1888   -2.6360 H   0  0  0  0  0  0  0  0  0  0  0  0
   -1.0721   -3.2977   -1.9053 H   0  0  0  0  0  0  0  0  0  0  0  0
   -1.8017   -0.6681   -3.3281 H   0  0  0  0  0  0  0  0  0  0  0  0
   -0.1601   -1.2849   -3.1045 H   0  0  0  0  0  0  0  0  0  0  0  0
   -1.3074   -2.1646   -4.1319 H   0  0  0  0  0  0  0  0  0  0  0  0
   -0.2835   -1.5112   -0.2725 N   0  0  0  0  0  0  0  0  0  0  0  0
    0.0769   -0.7658    0.9424 C   0  0  0  0  0  0  0  0  0  0  0  0
    1.0749    0.3101    0.5982 C   0  0  0  0  0  0  0  0  0  0  0  0
    1.6988    0.3398   -0.4594 O   0  0  0  0  0  0  0  0  0  0  0  0
    0.4587   -2.0097   -0.7289 H   0  0  0  0  0  0  0  0  0  0  0  0
    0.5143   -1.4546    1.6712 H   0  0  0  0  0  0  0  0  0  0  0  0
   -0.8242   -0.3136    1.3670 H   0  0  0  0  0  0  0  0  0  0  0  0
    1.1938    1.2447    1.6214 N   0  0  0  0  0  0  0  0  0  0  0  0
    2.0782    2.3785    1.5620 C   0  0  2  0  0  0  0  0  0  0  0  0
    1.2399    3.6384    1.7342 C   0  0  0  0  0  0  0  0  0  0  0  0
    0.0345    3.6797    1.4966 O   0  0  0  0  0  0  0  0  0  0  0  0
    2.8472    2.4124    0.2505 C   0  0  0  0  0  0  0  0  0  0  0  0
    0.6247    1.1200    2.4570 H   0  0  0  0  0  0  0  0  0  0  0  0
    2.7720    2.2829    2.4043 H   0  0  0  0  0  0  0  0  0  0  0  0
    2.1687    2.5079   -0.6051 H   0  0  0  0  0  0  0  0  0  0  0  0
    3.5404    3.2595    0.2187 H   0  0  0  0  0  0  0  0  0  0  0  0
    3.4263    1.4926    0.1143 H   0  0  0  0  0  0  0  0  0  0  0  0
    2.0044    4.7221    2.1430 N   0  0  0  0  0  0  0  0  0  0  0  0
    1.4420    6.0339    2.3640 C   0  0  0  0  0  0  0  0  0  0  0  0
    2.9934    4.5921    2.3345 H   0  0  0  0  0  0  0  0  0  0  0  0
    1.5228    6.6282    1.4419 H   0  0  0  0  0  0  0  0  0  0  0  0
    0.3831    5.9360    2.6454 H   0  0  0  0  0  0  0  0  0  0  0  0
    1.9915    6.5367    3.1734 H   0  0  0  0  0  0  0  0  0  0  0  0
  1  3  1  0  0  0  0
  1  7  1  0  0  0  0
  1  2  2  0  0  0  0
 18 19  1  0  0  0  0
 19 24  1  0  0  0  0
 19 20  2  0  0  0  0
 25 26  1  0  0  0  0
 26 34  1  0  0  0  0
 26 27  2  0  0  0  0
  8  9  1  0  0  0  0
  9 17  1  0  0  0  0
  9 10  2  0  0  0  0
 25 28  1  0  0  0  0
  8 11  1  0  0  0  0
 34 35  1  0  0  0  0
 17 18  1  0  0  0  0
 24 25  1  0  0  0  0
  7  8  1  0  0  0  0
  3  4  1  0  0  0  0
  3  5  1  0  0  0  0
  3  6  1  0  0  0  0
 28 31  1  0  0  0  0
 28 32  1  0  0  0  0
 28 33  1  0  0  0  0
 11 14  1  0  0  0  0
 11 15  1  0  0  0  0
 11 16  1  0  0  0  0
 35 37  1  0  0  0  0
 35 38  1  0  0  0  0
 35 39  1  0  0  0  0
 18 22  1  0  0  0  0
 18 23  1  0  0  0  0
 25 30  1  0  0  0  0
  8 13  1  0  0  0  0
 34 36  1  0  0  0  0
 17 21  1  0  0  0  0
  7 12  1  0  0  0  0
 24 29  1  0  0  0  0
M  END
$$$$

  -OEChem-05262214473D

 39 38  0     1  0  0  0  0  0999 V2000
   -3.5200   -4.0268   -1.6943 C   0  0  0  0  0  0  0  0  0  0  0  0
   -2.8702   -4.8827   -1.1054 O   0  0  0  0  0  0  0  0  0  0  0  0
   -4.9704   -4.2579   -1.9614 C   0  0  0  0  0  0  0  0  0  0  0  0
   -5.1456   -4.7573   -2.9278 H   0  0  0  0  0  0  0  0  0  0  0  0
   -5.4379   -4.9112   -1.2072 H   0  0  0  0  0  0  0  0  0  0  0  0
   -5.5954   -3.3510   -1.9864 H   0  0  0  0  0  0  0  0  0  0  0  0
   -3.0424   -2.8131   -2.1606 N   0  0  0  0  0  0  0  0  0  0  0  0
   -1.6755   -2.3891   -2.0077 C   0  0  2  0  0  0  0  0  0  0  0  0
   -1.5782   -1.5673   -0.7292 C   0  0  0  0  0  0  0  0  0  0  0  0
   -2.5448   -1.0064   -0.2171 O   0  0  0  0  0  0  0  0  0  0  0  0
   -1.2087   -1.5823   -3.2094 C   0  0  0  0  0  0  0  0  0  0  0  0
   -3.6915   -2.1888   -2.6360 H   0  0  0  0  0  0  0  0  0  0  0  0
   -1.0721   -3.2977   -1.9053 H   0  0  0  0  0  0  0  0  0  0  0  0
   -1.8017   -0.6681   -3.3281 H   0  0  0  0  0  0  0  0  0  0  0  0
   -0.1601   -1.2849   -3.1045 H   0  0  0  0  0  0  0  0  0  0  0  0
   -1.3074   -2.1646   -4.1319 H   0  0  0  0  0  0  0  0  0  0  0  0
   -0.2835   -1.5112   -0.2725 N   0  0  0  0  0  0  0  0  0  0  0  0
    0.0769   -0.7658    0.9424 C   0  0  0  0  0  0  0  0  0  0  0  0
    0.7699    0.5175    0.5614 C   0  0  0  0  0  0  0  0  0  0  0  0
    0.9837    0.8506   -0.6012 O   0  0  0  0  0  0  0  0  0  0  0  0
    0.4587   -2.0097   -0.7289 H   0  0  0  0  0  0  0  0  0  0  0  0
    0.7453   -1.3776    1.5554 H   0  0  0  0  0  0  0  0  0  0  0  0
   -0.8315   -0.5425    1.5096 H   0  0  0  0  0  0  0  0  0  0  0  0
    1.1301    1.2574    1.6827 N   0  0  0  0  0  0  0  0  0  0  0  0
    1.8089    2.5245    1.6131 C   0  0  2  0  0  0  0  0  0  0  0  0
    0.9476    3.5592    2.3254 C   0  0  0  0  0  0  0  0  0  0  0  0
   -0.2625    3.4235    2.4935 O   0  0  0  0  0  0  0  0  0  0  0  0
    2.0701    2.9340    0.1720 C   0  0  0  0  0  0  0  0  0  0  0  0
    0.9013    0.8825    2.6018 H   0  0  0  0  0  0  0  0  0  0  0  0
    2.7565    2.4056    2.1497 H   0  0  0  0  0  0  0  0  0  0  0  0
    1.1322    3.0580   -0.3816 H   0  0  0  0  0  0  0  0  0  0  0  0
    2.6118    3.8842    0.1215 H   0  0  0  0  0  0  0  0  0  0  0  0
    2.6646    2.1745   -0.3472 H   0  0  0  0  0  0  0  0  0  0  0  0
    1.6815    4.6715    2.7130 N   0  0  0  0  0  0  0  0  0  0  0  0
    1.0885    5.7976    3.3959 C   0  0  0  0  0  0  0  0  0  0  0  0
    2.6839    4.6905    2.5497 H   0  0  0  0  0  0  0  0  0  0  0  0
    0.7804    6.5535    2.6585 H   0  0  0  0  0  0  0  0  0  0  0  0
    0.2091    5.4600    3.9640 H   0  0  0  0  0  0  0  0  0  0  0  0
    1.8242    6.2368    4.0856 H   0  0  0  0  0  0  0  0  0  0  0  0
  1  3  1  0  0  0  0
  1  7  1  0  0  0  0
  1  2  2  0  0  0  0
 18 19  1  0  0  0  0
 19 24  1  0  0  0  0
 19 20  2  0  0  0  0
 25 26  1  0  0  0  0
 26 34  1  0  0  0  0
 26 27  2  0  0  0  0
  8  9  1  0  0  0  0
  9 17  1  0  0  0  0
  9 10  2  0  0  0  0
 25 28  1  0  0  0  0
  8 11  1  0  0  0  0
 34 35  1  0  0  0  0
 17 18  1  0  0  0  0
 24 25  1  0  0  0  0
  7  8  1  0  0  0  0
  3  4  1  0  0  0  0
  3  5  1  0  0  0  0
  3  6  1  0  0  0  0
 28 31  1  0  0  0  0
 28 32  1  0  0  0  0
 28 33  1  0  0  0  0
 11 14  1  0  0  0  0
 11 15  1  0  0  0  0
 11 16  1  0  0  0  0
 35 37  1  0  0  0  0
 35 38  1  0  0  0  0
 35 39  1  0  0  0  0
 18 22  1  0  0  0  0
 18 23  1  0  0  0  0
 25 30  1  0  0  0  0
  8 13  1  0  0  0  0
 34 36  1  0  0  0  0
 17 21  1  0  0  0  0
  7 12  1  0  0  0  0
 24 29  1  0  0  0  0
M  END
$$$$

  -OEChem-05262214473D

 39 38  0     1  0  0  0  0  0999 V2000
   -3.5200   -4.0268   -1.6943 C   0  0  0  0  0  0  0  0  0  0  0  0
   -2.8702   -4.8827   -1.1054 O   0  0  0  0  0  0  0  0  0  0  0  0
   -4.9704   -4.2579   -1.9614 C   0  0  0  0  0  0  0  0  0  0  0  0
   -5.1456   -4.7573   -2.9278 H   0  0  0  0  0  0  0  0  0  0  0  0
   -5.4379   -4.9112   -1.2072 H   0  0  0  0  0  0  0  0  0  0  0  0
   -5.5954   -3.3510   -1.9864 H   0  0  0  0  0  0  0  0  0  0  0  0
   -3.0424   -2.8131   -2.1606 N   0  0  0  0  0  0  0  0  0  0  0  0
   -1.6755   -2.3891   -2.0077 C   0  0  2  0  0  0  0  0  0  0  0  0
   -1.5782   -1.5673   -0.7292 C   0  0  0  0  0  0  0  0  0  0  0  0
   -2.5448   -1.0064   -0.2171 O   0  0  0  0  0  0  0  0  0  0  0  0
   -1.2087   -1.5823   -3.2094 C   0  0  0  0  0  0  0  0  0  0  0  0
   -3.6915   -2.1888   -2.6360 H   0  0  0  0  0  0  0  0  0  0  0  0
   -1.0721   -3.2977   -1.9053 H   0  0  0  0  0  0  0  0  0  0  0  0
   -1.8017   -0.6681   -3.3281 H   0  0  0  0  0  0  0  0  0  0  0  0
   -0.1601   -1.2849   -3.1045 H   0  0  0  0  0  0  0  0  0  0  0  0
   -1.3074   -2.1646   -4.1319 H   0  0  0  0  0  0  0  0  0  0  0  0
   -0.2835   -1.5112   -0.2725 N   0  0  0  0  0  0  0  0  0  0  0  0
    0.0769   -0.7658    0.9424 C   0  0  0  0  0  0  0  0  0  0  0  0
    0.7699    0.5175    0.5614 C   0  0  0  0  0  0  0  0  0  0  0  0
    0.7527    0.9832   -0.5749 O   0  0  0  0  0  0  0  0  0  0  0  0
    0.4587   -2.0097   -0.7289 H   0  0  0  0  0  0  0  0  0  0  0  0
    0.7453   -1.3776    1.5554 H   0  0  0  0  0  0  0  0  0  0  0  0
   -0.8315   -0.5425    1.5096 H   0  0  0  0  0  0  0  0  0  0  0  0
    1.4213    1.0900    1.6488 N   0  0  0  0  0  0  0  0  0  0  0  0
    2.1666    2.3188    1.5706 C   0  0  2  0  0  0  0  0  0  0  0  0
    1.5641    3.2986    2.5689 C   0  0  0  0  0  0  0  0  0  0  0  0
    0.4122    3.2059    2.9879 O   0  0  0  0  0  0  0  0  0  0  0  0
    2.1412    2.8928    0.1626 C   0  0  0  0  0  0  0  0  0  0  0  0
    1.3680    0.6145    2.5480 H   0  0  0  0  0  0  0  0  0  0  0  0
    3.1955    2.0838    1.8643 H   0  0  0  0  0  0  0  0  0  0  0  0
    1.1185    3.1344   -0.1491 H   0  0  0  0  0  0  0  0  0  0  0  0
    2.7323    3.8123    0.0983 H   0  0  0  0  0  0  0  0  0  0  0  0
    2.5475    2.1750   -0.5582 H   0  0  0  0  0  0  0  0  0  0  0  0
    2.4497    4.3133    2.9037 N   0  0  0  0  0  0  0  0  0  0  0  0
    2.1091    5.3734    3.8235 C   0  0  0  0  0  0  0  0  0  0  0  0
    3.3913    4.3005    2.5229 H   0  0  0  0  0  0  0  0  0  0  0  0
    1.7093    6.2314    3.2632 H   0  0  0  0  0  0  0  0  0  0  0  0
    1.3497    5.0131    4.5331 H   0  0  0  0  0  0  0  0  0  0  0  0
    3.0089    5.6831    4.3753 H   0  0  0  0  0  0  0  0  0  0  0  0
  1  3  1  0  0  0  0
  1  7  1  0  0  0  0
  1  2  2  0  0  0  0
 18 19  1  0  0  0  0
 19 24  1  0  0  0  0
 19 20  2  0  0  0  0
 25 26  1  0  0  0  0
 26 34  1  0  0  0  0
 26 27  2  0  0  0  0
  8  9  1  0  0  0  0
  9 17  1  0  0  0  0
  9 10  2  0  0  0  0
 25 28  1  0  0  0  0
  8 11  1  0  0  0  0
 34 35  1  0  0  0  0
 17 18  1  0  0  0  0
 24 25  1  0  0  0  0
  7  8  1  0  0  0  0
  3  4  1  0  0  0  0
  3  5  1  0  0  0  0
  3  6  1  0  0  0  0
 28 31  1  0  0  0  0
 28 32  1  0  0  0  0
 28 33  1  0  0  0  0
 11 14  1  0  0  0  0
 11 15  1  0  0  0  0
 11 16  1  0  0  0  0
 35 37  1  0  0  0  0
 35 38  1  0  0  0  0
 35 39  1  0  0  0  0
 18 22  1  0  0  0  0
 18 23  1  0  0  0  0
 25 30  1  0  0  0  0
  8 13  1  0  0  0  0
 34 36  1  0  0  0  0
 17 21  1  0  0  0  0
  7 12  1  0  0  0  0
 24 29  1  0  0  0  0
M  END
$$$$

  -OEChem-05262214473D

 39 38  0     1  0  0  0  0  0999 V2000
   -3.5200   -4.0268   -1.6943 C   0  0  0  0  0  0  0  0  0  0  0  0
   -2.8702   -4.8827   -1.1054 O   0  0  0  0  0  0  0  0  0  0  0  0
   -4.9704   -4.2579   -1.9614 C   0  0  0  0  0  0  0  0  0  0  0  0
   -5.1456   -4.7573   -2.9278 H   0  0  0  0  0  0  0  0  0  0  0  0
   -5.4379   -4.9112   -1.2072 H   0  0  0  0  0  0  0  0  0  0  0  0
   -5.5954   -3.3510   -1.9864 H   0  0  0  0  0  0  0  0  0  0  0  0
   -3.0424   -2.8131   -2.1606 N   0  0  0  0  0  0  0  0  0  0  0  0
   -1.6755   -2.3891   -2.0077 C   0  0  2  0  0  0  0  0  0  0  0  0
   -1.5782   -1.5673   -0.7292 C   0  0  0  0  0  0  0  0  0  0  0  0
   -2.5448   -1.0064   -0.2171 O   0  0  0  0  0  0  0  0  0  0  0  0
   -1.2087   -1.5823   -3.2094 C   0  0  0  0  0  0  0  0  0  0  0  0
   -3.6915   -2.1888   -2.6360 H   0  0  0  0  0  0  0  0  0  0  0  0
   -1.0721   -3.2977   -1.9053 H   0  0  0  0  0  0  0  0  0  0  0  0
   -1.8017   -0.6681   -3.3281 H   0  0  0  0  0  0  0  0  0  0  0  0
   -0.1601   -1.2849   -3.1045 H   0  0  0  0  0  0  0  0  0  0  0  0
   -1.3074   -2.1646   -4.1319 H   0  0  0  0  0  0  0  0  0  0  0  0
   -0.2835   -1.5112   -0.2725 N   0  0  0  0  0  0  0  0  0  0  0  0
    0.0769   -0.7658    0.9424 C   0  0  0  0  0  0  0  0  0  0  0  0
    0.7699    0.5175    0.5614 C   0  0  0  0  0  0  0  0  0  0  0  0
    0.5439    1.1233   -0.4828 O   0  0  0  0  0  0  0  0  0  0  0  0
    0.4587   -2.0097   -0.7289 H   0  0  0  0  0  0  0  0  0  0  0  0
    0.7453   -1.3776    1.5554 H   0  0  0  0  0  0  0  0  0  0  0  0
   -0.8315   -0.5425    1.5096 H   0  0  0  0  0  0  0  0  0  0  0  0
    1.6841    0.9134    1.5319 N   0  0  0  0  0  0  0  0  0  0  0  0
    2.4893    2.1016    1.4263 C   0  0  2  0  0  0  0  0  0  0  0  0
    2.1961    2.9775    2.6372 C   0  0  0  0  0  0  0  0  0  0  0  0
    1.1586    2.8928    3.2909 O   0  0  0  0  0  0  0  0  0  0  0  0
    2.2052    2.8494    0.1329 C   0  0  0  0  0  0  0  0  0  0  0  0
    1.7894    0.3315    2.3613 H   0  0  0  0  0  0  0  0  0  0  0  0
    3.5356    1.7782    1.4535 H   0  0  0  0  0  0  0  0  0  0  0  0
    1.1615    3.1814    0.0876 H   0  0  0  0  0  0  0  0  0  0  0  0
    2.8388    3.7377    0.0408 H   0  0  0  0  0  0  0  0  0  0  0  0
    2.3881    2.2083   -0.7362 H   0  0  0  0  0  0  0  0  0  0  0  0
    3.2104    3.8943    2.8760 N   0  0  0  0  0  0  0  0  0  0  0  0
    3.1614    4.8460    3.9613 C   0  0  0  0  0  0  0  0  0  0  0  0
    4.0432    3.8807    2.2948 H   0  0  0  0  0  0  0  0  0  0  0  0
    2.7187    5.7876    3.6043 H   0  0  0  0  0  0  0  0  0  0  0  0
    2.5476    4.4390    4.7783 H   0  0  0  0  0  0  0  0  0  0  0  0
    4.1808    5.0363    4.3282 H   0  0  0  0  0  0  0  0  0  0  0  0
  1  3  1  0  0  0  0
  1  7  1  0  0  0  0
  1  2  2  0  0  0  0
 18 19  1  0  0  0  0
 19 24  1  0  0  0  0
 19 20  2  0  0  0  0
 25 26  1  0  0  0  0
 26 34  1  0  0  0  0
 26 27  2  0  0  0  0
  8  9  1  0  0  0  0
  9 17  1  0  0  0  0
  9 10  2  0  0  0  0
 25 28  1  0  0  0  0
  8 11  1  0  0  0  0
 34 35  1  0  0  0  0
 17 18  1  0  0  0  0
 24 25  1  0  0  0  0
  7  8  1  0  0  0  0
  3  4  1  0  0  0  0
  3  5  1  0  0  0  0
  3  6  1  0  0  0  0
 28 31  1  0  0  0  0
 28 32  1  0  0  0  0
 28 33  1  0  0  0  0
 11 14  1  0  0  0  0
 11 15  1  0  0  0  0
 11 16  1  0  0  0  0
 35 37  1  0  0  0  0
 35 38  1  0  0  0  0
 35 39  1  0  0  0  0
 18 22  1  0  0  0  0
 18 23  1  0  0  0  0
 25 30  1  0  0  0  0
  8 13  1  0  0  0  0
 34 36  1  0  0  0  0
 17 21  1  0  0  0  0
  7 12  1  0  0  0  0
 24 29  1  0  0  0  0
M  END
$$$$

  -OEChem-05262214473D

 39 38  0     1  0  0  0  0  0999 V2000
   -3.5200   -4.0268   -1.6943 C   0  0  0  0  0  0  0  0  0  0  0  0
   -2.8702   -4.8827   -1.1054 O   0  0  0  0  0  0  0  0  0  0  0  0
   -4.9704   -4.2579   -1.9614 C   0  0  0  0  0  0  0  0  0  0  0  0
   -5.1456   -4.7573   -2.9278 H   0  0  0  0  0  0  0  0  0  0  0  0
   -5.4379   -4.9112   -1.2072 H   0  0  0  0  0  0  0  0  0  0  0  0
   -5.5954   -3.3510   -1.9864 H   0  0  0  0  0  0  0  0  0  0  0  0
   -3.0424   -2.8131   -2.1606 N   0  0  0  0  0  0  0  0  0  0  0  0
   -1.6755   -2.3891   -2.0077 C   0  0  2  0  0  0  0  0  0  0  0  0
   -1.5782   -1.5673   -0.7292 C   0  0  0  0  0  0  0  0  0  0  0  0
   -2.5448   -1.0064   -0.2171 O   0  0  0  0  0  0  0  0  0  0  0  0
   -1.2087   -1.5823   -3.2094 C   0  0  0  0  0  0  0  0  0  0  0  0
   -3.6915   -2.1888   -2.6360 H   0  0  0  0  0  0  0  0  0  0  0  0
   -1.0721   -3.2977   -1.9053 H   0  0  0  0  0  0  0  0  0  0  0  0
   -1.8017   -0.6681   -3.3281 H   0  0  0  0  0  0  0  0  0  0  0  0
   -0.1601   -1.2849   -3.1045 H   0  0  0  0  0  0  0  0  0  0  0  0
   -1.3074   -2.1646   -4.1319 H   0  0  0  0  0  0  0  0  0  0  0  0
   -0.2835   -1.5112   -0.2725 N   0  0  0  0  0  0  0  0  0  0  0  0
    0.0769   -0.7658    0.9424 C   0  0  0  0  0  0  0  0  0  0  0  0
    0.7699    0.5175    0.5614 C   0  0  0  0  0  0  0  0  0  0  0  0
    0.3718    1.2613   -0.3312 O   0  0  0  0  0  0  0  0  0  0  0  0
    0.4587   -2.0097   -0.7289 H   0  0  0  0  0  0  0  0  0  0  0  0
    0.7453   -1.3776    1.5554 H   0  0  0  0  0  0  0  0  0  0  0  0
   -0.8315   -0.5425    1.5096 H   0  0  0  0  0  0  0  0  0  0  0  0
    1.9007    0.7395    1.3401 N   0  0  0  0  0  0  0  0  0  0  0  0
    2.7550    1.8880    1.1899 C   0  0  2  0  0  0  0  0  0  0  0  0
    2.8007    2.6180    2.5258 C   0  0  0  0  0  0  0  0  0  0  0  0
    1.9258    2.5055    3.3819 O   0  0  0  0  0  0  0  0  0  0  0  0
    2.2575    2.8069    0.0850 C   0  0  0  0  0  0  0  0  0  0  0  0
    2.1369    0.0528    2.0545 H   0  0  0  0  0  0  0  0  0  0  0  0
    3.7536    1.5096    0.9455 H   0  0  0  0  0  0  0  0  0  0  0  0
    1.2583    3.1959    0.3123 H   0  0  0  0  0  0  0  0  0  0  0  0
    2.9242    3.6655   -0.0472 H   0  0  0  0  0  0  0  0  0  0  0  0
    2.1970    2.2721   -0.8689 H   0  0  0  0  0  0  0  0  0  0  0  0
    3.9115    3.4431    2.6318 N   0  0  0  0  0  0  0  0  0  0  0  0
    4.1737    4.2514    3.7997 C   0  0  0  0  0  0  0  0  0  0  0  0
    4.5952    3.4597    1.8808 H   0  0  0  0  0  0  0  0  0  0  0  0
    3.7398    5.2523    3.6585 H   0  0  0  0  0  0  0  0  0  0  0  0
    3.7211    3.7769    4.6829 H   0  0  0  0  0  0  0  0  0  0  0  0
    5.2601    4.3404    3.9476 H   0  0  0  0  0  0  0  0  0  0  0  0
  1  3  1  0  0  0  0
  1  7  1  0  0  0  0
  1  2  2  0  0  0  0
 18 19  1  0  0  0  0
 19 24  1  0  0  0  0
 19 20  2  0  0  0  0
 25 26  1  0  0  0  0
 26 34  1  0  0  0  0
 26 27  2  0  0  0  0
  8  9  1  0  0  0  0
  9 17  1  0  0  0  0
  9 10  2  0  0  0  0
 25 28  1  0  0  0  0
  8 11  1  0  0  0  0
 34 35  1  0  0  0  0
 17 18  1  0  0  0  0
 24 25  1  0  0  0  0
  7  8  1  0  0  0  0
  3  4  1  0  0  0  0
  3  5  1  0  0  0  0
  3  6  1  0  0  0  0
 28 31  1  0  0  0  0
 28 32  1  0  0  0  0
 28 33  1  0  0  0  0
 11 14  1  0  0  0  0
 11 15  1  0  0  0  0
 11 16  1  0  0  0  0
 35 37  1  0  0  0  0
 35 38  1  0  0  0  0
 35 39  1  0  0  0  0
 18 22  1  0  0  0  0
 18 23  1  0  0  0  0
 25 30  1  0  0  0  0
  8 13  1  0  0  0  0
 34 36  1  0  0  0  0
 17 21  1  0  0  0  0
  7 12  1  0  0  0  0
 24 29  1  0  0  0  0
M  END
$$$$

  -OEChem-05262214473D

 39 38  0     1  0  0  0  0  0999 V2000
   -3.5200   -4.0268   -1.6943 C   0  0  0  0  0  0  0  0  0  0  0  0
   -2.8702   -4.8827   -1.1054 O   0  0  0  0  0  0  0  0  0  0  0  0
   -4.9704   -4.2579   -1.9614 C   0  0  0  0  0  0  0  0  0  0  0  0
   -5.1456   -4.7573   -2.9278 H   0  0  0  0  0  0  0  0  0  0  0  0
   -5.4379   -4.9112   -1.2072 H   0  0  0  0  0  0  0  0  0  0  0  0
   -5.5954   -3.3510   -1.9864 H   0  0  0  0  0  0  0  0  0  0  0  0
   -3.0424   -2.8131   -2.1606 N   0  0  0  0  0  0  0  0  0  0  0  0
   -1.6755   -2.3891   -2.0077 C   0  0  2  0  0  0  0  0  0  0  0  0
   -1.5782   -1.5673   -0.7292 C   0  0  0  0  0  0  0  0  0  0  0  0
   -2.5448   -1.0064   -0.2171 O   0  0  0  0  0  0  0  0  0  0  0  0
   -1.2087   -1.5823   -3.2094 C   0  0  0  0  0  0  0  0  0  0  0  0
   -3.6915   -2.1888   -2.6360 H   0  0  0  0  0  0  0  0  0  0  0  0
   -1.0721   -3.2977   -1.9053 H   0  0  0  0  0  0  0  0  0  0  0  0
   -1.8017   -0.6681   -3.3281 H   0  0  0  0  0  0  0  0  0  0  0  0
   -0.1601   -1.2849   -3.1045 H   0  0  0  0  0  0  0  0  0  0  0  0
   -1.3074   -2.1646   -4.1319 H   0  0  0  0  0  0  0  0  0  0  0  0
   -0.2835   -1.5112   -0.2725 N   0  0  0  0  0  0  0  0  0  0  0  0
    0.0769   -0.7658    0.9424 C   0  0  0  0  0  0  0  0  0  0  0  0
    0.7699    0.5175    0.5614 C   0  0  0  0  0  0  0  0  0  0  0  0
    0.2479    1.3878   -0.1304 O   0  0  0  0  0  0  0  0  0  0  0  0
    0.4587   -2.0097   -0.7289 H   0  0  0  0  0  0  0  0  0  0  0  0
    0.7453   -1.3776    1.5554 H   0  0  0  0  0  0  0  0  0  0  0  0
   -0.8315   -0.5425    1.5096 H   0  0  0  0  0  0  0  0  0  0  0  0
    2.0563    0.5801    1.0864 N   0  0  0  0  0  0  0  0  0  0  0  0
    2.9456    1.6923    0.8776 C   0  0  2  0  0  0  0  0  0  0  0  0
    3.3366    2.2443    2.2421 C   0  0  0  0  0  0  0  0  0  0  0  0
    2.6616    2.0704    3.2546 O   0  0  0  0  0  0  0  0  0  0  0  0
    2.2948    2.7681    0.0222 C   0  0  0  0  0  0  0  0  0  0  0  0
    2.3866   -0.2027    1.6483 H   0  0  0  0  0  0  0  0  0  0  0  0
    3.8346    1.2964    0.3748 H   0  0  0  0  0  0  0  0  0  0  0  0
    1.4022    3.1768    0.5097 H   0  0  0  0  0  0  0  0  0  0  0  0
    2.9826    3.6006   -0.1595 H   0  0  0  0  0  0  0  0  0  0  0  0
    1.9873    2.3620   -0.9475 H   0  0  0  0  0  0  0  0  0  0  0  0
    4.5055    2.9905    2.1878 N   0  0  0  0  0  0  0  0  0  0  0  0
    5.0770    3.6300    3.3499 C   0  0  0  0  0  0  0  0  0  0  0  0
    5.0096    3.0662    1.3092 H   0  0  0  0  0  0  0  0  0  0  0  0
    4.7030    4.6620    3.4223 H   0  0  0  0  0  0  0  0  0  0  0  0
    4.7903    3.0720    4.2534 H   0  0  0  0  0  0  0  0  0  0  0  0
    6.1732    3.6429    3.2593 H   0  0  0  0  0  0  0  0  0  0  0  0
  1  3  1  0  0  0  0
  1  7  1  0  0  0  0
  1  2  2  0  0  0  0
 18 19  1  0  0  0  0
 19 24  1  0  0  0  0
 19 20  2  0  0  0  0
 25 26  1  0  0  0  0
 26 34  1  0  0  0  0
 26 27  2  0  0  0  0
  8  9  1  0  0  0  0
  9 17  1  0  0  0  0
  9 10  2  0  0  0  0
 25 28  1  0  0  0  0
  8 11  1  0  0  0  0
 34 35  1  0  0  0  0
 17 18  1  0  0  0  0
 24 25  1  0  0  0  0
  7  8  1  0  0  0  0
  3  4  1  0  0  0  0
  3  5  1  0  0  0  0
  3  6  1  0  0  0  0
 28 31  1  0  0  0  0
 28 32  1  0  0  0  0
 28 33  1  0  0  0  0
 11 14  1  0  0  0  0
 11 15  1  0  0  0  0
 11 16  1  0  0  0  0
 35 37  1  0  0  0  0
 35 38  1  0  0  0  0
 35 39  1  0  0  0  0
 18 22  1  0  0  0  0
 18 23  1  0  0  0  0
 25 30  1  0  0  0  0
  8 13  1  0  0  0  0
 34 36  1  0  0  0  0
 17 21  1  0  0  0  0
  7 12  1  0  0  0  0
 24 29  1  0  0  0  0
M  END
$$$$

  -OEChem-05262214473D

 39 38  0     1  0  0  0  0  0999 V2000
   -3.5200   -4.0268   -1.6943 C   0  0  0  0  0  0  0  0  0  0  0  0
   -2.8702   -4.8827   -1.1054 O   0  0  0  0  0  0  0  0  0  0  0  0
   -4.9704   -4.2579   -1.9614 C   0  0  0  0  0  0  0  0  0  0  0  0
   -5.1456   -4.7573   -2.9278 H   0  0  0  0  0  0  0  0  0  0  0  0
   -5.4379   -4.9112   -1.2072 H   0  0  0  0  0  0  0  0  0  0  0  0
   -5.5954   -3.3510   -1.9864 H   0  0  0  0  0  0  0  0  0  0  0  0
   -3.0424   -2.8131   -2.1606 N   0  0  0  0  0  0  0  0  0  0  0  0
   -1.6755   -2.3891   -2.0077 C   0  0  2  0  0  0  0  0  0  0  0  0
   -1.5782   -1.5673   -0.7292 C   0  0  0  0  0  0  0  0  0  0  0  0
   -2.5448   -1.0064   -0.2171 O   0  0  0  0  0  0  0  0  0  0  0  0
   -1.2087   -1.5823   -3.2094 C   0  0  0  0  0  0  0  0  0  0  0  0
   -3.6915   -2.1888   -2.6360 H   0  0  0  0  0  0  0  0  0  0  0  0
   -1.0721   -3.2977   -1.9053 H   0  0  0  0  0  0  0  0  0  0  0  0
   -1.8017   -0.6681   -3.3281 H   0  0  0  0  0  0  0  0  0  0  0  0
   -0.1601   -1.2849   -3.1045 H   0  0  0  0  0  0  0  0  0  0  0  0
   -1.3074   -2.1646   -4.1319 H   0  0  0  0  0  0  0  0  0  0  0  0
   -0.2835   -1.5112   -0.2725 N   0  0  0  0  0  0  0  0  0  0  0  0
    0.0769   -0.7658    0.9424 C   0  0  0  0  0  0  0  0  0  0  0  0
    0.7699    0.5175    0.5614 C   0  0  0  0  0  0  0  0  0  0  0  0
    0.1808    1.4942    0.1060 O   0  0  0  0  0  0  0  0  0  0  0  0
    0.4587   -2.0097   -0.7289 H   0  0  0  0  0  0  0  0  0  0  0  0
    0.7453   -1.3776    1.5554 H   0  0  0  0  0  0  0  0  0  0  0  0
   -0.8315   -0.5425    1.5096 H   0  0  0  0  0  0  0  0  0  0  0  0
    2.1402    0.4462    0.7881 N   0  0  0  0  0  0  0  0  0  0  0  0
    3.0481    1.5280    0.5107 C   0  0  2  0  0  0  0  0  0  0  0  0
    3.7673    1.8821    1.8056 C   0  0  0  0  0  0  0  0  0  0  0  0
    3.3158    1.6171    2.9178 O   0  0  0  0  0  0  0  0  0  0  0  0
    2.3144    2.7357   -0.0514 C   0  0  0  0  0  0  0  0  0  0  0  0
    2.5216   -0.4174    1.1706 H   0  0  0  0  0  0  0  0  0  0  0  0
    3.7732    1.1530   -0.2197 H   0  0  0  0  0  0  0  0  0  0  0  0
    1.5834    3.1255    0.6665 H   0  0  0  0  0  0  0  0  0  0  0  0
    3.0099    3.5475   -0.2885 H   0  0  0  0  0  0  0  0  0  0  0  0
    1.7734    2.4719   -0.9665 H   0  0  0  0  0  0  0  0  0  0  0  0
    4.9518    2.5673    1.5741 N   0  0  0  0  0  0  0  0  0  0  0  0
    5.8098    3.0242    2.6424 C   0  0  0  0  0  0  0  0  0  0  0  0
    5.2582    2.7270    0.6189 H   0  0  0  0  0  0  0  0  0  0  0  0
    5.5428    4.0568    2.9116 H   0  0  0  0  0  0  0  0  0  0  0  0
    5.6823    2.3723    3.5191 H   0  0  0  0  0  0  0  0  0  0  0  0
    6.8579    2.9914    2.3102 H   0  0  0  0  0  0  0  0  0  0  0  0
  1  3  1  0  0  0  0
  1  7  1  0  0  0  0
  1  2  2  0  0  0  0
 18 19  1  0  0  0  0
 19 24  1  0  0  0  0
 19 20  2  0  0  0  0
 25 26  1  0  0  0  0
 26 34  1  0  0  0  0
 26 27  2  0  0  0  0
  8  9  1  0  0  0  0
  9 17  1  0  0  0  0
  9 10  2  0  0  0  0
 25 28  1  0  0  0  0
  8 11  1  0  0  0  0
 34 35  1  0  0  0  0
 17 18  1  0  0  0  0
 24 25  1  0  0  0  0
  7  8  1  0  0  0  0
  3  4  1  0  0  0  0
  3  5  1  0  0  0  0
  3  6  1  0  0  0  0
 28 31  1  0  0  0  0
 28 32  1  0  0  0  0
 28 33  1  0  0  0  0
 11 14  1  0  0  0  0
 11 15  1  0  0  0  0
 11 16  1  0  0  0  0
 35 37  1  0  0  0  0
 35 38  1  0  0  0  0
 35 39  1  0  0  0  0
 18 22  1  0  0  0  0
 18 23  1  0  0  0  0
 25 30  1  0  0  0  0
  8 13  1  0  0  0  0
 34 36  1  0  0  0  0
 17 21  1  0  0  0  0
  7 12  1  0  0  0  0
 24 29  1  0  0  0  0
M  END
$$$$

  -OEChem-05262214473D

 39 38  0     1  0  0  0  0  0999 V2000
   -3.5200   -4.0268   -1.6943 C   0  0  0  0  0  0  0  0  0  0  0  0
   -2.8702   -4.8827   -1.1054 O   0  0  0  0  0  0  0  0  0  0  0  0
   -4.9704   -4.2579   -1.9614 C   0  0  0  0  0  0  0  0  0  0  0  0
   -5.1456   -4.7573   -2.9278 H   0  0  0  0  0  0  0  0  0  0  0  0
   -5.4379   -4.9112   -1.2072 H   0  0  0  0  0  0  0  0  0  0  0  0
   -5.5954   -3.3510   -1.9864 H   0  0  0  0  0  0  0  0  0  0  0  0
   -3.0424   -2.8131   -2.1606 N   0  0  0  0  0  0  0  0  0  0  0  0
   -1.6755   -2.3891   -2.0077 C   0  0  2  0  0  0  0  0  0  0  0  0
   -1.5782   -1.5673   -0.7292 C   0  0  0  0  0  0  0  0  0  0  0  0
   -2.5448   -1.0064   -0.2171 O   0  0  0  0  0  0  0  0  0  0  0  0
   -1.2087   -1.5823   -3.2094 C   0  0  0  0  0  0  0  0  0  0  0  0
   -3.6915   -2.1888   -2.6360 H   0  0  0  0  0  0  0  0  0  0  0  0
   -1.0721   -3.2977   -1.9053 H   0  0  0  0  0  0  0  0  0  0  0  0
   -1.8017   -0.6681   -3.3281 H   0  0  0  0  0  0  0  0  0  0  0  0
   -0.1601   -1.2849   -3.1045 H   0  0  0  0  0  0  0  0  0  0  0  0
   -1.3074   -2.1646   -4.1319 H   0  0  0  0  0  0  0  0  0  0  0  0
   -0.2835   -1.5112   -0.2725 N   0  0  0  0  0  0  0  0  0  0  0  0
    0.0769   -0.7658    0.9424 C   0  0  0  0  0  0  0  0  0  0  0  0
    0.7699    0.5175    0.5614 C   0  0  0  0  0  0  0  0  0  0  0  0
    0.1750    1.5733    0.3617 O   0  0  0  0  0  0  0  0  0  0  0  0
    0.4587   -2.0097   -0.7289 H   0  0  0  0  0  0  0  0  0  0  0  0
    0.7453   -1.3776    1.5554 H   0  0  0  0  0  0  0  0  0  0  0  0
   -0.8315   -0.5425    1.5096 H   0  0  0  0  0  0  0  0  0  0  0  0
    2.1469    0.3469    0.4655 N   0  0  0  0  0  0  0  0  0  0  0  0
    3.0555    1.4063    0.1142 C   0  0  2  0  0  0  0  0  0  0  0  0
    4.0634    1.5561    1.2460 C   0  0  0  0  0  0  0  0  0  0  0  0
    3.8439    1.1765    2.3944 O   0  0  0  0  0  0  0  0  0  0  0  0
    2.3150    2.7119   -0.1306 C   0  0  0  0  0  0  0  0  0  0  0  0
    2.5327   -0.5769    0.6539 H   0  0  0  0  0  0  0  0  0  0  0  0
    3.5735    1.0893   -0.7975 H   0  0  0  0  0  0  0  0  0  0  0  0
    1.7897    3.0454    0.7718 H   0  0  0  0  0  0  0  0  0  0  0  0
    3.0045    3.5098   -0.4255 H   0  0  0  0  0  0  0  0  0  0  0  0
    1.5697    2.5943   -0.9246 H   0  0  0  0  0  0  0  0  0  0  0  0
    5.2200    2.2023    0.8327 N   0  0  0  0  0  0  0  0  0  0  0  0
    6.3220    2.4754    1.7255 C   0  0  0  0  0  0  0  0  0  0  0  0
    5.3241    2.4652   -0.1429 H   0  0  0  0  0  0  0  0  0  0  0  0
    6.2018    3.4782    2.1612 H   0  0  0  0  0  0  0  0  0  0  0  0
    6.3364    1.7254    2.5300 H   0  0  0  0  0  0  0  0  0  0  0  0
    7.2675    2.4302    1.1651 H   0  0  0  0  0  0  0  0  0  0  0  0
  1  3  1  0  0  0  0
  1  7  1  0  0  0  0
  1  2  2  0  0  0  0
 18 19  1  0  0  0  0
 19 24  1  0  0  0  0
 19 20  2  0  0  0  0
 25 26  1  0  0  0  0
 26 34  1  0  0  0  0
 26 27  2  0  0  0  0
  8  9  1  0  0  0  0
  9 17  1  0  0  0  0
  9 10  2  0  0  0  0
 25 28  1  0  0  0  0
  8 11  1  0  0  0  0
 34 35  1  0  0  0  0
 17 18  1  0  0  0  0
 24 25  1  0  0  0  0
  7  8  1  0  0  0  0
  3  4  1  0  0  0  0
  3  5  1  0  0  0  0
  3  6  1  0  0  0  0
 28 31  1  0  0  0  0
 28 32  1  0  0  0  0
 28 33  1  0  0  0  0
 11 14  1  0  0  0  0
 11 15  1  0  0  0  0
 11 16  1  0  0  0  0
 35 37  1  0  0  0  0
 35 38  1  0  0  0  0
 35 39  1  0  0  0  0
 18 22  1  0  0  0  0
 18 23  1  0  0  0  0
 25 30  1  0  0  0  0
  8 13  1  0  0  0  0
 34 36  1  0  0  0  0
 17 21  1  0  0  0  0
  7 12  1  0  0  0  0
 24 29  1  0  0  0  0
M  END
$$$$

  -OEChem-05262214473D

 39 38  0     1  0  0  0  0  0999 V2000
   -3.5200   -4.0268   -1.6943 C   0  0  0  0  0  0  0  0  0  0  0  0
   -2.8702   -4.8827   -1.1054 O   0  0  0  0  0  0  0  0  0  0  0  0
   -4.9704   -4.2579   -1.9614 C   0  0  0  0  0  0  0  0  0  0  0  0
   -5.1456   -4.7573   -2.9278 H   0  0  0  0  0  0  0  0  0  0  0  0
   -5.4379   -4.9112   -1.2072 H   0  0  0  0  0  0  0  0  0  0  0  0
   -5.5954   -3.3510   -1.9864 H   0  0  0  0  0  0  0  0  0  0  0  0
   -3.0424   -2.8131   -2.1606 N   0  0  0  0  0  0  0  0  0  0  0  0
   -1.6755   -2.3891   -2.0077 C   0  0  2  0  0  0  0  0  0  0  0  0
   -1.5782   -1.5673   -0.7292 C   0  0  0  0  0  0  0  0  0  0  0  0
   -2.5448   -1.0064   -0.2171 O   0  0  0  0  0  0  0  0  0  0  0  0
   -1.2087   -1.5823   -3.2094 C   0  0  0  0  0  0  0  0  0  0  0  0
   -3.6915   -2.1888   -2.6360 H   0  0  0  0  0  0  0  0  0  0  0  0
   -1.0721   -3.2977   -1.9053 H   0  0  0  0  0  0  0  0  0  0  0  0
   -1.8017   -0.6681   -3.3281 H   0  0  0  0  0  0  0  0  0  0  0  0
   -0.1601   -1.2849   -3.1045 H   0  0  0  0  0  0  0  0  0  0  0  0
   -1.3074   -2.1646   -4.1319 H   0  0  0  0  0  0  0  0  0  0  0  0
   -0.2835   -1.5112   -0.2725 N   0  0  0  0  0  0  0  0  0  0  0  0
    0.0769   -0.7658    0.9424 C   0  0  0  0  0  0  0  0  0  0  0  0
    0.7699    0.5175    0.5614 C   0  0  0  0  0  0  0  0  0  0  0  0
    0.2309    1.6196    0.6194 O   0  0  0  0  0  0  0  0  0  0  0  0
    0.4587   -2.0097   -0.7289 H   0  0  0  0  0  0  0  0  0  0  0  0
    0.7453   -1.3776    1.5554 H   0  0  0  0  0  0  0  0  0  0  0  0
   -0.8315   -0.5425    1.5096 H   0  0  0  0  0  0  0  0  0  0  0  0
    2.0757    0.2889    0.1406 N   0  0  0  0  0  0  0  0  0  0  0  0
    2.9673    1.3354   -0.2850 C   0  0  2  0  0  0  0  0  0  0  0  0
    4.2049    1.2883    0.6014 C   0  0  0  0  0  0  0  0  0  0  0  0
    4.2098    0.7786    1.7200 O   0  0  0  0  0  0  0  0  0  0  0  0
    2.2966    2.6982   -0.2100 C   0  0  0  0  0  0  0  0  0  0  0  0
    2.4192   -0.6701    0.1333 H   0  0  0  0  0  0  0  0  0  0  0  0
    3.2492    1.1095   -1.3192 H   0  0  0  0  0  0  0  0  0  0  0  0
    2.0069    2.9420    0.8186 H   0  0  0  0  0  0  0  0  0  0  0  0
    2.9665    3.4900   -0.5612 H   0  0  0  0  0  0  0  0  0  0  0  0
    1.3902    2.7209   -0.8247 H   0  0  0  0  0  0  0  0  0  0  0  0
    5.2918    1.9205    0.0140 N   0  0  0  0  0  0  0  0  0  0  0  0
    6.5789    2.0208    0.6616 C   0  0  0  0  0  0  0  0  0  0  0  0
    5.2027    2.2987   -0.9245 H   0  0  0  0  0  0  0  0  0  0  0  0
    6.6351    2.9654    1.2224 H   0  0  0  0  0  0  0  0  0  0  0  0
    6.7079    1.1754    1.3535 H   0  0  0  0  0  0  0  0  0  0  0  0
    7.3742    1.9975   -0.0980 H   0  0  0  0  0  0  0  0  0  0  0  0
  1  3  1  0  0  0  0
  1  7  1  0  0  0  0
  1  2  2  0  0  0  0
 18 19  1  0  0  0  0
 19 24  1  0  0  0  0
 19 20  2  0  0  0  0
 25 26  1  0  0  0  0
 26 34  1  0  0  0  0
 26 27  2  0  0  0  0
  8  9  1  0  0  0  0
  9 17  1  0  0  0  0
  9 10  2  0  0  0  0
 25 28  1  0  0  0  0
  8 11  1  0  0  0  0
 34 35  1  0  0  0  0
 17 18  1  0  0  0  0
 24 25  1  0  0  0  0
  7  8  1  0  0  0  0
  3  4  1  0  0  0  0
  3  5  1  0  0  0  0
  3  6  1  0  0  0  0
 28 31  1  0  0  0  0
 28 32  1  0  0  0  0
 28 33  1  0  0  0  0
 11 14  1  0  0  0  0
 11 15  1  0  0  0  0
 11 16  1  0  0  0  0
 35 37  1  0  0  0  0
 35 38  1  0  0  0  0
 35 39  1  0  0  0  0
 18 22  1  0  0  0  0
 18 23  1  0  0  0  0
 25 30  1  0  0  0  0
  8 13  1  0  0  0  0
 34 36  1  0  0  0  0
 17 21  1  0  0  0  0
  7 12  1  0  0  0  0
 24 29  1  0  0  0  0
M  END
$$$$

  -OEChem-05262214473D

 39 38  0     1  0  0  0  0  0999 V2000
   -3.5200   -4.0268   -1.6943 C   0  0  0  0  0  0  0  0  0  0  0  0
   -2.8702   -4.8827   -1.1054 O   0  0  0  0  0  0  0  0  0  0  0  0
   -4.9704   -4.2579   -1.9614 C   0  0  0  0  0  0  0  0  0  0  0  0
   -5.1456   -4.7573   -2.9278 H   0  0  0  0  0  0  0  0  0  0  0  0
   -5.4379   -4.9112   -1.2072 H   0  0  0  0  0  0  0  0  0  0  0  0
   -5.5954   -3.3510   -1.9864 H   0  0  0  0  0  0  0  0  0  0  0  0
   -3.0424   -2.8131   -2.1606 N   0  0  0  0  0  0  0  0  0  0  0  0
   -1.6755   -2.3891   -2.0077 C   0  0  2  0  0  0  0  0  0  0  0  0
   -1.5782   -1.5673   -0.7292 C   0  0  0  0  0  0  0  0  0  0  0  0
   -2.5448   -1.0064   -0.2171 O   0  0  0  0  0  0  0  0  0  0  0  0
   -1.2087   -1.5823   -3.2094 C   0  0  0  0  0  0  0  0  0  0  0  0
   -3.6915   -2.1888   -2.6360 H   0  0  0  0  0  0  0  0  0  0  0  0
   -1.0721   -3.2977   -1.9053 H   0  0  0  0  0  0  0  0  0  0  0  0
   -1.8017   -0.6681   -3.3281 H   0  0  0  0  0  0  0  0  0  0  0  0
   -0.1601   -1.2849   -3.1045 H   0  0  0  0  0  0  0  0  0  0  0  0
   -1.3074   -2.1646   -4.1319 H   0  0  0  0  0  0  0  0  0  0  0  0
   -0.2835   -1.5112   -0.2725 N   0  0  0  0  0  0  0  0  0  0  0  0
    0.0769   -0.7658    0.9424 C   0  0  0  0  0  0  0  0  0  0  0  0
    0.7699    0.5175    0.5614 C   0  0  0  0  0  0  0  0  0  0  0  0
    0.3447    1.6300    0.8614 O   0  0  0  0  0  0  0  0  0  0  0  0
    0.4587   -2.0097   -0.7289 H   0  0  0  0  0  0  0  0  0  0  0  0
    0.7453   -1.3776    1.5554 H   0  0  0  0  0  0  0  0  0  0  0  0
   -0.8315   -0.5425    1.5096 H   0  0  0  0  0  0  0  0  0  0  0  0
    1.9315    0.2761   -0.1643 N   0  0  0  0  0  0  0  0  0  0  0  0
    2.7895    1.3202   -0.6595 C   0  0  2  0  0  0  0  0  0  0  0  0
    4.1819    1.0971   -0.0843 C   0  0  0  0  0  0  0  0  0  0  0  0
    4.3886    0.4507    0.9406 O   0  0  0  0  0  0  0  0  0  0  0  0
    2.2604    2.6957   -0.2844 C   0  0  0  0  0  0  0  0  0  0  0  0
    2.1887   -0.6908   -0.3555 H   0  0  0  0  0  0  0  0  0  0  0  0
    2.8223    1.2124   -1.7492 H   0  0  0  0  0  0  0  0  0  0  0  0
    2.2203    2.8223    0.8037 H   0  0  0  0  0  0  0  0  0  0  0  0
    2.8987    3.4895   -0.6862 H   0  0  0  0  0  0  0  0  0  0  0  0
    1.2472    2.8430   -0.6736 H   0  0  0  0  0  0  0  0  0  0  0  0
    5.1623    1.7409   -0.8262 N   0  0  0  0  0  0  0  0  0  0  0  0
    6.5629    1.6914   -0.4767 C   0  0  0  0  0  0  0  0  0  0  0  0
    4.9023    2.2388   -1.6725 H   0  0  0  0  0  0  0  0  0  0  0  0
    6.8133    2.5534    0.1591 H   0  0  0  0  0  0  0  0  0  0  0  0
    6.7716    0.7599    0.0698 H   0  0  0  0  0  0  0  0  0  0  0  0
    7.1706    1.7230   -1.3930 H   0  0  0  0  0  0  0  0  0  0  0  0
  1  3  1  0  0  0  0
  1  7  1  0  0  0  0
  1  2  2  0  0  0  0
 18 19  1  0  0  0  0
 19 24  1  0  0  0  0
 19 20  2  0  0  0  0
 25 26  1  0  0  0  0
 26 34  1  0  0  0  0
 26 27  2  0  0  0  0
  8  9  1  0  0  0  0
  9 17  1  0  0  0  0
  9 10  2  0  0  0  0
 25 28  1  0  0  0  0
  8 11  1  0  0  0  0
 34 35  1  0  0  0  0
 17 18  1  0  0  0  0
 24 25  1  0  0  0  0
  7  8  1  0  0  0  0
  3  4  1  0  0  0  0
  3  5  1  0  0  0  0
  3  6  1  0  0  0  0
 28 31  1  0  0  0  0
 28 32  1  0  0  0  0
 28 33  1  0  0  0  0
 11 14  1  0  0  0  0
 11 15  1  0  0  0  0
 11 16  1  0  0  0  0
 35 37  1  0  0  0  0
 35 38  1  0  0  0  0
 35 39  1  0  0  0  0
 18 22  1  0  0  0  0
 18 23  1  0  0  0  0
 25 30  1  0  0  0  0
  8 13  1  0  0  0  0
 34 36  1  0  0  0  0
 17 21  1  0  0  0  0
  7 12  1  0  0  0  0
 24 29  1  0  0  0  0
M  END
$$$$

  -OEChem-05262214473D

 39 38  0     1  0  0  0  0  0999 V2000
   -3.5200   -4.0268   -1.6943 C   0  0  0  0  0  0  0  0  0  0  0  0
   -2.8702   -4.8827   -1.1054 O   0  0  0  0  0  0  0  0  0  0  0  0
   -4.9704   -4.2579   -1.9614 C   0  0  0  0  0  0  0  0  0  0  0  0
   -5.1456   -4.7573   -2.9278 H   0  0  0  0  0  0  0  0  0  0  0  0
   -5.4379   -4.9112   -1.2072 H   0  0  0  0  0  0  0  0  0  0  0  0
   -5.5954   -3.3510   -1.9864 H   0  0  0  0  0  0  0  0  0  0  0  0
   -3.0424   -2.8131   -2.1606 N   0  0  0  0  0  0  0  0  0  0  0  0
   -1.6755   -2.3891   -2.0077 C   0  0  2  0  0  0  0  0  0  0  0  0
   -1.5782   -1.5673   -0.7292 C   0  0  0  0  0  0  0  0  0  0  0  0
   -2.5448   -1.0064   -0.2171 O   0  0  0  0  0  0  0  0  0  0  0  0
   -1.2087   -1.5823   -3.2094 C   0  0  0  0  0  0  0  0  0  0  0  0
   -3.6915   -2.1888   -2.6360 H   0  0  0  0  0  0  0  0  0  0  0  0
   -1.0721   -3.2977   -1.9053 H   0  0  0  0  0  0  0  0  0  0  0  0
   -1.8017   -0.6681   -3.3281 H   0  0  0  0  0  0  0  0  0  0  0  0
   -0.1601   -1.2849   -3.1045 H   0  0  0  0  0  0  0  0  0  0  0  0
   -1.3074   -2.1646   -4.1319 H   0  0  0  0  0  0  0  0  0  0  0  0
   -0.2835   -1.5112   -0.2725 N   0  0  0  0  0  0  0  0  0  0  0  0
    0.0769   -0.7658    0.9424 C   0  0  0  0  0  0  0  0  0  0  0  0
    0.7699    0.5175    0.5614 C   0  0  0  0  0  0  0  0  0  0  0  0
    0.5087    1.6038    1.0715 O   0  0  0  0  0  0  0  0  0  0  0  0
    0.4587   -2.0097   -0.7289 H   0  0  0  0  0  0  0  0  0  0  0  0
    0.7453   -1.3776    1.5554 H   0  0  0  0  0  0  0  0  0  0  0  0
   -0.8315   -0.5425    1.5096 H   0  0  0  0  0  0  0  0  0  0  0  0
    1.7242    0.3096   -0.4287 N   0  0  0  0  0  0  0  0  0  0  0  0
    2.5342    1.3617   -0.9840 C   0  0  2  0  0  0  0  0  0  0  0  0
    3.9961    0.9955   -0.7643 C   0  0  0  0  0  0  0  0  0  0  0  0
    4.3681    0.2149    0.1094 O   0  0  0  0  0  0  0  0  0  0  0  0
    2.2088    2.7045   -0.3485 C   0  0  0  0  0  0  0  0  0  0  0  0
    1.8570   -0.6375   -0.7794 H   0  0  0  0  0  0  0  0  0  0  0  0
    2.3219    1.3909   -2.0582 H   0  0  0  0  0  0  0  0  0  0  0  0
    2.4152    2.6945    0.7280 H   0  0  0  0  0  0  0  0  0  0  0  0
    2.8056    3.5083   -0.7920 H   0  0  0  0  0  0  0  0  0  0  0  0
    1.1502    2.9524   -0.4817 H   0  0  0  0  0  0  0  0  0  0  0  0
    4.8404    1.6760   -1.6305 N   0  0  0  0  0  0  0  0  0  0  0  0
    6.2750    1.5098   -1.6119 C   0  0  0  0  0  0  0  0  0  0  0  0
    4.4435    2.2896   -2.3359 H   0  0  0  0  0  0  0  0  0  0  0  0
    6.7242    2.2704   -0.9563 H   0  0  0  0  0  0  0  0  0  0  0  0
    6.5230    0.5071   -1.2336 H   0  0  0  0  0  0  0  0  0  0  0  0
    6.6706    1.6252   -2.6318 H   0  0  0  0  0  0  0  0  0  0  0  0
  1  3  1  0  0  0  0
  1  7  1  0  0  0  0
  1  2  2  0  0  0  0
 18 19  1  0  0  0  0
 19 24  1  0  0  0  0
 19 20  2  0  0  0  0
 25 26  1  0  0  0  0
 26 34  1  0  0  0  0
 26 27  2  0  0  0  0
  8  9  1  0  0  0  0
  9 17  1  0  0  0  0
  9 10  2  0  0  0  0
 25 28  1  0  0  0  0
  8 11  1  0  0  0  0
 34 35  1  0  0  0  0
 17 18  1  0  0  0  0
 24 25  1  0  0  0  0
  7  8  1  0  0  0  0
  3  4  1  0  0  0  0
  3  5  1  0  0  0  0
  3  6  1  0  0  0  0
 28 31  1  0  0  0  0
 28 32  1  0  0  0  0
 28 33  1  0  0  0  0
 11 14  1  0  0  0  0
 11 15  1  0  0  0  0
 11 16  1  0  0  0  0
 35 37  1  0  0  0  0
 35 38  1  0  0  0  0
 35 39  1  0  0  0  0
 18 22  1  0  0  0  0
 18 23  1  0  0  0  0
 25 30  1  0  0  0  0
  8 13  1  0  0  0  0
 34 36  1  0  0  0  0
 17 21  1  0  0  0  0
  7 12  1  0  0  0  0
 24 29  1  0  0  0  0
M  END
$$$$

  -OEChem-05262214473D

 39 38  0     1  0  0  0  0  0999 V2000
   -3.5200   -4.0268   -1.6943 C   0  0  0  0  0  0  0  0  0  0  0  0
   -2.8702   -4.8827   -1.1054 O   0  0  0  0  0  0  0  0  0  0  0  0
   -4.9704   -4.2579   -1.9614 C   0  0  0  0  0  0  0  0  0  0  0  0
   -5.1456   -4.7573   -2.9278 H   0  0  0  0  0  0  0  0  0  0  0  0
   -5.4379   -4.9112   -1.2072 H   0  0  0  0  0  0  0  0  0  0  0  0
   -5.5954   -3.3510   -1.9864 H   0  0  0  0  0  0  0  0  0  0  0  0
   -3.0424   -2.8131   -2.1606 N   0  0  0  0  0  0  0  0  0  0  0  0
   -1.6755   -2.3891   -2.0077 C   0  0  2  0  0  0  0  0  0  0  0  0
   -1.5782   -1.5673   -0.7292 C   0  0  0  0  0  0  0  0  0  0  0  0
   -2.5448   -1.0064   -0.2171 O   0  0  0  0  0  0  0  0  0  0  0  0
   -1.2087   -1.5823   -3.2094 C   0  0  0  0  0  0  0  0  0  0  0  0
   -3.6915   -2.1888   -2.6360 H   0  0  0  0  0  0  0  0  0  0  0  0
   -1.0721   -3.2977   -1.9053 H   0  0  0  0  0  0  0  0  0  0  0  0
   -1.8017   -0.6681   -3.3281 H   0  0  0  0  0  0  0  0  0  0  0  0
   -0.1601   -1.2849   -3.1045 H   0  0  0  0  0  0  0  0  0  0  0  0
   -1.3074   -2.1646   -4.1319 H   0  0  0  0  0  0  0  0  0  0  0  0
   -0.2835   -1.5112   -0.2725 N   0  0  0  0  0  0  0  0  0  0  0  0
    0.0769   -0.7658    0.9424 C   0  0  0  0  0  0  0  0  0  0  0  0
    0.7699    0.5175    0.5614 C   0  0  0  0  0  0  0  0  0  0  0  0
    0.7116    1.5428    1.2351 O   0  0  0  0  0  0  0  0  0  0  0  0
    0.4587   -2.0097   -0.7289 H   0  0  0  0  0  0  0  0  0  0  0  0
    0.7453   -1.3776    1.5554 H   0  0  0  0  0  0  0  0  0  0  0  0
   -0.8315   -0.5425    1.5096 H   0  0  0  0  0  0  0  0  0  0  0  0
    1.4680    0.3869   -0.6344 N   0  0  0  0  0  0  0  0  0  0  0  0
    2.2189    1.4571   -1.2362 C   0  0  2  0  0  0  0  0  0  0  0  0
    3.6602    0.9905   -1.3923 C   0  0  0  0  0  0  0  0  0  0  0  0
    4.1498    0.0874   -0.7171 O   0  0  0  0  0  0  0  0  0  0  0  0
    2.1455    2.7240   -0.3981 C   0  0  0  0  0  0  0  0  0  0  0  0
    1.4467   -0.5139   -1.1095 H   0  0  0  0  0  0  0  0  0  0  0  0
    1.7821    1.6328   -2.2253 H   0  0  0  0  0  0  0  0  0  0  0  0
    2.5785    2.5674    0.5967 H   0  0  0  0  0  0  0  0  0  0  0  0
    2.6936    3.5452   -0.8715 H   0  0  0  0  0  0  0  0  0  0  0  0
    1.1061    3.0415   -0.2618 H   0  0  0  0  0  0  0  0  0  0  0  0
    4.3480    1.7300   -2.3443 N   0  0  0  0  0  0  0  0  0  0  0  0
    5.7350    1.4883   -2.6665 C   0  0  0  0  0  0  0  0  0  0  0  0
    3.8574    2.4477   -2.8696 H   0  0  0  0  0  0  0  0  0  0  0  0
    6.3739    2.1355   -2.0477 H   0  0  0  0  0  0  0  0  0  0  0  0
    5.9792    0.4343   -2.4679 H   0  0  0  0  0  0  0  0  0  0  0  0
    5.9084    1.7108   -3.7298 H   0  0  0  0  0  0  0  0  0  0  0  0
  1  3  1  0  0  0  0
  1  7  1  0  0  0  0
  1  2  2  0  0  0  0
 18 19  1  0  0  0  0
 19 24  1  0  0  0  0
 19 20  2  0  0  0  0
 25 26  1  0  0  0  0
 26 34  1  0  0  0  0
 26 27  2  0  0  0  0
  8  9  1  0  0  0  0
  9 17  1  0  0  0  0
  9 10  2  0  0  0  0
 25 28  1  0  0  0  0
  8 11  1  0  0  0  0
 34 35  1  0  0  0  0
 17 18  1  0  0  0  0
 24 25  1  0  0  0  0
  7  8  1  0  0  0  0
  3  4  1  0  0  0  0
  3  5  1  0  0  0  0
  3  6  1  0  0  0  0
 28 31  1  0  0  0  0
 28 32  1  0  0  0  0
 28 33  1  0  0  0  0
 11 14  1  0  0  0  0
 11 15  1  0  0  0  0
 11 16  1  0  0  0  0
 35 37  1  0  0  0  0
 35 38  1  0  0  0  0
 35 39  1  0  0  0  0
 18 22  1  0  0  0  0
 18 23  1  0  0  0  0
 25 30  1  0  0  0  0
  8 13  1  0  0  0  0
 34 36  1  0  0  0  0
 17 21  1  0  0  0  0
  7 12  1  0  0  0  0
 24 29  1  0  0  0  0
M  END
$$$$

  -OEChem-05262214473D

 39 38  0     1  0  0  0  0  0999 V2000
   -3.5200   -4.0268   -1.6943 C   0  0  0  0  0  0  0  0  0  0  0  0
   -2.8702   -4.8827   -1.1054 O   0  0  0  0  0  0  0  0  0  0  0  0
   -4.9704   -4.2579   -1.9614 C   0  0  0  0  0  0  0  0  0  0  0  0
   -5.1456   -4.7573   -2.9278 H   0  0  0  0  0  0  0  0  0  0  0  0
   -5.4379   -4.9112   -1.2072 H   0  0  0  0  0  0  0  0  0  0  0  0
   -5.5954   -3.3510   -1.9864 H   0  0  0  0  0  0  0  0  0  0  0  0
   -3.0424   -2.8131   -2.1606 N   0  0  0  0  0  0  0  0  0  0  0  0
   -1.6755   -2.3891   -2.0077 C   0  0  2  0  0  0  0  0  0  0  0  0
   -1.5782   -1.5673   -0.7292 C   0  0  0  0  0  0  0  0  0  0  0  0
   -2.5448   -1.0064   -0.2171 O   0  0  0  0  0  0  0  0  0  0  0  0
   -1.2087   -1.5823   -3.2094 C   0  0  0  0  0  0  0  0  0  0  0  0
   -3.6915   -2.1888   -2.6360 H   0  0  0  0  0  0  0  0  0  0  0  0
   -1.0721   -3.2977   -1.9053 H   0  0  0  0  0  0  0  0  0  0  0  0
   -1.8017   -0.6681   -3.3281 H   0  0  0  0  0  0  0  0  0  0  0  0
   -0.1601   -1.2849   -3.1045 H   0  0  0  0  0  0  0  0  0  0  0  0
   -1.3074   -2.1646   -4.1319 H   0  0  0  0  0  0  0  0  0  0  0  0
   -0.2835   -1.5112   -0.2725 N   0  0  0  0  0  0  0  0  0  0  0  0
    0.0769   -0.7658    0.9424 C   0  0  0  0  0  0  0  0  0  0  0  0
    0.7699    0.5175    0.5614 C   0  0  0  0  0  0  0  0  0  0  0  0
    0.9397    1.4511    1.3411 O   0  0  0  0  0  0  0  0  0  0  0  0
    0.4587   -2.0097   -0.7289 H   0  0  0  0  0  0  0  0  0  0  0  0
    0.7453   -1.3776    1.5554 H   0  0  0  0  0  0  0  0  0  0  0  0
   -0.8315   -0.5425    1.5096 H   0  0  0  0  0  0  0  0  0  0  0  0
    1.1802    0.5028   -0.7674 N   0  0  0  0  0  0  0  0  0  0  0  0
    1.8650    1.5999   -1.3989 C   0  0  2  0  0  0  0  0  0  0  0  0
    3.1971    1.0823   -1.9255 C   0  0  0  0  0  0  0  0  0  0  0  0
    3.7485    0.0769   -1.4824 O   0  0  0  0  0  0  0  0  0  0  0  0
    2.0747    2.7528   -0.4296 C   0  0  0  0  0  0  0  0  0  0  0  0
    0.9857   -0.3285   -1.3232 H   0  0  0  0  0  0  0  0  0  0  0  0
    1.2398    1.9216   -2.2389 H   0  0  0  0  0  0  0  0  0  0  0  0
    2.6990    2.4495    0.4187 H   0  0  0  0  0  0  0  0  0  0  0  0
    2.5703    3.5976   -0.9192 H   0  0  0  0  0  0  0  0  0  0  0  0
    1.1177    3.1043   -0.0292 H   0  0  0  0  0  0  0  0  0  0  0  0
    3.7186    1.8993   -2.9188 N   0  0  0  0  0  0  0  0  0  0  0  0
    4.9795    1.6284   -3.5689 C   0  0  0  0  0  0  0  0  0  0  0  0
    3.1841    2.7022   -3.2372 H   0  0  0  0  0  0  0  0  0  0  0  0
    5.7862    2.1580   -3.0408 H   0  0  0  0  0  0  0  0  0  0  0  0
    5.1772    0.5464   -3.5490 H   0  0  0  0  0  0  0  0  0  0  0  0
    4.9357    1.9740   -4.6122 H   0  0  0  0  0  0  0  0  0  0  0  0
  1  3  1  0  0  0  0
  1  7  1  0  0  0  0
  1  2  2  0  0  0  0
 18 19  1  0  0  0  0
 19 24  1  0  0  0  0
 19 20  2  0  0  0  0
 25 26  1  0  0  0  0
 26 34  1  0  0  0  0
 26 27  2  0  0  0  0
  8  9  1  0  0  0  0
  9 17  1  0  0  0  0
  9 10  2  0  0  0  0
 25 28  1  0  0  0  0
  8 11  1  0  0  0  0
 34 35  1  0  0  0  0
 17 18  1  0  0  0  0
 24 25  1  0  0  0  0
  7  8  1  0  0  0  0
  3  4  1  0  0  0  0
  3  5  1  0  0  0  0
  3  6  1  0  0  0  0
 28 31  1  0  0  0  0
 28 32  1  0  0  0  0
 28 33  1  0  0  0  0
 11 14  1  0  0  0  0
 11 15  1  0  0  0  0
 11 16  1  0  0  0  0
 35 37  1  0  0  0  0
 35 38  1  0  0  0  0
 35 39  1  0  0  0  0
 18 22  1  0  0  0  0
 18 23  1  0  0  0  0
 25 30  1  0  0  0  0
  8 13  1  0  0  0  0
 34 36  1  0  0  0  0
 17 21  1  0  0  0  0
  7 12  1  0  0  0  0
 24 29  1  0  0  0  0
M  END
$$$$

  -OEChem-05262214473D

 39 38  0     1  0  0  0  0  0999 V2000
   -3.5200   -4.0268   -1.6943 C   0  0  0  0  0  0  0  0  0  0  0  0
   -2.8702   -4.8827   -1.1054 O   0  0  0  0  0  0  0  0  0  0  0  0
   -4.9704   -4.2579   -1.9614 C   0  0  0  0  0  0  0  0  0  0  0  0
   -5.1456   -4.7573   -2.9278 H   0  0  0  0  0  0  0  0  0  0  0  0
   -5.4379   -4.9112   -1.2072 H   0  0  0  0  0  0  0  0  0  0  0  0
   -5.5954   -3.3510   -1.9864 H   0  0  0  0  0  0  0  0  0  0  0  0
   -3.0424   -2.8131   -2.1606 N   0  0  0  0  0  0  0  0  0  0  0  0
   -1.6755   -2.3891   -2.0077 C   0  0  2  0  0  0  0  0  0  0  0  0
   -1.5782   -1.5673   -0.7292 C   0  0  0  0  0  0  0  0  0  0  0  0
   -2.5448   -1.0064   -0.2171 O   0  0  0  0  0  0  0  0  0  0  0  0
   -1.2087   -1.5823   -3.2094 C   0  0  0  0  0  0  0  0  0  0  0  0
   -3.6915   -2.1888   -2.6360 H   0  0  0  0  0  0  0  0  0  0  0  0
   -1.0721   -3.2977   -1.9053 H   0  0  0  0  0  0  0  0  0  0  0  0
   -1.8017   -0.6681   -3.3281 H   0  0  0  0  0  0  0  0  0  0  0  0
   -0.1601   -1.2849   -3.1045 H   0  0  0  0  0  0  0  0  0  0  0  0
   -1.3074   -2.1646   -4.1319 H   0  0  0  0  0  0  0  0  0  0  0  0
   -0.2835   -1.5112   -0.2725 N   0  0  0  0  0  0  0  0  0  0  0  0
    0.0769   -0.7658    0.9424 C   0  0  0  0  0  0  0  0  0  0  0  0
    0.7699    0.5175    0.5614 C   0  0  0  0  0  0  0  0  0  0  0  0
    1.1774    1.3350    1.3824 O   0  0  0  0  0  0  0  0  0  0  0  0
    0.4587   -2.0097   -0.7289 H   0  0  0  0  0  0  0  0  0  0  0  0
    0.7453   -1.3776    1.5554 H   0  0  0  0  0  0  0  0  0  0  0  0
   -0.8315   -0.5425    1.5096 H   0  0  0  0  0  0  0  0  0  0  0  0
    0.8805    0.6494   -0.8187 N   0  0  0  0  0  0  0  0  0  0  0  0
    1.4967    1.7803   -1.4612 C   0  0  2  0  0  0  0  0  0  0  0  0
    2.6382    1.2647   -2.3275 C   0  0  0  0  0  0  0  0  0  0  0  0
    3.1915    0.1841   -2.1345 O   0  0  0  0  0  0  0  0  0  0  0  0
    2.0013    2.7891   -0.4411 C   0  0  0  0  0  0  0  0  0  0  0  0
    0.5055   -0.0937   -1.4059 H   0  0  0  0  0  0  0  0  0  0  0  0
    0.7318    2.2377   -2.0982 H   0  0  0  0  0  0  0  0  0  0  0  0
    2.7684    2.3489    0.2063 H   0  0  0  0  0  0  0  0  0  0  0  0
    2.4441    3.6620   -0.9319 H   0  0  0  0  0  0  0  0  0  0  0  0
    1.1843    3.1365    0.2005 H   0  0  0  0  0  0  0  0  0  0  0  0
    2.9951    2.1724   -3.3149 N   0  0  0  0  0  0  0  0  0  0  0  0
    4.0602    1.9204   -4.2573 C   0  0  0  0  0  0  0  0  0  0  0  0
    2.4693    3.0358   -3.4136 H   0  0  0  0  0  0  0  0  0  0  0  0
    5.0011    2.3364   -3.8679 H   0  0  0  0  0  0  0  0  0  0  0  0
    4.1716    0.8358   -4.4032 H   0  0  0  0  0  0  0  0  0  0  0  0
    3.8190    2.3969   -5.2190 H   0  0  0  0  0  0  0  0  0  0  0  0
  1  3  1  0  0  0  0
  1  7  1  0  0  0  0
  1  2  2  0  0  0  0
 18 19  1  0  0  0  0
 19 24  1  0  0  0  0
 19 20  2  0  0  0  0
 25 26  1  0  0  0  0
 26 34  1  0  0  0  0
 26 27  2  0  0  0  0
  8  9  1  0  0  0  0
  9 17  1  0  0  0  0
  9 10  2  0  0  0  0
 25 28  1  0  0  0  0
  8 11  1  0  0  0  0
 34 35  1  0  0  0  0
 17 18  1  0  0  0  0
 24 25  1  0  0  0  0
  7  8  1  0  0  0  0
  3  4  1  0  0  0  0
  3  5  1  0  0  0  0
  3  6  1  0  0  0  0
 28 31  1  0  0  0  0
 28 32  1  0  0  0  0
 28 33  1  0  0  0  0
 11 14  1  0  0  0  0
 11 15  1  0  0  0  0
 11 16  1  0  0  0  0
 35 37  1  0  0  0  0
 35 38  1  0  0  0  0
 35 39  1  0  0  0  0
 18 22  1  0  0  0  0
 18 23  1  0  0  0  0
 25 30  1  0  0  0  0
  8 13  1  0  0  0  0
 34 36  1  0  0  0  0
 17 21  1  0  0  0  0
  7 12  1  0  0  0  0
 24 29  1  0  0  0  0
M  END
$$$$

  -OEChem-05262214473D

 39 38  0     1  0  0  0  0  0999 V2000
   -3.5200   -4.0268   -1.6943 C   0  0  0  0  0  0  0  0  0  0  0  0
   -2.8702   -4.8827   -1.1054 O   0  0  0  0  0  0  0  0  0  0  0  0
   -4.9704   -4.2579   -1.9614 C   0  0  0  0  0  0  0  0  0  0  0  0
   -5.1456   -4.7573   -2.9278 H   0  0  0  0  0  0  0  0  0  0  0  0
   -5.4379   -4.9112   -1.2072 H   0  0  0  0  0  0  0  0  0  0  0  0
   -5.5954   -3.3510   -1.9864 H   0  0  0  0  0  0  0  0  0  0  0  0
   -3.0424   -2.8131   -2.1606 N   0  0  0  0  0  0  0  0  0  0  0  0
   -1.6755   -2.3891   -2.0077 C   0  0  2  0  0  0  0  0  0  0  0  0
   -1.5782   -1.5673   -0.7292 C   0  0  0  0  0  0  0  0  0  0  0  0
   -2.5448   -1.0064   -0.2171 O   0  0  0  0  0  0  0  0  0  0  0  0
   -1.2087   -1.5823   -3.2094 C   0  0  0  0  0  0  0  0  0  0  0  0
   -3.6915   -2.1888   -2.6360 H   0  0  0  0  0  0  0  0  0  0  0  0
   -1.0721   -3.2977   -1.9053 H   0  0  0  0  0  0  0  0  0  0  0  0
   -1.8017   -0.6681   -3.3281 H   0  0  0  0  0  0  0  0  0  0  0  0
   -0.1601   -1.2849   -3.1045 H   0  0  0  0  0  0  0  0  0  0  0  0
   -1.3074   -2.1646   -4.1319 H   0  0  0  0  0  0  0  0  0  0  0  0
   -0.2835   -1.5112   -0.2725 N   0  0  0  0  0  0  0  0  0  0  0  0
    0.0769   -0.7658    0.9424 C   0  0  0  0  0  0  0  0  0  0  0  0
    0.7699    0.5175    0.5614 C   0  0  0  0  0  0  0  0  0  0  0  0
    1.4084    1.2024    1.3561 O   0  0  0  0  0  0  0  0  0  0  0  0
    0.4587   -2.0097   -0.7289 H   0  0  0  0  0  0  0  0  0  0  0  0
    0.7453   -1.3776    1.5554 H   0  0  0  0  0  0  0  0  0  0  0  0
   -0.8315   -0.5425    1.5096 H   0  0  0  0  0  0  0  0  0  0  0  0
    0.5893    0.8168   -0.7848 N   0  0  0  0  0  0  0  0  0  0  0  0
    1.1389    1.9861   -1.4187 C   0  0  2  0  0  0  0  0  0  0  0  0
    2.0217    1.5253   -2.5710 C   0  0  0  0  0  0  0  0  0  0  0  0
    2.5168    0.4016   -2.6289 O   0  0  0  0  0  0  0  0  0  0  0  0
    1.9302    2.8303   -0.4317 C   0  0  0  0  0  0  0  0  0  0  0  0
    0.0388    0.1743   -1.3521 H   0  0  0  0  0  0  0  0  0  0  0  0
    0.2928    2.5595   -1.8128 H   0  0  0  0  0  0  0  0  0  0  0  0
    2.7821    2.2725   -0.0262 H   0  0  0  0  0  0  0  0  0  0  0  0
    2.3237    3.7340   -0.9087 H   0  0  0  0  0  0  0  0  0  0  0  0
    1.3013    3.1360    0.4115 H   0  0  0  0  0  0  0  0  0  0  0  0
    2.2269    2.5306   -3.5056 N   0  0  0  0  0  0  0  0  0  0  0  0
    3.0396    2.3446   -4.6850 C   0  0  0  0  0  0  0  0  0  0  0  0
    1.7619    3.4258   -3.3868 H   0  0  0  0  0  0  0  0  0  0  0  0
    4.0723    2.6585   -4.4726 H   0  0  0  0  0  0  0  0  0  0  0  0
    3.0310    1.2828   -4.9723 H   0  0  0  0  0  0  0  0  0  0  0  0
    2.6344    2.9506   -5.5087 H   0  0  0  0  0  0  0  0  0  0  0  0
  1  3  1  0  0  0  0
  1  7  1  0  0  0  0
  1  2  2  0  0  0  0
 18 19  1  0  0  0  0
 19 24  1  0  0  0  0
 19 20  2  0  0  0  0
 25 26  1  0  0  0  0
 26 34  1  0  0  0  0
 26 27  2  0  0  0  0
  8  9  1  0  0  0  0
  9 17  1  0  0  0  0
  9 10  2  0  0  0  0
 25 28  1  0  0  0  0
  8 11  1  0  0  0  0
 34 35  1  0  0  0  0
 17 18  1  0  0  0  0
 24 25  1  0  0  0  0
  7  8  1  0  0  0  0
  3  4  1  0  0  0  0
  3  5  1  0  0  0  0
  3  6  1  0  0  0  0
 28 31  1  0  0  0  0
 28 32  1  0  0  0  0
 28 33  1  0  0  0  0
 11 14  1  0  0  0  0
 11 15  1  0  0  0  0
 11 16  1  0  0  0  0
 35 37  1  0  0  0  0
 35 38  1  0  0  0  0
 35 39  1  0  0  0  0
 18 22  1  0  0  0  0
 18 23  1  0  0  0  0
 25 30  1  0  0  0  0
  8 13  1  0  0  0  0
 34 36  1  0  0  0  0
 17 21  1  0  0  0  0
  7 12  1  0  0  0  0
 24 29  1  0  0  0  0
M  END
$$$$

  -OEChem-05262214473D

 39 38  0     1  0  0  0  0  0999 V2000
   -3.5200   -4.0268   -1.6943 C   0  0  0  0  0  0  0  0  0  0  0  0
   -2.8702   -4.8827   -1.1054 O   0  0  0  0  0  0  0  0  0  0  0  0
   -4.9704   -4.2579   -1.9614 C   0  0  0  0  0  0  0  0  0  0  0  0
   -5.1456   -4.7573   -2.9278 H   0  0  0  0  0  0  0  0  0  0  0  0
   -5.4379   -4.9112   -1.2072 H   0  0  0  0  0  0  0  0  0  0  0  0
   -5.5954   -3.3510   -1.9864 H   0  0  0  0  0  0  0  0  0  0  0  0
   -3.0424   -2.8131   -2.1606 N   0  0  0  0  0  0  0  0  0  0  0  0
   -1.6755   -2.3891   -2.0077 C   0  0  2  0  0  0  0  0  0  0  0  0
   -1.5782   -1.5673   -0.7292 C   0  0  0  0  0  0  0  0  0  0  0  0
   -2.5448   -1.0064   -0.2171 O   0  0  0  0  0  0  0  0  0  0  0  0
   -1.2087   -1.5823   -3.2094 C   0  0  0  0  0  0  0  0  0  0  0  0
   -3.6915   -2.1888   -2.6360 H   0  0  0  0  0  0  0  0  0  0  0  0
   -1.0721   -3.2977   -1.9053 H   0  0  0  0  0  0  0  0  0  0  0  0
   -1.8017   -0.6681   -3.3281 H   0  0  0  0  0  0  0  0  0  0  0  0
   -0.1601   -1.2849   -3.1045 H   0  0  0  0  0  0  0  0  0  0  0  0
   -1.3074   -2.1646   -4.1319 H   0  0  0  0  0  0  0  0  0  0  0  0
   -0.2835   -1.5112   -0.2725 N   0  0  0  0  0  0  0  0  0  0  0  0
    0.0769   -0.7658    0.9424 C   0  0  0  0  0  0  0  0  0  0  0  0
    0.7699    0.5175    0.5614 C   0  0  0  0  0  0  0  0  0  0  0  0
    1.6172    1.0623    1.2640 O   0  0  0  0  0  0  0  0  0  0  0  0
    0.4587   -2.0097   -0.7289 H   0  0  0  0  0  0  0  0  0  0  0  0
    0.7453   -1.3776    1.5554 H   0  0  0  0  0  0  0  0  0  0  0  0
   -0.8315   -0.5425    1.5096 H   0  0  0  0  0  0  0  0  0  0  0  0
    0.3264    0.9934   -0.6679 N   0  0  0  0  0  0  0  0  0  0  0  0
    0.8162    2.2033   -1.2743 C   0  0  2  0  0  0  0  0  0  0  0  0
    1.3897    1.8463   -2.6393 C   0  0  0  0  0  0  0  0  0  0  0  0
    1.7704    0.7147   -2.9319 O   0  0  0  0  0  0  0  0  0  0  0  0
    1.8662    2.8736   -0.4021 C   0  0  0  0  0  0  0  0  0  0  0  0
   -0.3827    0.4573   -1.1654 H   0  0  0  0  0  0  0  0  0  0  0  0
   -0.0473    2.8651   -1.4020 H   0  0  0  0  0  0  0  0  0  0  0  0
    2.7391    2.2254   -0.2628 H   0  0  0  0  0  0  0  0  0  0  0  0
    2.2171    3.8086   -0.8512 H   0  0  0  0  0  0  0  0  0  0  0  0
    1.4608    3.1027    0.5894 H   0  0  0  0  0  0  0  0  0  0  0  0
    1.4663    2.9496   -3.4779 N   0  0  0  0  0  0  0  0  0  0  0  0
    1.9873    2.8720   -4.8227 C   0  0  0  0  0  0  0  0  0  0  0  0
    1.1099    3.8456   -3.1587 H   0  0  0  0  0  0  0  0  0  0  0  0
    3.0629    3.1023   -4.8137 H   0  0  0  0  0  0  0  0  0  0  0  0
    1.8332    1.8569   -5.2175 H   0  0  0  0  0  0  0  0  0  0  0  0
    1.4625    3.5975   -5.4616 H   0  0  0  0  0  0  0  0  0  0  0  0
  1  3  1  0  0  0  0
  1  7  1  0  0  0  0
  1  2  2  0  0  0  0
 18 19  1  0  0  0  0
 19 24  1  0  0  0  0
 19 20  2  0  0  0  0
 25 26  1  0  0  0  0
 26 34  1  0  0  0  0
 26 27  2  0  0  0  0
  8  9  1  0  0  0  0
  9 17  1  0  0  0  0
  9 10  2  0  0  0  0
 25 28  1  0  0  0  0
  8 11  1  0  0  0  0
 34 35  1  0  0  0  0
 17 18  1  0  0  0  0
 24 25  1  0  0  0  0
  7  8  1  0  0  0  0
  3  4  1  0  0  0  0
  3  5  1  0  0  0  0
  3  6  1  0  0  0  0
 28 31  1  0  0  0  0
 28 32  1  0  0  0  0
 28 33  1  0  0  0  0
 11 14  1  0  0  0  0
 11 15  1  0  0  0  0
 11 16  1  0  0  0  0
 35 37  1  0  0  0  0
 35 38  1  0  0  0  0
 35 39  1  0  0  0  0
 18 22  1  0  0  0  0
 18 23  1  0  0  0  0
 25 30  1  0  0  0  0
  8 13  1  0  0  0  0
 34 36  1  0  0  0  0
 17 21  1  0  0  0  0
  7 12  1  0  0  0  0
 24 29  1  0  0  0  0
M  END
$$$$

  -OEChem-05262214473D

 39 38  0     1  0  0  0  0  0999 V2000
   -3.5200   -4.0268   -1.6943 C   0  0  0  0  0  0  0  0  0  0  0  0
   -2.8702   -4.8827   -1.1054 O   0  0  0  0  0  0  0  0  0  0  0  0
   -4.9704   -4.2579   -1.9614 C   0  0  0  0  0  0  0  0  0  0  0  0
   -5.1456   -4.7573   -2.9278 H   0  0  0  0  0  0  0  0  0  0  0  0
   -5.4379   -4.9112   -1.2072 H   0  0  0  0  0  0  0  0  0  0  0  0
   -5.5954   -3.3510   -1.9864 H   0  0  0  0  0  0  0  0  0  0  0  0
   -3.0424   -2.8131   -2.1606 N   0  0  0  0  0  0  0  0  0  0  0  0
   -1.6755   -2.3891   -2.0077 C   0  0  2  0  0  0  0  0  0  0  0  0
   -1.5782   -1.5673   -0.7292 C   0  0  0  0  0  0  0  0  0  0  0  0
   -2.5448   -1.0064   -0.2171 O   0  0  0  0  0  0  0  0  0  0  0  0
   -1.2087   -1.5823   -3.2094 C   0  0  0  0  0  0  0  0  0  0  0  0
   -3.6915   -2.1888   -2.6360 H   0  0  0  0  0  0  0  0  0  0  0  0
   -1.0721   -3.2977   -1.9053 H   0  0  0  0  0  0  0  0  0  0  0  0
   -1.8017   -0.6681   -3.3281 H   0  0  0  0  0  0  0  0  0  0  0  0
   -0.1601   -1.2849   -3.1045 H   0  0  0  0  0  0  0  0  0  0  0  0
   -1.3074   -2.1646   -4.1319 H   0  0  0  0  0  0  0  0  0  0  0  0
   -0.2835   -1.5112   -0.2725 N   0  0  0  0  0  0  0  0  0  0  0  0
    0.0769   -0.7658    0.9424 C   0  0  0  0  0  0  0  0  0  0  0  0
    0.7699    0.5175    0.5614 C   0  0  0  0  0  0  0  0  0  0  0  0
    1.7893    0.9244    1.1124 O   0  0  0  0  0  0  0  0  0  0  0  0
    0.4587   -2.0097   -0.7289 H   0  0  0  0  0  0  0  0  0  0  0  0
    0.7453   -1.3776    1.5554 H   0  0  0  0  0  0  0  0  0  0  0  0
   -0.8315   -0.5425    1.5096 H   0  0  0  0  0  0  0  0  0  0  0  0
    0.1098    1.1674   -0.4761 N   0  0  0  0  0  0  0  0  0  0  0  0
    0.5505    2.4169   -1.0380 C   0  0  2  0  0  0  0  0  0  0  0  0
    0.7851    2.2059   -2.5279 C   0  0  0  0  0  0  0  0  0  0  0  0
    1.0032    1.1021   -3.0229 O   0  0  0  0  0  0  0  0  0  0  0  0
    1.8139    2.9161   -0.3542 C   0  0  0  0  0  0  0  0  0  0  0  0
   -0.7301    0.7361   -0.8585 H   0  0  0  0  0  0  0  0  0  0  0  0
   -0.2653    3.1337   -0.8940 H   0  0  0  0  0  0  0  0  0  0  0  0
    2.6424    2.2110   -0.4875 H   0  0  0  0  0  0  0  0  0  0  0  0
    2.1318    3.8808   -0.7633 H   0  0  0  0  0  0  0  0  0  0  0  0
    1.6519    3.0389    0.7222 H   0  0  0  0  0  0  0  0  0  0  0  0
    0.7651    3.4007   -3.2337 N   0  0  0  0  0  0  0  0  0  0  0  0
    0.9750    3.4666   -4.6612 C   0  0  0  0  0  0  0  0  0  0  0  0
    0.5580    4.2666   -2.7447 H   0  0  0  0  0  0  0  0  0  0  0  0
    2.0418    3.6376   -4.8679 H   0  0  0  0  0  0  0  0  0  0  0  0
    0.6596    2.5189   -5.1221 H   0  0  0  0  0  0  0  0  0  0  0  0
    0.3832    4.2934   -5.0809 H   0  0  0  0  0  0  0  0  0  0  0  0
  1  3  1  0  0  0  0
  1  7  1  0  0  0  0
  1  2  2  0  0  0  0
 18 19  1  0  0  0  0
 19 24  1  0  0  0  0
 19 20  2  0  0  0  0
 25 26  1  0  0  0  0
 26 34  1  0  0  0  0
 26 27  2  0  0  0  0
  8  9  1  0  0  0  0
  9 17  1  0  0  0  0
  9 10  2  0  0  0  0
 25 28  1  0  0  0  0
  8 11  1  0  0  0  0
 34 35  1  0  0  0  0
 17 18  1  0  0  0  0
 24 25  1  0  0  0  0
  7  8  1  0  0  0  0
  3  4  1  0  0  0  0
  3  5  1  0  0  0  0
  3  6  1  0  0  0  0
 28 31  1  0  0  0  0
 28 32  1  0  0  0  0
 28 33  1  0  0  0  0
 11 14  1  0  0  0  0
 11 15  1  0  0  0  0
 11 16  1  0  0  0  0
 35 37  1  0  0  0  0
 35 38  1  0  0  0  0
 35 39  1  0  0  0  0
 18 22  1  0  0  0  0
 18 23  1  0  0  0  0
 25 30  1  0  0  0  0
  8 13  1  0  0  0  0
 34 36  1  0  0  0  0
 17 21  1  0  0  0  0
  7 12  1  0  0  0  0
 24 29  1  0  0  0  0
M  END
$$$$

  -OEChem-05262214473D

 39 38  0     1  0  0  0  0  0999 V2000
   -3.5200   -4.0268   -1.6943 C   0  0  0  0  0  0  0  0  0  0  0  0
   -2.8702   -4.8827   -1.1054 O   0  0  0  0  0  0  0  0  0  0  0  0
   -4.9704   -4.2579   -1.9614 C   0  0  0  0  0  0  0  0  0  0  0  0
   -5.1456   -4.7573   -2.9278 H   0  0  0  0  0  0  0  0  0  0  0  0
   -5.4379   -4.9112   -1.2072 H   0  0  0  0  0  0  0  0  0  0  0  0
   -5.5954   -3.3510   -1.9864 H   0  0  0  0  0  0  0  0  0  0  0  0
   -3.0424   -2.8131   -2.1606 N   0  0  0  0  0  0  0  0  0  0  0  0
   -1.6755   -2.3891   -2.0077 C   0  0  2  0  0  0  0  0  0  0  0  0
   -1.5782   -1.5673   -0.7292 C   0  0  0  0  0  0  0  0  0  0  0  0
   -2.5448   -1.0064   -0.2171 O   0  0  0  0  0  0  0  0  0  0  0  0
   -1.2087   -1.5823   -3.2094 C   0  0  0  0  0  0  0  0  0  0  0  0
   -3.6915   -2.1888   -2.6360 H   0  0  0  0  0  0  0  0  0  0  0  0
   -1.0721   -3.2977   -1.9053 H   0  0  0  0  0  0  0  0  0  0  0  0
   -1.8017   -0.6681   -3.3281 H   0  0  0  0  0  0  0  0  0  0  0  0
   -0.1601   -1.2849   -3.1045 H   0  0  0  0  0  0  0  0  0  0  0  0
   -1.3074   -2.1646   -4.1319 H   0  0  0  0  0  0  0  0  0  0  0  0
   -0.2835   -1.5112   -0.2725 N   0  0  0  0  0  0  0  0  0  0  0  0
    0.0769   -0.7658    0.9424 C   0  0  0  0  0  0  0  0  0  0  0  0
    0.7699    0.5175    0.5614 C   0  0  0  0  0  0  0  0  0  0  0  0
    1.9132    0.7978    0.9116 O   0  0  0  0  0  0  0  0  0  0  0  0
    0.4587   -2.0097   -0.7289 H   0  0  0  0  0  0  0  0  0  0  0  0
    0.7453   -1.3776    1.5554 H   0  0  0  0  0  0  0  0  0  0  0  0
   -0.8315   -0.5425    1.5096 H   0  0  0  0  0  0  0  0  0  0  0  0
   -0.0458    1.3267   -0.2224 N   0  0  0  0  0  0  0  0  0  0  0  0
    0.3600    2.6126   -0.7257 C   0  0  2  0  0  0  0  0  0  0  0  0
    0.2492    2.5795   -2.2443 C   0  0  0  0  0  0  0  0  0  0  0  0
    0.2674    1.5372   -2.8956 O   0  0  0  0  0  0  0  0  0  0  0  0
    1.7766    2.9549   -0.2913 C   0  0  0  0  0  0  0  0  0  0  0  0
   -0.9798    0.9915   -0.4524 H   0  0  0  0  0  0  0  0  0  0  0  0
   -0.3463    3.3469   -0.3233 H   0  0  0  0  0  0  0  0  0  0  0  0
    2.4985    2.2301   -0.6850 H   0  0  0  0  0  0  0  0  0  0  0  0
    2.0734    3.9456   -0.6510 H   0  0  0  0  0  0  0  0  0  0  0  0
    1.8616    2.9490    0.8007 H   0  0  0  0  0  0  0  0  0  0  0  0
    0.1711    3.8533   -2.7897 N   0  0  0  0  0  0  0  0  0  0  0  0
    0.0717    4.0880   -4.2113 C   0  0  0  0  0  0  0  0  0  0  0  0
    0.1436    4.6601   -2.1731 H   0  0  0  0  0  0  0  0  0  0  0  0
    1.0785    4.2279   -4.6317 H   0  0  0  0  0  0  0  0  0  0  0  0
   -0.4096    3.2239   -4.6926 H   0  0  0  0  0  0  0  0  0  0  0  0
   -0.5299    4.9908   -4.3926 H   0  0  0  0  0  0  0  0  0  0  0  0
  1  3  1  0  0  0  0
  1  7  1  0  0  0  0
  1  2  2  0  0  0  0
 18 19  1  0  0  0  0
 19 24  1  0  0  0  0
 19 20  2  0  0  0  0
 25 26  1  0  0  0  0
 26 34  1  0  0  0  0
 26 27  2  0  0  0  0
  8  9  1  0  0  0  0
  9 17  1  0  0  0  0
  9 10  2  0  0  0  0
 25 28  1  0  0  0  0
  8 11  1  0  0  0  0
 34 35  1  0  0  0  0
 17 18  1  0  0  0  0
 24 25  1  0  0  0  0
  7  8  1  0  0  0  0
  3  4  1  0  0  0  0
  3  5  1  0  0  0  0
  3  6  1  0  0  0  0
 28 31  1  0  0  0  0
 28 32  1  0  0  0  0
 28 33  1  0  0  0  0
 11 14  1  0  0  0  0
 11 15  1  0  0  0  0
 11 16  1  0  0  0  0
 35 37  1  0  0  0  0
 35 38  1  0  0  0  0
 35 39  1  0  0  0  0
 18 22  1  0  0  0  0
 18 23  1  0  0  0  0
 25 30  1  0  0  0  0
  8 13  1  0  0  0  0
 34 36  1  0  0  0  0
 17 21  1  0  0  0  0
  7 12  1  0  0  0  0
 24 29  1  0  0  0  0
M  END
$$$$

  -OEChem-05262214473D

 39 38  0     1  0  0  0  0  0999 V2000
   -3.5200   -4.0268   -1.6943 C   0  0  0  0  0  0  0  0  0  0  0  0
   -2.8702   -4.8827   -1.1054 O   0  0  0  0  0  0  0  0  0  0  0  0
   -4.9704   -4.2579   -1.9614 C   0  0  0  0  0  0  0  0  0  0  0  0
   -5.1456   -4.7573   -2.9278 H   0  0  0  0  0  0  0  0  0  0  0  0
   -5.4379   -4.9112   -1.2072 H   0  0  0  0  0  0  0  0  0  0  0  0
   -5.5954   -3.3510   -1.9864 H   0  0  0  0  0  0  0  0  0  0  0  0
   -3.0424   -2.8131   -2.1606 N   0  0  0  0  0  0  0  0  0  0  0  0
   -1.6755   -2.3891   -2.0077 C   0  0  2  0  0  0  0  0  0  0  0  0
   -1.5782   -1.5673   -0.7292 C   0  0  0  0  0  0  0  0  0  0  0  0
   -2.5448   -1.0064   -0.2171 O   0  0  0  0  0  0  0  0  0  0  0  0
   -1.2087   -1.5823   -3.2094 C   0  0  0  0  0  0  0  0  0  0  0  0
   -3.6915   -2.1888   -2.6360 H   0  0  0  0  0  0  0  0  0  0  0  0
   -1.0721   -3.2977   -1.9053 H   0  0  0  0  0  0  0  0  0  0  0  0
   -1.8017   -0.6681   -3.3281 H   0  0  0  0  0  0  0  0  0  0  0  0
   -0.1601   -1.2849   -3.1045 H   0  0  0  0  0  0  0  0  0  0  0  0
   -1.3074   -2.1646   -4.1319 H   0  0  0  0  0  0  0  0  0  0  0  0
   -0.2835   -1.5112   -0.2725 N   0  0  0  0  0  0  0  0  0  0  0  0
    0.0769   -0.7658    0.9424 C   0  0  0  0  0  0  0  0  0  0  0  0
    0.7699    0.5175    0.5614 C   0  0  0  0  0  0  0  0  0  0  0  0
    1.9803    0.6914    0.6752 O   0  0  0  0  0  0  0  0  0  0  0  0
    0.4587   -2.0097   -0.7289 H   0  0  0  0  0  0  0  0  0  0  0  0
    0.7453   -1.3776    1.5554 H   0  0  0  0  0  0  0  0  0  0  0  0
   -0.8315   -0.5425    1.5096 H   0  0  0  0  0  0  0  0  0  0  0  0
   -0.1297    1.4606    0.0759 N   0  0  0  0  0  0  0  0  0  0  0  0
    0.2575    2.7769   -0.3587 C   0  0  2  0  0  0  0  0  0  0  0  0
   -0.1815    2.9417   -1.8077 C   0  0  0  0  0  0  0  0  0  0  0  0
   -0.3868    1.9905   -2.5588 O   0  0  0  0  0  0  0  0  0  0  0  0
    1.7570    2.9873   -0.2178 C   0  0  0  0  0  0  0  0  0  0  0  0
   -1.1148    1.2063    0.0253 H   0  0  0  0  0  0  0  0  0  0  0  0
   -0.2849    3.4903    0.2712 H   0  0  0  0  0  0  0  0  0  0  0  0
    2.3172    2.2814   -0.8417 H   0  0  0  0  0  0  0  0  0  0  0  0
    2.0460    3.9987   -0.5219 H   0  0  0  0  0  0  0  0  0  0  0  0
    2.0755    2.8391    0.8197 H   0  0  0  0  0  0  0  0  0  0  0  0
   -0.2752    4.2765   -2.1760 N   0  0  0  0  0  0  0  0  0  0  0  0
   -0.6610    4.6937   -3.5038 C   0  0  0  0  0  0  0  0  0  0  0  0
   -0.1050    4.9993   -1.4829 H   0  0  0  0  0  0  0  0  0  0  0  0
    0.2388    4.8330   -4.1210 H   0  0  0  0  0  0  0  0  0  0  0  0
   -1.3016    3.9236   -3.9583 H   0  0  0  0  0  0  0  0  0  0  0  0
   -1.2146    5.6424   -3.4436 H   0  0  0  0  0  0  0  0  0  0  0  0
  1  3  1  0  0  0  0
  1  7  1  0  0  0  0
  1  2  2  0  0  0  0
 18 19  1  0  0  0  0
 19 24  1  0  0  0  0
 19 20  2  0  0  0  0
 25 26  1  0  0  0  0
 26 34  1  0  0  0  0
 26 27  2  0  0  0  0
  8  9  1  0  0  0  0
  9 17  1  0  0  0  0
  9 10  2  0  0  0  0
 25 28  1  0  0  0  0
  8 11  1  0  0  0  0
 34 35  1  0  0  0  0
 17 18  1  0  0  0  0
 24 25  1  0  0  0  0
  7  8  1  0  0  0  0
  3  4  1  0  0  0  0
  3  5  1  0  0  0  0
  3  6  1  0  0  0  0
 28 31  1  0  0  0  0
 28 32  1  0  0  0  0
 28 33  1  0  0  0  0
 11 14  1  0  0  0  0
 11 15  1  0  0  0  0
 11 16  1  0  0  0  0
 35 37  1  0  0  0  0
 35 38  1  0  0  0  0
 35 39  1  0  0  0  0
 18 22  1  0  0  0  0
 18 23  1  0  0  0  0
 25 30  1  0  0  0  0
  8 13  1  0  0  0  0
 34 36  1  0  0  0  0
 17 21  1  0  0  0  0
  7 12  1  0  0  0  0
 24 29  1  0  0  0  0
M  END
$$$$

  -OEChem-05262214473D

 39 38  0     1  0  0  0  0  0999 V2000
   -3.5200   -4.0268   -1.6943 C   0  0  0  0  0  0  0  0  0  0  0  0
   -2.8702   -4.8827   -1.1054 O   0  0  0  0  0  0  0  0  0  0  0  0
   -4.9704   -4.2579   -1.9614 C   0  0  0  0  0  0  0  0  0  0  0  0
   -5.1456   -4.7573   -2.9278 H   0  0  0  0  0  0  0  0  0  0  0  0
   -5.4379   -4.9112   -1.2072 H   0  0  0  0  0  0  0  0  0  0  0  0
   -5.5954   -3.3510   -1.9864 H   0  0  0  0  0  0  0  0  0  0  0  0
   -3.0424   -2.8131   -2.1606 N   0  0  0  0  0  0  0  0  0  0  0  0
   -1.6755   -2.3891   -2.0077 C   0  0  2  0  0  0  0  0  0  0  0  0
   -1.5782   -1.5673   -0.7292 C   0  0  0  0  0  0  0  0  0  0  0  0
   -2.5448   -1.0064   -0.2171 O   0  0  0  0  0  0  0  0  0  0  0  0
   -1.2087   -1.5823   -3.2094 C   0  0  0  0  0  0  0  0  0  0  0  0
   -3.6915   -2.1888   -2.6360 H   0  0  0  0  0  0  0  0  0  0  0  0
   -1.0721   -3.2977   -1.9053 H   0  0  0  0  0  0  0  0  0  0  0  0
   -1.8017   -0.6681   -3.3281 H   0  0  0  0  0  0  0  0  0  0  0  0
   -0.1601   -1.2849   -3.1045 H   0  0  0  0  0  0  0  0  0  0  0  0
   -1.3074   -2.1646   -4.1319 H   0  0  0  0  0  0  0  0  0  0  0  0
   -0.2835   -1.5112   -0.2725 N   0  0  0  0  0  0  0  0  0  0  0  0
    0.0769   -0.7658    0.9424 C   0  0  0  0  0  0  0  0  0  0  0  0
    0.7699    0.5175    0.5614 C   0  0  0  0  0  0  0  0  0  0  0  0
    1.9861    0.6124    0.4195 O   0  0  0  0  0  0  0  0  0  0  0  0
    0.4587   -2.0097   -0.7289 H   0  0  0  0  0  0  0  0  0  0  0  0
    0.7453   -1.3776    1.5554 H   0  0  0  0  0  0  0  0  0  0  0  0
   -0.8315   -0.5425    1.5096 H   0  0  0  0  0  0  0  0  0  0  0  0
   -0.1363    1.5599    0.3985 N   0  0  0  0  0  0  0  0  0  0  0  0
    0.2501    2.8986    0.0378 C   0  0  2  0  0  0  0  0  0  0  0  0
   -0.4776    3.2678   -1.2481 C   0  0  0  0  0  0  0  0  0  0  0  0
   -0.9149    2.4311   -2.0354 O   0  0  0  0  0  0  0  0  0  0  0  0
    1.7564    3.0112   -0.1386 C   0  0  0  0  0  0  0  0  0  0  0  0
   -1.1259    1.3657    0.5420 H   0  0  0  0  0  0  0  0  0  0  0  0
   -0.0853    3.5540    0.8490 H   0  0  0  0  0  0  0  0  0  0  0  0
    2.1109    2.3615   -0.9471 H   0  0  0  0  0  0  0  0  0  0  0  0
    2.0515    4.0365   -0.3849 H   0  0  0  0  0  0  0  0  0  0  0  0
    2.2792    2.7167    0.7778 H   0  0  0  0  0  0  0  0  0  0  0  0
   -0.5434    4.6415   -1.4346 N   0  0  0  0  0  0  0  0  0  0  0  0
   -1.1733    5.2426   -2.5869 C   0  0  0  0  0  0  0  0  0  0  0  0
   -0.1709    5.2610   -0.7210 H   0  0  0  0  0  0  0  0  0  0  0  0
   -0.4202    5.4117   -3.3706 H   0  0  0  0  0  0  0  0  0  0  0  0
   -1.9557    4.5705   -2.9692 H   0  0  0  0  0  0  0  0  0  0  0  0
   -1.6243    6.2036   -2.2985 H   0  0  0  0  0  0  0  0  0  0  0  0
  1  3  1  0  0  0  0
  1  7  1  0  0  0  0
  1  2  2  0  0  0  0
 18 19  1  0  0  0  0
 19 24  1  0  0  0  0
 19 20  2  0  0  0  0
 25 26  1  0  0  0  0
 26 34  1  0  0  0  0
 26 27  2  0  0  0  0
  8  9  1  0  0  0  0
  9 17  1  0  0  0  0
  9 10  2  0  0  0  0
 25 28  1  0  0  0  0
  8 11  1  0  0  0  0
 34 35  1  0  0  0  0
 17 18  1  0  0  0  0
 24 25  1  0  0  0  0
  7  8  1  0  0  0  0
  3  4  1  0  0  0  0
  3  5  1  0  0  0  0
  3  6  1  0  0  0  0
 28 31  1  0  0  0  0
 28 32  1  0  0  0  0
 28 33  1  0  0  0  0
 11 14  1  0  0  0  0
 11 15  1  0  0  0  0
 11 16  1  0  0  0  0
 35 37  1  0  0  0  0
 35 38  1  0  0  0  0
 35 39  1  0  0  0  0
 18 22  1  0  0  0  0
 18 23  1  0  0  0  0
 25 30  1  0  0  0  0
  8 13  1  0  0  0  0
 34 36  1  0  0  0  0
 17 21  1  0  0  0  0
  7 12  1  0  0  0  0
 24 29  1  0  0  0  0
M  END
$$$$

  -OEChem-05262214473D

 39 38  0     1  0  0  0  0  0999 V2000
   -3.5200   -4.0268   -1.6943 C   0  0  0  0  0  0  0  0  0  0  0  0
   -2.8702   -4.8827   -1.1054 O   0  0  0  0  0  0  0  0  0  0  0  0
   -4.9704   -4.2579   -1.9614 C   0  0  0  0  0  0  0  0  0  0  0  0
   -5.1456   -4.7573   -2.9278 H   0  0  0  0  0  0  0  0  0  0  0  0
   -5.4379   -4.9112   -1.2072 H   0  0  0  0  0  0  0  0  0  0  0  0
   -5.5954   -3.3510   -1.9864 H   0  0  0  0  0  0  0  0  0  0  0  0
   -3.0424   -2.8131   -2.1606 N   0  0  0  0  0  0  0  0  0  0  0  0
   -1.6755   -2.3891   -2.0077 C   0  0  2  0  0  0  0  0  0  0  0  0
   -1.5782   -1.5673   -0.7292 C   0  0  0  0  0  0  0  0  0  0  0  0
   -2.5448   -1.0064   -0.2171 O   0  0  0  0  0  0  0  0  0  0  0  0
   -1.2087   -1.5823   -3.2094 C   0  0  0  0  0  0  0  0  0  0  0  0
   -3.6915   -2.1888   -2.6360 H   0  0  0  0  0  0  0  0  0  0  0  0
   -1.0721   -3.2977   -1.9053 H   0  0  0  0  0  0  0  0  0  0  0  0
   -1.8017   -0.6681   -3.3281 H   0  0  0  0  0  0  0  0  0  0  0  0
   -0.1601   -1.2849   -3.1045 H   0  0  0  0  0  0  0  0  0  0  0  0
   -1.3074   -2.1646   -4.1319 H   0  0  0  0  0  0  0  0  0  0  0  0
   -0.2835   -1.5112   -0.2725 N   0  0  0  0  0  0  0  0  0  0  0  0
    0.0769   -0.7658    0.9424 C   0  0  0  0  0  0  0  0  0  0  0  0
    0.7699    0.5175    0.5614 C   0  0  0  0  0  0  0  0  0  0  0  0
    1.9302    0.5661    0.1618 O   0  0  0  0  0  0  0  0  0  0  0  0
    0.4587   -2.0097   -0.7289 H   0  0  0  0  0  0  0  0  0  0  0  0
    0.7453   -1.3776    1.5554 H   0  0  0  0  0  0  0  0  0  0  0  0
   -0.8315   -0.5425    1.5096 H   0  0  0  0  0  0  0  0  0  0  0  0
   -0.0651    1.6179    0.7233 N   0  0  0  0  0  0  0  0  0  0  0  0
    0.3383    2.9695    0.4370 C   0  0  2  0  0  0  0  0  0  0  0  0
   -0.6190    3.5356   -0.6035 C   0  0  0  0  0  0  0  0  0  0  0  0
   -1.2808    2.8289   -1.3610 O   0  0  0  0  0  0  0  0  0  0  0  0
    1.7748    3.0248   -0.0591 C   0  0  0  0  0  0  0  0  0  0  0  0
   -1.0124    1.4589    1.0626 H   0  0  0  0  0  0  0  0  0  0  0  0
    0.2391    3.5337    1.3707 H   0  0  0  0  0  0  0  0  0  0  0  0
    1.8937    2.4649   -0.9939 H   0  0  0  0  0  0  0  0  0  0  0  0
    2.0894    4.0562   -0.2493 H   0  0  0  0  0  0  0  0  0  0  0  0
    2.4586    2.5901    0.6780 H   0  0  0  0  0  0  0  0  0  0  0  0
   -0.6152    4.9234   -0.6159 N   0  0  0  0  0  0  0  0  0  0  0  0
   -1.4302    5.6972   -1.5230 C   0  0  0  0  0  0  0  0  0  0  0  0
   -0.0495    5.4275    0.0606 H   0  0  0  0  0  0  0  0  0  0  0  0
   -0.8536    5.9245   -2.4318 H   0  0  0  0  0  0  0  0  0  0  0  0
   -2.3272    5.1204   -1.7927 H   0  0  0  0  0  0  0  0  0  0  0  0
   -1.7309    6.6362   -1.0354 H   0  0  0  0  0  0  0  0  0  0  0  0
  1  3  1  0  0  0  0
  1  7  1  0  0  0  0
  1  2  2  0  0  0  0
 18 19  1  0  0  0  0
 19 24  1  0  0  0  0
 19 20  2  0  0  0  0
 25 26  1  0  0  0  0
 26 34  1  0  0  0  0
 26 27  2  0  0  0  0
  8  9  1  0  0  0  0
  9 17  1  0  0  0  0
  9 10  2  0  0  0  0
 25 28  1  0  0  0  0
  8 11  1  0  0  0  0
 34 35  1  0  0  0  0
 17 18  1  0  0  0  0
 24 25  1  0  0  0  0
  7  8  1  0  0  0  0
  3  4  1  0  0  0  0
  3  5  1  0  0  0  0
  3  6  1  0  0  0  0
 28 31  1  0  0  0  0
 28 32  1  0  0  0  0
 28 33  1  0  0  0  0
 11 14  1  0  0  0  0
 11 15  1  0  0  0  0
 11 16  1  0  0  0  0
 35 37  1  0  0  0  0
 35 38  1  0  0  0  0
 35 39  1  0  0  0  0
 18 22  1  0  0  0  0
 18 23  1  0  0  0  0
 25 30  1  0  0  0  0
  8 13  1  0  0  0  0
 34 36  1  0  0  0  0
 17 21  1  0  0  0  0
  7 12  1  0  0  0  0
 24 29  1  0  0  0  0
M  END
$$$$

  -OEChem-05262214473D

 39 38  0     1  0  0  0  0  0999 V2000
   -3.5200   -4.0268   -1.6943 C   0  0  0  0  0  0  0  0  0  0  0  0
   -2.8702   -4.8827   -1.1054 O   0  0  0  0  0  0  0  0  0  0  0  0
   -4.9704   -4.2579   -1.9614 C   0  0  0  0  0  0  0  0  0  0  0  0
   -5.1456   -4.7573   -2.9278 H   0  0  0  0  0  0  0  0  0  0  0  0
   -5.4379   -4.9112   -1.2072 H   0  0  0  0  0  0  0  0  0  0  0  0
   -5.5954   -3.3510   -1.9864 H   0  0  0  0  0  0  0  0  0  0  0  0
   -3.0424   -2.8131   -2.1606 N   0  0  0  0  0  0  0  0  0  0  0  0
   -1.6755   -2.3891   -2.0077 C   0  0  2  0  0  0  0  0  0  0  0  0
   -1.5782   -1.5673   -0.7292 C   0  0  0  0  0  0  0  0  0  0  0  0
   -2.5448   -1.0064   -0.2171 O   0  0  0  0  0  0  0  0  0  0  0  0
   -1.2087   -1.5823   -3.2094 C   0  0  0  0  0  0  0  0  0  0  0  0
   -3.6915   -2.1888   -2.6360 H   0  0  0  0  0  0  0  0  0  0  0  0
   -1.0721   -3.2977   -1.9053 H   0  0  0  0  0  0  0  0  0  0  0  0
   -1.8017   -0.6681   -3.3281 H   0  0  0  0  0  0  0  0  0  0  0  0
   -0.1601   -1.2849   -3.1045 H   0  0  0  0  0  0  0  0  0  0  0  0
   -1.3074   -2.1646   -4.1319 H   0  0  0  0  0  0  0  0  0  0  0  0
   -0.2835   -1.5112   -0.2725 N   0  0  0  0  0  0  0  0  0  0  0  0
    0.0769   -0.7658    0.9424 C   0  0  0  0  0  0  0  0  0  0  0  0
    0.7699    0.5175    0.5614 C   0  0  0  0  0  0  0  0  0  0  0  0
    1.8164    0.5556   -0.0803 O   0  0  0  0  0  0  0  0  0  0  0  0
    0.4587   -2.0097   -0.7289 H   0  0  0  0  0  0  0  0  0  0  0  0
    0.7453   -1.3776    1.5554 H   0  0  0  0  0  0  0  0  0  0  0  0
   -0.8315   -0.5425    1.5096 H   0  0  0  0  0  0  0  0  0  0  0  0
    0.0790    1.6307    1.0283 N   0  0  0  0  0  0  0  0  0  0  0  0
    0.5161    2.9847    0.8115 C   0  0  2  0  0  0  0  0  0  0  0  0
   -0.5961    3.7268    0.0822 C   0  0  0  0  0  0  0  0  0  0  0  0
   -1.4596    3.1569   -0.5816 O   0  0  0  0  0  0  0  0  0  0  0  0
    1.8110    3.0273    0.0153 C   0  0  0  0  0  0  0  0  0  0  0  0
   -0.7819    1.4796    1.5515 H   0  0  0  0  0  0  0  0  0  0  0  0
    0.6660    3.4309    1.8007 H   0  0  0  0  0  0  0  0  0  0  0  0
    1.6804    2.5846   -0.9789 H   0  0  0  0  0  0  0  0  0  0  0  0
    2.1573    4.0567   -0.1243 H   0  0  0  0  0  0  0  0  0  0  0  0
    2.6017    2.4680    0.5269 H   0  0  0  0  0  0  0  0  0  0  0  0
   -0.4857    5.1029    0.2243 N   0  0  0  0  0  0  0  0  0  0  0  0
   -1.4141    6.0265   -0.3847 C   0  0  0  0  0  0  0  0  0  0  0  0
    0.2508    5.4874    0.8086 H   0  0  0  0  0  0  0  0  0  0  0  0
   -1.0318    6.3364   -1.3685 H   0  0  0  0  0  0  0  0  0  0  0  0
   -2.3908    5.5360   -0.5090 H   0  0  0  0  0  0  0  0  0  0  0  0
   -1.5274    6.9108    0.2597 H   0  0  0  0  0  0  0  0  0  0  0  0
  1  3  1  0  0  0  0
  1  7  1  0  0  0  0
  1  2  2  0  0  0  0
 18 19  1  0  0  0  0
 19 24  1  0  0  0  0
 19 20  2  0  0  0  0
 25 26  1  0  0  0  0
 26 34  1  0  0  0  0
 26 27  2  0  0  0  0
  8  9  1  0  0  0  0
  9 17  1  0  0  0  0
  9 10  2  0  0  0  0
 25 28  1  0  0  0  0
  8 11  1  0  0  0  0
 34 35  1  0  0  0  0
 17 18  1  0  0  0  0
 24 25  1  0  0  0  0
  7  8  1  0  0  0  0
  3  4  1  0  0  0  0
  3  5  1  0  0  0  0
  3  6  1  0  0  0  0
 28 31  1  0  0  0  0
 28 32  1  0  0  0  0
 28 33  1  0  0  0  0
 11 14  1  0  0  0  0
 11 15  1  0  0  0  0
 11 16  1  0  0  0  0
 35 37  1  0  0  0  0
 35 38  1  0  0  0  0
 35 39  1  0  0  0  0
 18 22  1  0  0  0  0
 18 23  1  0  0  0  0
 25 30  1  0  0  0  0
  8 13  1  0  0  0  0
 34 36  1  0  0  0  0
 17 21  1  0  0  0  0
  7 12  1  0  0  0  0
 24 29  1  0  0  0  0
M  END
$$$$

  -OEChem-05262214473D

 39 38  0     1  0  0  0  0  0999 V2000
   -3.5200   -4.0268   -1.6943 C   0  0  0  0  0  0  0  0  0  0  0  0
   -2.8702   -4.8827   -1.1054 O   0  0  0  0  0  0  0  0  0  0  0  0
   -4.9704   -4.2579   -1.9614 C   0  0  0  0  0  0  0  0  0  0  0  0
   -5.1456   -4.7573   -2.9278 H   0  0  0  0  0  0  0  0  0  0  0  0
   -5.4379   -4.9112   -1.2072 H   0  0  0  0  0  0  0  0  0  0  0  0
   -5.5954   -3.3510   -1.9864 H   0  0  0  0  0  0  0  0  0  0  0  0
   -3.0424   -2.8131   -2.1606 N   0  0  0  0  0  0  0  0  0  0  0  0
   -1.6755   -2.3891   -2.0077 C   0  0  2  0  0  0  0  0  0  0  0  0
   -1.5782   -1.5673   -0.7292 C   0  0  0  0  0  0  0  0  0  0  0  0
   -2.5448   -1.0064   -0.2171 O   0  0  0  0  0  0  0  0  0  0  0  0
   -1.2087   -1.5823   -3.2094 C   0  0  0  0  0  0  0  0  0  0  0  0
   -3.6915   -2.1888   -2.6360 H   0  0  0  0  0  0  0  0  0  0  0  0
   -1.0721   -3.2977   -1.9053 H   0  0  0  0  0  0  0  0  0  0  0  0
   -1.8017   -0.6681   -3.3281 H   0  0  0  0  0  0  0  0  0  0  0  0
   -0.1601   -1.2849   -3.1045 H   0  0  0  0  0  0  0  0  0  0  0  0
   -1.3074   -2.1646   -4.1319 H   0  0  0  0  0  0  0  0  0  0  0  0
   -0.2835   -1.5112   -0.2725 N   0  0  0  0  0  0  0  0  0  0  0  0
    0.0769   -0.7658    0.9424 C   0  0  0  0  0  0  0  0  0  0  0  0
    0.7699    0.5175    0.5614 C   0  0  0  0  0  0  0  0  0  0  0  0
    1.6524    0.5818   -0.2903 O   0  0  0  0  0  0  0  0  0  0  0  0
    0.4587   -2.0097   -0.7289 H   0  0  0  0  0  0  0  0  0  0  0  0
    0.7453   -1.3776    1.5554 H   0  0  0  0  0  0  0  0  0  0  0  0
   -0.8315   -0.5425    1.5096 H   0  0  0  0  0  0  0  0  0  0  0  0
    0.2863    1.5972    1.2927 N   0  0  0  0  0  0  0  0  0  0  0  0
    0.7713    2.9432    1.1359 C   0  0  2  0  0  0  0  0  0  0  0  0
   -0.4103    3.8284    0.7622 C   0  0  0  0  0  0  0  0  0  0  0  0
   -1.4392    3.3926    0.2496 O   0  0  0  0  0  0  0  0  0  0  0  0
    1.8625    3.0186    0.0794 C   0  0  0  0  0  0  0  0  0  0  0  0
   -0.4502    1.4264    1.9754 H   0  0  0  0  0  0  0  0  0  0  0  0
    1.1664    3.2524    2.1097 H   0  0  0  0  0  0  0  0  0  0  0  0
    1.4854    2.7124   -0.9032 H   0  0  0  0  0  0  0  0  0  0  0  0
    2.2504    4.0379   -0.0184 H   0  0  0  0  0  0  0  0  0  0  0  0
    2.6986    2.3586    0.3349 H   0  0  0  0  0  0  0  0  0  0  0  0
   -0.1638    5.1679    1.0286 N   0  0  0  0  0  0  0  0  0  0  0  0
   -1.1263    6.2081    0.7504 C   0  0  0  0  0  0  0  0  0  0  0  0
    0.7097    5.4366    1.4720 H   0  0  0  0  0  0  0  0  0  0  0  0
   -0.9427    6.6195   -0.2531 H   0  0  0  0  0  0  0  0  0  0  0  0
   -2.1423    5.7887    0.7944 H   0  0  0  0  0  0  0  0  0  0  0  0
   -1.0274    7.0086    1.4984 H   0  0  0  0  0  0  0  0  0  0  0  0
  1  3  1  0  0  0  0
  1  7  1  0  0  0  0
  1  2  2  0  0  0  0
 18 19  1  0  0  0  0
 19 24  1  0  0  0  0
 19 20  2  0  0  0  0
 25 26  1  0  0  0  0
 26 34  1  0  0  0  0
 26 27  2  0  0  0  0
  8  9  1  0  0  0  0
  9 17  1  0  0  0  0
  9 10  2  0  0  0  0
 25 28  1  0  0  0  0
  8 11  1  0  0  0  0
 34 35  1  0  0  0  0
 17 18  1  0  0  0  0
 24 25  1  0  0  0  0
  7  8  1  0  0  0  0
  3  4  1  0  0  0  0
  3  5  1  0  0  0  0
  3  6  1  0  0  0  0
 28 31  1  0  0  0  0
 28 32  1  0  0  0  0
 28 33  1  0  0  0  0
 11 14  1  0  0  0  0
 11 15  1  0  0  0  0
 11 16  1  0  0  0  0
 35 37  1  0  0  0  0
 35 38  1  0  0  0  0
 35 39  1  0  0  0  0
 18 22  1  0  0  0  0
 18 23  1  0  0  0  0
 25 30  1  0  0  0  0
  8 13  1  0  0  0  0
 34 36  1  0  0  0  0
 17 21  1  0  0  0  0
  7 12  1  0  0  0  0
 24 29  1  0  0  0  0
M  END
$$$$

  -OEChem-05262214473D

 39 38  0     1  0  0  0  0  0999 V2000
   -3.5200   -4.0268   -1.6943 C   0  0  0  0  0  0  0  0  0  0  0  0
   -2.8702   -4.8827   -1.1054 O   0  0  0  0  0  0  0  0  0  0  0  0
   -4.9704   -4.2579   -1.9614 C   0  0  0  0  0  0  0  0  0  0  0  0
   -5.1456   -4.7573   -2.9278 H   0  0  0  0  0  0  0  0  0  0  0  0
   -5.4379   -4.9112   -1.2072 H   0  0  0  0  0  0  0  0  0  0  0  0
   -5.5954   -3.3510   -1.9864 H   0  0  0  0  0  0  0  0  0  0  0  0
   -3.0424   -2.8131   -2.1606 N   0  0  0  0  0  0  0  0  0  0  0  0
   -1.6755   -2.3891   -2.0077 C   0  0  2  0  0  0  0  0  0  0  0  0
   -1.5782   -1.5673   -0.7292 C   0  0  0  0  0  0  0  0  0  0  0  0
   -2.5448   -1.0064   -0.2171 O   0  0  0  0  0  0  0  0  0  0  0  0
   -1.2087   -1.5823   -3.2094 C   0  0  0  0  0  0  0  0  0  0  0  0
   -3.6915   -2.1888   -2.6360 H   0  0  0  0  0  0  0  0  0  0  0  0
   -1.0721   -3.2977   -1.9053 H   0  0  0  0  0  0  0  0  0  0  0  0
   -1.8017   -0.6681   -3.3281 H   0  0  0  0  0  0  0  0  0  0  0  0
   -0.1601   -1.2849   -3.1045 H   0  0  0  0  0  0  0  0  0  0  0  0
   -1.3074   -2.1646   -4.1319 H   0  0  0  0  0  0  0  0  0  0  0  0
   -0.2835   -1.5112   -0.2725 N   0  0  0  0  0  0  0  0  0  0  0  0
    0.0769   -0.7658    0.9424 C   0  0  0  0  0  0  0  0  0  0  0  0
    0.7699    0.5175    0.5614 C   0  0  0  0  0  0  0  0  0  0  0  0
    1.4495    0.6428   -0.4539 O   0  0  0  0  0  0  0  0  0  0  0  0
    0.4587   -2.0097   -0.7289 H   0  0  0  0  0  0  0  0  0  0  0  0
    0.7453   -1.3776    1.5554 H   0  0  0  0  0  0  0  0  0  0  0  0
   -0.8315   -0.5425    1.5096 H   0  0  0  0  0  0  0  0  0  0  0  0
    0.5425    1.5199    1.4984 N   0  0  0  0  0  0  0  0  0  0  0  0
    1.0866    2.8478    1.3881 C   0  0  2  0  0  0  0  0  0  0  0  0
   -0.0744    3.8334    1.3902 C   0  0  0  0  0  0  0  0  0  0  0  0
   -1.2208    3.5201    1.0761 O   0  0  0  0  0  0  0  0  0  0  0  0
    1.9259    2.9991    0.1289 C   0  0  0  0  0  0  0  0  0  0  0  0
   -0.0399    1.3028    2.3054 H   0  0  0  0  0  0  0  0  0  0  0  0
    1.7062    3.0105    2.2768 H   0  0  0  0  0  0  0  0  0  0  0  0
    1.3221    2.8395   -0.7719 H   0  0  0  0  0  0  0  0  0  0  0  0
    2.3624    4.0010    0.0611 H   0  0  0  0  0  0  0  0  0  0  0  0
    2.7428    2.2695    0.1151 H   0  0  0  0  0  0  0  0  0  0  0  0
    0.3287    5.1139    1.7424 N   0  0  0  0  0  0  0  0  0  0  0  0
   -0.5863    6.2297    1.8051 C   0  0  0  0  0  0  0  0  0  0  0  0
    1.2958    5.2786    2.0057 H   0  0  0  0  0  0  0  0  0  0  0  0
   -0.5923    6.7544    0.8383 H   0  0  0  0  0  0  0  0  0  0  0  0
   -1.5984    5.8616    2.0287 H   0  0  0  0  0  0  0  0  0  0  0  0
   -0.2651    6.9230    2.5964 H   0  0  0  0  0  0  0  0  0  0  0  0
  1  3  1  0  0  0  0
  1  7  1  0  0  0  0
  1  2  2  0  0  0  0
 18 19  1  0  0  0  0
 19 24  1  0  0  0  0
 19 20  2  0  0  0  0
 25 26  1  0  0  0  0
 26 34  1  0  0  0  0
 26 27  2  0  0  0  0
  8  9  1  0  0  0  0
  9 17  1  0  0  0  0
  9 10  2  0  0  0  0
 25 28  1  0  0  0  0
  8 11  1  0  0  0  0
 34 35  1  0  0  0  0
 17 18  1  0  0  0  0
 24 25  1  0  0  0  0
  7  8  1  0  0  0  0
  3  4  1  0  0  0  0
  3  5  1  0  0  0  0
  3  6  1  0  0  0  0
 28 31  1  0  0  0  0
 28 32  1  0  0  0  0
 28 33  1  0  0  0  0
 11 14  1  0  0  0  0
 11 15  1  0  0  0  0
 11 16  1  0  0  0  0
 35 37  1  0  0  0  0
 35 38  1  0  0  0  0
 35 39  1  0  0  0  0
 18 22  1  0  0  0  0
 18 23  1  0  0  0  0
 25 30  1  0  0  0  0
  8 13  1  0  0  0  0
 34 36  1  0  0  0  0
 17 21  1  0  0  0  0
  7 12  1  0  0  0  0
 24 29  1  0  0  0  0
M  END
$$$$

  -OEChem-05262214473D

 39 38  0     1  0  0  0  0  0999 V2000
   -3.5200   -4.0268   -1.6943 C   0  0  0  0  0  0  0  0  0  0  0  0
   -2.8702   -4.8827   -1.1054 O   0  0  0  0  0  0  0  0  0  0  0  0
   -4.9704   -4.2579   -1.9614 C   0  0  0  0  0  0  0  0  0  0  0  0
   -5.1456   -4.7573   -2.9278 H   0  0  0  0  0  0  0  0  0  0  0  0
   -5.4379   -4.9112   -1.2072 H   0  0  0  0  0  0  0  0  0  0  0  0
   -5.5954   -3.3510   -1.9864 H   0  0  0  0  0  0  0  0  0  0  0  0
   -3.0424   -2.8131   -2.1606 N   0  0  0  0  0  0  0  0  0  0  0  0
   -1.6755   -2.3891   -2.0077 C   0  0  2  0  0  0  0  0  0  0  0  0
   -1.5782   -1.5673   -0.7292 C   0  0  0  0  0  0  0  0  0  0  0  0
   -2.5448   -1.0064   -0.2171 O   0  0  0  0  0  0  0  0  0  0  0  0
   -1.2087   -1.5823   -3.2094 C   0  0  0  0  0  0  0  0  0  0  0  0
   -3.6915   -2.1888   -2.6360 H   0  0  0  0  0  0  0  0  0  0  0  0
   -1.0721   -3.2977   -1.9053 H   0  0  0  0  0  0  0  0  0  0  0  0
   -1.8017   -0.6681   -3.3281 H   0  0  0  0  0  0  0  0  0  0  0  0
   -0.1601   -1.2849   -3.1045 H   0  0  0  0  0  0  0  0  0  0  0  0
   -1.3074   -2.1646   -4.1319 H   0  0  0  0  0  0  0  0  0  0  0  0
   -0.2835   -1.5112   -0.2725 N   0  0  0  0  0  0  0  0  0  0  0  0
    0.0769   -0.7658    0.9424 C   0  0  0  0  0  0  0  0  0  0  0  0
    0.7699    0.5175    0.5614 C   0  0  0  0  0  0  0  0  0  0  0  0
    1.2214    0.7345   -0.5599 O   0  0  0  0  0  0  0  0  0  0  0  0
    0.4587   -2.0097   -0.7289 H   0  0  0  0  0  0  0  0  0  0  0  0
    0.7453   -1.3776    1.5554 H   0  0  0  0  0  0  0  0  0  0  0  0
   -0.8315   -0.5425    1.5096 H   0  0  0  0  0  0  0  0  0  0  0  0
    0.8303    1.4040    1.6314 N   0  0  0  0  0  0  0  0  0  0  0  0
    1.4405    2.7050    1.5509 C   0  0  2  0  0  0  0  0  0  0  0  0
    0.3888    3.7416    1.9233 C   0  0  0  0  0  0  0  0  0  0  0  0
   -0.8195    3.5306    1.8414 O   0  0  0  0  0  0  0  0  0  0  0  0
    1.9967    2.9702    0.1605 C   0  0  0  0  0  0  0  0  0  0  0  0
    0.4211    1.1173    2.5191 H   0  0  0  0  0  0  0  0  0  0  0  0
    2.2485    2.7217    2.2904 H   0  0  0  0  0  0  0  0  0  0  0  0
    1.2017    2.9574   -0.5940 H   0  0  0  0  0  0  0  0  0  0  0  0
    2.4857    3.9486    0.1088 H   0  0  0  0  0  0  0  0  0  0  0  0
    2.7312    2.2067   -0.1176 H   0  0  0  0  0  0  0  0  0  0  0  0
    0.9581    4.9446    2.3169 N   0  0  0  0  0  0  0  0  0  0  0  0
    0.1692    6.0896    2.7074 C   0  0  0  0  0  0  0  0  0  0  0  0
    1.9691    5.0241    2.3733 H   0  0  0  0  0  0  0  0  0  0  0  0
   -0.0046    6.7318    1.8314 H   0  0  0  0  0  0  0  0  0  0  0  0
   -0.7964    5.7494    3.1098 H   0  0  0  0  0  0  0  0  0  0  0  0
    0.7075    6.6597    3.4789 H   0  0  0  0  0  0  0  0  0  0  0  0
  1  3  1  0  0  0  0
  1  7  1  0  0  0  0
  1  2  2  0  0  0  0
 18 19  1  0  0  0  0
 19 24  1  0  0  0  0
 19 20  2  0  0  0  0
 25 26  1  0  0  0  0
 26 34  1  0  0  0  0
 26 27  2  0  0  0  0
  8  9  1  0  0  0  0
  9 17  1  0  0  0  0
  9 10  2  0  0  0  0
 25 28  1  0  0  0  0
  8 11  1  0  0  0  0
 34 35  1  0  0  0  0
 17 18  1  0  0  0  0
 24 25  1  0  0  0  0
  7  8  1  0  0  0  0
  3  4  1  0  0  0  0
  3  5  1  0  0  0  0
  3  6  1  0  0  0  0
 28 31  1  0  0  0  0
 28 32  1  0  0  0  0
 28 33  1  0  0  0  0
 11 14  1  0  0  0  0
 11 15  1  0  0  0  0
 11 16  1  0  0  0  0
 35 37  1  0  0  0  0
 35 38  1  0  0  0  0
 35 39  1  0  0  0  0
 18 22  1  0  0  0  0
 18 23  1  0  0  0  0
 25 30  1  0  0  0  0
  8 13  1  0  0  0  0
 34 36  1  0  0  0  0
 17 21  1  0  0  0  0
  7 12  1  0  0  0  0
 24 29  1  0  0  0  0
M  END
$$$$

  -OEChem-05262214473D

 39 38  0     1  0  0  0  0  0999 V2000
   -3.5200   -4.0268   -1.6943 C   0  0  0  0  0  0  0  0  0  0  0  0
   -2.8702   -4.8827   -1.1054 O   0  0  0  0  0  0  0  0  0  0  0  0
   -4.9704   -4.2579   -1.9614 C   0  0  0  0  0  0  0  0  0  0  0  0
   -5.1456   -4.7573   -2.9278 H   0  0  0  0  0  0  0  0  0  0  0  0
   -5.4379   -4.9112   -1.2072 H   0  0  0  0  0  0  0  0  0  0  0  0
   -5.5954   -3.3510   -1.9864 H   0  0  0  0  0  0  0  0  0  0  0  0
   -3.0424   -2.8131   -2.1606 N   0  0  0  0  0  0  0  0  0  0  0  0
   -1.6755   -2.3891   -2.0077 C   0  0  2  0  0  0  0  0  0  0  0  0
   -1.5782   -1.5673   -0.7292 C   0  0  0  0  0  0  0  0  0  0  0  0
   -2.5448   -1.0064   -0.2171 O   0  0  0  0  0  0  0  0  0  0  0  0
   -1.2087   -1.5823   -3.2094 C   0  0  0  0  0  0  0  0  0  0  0  0
   -3.6915   -2.1888   -2.6360 H   0  0  0  0  0  0  0  0  0  0  0  0
   -1.0721   -3.2977   -1.9053 H   0  0  0  0  0  0  0  0  0  0  0  0
   -1.8017   -0.6681   -3.3281 H   0  0  0  0  0  0  0  0  0  0  0  0
   -0.1601   -1.2849   -3.1045 H   0  0  0  0  0  0  0  0  0  0  0  0
   -1.3074   -2.1646   -4.1319 H   0  0  0  0  0  0  0  0  0  0  0  0
   -0.2835   -1.5112   -0.2725 N   0  0  0  0  0  0  0  0  0  0  0  0
    0.0769   -0.7658    0.9424 C   0  0  0  0  0  0  0  0  0  0  0  0
    0.4260    0.6549    0.5791 C   0  0  0  0  0  0  0  0  0  0  0  0
    0.4026    1.0834   -0.5716 O   0  0  0  0  0  0  0  0  0  0  0  0
    0.4587   -2.0097   -0.7289 H   0  0  0  0  0  0  0  0  0  0  0  0
    0.9369   -1.2464    1.4181 H   0  0  0  0  0  0  0  0  0  0  0  0
   -0.7709   -0.7741    1.6337 H   0  0  0  0  0  0  0  0  0  0  0  0
    0.7745    1.3995    1.7010 N   0  0  0  0  0  0  0  0  0  0  0  0
    1.1563    2.7860    1.6463 C   0  0  2  0  0  0  0  0  0  0  0  0
    0.2041    3.5716    2.5383 C   0  0  0  0  0  0  0  0  0  0  0  0
   -0.9156    3.1671    2.8445 O   0  0  0  0  0  0  0  0  0  0  0  0
    1.1243    3.3129    0.2201 C   0  0  0  0  0  0  0  0  0  0  0  0
    0.7586    0.9390    2.6095 H   0  0  0  0  0  0  0  0  0  0  0  0
    2.1726    2.8504    2.0500 H   0  0  0  0  0  0  0  0  0  0  0  0
    0.1139    3.2565   -0.2013 H   0  0  0  0  0  0  0  0  0  0  0  0
    1.4424    4.3598    0.1766 H   0  0  0  0  0  0  0  0  0  0  0  0
    1.7872    2.7279   -0.4265 H   0  0  0  0  0  0  0  0  0  0  0  0
    0.7348    4.7968    2.9169 N   0  0  0  0  0  0  0  0  0  0  0  0
    0.0191    5.7314    3.7537 C   0  0  0  0  0  0  0  0  0  0  0  0
    1.6786    5.0420    2.6323 H   0  0  0  0  0  0  0  0  0  0  0  0
   -0.5394    6.4373    3.1213 H   0  0  0  0  0  0  0  0  0  0  0  0
   -0.6829    5.1827    4.3988 H   0  0  0  0  0  0  0  0  0  0  0  0
    0.7344    6.2861    4.3787 H   0  0  0  0  0  0  0  0  0  0  0  0
  1  3  1  0  0  0  0
  1  7  1  0  0  0  0
  1  2  2  0  0  0  0
 18 19  1  0  0  0  0
 19 24  1  0  0  0  0
 19 20  2  0  0  0  0
 25 26  1  0  0  0  0
 26 34  1  0  0  0  0
 26 27  2  0  0  0  0
  8  9  1  0  0  0  0
  9 17  1  0  0  0  0
  9 10  2  0  0  0  0
 25 28  1  0  0  0  0
  8 11  1  0  0  0  0
 34 35  1  0  0  0  0
 17 18  1  0  0  0  0
 24 25  1  0  0  0  0
  7  8  1  0  0  0  0
  3  4  1  0  0  0  0
  3  5  1  0  0  0  0
  3  6  1  0  0  0  0
 28 31  1  0  0  0  0
 28 32  1  0  0  0  0
 28 33  1  0  0  0  0
 11 14  1  0  0  0  0
 11 15  1  0  0  0  0
 11 16  1  0  0  0  0
 35 37  1  0  0  0  0
 35 38  1  0  0  0  0
 35 39  1  0  0  0  0
 18 22  1  0  0  0  0
 18 23  1  0  0  0  0
 25 30  1  0  0  0  0
  8 13  1  0  0  0  0
 34 36  1  0  0  0  0
 17 21  1  0  0  0  0
  7 12  1  0  0  0  0
 24 29  1  0  0  0  0
M  END
$$$$

  -OEChem-05262214473D

 39 38  0     1  0  0  0  0  0999 V2000
   -3.5200   -4.0268   -1.6943 C   0  0  0  0  0  0  0  0  0  0  0  0
   -2.8702   -4.8827   -1.1054 O   0  0  0  0  0  0  0  0  0  0  0  0
   -4.9704   -4.2579   -1.9614 C   0  0  0  0  0  0  0  0  0  0  0  0
   -5.1456   -4.7573   -2.9278 H   0  0  0  0  0  0  0  0  0  0  0  0
   -5.4379   -4.9112   -1.2072 H   0  0  0  0  0  0  0  0  0  0  0  0
   -5.5954   -3.3510   -1.9864 H   0  0  0  0  0  0  0  0  0  0  0  0
   -3.0424   -2.8131   -2.1606 N   0  0  0  0  0  0  0  0  0  0  0  0
   -1.6755   -2.3891   -2.0077 C   0  0  2  0  0  0  0  0  0  0  0  0
   -1.5782   -1.5673   -0.7292 C   0  0  0  0  0  0  0  0  0  0  0  0
   -2.5448   -1.0064   -0.2171 O   0  0  0  0  0  0  0  0  0  0  0  0
   -1.2087   -1.5823   -3.2094 C   0  0  0  0  0  0  0  0  0  0  0  0
   -3.6915   -2.1888   -2.6360 H   0  0  0  0  0  0  0  0  0  0  0  0
   -1.0721   -3.2977   -1.9053 H   0  0  0  0  0  0  0  0  0  0  0  0
   -1.8017   -0.6681   -3.3281 H   0  0  0  0  0  0  0  0  0  0  0  0
   -0.1601   -1.2849   -3.1045 H   0  0  0  0  0  0  0  0  0  0  0  0
   -1.3074   -2.1646   -4.1319 H   0  0  0  0  0  0  0  0  0  0  0  0
   -0.2835   -1.5112   -0.2725 N   0  0  0  0  0  0  0  0  0  0  0  0
    0.0769   -0.7658    0.9424 C   0  0  0  0  0  0  0  0  0  0  0  0
    0.4260    0.6549    0.5791 C   0  0  0  0  0  0  0  0  0  0  0  0
    0.1548    1.1609   -0.5066 O   0  0  0  0  0  0  0  0  0  0  0  0
    0.4587   -2.0097   -0.7289 H   0  0  0  0  0  0  0  0  0  0  0  0
    0.9369   -1.2464    1.4181 H   0  0  0  0  0  0  0  0  0  0  0  0
   -0.7709   -0.7741    1.6337 H   0  0  0  0  0  0  0  0  0  0  0  0
    1.0867    1.3015    1.6182 N   0  0  0  0  0  0  0  0  0  0  0  0
    1.5398    2.6656    1.5438 C   0  0  2  0  0  0  0  0  0  0  0  0
    0.8891    3.4401    2.6823 C   0  0  0  0  0  0  0  0  0  0  0  0
   -0.1486    3.0779    3.2328 O   0  0  0  0  0  0  0  0  0  0  0  0
    1.2004    3.2887    0.1987 C   0  0  0  0  0  0  0  0  0  0  0  0
    1.2591    0.7822    2.4774 H   0  0  0  0  0  0  0  0  0  0  0  0
    2.6256    2.6465    1.6880 H   0  0  0  0  0  0  0  0  0  0  0  0
    0.1168    3.3165    0.0363 H   0  0  0  0  0  0  0  0  0  0  0  0
    1.5709    4.3171    0.1331 H   0  0  0  0  0  0  0  0  0  0  0  0
    1.6446    2.7133   -0.6206 H   0  0  0  0  0  0  0  0  0  0  0  0
    1.5799    4.6058    2.9822 N   0  0  0  0  0  0  0  0  0  0  0  0
    1.1550    5.5196    4.0169 C   0  0  0  0  0  0  0  0  0  0  0  0
    2.4414    4.8175    2.4875 H   0  0  0  0  0  0  0  0  0  0  0  0
    0.5107    6.2962    3.5790 H   0  0  0  0  0  0  0  0  0  0  0  0
    0.5935    4.9678    4.7852 H   0  0  0  0  0  0  0  0  0  0  0  0
    2.0373    5.9906    4.4749 H   0  0  0  0  0  0  0  0  0  0  0  0
  1  3  1  0  0  0  0
  1  7  1  0  0  0  0
  1  2  2  0  0  0  0
 18 19  1  0  0  0  0
 19 24  1  0  0  0  0
 19 20  2  0  0  0  0
 25 26  1  0  0  0  0
 26 34  1  0  0  0  0
 26 27  2  0  0  0  0
  8  9  1  0  0  0  0
  9 17  1  0  0  0  0
  9 10  2  0  0  0  0
 25 28  1  0  0  0  0
  8 11  1  0  0  0  0
 34 35  1  0  0  0  0
 17 18  1  0  0  0  0
 24 25  1  0  0  0  0
  7  8  1  0  0  0  0
  3  4  1  0  0  0  0
  3  5  1  0  0  0  0
  3  6  1  0  0  0  0
 28 31  1  0  0  0  0
 28 32  1  0  0  0  0
 28 33  1  0  0  0  0
 11 14  1  0  0  0  0
 11 15  1  0  0  0  0
 11 16  1  0  0  0  0
 35 37  1  0  0  0  0
 35 38  1  0  0  0  0
 35 39  1  0  0  0  0
 18 22  1  0  0  0  0
 18 23  1  0  0  0  0
 25 30  1  0  0  0  0
  8 13  1  0  0  0  0
 34 36  1  0  0  0  0
 17 21  1  0  0  0  0
  7 12  1  0  0  0  0
 24 29  1  0  0  0  0
M  END
$$$$

  -OEChem-05262214473D

 39 38  0     1  0  0  0  0  0999 V2000
   -3.5200   -4.0268   -1.6943 C   0  0  0  0  0  0  0  0  0  0  0  0
   -2.8702   -4.8827   -1.1054 O   0  0  0  0  0  0  0  0  0  0  0  0
   -4.9704   -4.2579   -1.9614 C   0  0  0  0  0  0  0  0  0  0  0  0
   -5.1456   -4.7573   -2.9278 H   0  0  0  0  0  0  0  0  0  0  0  0
   -5.4379   -4.9112   -1.2072 H   0  0  0  0  0  0  0  0  0  0  0  0
   -5.5954   -3.3510   -1.9864 H   0  0  0  0  0  0  0  0  0  0  0  0
   -3.0424   -2.8131   -2.1606 N   0  0  0  0  0  0  0  0  0  0  0  0
   -1.6755   -2.3891   -2.0077 C   0  0  2  0  0  0  0  0  0  0  0  0
   -1.5782   -1.5673   -0.7292 C   0  0  0  0  0  0  0  0  0  0  0  0
   -2.5448   -1.0064   -0.2171 O   0  0  0  0  0  0  0  0  0  0  0  0
   -1.2087   -1.5823   -3.2094 C   0  0  0  0  0  0  0  0  0  0  0  0
   -3.6915   -2.1888   -2.6360 H   0  0  0  0  0  0  0  0  0  0  0  0
   -1.0721   -3.2977   -1.9053 H   0  0  0  0  0  0  0  0  0  0  0  0
   -1.8017   -0.6681   -3.3281 H   0  0  0  0  0  0  0  0  0  0  0  0
   -0.1601   -1.2849   -3.1045 H   0  0  0  0  0  0  0  0  0  0  0  0
   -1.3074   -2.1646   -4.1319 H   0  0  0  0  0  0  0  0  0  0  0  0
   -0.2835   -1.5112   -0.2725 N   0  0  0  0  0  0  0  0  0  0  0  0
    0.0769   -0.7658    0.9424 C   0  0  0  0  0  0  0  0  0  0  0  0
    0.4260    0.6549    0.5791 C   0  0  0  0  0  0  0  0  0  0  0  0
   -0.0639    1.2474   -0.3786 O   0  0  0  0  0  0  0  0  0  0  0  0
    0.4587   -2.0097   -0.7289 H   0  0  0  0  0  0  0  0  0  0  0  0
    0.9369   -1.2464    1.4181 H   0  0  0  0  0  0  0  0  0  0  0  0
   -0.7709   -0.7741    1.6337 H   0  0  0  0  0  0  0  0  0  0  0  0
    1.3621    1.1924    1.4562 N   0  0  0  0  0  0  0  0  0  0  0  0
    1.8778    2.5314    1.3440 C   0  0  2  0  0  0  0  0  0  0  0  0
    1.5776    3.2617    2.6463 C   0  0  0  0  0  0  0  0  0  0  0  0
    0.6813    2.9207    3.4154 O   0  0  0  0  0  0  0  0  0  0  0  0
    1.2673    3.2619    0.1581 C   0  0  0  0  0  0  0  0  0  0  0  0
    1.7006    0.6075    2.2184 H   0  0  0  0  0  0  0  0  0  0  0  0
    2.9621    2.4430    1.2157 H   0  0  0  0  0  0  0  0  0  0  0  0
    0.1812    3.3601    0.2687 H   0  0  0  0  0  0  0  0  0  0  0  0
    1.6818    4.2704    0.0571 H   0  0  0  0  0  0  0  0  0  0  0  0
    1.4587    2.7197   -0.7742 H   0  0  0  0  0  0  0  0  0  0  0  0
    2.4002    4.3647    2.8277 N   0  0  0  0  0  0  0  0  0  0  0  0
    2.3032    5.2283    3.9813 C   0  0  0  0  0  0  0  0  0  0  0  0
    3.1290    4.5617    2.1481 H   0  0  0  0  0  0  0  0  0  0  0  0
    1.6279    6.0670    3.7564 H   0  0  0  0  0  0  0  0  0  0  0  0
    1.9072    4.6575    4.8342 H   0  0  0  0  0  0  0  0  0  0  0  0
    3.3007    5.6180    4.2324 H   0  0  0  0  0  0  0  0  0  0  0  0
  1  3  1  0  0  0  0
  1  7  1  0  0  0  0
  1  2  2  0  0  0  0
 18 19  1  0  0  0  0
 19 24  1  0  0  0  0
 19 20  2  0  0  0  0
 25 26  1  0  0  0  0
 26 34  1  0  0  0  0
 26 27  2  0  0  0  0
  8  9  1  0  0  0  0
  9 17  1  0  0  0  0
  9 10  2  0  0  0  0
 25 28  1  0  0  0  0
  8 11  1  0  0  0  0
 34 35  1  0  0  0  0
 17 18  1  0  0  0  0
 24 25  1  0  0  0  0
  7  8  1  0  0  0  0
  3  4  1  0  0  0  0
  3  5  1  0  0  0  0
  3  6  1  0  0  0  0
 28 31  1  0  0  0  0
 28 32  1  0  0  0  0
 28 33  1  0  0  0  0
 11 14  1  0  0  0  0
 11 15  1  0  0  0  0
 11 16  1  0  0  0  0
 35 37  1  0  0  0  0
 35 38  1  0  0  0  0
 35 39  1  0  0  0  0
 18 22  1  0  0  0  0
 18 23  1  0  0  0  0
 25 30  1  0  0  0  0
  8 13  1  0  0  0  0
 34 36  1  0  0  0  0
 17 21  1  0  0  0  0
  7 12  1  0  0  0  0
 24 29  1  0  0  0  0
M  END
$$$$

  -OEChem-05262214473D

 39 38  0     1  0  0  0  0  0999 V2000
   -3.5200   -4.0268   -1.6943 C   0  0  0  0  0  0  0  0  0  0  0  0
   -2.8702   -4.8827   -1.1054 O   0  0  0  0  0  0  0  0  0  0  0  0
   -4.9704   -4.2579   -1.9614 C   0  0  0  0  0  0  0  0  0  0  0  0
   -5.1456   -4.7573   -2.9278 H   0  0  0  0  0  0  0  0  0  0  0  0
   -5.4379   -4.9112   -1.2072 H   0  0  0  0  0  0  0  0  0  0  0  0
   -5.5954   -3.3510   -1.9864 H   0  0  0  0  0  0  0  0  0  0  0  0
   -3.0424   -2.8131   -2.1606 N   0  0  0  0  0  0  0  0  0  0  0  0
   -1.6755   -2.3891   -2.0077 C   0  0  2  0  0  0  0  0  0  0  0  0
   -1.5782   -1.5673   -0.7292 C   0  0  0  0  0  0  0  0  0  0  0  0
   -2.5448   -1.0064   -0.2171 O   0  0  0  0  0  0  0  0  0  0  0  0
   -1.2087   -1.5823   -3.2094 C   0  0  0  0  0  0  0  0  0  0  0  0
   -3.6915   -2.1888   -2.6360 H   0  0  0  0  0  0  0  0  0  0  0  0
   -1.0721   -3.2977   -1.9053 H   0  0  0  0  0  0  0  0  0  0  0  0
   -1.8017   -0.6681   -3.3281 H   0  0  0  0  0  0  0  0  0  0  0  0
   -0.1601   -1.2849   -3.1045 H   0  0  0  0  0  0  0  0  0  0  0  0
   -1.3074   -2.1646   -4.1319 H   0  0  0  0  0  0  0  0  0  0  0  0
   -0.2835   -1.5112   -0.2725 N   0  0  0  0  0  0  0  0  0  0  0  0
    0.0769   -0.7658    0.9424 C   0  0  0  0  0  0  0  0  0  0  0  0
    0.4260    0.6549    0.5791 C   0  0  0  0  0  0  0  0  0  0  0  0
   -0.2386    1.3369   -0.1965 O   0  0  0  0  0  0  0  0  0  0  0  0
    0.4587   -2.0097   -0.7289 H   0  0  0  0  0  0  0  0  0  0  0  0
    0.9369   -1.2464    1.4181 H   0  0  0  0  0  0  0  0  0  0  0  0
   -0.7709   -0.7741    1.6337 H   0  0  0  0  0  0  0  0  0  0  0  0
    1.5817    1.0796    1.2260 N   0  0  0  0  0  0  0  0  0  0  0  0
    2.1471    2.3927    1.0605 C   0  0  2  0  0  0  0  0  0  0  0  0
    2.2228    3.0485    2.4330 C   0  0  0  0  0  0  0  0  0  0  0  0
    1.5178    2.7060    3.3799 O   0  0  0  0  0  0  0  0  0  0  0  0
    1.3203    3.2343    0.1009 C   0  0  0  0  0  0  0  0  0  0  0  0
    2.0529    0.4267    1.8500 H   0  0  0  0  0  0  0  0  0  0  0  0
    3.1592    2.2537    0.6652 H   0  0  0  0  0  0  0  0  0  0  0  0
    0.3029    3.3843    0.4801 H   0  0  0  0  0  0  0  0  0  0  0  0
    1.7674    4.2230   -0.0460 H   0  0  0  0  0  0  0  0  0  0  0  0
    1.2420    2.7467   -0.8768 H   0  0  0  0  0  0  0  0  0  0  0  0
    3.1398    4.0899    2.4639 N   0  0  0  0  0  0  0  0  0  0  0  0
    3.3854    4.8774    3.6494 C   0  0  0  0  0  0  0  0  0  0  0  0
    3.6943    4.2921    1.6373 H   0  0  0  0  0  0  0  0  0  0  0  0
    2.7360    5.7653    3.6415 H   0  0  0  0  0  0  0  0  0  0  0  0
    3.1688    4.2729    4.5425 H   0  0  0  0  0  0  0  0  0  0  0  0
    4.4387    5.1939    3.6675 H   0  0  0  0  0  0  0  0  0  0  0  0
  1  3  1  0  0  0  0
  1  7  1  0  0  0  0
  1  2  2  0  0  0  0
 18 19  1  0  0  0  0
 19 24  1  0  0  0  0
 19 20  2  0  0  0  0
 25 26  1  0  0  0  0
 26 34  1  0  0  0  0
 26 27  2  0  0  0  0
  8  9  1  0  0  0  0
  9 17  1  0  0  0  0
  9 10  2  0  0  0  0
 25 28  1  0  0  0  0
  8 11  1  0  0  0  0
 34 35  1  0  0  0  0
 17 18  1  0  0  0  0
 24 25  1  0  0  0  0
  7  8  1  0  0  0  0
  3  4  1  0  0  0  0
  3  5  1  0  0  0  0
  3  6  1  0  0  0  0
 28 31  1  0  0  0  0
 28 32  1  0  0  0  0
 28 33  1  0  0  0  0
 11 14  1  0  0  0  0
 11 15  1  0  0  0  0
 11 16  1  0  0  0  0
 35 37  1  0  0  0  0
 35 38  1  0  0  0  0
 35 39  1  0  0  0  0
 18 22  1  0  0  0  0
 18 23  1  0  0  0  0
 25 30  1  0  0  0  0
  8 13  1  0  0  0  0
 34 36  1  0  0  0  0
 17 21  1  0  0  0  0
  7 12  1  0  0  0  0
 24 29  1  0  0  0  0
M  END
$$$$

  -OEChem-05262214473D

 39 38  0     1  0  0  0  0  0999 V2000
   -3.5200   -4.0268   -1.6943 C   0  0  0  0  0  0  0  0  0  0  0  0
   -2.8702   -4.8827   -1.1054 O   0  0  0  0  0  0  0  0  0  0  0  0
   -4.9704   -4.2579   -1.9614 C   0  0  0  0  0  0  0  0  0  0  0  0
   -5.1456   -4.7573   -2.9278 H   0  0  0  0  0  0  0  0  0  0  0  0
   -5.4379   -4.9112   -1.2072 H   0  0  0  0  0  0  0  0  0  0  0  0
   -5.5954   -3.3510   -1.9864 H   0  0  0  0  0  0  0  0  0  0  0  0
   -3.0424   -2.8131   -2.1606 N   0  0  0  0  0  0  0  0  0  0  0  0
   -1.6755   -2.3891   -2.0077 C   0  0  2  0  0  0  0  0  0  0  0  0
   -1.5782   -1.5673   -0.7292 C   0  0  0  0  0  0  0  0  0  0  0  0
   -2.5448   -1.0064   -0.2171 O   0  0  0  0  0  0  0  0  0  0  0  0
   -1.2087   -1.5823   -3.2094 C   0  0  0  0  0  0  0  0  0  0  0  0
   -3.6915   -2.1888   -2.6360 H   0  0  0  0  0  0  0  0  0  0  0  0
   -1.0721   -3.2977   -1.9053 H   0  0  0  0  0  0  0  0  0  0  0  0
   -1.8017   -0.6681   -3.3281 H   0  0  0  0  0  0  0  0  0  0  0  0
   -0.1601   -1.2849   -3.1045 H   0  0  0  0  0  0  0  0  0  0  0  0
   -1.3074   -2.1646   -4.1319 H   0  0  0  0  0  0  0  0  0  0  0  0
   -0.2835   -1.5112   -0.2725 N   0  0  0  0  0  0  0  0  0  0  0  0
    0.0769   -0.7658    0.9424 C   0  0  0  0  0  0  0  0  0  0  0  0
    0.4260    0.6549    0.5791 C   0  0  0  0  0  0  0  0  0  0  0  0
   -0.3572    1.4233    0.0274 O   0  0  0  0  0  0  0  0  0  0  0  0
    0.4587   -2.0097   -0.7289 H   0  0  0  0  0  0  0  0  0  0  0  0
    0.9369   -1.2464    1.4181 H   0  0  0  0  0  0  0  0  0  0  0  0
   -0.7709   -0.7741    1.6337 H   0  0  0  0  0  0  0  0  0  0  0  0
    1.7306    0.9707    0.9433 N   0  0  0  0  0  0  0  0  0  0  0  0
    2.3295    2.2590    0.7127 C   0  0  2  0  0  0  0  0  0  0  0  0
    2.7807    2.8152    2.0568 C   0  0  0  0  0  0  0  0  0  0  0  0
    2.3036    2.4486    3.1287 O   0  0  0  0  0  0  0  0  0  0  0  0
    1.3558    3.2077    0.0310 C   0  0  0  0  0  0  0  0  0  0  0  0
    2.2921    0.2521    1.3973 H   0  0  0  0  0  0  0  0  0  0  0  0
    3.2036    2.0917    0.0740 H   0  0  0  0  0  0  0  0  0  0  0  0
    0.4735    3.3874    0.6561 H   0  0  0  0  0  0  0  0  0  0  0  0
    1.8219    4.1780   -0.1694 H   0  0  0  0  0  0  0  0  0  0  0  0
    1.0094    2.7924   -0.9215 H   0  0  0  0  0  0  0  0  0  0  0  0
    3.7483    3.8001    1.9157 N   0  0  0  0  0  0  0  0  0  0  0  0
    4.3279    4.4909    3.0438 C   0  0  0  0  0  0  0  0  0  0  0  0
    4.0990    4.0270    0.9898 H   0  0  0  0  0  0  0  0  0  0  0  0
    3.7596    5.4116    3.2422 H   0  0  0  0  0  0  0  0  0  0  0  0
    4.2922    3.8401    3.9299 H   0  0  0  0  0  0  0  0  0  0  0  0
    5.3737    4.7471    2.8189 H   0  0  0  0  0  0  0  0  0  0  0  0
  1  3  1  0  0  0  0
  1  7  1  0  0  0  0
  1  2  2  0  0  0  0
 18 19  1  0  0  0  0
 19 24  1  0  0  0  0
 19 20  2  0  0  0  0
 25 26  1  0  0  0  0
 26 34  1  0  0  0  0
 26 27  2  0  0  0  0
  8  9  1  0  0  0  0
  9 17  1  0  0  0  0
  9 10  2  0  0  0  0
 25 28  1  0  0  0  0
  8 11  1  0  0  0  0
 34 35  1  0  0  0  0
 17 18  1  0  0  0  0
 24 25  1  0  0  0  0
  7  8  1  0  0  0  0
  3  4  1  0  0  0  0
  3  5  1  0  0  0  0
  3  6  1  0  0  0  0
 28 31  1  0  0  0  0
 28 32  1  0  0  0  0
 28 33  1  0  0  0  0
 11 14  1  0  0  0  0
 11 15  1  0  0  0  0
 11 16  1  0  0  0  0
 35 37  1  0  0  0  0
 35 38  1  0  0  0  0
 35 39  1  0  0  0  0
 18 22  1  0  0  0  0
 18 23  1  0  0  0  0
 25 30  1  0  0  0  0
  8 13  1  0  0  0  0
 34 36  1  0  0  0  0
 17 21  1  0  0  0  0
  7 12  1  0  0  0  0
 24 29  1  0  0  0  0
M  END
$$$$

  -OEChem-05262214473D

 39 38  0     1  0  0  0  0  0999 V2000
   -3.5200   -4.0268   -1.6943 C   0  0  0  0  0  0  0  0  0  0  0  0
   -2.8702   -4.8827   -1.1054 O   0  0  0  0  0  0  0  0  0  0  0  0
   -4.9704   -4.2579   -1.9614 C   0  0  0  0  0  0  0  0  0  0  0  0
   -5.1456   -4.7573   -2.9278 H   0  0  0  0  0  0  0  0  0  0  0  0
   -5.4379   -4.9112   -1.2072 H   0  0  0  0  0  0  0  0  0  0  0  0
   -5.5954   -3.3510   -1.9864 H   0  0  0  0  0  0  0  0  0  0  0  0
   -3.0424   -2.8131   -2.1606 N   0  0  0  0  0  0  0  0  0  0  0  0
   -1.6755   -2.3891   -2.0077 C   0  0  2  0  0  0  0  0  0  0  0  0
   -1.5782   -1.5673   -0.7292 C   0  0  0  0  0  0  0  0  0  0  0  0
   -2.5448   -1.0064   -0.2171 O   0  0  0  0  0  0  0  0  0  0  0  0
   -1.2087   -1.5823   -3.2094 C   0  0  0  0  0  0  0  0  0  0  0  0
   -3.6915   -2.1888   -2.6360 H   0  0  0  0  0  0  0  0  0  0  0  0
   -1.0721   -3.2977   -1.9053 H   0  0  0  0  0  0  0  0  0  0  0  0
   -1.8017   -0.6681   -3.3281 H   0  0  0  0  0  0  0  0  0  0  0  0
   -0.1601   -1.2849   -3.1045 H   0  0  0  0  0  0  0  0  0  0  0  0
   -1.3074   -2.1646   -4.1319 H   0  0  0  0  0  0  0  0  0  0  0  0
   -0.2835   -1.5112   -0.2725 N   0  0  0  0  0  0  0  0  0  0  0  0
    0.0769   -0.7658    0.9424 C   0  0  0  0  0  0  0  0  0  0  0  0
    0.4260    0.6549    0.5791 C   0  0  0  0  0  0  0  0  0  0  0  0
   -0.4119    1.5008    0.2777 O   0  0  0  0  0  0  0  0  0  0  0  0
    0.4587   -2.0097   -0.7289 H   0  0  0  0  0  0  0  0  0  0  0  0
    0.9369   -1.2464    1.4181 H   0  0  0  0  0  0  0  0  0  0  0  0
   -0.7709   -0.7741    1.6337 H   0  0  0  0  0  0  0  0  0  0  0  0
    1.7988    0.8732    0.6274 N   0  0  0  0  0  0  0  0  0  0  0  0
    2.4124    2.1392    0.3242 C   0  0  2  0  0  0  0  0  0  0  0  0
    3.2132    2.5776    1.5433 C   0  0  0  0  0  0  0  0  0  0  0  0
    2.9854    2.1660    2.6790 O   0  0  0  0  0  0  0  0  0  0  0  0
    1.3714    3.1840   -0.0467 C   0  0  0  0  0  0  0  0  0  0  0  0
    2.4018    0.0957    0.8913 H   0  0  0  0  0  0  0  0  0  0  0  0
    3.0921    1.9678   -0.5176 H   0  0  0  0  0  0  0  0  0  0  0  0
    0.6813    3.3691    0.7846 H   0  0  0  0  0  0  0  0  0  0  0  0
    1.8417    4.1386   -0.3046 H   0  0  0  0  0  0  0  0  0  0  0  0
    0.7766    2.8538   -0.9051 H   0  0  0  0  0  0  0  0  0  0  0  0
    4.1842    3.5151    1.2203 N   0  0  0  0  0  0  0  0  0  0  0  0
    5.0664    4.0951    2.2058 C   0  0  0  0  0  0  0  0  0  0  0  0
    4.3154    3.7846    0.2497 H   0  0  0  0  0  0  0  0  0  0  0  0
    4.6287    5.0301    2.5856 H   0  0  0  0  0  0  0  0  0  0  0  0
    5.2009    3.3887    3.0383 H   0  0  0  0  0  0  0  0  0  0  0  0
    6.0420    4.3080    1.7444 H   0  0  0  0  0  0  0  0  0  0  0  0
  1  3  1  0  0  0  0
  1  7  1  0  0  0  0
  1  2  2  0  0  0  0
 18 19  1  0  0  0  0
 19 24  1  0  0  0  0
 19 20  2  0  0  0  0
 25 26  1  0  0  0  0
 26 34  1  0  0  0  0
 26 27  2  0  0  0  0
  8  9  1  0  0  0  0
  9 17  1  0  0  0  0
  9 10  2  0  0  0  0
 25 28  1  0  0  0  0
  8 11  1  0  0  0  0
 34 35  1  0  0  0  0
 17 18  1  0  0  0  0
 24 25  1  0  0  0  0
  7  8  1  0  0  0  0
  3  4  1  0  0  0  0
  3  5  1  0  0  0  0
  3  6  1  0  0  0  0
 28 31  1  0  0  0  0
 28 32  1  0  0  0  0
 28 33  1  0  0  0  0
 11 14  1  0  0  0  0
 11 15  1  0  0  0  0
 11 16  1  0  0  0  0
 35 37  1  0  0  0  0
 35 38  1  0  0  0  0
 35 39  1  0  0  0  0
 18 22  1  0  0  0  0
 18 23  1  0  0  0  0
 25 30  1  0  0  0  0
  8 13  1  0  0  0  0
 34 36  1  0  0  0  0
 17 21  1  0  0  0  0
  7 12  1  0  0  0  0
 24 29  1  0  0  0  0
M  END
$$$$

  -OEChem-05262214473D

 39 38  0     1  0  0  0  0  0999 V2000
   -3.5200   -4.0268   -1.6943 C   0  0  0  0  0  0  0  0  0  0  0  0
   -2.8702   -4.8827   -1.1054 O   0  0  0  0  0  0  0  0  0  0  0  0
   -4.9704   -4.2579   -1.9614 C   0  0  0  0  0  0  0  0  0  0  0  0
   -5.1456   -4.7573   -2.9278 H   0  0  0  0  0  0  0  0  0  0  0  0
   -5.4379   -4.9112   -1.2072 H   0  0  0  0  0  0  0  0  0  0  0  0
   -5.5954   -3.3510   -1.9864 H   0  0  0  0  0  0  0  0  0  0  0  0
   -3.0424   -2.8131   -2.1606 N   0  0  0  0  0  0  0  0  0  0  0  0
   -1.6755   -2.3891   -2.0077 C   0  0  2  0  0  0  0  0  0  0  0  0
   -1.5782   -1.5673   -0.7292 C   0  0  0  0  0  0  0  0  0  0  0  0
   -2.5448   -1.0064   -0.2171 O   0  0  0  0  0  0  0  0  0  0  0  0
   -1.2087   -1.5823   -3.2094 C   0  0  0  0  0  0  0  0  0  0  0  0
   -3.6915   -2.1888   -2.6360 H   0  0  0  0  0  0  0  0  0  0  0  0
   -1.0721   -3.2977   -1.9053 H   0  0  0  0  0  0  0  0  0  0  0  0
   -1.8017   -0.6681   -3.3281 H   0  0  0  0  0  0  0  0  0  0  0  0
   -0.1601   -1.2849   -3.1045 H   0  0  0  0  0  0  0  0  0  0  0  0
   -1.3074   -2.1646   -4.1319 H   0  0  0  0  0  0  0  0  0  0  0  0
   -0.2835   -1.5112   -0.2725 N   0  0  0  0  0  0  0  0  0  0  0  0
    0.0769   -0.7658    0.9424 C   0  0  0  0  0  0  0  0  0  0  0  0
    0.4260    0.6549    0.5791 C   0  0  0  0  0  0  0  0  0  0  0  0
   -0.3987    1.5640    0.5375 O   0  0  0  0  0  0  0  0  0  0  0  0
    0.4587   -2.0097   -0.7289 H   0  0  0  0  0  0  0  0  0  0  0  0
    0.9369   -1.2464    1.4181 H   0  0  0  0  0  0  0  0  0  0  0  0
   -0.7709   -0.7741    1.6337 H   0  0  0  0  0  0  0  0  0  0  0  0
    1.7814    0.7936    0.2998 N   0  0  0  0  0  0  0  0  0  0  0  0
    2.3903    2.0417   -0.0784 C   0  0  2  0  0  0  0  0  0  0  0  0
    3.4910    2.3519    0.9275 C   0  0  0  0  0  0  0  0  0  0  0  0
    3.5166    1.8775    2.0613 O   0  0  0  0  0  0  0  0  0  0  0  0
    1.3661    3.1647   -0.1269 C   0  0  0  0  0  0  0  0  0  0  0  0
    2.3746   -0.0318    0.3664 H   0  0  0  0  0  0  0  0  0  0  0  0
    2.8323    1.8905   -1.0692 H   0  0  0  0  0  0  0  0  0  0  0  0
    0.9123    3.3309    0.8569 H   0  0  0  0  0  0  0  0  0  0  0  0
    1.8254    4.1073   -0.4424 H   0  0  0  0  0  0  0  0  0  0  0  0
    0.5596    2.9267   -0.8289 H   0  0  0  0  0  0  0  0  0  0  0  0
    4.4179    3.2544    0.4251 N   0  0  0  0  0  0  0  0  0  0  0  0
    5.5507    3.7169    1.1925 C   0  0  0  0  0  0  0  0  0  0  0  0
    4.3288    3.5813   -0.5324 H   0  0  0  0  0  0  0  0  0  0  0  0
    5.2843    4.6467    1.7164 H   0  0  0  0  0  0  0  0  0  0  0  0
    5.8330    2.9495    1.9283 H   0  0  0  0  0  0  0  0  0  0  0  0
    6.3980    3.9066    0.5171 H   0  0  0  0  0  0  0  0  0  0  0  0
  1  3  1  0  0  0  0
  1  7  1  0  0  0  0
  1  2  2  0  0  0  0
 18 19  1  0  0  0  0
 19 24  1  0  0  0  0
 19 20  2  0  0  0  0
 25 26  1  0  0  0  0
 26 34  1  0  0  0  0
 26 27  2  0  0  0  0
  8  9  1  0  0  0  0
  9 17  1  0  0  0  0
  9 10  2  0  0  0  0
 25 28  1  0  0  0  0
  8 11  1  0  0  0  0
 34 35  1  0  0  0  0
 17 18  1  0  0  0  0
 24 25  1  0  0  0  0
  7  8  1  0  0  0  0
  3  4  1  0  0  0  0
  3  5  1  0  0  0  0
  3  6  1  0  0  0  0
 28 31  1  0  0  0  0
 28 32  1  0  0  0  0
 28 33  1  0  0  0  0
 11 14  1  0  0  0  0
 11 15  1  0  0  0  0
 11 16  1  0  0  0  0
 35 37  1  0  0  0  0
 35 38  1  0  0  0  0
 35 39  1  0  0  0  0
 18 22  1  0  0  0  0
 18 23  1  0  0  0  0
 25 30  1  0  0  0  0
  8 13  1  0  0  0  0
 34 36  1  0  0  0  0
 17 21  1  0  0  0  0
  7 12  1  0  0  0  0
 24 29  1  0  0  0  0
M  END
$$$$

  -OEChem-05262214473D

 39 38  0     1  0  0  0  0  0999 V2000
   -3.5200   -4.0268   -1.6943 C   0  0  0  0  0  0  0  0  0  0  0  0
   -2.8702   -4.8827   -1.1054 O   0  0  0  0  0  0  0  0  0  0  0  0
   -4.9704   -4.2579   -1.9614 C   0  0  0  0  0  0  0  0  0  0  0  0
   -5.1456   -4.7573   -2.9278 H   0  0  0  0  0  0  0  0  0  0  0  0
   -5.4379   -4.9112   -1.2072 H   0  0  0  0  0  0  0  0  0  0  0  0
   -5.5954   -3.3510   -1.9864 H   0  0  0  0  0  0  0  0  0  0  0  0
   -3.0424   -2.8131   -2.1606 N   0  0  0  0  0  0  0  0  0  0  0  0
   -1.6755   -2.3891   -2.0077 C   0  0  2  0  0  0  0  0  0  0  0  0
   -1.5782   -1.5673   -0.7292 C   0  0  0  0  0  0  0  0  0  0  0  0
   -2.5448   -1.0064   -0.2171 O   0  0  0  0  0  0  0  0  0  0  0  0
   -1.2087   -1.5823   -3.2094 C   0  0  0  0  0  0  0  0  0  0  0  0
   -3.6915   -2.1888   -2.6360 H   0  0  0  0  0  0  0  0  0  0  0  0
   -1.0721   -3.2977   -1.9053 H   0  0  0  0  0  0  0  0  0  0  0  0
   -1.8017   -0.6681   -3.3281 H   0  0  0  0  0  0  0  0  0  0  0  0
   -0.1601   -1.2849   -3.1045 H   0  0  0  0  0  0  0  0  0  0  0  0
   -1.3074   -2.1646   -4.1319 H   0  0  0  0  0  0  0  0  0  0  0  0
   -0.2835   -1.5112   -0.2725 N   0  0  0  0  0  0  0  0  0  0  0  0
    0.0769   -0.7658    0.9424 C   0  0  0  0  0  0  0  0  0  0  0  0
    0.4260    0.6549    0.5791 C   0  0  0  0  0  0  0  0  0  0  0  0
   -0.3187    1.6087    0.7891 O   0  0  0  0  0  0  0  0  0  0  0  0
    0.4587   -2.0097   -0.7289 H   0  0  0  0  0  0  0  0  0  0  0  0
    0.9369   -1.2464    1.4181 H   0  0  0  0  0  0  0  0  0  0  0  0
   -0.7709   -0.7741    1.6337 H   0  0  0  0  0  0  0  0  0  0  0  0
    1.6798    0.7375   -0.0172 N   0  0  0  0  0  0  0  0  0  0  0  0
    2.2647    1.9730   -0.4678 C   0  0  2  0  0  0  0  0  0  0  0  0
    3.5949    2.1534    0.2515 C   0  0  0  0  0  0  0  0  0  0  0  0
    3.8610    1.6027    1.3178 O   0  0  0  0  0  0  0  0  0  0  0  0
    1.3401    3.1513   -0.2043 C   0  0  0  0  0  0  0  0  0  0  0  0
    2.2123   -0.1219   -0.1417 H   0  0  0  0  0  0  0  0  0  0  0  0
    2.4421    1.8652   -1.5434 H   0  0  0  0  0  0  0  0  0  0  0  0
    1.1507    3.2751    0.8682 H   0  0  0  0  0  0  0  0  0  0  0  0
    1.7741    4.0865   -0.5734 H   0  0  0  0  0  0  0  0  0  0  0  0
    0.3731    3.0060   -0.6979 H   0  0  0  0  0  0  0  0  0  0  0  0
    4.4334    3.0355   -0.4155 N   0  0  0  0  0  0  0  0  0  0  0  0
    5.7477    3.3822    0.0728 C   0  0  0  0  0  0  0  0  0  0  0  0
    4.1382    3.4309   -1.3034 H   0  0  0  0  0  0  0  0  0  0  0  0
    5.6816    4.2876    0.6940 H   0  0  0  0  0  0  0  0  0  0  0  0
    6.1454    2.5524    0.6755 H   0  0  0  0  0  0  0  0  0  0  0  0
    6.4175    3.5703   -0.7792 H   0  0  0  0  0  0  0  0  0  0  0  0
  1  3  1  0  0  0  0
  1  7  1  0  0  0  0
  1  2  2  0  0  0  0
 18 19  1  0  0  0  0
 19 24  1  0  0  0  0
 19 20  2  0  0  0  0
 25 26  1  0  0  0  0
 26 34  1  0  0  0  0
 26 27  2  0  0  0  0
  8  9  1  0  0  0  0
  9 17  1  0  0  0  0
  9 10  2  0  0  0  0
 25 28  1  0  0  0  0
  8 11  1  0  0  0  0
 34 35  1  0  0  0  0
 17 18  1  0  0  0  0
 24 25  1  0  0  0  0
  7  8  1  0  0  0  0
  3  4  1  0  0  0  0
  3  5  1  0  0  0  0
  3  6  1  0  0  0  0
 28 31  1  0  0  0  0
 28 32  1  0  0  0  0
 28 33  1  0  0  0  0
 11 14  1  0  0  0  0
 11 15  1  0  0  0  0
 11 16  1  0  0  0  0
 35 37  1  0  0  0  0
 35 38  1  0  0  0  0
 35 39  1  0  0  0  0
 18 22  1  0  0  0  0
 18 23  1  0  0  0  0
 25 30  1  0  0  0  0
  8 13  1  0  0  0  0
 34 36  1  0  0  0  0
 17 21  1  0  0  0  0
  7 12  1  0  0  0  0
 24 29  1  0  0  0  0
M  END
$$$$

  -OEChem-05262214473D

 39 38  0     1  0  0  0  0  0999 V2000
   -3.5200   -4.0268   -1.6943 C   0  0  0  0  0  0  0  0  0  0  0  0
   -2.8702   -4.8827   -1.1054 O   0  0  0  0  0  0  0  0  0  0  0  0
   -4.9704   -4.2579   -1.9614 C   0  0  0  0  0  0  0  0  0  0  0  0
   -5.1456   -4.7573   -2.9278 H   0  0  0  0  0  0  0  0  0  0  0  0
   -5.4379   -4.9112   -1.2072 H   0  0  0  0  0  0  0  0  0  0  0  0
   -5.5954   -3.3510   -1.9864 H   0  0  0  0  0  0  0  0  0  0  0  0
   -3.0424   -2.8131   -2.1606 N   0  0  0  0  0  0  0  0  0  0  0  0
   -1.6755   -2.3891   -2.0077 C   0  0  2  0  0  0  0  0  0  0  0  0
   -1.5782   -1.5673   -0.7292 C   0  0  0  0  0  0  0  0  0  0  0  0
   -2.5448   -1.0064   -0.2171 O   0  0  0  0  0  0  0  0  0  0  0  0
   -1.2087   -1.5823   -3.2094 C   0  0  0  0  0  0  0  0  0  0  0  0
   -3.6915   -2.1888   -2.6360 H   0  0  0  0  0  0  0  0  0  0  0  0
   -1.0721   -3.2977   -1.9053 H   0  0  0  0  0  0  0  0  0  0  0  0
   -1.8017   -0.6681   -3.3281 H   0  0  0  0  0  0  0  0  0  0  0  0
   -0.1601   -1.2849   -3.1045 H   0  0  0  0  0  0  0  0  0  0  0  0
   -1.3074   -2.1646   -4.1319 H   0  0  0  0  0  0  0  0  0  0  0  0
   -0.2835   -1.5112   -0.2725 N   0  0  0  0  0  0  0  0  0  0  0  0
    0.0769   -0.7658    0.9424 C   0  0  0  0  0  0  0  0  0  0  0  0
    0.4260    0.6549    0.5791 C   0  0  0  0  0  0  0  0  0  0  0  0
   -0.1773    1.6317    1.0152 O   0  0  0  0  0  0  0  0  0  0  0  0
    0.4587   -2.0097   -0.7289 H   0  0  0  0  0  0  0  0  0  0  0  0
    0.9369   -1.2464    1.4181 H   0  0  0  0  0  0  0  0  0  0  0  0
   -0.7709   -0.7741    1.6337 H   0  0  0  0  0  0  0  0  0  0  0  0
    1.5008    0.7087   -0.3020 N   0  0  0  0  0  0  0  0  0  0  0  0
    2.0440    1.9378   -0.8174 C   0  0  2  0  0  0  0  0  0  0  0  0
    3.5181    1.9958   -0.4388 C   0  0  0  0  0  0  0  0  0  0  0  0
    3.9952    1.3604    0.4991 O   0  0  0  0  0  0  0  0  0  0  0  0
    1.2953    3.1446   -0.2736 C   0  0  0  0  0  0  0  0  0  0  0  0
    1.9260   -0.1683   -0.5982 H   0  0  0  0  0  0  0  0  0  0  0  0
    1.9478    1.8935   -1.9077 H   0  0  0  0  0  0  0  0  0  0  0  0
    1.3803    3.2058    0.8176 H   0  0  0  0  0  0  0  0  0  0  0  0
    1.6913    4.0773   -0.6887 H   0  0  0  0  0  0  0  0  0  0  0  0
    0.2299    3.0864   -0.5212 H   0  0  0  0  0  0  0  0  0  0  0  0
    4.2297    2.8736   -1.2445 N   0  0  0  0  0  0  0  0  0  0  0  0
    5.6440    3.1137   -1.0768 C   0  0  0  0  0  0  0  0  0  0  0  0
    3.7567    3.3438   -2.0106 H   0  0  0  0  0  0  0  0  0  0  0  0
    5.7936    3.9772   -0.4120 H   0  0  0  0  0  0  0  0  0  0  0  0
    6.1168    2.2244   -0.6345 H   0  0  0  0  0  0  0  0  0  0  0  0
    6.0991    3.3220   -2.0563 H   0  0  0  0  0  0  0  0  0  0  0  0
  1  3  1  0  0  0  0
  1  7  1  0  0  0  0
  1  2  2  0  0  0  0
 18 19  1  0  0  0  0
 19 24  1  0  0  0  0
 19 20  2  0  0  0  0
 25 26  1  0  0  0  0
 26 34  1  0  0  0  0
 26 27  2  0  0  0  0
  8  9  1  0  0  0  0
  9 17  1  0  0  0  0
  9 10  2  0  0  0  0
 25 28  1  0  0  0  0
  8 11  1  0  0  0  0
 34 35  1  0  0  0  0
 17 18  1  0  0  0  0
 24 25  1  0  0  0  0
  7  8  1  0  0  0  0
  3  4  1  0  0  0  0
  3  5  1  0  0  0  0
  3  6  1  0  0  0  0
 28 31  1  0  0  0  0
 28 32  1  0  0  0  0
 28 33  1  0  0  0  0
 11 14  1  0  0  0  0
 11 15  1  0  0  0  0
 11 16  1  0  0  0  0
 35 37  1  0  0  0  0
 35 38  1  0  0  0  0
 35 39  1  0  0  0  0
 18 22  1  0  0  0  0
 18 23  1  0  0  0  0
 25 30  1  0  0  0  0
  8 13  1  0  0  0  0
 34 36  1  0  0  0  0
 17 21  1  0  0  0  0
  7 12  1  0  0  0  0
 24 29  1  0  0  0  0
M  END
$$$$

  -OEChem-05262214473D

 39 38  0     1  0  0  0  0  0999 V2000
   -3.5200   -4.0268   -1.6943 C   0  0  0  0  0  0  0  0  0  0  0  0
   -2.8702   -4.8827   -1.1054 O   0  0  0  0  0  0  0  0  0  0  0  0
   -4.9704   -4.2579   -1.9614 C   0  0  0  0  0  0  0  0  0  0  0  0
   -5.1456   -4.7573   -2.9278 H   0  0  0  0  0  0  0  0  0  0  0  0
   -5.4379   -4.9112   -1.2072 H   0  0  0  0  0  0  0  0  0  0  0  0
   -5.5954   -3.3510   -1.9864 H   0  0  0  0  0  0  0  0  0  0  0  0
   -3.0424   -2.8131   -2.1606 N   0  0  0  0  0  0  0  0  0  0  0  0
   -1.6755   -2.3891   -2.0077 C   0  0  2  0  0  0  0  0  0  0  0  0
   -1.5782   -1.5673   -0.7292 C   0  0  0  0  0  0  0  0  0  0  0  0
   -2.5448   -1.0064   -0.2171 O   0  0  0  0  0  0  0  0  0  0  0  0
   -1.2087   -1.5823   -3.2094 C   0  0  0  0  0  0  0  0  0  0  0  0
   -3.6915   -2.1888   -2.6360 H   0  0  0  0  0  0  0  0  0  0  0  0
   -1.0721   -3.2977   -1.9053 H   0  0  0  0  0  0  0  0  0  0  0  0
   -1.8017   -0.6681   -3.3281 H   0  0  0  0  0  0  0  0  0  0  0  0
   -0.1601   -1.2849   -3.1045 H   0  0  0  0  0  0  0  0  0  0  0  0
   -1.3074   -2.1646   -4.1319 H   0  0  0  0  0  0  0  0  0  0  0  0
   -0.2835   -1.5112   -0.2725 N   0  0  0  0  0  0  0  0  0  0  0  0
    0.0769   -0.7658    0.9424 C   0  0  0  0  0  0  0  0  0  0  0  0
    0.4260    0.6549    0.5791 C   0  0  0  0  0  0  0  0  0  0  0  0
    0.0159    1.6317    1.2005 O   0  0  0  0  0  0  0  0  0  0  0  0
    0.4587   -2.0097   -0.7289 H   0  0  0  0  0  0  0  0  0  0  0  0
    0.9369   -1.2464    1.4181 H   0  0  0  0  0  0  0  0  0  0  0  0
   -0.7709   -0.7741    1.6337 H   0  0  0  0  0  0  0  0  0  0  0  0
    1.2567    0.7091   -0.5351 N   0  0  0  0  0  0  0  0  0  0  0  0
    1.7434    1.9385   -1.1033 C   0  0  2  0  0  0  0  0  0  0  0  0
    3.2656    1.8897   -1.0962 C   0  0  0  0  0  0  0  0  0  0  0  0
    3.9100    1.1670   -0.3389 O   0  0  0  0  0  0  0  0  0  0  0  0
    1.2348    3.1451   -0.3299 C   0  0  0  0  0  0  0  0  0  0  0  0
    1.5352   -0.1679   -0.9722 H   0  0  0  0  0  0  0  0  0  0  0  0
    1.3834    1.9735   -2.1373 H   0  0  0  0  0  0  0  0  0  0  0  0
    1.5853    3.1275    0.7085 H   0  0  0  0  0  0  0  0  0  0  0  0
    1.5826    4.0806   -0.7803 H   0  0  0  0  0  0  0  0  0  0  0  0
    0.1397    3.1624   -0.3107 H   0  0  0  0  0  0  0  0  0  0  0  0
    3.8206    2.7796   -2.0052 N   0  0  0  0  0  0  0  0  0  0  0  0
    5.2466    2.9297   -2.1780 C   0  0  0  0  0  0  0  0  0  0  0  0
    3.2103    3.3259   -2.6059 H   0  0  0  0  0  0  0  0  0  0  0  0
    5.6126    3.7367   -1.5263 H   0  0  0  0  0  0  0  0  0  0  0  0
    5.7491    1.9879   -1.9126 H   0  0  0  0  0  0  0  0  0  0  0  0
    5.4645    3.1785   -3.2271 H   0  0  0  0  0  0  0  0  0  0  0  0
  1  3  1  0  0  0  0
  1  7  1  0  0  0  0
  1  2  2  0  0  0  0
 18 19  1  0  0  0  0
 19 24  1  0  0  0  0
 19 20  2  0  0  0  0
 25 26  1  0  0  0  0
 26 34  1  0  0  0  0
 26 27  2  0  0  0  0
  8  9  1  0  0  0  0
  9 17  1  0  0  0  0
  9 10  2  0  0  0  0
 25 28  1  0  0  0  0
  8 11  1  0  0  0  0
 34 35  1  0  0  0  0
 17 18  1  0  0  0  0
 24 25  1  0  0  0  0
  7  8  1  0  0  0  0
  3  4  1  0  0  0  0
  3  5  1  0  0  0  0
  3  6  1  0  0  0  0
 28 31  1  0  0  0  0
 28 32  1  0  0  0  0
 28 33  1  0  0  0  0
 11 14  1  0  0  0  0
 11 15  1  0  0  0  0
 11 16  1  0  0  0  0
 35 37  1  0  0  0  0
 35 38  1  0  0  0  0
 35 39  1  0  0  0  0
 18 22  1  0  0  0  0
 18 23  1  0  0  0  0
 25 30  1  0  0  0  0
  8 13  1  0  0  0  0
 34 36  1  0  0  0  0
 17 21  1  0  0  0  0
  7 12  1  0  0  0  0
 24 29  1  0  0  0  0
M  END
$$$$

  -OEChem-05262214473D

 39 38  0     1  0  0  0  0  0999 V2000
   -3.5200   -4.0268   -1.6943 C   0  0  0  0  0  0  0  0  0  0  0  0
   -2.8702   -4.8827   -1.1054 O   0  0  0  0  0  0  0  0  0  0  0  0
   -4.9704   -4.2579   -1.9614 C   0  0  0  0  0  0  0  0  0  0  0  0
   -5.1456   -4.7573   -2.9278 H   0  0  0  0  0  0  0  0  0  0  0  0
   -5.4379   -4.9112   -1.2072 H   0  0  0  0  0  0  0  0  0  0  0  0
   -5.5954   -3.3510   -1.9864 H   0  0  0  0  0  0  0  0  0  0  0  0
   -3.0424   -2.8131   -2.1606 N   0  0  0  0  0  0  0  0  0  0  0  0
   -1.6755   -2.3891   -2.0077 C   0  0  2  0  0  0  0  0  0  0  0  0
   -1.5782   -1.5673   -0.7292 C   0  0  0  0  0  0  0  0  0  0  0  0
   -2.5448   -1.0064   -0.2171 O   0  0  0  0  0  0  0  0  0  0  0  0
   -1.2087   -1.5823   -3.2094 C   0  0  0  0  0  0  0  0  0  0  0  0
   -3.6915   -2.1888   -2.6360 H   0  0  0  0  0  0  0  0  0  0  0  0
   -1.0721   -3.2977   -1.9053 H   0  0  0  0  0  0  0  0  0  0  0  0
   -1.8017   -0.6681   -3.3281 H   0  0  0  0  0  0  0  0  0  0  0  0
   -0.1601   -1.2849   -3.1045 H   0  0  0  0  0  0  0  0  0  0  0  0
   -1.3074   -2.1646   -4.1319 H   0  0  0  0  0  0  0  0  0  0  0  0
   -0.2835   -1.5112   -0.2725 N   0  0  0  0  0  0  0  0  0  0  0  0
    0.0769   -0.7658    0.9424 C   0  0  0  0  0  0  0  0  0  0  0  0
    0.4260    0.6549    0.5791 C   0  0  0  0  0  0  0  0  0  0  0  0
    0.2477    1.6084    1.3324 O   0  0  0  0  0  0  0  0  0  0  0  0
    0.4587   -2.0097   -0.7289 H   0  0  0  0  0  0  0  0  0  0  0  0
    0.9369   -1.2464    1.4181 H   0  0  0  0  0  0  0  0  0  0  0  0
   -0.7709   -0.7741    1.6337 H   0  0  0  0  0  0  0  0  0  0  0  0
    0.9640    0.7387   -0.7007 N   0  0  0  0  0  0  0  0  0  0  0  0
    1.3834    1.9752   -1.3062 C   0  0  2  0  0  0  0  0  0  0  0  0
    2.8548    1.8424   -1.6761 C   0  0  0  0  0  0  0  0  0  0  0  0
    3.6113    1.0358   -1.1392 O   0  0  0  0  0  0  0  0  0  0  0  0
    1.1625    3.1527   -0.3695 C   0  0  0  0  0  0  0  0  0  0  0  0
    1.0666   -0.1207   -1.2380 H   0  0  0  0  0  0  0  0  0  0  0  0
    0.7871    2.0997   -2.2166 H   0  0  0  0  0  0  0  0  0  0  0  0
    1.7519    3.0456    0.5484 H   0  0  0  0  0  0  0  0  0  0  0  0
    1.4555    4.0960   -0.8422 H   0  0  0  0  0  0  0  0  0  0  0  0
    0.1087    3.2288   -0.0809 H   0  0  0  0  0  0  0  0  0  0  0  0
    3.2340    2.7600   -2.6458 N   0  0  0  0  0  0  0  0  0  0  0  0
    4.5827    2.8428   -3.1558 C   0  0  0  0  0  0  0  0  0  0  0  0
    2.5361    3.3783   -3.0487 H   0  0  0  0  0  0  0  0  0  0  0  0
    5.1510    3.5825   -2.5728 H   0  0  0  0  0  0  0  0  0  0  0  0
    5.0675    1.8590   -3.0716 H   0  0  0  0  0  0  0  0  0  0  0  0
    4.5571    3.1497   -4.2118 H   0  0  0  0  0  0  0  0  0  0  0  0
  1  3  1  0  0  0  0
  1  7  1  0  0  0  0
  1  2  2  0  0  0  0
 18 19  1  0  0  0  0
 19 24  1  0  0  0  0
 19 20  2  0  0  0  0
 25 26  1  0  0  0  0
 26 34  1  0  0  0  0
 26 27  2  0  0  0  0
  8  9  1  0  0  0  0
  9 17  1  0  0  0  0
  9 10  2  0  0  0  0
 25 28  1  0  0  0  0
  8 11  1  0  0  0  0
 34 35  1  0  0  0  0
 17 18  1  0  0  0  0
 24 25  1  0  0  0  0
  7  8  1  0  0  0  0
  3  4  1  0  0  0  0
  3  5  1  0  0  0  0
  3  6  1  0  0  0  0
 28 31  1  0  0  0  0
 28 32  1  0  0  0  0
 28 33  1  0  0  0  0
 11 14  1  0  0  0  0
 11 15  1  0  0  0  0
 11 16  1  0  0  0  0
 35 37  1  0  0  0  0
 35 38  1  0  0  0  0
 35 39  1  0  0  0  0
 18 22  1  0  0  0  0
 18 23  1  0  0  0  0
 25 30  1  0  0  0  0
  8 13  1  0  0  0  0
 34 36  1  0  0  0  0
 17 21  1  0  0  0  0
  7 12  1  0  0  0  0
 24 29  1  0  0  0  0
M  END
$$$$

  -OEChem-05262214473D

 39 38  0     1  0  0  0  0  0999 V2000
   -3.5200   -4.0268   -1.6943 C   0  0  0  0  0  0  0  0  0  0  0  0
   -2.8702   -4.8827   -1.1054 O   0  0  0  0  0  0  0  0  0  0  0  0
   -4.9704   -4.2579   -1.9614 C   0  0  0  0  0  0  0  0  0  0  0  0
   -5.1456   -4.7573   -2.9278 H   0  0  0  0  0  0  0  0  0  0  0  0
   -5.4379   -4.9112   -1.2072 H   0  0  0  0  0  0  0  0  0  0  0  0
   -5.5954   -3.3510   -1.9864 H   0  0  0  0  0  0  0  0  0  0  0  0
   -3.0424   -2.8131   -2.1606 N   0  0  0  0  0  0  0  0  0  0  0  0
   -1.6755   -2.3891   -2.0077 C   0  0  2  0  0  0  0  0  0  0  0  0
   -1.5782   -1.5673   -0.7292 C   0  0  0  0  0  0  0  0  0  0  0  0
   -2.5448   -1.0064   -0.2171 O   0  0  0  0  0  0  0  0  0  0  0  0
   -1.2087   -1.5823   -3.2094 C   0  0  0  0  0  0  0  0  0  0  0  0
   -3.6915   -2.1888   -2.6360 H   0  0  0  0  0  0  0  0  0  0  0  0
   -1.0721   -3.2977   -1.9053 H   0  0  0  0  0  0  0  0  0  0  0  0
   -1.8017   -0.6681   -3.3281 H   0  0  0  0  0  0  0  0  0  0  0  0
   -0.1601   -1.2849   -3.1045 H   0  0  0  0  0  0  0  0  0  0  0  0
   -1.3074   -2.1646   -4.1319 H   0  0  0  0  0  0  0  0  0  0  0  0
   -0.2835   -1.5112   -0.2725 N   0  0  0  0  0  0  0  0  0  0  0  0
    0.0769   -0.7658    0.9424 C   0  0  0  0  0  0  0  0  0  0  0  0
    0.4260    0.6549    0.5791 C   0  0  0  0  0  0  0  0  0  0  0  0
    0.5024    1.5636    1.4018 O   0  0  0  0  0  0  0  0  0  0  0  0
    0.4587   -2.0097   -0.7289 H   0  0  0  0  0  0  0  0  0  0  0  0
    0.9369   -1.2464    1.4181 H   0  0  0  0  0  0  0  0  0  0  0  0
   -0.7709   -0.7741    1.6337 H   0  0  0  0  0  0  0  0  0  0  0  0
    0.6427    0.7954   -0.7875 N   0  0  0  0  0  0  0  0  0  0  0  0
    0.9884    2.0451   -1.4121 C   0  0  2  0  0  0  0  0  0  0  0  0
    2.3136    1.8570   -2.1388 C   0  0  0  0  0  0  0  0  0  0  0  0
    3.1193    0.9756   -1.8472 O   0  0  0  0  0  0  0  0  0  0  0  0
    1.0836    3.1670   -0.3897 C   0  0  0  0  0  0  0  0  0  0  0  0
    0.5520   -0.0299   -1.3777 H   0  0  0  0  0  0  0  0  0  0  0  0
    0.1997    2.2636   -2.1402 H   0  0  0  0  0  0  0  0  0  0  0  0
    1.8686    2.9658    0.3483 H   0  0  0  0  0  0  0  0  0  0  0  0
    1.3186    4.1226   -0.8700 H   0  0  0  0  0  0  0  0  0  0  0  0
    0.1389    3.2811    0.1527 H   0  0  0  0  0  0  0  0  0  0  0  0
    2.5099    2.8160   -3.1227 N   0  0  0  0  0  0  0  0  0  0  0  0
    3.6975    2.8589   -3.9436 C   0  0  0  0  0  0  0  0  0  0  0  0
    1.7802    3.4976   -3.3088 H   0  0  0  0  0  0  0  0  0  0  0  0
    4.4402    3.5251   -3.4803 H   0  0  0  0  0  0  0  0  0  0  0  0
    4.1183    1.8465   -4.0326 H   0  0  0  0  0  0  0  0  0  0  0  0
    3.4385    3.2375   -4.9433 H   0  0  0  0  0  0  0  0  0  0  0  0
  1  3  1  0  0  0  0
  1  7  1  0  0  0  0
  1  2  2  0  0  0  0
 18 19  1  0  0  0  0
 19 24  1  0  0  0  0
 19 20  2  0  0  0  0
 25 26  1  0  0  0  0
 26 34  1  0  0  0  0
 26 27  2  0  0  0  0
  8  9  1  0  0  0  0
  9 17  1  0  0  0  0
  9 10  2  0  0  0  0
 25 28  1  0  0  0  0
  8 11  1  0  0  0  0
 34 35  1  0  0  0  0
 17 18  1  0  0  0  0
 24 25  1  0  0  0  0
  7  8  1  0  0  0  0
  3  4  1  0  0  0  0
  3  5  1  0  0  0  0
  3  6  1  0  0  0  0
 28 31  1  0  0  0  0
 28 32  1  0  0  0  0
 28 33  1  0  0  0  0
 11 14  1  0  0  0  0
 11 15  1  0  0  0  0
 11 16  1  0  0  0  0
 35 37  1  0  0  0  0
 35 38  1  0  0  0  0
 35 39  1  0  0  0  0
 18 22  1  0  0  0  0
 18 23  1  0  0  0  0
 25 30  1  0  0  0  0
  8 13  1  0  0  0  0
 34 36  1  0  0  0  0
 17 21  1  0  0  0  0
  7 12  1  0  0  0  0
 24 29  1  0  0  0  0
M  END
$$$$

  -OEChem-05262214473D

 39 38  0     1  0  0  0  0  0999 V2000
   -3.5200   -4.0268   -1.6943 C   0  0  0  0  0  0  0  0  0  0  0  0
   -2.8702   -4.8827   -1.1054 O   0  0  0  0  0  0  0  0  0  0  0  0
   -4.9704   -4.2579   -1.9614 C   0  0  0  0  0  0  0  0  0  0  0  0
   -5.1456   -4.7573   -2.9278 H   0  0  0  0  0  0  0  0  0  0  0  0
   -5.4379   -4.9112   -1.2072 H   0  0  0  0  0  0  0  0  0  0  0  0
   -5.5954   -3.3510   -1.9864 H   0  0  0  0  0  0  0  0  0  0  0  0
   -3.0424   -2.8131   -2.1606 N   0  0  0  0  0  0  0  0  0  0  0  0
   -1.6755   -2.3891   -2.0077 C   0  0  2  0  0  0  0  0  0  0  0  0
   -1.5782   -1.5673   -0.7292 C   0  0  0  0  0  0  0  0  0  0  0  0
   -2.5448   -1.0064   -0.2171 O   0  0  0  0  0  0  0  0  0  0  0  0
   -1.2087   -1.5823   -3.2094 C   0  0  0  0  0  0  0  0  0  0  0  0
   -3.6915   -2.1888   -2.6360 H   0  0  0  0  0  0  0  0  0  0  0  0
   -1.0721   -3.2977   -1.9053 H   0  0  0  0  0  0  0  0  0  0  0  0
   -1.8017   -0.6681   -3.3281 H   0  0  0  0  0  0  0  0  0  0  0  0
   -0.1601   -1.2849   -3.1045 H   0  0  0  0  0  0  0  0  0  0  0  0
   -1.3074   -2.1646   -4.1319 H   0  0  0  0  0  0  0  0  0  0  0  0
   -0.2835   -1.5112   -0.2725 N   0  0  0  0  0  0  0  0  0  0  0  0
    0.0769   -0.7658    0.9424 C   0  0  0  0  0  0  0  0  0  0  0  0
    0.4260    0.6549    0.5791 C   0  0  0  0  0  0  0  0  0  0  0  0
    0.7625    1.5002    1.4041 O   0  0  0  0  0  0  0  0  0  0  0  0
    0.4587   -2.0097   -0.7289 H   0  0  0  0  0  0  0  0  0  0  0  0
    0.9369   -1.2464    1.4181 H   0  0  0  0  0  0  0  0  0  0  0  0
   -0.7709   -0.7741    1.6337 H   0  0  0  0  0  0  0  0  0  0  0  0
    0.3148    0.8755   -0.7896 N   0  0  0  0  0  0  0  0  0  0  0  0
    0.5854    2.1437   -1.4138 C   0  0  2  0  0  0  0  0  0  0  0  0
    1.6788    1.9327   -2.4528 C   0  0  0  0  0  0  0  0  0  0  0  0
    2.4676    0.9907   -2.4147 O   0  0  0  0  0  0  0  0  0  0  0  0
    1.0033    3.1868   -0.3891 C   0  0  0  0  0  0  0  0  0  0  0  0
    0.0265    0.0982   -1.3816 H   0  0  0  0  0  0  0  0  0  0  0  0
   -0.3388    2.4540   -1.9133 H   0  0  0  0  0  0  0  0  0  0  0  0
    1.9276    2.8933    0.1217 H   0  0  0  0  0  0  0  0  0  0  0  0
    1.1812    4.1584   -0.8619 H   0  0  0  0  0  0  0  0  0  0  0  0
    0.2283    3.3157    0.3741 H   0  0  0  0  0  0  0  0  0  0  0  0
    1.6977    2.9438   -3.4033 N   0  0  0  0  0  0  0  0  0  0  0  0
    2.6513    2.9769   -4.4876 C   0  0  0  0  0  0  0  0  0  0  0  0
    0.9940    3.6755   -3.3685 H   0  0  0  0  0  0  0  0  0  0  0  0
    3.5286    3.5684   -4.1870 H   0  0  0  0  0  0  0  0  0  0  0  0
    2.9663    1.9512   -4.7300 H   0  0  0  0  0  0  0  0  0  0  0  0
    2.1851    3.4360   -5.3718 H   0  0  0  0  0  0  0  0  0  0  0  0
  1  3  1  0  0  0  0
  1  7  1  0  0  0  0
  1  2  2  0  0  0  0
 18 19  1  0  0  0  0
 19 24  1  0  0  0  0
 19 20  2  0  0  0  0
 25 26  1  0  0  0  0
 26 34  1  0  0  0  0
 26 27  2  0  0  0  0
  8  9  1  0  0  0  0
  9 17  1  0  0  0  0
  9 10  2  0  0  0  0
 25 28  1  0  0  0  0
  8 11  1  0  0  0  0
 34 35  1  0  0  0  0
 17 18  1  0  0  0  0
 24 25  1  0  0  0  0
  7  8  1  0  0  0  0
  3  4  1  0  0  0  0
  3  5  1  0  0  0  0
  3  6  1  0  0  0  0
 28 31  1  0  0  0  0
 28 32  1  0  0  0  0
 28 33  1  0  0  0  0
 11 14  1  0  0  0  0
 11 15  1  0  0  0  0
 11 16  1  0  0  0  0
 35 37  1  0  0  0  0
 35 38  1  0  0  0  0
 35 39  1  0  0  0  0
 18 22  1  0  0  0  0
 18 23  1  0  0  0  0
 25 30  1  0  0  0  0
  8 13  1  0  0  0  0
 34 36  1  0  0  0  0
 17 21  1  0  0  0  0
  7 12  1  0  0  0  0
 24 29  1  0  0  0  0
M  END
$$$$

  -OEChem-05262214473D

 39 38  0     1  0  0  0  0  0999 V2000
   -3.5200   -4.0268   -1.6943 C   0  0  0  0  0  0  0  0  0  0  0  0
   -2.8702   -4.8827   -1.1054 O   0  0  0  0  0  0  0  0  0  0  0  0
   -4.9704   -4.2579   -1.9614 C   0  0  0  0  0  0  0  0  0  0  0  0
   -5.1456   -4.7573   -2.9278 H   0  0  0  0  0  0  0  0  0  0  0  0
   -5.4379   -4.9112   -1.2072 H   0  0  0  0  0  0  0  0  0  0  0  0
   -5.5954   -3.3510   -1.9864 H   0  0  0  0  0  0  0  0  0  0  0  0
   -3.0424   -2.8131   -2.1606 N   0  0  0  0  0  0  0  0  0  0  0  0
   -1.6755   -2.3891   -2.0077 C   0  0  2  0  0  0  0  0  0  0  0  0
   -1.5782   -1.5673   -0.7292 C   0  0  0  0  0  0  0  0  0  0  0  0
   -2.5448   -1.0064   -0.2171 O   0  0  0  0  0  0  0  0  0  0  0  0
   -1.2087   -1.5823   -3.2094 C   0  0  0  0  0  0  0  0  0  0  0  0
   -3.6915   -2.1888   -2.6360 H   0  0  0  0  0  0  0  0  0  0  0  0
   -1.0721   -3.2977   -1.9053 H   0  0  0  0  0  0  0  0  0  0  0  0
   -1.8017   -0.6681   -3.3281 H   0  0  0  0  0  0  0  0  0  0  0  0
   -0.1601   -1.2849   -3.1045 H   0  0  0  0  0  0  0  0  0  0  0  0
   -1.3074   -2.1646   -4.1319 H   0  0  0  0  0  0  0  0  0  0  0  0
   -0.2835   -1.5112   -0.2725 N   0  0  0  0  0  0  0  0  0  0  0  0
    0.0769   -0.7658    0.9424 C   0  0  0  0  0  0  0  0  0  0  0  0
    0.4260    0.6549    0.5791 C   0  0  0  0  0  0  0  0  0  0  0  0
    1.0103    1.4227    1.3390 O   0  0  0  0  0  0  0  0  0  0  0  0
    0.4587   -2.0097   -0.7289 H   0  0  0  0  0  0  0  0  0  0  0  0
    0.9369   -1.2464    1.4181 H   0  0  0  0  0  0  0  0  0  0  0  0
   -0.7709   -0.7741    1.6337 H   0  0  0  0  0  0  0  0  0  0  0  0
    0.0025    0.9734   -0.7068 N   0  0  0  0  0  0  0  0  0  0  0  0
    0.2019    2.2642   -1.3113 C   0  0  2  0  0  0  0  0  0  0  0  0
    0.9939    2.0643   -2.5968 C   0  0  0  0  0  0  0  0  0  0  0  0
    1.7006    1.0799   -2.8029 O   0  0  0  0  0  0  0  0  0  0  0  0
    0.9271    3.2110   -0.3678 C   0  0  0  0  0  0  0  0  0  0  0  0
   -0.4740    0.2550   -1.2495 H   0  0  0  0  0  0  0  0  0  0  0  0
   -0.7918    2.6579   -1.5514 H   0  0  0  0  0  0  0  0  0  0  0  0
    1.9248    2.8332   -0.1159 H   0  0  0  0  0  0  0  0  0  0  0  0
    1.0527    4.2011   -0.8183 H   0  0  0  0  0  0  0  0  0  0  0  0
    0.3708    3.3304    0.5682 H   0  0  0  0  0  0  0  0  0  0  0  0
    0.8526    3.1348   -3.4686 N   0  0  0  0  0  0  0  0  0  0  0  0
    1.5154    3.1887   -4.7508 C   0  0  0  0  0  0  0  0  0  0  0  0
    0.2312    3.9000   -3.2238 H   0  0  0  0  0  0  0  0  0  0  0  0
    2.4785    3.7095   -4.6446 H   0  0  0  0  0  0  0  0  0  0  0  0
    1.6899    2.1661   -5.1164 H   0  0  0  0  0  0  0  0  0  0  0  0
    0.8823    3.7316   -5.4681 H   0  0  0  0  0  0  0  0  0  0  0  0
  1  3  1  0  0  0  0
  1  7  1  0  0  0  0
  1  2  2  0  0  0  0
 18 19  1  0  0  0  0
 19 24  1  0  0  0  0
 19 20  2  0  0  0  0
 25 26  1  0  0  0  0
 26 34  1  0  0  0  0
 26 27  2  0  0  0  0
  8  9  1  0  0  0  0
  9 17  1  0  0  0  0
  9 10  2  0  0  0  0
 25 28  1  0  0  0  0
  8 11  1  0  0  0  0
 34 35  1  0  0  0  0
 17 18  1  0  0  0  0
 24 25  1  0  0  0  0
  7  8  1  0  0  0  0
  3  4  1  0  0  0  0
  3  5  1  0  0  0  0
  3  6  1  0  0  0  0
 28 31  1  0  0  0  0
 28 32  1  0  0  0  0
 28 33  1  0  0  0  0
 11 14  1  0  0  0  0
 11 15  1  0  0  0  0
 11 16  1  0  0  0  0
 35 37  1  0  0  0  0
 35 38  1  0  0  0  0
 35 39  1  0  0  0  0
 18 22  1  0  0  0  0
 18 23  1  0  0  0  0
 25 30  1  0  0  0  0
  8 13  1  0  0  0  0
 34 36  1  0  0  0  0
 17 21  1  0  0  0  0
  7 12  1  0  0  0  0
 24 29  1  0  0  0  0
M  END
$$$$

  -OEChem-05262214473D

 39 38  0     1  0  0  0  0  0999 V2000
   -3.5200   -4.0268   -1.6943 C   0  0  0  0  0  0  0  0  0  0  0  0
   -2.8702   -4.8827   -1.1054 O   0  0  0  0  0  0  0  0  0  0  0  0
   -4.9704   -4.2579   -1.9614 C   0  0  0  0  0  0  0  0  0  0  0  0
   -5.1456   -4.7573   -2.9278 H   0  0  0  0  0  0  0  0  0  0  0  0
   -5.4379   -4.9112   -1.2072 H   0  0  0  0  0  0  0  0  0  0  0  0
   -5.5954   -3.3510   -1.9864 H   0  0  0  0  0  0  0  0  0  0  0  0
   -3.0424   -2.8131   -2.1606 N   0  0  0  0  0  0  0  0  0  0  0  0
   -1.6755   -2.3891   -2.0077 C   0  0  2  0  0  0  0  0  0  0  0  0
   -1.5782   -1.5673   -0.7292 C   0  0  0  0  0  0  0  0  0  0  0  0
   -2.5448   -1.0064   -0.2171 O   0  0  0  0  0  0  0  0  0  0  0  0
   -1.2087   -1.5823   -3.2094 C   0  0  0  0  0  0  0  0  0  0  0  0
   -3.6915   -2.1888   -2.6360 H   0  0  0  0  0  0  0  0  0  0  0  0
   -1.0721   -3.2977   -1.9053 H   0  0  0  0  0  0  0  0  0  0  0  0
   -1.8017   -0.6681   -3.3281 H   0  0  0  0  0  0  0  0  0  0  0  0
   -0.1601   -1.2849   -3.1045 H   0  0  0  0  0  0  0  0  0  0  0  0
   -1.3074   -2.1646   -4.1319 H   0  0  0  0  0  0  0  0  0  0  0  0
   -0.2835   -1.5112   -0.2725 N   0  0  0  0  0  0  0  0  0  0  0  0
    0.0769   -0.7658    0.9424 C   0  0  0  0  0  0  0  0  0  0  0  0
    0.4260    0.6549    0.5791 C   0  0  0  0  0  0  0  0  0  0  0  0
    1.2290    1.3362    1.2111 O   0  0  0  0  0  0  0  0  0  0  0  0
    0.4587   -2.0097   -0.7289 H   0  0  0  0  0  0  0  0  0  0  0  0
    0.9369   -1.2464    1.4181 H   0  0  0  0  0  0  0  0  0  0  0  0
   -0.7709   -0.7741    1.6337 H   0  0  0  0  0  0  0  0  0  0  0  0
   -0.2728    1.0825   -0.5448 N   0  0  0  0  0  0  0  0  0  0  0  0
   -0.1361    2.3984   -1.1115 C   0  0  2  0  0  0  0  0  0  0  0  0
    0.3053    2.2427   -2.5608 C   0  0  0  0  0  0  0  0  0  0  0  0
    0.8706    1.2371   -2.9855 O   0  0  0  0  0  0  0  0  0  0  0  0
    0.8603    3.2379   -0.3271 C   0  0  0  0  0  0  0  0  0  0  0  0
   -0.9155    0.4298   -0.9904 H   0  0  0  0  0  0  0  0  0  0  0  0
   -1.1283    2.8614   -1.0791 H   0  0  0  0  0  0  0  0  0  0  0  0
    1.8603    2.7896   -0.3483 H   0  0  0  0  0  0  0  0  0  0  0  0
    0.9419    4.2478   -0.7424 H   0  0  0  0  0  0  0  0  0  0  0  0
    0.5568    3.3239    0.7218 H   0  0  0  0  0  0  0  0  0  0  0  0
    0.0324    3.3759   -3.3141 N   0  0  0  0  0  0  0  0  0  0  0  0
    0.3672    3.4800   -4.7152 C   0  0  0  0  0  0  0  0  0  0  0  0
   -0.4563    4.1558   -2.8844 H   0  0  0  0  0  0  0  0  0  0  0  0
    1.3613    3.9387   -4.8221 H   0  0  0  0  0  0  0  0  0  0  0  0
    0.3762    2.4764   -5.1655 H   0  0  0  0  0  0  0  0  0  0  0  0
   -0.3812    4.1041   -5.2255 H   0  0  0  0  0  0  0  0  0  0  0  0
  1  3  1  0  0  0  0
  1  7  1  0  0  0  0
  1  2  2  0  0  0  0
 18 19  1  0  0  0  0
 19 24  1  0  0  0  0
 19 20  2  0  0  0  0
 25 26  1  0  0  0  0
 26 34  1  0  0  0  0
 26 27  2  0  0  0  0
  8  9  1  0  0  0  0
  9 17  1  0  0  0  0
  9 10  2  0  0  0  0
 25 28  1  0  0  0  0
  8 11  1  0  0  0  0
 34 35  1  0  0  0  0
 17 18  1  0  0  0  0
 24 25  1  0  0  0  0
  7  8  1  0  0  0  0
  3  4  1  0  0  0  0
  3  5  1  0  0  0  0
  3  6  1  0  0  0  0
 28 31  1  0  0  0  0
 28 32  1  0  0  0  0
 28 33  1  0  0  0  0
 11 14  1  0  0  0  0
 11 15  1  0  0  0  0
 11 16  1  0  0  0  0
 35 37  1  0  0  0  0
 35 38  1  0  0  0  0
 35 39  1  0  0  0  0
 18 22  1  0  0  0  0
 18 23  1  0  0  0  0
 25 30  1  0  0  0  0
  8 13  1  0  0  0  0
 34 36  1  0  0  0  0
 17 21  1  0  0  0  0
  7 12  1  0  0  0  0
 24 29  1  0  0  0  0
M  END
$$$$

  -OEChem-05262214473D

 39 38  0     1  0  0  0  0  0999 V2000
   -3.5200   -4.0268   -1.6943 C   0  0  0  0  0  0  0  0  0  0  0  0
   -2.8702   -4.8827   -1.1054 O   0  0  0  0  0  0  0  0  0  0  0  0
   -4.9704   -4.2579   -1.9614 C   0  0  0  0  0  0  0  0  0  0  0  0
   -5.1456   -4.7573   -2.9278 H   0  0  0  0  0  0  0  0  0  0  0  0
   -5.4379   -4.9112   -1.2072 H   0  0  0  0  0  0  0  0  0  0  0  0
   -5.5954   -3.3510   -1.9864 H   0  0  0  0  0  0  0  0  0  0  0  0
   -3.0424   -2.8131   -2.1606 N   0  0  0  0  0  0  0  0  0  0  0  0
   -1.6755   -2.3891   -2.0077 C   0  0  2  0  0  0  0  0  0  0  0  0
   -1.5782   -1.5673   -0.7292 C   0  0  0  0  0  0  0  0  0  0  0  0
   -2.5448   -1.0064   -0.2171 O   0  0  0  0  0  0  0  0  0  0  0  0
   -1.2087   -1.5823   -3.2094 C   0  0  0  0  0  0  0  0  0  0  0  0
   -3.6915   -2.1888   -2.6360 H   0  0  0  0  0  0  0  0  0  0  0  0
   -1.0721   -3.2977   -1.9053 H   0  0  0  0  0  0  0  0  0  0  0  0
   -1.8017   -0.6681   -3.3281 H   0  0  0  0  0  0  0  0  0  0  0  0
   -0.1601   -1.2849   -3.1045 H   0  0  0  0  0  0  0  0  0  0  0  0
   -1.3074   -2.1646   -4.1319 H   0  0  0  0  0  0  0  0  0  0  0  0
   -0.2835   -1.5112   -0.2725 N   0  0  0  0  0  0  0  0  0  0  0  0
    0.0769   -0.7658    0.9424 C   0  0  0  0  0  0  0  0  0  0  0  0
    0.4260    0.6549    0.5791 C   0  0  0  0  0  0  0  0  0  0  0  0
    1.4037    1.2467    1.0290 O   0  0  0  0  0  0  0  0  0  0  0  0
    0.4587   -2.0097   -0.7289 H   0  0  0  0  0  0  0  0  0  0  0  0
    0.9369   -1.2464    1.4181 H   0  0  0  0  0  0  0  0  0  0  0  0
   -0.7709   -0.7741    1.6337 H   0  0  0  0  0  0  0  0  0  0  0  0
   -0.4925    1.1954   -0.3146 N   0  0  0  0  0  0  0  0  0  0  0  0
   -0.4054    2.5370   -0.8281 C   0  0  2  0  0  0  0  0  0  0  0  0
   -0.3399    2.4558   -2.3475 C   0  0  0  0  0  0  0  0  0  0  0  0
    0.0342    1.4518   -2.9500 O   0  0  0  0  0  0  0  0  0  0  0  0
    0.8073    3.2655   -0.2699 C   0  0  0  0  0  0  0  0  0  0  0  0
   -1.2678    0.6106   -0.6220 H   0  0  0  0  0  0  0  0  0  0  0  0
   -1.3255    3.0506   -0.5285 H   0  0  0  0  0  0  0  0  0  0  0  0
    1.7387    2.7655   -0.5597 H   0  0  0  0  0  0  0  0  0  0  0  0
    0.8563    4.2952   -0.6392 H   0  0  0  0  0  0  0  0  0  0  0  0
    0.7735    3.2969    0.8244 H   0  0  0  0  0  0  0  0  0  0  0  0
   -0.7072    3.6507   -2.9503 N   0  0  0  0  0  0  0  0  0  0  0  0
   -0.7150    3.8309   -4.3833 C   0  0  0  0  0  0  0  0  0  0  0  0
   -1.0217    4.4254   -2.3735 H   0  0  0  0  0  0  0  0  0  0  0  0
    0.2532    4.2404   -4.7072 H   0  0  0  0  0  0  0  0  0  0  0  0
   -0.8853    2.8611   -4.8737 H   0  0  0  0  0  0  0  0  0  0  0  0
   -1.5192    4.5283   -4.6607 H   0  0  0  0  0  0  0  0  0  0  0  0
  1  3  1  0  0  0  0
  1  7  1  0  0  0  0
  1  2  2  0  0  0  0
 18 19  1  0  0  0  0
 19 24  1  0  0  0  0
 19 20  2  0  0  0  0
 25 26  1  0  0  0  0
 26 34  1  0  0  0  0
 26 27  2  0  0  0  0
  8  9  1  0  0  0  0
  9 17  1  0  0  0  0
  9 10  2  0  0  0  0
 25 28  1  0  0  0  0
  8 11  1  0  0  0  0
 34 35  1  0  0  0  0
 17 18  1  0  0  0  0
 24 25  1  0  0  0  0
  7  8  1  0  0  0  0
  3  4  1  0  0  0  0
  3  5  1  0  0  0  0
  3  6  1  0  0  0  0
 28 31  1  0  0  0  0
 28 32  1  0  0  0  0
 28 33  1  0  0  0  0
 11 14  1  0  0  0  0
 11 15  1  0  0  0  0
 11 16  1  0  0  0  0
 35 37  1  0  0  0  0
 35 38  1  0  0  0  0
 35 39  1  0  0  0  0
 18 22  1  0  0  0  0
 18 23  1  0  0  0  0
 25 30  1  0  0  0  0
  8 13  1  0  0  0  0
 34 36  1  0  0  0  0
 17 21  1  0  0  0  0
  7 12  1  0  0  0  0
 24 29  1  0  0  0  0
M  END
$$$$

  -OEChem-05262214473D

 39 38  0     1  0  0  0  0  0999 V2000
   -3.5200   -4.0268   -1.6943 C   0  0  0  0  0  0  0  0  0  0  0  0
   -2.8702   -4.8827   -1.1054 O   0  0  0  0  0  0  0  0  0  0  0  0
   -4.9704   -4.2579   -1.9614 C   0  0  0  0  0  0  0  0  0  0  0  0
   -5.1456   -4.7573   -2.9278 H   0  0  0  0  0  0  0  0  0  0  0  0
   -5.4379   -4.9112   -1.2072 H   0  0  0  0  0  0  0  0  0  0  0  0
   -5.5954   -3.3510   -1.9864 H   0  0  0  0  0  0  0  0  0  0  0  0
   -3.0424   -2.8131   -2.1606 N   0  0  0  0  0  0  0  0  0  0  0  0
   -1.6755   -2.3891   -2.0077 C   0  0  2  0  0  0  0  0  0  0  0  0
   -1.5782   -1.5673   -0.7292 C   0  0  0  0  0  0  0  0  0  0  0  0
   -2.5448   -1.0064   -0.2171 O   0  0  0  0  0  0  0  0  0  0  0  0
   -1.2087   -1.5823   -3.2094 C   0  0  0  0  0  0  0  0  0  0  0  0
   -3.6915   -2.1888   -2.6360 H   0  0  0  0  0  0  0  0  0  0  0  0
   -1.0721   -3.2977   -1.9053 H   0  0  0  0  0  0  0  0  0  0  0  0
   -1.8017   -0.6681   -3.3281 H   0  0  0  0  0  0  0  0  0  0  0  0
   -0.1601   -1.2849   -3.1045 H   0  0  0  0  0  0  0  0  0  0  0  0
   -1.3074   -2.1646   -4.1319 H   0  0  0  0  0  0  0  0  0  0  0  0
   -0.2835   -1.5112   -0.2725 N   0  0  0  0  0  0  0  0  0  0  0  0
    0.0769   -0.7658    0.9424 C   0  0  0  0  0  0  0  0  0  0  0  0
    0.4260    0.6549    0.5791 C   0  0  0  0  0  0  0  0  0  0  0  0
    1.5223    1.1603    0.8051 O   0  0  0  0  0  0  0  0  0  0  0  0
    0.4587   -2.0097   -0.7289 H   0  0  0  0  0  0  0  0  0  0  0  0
    0.9369   -1.2464    1.4181 H   0  0  0  0  0  0  0  0  0  0  0  0
   -0.7709   -0.7741    1.6337 H   0  0  0  0  0  0  0  0  0  0  0  0
   -0.6414    1.3043   -0.0319 N   0  0  0  0  0  0  0  0  0  0  0  0
   -0.5877    2.6708   -0.4803 C   0  0  2  0  0  0  0  0  0  0  0  0
   -0.8978    2.6891   -1.9712 C   0  0  0  0  0  0  0  0  0  0  0  0
   -0.7517    1.7092   -2.6988 O   0  0  0  0  0  0  0  0  0  0  0  0
    0.7718    3.2921   -0.2001 C   0  0  0  0  0  0  0  0  0  0  0  0
   -1.5070    0.7851   -0.1694 H   0  0  0  0  0  0  0  0  0  0  0  0
   -1.3698    3.2127    0.0627 H   0  0  0  0  0  0  0  0  0  0  0  0
    1.5681    2.7624   -0.7356 H   0  0  0  0  0  0  0  0  0  0  0  0
    0.8017    4.3402   -0.5158 H   0  0  0  0  0  0  0  0  0  0  0  0
    1.0061    3.2512    0.8691 H   0  0  0  0  0  0  0  0  0  0  0  0
   -1.3157    3.9405   -2.4021 N   0  0  0  0  0  0  0  0  0  0  0  0
   -1.6575    4.2174   -3.7777 C   0  0  0  0  0  0  0  0  0  0  0  0
   -1.4264    4.6905   -1.7260 H   0  0  0  0  0  0  0  0  0  0  0  0
   -0.7703    4.5941   -4.3078 H   0  0  0  0  0  0  0  0  0  0  0  0
   -2.0088    3.2939   -4.2612 H   0  0  0  0  0  0  0  0  0  0  0  0
   -2.4542    4.9751   -3.8121 H   0  0  0  0  0  0  0  0  0  0  0  0
  1  3  1  0  0  0  0
  1  7  1  0  0  0  0
  1  2  2  0  0  0  0
 18 19  1  0  0  0  0
 19 24  1  0  0  0  0
 19 20  2  0  0  0  0
 25 26  1  0  0  0  0
 26 34  1  0  0  0  0
 26 27  2  0  0  0  0
  8  9  1  0  0  0  0
  9 17  1  0  0  0  0
  9 10  2  0  0  0  0
 25 28  1  0  0  0  0
  8 11  1  0  0  0  0
 34 35  1  0  0  0  0
 17 18  1  0  0  0  0
 24 25  1  0  0  0  0
  7  8  1  0  0  0  0
  3  4  1  0  0  0  0
  3  5  1  0  0  0  0
  3  6  1  0  0  0  0
 28 31  1  0  0  0  0
 28 32  1  0  0  0  0
 28 33  1  0  0  0  0
 11 14  1  0  0  0  0
 11 15  1  0  0  0  0
 11 16  1  0  0  0  0
 35 37  1  0  0  0  0
 35 38  1  0  0  0  0
 35 39  1  0  0  0  0
 18 22  1  0  0  0  0
 18 23  1  0  0  0  0
 25 30  1  0  0  0  0
  8 13  1  0  0  0  0
 34 36  1  0  0  0  0
 17 21  1  0  0  0  0
  7 12  1  0  0  0  0
 24 29  1  0  0  0  0
M  END
$$$$

  -OEChem-05262214473D

 39 38  0     1  0  0  0  0  0999 V2000
   -3.5200   -4.0268   -1.6943 C   0  0  0  0  0  0  0  0  0  0  0  0
   -2.8702   -4.8827   -1.1054 O   0  0  0  0  0  0  0  0  0  0  0  0
   -4.9704   -4.2579   -1.9614 C   0  0  0  0  0  0  0  0  0  0  0  0
   -5.1456   -4.7573   -2.9278 H   0  0  0  0  0  0  0  0  0  0  0  0
   -5.4379   -4.9112   -1.2072 H   0  0  0  0  0  0  0  0  0  0  0  0
   -5.5954   -3.3510   -1.9864 H   0  0  0  0  0  0  0  0  0  0  0  0
   -3.0424   -2.8131   -2.1606 N   0  0  0  0  0  0  0  0  0  0  0  0
   -1.6755   -2.3891   -2.0077 C   0  0  2  0  0  0  0  0  0  0  0  0
   -1.5782   -1.5673   -0.7292 C   0  0  0  0  0  0  0  0  0  0  0  0
   -2.5448   -1.0064   -0.2171 O   0  0  0  0  0  0  0  0  0  0  0  0
   -1.2087   -1.5823   -3.2094 C   0  0  0  0  0  0  0  0  0  0  0  0
   -3.6915   -2.1888   -2.6360 H   0  0  0  0  0  0  0  0  0  0  0  0
   -1.0721   -3.2977   -1.9053 H   0  0  0  0  0  0  0  0  0  0  0  0
   -1.8017   -0.6681   -3.3281 H   0  0  0  0  0  0  0  0  0  0  0  0
   -0.1601   -1.2849   -3.1045 H   0  0  0  0  0  0  0  0  0  0  0  0
   -1.3074   -2.1646   -4.1319 H   0  0  0  0  0  0  0  0  0  0  0  0
   -0.2835   -1.5112   -0.2725 N   0  0  0  0  0  0  0  0  0  0  0  0
    0.0769   -0.7658    0.9424 C   0  0  0  0  0  0  0  0  0  0  0  0
    0.4260    0.6549    0.5791 C   0  0  0  0  0  0  0  0  0  0  0  0
    1.5770    1.0828    0.5547 O   0  0  0  0  0  0  0  0  0  0  0  0
    0.4587   -2.0097   -0.7289 H   0  0  0  0  0  0  0  0  0  0  0  0
    0.9369   -1.2464    1.4181 H   0  0  0  0  0  0  0  0  0  0  0  0
   -0.7709   -0.7741    1.6337 H   0  0  0  0  0  0  0  0  0  0  0  0
   -0.7095    1.4018    0.2840 N   0  0  0  0  0  0  0  0  0  0  0  0
   -0.6707    2.7906   -0.0918 C   0  0  2  0  0  0  0  0  0  0  0  0
   -1.3303    2.9268   -1.4578 C   0  0  0  0  0  0  0  0  0  0  0  0
   -1.4334    1.9917   -2.2491 O   0  0  0  0  0  0  0  0  0  0  0  0
    0.7562    3.3158   -0.1224 C   0  0  0  0  0  0  0  0  0  0  0  0
   -1.6167    0.9415    0.3366 H   0  0  0  0  0  0  0  0  0  0  0  0
   -1.2583    3.3366    0.6542 H   0  0  0  0  0  0  0  0  0  0  0  0
    1.3602    2.7806   -0.8641 H   0  0  0  0  0  0  0  0  0  0  0  0
    0.7819    4.3796   -0.3806 H   0  0  0  0  0  0  0  0  0  0  0  0
    1.2388    3.1898    0.8527 H   0  0  0  0  0  0  0  0  0  0  0  0
   -1.7517    4.2255   -1.7067 N   0  0  0  0  0  0  0  0  0  0  0  0
   -2.3961    4.6132   -2.9397 C   0  0  0  0  0  0  0  0  0  0  0  0
   -1.6428    4.9329   -0.9860 H   0  0  0  0  0  0  0  0  0  0  0  0
   -1.6395    4.9756   -3.6512 H   0  0  0  0  0  0  0  0  0  0  0  0
   -2.9175    3.7452   -3.3695 H   0  0  0  0  0  0  0  0  0  0  0  0
   -3.1225    5.4141   -2.7375 H   0  0  0  0  0  0  0  0  0  0  0  0
  1  3  1  0  0  0  0
  1  7  1  0  0  0  0
  1  2  2  0  0  0  0
 18 19  1  0  0  0  0
 19 24  1  0  0  0  0
 19 20  2  0  0  0  0
 25 26  1  0  0  0  0
 26 34  1  0  0  0  0
 26 27  2  0  0  0  0
  8  9  1  0  0  0  0
  9 17  1  0  0  0  0
  9 10  2  0  0  0  0
 25 28  1  0  0  0  0
  8 11  1  0  0  0  0
 34 35  1  0  0  0  0
 17 18  1  0  0  0  0
 24 25  1  0  0  0  0
  7  8  1  0  0  0  0
  3  4  1  0  0  0  0
  3  5  1  0  0  0  0
  3  6  1  0  0  0  0
 28 31  1  0  0  0  0
 28 32  1  0  0  0  0
 28 33  1  0  0  0  0
 11 14  1  0  0  0  0
 11 15  1  0  0  0  0
 11 16  1  0  0  0  0
 35 37  1  0  0  0  0
 35 38  1  0  0  0  0
 35 39  1  0  0  0  0
 18 22  1  0  0  0  0
 18 23  1  0  0  0  0
 25 30  1  0  0  0  0
  8 13  1  0  0  0  0
 34 36  1  0  0  0  0
 17 21  1  0  0  0  0
  7 12  1  0  0  0  0
 24 29  1  0  0  0  0
M  END
$$$$

  -OEChem-05262214473D

 39 38  0     1  0  0  0  0  0999 V2000
   -3.5200   -4.0268   -1.6943 C   0  0  0  0  0  0  0  0  0  0  0  0
   -2.8702   -4.8827   -1.1054 O   0  0  0  0  0  0  0  0  0  0  0  0
   -4.9704   -4.2579   -1.9614 C   0  0  0  0  0  0  0  0  0  0  0  0
   -5.1456   -4.7573   -2.9278 H   0  0  0  0  0  0  0  0  0  0  0  0
   -5.4379   -4.9112   -1.2072 H   0  0  0  0  0  0  0  0  0  0  0  0
   -5.5954   -3.3510   -1.9864 H   0  0  0  0  0  0  0  0  0  0  0  0
   -3.0424   -2.8131   -2.1606 N   0  0  0  0  0  0  0  0  0  0  0  0
   -1.6755   -2.3891   -2.0077 C   0  0  2  0  0  0  0  0  0  0  0  0
   -1.5782   -1.5673   -0.7292 C   0  0  0  0  0  0  0  0  0  0  0  0
   -2.5448   -1.0064   -0.2171 O   0  0  0  0  0  0  0  0  0  0  0  0
   -1.2087   -1.5823   -3.2094 C   0  0  0  0  0  0  0  0  0  0  0  0
   -3.6915   -2.1888   -2.6360 H   0  0  0  0  0  0  0  0  0  0  0  0
   -1.0721   -3.2977   -1.9053 H   0  0  0  0  0  0  0  0  0  0  0  0
   -1.8017   -0.6681   -3.3281 H   0  0  0  0  0  0  0  0  0  0  0  0
   -0.1601   -1.2849   -3.1045 H   0  0  0  0  0  0  0  0  0  0  0  0
   -1.3074   -2.1646   -4.1319 H   0  0  0  0  0  0  0  0  0  0  0  0
   -0.2835   -1.5112   -0.2725 N   0  0  0  0  0  0  0  0  0  0  0  0
    0.0769   -0.7658    0.9424 C   0  0  0  0  0  0  0  0  0  0  0  0
    0.4260    0.6549    0.5791 C   0  0  0  0  0  0  0  0  0  0  0  0
    1.5638    1.0196    0.2949 O   0  0  0  0  0  0  0  0  0  0  0  0
    0.4587   -2.0097   -0.7289 H   0  0  0  0  0  0  0  0  0  0  0  0
    0.9369   -1.2464    1.4181 H   0  0  0  0  0  0  0  0  0  0  0  0
   -0.7709   -0.7741    1.6337 H   0  0  0  0  0  0  0  0  0  0  0  0
   -0.6922    1.4813    0.6116 N   0  0  0  0  0  0  0  0  0  0  0  0
   -0.6486    2.8881    0.3108 C   0  0  2  0  0  0  0  0  0  0  0  0
   -1.6080    3.1525   -0.8420 C   0  0  0  0  0  0  0  0  0  0  0  0
   -1.9646    2.2803   -1.6314 O   0  0  0  0  0  0  0  0  0  0  0  0
    0.7615    3.3350   -0.0421 C   0  0  0  0  0  0  0  0  0  0  0  0
   -1.5895    1.0691    0.8616 H   0  0  0  0  0  0  0  0  0  0  0  0
   -0.9985    3.4139    1.2059 H   0  0  0  0  0  0  0  0  0  0  0  0
    1.1292    2.8189   -0.9365 H   0  0  0  0  0  0  0  0  0  0  0  0
    0.7982    4.4108   -0.2428 H   0  0  0  0  0  0  0  0  0  0  0  0
    1.4559    3.1170    0.7765 H   0  0  0  0  0  0  0  0  0  0  0  0
   -1.9854    4.4862   -0.9115 N   0  0  0  0  0  0  0  0  0  0  0  0
   -2.8804    4.9914   -1.9263 C   0  0  0  0  0  0  0  0  0  0  0  0
   -1.6562    5.1362   -0.2038 H   0  0  0  0  0  0  0  0  0  0  0  0
   -2.2951    5.3590   -2.7821 H   0  0  0  0  0  0  0  0  0  0  0  0
   -3.5496    4.1844   -2.2595 H   0  0  0  0  0  0  0  0  0  0  0  0
   -3.4785    5.8155   -1.5103 H   0  0  0  0  0  0  0  0  0  0  0  0
  1  3  1  0  0  0  0
  1  7  1  0  0  0  0
  1  2  2  0  0  0  0
 18 19  1  0  0  0  0
 19 24  1  0  0  0  0
 19 20  2  0  0  0  0
 25 26  1  0  0  0  0
 26 34  1  0  0  0  0
 26 27  2  0  0  0  0
  8  9  1  0  0  0  0
  9 17  1  0  0  0  0
  9 10  2  0  0  0  0
 25 28  1  0  0  0  0
  8 11  1  0  0  0  0
 34 35  1  0  0  0  0
 17 18  1  0  0  0  0
 24 25  1  0  0  0  0
  7  8  1  0  0  0  0
  3  4  1  0  0  0  0
  3  5  1  0  0  0  0
  3  6  1  0  0  0  0
 28 31  1  0  0  0  0
 28 32  1  0  0  0  0
 28 33  1  0  0  0  0
 11 14  1  0  0  0  0
 11 15  1  0  0  0  0
 11 16  1  0  0  0  0
 35 37  1  0  0  0  0
 35 38  1  0  0  0  0
 35 39  1  0  0  0  0
 18 22  1  0  0  0  0
 18 23  1  0  0  0  0
 25 30  1  0  0  0  0
  8 13  1  0  0  0  0
 34 36  1  0  0  0  0
 17 21  1  0  0  0  0
  7 12  1  0  0  0  0
 24 29  1  0  0  0  0
M  END
$$$$

  -OEChem-05262214473D

 39 38  0     1  0  0  0  0  0999 V2000
   -3.5200   -4.0268   -1.6943 C   0  0  0  0  0  0  0  0  0  0  0  0
   -2.8702   -4.8827   -1.1054 O   0  0  0  0  0  0  0  0  0  0  0  0
   -4.9704   -4.2579   -1.9614 C   0  0  0  0  0  0  0  0  0  0  0  0
   -5.1456   -4.7573   -2.9278 H   0  0  0  0  0  0  0  0  0  0  0  0
   -5.4379   -4.9112   -1.2072 H   0  0  0  0  0  0  0  0  0  0  0  0
   -5.5954   -3.3510   -1.9864 H   0  0  0  0  0  0  0  0  0  0  0  0
   -3.0424   -2.8131   -2.1606 N   0  0  0  0  0  0  0  0  0  0  0  0
   -1.6755   -2.3891   -2.0077 C   0  0  2  0  0  0  0  0  0  0  0  0
   -1.5782   -1.5673   -0.7292 C   0  0  0  0  0  0  0  0  0  0  0  0
   -2.5448   -1.0064   -0.2171 O   0  0  0  0  0  0  0  0  0  0  0  0
   -1.2087   -1.5823   -3.2094 C   0  0  0  0  0  0  0  0  0  0  0  0
   -3.6915   -2.1888   -2.6360 H   0  0  0  0  0  0  0  0  0  0  0  0
   -1.0721   -3.2977   -1.9053 H   0  0  0  0  0  0  0  0  0  0  0  0
   -1.8017   -0.6681   -3.3281 H   0  0  0  0  0  0  0  0  0  0  0  0
   -0.1601   -1.2849   -3.1045 H   0  0  0  0  0  0  0  0  0  0  0  0
   -1.3074   -2.1646   -4.1319 H   0  0  0  0  0  0  0  0  0  0  0  0
   -0.2835   -1.5112   -0.2725 N   0  0  0  0  0  0  0  0  0  0  0  0
    0.0769   -0.7658    0.9424 C   0  0  0  0  0  0  0  0  0  0  0  0
    0.4260    0.6549    0.5791 C   0  0  0  0  0  0  0  0  0  0  0  0
    1.4838    0.9750    0.0434 O   0  0  0  0  0  0  0  0  0  0  0  0
    0.4587   -2.0097   -0.7289 H   0  0  0  0  0  0  0  0  0  0  0  0
    0.9369   -1.2464    1.4181 H   0  0  0  0  0  0  0  0  0  0  0  0
   -0.7709   -0.7741    1.6337 H   0  0  0  0  0  0  0  0  0  0  0  0
   -0.5906    1.5374    0.9286 N   0  0  0  0  0  0  0  0  0  0  0  0
   -0.5229    2.9568    0.7002 C   0  0  2  0  0  0  0  0  0  0  0  0
   -1.7120    3.3509   -0.1660 C   0  0  0  0  0  0  0  0  0  0  0  0
   -2.3091    2.5551   -0.8879 O   0  0  0  0  0  0  0  0  0  0  0  0
    0.7875    3.3484    0.0353 C   0  0  0  0  0  0  0  0  0  0  0  0
   -1.4273    1.1591    1.3696 H   0  0  0  0  0  0  0  0  0  0  0  0
   -0.6083    3.4392    1.6800 H   0  0  0  0  0  0  0  0  0  0  0  0
    0.8908    2.8746   -0.9477 H   0  0  0  0  0  0  0  0  0  0  0  0
    0.8495    4.4317   -0.1118 H   0  0  0  0  0  0  0  0  0  0  0  0
    1.6423    3.0376    0.6455 H   0  0  0  0  0  0  0  0  0  0  0  0
   -2.0009    4.7050   -0.0708 N   0  0  0  0  0  0  0  0  0  0  0  0
   -3.0773    5.3261   -0.8067 C   0  0  0  0  0  0  0  0  0  0  0  0
   -1.4656    5.2866    0.5672 H   0  0  0  0  0  0  0  0  0  0  0  0
   -2.6924    5.7181   -1.7597 H   0  0  0  0  0  0  0  0  0  0  0  0
   -3.8619    4.5816   -1.0068 H   0  0  0  0  0  0  0  0  0  0  0  0
   -3.4980    6.1518   -0.2139 H   0  0  0  0  0  0  0  0  0  0  0  0
  1  3  1  0  0  0  0
  1  7  1  0  0  0  0
  1  2  2  0  0  0  0
 18 19  1  0  0  0  0
 19 24  1  0  0  0  0
 19 20  2  0  0  0  0
 25 26  1  0  0  0  0
 26 34  1  0  0  0  0
 26 27  2  0  0  0  0
  8  9  1  0  0  0  0
  9 17  1  0  0  0  0
  9 10  2  0  0  0  0
 25 28  1  0  0  0  0
  8 11  1  0  0  0  0
 34 35  1  0  0  0  0
 17 18  1  0  0  0  0
 24 25  1  0  0  0  0
  7  8  1  0  0  0  0
  3  4  1  0  0  0  0
  3  5  1  0  0  0  0
  3  6  1  0  0  0  0
 28 31  1  0  0  0  0
 28 32  1  0  0  0  0
 28 33  1  0  0  0  0
 11 14  1  0  0  0  0
 11 15  1  0  0  0  0
 11 16  1  0  0  0  0
 35 37  1  0  0  0  0
 35 38  1  0  0  0  0
 35 39  1  0  0  0  0
 18 22  1  0  0  0  0
 18 23  1  0  0  0  0
 25 30  1  0  0  0  0
  8 13  1  0  0  0  0
 34 36  1  0  0  0  0
 17 21  1  0  0  0  0
  7 12  1  0  0  0  0
 24 29  1  0  0  0  0
M  END
$$$$

  -OEChem-05262214473D

 39 38  0     1  0  0  0  0  0999 V2000
   -3.5200   -4.0268   -1.6943 C   0  0  0  0  0  0  0  0  0  0  0  0
   -2.8702   -4.8827   -1.1054 O   0  0  0  0  0  0  0  0  0  0  0  0
   -4.9704   -4.2579   -1.9614 C   0  0  0  0  0  0  0  0  0  0  0  0
   -5.1456   -4.7573   -2.9278 H   0  0  0  0  0  0  0  0  0  0  0  0
   -5.4379   -4.9112   -1.2072 H   0  0  0  0  0  0  0  0  0  0  0  0
   -5.5954   -3.3510   -1.9864 H   0  0  0  0  0  0  0  0  0  0  0  0
   -3.0424   -2.8131   -2.1606 N   0  0  0  0  0  0  0  0  0  0  0  0
   -1.6755   -2.3891   -2.0077 C   0  0  2  0  0  0  0  0  0  0  0  0
   -1.5782   -1.5673   -0.7292 C   0  0  0  0  0  0  0  0  0  0  0  0
   -2.5448   -1.0064   -0.2171 O   0  0  0  0  0  0  0  0  0  0  0  0
   -1.2087   -1.5823   -3.2094 C   0  0  0  0  0  0  0  0  0  0  0  0
   -3.6915   -2.1888   -2.6360 H   0  0  0  0  0  0  0  0  0  0  0  0
   -1.0721   -3.2977   -1.9053 H   0  0  0  0  0  0  0  0  0  0  0  0
   -1.8017   -0.6681   -3.3281 H   0  0  0  0  0  0  0  0  0  0  0  0
   -0.1601   -1.2849   -3.1045 H   0  0  0  0  0  0  0  0  0  0  0  0
   -1.3074   -2.1646   -4.1319 H   0  0  0  0  0  0  0  0  0  0  0  0
   -0.2835   -1.5112   -0.2725 N   0  0  0  0  0  0  0  0  0  0  0  0
    0.0769   -0.7658    0.9424 C   0  0  0  0  0  0  0  0  0  0  0  0
    0.4260    0.6549    0.5791 C   0  0  0  0  0  0  0  0  0  0  0  0
    1.3424    0.9519   -0.1828 O   0  0  0  0  0  0  0  0  0  0  0  0
    0.4587   -2.0097   -0.7289 H   0  0  0  0  0  0  0  0  0  0  0  0
    0.9369   -1.2464    1.4181 H   0  0  0  0  0  0  0  0  0  0  0  0
   -0.7709   -0.7741    1.6337 H   0  0  0  0  0  0  0  0  0  0  0  0
   -0.4116    1.5662    1.2134 N   0  0  0  0  0  0  0  0  0  0  0  0
   -0.3023    2.9920    1.0498 C   0  0  2  0  0  0  0  0  0  0  0  0
   -1.6352    3.5086    0.5243 C   0  0  0  0  0  0  0  0  0  0  0  0
   -2.4433    2.7974   -0.0692 O   0  0  0  0  0  0  0  0  0  0  0  0
    0.8322    3.3551    0.1045 C   0  0  0  0  0  0  0  0  0  0  0  0
   -1.1410    1.2055    1.8262 H   0  0  0  0  0  0  0  0  0  0  0  0
   -0.1141    3.4109    2.0443 H   0  0  0  0  0  0  0  0  0  0  0  0
    0.6613    2.9440   -0.8971 H   0  0  0  0  0  0  0  0  0  0  0  0
    0.9323    4.4409    0.0034 H   0  0  0  0  0  0  0  0  0  0  0  0
    1.7855    2.9572    0.4688 H   0  0  0  0  0  0  0  0  0  0  0  0
   -1.7972    4.8670    0.7581 N   0  0  0  0  0  0  0  0  0  0  0  0
   -2.9736    5.5947    0.3429 C   0  0  0  0  0  0  0  0  0  0  0  0
   -1.0841    5.3737    1.2744 H   0  0  0  0  0  0  0  0  0  0  0  0
   -2.8044    6.0285   -0.6537 H   0  0  0  0  0  0  0  0  0  0  0  0
   -3.8333    4.9096    0.3032 H   0  0  0  0  0  0  0  0  0  0  0  0
   -3.1796    6.4002    1.0632 H   0  0  0  0  0  0  0  0  0  0  0  0
  1  3  1  0  0  0  0
  1  7  1  0  0  0  0
  1  2  2  0  0  0  0
 18 19  1  0  0  0  0
 19 24  1  0  0  0  0
 19 20  2  0  0  0  0
 25 26  1  0  0  0  0
 26 34  1  0  0  0  0
 26 27  2  0  0  0  0
  8  9  1  0  0  0  0
  9 17  1  0  0  0  0
  9 10  2  0  0  0  0
 25 28  1  0  0  0  0
  8 11  1  0  0  0  0
 34 35  1  0  0  0  0
 17 18  1  0  0  0  0
 24 25  1  0  0  0  0
  7  8  1  0  0  0  0
  3  4  1  0  0  0  0
  3  5  1  0  0  0  0
  3  6  1  0  0  0  0
 28 31  1  0  0  0  0
 28 32  1  0  0  0  0
 28 33  1  0  0  0  0
 11 14  1  0  0  0  0
 11 15  1  0  0  0  0
 11 16  1  0  0  0  0
 35 37  1  0  0  0  0
 35 38  1  0  0  0  0
 35 39  1  0  0  0  0
 18 22  1  0  0  0  0
 18 23  1  0  0  0  0
 25 30  1  0  0  0  0
  8 13  1  0  0  0  0
 34 36  1  0  0  0  0
 17 21  1  0  0  0  0
  7 12  1  0  0  0  0
 24 29  1  0  0  0  0
M  END
$$$$

  -OEChem-05262214473D

 39 38  0     1  0  0  0  0  0999 V2000
   -3.5200   -4.0268   -1.6943 C   0  0  0  0  0  0  0  0  0  0  0  0
   -2.8702   -4.8827   -1.1054 O   0  0  0  0  0  0  0  0  0  0  0  0
   -4.9704   -4.2579   -1.9614 C   0  0  0  0  0  0  0  0  0  0  0  0
   -5.1456   -4.7573   -2.9278 H   0  0  0  0  0  0  0  0  0  0  0  0
   -5.4379   -4.9112   -1.2072 H   0  0  0  0  0  0  0  0  0  0  0  0
   -5.5954   -3.3510   -1.9864 H   0  0  0  0  0  0  0  0  0  0  0  0
   -3.0424   -2.8131   -2.1606 N   0  0  0  0  0  0  0  0  0  0  0  0
   -1.6755   -2.3891   -2.0077 C   0  0  2  0  0  0  0  0  0  0  0  0
   -1.5782   -1.5673   -0.7292 C   0  0  0  0  0  0  0  0  0  0  0  0
   -2.5448   -1.0064   -0.2171 O   0  0  0  0  0  0  0  0  0  0  0  0
   -1.2087   -1.5823   -3.2094 C   0  0  0  0  0  0  0  0  0  0  0  0
   -3.6915   -2.1888   -2.6360 H   0  0  0  0  0  0  0  0  0  0  0  0
   -1.0721   -3.2977   -1.9053 H   0  0  0  0  0  0  0  0  0  0  0  0
   -1.8017   -0.6681   -3.3281 H   0  0  0  0  0  0  0  0  0  0  0  0
   -0.1601   -1.2849   -3.1045 H   0  0  0  0  0  0  0  0  0  0  0  0
   -1.3074   -2.1646   -4.1319 H   0  0  0  0  0  0  0  0  0  0  0  0
   -0.2835   -1.5112   -0.2725 N   0  0  0  0  0  0  0  0  0  0  0  0
    0.0769   -0.7658    0.9424 C   0  0  0  0  0  0  0  0  0  0  0  0
    0.4260    0.6549    0.5791 C   0  0  0  0  0  0  0  0  0  0  0  0
    1.1492    0.9520   -0.3681 O   0  0  0  0  0  0  0  0  0  0  0  0
    0.4587   -2.0097   -0.7289 H   0  0  0  0  0  0  0  0  0  0  0  0
    0.9369   -1.2464    1.4181 H   0  0  0  0  0  0  0  0  0  0  0  0
   -0.7709   -0.7741    1.6337 H   0  0  0  0  0  0  0  0  0  0  0  0
   -0.1674    1.5659    1.4465 N   0  0  0  0  0  0  0  0  0  0  0  0
   -0.0017    2.9912    1.3358 C   0  0  2  0  0  0  0  0  0  0  0  0
   -1.3827    3.6147    1.1818 C   0  0  0  0  0  0  0  0  0  0  0  0
   -2.3581    2.9908    0.7688 O   0  0  0  0  0  0  0  0  0  0  0  0
    0.8928    3.3547    0.1608 C   0  0  0  0  0  0  0  0  0  0  0  0
   -0.7502    1.2051    2.2001 H   0  0  0  0  0  0  0  0  0  0  0  0
    0.4504    3.3309    2.2740 H   0  0  0  0  0  0  0  0  0  0  0  0
    0.4562    3.0223   -0.7880 H   0  0  0  0  0  0  0  0  0  0  0  0
    1.0410    4.4376    0.0951 H   0  0  0  0  0  0  0  0  0  0  0  0
    1.8758    2.8812    0.2583 H   0  0  0  0  0  0  0  0  0  0  0  0
   -1.3881    4.9610    1.5188 N   0  0  0  0  0  0  0  0  0  0  0  0
   -2.5763    5.7786    1.4441 C   0  0  0  0  0  0  0  0  0  0  0  0
   -0.5377    5.3916    1.8697 H   0  0  0  0  0  0  0  0  0  0  0  0
   -2.6234    6.2690    0.4606 H   0  0  0  0  0  0  0  0  0  0  0  0
   -3.4657    5.1461    1.5813 H   0  0  0  0  0  0  0  0  0  0  0  0
   -2.5450    6.5436    2.2339 H   0  0  0  0  0  0  0  0  0  0  0  0
  1  3  1  0  0  0  0
  1  7  1  0  0  0  0
  1  2  2  0  0  0  0
 18 19  1  0  0  0  0
 19 24  1  0  0  0  0
 19 20  2  0  0  0  0
 25 26  1  0  0  0  0
 26 34  1  0  0  0  0
 26 27  2  0  0  0  0
  8  9  1  0  0  0  0
  9 17  1  0  0  0  0
  9 10  2  0  0  0  0
 25 28  1  0  0  0  0
  8 11  1  0  0  0  0
 34 35  1  0  0  0  0
 17 18  1  0  0  0  0
 24 25  1  0  0  0  0
  7  8  1  0  0  0  0
  3  4  1  0  0  0  0
  3  5  1  0  0  0  0
  3  6  1  0  0  0  0
 28 31  1  0  0  0  0
 28 32  1  0  0  0  0
 28 33  1  0  0  0  0
 11 14  1  0  0  0  0
 11 15  1  0  0  0  0
 11 16  1  0  0  0  0
 35 37  1  0  0  0  0
 35 38  1  0  0  0  0
 35 39  1  0  0  0  0
 18 22  1  0  0  0  0
 18 23  1  0  0  0  0
 25 30  1  0  0  0  0
  8 13  1  0  0  0  0
 34 36  1  0  0  0  0
 17 21  1  0  0  0  0
  7 12  1  0  0  0  0
 24 29  1  0  0  0  0
M  END
$$$$

  -OEChem-05262214473D

 39 38  0     1  0  0  0  0  0999 V2000
   -3.5200   -4.0268   -1.6943 C   0  0  0  0  0  0  0  0  0  0  0  0
   -2.8702   -4.8827   -1.1054 O   0  0  0  0  0  0  0  0  0  0  0  0
   -4.9704   -4.2579   -1.9614 C   0  0  0  0  0  0  0  0  0  0  0  0
   -5.1456   -4.7573   -2.9278 H   0  0  0  0  0  0  0  0  0  0  0  0
   -5.4379   -4.9112   -1.2072 H   0  0  0  0  0  0  0  0  0  0  0  0
   -5.5954   -3.3510   -1.9864 H   0  0  0  0  0  0  0  0  0  0  0  0
   -3.0424   -2.8131   -2.1606 N   0  0  0  0  0  0  0  0  0  0  0  0
   -1.6755   -2.3891   -2.0077 C   0  0  2  0  0  0  0  0  0  0  0  0
   -1.5782   -1.5673   -0.7292 C   0  0  0  0  0  0  0  0  0  0  0  0
   -2.5448   -1.0064   -0.2171 O   0  0  0  0  0  0  0  0  0  0  0  0
   -1.2087   -1.5823   -3.2094 C   0  0  0  0  0  0  0  0  0  0  0  0
   -3.6915   -2.1888   -2.6360 H   0  0  0  0  0  0  0  0  0  0  0  0
   -1.0721   -3.2977   -1.9053 H   0  0  0  0  0  0  0  0  0  0  0  0
   -1.8017   -0.6681   -3.3281 H   0  0  0  0  0  0  0  0  0  0  0  0
   -0.1601   -1.2849   -3.1045 H   0  0  0  0  0  0  0  0  0  0  0  0
   -1.3074   -2.1646   -4.1319 H   0  0  0  0  0  0  0  0  0  0  0  0
   -0.2835   -1.5112   -0.2725 N   0  0  0  0  0  0  0  0  0  0  0  0
    0.0769   -0.7658    0.9424 C   0  0  0  0  0  0  0  0  0  0  0  0
    0.4260    0.6549    0.5791 C   0  0  0  0  0  0  0  0  0  0  0  0
    0.9174    0.9752   -0.4999 O   0  0  0  0  0  0  0  0  0  0  0  0
    0.4587   -2.0097   -0.7289 H   0  0  0  0  0  0  0  0  0  0  0  0
    0.9369   -1.2464    1.4181 H   0  0  0  0  0  0  0  0  0  0  0  0
   -0.7709   -0.7741    1.6337 H   0  0  0  0  0  0  0  0  0  0  0  0
    0.1253    1.5363    1.6121 N   0  0  0  0  0  0  0  0  0  0  0  0
    0.3583    2.9546    1.5386 C   0  0  2  0  0  0  0  0  0  0  0  0
   -0.9719    3.6620    1.7616 C   0  0  0  0  0  0  0  0  0  0  0  0
   -2.0593    3.1220    1.5691 O   0  0  0  0  0  0  0  0  0  0  0  0
    0.9650    3.3470    0.2005 C   0  0  0  0  0  0  0  0  0  0  0  0
   -0.2815    1.1579    2.4660 H   0  0  0  0  0  0  0  0  0  0  0  0
    1.0467    3.2047    2.3533 H   0  0  0  0  0  0  0  0  0  0  0  0
    0.2897    3.1041   -0.6280 H   0  0  0  0  0  0  0  0  0  0  0  0
    1.1681    4.4222    0.1569 H   0  0  0  0  0  0  0  0  0  0  0  0
    1.9068    2.8148    0.0285 H   0  0  0  0  0  0  0  0  0  0  0  0
   -0.8015    4.9806    2.1594 N   0  0  0  0  0  0  0  0  0  0  0  0
   -1.9124    5.8655    2.4219 C   0  0  0  0  0  0  0  0  0  0  0  0
    0.1365    5.3392    2.3125 H   0  0  0  0  0  0  0  0  0  0  0  0
   -2.1618    6.4232    1.5071 H   0  0  0  0  0  0  0  0  0  0  0  0
   -2.7841    5.2750    2.7403 H   0  0  0  0  0  0  0  0  0  0  0  0
   -1.6375    6.5724    3.2187 H   0  0  0  0  0  0  0  0  0  0  0  0
  1  3  1  0  0  0  0
  1  7  1  0  0  0  0
  1  2  2  0  0  0  0
 18 19  1  0  0  0  0
 19 24  1  0  0  0  0
 19 20  2  0  0  0  0
 25 26  1  0  0  0  0
 26 34  1  0  0  0  0
 26 27  2  0  0  0  0
  8  9  1  0  0  0  0
  9 17  1  0  0  0  0
  9 10  2  0  0  0  0
 25 28  1  0  0  0  0
  8 11  1  0  0  0  0
 34 35  1  0  0  0  0
 17 18  1  0  0  0  0
 24 25  1  0  0  0  0
  7  8  1  0  0  0  0
  3  4  1  0  0  0  0
  3  5  1  0  0  0  0
  3  6  1  0  0  0  0
 28 31  1  0  0  0  0
 28 32  1  0  0  0  0
 28 33  1  0  0  0  0
 11 14  1  0  0  0  0
 11 15  1  0  0  0  0
 11 16  1  0  0  0  0
 35 37  1  0  0  0  0
 35 38  1  0  0  0  0
 35 39  1  0  0  0  0
 18 22  1  0  0  0  0
 18 23  1  0  0  0  0
 25 30  1  0  0  0  0
  8 13  1  0  0  0  0
 34 36  1  0  0  0  0
 17 21  1  0  0  0  0
  7 12  1  0  0  0  0
 24 29  1  0  0  0  0
M  END
$$$$

  -OEChem-05262214473D

 39 38  0     1  0  0  0  0  0999 V2000
   -3.5200   -4.0268   -1.6943 C   0  0  0  0  0  0  0  0  0  0  0  0
   -2.8702   -4.8827   -1.1054 O   0  0  0  0  0  0  0  0  0  0  0  0
   -4.9704   -4.2579   -1.9614 C   0  0  0  0  0  0  0  0  0  0  0  0
   -5.1456   -4.7573   -2.9278 H   0  0  0  0  0  0  0  0  0  0  0  0
   -5.4379   -4.9112   -1.2072 H   0  0  0  0  0  0  0  0  0  0  0  0
   -5.5954   -3.3510   -1.9864 H   0  0  0  0  0  0  0  0  0  0  0  0
   -3.0424   -2.8131   -2.1606 N   0  0  0  0  0  0  0  0  0  0  0  0
   -1.6755   -2.3891   -2.0077 C   0  0  2  0  0  0  0  0  0  0  0  0
   -1.5782   -1.5673   -0.7292 C   0  0  0  0  0  0  0  0  0  0  0  0
   -2.5448   -1.0064   -0.2171 O   0  0  0  0  0  0  0  0  0  0  0  0
   -1.2087   -1.5823   -3.2094 C   0  0  0  0  0  0  0  0  0  0  0  0
   -3.6915   -2.1888   -2.6360 H   0  0  0  0  0  0  0  0  0  0  0  0
   -1.0721   -3.2977   -1.9053 H   0  0  0  0  0  0  0  0  0  0  0  0
   -1.8017   -0.6681   -3.3281 H   0  0  0  0  0  0  0  0  0  0  0  0
   -0.1601   -1.2849   -3.1045 H   0  0  0  0  0  0  0  0  0  0  0  0
   -1.3074   -2.1646   -4.1319 H   0  0  0  0  0  0  0  0  0  0  0  0
   -0.2835   -1.5112   -0.2725 N   0  0  0  0  0  0  0  0  0  0  0  0
    0.0769   -0.7658    0.9424 C   0  0  0  0  0  0  0  0  0  0  0  0
    0.4260    0.6549    0.5791 C   0  0  0  0  0  0  0  0  0  0  0  0
    0.6627    1.0200   -0.5694 O   0  0  0  0  0  0  0  0  0  0  0  0
    0.4587   -2.0097   -0.7289 H   0  0  0  0  0  0  0  0  0  0  0  0
    0.9369   -1.2464    1.4181 H   0  0  0  0  0  0  0  0  0  0  0  0
   -0.7709   -0.7741    1.6337 H   0  0  0  0  0  0  0  0  0  0  0  0
    0.4465    1.4795    1.6989 N   0  0  0  0  0  0  0  0  0  0  0  0
    0.7533    2.8846    1.6445 C   0  0  2  0  0  0  0  0  0  0  0  0
   -0.4306    3.6473    2.2243 C   0  0  0  0  0  0  0  0  0  0  0  0
   -1.5673    3.1822    2.2771 O   0  0  0  0  0  0  0  0  0  0  0  0
    1.0440    3.3328    0.2207 C   0  0  0  0  0  0  0  0  0  0  0  0
    0.2331    1.0672    2.6056 H   0  0  0  0  0  0  0  0  0  0  0  0
    1.6341    3.0408    2.2769 H   0  0  0  0  0  0  0  0  0  0  0  0
    0.1729    3.1840   -0.4278 H   0  0  0  0  0  0  0  0  0  0  0  0
    1.3051    4.3956    0.1847 H   0  0  0  0  0  0  0  0  0  0  0  0
    1.8766    2.7625   -0.2051 H   0  0  0  0  0  0  0  0  0  0  0  0
   -0.0774    4.9246    2.6363 N   0  0  0  0  0  0  0  0  0  0  0  0
   -1.0271    5.8494    3.2097 C   0  0  0  0  0  0  0  0  0  0  0  0
    0.8924    5.2199    2.5726 H   0  0  0  0  0  0  0  0  0  0  0  0
   -1.4510    6.4806    2.4147 H   0  0  0  0  0  0  0  0  0  0  0  0
   -1.8349    5.2875    3.7013 H   0  0  0  0  0  0  0  0  0  0  0  0
   -0.5190    6.4846    3.9502 H   0  0  0  0  0  0  0  0  0  0  0  0
  1  3  1  0  0  0  0
  1  7  1  0  0  0  0
  1  2  2  0  0  0  0
 18 19  1  0  0  0  0
 19 24  1  0  0  0  0
 19 20  2  0  0  0  0
 25 26  1  0  0  0  0
 26 34  1  0  0  0  0
 26 27  2  0  0  0  0
  8  9  1  0  0  0  0
  9 17  1  0  0  0  0
  9 10  2  0  0  0  0
 25 28  1  0  0  0  0
  8 11  1  0  0  0  0
 34 35  1  0  0  0  0
 17 18  1  0  0  0  0
 24 25  1  0  0  0  0
  7  8  1  0  0  0  0
  3  4  1  0  0  0  0
  3  5  1  0  0  0  0
  3  6  1  0  0  0  0
 28 31  1  0  0  0  0
 28 32  1  0  0  0  0
 28 33  1  0  0  0  0
 11 14  1  0  0  0  0
 11 15  1  0  0  0  0
 11 16  1  0  0  0  0
 35 37  1  0  0  0  0
 35 38  1  0  0  0  0
 35 39  1  0  0  0  0
 18 22  1  0  0  0  0
 18 23  1  0  0  0  0
 25 30  1  0  0  0  0
  8 13  1  0  0  0  0
 34 36  1  0  0  0  0
 17 21  1  0  0  0  0
  7 12  1  0  0  0  0
 24 29  1  0  0  0  0
M  END
$$$$

  -OEChem-05262214473D

 39 38  0     1  0  0  0  0  0999 V2000
   -3.5200   -4.0268   -1.6943 C   0  0  0  0  0  0  0  0  0  0  0  0
   -2.8702   -4.8827   -1.1054 O   0  0  0  0  0  0  0  0  0  0  0  0
   -4.9704   -4.2579   -1.9614 C   0  0  0  0  0  0  0  0  0  0  0  0
   -5.1456   -4.7573   -2.9278 H   0  0  0  0  0  0  0  0  0  0  0  0
   -5.4379   -4.9112   -1.2072 H   0  0  0  0  0  0  0  0  0  0  0  0
   -5.5954   -3.3510   -1.9864 H   0  0  0  0  0  0  0  0  0  0  0  0
   -3.0424   -2.8131   -2.1606 N   0  0  0  0  0  0  0  0  0  0  0  0
   -1.6755   -2.3891   -2.0077 C   0  0  2  0  0  0  0  0  0  0  0  0
   -1.5782   -1.5673   -0.7292 C   0  0  0  0  0  0  0  0  0  0  0  0
   -2.5448   -1.0064   -0.2171 O   0  0  0  0  0  0  0  0  0  0  0  0
   -1.2087   -1.5823   -3.2094 C   0  0  0  0  0  0  0  0  0  0  0  0
   -3.6915   -2.1888   -2.6360 H   0  0  0  0  0  0  0  0  0  0  0  0
   -1.0721   -3.2977   -1.9053 H   0  0  0  0  0  0  0  0  0  0  0  0
   -1.8017   -0.6681   -3.3281 H   0  0  0  0  0  0  0  0  0  0  0  0
   -0.1601   -1.2849   -3.1045 H   0  0  0  0  0  0  0  0  0  0  0  0
   -1.3074   -2.1646   -4.1319 H   0  0  0  0  0  0  0  0  0  0  0  0
   -0.2835   -1.5112   -0.2725 N   0  0  0  0  0  0  0  0  0  0  0  0
    0.0769   -0.7658    0.9424 C   0  0  0  0  0  0  0  0  0  0  0  0
    0.0668    0.7130    0.6501 C   0  0  0  0  0  0  0  0  0  0  0  0
   -0.2046    1.1821   -0.4521 O   0  0  0  0  0  0  0  0  0  0  0  0
    0.4587   -2.0097   -0.7289 H   0  0  0  0  0  0  0  0  0  0  0  0
    1.0758   -1.0701    1.2687 H   0  0  0  0  0  0  0  0  0  0  0  0
   -0.6465   -0.9928    1.7310 H   0  0  0  0  0  0  0  0  0  0  0  0
    0.4030    1.4595    1.7744 N   0  0  0  0  0  0  0  0  0  0  0  0
    0.4744    2.8969    1.7805 C   0  0  2  0  0  0  0  0  0  0  0  0
   -0.4888    3.4111    2.8424 C   0  0  0  0  0  0  0  0  0  0  0  0
   -1.4455    2.7576    3.2531 O   0  0  0  0  0  0  0  0  0  0  0  0
    0.1359    3.4736    0.4147 C   0  0  0  0  0  0  0  0  0  0  0  0
    0.6096    0.9626    2.6393 H   0  0  0  0  0  0  0  0  0  0  0  0
    1.5004    3.1615    2.0585 H   0  0  0  0  0  0  0  0  0  0  0  0
   -0.8884    3.2190    0.1191 H   0  0  0  0  0  0  0  0  0  0  0  0
    0.2184    4.5655    0.4135 H   0  0  0  0  0  0  0  0  0  0  0  0
    0.8109    3.0798   -0.3528 H   0  0  0  0  0  0  0  0  0  0  0  0
   -0.1796    4.7024    3.2461 N   0  0  0  0  0  0  0  0  0  0  0  0
   -0.9528    5.4161    4.2355 C   0  0  0  0  0  0  0  0  0  0  0  0
    0.6432    5.1612    2.8663 H   0  0  0  0  0  0  0  0  0  0  0  0
   -1.7287    6.0134    3.7342 H   0  0  0  0  0  0  0  0  0  0  0  0
   -1.4281    4.6965    4.9182 H   0  0  0  0  0  0  0  0  0  0  0  0
   -0.2903    6.0821    4.8079 H   0  0  0  0  0  0  0  0  0  0  0  0
  1  3  1  0  0  0  0
  1  7  1  0  0  0  0
  1  2  2  0  0  0  0
 18 19  1  0  0  0  0
 19 24  1  0  0  0  0
 19 20  2  0  0  0  0
 25 26  1  0  0  0  0
 26 34  1  0  0  0  0
 26 27  2  0  0  0  0
  8  9  1  0  0  0  0
  9 17  1  0  0  0  0
  9 10  2  0  0  0  0
 25 28  1  0  0  0  0
  8 11  1  0  0  0  0
 34 35  1  0  0  0  0
 17 18  1  0  0  0  0
 24 25  1  0  0  0  0
  7  8  1  0  0  0  0
  3  4  1  0  0  0  0
  3  5  1  0  0  0  0
  3  6  1  0  0  0  0
 28 31  1  0  0  0  0
 28 32  1  0  0  0  0
 28 33  1  0  0  0  0
 11 14  1  0  0  0  0
 11 15  1  0  0  0  0
 11 16  1  0  0  0  0
 35 37  1  0  0  0  0
 35 38  1  0  0  0  0
 35 39  1  0  0  0  0
 18 22  1  0  0  0  0
 18 23  1  0  0  0  0
 25 30  1  0  0  0  0
  8 13  1  0  0  0  0
 34 36  1  0  0  0  0
 17 21  1  0  0  0  0
  7 12  1  0  0  0  0
 24 29  1  0  0  0  0
M  END
$$$$

  -OEChem-05262214473D

 39 38  0     1  0  0  0  0  0999 V2000
   -3.5200   -4.0268   -1.6943 C   0  0  0  0  0  0  0  0  0  0  0  0
   -2.8702   -4.8827   -1.1054 O   0  0  0  0  0  0  0  0  0  0  0  0
   -4.9704   -4.2579   -1.9614 C   0  0  0  0  0  0  0  0  0  0  0  0
   -5.1456   -4.7573   -2.9278 H   0  0  0  0  0  0  0  0  0  0  0  0
   -5.4379   -4.9112   -1.2072 H   0  0  0  0  0  0  0  0  0  0  0  0
   -5.5954   -3.3510   -1.9864 H   0  0  0  0  0  0  0  0  0  0  0  0
   -3.0424   -2.8131   -2.1606 N   0  0  0  0  0  0  0  0  0  0  0  0
   -1.6755   -2.3891   -2.0077 C   0  0  2  0  0  0  0  0  0  0  0  0
   -1.5782   -1.5673   -0.7292 C   0  0  0  0  0  0  0  0  0  0  0  0
   -2.5448   -1.0064   -0.2171 O   0  0  0  0  0  0  0  0  0  0  0  0
   -1.2087   -1.5823   -3.2094 C   0  0  0  0  0  0  0  0  0  0  0  0
   -3.6915   -2.1888   -2.6360 H   0  0  0  0  0  0  0  0  0  0  0  0
   -1.0721   -3.2977   -1.9053 H   0  0  0  0  0  0  0  0  0  0  0  0
   -1.8017   -0.6681   -3.3281 H   0  0  0  0  0  0  0  0  0  0  0  0
   -0.1601   -1.2849   -3.1045 H   0  0  0  0  0  0  0  0  0  0  0  0
   -1.3074   -2.1646   -4.1319 H   0  0  0  0  0  0  0  0  0  0  0  0
   -0.2835   -1.5112   -0.2725 N   0  0  0  0  0  0  0  0  0  0  0  0
    0.0769   -0.7658    0.9424 C   0  0  0  0  0  0  0  0  0  0  0  0
    0.0668    0.7130    0.6501 C   0  0  0  0  0  0  0  0  0  0  0  0
   -0.4518    1.2004   -0.3509 O   0  0  0  0  0  0  0  0  0  0  0  0
    0.4587   -2.0097   -0.7289 H   0  0  0  0  0  0  0  0  0  0  0  0
    1.0758   -1.0701    1.2687 H   0  0  0  0  0  0  0  0  0  0  0  0
   -0.6465   -0.9928    1.7310 H   0  0  0  0  0  0  0  0  0  0  0  0
    0.7144    1.4362    1.6460 N   0  0  0  0  0  0  0  0  0  0  0  0
    0.8567    2.8682    1.6221 C   0  0  2  0  0  0  0  0  0  0  0  0
    0.2217    3.4252    2.8894 C   0  0  0  0  0  0  0  0  0  0  0  0
   -0.6308    2.8188    3.5348 O   0  0  0  0  0  0  0  0  0  0  0  0
    0.2118    3.4677    0.3822 C   0  0  0  0  0  0  0  0  0  0  0  0
    1.1087    0.9254    2.4342 H   0  0  0  0  0  0  0  0  0  0  0  0
    1.9316    3.0793    1.6283 H   0  0  0  0  0  0  0  0  0  0  0  0
   -0.8655    3.2664    0.3584 H   0  0  0  0  0  0  0  0  0  0  0  0
    0.3457    4.5541    0.3511 H   0  0  0  0  0  0  0  0  0  0  0  0
    0.6492    3.0440   -0.5282 H   0  0  0  0  0  0  0  0  0  0  0  0
    0.6875    4.6974    3.1908 N   0  0  0  0  0  0  0  0  0  0  0  0
    0.2275    5.4444    4.3381 C   0  0  0  0  0  0  0  0  0  0  0  0
    1.4087    5.1159    2.6108 H   0  0  0  0  0  0  0  0  0  0  0  0
   -0.6194    6.0824    4.0454 H   0  0  0  0  0  0  0  0  0  0  0  0
   -0.0942    4.7464    5.1251 H   0  0  0  0  0  0  0  0  0  0  0  0
    1.0460    6.0734    4.7181 H   0  0  0  0  0  0  0  0  0  0  0  0
  1  3  1  0  0  0  0
  1  7  1  0  0  0  0
  1  2  2  0  0  0  0
 18 19  1  0  0  0  0
 19 24  1  0  0  0  0
 19 20  2  0  0  0  0
 25 26  1  0  0  0  0
 26 34  1  0  0  0  0
 26 27  2  0  0  0  0
  8  9  1  0  0  0  0
  9 17  1  0  0  0  0
  9 10  2  0  0  0  0
 25 28  1  0  0  0  0
  8 11  1  0  0  0  0
 34 35  1  0  0  0  0
 17 18  1  0  0  0  0
 24 25  1  0  0  0  0
  7  8  1  0  0  0  0
  3  4  1  0  0  0  0
  3  5  1  0  0  0  0
  3  6  1  0  0  0  0
 28 31  1  0  0  0  0
 28 32  1  0  0  0  0
 28 33  1  0  0  0  0
 11 14  1  0  0  0  0
 11 15  1  0  0  0  0
 11 16  1  0  0  0  0
 35 37  1  0  0  0  0
 35 38  1  0  0  0  0
 35 39  1  0  0  0  0
 18 22  1  0  0  0  0
 18 23  1  0  0  0  0
 25 30  1  0  0  0  0
  8 13  1  0  0  0  0
 34 36  1  0  0  0  0
 17 21  1  0  0  0  0
  7 12  1  0  0  0  0
 24 29  1  0  0  0  0
M  END
$$$$

  -OEChem-05262214473D

 39 38  0     1  0  0  0  0  0999 V2000
   -3.5200   -4.0268   -1.6943 C   0  0  0  0  0  0  0  0  0  0  0  0
   -2.8702   -4.8827   -1.1054 O   0  0  0  0  0  0  0  0  0  0  0  0
   -4.9704   -4.2579   -1.9614 C   0  0  0  0  0  0  0  0  0  0  0  0
   -5.1456   -4.7573   -2.9278 H   0  0  0  0  0  0  0  0  0  0  0  0
   -5.4379   -4.9112   -1.2072 H   0  0  0  0  0  0  0  0  0  0  0  0
   -5.5954   -3.3510   -1.9864 H   0  0  0  0  0  0  0  0  0  0  0  0
   -3.0424   -2.8131   -2.1606 N   0  0  0  0  0  0  0  0  0  0  0  0
   -1.6755   -2.3891   -2.0077 C   0  0  2  0  0  0  0  0  0  0  0  0
   -1.5782   -1.5673   -0.7292 C   0  0  0  0  0  0  0  0  0  0  0  0
   -2.5448   -1.0064   -0.2171 O   0  0  0  0  0  0  0  0  0  0  0  0
   -1.2087   -1.5823   -3.2094 C   0  0  0  0  0  0  0  0  0  0  0  0
   -3.6915   -2.1888   -2.6360 H   0  0  0  0  0  0  0  0  0  0  0  0
   -1.0721   -3.2977   -1.9053 H   0  0  0  0  0  0  0  0  0  0  0  0
   -1.8017   -0.6681   -3.3281 H   0  0  0  0  0  0  0  0  0  0  0  0
   -0.1601   -1.2849   -3.1045 H   0  0  0  0  0  0  0  0  0  0  0  0
   -1.3074   -2.1646   -4.1319 H   0  0  0  0  0  0  0  0  0  0  0  0
   -0.2835   -1.5112   -0.2725 N   0  0  0  0  0  0  0  0  0  0  0  0
    0.0769   -0.7658    0.9424 C   0  0  0  0  0  0  0  0  0  0  0  0
    0.0668    0.7130    0.6501 C   0  0  0  0  0  0  0  0  0  0  0  0
   -0.6639    1.2307   -0.1904 O   0  0  0  0  0  0  0  0  0  0  0  0
    0.4587   -2.0097   -0.7289 H   0  0  0  0  0  0  0  0  0  0  0  0
    1.0758   -1.0701    1.2687 H   0  0  0  0  0  0  0  0  0  0  0  0
   -0.6465   -0.9928    1.7310 H   0  0  0  0  0  0  0  0  0  0  0  0
    0.9814    1.3979    1.4431 N   0  0  0  0  0  0  0  0  0  0  0  0
    1.1844    2.8210    1.3720 C   0  0  2  0  0  0  0  0  0  0  0  0
    0.9206    3.4033    2.7544 C   0  0  0  0  0  0  0  0  0  0  0  0
    0.2308    2.8376    3.6001 O   0  0  0  0  0  0  0  0  0  0  0  0
    0.2765    3.4582    0.3316 C   0  0  0  0  0  0  0  0  0  0  0  0
    1.5369    0.8641    2.1094 H   0  0  0  0  0  0  0  0  0  0  0  0
    2.2348    2.9776    1.1034 H   0  0  0  0  0  0  0  0  0  0  0  0
   -0.7801    3.3116    0.5837 H   0  0  0  0  0  0  0  0  0  0  0  0
    0.4523    4.5365    0.2586 H   0  0  0  0  0  0  0  0  0  0  0  0
    0.4466    3.0172   -0.6566 H   0  0  0  0  0  0  0  0  0  0  0  0
    1.5107    4.6488    2.9173 N   0  0  0  0  0  0  0  0  0  0  0  0
    1.3951    5.4127    4.1376 C   0  0  0  0  0  0  0  0  0  0  0  0
    2.0809    5.0332    2.1697 H   0  0  0  0  0  0  0  0  0  0  0  0
    0.5346    6.0940    4.0642 H   0  0  0  0  0  0  0  0  0  0  0  0
    1.2493    4.7281    4.9861 H   0  0  0  0  0  0  0  0  0  0  0  0
    2.3137    5.9978    4.2921 H   0  0  0  0  0  0  0  0  0  0  0  0
  1  3  1  0  0  0  0
  1  7  1  0  0  0  0
  1  2  2  0  0  0  0
 18 19  1  0  0  0  0
 19 24  1  0  0  0  0
 19 20  2  0  0  0  0
 25 26  1  0  0  0  0
 26 34  1  0  0  0  0
 26 27  2  0  0  0  0
  8  9  1  0  0  0  0
  9 17  1  0  0  0  0
  9 10  2  0  0  0  0
 25 28  1  0  0  0  0
  8 11  1  0  0  0  0
 34 35  1  0  0  0  0
 17 18  1  0  0  0  0
 24 25  1  0  0  0  0
  7  8  1  0  0  0  0
  3  4  1  0  0  0  0
  3  5  1  0  0  0  0
  3  6  1  0  0  0  0
 28 31  1  0  0  0  0
 28 32  1  0  0  0  0
 28 33  1  0  0  0  0
 11 14  1  0  0  0  0
 11 15  1  0  0  0  0
 11 16  1  0  0  0  0
 35 37  1  0  0  0  0
 35 38  1  0  0  0  0
 35 39  1  0  0  0  0
 18 22  1  0  0  0  0
 18 23  1  0  0  0  0
 25 30  1  0  0  0  0
  8 13  1  0  0  0  0
 34 36  1  0  0  0  0
 17 21  1  0  0  0  0
  7 12  1  0  0  0  0
 24 29  1  0  0  0  0
M  END
$$$$

  -OEChem-05262214473D

 39 38  0     1  0  0  0  0  0999 V2000
   -3.5200   -4.0268   -1.6943 C   0  0  0  0  0  0  0  0  0  0  0  0
   -2.8702   -4.8827   -1.1054 O   0  0  0  0  0  0  0  0  0  0  0  0
   -4.9704   -4.2579   -1.9614 C   0  0  0  0  0  0  0  0  0  0  0  0
   -5.1456   -4.7573   -2.9278 H   0  0  0  0  0  0  0  0  0  0  0  0
   -5.4379   -4.9112   -1.2072 H   0  0  0  0  0  0  0  0  0  0  0  0
   -5.5954   -3.3510   -1.9864 H   0  0  0  0  0  0  0  0  0  0  0  0
   -3.0424   -2.8131   -2.1606 N   0  0  0  0  0  0  0  0  0  0  0  0
   -1.6755   -2.3891   -2.0077 C   0  0  2  0  0  0  0  0  0  0  0  0
   -1.5782   -1.5673   -0.7292 C   0  0  0  0  0  0  0  0  0  0  0  0
   -2.5448   -1.0064   -0.2171 O   0  0  0  0  0  0  0  0  0  0  0  0
   -1.2087   -1.5823   -3.2094 C   0  0  0  0  0  0  0  0  0  0  0  0
   -3.6915   -2.1888   -2.6360 H   0  0  0  0  0  0  0  0  0  0  0  0
   -1.0721   -3.2977   -1.9053 H   0  0  0  0  0  0  0  0  0  0  0  0
   -1.8017   -0.6681   -3.3281 H   0  0  0  0  0  0  0  0  0  0  0  0
   -0.1601   -1.2849   -3.1045 H   0  0  0  0  0  0  0  0  0  0  0  0
   -1.3074   -2.1646   -4.1319 H   0  0  0  0  0  0  0  0  0  0  0  0
   -0.2835   -1.5112   -0.2725 N   0  0  0  0  0  0  0  0  0  0  0  0
    0.0769   -0.7658    0.9424 C   0  0  0  0  0  0  0  0  0  0  0  0
    0.0668    0.7130    0.6501 C   0  0  0  0  0  0  0  0  0  0  0  0
   -0.8266    1.2709    0.0184 O   0  0  0  0  0  0  0  0  0  0  0  0
    0.4587   -2.0097   -0.7289 H   0  0  0  0  0  0  0  0  0  0  0  0
    1.0758   -1.0701    1.2687 H   0  0  0  0  0  0  0  0  0  0  0  0
   -0.6465   -0.9928    1.7310 H   0  0  0  0  0  0  0  0  0  0  0  0
    1.1858    1.3471    1.1793 N   0  0  0  0  0  0  0  0  0  0  0  0
    1.4350    2.7585    1.0474 C   0  0  2  0  0  0  0  0  0  0  0  0
    1.5604    3.3467    2.4465 C   0  0  0  0  0  0  0  0  0  0  0  0
    1.0805    2.8125    3.4443 O   0  0  0  0  0  0  0  0  0  0  0  0
    0.3257    3.4456    0.2663 C   0  0  0  0  0  0  0  0  0  0  0  0
    1.8650    0.7828    1.6872 H   0  0  0  0  0  0  0  0  0  0  0  0
    2.3892    2.8632    0.5197 H   0  0  0  0  0  0  0  0  0  0  0  0
   -0.6382    3.3512    0.7796 H   0  0  0  0  0  0  0  0  0  0  0  0
    0.5309    4.5140    0.1422 H   0  0  0  0  0  0  0  0  0  0  0  0
    0.2171    3.0013   -0.7290 H   0  0  0  0  0  0  0  0  0  0  0  0
    2.2339    4.5602    2.4441 N   0  0  0  0  0  0  0  0  0  0  0  0
    2.4703    5.3231    3.6475 C   0  0  0  0  0  0  0  0  0  0  0  0
    2.6141    4.9189    1.5732 H   0  0  0  0  0  0  0  0  0  0  0  0
    1.6546    6.0472    3.7894 H   0  0  0  0  0  0  0  0  0  0  0  0
    2.5108    4.6427    4.5108 H   0  0  0  0  0  0  0  0  0  0  0  0
    3.4261    5.8604    3.5590 H   0  0  0  0  0  0  0  0  0  0  0  0
  1  3  1  0  0  0  0
  1  7  1  0  0  0  0
  1  2  2  0  0  0  0
 18 19  1  0  0  0  0
 19 24  1  0  0  0  0
 19 20  2  0  0  0  0
 25 26  1  0  0  0  0
 26 34  1  0  0  0  0
 26 27  2  0  0  0  0
  8  9  1  0  0  0  0
  9 17  1  0  0  0  0
  9 10  2  0  0  0  0
 25 28  1  0  0  0  0
  8 11  1  0  0  0  0
 34 35  1  0  0  0  0
 17 18  1  0  0  0  0
 24 25  1  0  0  0  0
  7  8  1  0  0  0  0
  3  4  1  0  0  0  0
  3  5  1  0  0  0  0
  3  6  1  0  0  0  0
 28 31  1  0  0  0  0
 28 32  1  0  0  0  0
 28 33  1  0  0  0  0
 11 14  1  0  0  0  0
 11 15  1  0  0  0  0
 11 16  1  0  0  0  0
 35 37  1  0  0  0  0
 35 38  1  0  0  0  0
 35 39  1  0  0  0  0
 18 22  1  0  0  0  0
 18 23  1  0  0  0  0
 25 30  1  0  0  0  0
  8 13  1  0  0  0  0
 34 36  1  0  0  0  0
 17 21  1  0  0  0  0
  7 12  1  0  0  0  0
 24 29  1  0  0  0  0
M  END
$$$$

  -OEChem-05262214473D

 39 38  0     1  0  0  0  0  0999 V2000
   -3.5200   -4.0268   -1.6943 C   0  0  0  0  0  0  0  0  0  0  0  0
   -2.8702   -4.8827   -1.1054 O   0  0  0  0  0  0  0  0  0  0  0  0
   -4.9704   -4.2579   -1.9614 C   0  0  0  0  0  0  0  0  0  0  0  0
   -5.1456   -4.7573   -2.9278 H   0  0  0  0  0  0  0  0  0  0  0  0
   -5.4379   -4.9112   -1.2072 H   0  0  0  0  0  0  0  0  0  0  0  0
   -5.5954   -3.3510   -1.9864 H   0  0  0  0  0  0  0  0  0  0  0  0
   -3.0424   -2.8131   -2.1606 N   0  0  0  0  0  0  0  0  0  0  0  0
   -1.6755   -2.3891   -2.0077 C   0  0  2  0  0  0  0  0  0  0  0  0
   -1.5782   -1.5673   -0.7292 C   0  0  0  0  0  0  0  0  0  0  0  0
   -2.5448   -1.0064   -0.2171 O   0  0  0  0  0  0  0  0  0  0  0  0
   -1.2087   -1.5823   -3.2094 C   0  0  0  0  0  0  0  0  0  0  0  0
   -3.6915   -2.1888   -2.6360 H   0  0  0  0  0  0  0  0  0  0  0  0
   -1.0721   -3.2977   -1.9053 H   0  0  0  0  0  0  0  0  0  0  0  0
   -1.8017   -0.6681   -3.3281 H   0  0  0  0  0  0  0  0  0  0  0  0
   -0.1601   -1.2849   -3.1045 H   0  0  0  0  0  0  0  0  0  0  0  0
   -1.3074   -2.1646   -4.1319 H   0  0  0  0  0  0  0  0  0  0  0  0
   -0.2835   -1.5112   -0.2725 N   0  0  0  0  0  0  0  0  0  0  0  0
    0.0769   -0.7658    0.9424 C   0  0  0  0  0  0  0  0  0  0  0  0
    0.0668    0.7130    0.6501 C   0  0  0  0  0  0  0  0  0  0  0  0
   -0.9286    1.3182    0.2614 O   0  0  0  0  0  0  0  0  0  0  0  0
    0.4587   -2.0097   -0.7289 H   0  0  0  0  0  0  0  0  0  0  0  0
    1.0758   -1.0701    1.2687 H   0  0  0  0  0  0  0  0  0  0  0  0
   -0.6465   -0.9928    1.7310 H   0  0  0  0  0  0  0  0  0  0  0  0
    1.3138    1.2874    0.8727 N   0  0  0  0  0  0  0  0  0  0  0  0
    1.5915    2.6850    0.6702 C   0  0  2  0  0  0  0  0  0  0  0  0
    2.0973    3.2595    1.9869 C   0  0  0  0  0  0  0  0  0  0  0  0
    1.8605    2.7454    3.0781 O   0  0  0  0  0  0  0  0  0  0  0  0
    0.3560    3.4308    0.1907 C   0  0  0  0  0  0  0  0  0  0  0  0
    2.0706    0.6871    1.1961 H   0  0  0  0  0  0  0  0  0  0  0  0
    2.3845    2.7440   -0.0833 H   0  0  0  0  0  0  0  0  0  0  0  0
   -0.4494    3.3828    0.9326 H   0  0  0  0  0  0  0  0  0  0  0  0
    0.5761    4.4881    0.0099 H   0  0  0  0  0  0  0  0  0  0  0  0
   -0.0239    2.9974   -0.7407 H   0  0  0  0  0  0  0  0  0  0  0  0
    2.8079    4.4374    1.8036 N   0  0  0  0  0  0  0  0  0  0  0  0
    3.3800    5.1817    2.9012 C   0  0  0  0  0  0  0  0  0  0  0  0
    2.9720    4.7806    0.8617 H   0  0  0  0  0  0  0  0  0  0  0  0
    2.6643    5.9454    3.2396 H   0  0  0  0  0  0  0  0  0  0  0  0
    3.6043    4.4960    3.7316 H   0  0  0  0  0  0  0  0  0  0  0  0
    4.3076    5.6705    2.5686 H   0  0  0  0  0  0  0  0  0  0  0  0
  1  3  1  0  0  0  0
  1  7  1  0  0  0  0
  1  2  2  0  0  0  0
 18 19  1  0  0  0  0
 19 24  1  0  0  0  0
 19 20  2  0  0  0  0
 25 26  1  0  0  0  0
 26 34  1  0  0  0  0
 26 27  2  0  0  0  0
  8  9  1  0  0  0  0
  9 17  1  0  0  0  0
  9 10  2  0  0  0  0
 25 28  1  0  0  0  0
  8 11  1  0  0  0  0
 34 35  1  0  0  0  0
 17 18  1  0  0  0  0
 24 25  1  0  0  0  0
  7  8  1  0  0  0  0
  3  4  1  0  0  0  0
  3  5  1  0  0  0  0
  3  6  1  0  0  0  0
 28 31  1  0  0  0  0
 28 32  1  0  0  0  0
 28 33  1  0  0  0  0
 11 14  1  0  0  0  0
 11 15  1  0  0  0  0
 11 16  1  0  0  0  0
 35 37  1  0  0  0  0
 35 38  1  0  0  0  0
 35 39  1  0  0  0  0
 18 22  1  0  0  0  0
 18 23  1  0  0  0  0
 25 30  1  0  0  0  0
  8 13  1  0  0  0  0
 34 36  1  0  0  0  0
 17 21  1  0  0  0  0
  7 12  1  0  0  0  0
 24 29  1  0  0  0  0
M  END
$$$$

  -OEChem-05262214473D

 39 38  0     1  0  0  0  0  0999 V2000
   -3.5200   -4.0268   -1.6943 C   0  0  0  0  0  0  0  0  0  0  0  0
   -2.8702   -4.8827   -1.1054 O   0  0  0  0  0  0  0  0  0  0  0  0
   -4.9704   -4.2579   -1.9614 C   0  0  0  0  0  0  0  0  0  0  0  0
   -5.1456   -4.7573   -2.9278 H   0  0  0  0  0  0  0  0  0  0  0  0
   -5.4379   -4.9112   -1.2072 H   0  0  0  0  0  0  0  0  0  0  0  0
   -5.5954   -3.3510   -1.9864 H   0  0  0  0  0  0  0  0  0  0  0  0
   -3.0424   -2.8131   -2.1606 N   0  0  0  0  0  0  0  0  0  0  0  0
   -1.6755   -2.3891   -2.0077 C   0  0  2  0  0  0  0  0  0  0  0  0
   -1.5782   -1.5673   -0.7292 C   0  0  0  0  0  0  0  0  0  0  0  0
   -2.5448   -1.0064   -0.2171 O   0  0  0  0  0  0  0  0  0  0  0  0
   -1.2087   -1.5823   -3.2094 C   0  0  0  0  0  0  0  0  0  0  0  0
   -3.6915   -2.1888   -2.6360 H   0  0  0  0  0  0  0  0  0  0  0  0
   -1.0721   -3.2977   -1.9053 H   0  0  0  0  0  0  0  0  0  0  0  0
   -1.8017   -0.6681   -3.3281 H   0  0  0  0  0  0  0  0  0  0  0  0
   -0.1601   -1.2849   -3.1045 H   0  0  0  0  0  0  0  0  0  0  0  0
   -1.3074   -2.1646   -4.1319 H   0  0  0  0  0  0  0  0  0  0  0  0
   -0.2835   -1.5112   -0.2725 N   0  0  0  0  0  0  0  0  0  0  0  0
    0.0769   -0.7658    0.9424 C   0  0  0  0  0  0  0  0  0  0  0  0
    0.0668    0.7130    0.6501 C   0  0  0  0  0  0  0  0  0  0  0  0
   -0.9632    1.3695    0.5218 O   0  0  0  0  0  0  0  0  0  0  0  0
    0.4587   -2.0097   -0.7289 H   0  0  0  0  0  0  0  0  0  0  0  0
    1.0758   -1.0701    1.2687 H   0  0  0  0  0  0  0  0  0  0  0  0
   -0.6465   -0.9928    1.7310 H   0  0  0  0  0  0  0  0  0  0  0  0
    1.3565    1.2227    0.5441 N   0  0  0  0  0  0  0  0  0  0  0  0
    1.6432    2.6055    0.2663 C   0  0  2  0  0  0  0  0  0  0  0  0
    2.4949    3.1475    1.4067 C   0  0  0  0  0  0  0  0  0  0  0  0
    2.5175    2.6408    2.5265 O   0  0  0  0  0  0  0  0  0  0  0  0
    0.3653    3.4150    0.1101 C   0  0  0  0  0  0  0  0  0  0  0  0
    2.1397    0.5835    0.6697 H   0  0  0  0  0  0  0  0  0  0  0  0
    2.2208    2.6280   -0.6642 H   0  0  0  0  0  0  0  0  0  0  0  0
   -0.2267    3.4041    1.0325 H   0  0  0  0  0  0  0  0  0  0  0  0
    0.5848    4.4607   -0.1294 H   0  0  0  0  0  0  0  0  0  0  0  0
   -0.2598    3.0057   -0.6909 H   0  0  0  0  0  0  0  0  0  0  0  0
    3.1936    4.2889    1.0393 N   0  0  0  0  0  0  0  0  0  0  0  0
    4.0622    4.9982    1.9496 C   0  0  0  0  0  0  0  0  0  0  0  0
    3.1300    4.6279    0.0839 H   0  0  0  0  0  0  0  0  0  0  0  0
    3.4949    5.7954    2.4523 H   0  0  0  0  0  0  0  0  0  0  0  0
    4.4554    4.2981    2.7015 H   0  0  0  0  0  0  0  0  0  0  0  0
    4.8981    5.4412    1.3884 H   0  0  0  0  0  0  0  0  0  0  0  0
  1  3  1  0  0  0  0
  1  7  1  0  0  0  0
  1  2  2  0  0  0  0
 18 19  1  0  0  0  0
 19 24  1  0  0  0  0
 19 20  2  0  0  0  0
 25 26  1  0  0  0  0
 26 34  1  0  0  0  0
 26 27  2  0  0  0  0
  8  9  1  0  0  0  0
  9 17  1  0  0  0  0
  9 10  2  0  0  0  0
 25 28  1  0  0  0  0
  8 11  1  0  0  0  0
 34 35  1  0  0  0  0
 17 18  1  0  0  0  0
 24 25  1  0  0  0  0
  7  8  1  0  0  0  0
  3  4  1  0  0  0  0
  3  5  1  0  0  0  0
  3  6  1  0  0  0  0
 28 31  1  0  0  0  0
 28 32  1  0  0  0  0
 28 33  1  0  0  0  0
 11 14  1  0  0  0  0
 11 15  1  0  0  0  0
 11 16  1  0  0  0  0
 35 37  1  0  0  0  0
 35 38  1  0  0  0  0
 35 39  1  0  0  0  0
 18 22  1  0  0  0  0
 18 23  1  0  0  0  0
 25 30  1  0  0  0  0
  8 13  1  0  0  0  0
 34 36  1  0  0  0  0
 17 21  1  0  0  0  0
  7 12  1  0  0  0  0
 24 29  1  0  0  0  0
M  END
$$$$

  -OEChem-05262214473D

 39 38  0     1  0  0  0  0  0999 V2000
   -3.5200   -4.0268   -1.6943 C   0  0  0  0  0  0  0  0  0  0  0  0
   -2.8702   -4.8827   -1.1054 O   0  0  0  0  0  0  0  0  0  0  0  0
   -4.9704   -4.2579   -1.9614 C   0  0  0  0  0  0  0  0  0  0  0  0
   -5.1456   -4.7573   -2.9278 H   0  0  0  0  0  0  0  0  0  0  0  0
   -5.4379   -4.9112   -1.2072 H   0  0  0  0  0  0  0  0  0  0  0  0
   -5.5954   -3.3510   -1.9864 H   0  0  0  0  0  0  0  0  0  0  0  0
   -3.0424   -2.8131   -2.1606 N   0  0  0  0  0  0  0  0  0  0  0  0
   -1.6755   -2.3891   -2.0077 C   0  0  2  0  0  0  0  0  0  0  0  0
   -1.5782   -1.5673   -0.7292 C   0  0  0  0  0  0  0  0  0  0  0  0
   -2.5448   -1.0064   -0.2171 O   0  0  0  0  0  0  0  0  0  0  0  0
   -1.2087   -1.5823   -3.2094 C   0  0  0  0  0  0  0  0  0  0  0  0
   -3.6915   -2.1888   -2.6360 H   0  0  0  0  0  0  0  0  0  0  0  0
   -1.0721   -3.2977   -1.9053 H   0  0  0  0  0  0  0  0  0  0  0  0
   -1.8017   -0.6681   -3.3281 H   0  0  0  0  0  0  0  0  0  0  0  0
   -0.1601   -1.2849   -3.1045 H   0  0  0  0  0  0  0  0  0  0  0  0
   -1.3074   -2.1646   -4.1319 H   0  0  0  0  0  0  0  0  0  0  0  0
   -0.2835   -1.5112   -0.2725 N   0  0  0  0  0  0  0  0  0  0  0  0
    0.0769   -0.7658    0.9424 C   0  0  0  0  0  0  0  0  0  0  0  0
    0.0668    0.7130    0.6501 C   0  0  0  0  0  0  0  0  0  0  0  0
   -0.9278    1.4212    0.7821 O   0  0  0  0  0  0  0  0  0  0  0  0
    0.4587   -2.0097   -0.7289 H   0  0  0  0  0  0  0  0  0  0  0  0
    1.0758   -1.0701    1.2687 H   0  0  0  0  0  0  0  0  0  0  0  0
   -0.6465   -0.9928    1.7310 H   0  0  0  0  0  0  0  0  0  0  0  0
    1.3112    1.1575    0.2160 N   0  0  0  0  0  0  0  0  0  0  0  0
    1.5867    2.5254   -0.1368 C   0  0  2  0  0  0  0  0  0  0  0  0
    2.7260    3.0183    0.7455 C   0  0  0  0  0  0  0  0  0  0  0  0
    3.0069    2.5058    1.8270 O   0  0  0  0  0  0  0  0  0  0  0  0
    0.3531    3.3990    0.0298 C   0  0  0  0  0  0  0  0  0  0  0  0
    2.0676    0.4791    0.1440 H   0  0  0  0  0  0  0  0  0  0  0  0
    1.9094    2.5232   -1.1836 H   0  0  0  0  0  0  0  0  0  0  0  0
    0.0150    3.4136    1.0724 H   0  0  0  0  0  0  0  0  0  0  0  0
    0.5566    4.4334   -0.2661 H   0  0  0  0  0  0  0  0  0  0  0  0
   -0.4746    3.0256   -0.5828 H   0  0  0  0  0  0  0  0  0  0  0  0
    3.3647    4.1248    0.2035 N   0  0  0  0  0  0  0  0  0  0  0  0
    4.4702    4.7850    0.8576 C   0  0  0  0  0  0  0  0  0  0  0  0
    3.0776    4.4711   -0.7073 H   0  0  0  0  0  0  0  0  0  0  0  0
    4.0898    5.6074    1.4813 H   0  0  0  0  0  0  0  0  0  0  0  0
    5.0060    4.0624    1.4907 H   0  0  0  0  0  0  0  0  0  0  0  0
    5.1573    5.1880    0.0990 H   0  0  0  0  0  0  0  0  0  0  0  0
  1  3  1  0  0  0  0
  1  7  1  0  0  0  0
  1  2  2  0  0  0  0
 18 19  1  0  0  0  0
 19 24  1  0  0  0  0
 19 20  2  0  0  0  0
 25 26  1  0  0  0  0
 26 34  1  0  0  0  0
 26 27  2  0  0  0  0
  8  9  1  0  0  0  0
  9 17  1  0  0  0  0
  9 10  2  0  0  0  0
 25 28  1  0  0  0  0
  8 11  1  0  0  0  0
 34 35  1  0  0  0  0
 17 18  1  0  0  0  0
 24 25  1  0  0  0  0
  7  8  1  0  0  0  0
  3  4  1  0  0  0  0
  3  5  1  0  0  0  0
  3  6  1  0  0  0  0
 28 31  1  0  0  0  0
 28 32  1  0  0  0  0
 28 33  1  0  0  0  0
 11 14  1  0  0  0  0
 11 15  1  0  0  0  0
 11 16  1  0  0  0  0
 35 37  1  0  0  0  0
 35 38  1  0  0  0  0
 35 39  1  0  0  0  0
 18 22  1  0  0  0  0
 18 23  1  0  0  0  0
 25 30  1  0  0  0  0
  8 13  1  0  0  0  0
 34 36  1  0  0  0  0
 17 21  1  0  0  0  0
  7 12  1  0  0  0  0
 24 29  1  0  0  0  0
M  END
$$$$

  -OEChem-05262214473D

 39 38  0     1  0  0  0  0  0999 V2000
   -3.5200   -4.0268   -1.6943 C   0  0  0  0  0  0  0  0  0  0  0  0
   -2.8702   -4.8827   -1.1054 O   0  0  0  0  0  0  0  0  0  0  0  0
   -4.9704   -4.2579   -1.9614 C   0  0  0  0  0  0  0  0  0  0  0  0
   -5.1456   -4.7573   -2.9278 H   0  0  0  0  0  0  0  0  0  0  0  0
   -5.4379   -4.9112   -1.2072 H   0  0  0  0  0  0  0  0  0  0  0  0
   -5.5954   -3.3510   -1.9864 H   0  0  0  0  0  0  0  0  0  0  0  0
   -3.0424   -2.8131   -2.1606 N   0  0  0  0  0  0  0  0  0  0  0  0
   -1.6755   -2.3891   -2.0077 C   0  0  2  0  0  0  0  0  0  0  0  0
   -1.5782   -1.5673   -0.7292 C   0  0  0  0  0  0  0  0  0  0  0  0
   -2.5448   -1.0064   -0.2171 O   0  0  0  0  0  0  0  0  0  0  0  0
   -1.2087   -1.5823   -3.2094 C   0  0  0  0  0  0  0  0  0  0  0  0
   -3.6915   -2.1888   -2.6360 H   0  0  0  0  0  0  0  0  0  0  0  0
   -1.0721   -3.2977   -1.9053 H   0  0  0  0  0  0  0  0  0  0  0  0
   -1.8017   -0.6681   -3.3281 H   0  0  0  0  0  0  0  0  0  0  0  0
   -0.1601   -1.2849   -3.1045 H   0  0  0  0  0  0  0  0  0  0  0  0
   -1.3074   -2.1646   -4.1319 H   0  0  0  0  0  0  0  0  0  0  0  0
   -0.2835   -1.5112   -0.2725 N   0  0  0  0  0  0  0  0  0  0  0  0
    0.0769   -0.7658    0.9424 C   0  0  0  0  0  0  0  0  0  0  0  0
    0.0668    0.7130    0.6501 C   0  0  0  0  0  0  0  0  0  0  0  0
   -0.8250    1.4698    1.0245 O   0  0  0  0  0  0  0  0  0  0  0  0
    0.4587   -2.0097   -0.7289 H   0  0  0  0  0  0  0  0  0  0  0  0
    1.0758   -1.0701    1.2687 H   0  0  0  0  0  0  0  0  0  0  0  0
   -0.6465   -0.9928    1.7310 H   0  0  0  0  0  0  0  0  0  0  0  0
    1.1808    1.0963   -0.0893 N   0  0  0  0  0  0  0  0  0  0  0  0
    1.4257    2.4502   -0.5117 C   0  0  2  0  0  0  0  0  0  0  0  0
    2.7749    2.8808    0.0484 C   0  0  0  0  0  0  0  0  0  0  0  0
    3.2952    2.3497    1.0273 O   0  0  0  0  0  0  0  0  0  0  0  0
    0.3201    3.3841   -0.0445 C   0  0  0  0  0  0  0  0  0  0  0  0
    1.8592    0.3809   -0.3454 H   0  0  0  0  0  0  0  0  0  0  0  0
    1.4714    2.4367   -1.6061 H   0  0  0  0  0  0  0  0  0  0  0  0
    0.2590    3.4107    1.0495 H   0  0  0  0  0  0  0  0  0  0  0  0
    0.4932    4.4083   -0.3909 H   0  0  0  0  0  0  0  0  0  0  0  0
   -0.6536    3.0558   -0.4239 H   0  0  0  0  0  0  0  0  0  0  0  0
    3.3094    3.9563   -0.6471 N   0  0  0  0  0  0  0  0  0  0  0  0
    4.5764    4.5568   -0.3004 C   0  0  0  0  0  0  0  0  0  0  0  0
    2.8182    4.3209   -1.4579 H   0  0  0  0  0  0  0  0  0  0  0  0
    4.4084    5.3943    0.3926 H   0  0  0  0  0  0  0  0  0  0  0  0
    5.2186    3.8051    0.1818 H   0  0  0  0  0  0  0  0  0  0  0  0
    5.0676    4.9281   -1.2119 H   0  0  0  0  0  0  0  0  0  0  0  0
  1  3  1  0  0  0  0
  1  7  1  0  0  0  0
  1  2  2  0  0  0  0
 18 19  1  0  0  0  0
 19 24  1  0  0  0  0
 19 20  2  0  0  0  0
 25 26  1  0  0  0  0
 26 34  1  0  0  0  0
 26 27  2  0  0  0  0
  8  9  1  0  0  0  0
  9 17  1  0  0  0  0
  9 10  2  0  0  0  0
 25 28  1  0  0  0  0
  8 11  1  0  0  0  0
 34 35  1  0  0  0  0
 17 18  1  0  0  0  0
 24 25  1  0  0  0  0
  7  8  1  0  0  0  0
  3  4  1  0  0  0  0
  3  5  1  0  0  0  0
  3  6  1  0  0  0  0
 28 31  1  0  0  0  0
 28 32  1  0  0  0  0
 28 33  1  0  0  0  0
 11 14  1  0  0  0  0
 11 15  1  0  0  0  0
 11 16  1  0  0  0  0
 35 37  1  0  0  0  0
 35 38  1  0  0  0  0
 35 39  1  0  0  0  0
 18 22  1  0  0  0  0
 18 23  1  0  0  0  0
 25 30  1  0  0  0  0
  8 13  1  0  0  0  0
 34 36  1  0  0  0  0
 17 21  1  0  0  0  0
  7 12  1  0  0  0  0
 24 29  1  0  0  0  0
M  END
$$$$

  -OEChem-05262214473D

 39 38  0     1  0  0  0  0  0999 V2000
   -3.5200   -4.0268   -1.6943 C   0  0  0  0  0  0  0  0  0  0  0  0
   -2.8702   -4.8827   -1.1054 O   0  0  0  0  0  0  0  0  0  0  0  0
   -4.9704   -4.2579   -1.9614 C   0  0  0  0  0  0  0  0  0  0  0  0
   -5.1456   -4.7573   -2.9278 H   0  0  0  0  0  0  0  0  0  0  0  0
   -5.4379   -4.9112   -1.2072 H   0  0  0  0  0  0  0  0  0  0  0  0
   -5.5954   -3.3510   -1.9864 H   0  0  0  0  0  0  0  0  0  0  0  0
   -3.0424   -2.8131   -2.1606 N   0  0  0  0  0  0  0  0  0  0  0  0
   -1.6755   -2.3891   -2.0077 C   0  0  2  0  0  0  0  0  0  0  0  0
   -1.5782   -1.5673   -0.7292 C   0  0  0  0  0  0  0  0  0  0  0  0
   -2.5448   -1.0064   -0.2171 O   0  0  0  0  0  0  0  0  0  0  0  0
   -1.2087   -1.5823   -3.2094 C   0  0  0  0  0  0  0  0  0  0  0  0
   -3.6915   -2.1888   -2.6360 H   0  0  0  0  0  0  0  0  0  0  0  0
   -1.0721   -3.2977   -1.9053 H   0  0  0  0  0  0  0  0  0  0  0  0
   -1.8017   -0.6681   -3.3281 H   0  0  0  0  0  0  0  0  0  0  0  0
   -0.1601   -1.2849   -3.1045 H   0  0  0  0  0  0  0  0  0  0  0  0
   -1.3074   -2.1646   -4.1319 H   0  0  0  0  0  0  0  0  0  0  0  0
   -0.2835   -1.5112   -0.2725 N   0  0  0  0  0  0  0  0  0  0  0  0
    0.0769   -0.7658    0.9424 C   0  0  0  0  0  0  0  0  0  0  0  0
    0.0668    0.7130    0.6501 C   0  0  0  0  0  0  0  0  0  0  0  0
   -0.6617    1.5120    1.2324 O   0  0  0  0  0  0  0  0  0  0  0  0
    0.4587   -2.0097   -0.7289 H   0  0  0  0  0  0  0  0  0  0  0  0
    1.0758   -1.0701    1.2687 H   0  0  0  0  0  0  0  0  0  0  0  0
   -0.6465   -0.9928    1.7310 H   0  0  0  0  0  0  0  0  0  0  0  0
    0.9742    1.0431   -0.3510 N   0  0  0  0  0  0  0  0  0  0  0  0
    1.1712    2.3849   -0.8328 C   0  0  2  0  0  0  0  0  0  0  0  0
    2.6382    2.7443   -0.6371 C   0  0  0  0  0  0  0  0  0  0  0  0
    3.3628    2.1830    0.1820 O   0  0  0  0  0  0  0  0  0  0  0  0
    0.2686    3.3712   -0.1080 C   0  0  0  0  0  0  0  0  0  0  0  0
    1.5288    0.2957   -0.7651 H   0  0  0  0  0  0  0  0  0  0  0  0
    0.9368    2.3744   -1.9028 H   0  0  0  0  0  0  0  0  0  0  0  0
    0.4887    3.3957    0.9655 H   0  0  0  0  0  0  0  0  0  0  0  0
    0.3990    4.3870   -0.4953 H   0  0  0  0  0  0  0  0  0  0  0  0
   -0.7847    3.0942   -0.2250 H   0  0  0  0  0  0  0  0  0  0  0  0
    3.0317    3.7948   -1.4543 N   0  0  0  0  0  0  0  0  0  0  0  0
    4.3735    4.3290   -1.4456 C   0  0  0  0  0  0  0  0  0  0  0  0
    2.3695    4.1876   -2.1168 H   0  0  0  0  0  0  0  0  0  0  0  0
    4.4291    5.1706   -0.7395 H   0  0  0  0  0  0  0  0  0  0  0  0
    5.0787    3.5435   -1.1360 H   0  0  0  0  0  0  0  0  0  0  0  0
    4.6351    4.6794   -2.4549 H   0  0  0  0  0  0  0  0  0  0  0  0
  1  3  1  0  0  0  0
  1  7  1  0  0  0  0
  1  2  2  0  0  0  0
 18 19  1  0  0  0  0
 19 24  1  0  0  0  0
 19 20  2  0  0  0  0
 25 26  1  0  0  0  0
 26 34  1  0  0  0  0
 26 27  2  0  0  0  0
  8  9  1  0  0  0  0
  9 17  1  0  0  0  0
  9 10  2  0  0  0  0
 25 28  1  0  0  0  0
  8 11  1  0  0  0  0
 34 35  1  0  0  0  0
 17 18  1  0  0  0  0
 24 25  1  0  0  0  0
  7  8  1  0  0  0  0
  3  4  1  0  0  0  0
  3  5  1  0  0  0  0
  3  6  1  0  0  0  0
 28 31  1  0  0  0  0
 28 32  1  0  0  0  0
 28 33  1  0  0  0  0
 11 14  1  0  0  0  0
 11 15  1  0  0  0  0
 11 16  1  0  0  0  0
 35 37  1  0  0  0  0
 35 38  1  0  0  0  0
 35 39  1  0  0  0  0
 18 22  1  0  0  0  0
 18 23  1  0  0  0  0
 25 30  1  0  0  0  0
  8 13  1  0  0  0  0
 34 36  1  0  0  0  0
 17 21  1  0  0  0  0
  7 12  1  0  0  0  0
 24 29  1  0  0  0  0
M  END
$$$$

  -OEChem-05262214473D

 39 38  0     1  0  0  0  0  0999 V2000
   -3.5200   -4.0268   -1.6943 C   0  0  0  0  0  0  0  0  0  0  0  0
   -2.8702   -4.8827   -1.1054 O   0  0  0  0  0  0  0  0  0  0  0  0
   -4.9704   -4.2579   -1.9614 C   0  0  0  0  0  0  0  0  0  0  0  0
   -5.1456   -4.7573   -2.9278 H   0  0  0  0  0  0  0  0  0  0  0  0
   -5.4379   -4.9112   -1.2072 H   0  0  0  0  0  0  0  0  0  0  0  0
   -5.5954   -3.3510   -1.9864 H   0  0  0  0  0  0  0  0  0  0  0  0
   -3.0424   -2.8131   -2.1606 N   0  0  0  0  0  0  0  0  0  0  0  0
   -1.6755   -2.3891   -2.0077 C   0  0  2  0  0  0  0  0  0  0  0  0
   -1.5782   -1.5673   -0.7292 C   0  0  0  0  0  0  0  0  0  0  0  0
   -2.5448   -1.0064   -0.2171 O   0  0  0  0  0  0  0  0  0  0  0  0
   -1.2087   -1.5823   -3.2094 C   0  0  0  0  0  0  0  0  0  0  0  0
   -3.6915   -2.1888   -2.6360 H   0  0  0  0  0  0  0  0  0  0  0  0
   -1.0721   -3.2977   -1.9053 H   0  0  0  0  0  0  0  0  0  0  0  0
   -1.8017   -0.6681   -3.3281 H   0  0  0  0  0  0  0  0  0  0  0  0
   -0.1601   -1.2849   -3.1045 H   0  0  0  0  0  0  0  0  0  0  0  0
   -1.3074   -2.1646   -4.1319 H   0  0  0  0  0  0  0  0  0  0  0  0
   -0.2835   -1.5112   -0.2725 N   0  0  0  0  0  0  0  0  0  0  0  0
    0.0769   -0.7658    0.9424 C   0  0  0  0  0  0  0  0  0  0  0  0
    0.0668    0.7130    0.6501 C   0  0  0  0  0  0  0  0  0  0  0  0
   -0.4491    1.5450    1.3917 O   0  0  0  0  0  0  0  0  0  0  0  0
    0.4587   -2.0097   -0.7289 H   0  0  0  0  0  0  0  0  0  0  0  0
    1.0758   -1.0701    1.2687 H   0  0  0  0  0  0  0  0  0  0  0  0
   -0.6465   -0.9928    1.7310 H   0  0  0  0  0  0  0  0  0  0  0  0
    0.7056    1.0017   -0.5512 N   0  0  0  0  0  0  0  0  0  0  0  0
    0.8406    2.3342   -1.0782 C   0  0  2  0  0  0  0  0  0  0  0  0
    2.3252    2.6182   -1.2643 C   0  0  0  0  0  0  0  0  0  0  0  0
    3.2051    2.0171   -0.6514 O   0  0  0  0  0  0  0  0  0  0  0  0
    0.2021    3.3612   -0.1561 C   0  0  0  0  0  0  0  0  0  0  0  0
    1.0987    0.2292   -1.0863 H   0  0  0  0  0  0  0  0  0  0  0  0
    0.3419    2.3405   -2.0536 H   0  0  0  0  0  0  0  0  0  0  0  0
    0.6885    3.3694    0.8261 H   0  0  0  0  0  0  0  0  0  0  0  0
    0.2805    4.3710   -0.5723 H   0  0  0  0  0  0  0  0  0  0  0  0
   -0.8589    3.1383    0.0003 H   0  0  0  0  0  0  0  0  0  0  0  0
    2.5503    3.6513   -2.1632 N   0  0  0  0  0  0  0  0  0  0  0  0
    3.8753    4.1171   -2.4998 C   0  0  0  0  0  0  0  0  0  0  0  0
    1.7620    4.0802   -2.6391 H   0  0  0  0  0  0  0  0  0  0  0  0
    4.1504    4.9515   -1.8379 H   0  0  0  0  0  0  0  0  0  0  0  0
    4.5958    3.2957   -2.3729 H   0  0  0  0  0  0  0  0  0  0  0  0
    3.8892    4.4588   -3.5453 H   0  0  0  0  0  0  0  0  0  0  0  0
  1  3  1  0  0  0  0
  1  7  1  0  0  0  0
  1  2  2  0  0  0  0
 18 19  1  0  0  0  0
 19 24  1  0  0  0  0
 19 20  2  0  0  0  0
 25 26  1  0  0  0  0
 26 34  1  0  0  0  0
 26 27  2  0  0  0  0
  8  9  1  0  0  0  0
  9 17  1  0  0  0  0
  9 10  2  0  0  0  0
 25 28  1  0  0  0  0
  8 11  1  0  0  0  0
 34 35  1  0  0  0  0
 17 18  1  0  0  0  0
 24 25  1  0  0  0  0
  7  8  1  0  0  0  0
  3  4  1  0  0  0  0
  3  5  1  0  0  0  0
  3  6  1  0  0  0  0
 28 31  1  0  0  0  0
 28 32  1  0  0  0  0
 28 33  1  0  0  0  0
 11 14  1  0  0  0  0
 11 15  1  0  0  0  0
 11 16  1  0  0  0  0
 35 37  1  0  0  0  0
 35 38  1  0  0  0  0
 35 39  1  0  0  0  0
 18 22  1  0  0  0  0
 18 23  1  0  0  0  0
 25 30  1  0  0  0  0
  8 13  1  0  0  0  0
 34 36  1  0  0  0  0
 17 21  1  0  0  0  0
  7 12  1  0  0  0  0
 24 29  1  0  0  0  0
M  END
$$$$

  -OEChem-05262214473D

 39 38  0     1  0  0  0  0  0999 V2000
   -3.5200   -4.0268   -1.6943 C   0  0  0  0  0  0  0  0  0  0  0  0
   -2.8702   -4.8827   -1.1054 O   0  0  0  0  0  0  0  0  0  0  0  0
   -4.9704   -4.2579   -1.9614 C   0  0  0  0  0  0  0  0  0  0  0  0
   -5.1456   -4.7573   -2.9278 H   0  0  0  0  0  0  0  0  0  0  0  0
   -5.4379   -4.9112   -1.2072 H   0  0  0  0  0  0  0  0  0  0  0  0
   -5.5954   -3.3510   -1.9864 H   0  0  0  0  0  0  0  0  0  0  0  0
   -3.0424   -2.8131   -2.1606 N   0  0  0  0  0  0  0  0  0  0  0  0
   -1.6755   -2.3891   -2.0077 C   0  0  2  0  0  0  0  0  0  0  0  0
   -1.5782   -1.5673   -0.7292 C   0  0  0  0  0  0  0  0  0  0  0  0
   -2.5448   -1.0064   -0.2171 O   0  0  0  0  0  0  0  0  0  0  0  0
   -1.2087   -1.5823   -3.2094 C   0  0  0  0  0  0  0  0  0  0  0  0
   -3.6915   -2.1888   -2.6360 H   0  0  0  0  0  0  0  0  0  0  0  0
   -1.0721   -3.2977   -1.9053 H   0  0  0  0  0  0  0  0  0  0  0  0
   -1.8017   -0.6681   -3.3281 H   0  0  0  0  0  0  0  0  0  0  0  0
   -0.1601   -1.2849   -3.1045 H   0  0  0  0  0  0  0  0  0  0  0  0
   -1.3074   -2.1646   -4.1319 H   0  0  0  0  0  0  0  0  0  0  0  0
   -0.2835   -1.5112   -0.2725 N   0  0  0  0  0  0  0  0  0  0  0  0
    0.0769   -0.7658    0.9424 C   0  0  0  0  0  0  0  0  0  0  0  0
    0.0668    0.7130    0.6501 C   0  0  0  0  0  0  0  0  0  0  0  0
   -0.2016    1.5664    1.4915 O   0  0  0  0  0  0  0  0  0  0  0  0
    0.4587   -2.0097   -0.7289 H   0  0  0  0  0  0  0  0  0  0  0  0
    1.0758   -1.0701    1.2687 H   0  0  0  0  0  0  0  0  0  0  0  0
   -0.6465   -0.9928    1.7310 H   0  0  0  0  0  0  0  0  0  0  0  0
    0.3932    0.9749   -0.6763 N   0  0  0  0  0  0  0  0  0  0  0  0
    0.4564    2.3013   -1.2313 C   0  0  2  0  0  0  0  0  0  0  0  0
    1.8574    2.5110   -1.7904 C   0  0  0  0  0  0  0  0  0  0  0  0
    2.8329    1.8634   -1.4161 O   0  0  0  0  0  0  0  0  0  0  0  0
    0.1251    3.3548   -0.1858 C   0  0  0  0  0  0  0  0  0  0  0  0
    0.5985    0.1861   -1.2874 H   0  0  0  0  0  0  0  0  0  0  0  0
   -0.2727    2.3374   -2.0481 H   0  0  0  0  0  0  0  0  0  0  0  0
    0.8448    3.3339    0.6407 H   0  0  0  0  0  0  0  0  0  0  0  0
    0.1456    4.3614   -0.6164 H   0  0  0  0  0  0  0  0  0  0  0  0
   -0.8711    3.1849    0.2367 H   0  0  0  0  0  0  0  0  0  0  0  0
    1.8981    3.5357   -2.7255 N   0  0  0  0  0  0  0  0  0  0  0  0
    3.1158    3.9357   -3.3912 C   0  0  0  0  0  0  0  0  0  0  0  0
    1.0373    4.0061   -2.9892 H   0  0  0  0  0  0  0  0  0  0  0  0
    3.5913    4.7520   -2.8277 H   0  0  0  0  0  0  0  0  0  0  0  0
    3.8030    3.0784   -3.4447 H   0  0  0  0  0  0  0  0  0  0  0  0
    2.8808    4.2812   -4.4088 H   0  0  0  0  0  0  0  0  0  0  0  0
  1  3  1  0  0  0  0
  1  7  1  0  0  0  0
  1  2  2  0  0  0  0
 18 19  1  0  0  0  0
 19 24  1  0  0  0  0
 19 20  2  0  0  0  0
 25 26  1  0  0  0  0
 26 34  1  0  0  0  0
 26 27  2  0  0  0  0
  8  9  1  0  0  0  0
  9 17  1  0  0  0  0
  9 10  2  0  0  0  0
 25 28  1  0  0  0  0
  8 11  1  0  0  0  0
 34 35  1  0  0  0  0
 17 18  1  0  0  0  0
 24 25  1  0  0  0  0
  7  8  1  0  0  0  0
  3  4  1  0  0  0  0
  3  5  1  0  0  0  0
  3  6  1  0  0  0  0
 28 31  1  0  0  0  0
 28 32  1  0  0  0  0
 28 33  1  0  0  0  0
 11 14  1  0  0  0  0
 11 15  1  0  0  0  0
 11 16  1  0  0  0  0
 35 37  1  0  0  0  0
 35 38  1  0  0  0  0
 35 39  1  0  0  0  0
 18 22  1  0  0  0  0
 18 23  1  0  0  0  0
 25 30  1  0  0  0  0
  8 13  1  0  0  0  0
 34 36  1  0  0  0  0
 17 21  1  0  0  0  0
  7 12  1  0  0  0  0
 24 29  1  0  0  0  0
M  END
$$$$

  -OEChem-05262214473D

 39 38  0     1  0  0  0  0  0999 V2000
   -3.5200   -4.0268   -1.6943 C   0  0  0  0  0  0  0  0  0  0  0  0
   -2.8702   -4.8827   -1.1054 O   0  0  0  0  0  0  0  0  0  0  0  0
   -4.9704   -4.2579   -1.9614 C   0  0  0  0  0  0  0  0  0  0  0  0
   -5.1456   -4.7573   -2.9278 H   0  0  0  0  0  0  0  0  0  0  0  0
   -5.4379   -4.9112   -1.2072 H   0  0  0  0  0  0  0  0  0  0  0  0
   -5.5954   -3.3510   -1.9864 H   0  0  0  0  0  0  0  0  0  0  0  0
   -3.0424   -2.8131   -2.1606 N   0  0  0  0  0  0  0  0  0  0  0  0
   -1.6755   -2.3891   -2.0077 C   0  0  2  0  0  0  0  0  0  0  0  0
   -1.5782   -1.5673   -0.7292 C   0  0  0  0  0  0  0  0  0  0  0  0
   -2.5448   -1.0064   -0.2171 O   0  0  0  0  0  0  0  0  0  0  0  0
   -1.2087   -1.5823   -3.2094 C   0  0  0  0  0  0  0  0  0  0  0  0
   -3.6915   -2.1888   -2.6360 H   0  0  0  0  0  0  0  0  0  0  0  0
   -1.0721   -3.2977   -1.9053 H   0  0  0  0  0  0  0  0  0  0  0  0
   -1.8017   -0.6681   -3.3281 H   0  0  0  0  0  0  0  0  0  0  0  0
   -0.1601   -1.2849   -3.1045 H   0  0  0  0  0  0  0  0  0  0  0  0
   -1.3074   -2.1646   -4.1319 H   0  0  0  0  0  0  0  0  0  0  0  0
   -0.2835   -1.5112   -0.2725 N   0  0  0  0  0  0  0  0  0  0  0  0
    0.0769   -0.7658    0.9424 C   0  0  0  0  0  0  0  0  0  0  0  0
    0.0668    0.7130    0.6501 C   0  0  0  0  0  0  0  0  0  0  0  0
    0.0639    1.5748    1.5250 O   0  0  0  0  0  0  0  0  0  0  0  0
    0.4587   -2.0097   -0.7289 H   0  0  0  0  0  0  0  0  0  0  0  0
    1.0758   -1.0701    1.2687 H   0  0  0  0  0  0  0  0  0  0  0  0
   -0.6465   -0.9928    1.7310 H   0  0  0  0  0  0  0  0  0  0  0  0
    0.0584    0.9644   -0.7178 N   0  0  0  0  0  0  0  0  0  0  0  0
    0.0447    2.2886   -1.2815 C   0  0  2  0  0  0  0  0  0  0  0  0
    1.2665    2.4300   -2.1797 C   0  0  0  0  0  0  0  0  0  0  0  0
    2.2714    1.7323   -2.0599 O   0  0  0  0  0  0  0  0  0  0  0  0
    0.0429    3.3525   -0.1948 C   0  0  0  0  0  0  0  0  0  0  0  0
    0.0620    0.1692   -1.3545 H   0  0  0  0  0  0  0  0  0  0  0  0
   -0.8651    2.3653   -1.8868 H   0  0  0  0  0  0  0  0  0  0  0  0
    0.9469    3.2913    0.4220 H   0  0  0  0  0  0  0  0  0  0  0  0
    0.0037    4.3588   -0.6248 H   0  0  0  0  0  0  0  0  0  0  0  0
   -0.8206    3.2310    0.4681 H   0  0  0  0  0  0  0  0  0  0  0  0
    1.1196    3.4558   -3.1029 N   0  0  0  0  0  0  0  0  0  0  0  0
    2.1468    3.7971   -4.0592 C   0  0  0  0  0  0  0  0  0  0  0  0
    0.2447    3.9702   -3.1433 H   0  0  0  0  0  0  0  0  0  0  0  0
    2.7900    4.5856   -3.6415 H   0  0  0  0  0  0  0  0  0  0  0  0
    2.7541    2.9064   -4.2782 H   0  0  0  0  0  0  0  0  0  0  0  0
    1.6786    4.1588   -4.9865 H   0  0  0  0  0  0  0  0  0  0  0  0
  1  3  1  0  0  0  0
  1  7  1  0  0  0  0
  1  2  2  0  0  0  0
 18 19  1  0  0  0  0
 19 24  1  0  0  0  0
 19 20  2  0  0  0  0
 25 26  1  0  0  0  0
 26 34  1  0  0  0  0
 26 27  2  0  0  0  0
  8  9  1  0  0  0  0
  9 17  1  0  0  0  0
  9 10  2  0  0  0  0
 25 28  1  0  0  0  0
  8 11  1  0  0  0  0
 34 35  1  0  0  0  0
 17 18  1  0  0  0  0
 24 25  1  0  0  0  0
  7  8  1  0  0  0  0
  3  4  1  0  0  0  0
  3  5  1  0  0  0  0
  3  6  1  0  0  0  0
 28 31  1  0  0  0  0
 28 32  1  0  0  0  0
 28 33  1  0  0  0  0
 11 14  1  0  0  0  0
 11 15  1  0  0  0  0
 11 16  1  0  0  0  0
 35 37  1  0  0  0  0
 35 38  1  0  0  0  0
 35 39  1  0  0  0  0
 18 22  1  0  0  0  0
 18 23  1  0  0  0  0
 25 30  1  0  0  0  0
  8 13  1  0  0  0  0
 34 36  1  0  0  0  0
 17 21  1  0  0  0  0
  7 12  1  0  0  0  0
 24 29  1  0  0  0  0
M  END
$$$$

  -OEChem-05262214473D

 39 38  0     1  0  0  0  0  0999 V2000
   -3.5200   -4.0268   -1.6943 C   0  0  0  0  0  0  0  0  0  0  0  0
   -2.8702   -4.8827   -1.1054 O   0  0  0  0  0  0  0  0  0  0  0  0
   -4.9704   -4.2579   -1.9614 C   0  0  0  0  0  0  0  0  0  0  0  0
   -5.1456   -4.7573   -2.9278 H   0  0  0  0  0  0  0  0  0  0  0  0
   -5.4379   -4.9112   -1.2072 H   0  0  0  0  0  0  0  0  0  0  0  0
   -5.5954   -3.3510   -1.9864 H   0  0  0  0  0  0  0  0  0  0  0  0
   -3.0424   -2.8131   -2.1606 N   0  0  0  0  0  0  0  0  0  0  0  0
   -1.6755   -2.3891   -2.0077 C   0  0  2  0  0  0  0  0  0  0  0  0
   -1.5782   -1.5673   -0.7292 C   0  0  0  0  0  0  0  0  0  0  0  0
   -2.5448   -1.0064   -0.2171 O   0  0  0  0  0  0  0  0  0  0  0  0
   -1.2087   -1.5823   -3.2094 C   0  0  0  0  0  0  0  0  0  0  0  0
   -3.6915   -2.1888   -2.6360 H   0  0  0  0  0  0  0  0  0  0  0  0
   -1.0721   -3.2977   -1.9053 H   0  0  0  0  0  0  0  0  0  0  0  0
   -1.8017   -0.6681   -3.3281 H   0  0  0  0  0  0  0  0  0  0  0  0
   -0.1601   -1.2849   -3.1045 H   0  0  0  0  0  0  0  0  0  0  0  0
   -1.3074   -2.1646   -4.1319 H   0  0  0  0  0  0  0  0  0  0  0  0
   -0.2835   -1.5112   -0.2725 N   0  0  0  0  0  0  0  0  0  0  0  0
    0.0769   -0.7658    0.9424 C   0  0  0  0  0  0  0  0  0  0  0  0
    0.0668    0.7130    0.6501 C   0  0  0  0  0  0  0  0  0  0  0  0
    0.3293    1.5697    1.4900 O   0  0  0  0  0  0  0  0  0  0  0  0
    0.4587   -2.0097   -0.7289 H   0  0  0  0  0  0  0  0  0  0  0  0
    1.0758   -1.0701    1.2687 H   0  0  0  0  0  0  0  0  0  0  0  0
   -0.6465   -0.9928    1.7310 H   0  0  0  0  0  0  0  0  0  0  0  0
   -0.2761    0.9710   -0.6729 N   0  0  0  0  0  0  0  0  0  0  0  0
   -0.3663    2.2969   -1.2255 C   0  0  2  0  0  0  0  0  0  0  0  0
    0.5928    2.3808   -2.4055 C   0  0  0  0  0  0  0  0  0  0  0  0
    1.5591    1.6327   -2.5391 O   0  0  0  0  0  0  0  0  0  0  0  0
   -0.0389    3.3543   -0.1827 C   0  0  0  0  0  0  0  0  0  0  0  0
   -0.4740    0.1797   -1.2831 H   0  0  0  0  0  0  0  0  0  0  0  0
   -1.3950    2.4223   -1.5806 H   0  0  0  0  0  0  0  0  0  0  0  0
    0.9879    3.2447    0.1849 H   0  0  0  0  0  0  0  0  0  0  0  0
   -0.1357    4.3633   -0.5969 H   0  0  0  0  0  0  0  0  0  0  0  0
   -0.7107    3.2734    0.6786 H   0  0  0  0  0  0  0  0  0  0  0  0
    0.2678    3.4171   -3.2696 N   0  0  0  0  0  0  0  0  0  0  0  0
    1.0342    3.7106   -4.4581 C   0  0  0  0  0  0  0  0  0  0  0  0
   -0.5619    3.9751   -3.0908 H   0  0  0  0  0  0  0  0  0  0  0  0
    1.8009    4.4638   -4.2238 H   0  0  0  0  0  0  0  0  0  0  0  0
    1.5206    2.7916   -4.8168 H   0  0  0  0  0  0  0  0  0  0  0  0
    0.3645    4.0999   -5.2391 H   0  0  0  0  0  0  0  0  0  0  0  0
  1  3  1  0  0  0  0
  1  7  1  0  0  0  0
  1  2  2  0  0  0  0
 18 19  1  0  0  0  0
 19 24  1  0  0  0  0
 19 20  2  0  0  0  0
 25 26  1  0  0  0  0
 26 34  1  0  0  0  0
 26 27  2  0  0  0  0
  8  9  1  0  0  0  0
  9 17  1  0  0  0  0
  9 10  2  0  0  0  0
 25 28  1  0  0  0  0
  8 11  1  0  0  0  0
 34 35  1  0  0  0  0
 17 18  1  0  0  0  0
 24 25  1  0  0  0  0
  7  8  1  0  0  0  0
  3  4  1  0  0  0  0
  3  5  1  0  0  0  0
  3  6  1  0  0  0  0
 28 31  1  0  0  0  0
 28 32  1  0  0  0  0
 28 33  1  0  0  0  0
 11 14  1  0  0  0  0
 11 15  1  0  0  0  0
 11 16  1  0  0  0  0
 35 37  1  0  0  0  0
 35 38  1  0  0  0  0
 35 39  1  0  0  0  0
 18 22  1  0  0  0  0
 18 23  1  0  0  0  0
 25 30  1  0  0  0  0
  8 13  1  0  0  0  0
 34 36  1  0  0  0  0
 17 21  1  0  0  0  0
  7 12  1  0  0  0  0
 24 29  1  0  0  0  0
M  END
$$$$

  -OEChem-05262214473D

 39 38  0     1  0  0  0  0  0999 V2000
   -3.5200   -4.0268   -1.6943 C   0  0  0  0  0  0  0  0  0  0  0  0
   -2.8702   -4.8827   -1.1054 O   0  0  0  0  0  0  0  0  0  0  0  0
   -4.9704   -4.2579   -1.9614 C   0  0  0  0  0  0  0  0  0  0  0  0
   -5.1456   -4.7573   -2.9278 H   0  0  0  0  0  0  0  0  0  0  0  0
   -5.4379   -4.9112   -1.2072 H   0  0  0  0  0  0  0  0  0  0  0  0
   -5.5954   -3.3510   -1.9864 H   0  0  0  0  0  0  0  0  0  0  0  0
   -3.0424   -2.8131   -2.1606 N   0  0  0  0  0  0  0  0  0  0  0  0
   -1.6755   -2.3891   -2.0077 C   0  0  2  0  0  0  0  0  0  0  0  0
   -1.5782   -1.5673   -0.7292 C   0  0  0  0  0  0  0  0  0  0  0  0
   -2.5448   -1.0064   -0.2171 O   0  0  0  0  0  0  0  0  0  0  0  0
   -1.2087   -1.5823   -3.2094 C   0  0  0  0  0  0  0  0  0  0  0  0
   -3.6915   -2.1888   -2.6360 H   0  0  0  0  0  0  0  0  0  0  0  0
   -1.0721   -3.2977   -1.9053 H   0  0  0  0  0  0  0  0  0  0  0  0
   -1.8017   -0.6681   -3.3281 H   0  0  0  0  0  0  0  0  0  0  0  0
   -0.1601   -1.2849   -3.1045 H   0  0  0  0  0  0  0  0  0  0  0  0
   -1.3074   -2.1646   -4.1319 H   0  0  0  0  0  0  0  0  0  0  0  0
   -0.2835   -1.5112   -0.2725 N   0  0  0  0  0  0  0  0  0  0  0  0
    0.0769   -0.7658    0.9424 C   0  0  0  0  0  0  0  0  0  0  0  0
    0.0668    0.7130    0.6501 C   0  0  0  0  0  0  0  0  0  0  0  0
    0.5765    1.5514    1.3888 O   0  0  0  0  0  0  0  0  0  0  0  0
    0.4587   -2.0097   -0.7289 H   0  0  0  0  0  0  0  0  0  0  0  0
    1.0758   -1.0701    1.2687 H   0  0  0  0  0  0  0  0  0  0  0  0
   -0.6465   -0.9928    1.7310 H   0  0  0  0  0  0  0  0  0  0  0  0
   -0.5875    0.9943   -0.5446 N   0  0  0  0  0  0  0  0  0  0  0  0
   -0.7486    2.3256   -1.0670 C   0  0  2  0  0  0  0  0  0  0  0  0
   -0.1177    2.3666   -2.4526 C   0  0  0  0  0  0  0  0  0  0  0  0
    0.7444    1.5714   -2.8209 O   0  0  0  0  0  0  0  0  0  0  0  0
   -0.1148    3.3602   -0.1502 C   0  0  0  0  0  0  0  0  0  0  0  0
   -0.9732    0.2168   -1.0780 H   0  0  0  0  0  0  0  0  0  0  0  0
   -1.8262    2.5044   -1.1504 H   0  0  0  0  0  0  0  0  0  0  0  0
    0.9649    3.1972   -0.0545 H   0  0  0  0  0  0  0  0  0  0  0  0
   -0.2630    4.3748   -0.5346 H   0  0  0  0  0  0  0  0  0  0  0  0
   -0.5490    3.3092    0.8541 H   0  0  0  0  0  0  0  0  0  0  0  0
   -0.5992    3.4221   -3.2142 N   0  0  0  0  0  0  0  0  0  0  0  0
   -0.1461    3.6823   -4.5607 C   0  0  0  0  0  0  0  0  0  0  0  0
   -1.3273    4.0204   -2.8353 H   0  0  0  0  0  0  0  0  0  0  0  0
    0.6916    4.3947   -4.5350 H   0  0  0  0  0  0  0  0  0  0  0  0
    0.1867    2.7416   -5.0236 H   0  0  0  0  0  0  0  0  0  0  0  0
   -0.9718    4.1086   -5.1494 H   0  0  0  0  0  0  0  0  0  0  0  0
  1  3  1  0  0  0  0
  1  7  1  0  0  0  0
  1  2  2  0  0  0  0
 18 19  1  0  0  0  0
 19 24  1  0  0  0  0
 19 20  2  0  0  0  0
 25 26  1  0  0  0  0
 26 34  1  0  0  0  0
 26 27  2  0  0  0  0
  8  9  1  0  0  0  0
  9 17  1  0  0  0  0
  9 10  2  0  0  0  0
 25 28  1  0  0  0  0
  8 11  1  0  0  0  0
 34 35  1  0  0  0  0
 17 18  1  0  0  0  0
 24 25  1  0  0  0  0
  7  8  1  0  0  0  0
  3  4  1  0  0  0  0
  3  5  1  0  0  0  0
  3  6  1  0  0  0  0
 28 31  1  0  0  0  0
 28 32  1  0  0  0  0
 28 33  1  0  0  0  0
 11 14  1  0  0  0  0
 11 15  1  0  0  0  0
 11 16  1  0  0  0  0
 35 37  1  0  0  0  0
 35 38  1  0  0  0  0
 35 39  1  0  0  0  0
 18 22  1  0  0  0  0
 18 23  1  0  0  0  0
 25 30  1  0  0  0  0
  8 13  1  0  0  0  0
 34 36  1  0  0  0  0
 17 21  1  0  0  0  0
  7 12  1  0  0  0  0
 24 29  1  0  0  0  0
M  END
$$$$

  -OEChem-05262214473D

 39 38  0     1  0  0  0  0  0999 V2000
   -3.5200   -4.0268   -1.6943 C   0  0  0  0  0  0  0  0  0  0  0  0
   -2.8702   -4.8827   -1.1054 O   0  0  0  0  0  0  0  0  0  0  0  0
   -4.9704   -4.2579   -1.9614 C   0  0  0  0  0  0  0  0  0  0  0  0
   -5.1456   -4.7573   -2.9278 H   0  0  0  0  0  0  0  0  0  0  0  0
   -5.4379   -4.9112   -1.2072 H   0  0  0  0  0  0  0  0  0  0  0  0
   -5.5954   -3.3510   -1.9864 H   0  0  0  0  0  0  0  0  0  0  0  0
   -3.0424   -2.8131   -2.1606 N   0  0  0  0  0  0  0  0  0  0  0  0
   -1.6755   -2.3891   -2.0077 C   0  0  2  0  0  0  0  0  0  0  0  0
   -1.5782   -1.5673   -0.7292 C   0  0  0  0  0  0  0  0  0  0  0  0
   -2.5448   -1.0064   -0.2171 O   0  0  0  0  0  0  0  0  0  0  0  0
   -1.2087   -1.5823   -3.2094 C   0  0  0  0  0  0  0  0  0  0  0  0
   -3.6915   -2.1888   -2.6360 H   0  0  0  0  0  0  0  0  0  0  0  0
   -1.0721   -3.2977   -1.9053 H   0  0  0  0  0  0  0  0  0  0  0  0
   -1.8017   -0.6681   -3.3281 H   0  0  0  0  0  0  0  0  0  0  0  0
   -0.1601   -1.2849   -3.1045 H   0  0  0  0  0  0  0  0  0  0  0  0
   -1.3074   -2.1646   -4.1319 H   0  0  0  0  0  0  0  0  0  0  0  0
   -0.2835   -1.5112   -0.2725 N   0  0  0  0  0  0  0  0  0  0  0  0
    0.0769   -0.7658    0.9424 C   0  0  0  0  0  0  0  0  0  0  0  0
    0.0668    0.7130    0.6501 C   0  0  0  0  0  0  0  0  0  0  0  0
    0.7886    1.5211    1.2283 O   0  0  0  0  0  0  0  0  0  0  0  0
    0.4587   -2.0097   -0.7289 H   0  0  0  0  0  0  0  0  0  0  0  0
    1.0758   -1.0701    1.2687 H   0  0  0  0  0  0  0  0  0  0  0  0
   -0.6465   -0.9928    1.7310 H   0  0  0  0  0  0  0  0  0  0  0  0
   -0.8545    1.0326   -0.3416 N   0  0  0  0  0  0  0  0  0  0  0  0
   -1.0763    2.3728   -0.8169 C   0  0  2  0  0  0  0  0  0  0  0  0
   -0.8166    2.3886   -2.3175 C   0  0  0  0  0  0  0  0  0  0  0  0
   -0.1172    1.5527   -2.8861 O   0  0  0  0  0  0  0  0  0  0  0  0
   -0.1795    3.3698   -0.0996 C   0  0  0  0  0  0  0  0  0  0  0  0
   -1.4013    0.2781   -0.7532 H   0  0  0  0  0  0  0  0  0  0  0  0
   -2.1293    2.6061   -0.6255 H   0  0  0  0  0  0  0  0  0  0  0  0
    0.8796    3.1521   -0.2797 H   0  0  0  0  0  0  0  0  0  0  0  0
   -0.3696    4.3924   -0.4421 H   0  0  0  0  0  0  0  0  0  0  0  0
   -0.3464    3.3359    0.9824 H   0  0  0  0  0  0  0  0  0  0  0  0
   -1.4224    3.4706   -2.9407 N   0  0  0  0  0  0  0  0  0  0  0  0
   -1.3137    3.7141   -4.3602 C   0  0  0  0  0  0  0  0  0  0  0  0
   -1.9996    4.1031   -2.3942 H   0  0  0  0  0  0  0  0  0  0  0  0
   -0.4623    4.3832   -4.5538 H   0  0  0  0  0  0  0  0  0  0  0  0
   -1.1567    2.7600   -4.8847 H   0  0  0  0  0  0  0  0  0  0  0  0
   -2.2394    4.1842   -4.7234 H   0  0  0  0  0  0  0  0  0  0  0  0
  1  3  1  0  0  0  0
  1  7  1  0  0  0  0
  1  2  2  0  0  0  0
 18 19  1  0  0  0  0
 19 24  1  0  0  0  0
 19 20  2  0  0  0  0
 25 26  1  0  0  0  0
 26 34  1  0  0  0  0
 26 27  2  0  0  0  0
  8  9  1  0  0  0  0
  9 17  1  0  0  0  0
  9 10  2  0  0  0  0
 25 28  1  0  0  0  0
  8 11  1  0  0  0  0
 34 35  1  0  0  0  0
 17 18  1  0  0  0  0
 24 25  1  0  0  0  0
  7  8  1  0  0  0  0
  3  4  1  0  0  0  0
  3  5  1  0  0  0  0
  3  6  1  0  0  0  0
 28 31  1  0  0  0  0
 28 32  1  0  0  0  0
 28 33  1  0  0  0  0
 11 14  1  0  0  0  0
 11 15  1  0  0  0  0
 11 16  1  0  0  0  0
 35 37  1  0  0  0  0
 35 38  1  0  0  0  0
 35 39  1  0  0  0  0
 18 22  1  0  0  0  0
 18 23  1  0  0  0  0
 25 30  1  0  0  0  0
  8 13  1  0  0  0  0
 34 36  1  0  0  0  0
 17 21  1  0  0  0  0
  7 12  1  0  0  0  0
 24 29  1  0  0  0  0
M  END
$$$$

  -OEChem-05262214473D

 39 38  0     1  0  0  0  0  0999 V2000
   -3.5200   -4.0268   -1.6943 C   0  0  0  0  0  0  0  0  0  0  0  0
   -2.8702   -4.8827   -1.1054 O   0  0  0  0  0  0  0  0  0  0  0  0
   -4.9704   -4.2579   -1.9614 C   0  0  0  0  0  0  0  0  0  0  0  0
   -5.1456   -4.7573   -2.9278 H   0  0  0  0  0  0  0  0  0  0  0  0
   -5.4379   -4.9112   -1.2072 H   0  0  0  0  0  0  0  0  0  0  0  0
   -5.5954   -3.3510   -1.9864 H   0  0  0  0  0  0  0  0  0  0  0  0
   -3.0424   -2.8131   -2.1606 N   0  0  0  0  0  0  0  0  0  0  0  0
   -1.6755   -2.3891   -2.0077 C   0  0  2  0  0  0  0  0  0  0  0  0
   -1.5782   -1.5673   -0.7292 C   0  0  0  0  0  0  0  0  0  0  0  0
   -2.5448   -1.0064   -0.2171 O   0  0  0  0  0  0  0  0  0  0  0  0
   -1.2087   -1.5823   -3.2094 C   0  0  0  0  0  0  0  0  0  0  0  0
   -3.6915   -2.1888   -2.6360 H   0  0  0  0  0  0  0  0  0  0  0  0
   -1.0721   -3.2977   -1.9053 H   0  0  0  0  0  0  0  0  0  0  0  0
   -1.8017   -0.6681   -3.3281 H   0  0  0  0  0  0  0  0  0  0  0  0
   -0.1601   -1.2849   -3.1045 H   0  0  0  0  0  0  0  0  0  0  0  0
   -1.3074   -2.1646   -4.1319 H   0  0  0  0  0  0  0  0  0  0  0  0
   -0.2835   -1.5112   -0.2725 N   0  0  0  0  0  0  0  0  0  0  0  0
    0.0769   -0.7658    0.9424 C   0  0  0  0  0  0  0  0  0  0  0  0
    0.0668    0.7130    0.6501 C   0  0  0  0  0  0  0  0  0  0  0  0
    0.9512    1.4809    1.0195 O   0  0  0  0  0  0  0  0  0  0  0  0
    0.4587   -2.0097   -0.7289 H   0  0  0  0  0  0  0  0  0  0  0  0
    1.0758   -1.0701    1.2687 H   0  0  0  0  0  0  0  0  0  0  0  0
   -0.6465   -0.9928    1.7310 H   0  0  0  0  0  0  0  0  0  0  0  0
   -1.0590    1.0833   -0.0778 N   0  0  0  0  0  0  0  0  0  0  0  0
   -1.3269    2.4353   -0.4923 C   0  0  2  0  0  0  0  0  0  0  0  0
   -1.4563    2.4451   -2.0097 C   0  0  0  0  0  0  0  0  0  0  0  0
   -0.9670    1.5777   -2.7303 O   0  0  0  0  0  0  0  0  0  0  0  0
   -0.2287    3.3824   -0.0343 C   0  0  0  0  0  0  0  0  0  0  0  0
   -1.7294    0.3594   -0.3310 H   0  0  0  0  0  0  0  0  0  0  0  0
   -2.2838    2.7205   -0.0417 H   0  0  0  0  0  0  0  0  0  0  0  0
    0.7377    3.1124   -0.4756 H   0  0  0  0  0  0  0  0  0  0  0  0
   -0.4481    4.4148   -0.3257 H   0  0  0  0  0  0  0  0  0  0  0  0
   -0.1168    3.3518    1.0549 H   0  0  0  0  0  0  0  0  0  0  0  0
   -2.1457    3.5593   -2.4675 N   0  0  0  0  0  0  0  0  0  0  0  0
   -2.3889    3.8037   -3.8700 C   0  0  0  0  0  0  0  0  0  0  0  0
   -2.5328    4.2174   -1.7976 H   0  0  0  0  0  0  0  0  0  0  0  0
   -1.5823    4.4299   -4.2790 H   0  0  0  0  0  0  0  0  0  0  0  0
   -2.4182    2.8454   -4.4094 H   0  0  0  0  0  0  0  0  0  0  0  0
   -3.3519    4.3216   -3.9902 H   0  0  0  0  0  0  0  0  0  0  0  0
  1  3  1  0  0  0  0
  1  7  1  0  0  0  0
  1  2  2  0  0  0  0
 18 19  1  0  0  0  0
 19 24  1  0  0  0  0
 19 20  2  0  0  0  0
 25 26  1  0  0  0  0
 26 34  1  0  0  0  0
 26 27  2  0  0  0  0
  8  9  1  0  0  0  0
  9 17  1  0  0  0  0
  9 10  2  0  0  0  0
 25 28  1  0  0  0  0
  8 11  1  0  0  0  0
 34 35  1  0  0  0  0
 17 18  1  0  0  0  0
 24 25  1  0  0  0  0
  7  8  1  0  0  0  0
  3  4  1  0  0  0  0
  3  5  1  0  0  0  0
  3  6  1  0  0  0  0
 28 31  1  0  0  0  0
 28 32  1  0  0  0  0
 28 33  1  0  0  0  0
 11 14  1  0  0  0  0
 11 15  1  0  0  0  0
 11 16  1  0  0  0  0
 35 37  1  0  0  0  0
 35 38  1  0  0  0  0
 35 39  1  0  0  0  0
 18 22  1  0  0  0  0
 18 23  1  0  0  0  0
 25 30  1  0  0  0  0
  8 13  1  0  0  0  0
 34 36  1  0  0  0  0
 17 21  1  0  0  0  0
  7 12  1  0  0  0  0
 24 29  1  0  0  0  0
M  END
$$$$

  -OEChem-05262214473D

 39 38  0     1  0  0  0  0  0999 V2000
   -3.5200   -4.0268   -1.6943 C   0  0  0  0  0  0  0  0  0  0  0  0
   -2.8702   -4.8827   -1.1054 O   0  0  0  0  0  0  0  0  0  0  0  0
   -4.9704   -4.2579   -1.9614 C   0  0  0  0  0  0  0  0  0  0  0  0
   -5.1456   -4.7573   -2.9278 H   0  0  0  0  0  0  0  0  0  0  0  0
   -5.4379   -4.9112   -1.2072 H   0  0  0  0  0  0  0  0  0  0  0  0
   -5.5954   -3.3510   -1.9864 H   0  0  0  0  0  0  0  0  0  0  0  0
   -3.0424   -2.8131   -2.1606 N   0  0  0  0  0  0  0  0  0  0  0  0
   -1.6755   -2.3891   -2.0077 C   0  0  2  0  0  0  0  0  0  0  0  0
   -1.5782   -1.5673   -0.7292 C   0  0  0  0  0  0  0  0  0  0  0  0
   -2.5448   -1.0064   -0.2171 O   0  0  0  0  0  0  0  0  0  0  0  0
   -1.2087   -1.5823   -3.2094 C   0  0  0  0  0  0  0  0  0  0  0  0
   -3.6915   -2.1888   -2.6360 H   0  0  0  0  0  0  0  0  0  0  0  0
   -1.0721   -3.2977   -1.9053 H   0  0  0  0  0  0  0  0  0  0  0  0
   -1.8017   -0.6681   -3.3281 H   0  0  0  0  0  0  0  0  0  0  0  0
   -0.1601   -1.2849   -3.1045 H   0  0  0  0  0  0  0  0  0  0  0  0
   -1.3074   -2.1646   -4.1319 H   0  0  0  0  0  0  0  0  0  0  0  0
   -0.2835   -1.5112   -0.2725 N   0  0  0  0  0  0  0  0  0  0  0  0
    0.0769   -0.7658    0.9424 C   0  0  0  0  0  0  0  0  0  0  0  0
    0.0668    0.7130    0.6501 C   0  0  0  0  0  0  0  0  0  0  0  0
    1.0533    1.4336    0.7766 O   0  0  0  0  0  0  0  0  0  0  0  0
    0.4587   -2.0097   -0.7289 H   0  0  0  0  0  0  0  0  0  0  0  0
    1.0758   -1.0701    1.2687 H   0  0  0  0  0  0  0  0  0  0  0  0
   -0.6465   -0.9928    1.7310 H   0  0  0  0  0  0  0  0  0  0  0  0
   -1.1869    1.1431    0.2288 N   0  0  0  0  0  0  0  0  0  0  0  0
   -1.4834    2.5088   -0.1152 C   0  0  2  0  0  0  0  0  0  0  0  0
   -1.9933    2.5324   -1.5501 C   0  0  0  0  0  0  0  0  0  0  0  0
   -1.7469    1.6448   -2.3641 O   0  0  0  0  0  0  0  0  0  0  0  0
   -0.2590    3.3971    0.0412 C   0  0  0  0  0  0  0  0  0  0  0  0
   -1.9350    0.4551    0.1601 H   0  0  0  0  0  0  0  0  0  0  0  0
   -2.2790    2.8398    0.5612 H   0  0  0  0  0  0  0  0  0  0  0  0
    0.5489    3.0809   -0.6287 H   0  0  0  0  0  0  0  0  0  0  0  0
   -0.4933    4.4407   -0.1933 H   0  0  0  0  0  0  0  0  0  0  0  0
    0.1241    3.3558    1.0666 H   0  0  0  0  0  0  0  0  0  0  0  0
   -2.7197    3.6820   -1.8270 N   0  0  0  0  0  0  0  0  0  0  0  0
   -3.2986    3.9450   -3.1238 C   0  0  0  0  0  0  0  0  0  0  0  0
   -2.8906    4.3557   -1.0862 H   0  0  0  0  0  0  0  0  0  0  0  0
   -2.5921    4.5318   -3.7292 H   0  0  0  0  0  0  0  0  0  0  0  0
   -3.5118    2.9921   -3.6301 H   0  0  0  0  0  0  0  0  0  0  0  0
   -4.2334    4.5115   -2.9998 H   0  0  0  0  0  0  0  0  0  0  0  0
  1  3  1  0  0  0  0
  1  7  1  0  0  0  0
  1  2  2  0  0  0  0
 18 19  1  0  0  0  0
 19 24  1  0  0  0  0
 19 20  2  0  0  0  0
 25 26  1  0  0  0  0
 26 34  1  0  0  0  0
 26 27  2  0  0  0  0
  8  9  1  0  0  0  0
  9 17  1  0  0  0  0
  9 10  2  0  0  0  0
 25 28  1  0  0  0  0
  8 11  1  0  0  0  0
 34 35  1  0  0  0  0
 17 18  1  0  0  0  0
 24 25  1  0  0  0  0
  7  8  1  0  0  0  0
  3  4  1  0  0  0  0
  3  5  1  0  0  0  0
  3  6  1  0  0  0  0
 28 31  1  0  0  0  0
 28 32  1  0  0  0  0
 28 33  1  0  0  0  0
 11 14  1  0  0  0  0
 11 15  1  0  0  0  0
 11 16  1  0  0  0  0
 35 37  1  0  0  0  0
 35 38  1  0  0  0  0
 35 39  1  0  0  0  0
 18 22  1  0  0  0  0
 18 23  1  0  0  0  0
 25 30  1  0  0  0  0
  8 13  1  0  0  0  0
 34 36  1  0  0  0  0
 17 21  1  0  0  0  0
  7 12  1  0  0  0  0
 24 29  1  0  0  0  0
M  END
$$$$

  -OEChem-05262214473D

 39 38  0     1  0  0  0  0  0999 V2000
   -3.5200   -4.0268   -1.6943 C   0  0  0  0  0  0  0  0  0  0  0  0
   -2.8702   -4.8827   -1.1054 O   0  0  0  0  0  0  0  0  0  0  0  0
   -4.9704   -4.2579   -1.9614 C   0  0  0  0  0  0  0  0  0  0  0  0
   -5.1456   -4.7573   -2.9278 H   0  0  0  0  0  0  0  0  0  0  0  0
   -5.4379   -4.9112   -1.2072 H   0  0  0  0  0  0  0  0  0  0  0  0
   -5.5954   -3.3510   -1.9864 H   0  0  0  0  0  0  0  0  0  0  0  0
   -3.0424   -2.8131   -2.1606 N   0  0  0  0  0  0  0  0  0  0  0  0
   -1.6755   -2.3891   -2.0077 C   0  0  2  0  0  0  0  0  0  0  0  0
   -1.5782   -1.5673   -0.7292 C   0  0  0  0  0  0  0  0  0  0  0  0
   -2.5448   -1.0064   -0.2171 O   0  0  0  0  0  0  0  0  0  0  0  0
   -1.2087   -1.5823   -3.2094 C   0  0  0  0  0  0  0  0  0  0  0  0
   -3.6915   -2.1888   -2.6360 H   0  0  0  0  0  0  0  0  0  0  0  0
   -1.0721   -3.2977   -1.9053 H   0  0  0  0  0  0  0  0  0  0  0  0
   -1.8017   -0.6681   -3.3281 H   0  0  0  0  0  0  0  0  0  0  0  0
   -0.1601   -1.2849   -3.1045 H   0  0  0  0  0  0  0  0  0  0  0  0
   -1.3074   -2.1646   -4.1319 H   0  0  0  0  0  0  0  0  0  0  0  0
   -0.2835   -1.5112   -0.2725 N   0  0  0  0  0  0  0  0  0  0  0  0
    0.0769   -0.7658    0.9424 C   0  0  0  0  0  0  0  0  0  0  0  0
    0.0668    0.7130    0.6501 C   0  0  0  0  0  0  0  0  0  0  0  0
    1.0878    1.3823    0.5161 O   0  0  0  0  0  0  0  0  0  0  0  0
    0.4587   -2.0097   -0.7289 H   0  0  0  0  0  0  0  0  0  0  0  0
    1.0758   -1.0701    1.2687 H   0  0  0  0  0  0  0  0  0  0  0  0
   -0.6465   -0.9928    1.7310 H   0  0  0  0  0  0  0  0  0  0  0  0
   -1.2297    1.2078    0.5574 N   0  0  0  0  0  0  0  0  0  0  0  0
   -1.5351    2.5883    0.2887 C   0  0  2  0  0  0  0  0  0  0  0  0
   -2.3909    2.6444   -0.9699 C   0  0  0  0  0  0  0  0  0  0  0  0
   -2.4040    1.7495   -1.8125 O   0  0  0  0  0  0  0  0  0  0  0  0
   -0.2683    3.4130    0.1219 C   0  0  0  0  0  0  0  0  0  0  0  0
   -2.0041    0.5587    0.6864 H   0  0  0  0  0  0  0  0  0  0  0  0
   -2.1153    2.9557    1.1422 H   0  0  0  0  0  0  0  0  0  0  0  0
    0.3261    3.0596   -0.7285 H   0  0  0  0  0  0  0  0  0  0  0  0
   -0.5021    4.4682   -0.0541 H   0  0  0  0  0  0  0  0  0  0  0  0
    0.3600    3.3475    1.0167 H   0  0  0  0  0  0  0  0  0  0  0  0
   -3.1054    3.8305   -1.0628 N   0  0  0  0  0  0  0  0  0  0  0  0
   -3.9808    4.1286   -2.1722 C   0  0  0  0  0  0  0  0  0  0  0  0
   -3.0487    4.5084   -0.3084 H   0  0  0  0  0  0  0  0  0  0  0  0
   -3.4227    4.6818   -2.9419 H   0  0  0  0  0  0  0  0  0  0  0  0
   -4.3628    3.1900   -2.6000 H   0  0  0  0  0  0  0  0  0  0  0  0
   -4.8239    4.7408   -1.8197 H   0  0  0  0  0  0  0  0  0  0  0  0
  1  3  1  0  0  0  0
  1  7  1  0  0  0  0
  1  2  2  0  0  0  0
 18 19  1  0  0  0  0
 19 24  1  0  0  0  0
 19 20  2  0  0  0  0
 25 26  1  0  0  0  0
 26 34  1  0  0  0  0
 26 27  2  0  0  0  0
  8  9  1  0  0  0  0
  9 17  1  0  0  0  0
  9 10  2  0  0  0  0
 25 28  1  0  0  0  0
  8 11  1  0  0  0  0
 34 35  1  0  0  0  0
 17 18  1  0  0  0  0
 24 25  1  0  0  0  0
  7  8  1  0  0  0  0
  3  4  1  0  0  0  0
  3  5  1  0  0  0  0
  3  6  1  0  0  0  0
 28 31  1  0  0  0  0
 28 32  1  0  0  0  0
 28 33  1  0  0  0  0
 11 14  1  0  0  0  0
 11 15  1  0  0  0  0
 11 16  1  0  0  0  0
 35 37  1  0  0  0  0
 35 38  1  0  0  0  0
 35 39  1  0  0  0  0
 18 22  1  0  0  0  0
 18 23  1  0  0  0  0
 25 30  1  0  0  0  0
  8 13  1  0  0  0  0
 34 36  1  0  0  0  0
 17 21  1  0  0  0  0
  7 12  1  0  0  0  0
 24 29  1  0  0  0  0
M  END
$$$$

  -OEChem-05262214473D

 39 38  0     1  0  0  0  0  0999 V2000
   -3.5200   -4.0268   -1.6943 C   0  0  0  0  0  0  0  0  0  0  0  0
   -2.8702   -4.8827   -1.1054 O   0  0  0  0  0  0  0  0  0  0  0  0
   -4.9704   -4.2579   -1.9614 C   0  0  0  0  0  0  0  0  0  0  0  0
   -5.1456   -4.7573   -2.9278 H   0  0  0  0  0  0  0  0  0  0  0  0
   -5.4379   -4.9112   -1.2072 H   0  0  0  0  0  0  0  0  0  0  0  0
   -5.5954   -3.3510   -1.9864 H   0  0  0  0  0  0  0  0  0  0  0  0
   -3.0424   -2.8131   -2.1606 N   0  0  0  0  0  0  0  0  0  0  0  0
   -1.6755   -2.3891   -2.0077 C   0  0  2  0  0  0  0  0  0  0  0  0
   -1.5782   -1.5673   -0.7292 C   0  0  0  0  0  0  0  0  0  0  0  0
   -2.5448   -1.0064   -0.2171 O   0  0  0  0  0  0  0  0  0  0  0  0
   -1.2087   -1.5823   -3.2094 C   0  0  0  0  0  0  0  0  0  0  0  0
   -3.6915   -2.1888   -2.6360 H   0  0  0  0  0  0  0  0  0  0  0  0
   -1.0721   -3.2977   -1.9053 H   0  0  0  0  0  0  0  0  0  0  0  0
   -1.8017   -0.6681   -3.3281 H   0  0  0  0  0  0  0  0  0  0  0  0
   -0.1601   -1.2849   -3.1045 H   0  0  0  0  0  0  0  0  0  0  0  0
   -1.3074   -2.1646   -4.1319 H   0  0  0  0  0  0  0  0  0  0  0  0
   -0.2835   -1.5112   -0.2725 N   0  0  0  0  0  0  0  0  0  0  0  0
    0.0769   -0.7658    0.9424 C   0  0  0  0  0  0  0  0  0  0  0  0
    0.0668    0.7130    0.6501 C   0  0  0  0  0  0  0  0  0  0  0  0
    1.0525    1.3306    0.2558 O   0  0  0  0  0  0  0  0  0  0  0  0
    0.4587   -2.0097   -0.7289 H   0  0  0  0  0  0  0  0  0  0  0  0
    1.0758   -1.0701    1.2687 H   0  0  0  0  0  0  0  0  0  0  0  0
   -0.6465   -0.9928    1.7310 H   0  0  0  0  0  0  0  0  0  0  0  0
   -1.1843    1.2730    0.8855 N   0  0  0  0  0  0  0  0  0  0  0  0
   -1.4786    2.6684    0.6919 C   0  0  2  0  0  0  0  0  0  0  0  0
   -2.6220    2.7735   -0.3087 C   0  0  0  0  0  0  0  0  0  0  0  0
   -2.8933    1.8844   -1.1130 O   0  0  0  0  0  0  0  0  0  0  0  0
   -0.2561    3.4289    0.2021 C   0  0  0  0  0  0  0  0  0  0  0  0
   -1.9320    0.6632    1.2122 H   0  0  0  0  0  0  0  0  0  0  0  0
   -1.8039    3.0606    1.6616 H   0  0  0  0  0  0  0  0  0  0  0  0
    0.0845    3.0501   -0.7684 H   0  0  0  0  0  0  0  0  0  0  0  0
   -0.4738    4.4954    0.0826 H   0  0  0  0  0  0  0  0  0  0  0  0
    0.5748    3.3276    0.9086 H   0  0  0  0  0  0  0  0  0  0  0  0
   -3.2764    3.9947   -0.2269 N   0  0  0  0  0  0  0  0  0  0  0  0
   -4.3888    4.3417   -1.0802 C   0  0  0  0  0  0  0  0  0  0  0  0
   -2.9963    4.6652    0.4828 H   0  0  0  0  0  0  0  0  0  0  0  0
   -4.0176    4.8697   -1.9709 H   0  0  0  0  0  0  0  0  0  0  0  0
   -4.9134    3.4256   -1.3893 H   0  0  0  0  0  0  0  0  0  0  0  0
   -5.0831    4.9940   -0.5302 H   0  0  0  0  0  0  0  0  0  0  0  0
  1  3  1  0  0  0  0
  1  7  1  0  0  0  0
  1  2  2  0  0  0  0
 18 19  1  0  0  0  0
 19 24  1  0  0  0  0
 19 20  2  0  0  0  0
 25 26  1  0  0  0  0
 26 34  1  0  0  0  0
 26 27  2  0  0  0  0
  8  9  1  0  0  0  0
  9 17  1  0  0  0  0
  9 10  2  0  0  0  0
 25 28  1  0  0  0  0
  8 11  1  0  0  0  0
 34 35  1  0  0  0  0
 17 18  1  0  0  0  0
 24 25  1  0  0  0  0
  7  8  1  0  0  0  0
  3  4  1  0  0  0  0
  3  5  1  0  0  0  0
  3  6  1  0  0  0  0
 28 31  1  0  0  0  0
 28 32  1  0  0  0  0
 28 33  1  0  0  0  0
 11 14  1  0  0  0  0
 11 15  1  0  0  0  0
 11 16  1  0  0  0  0
 35 37  1  0  0  0  0
 35 38  1  0  0  0  0
 35 39  1  0  0  0  0
 18 22  1  0  0  0  0
 18 23  1  0  0  0  0
 25 30  1  0  0  0  0
  8 13  1  0  0  0  0
 34 36  1  0  0  0  0
 17 21  1  0  0  0  0
  7 12  1  0  0  0  0
 24 29  1  0  0  0  0
M  END
$$$$

  -OEChem-05262214473D

 39 38  0     1  0  0  0  0  0999 V2000
   -3.5200   -4.0268   -1.6943 C   0  0  0  0  0  0  0  0  0  0  0  0
   -2.8702   -4.8827   -1.1054 O   0  0  0  0  0  0  0  0  0  0  0  0
   -4.9704   -4.2579   -1.9614 C   0  0  0  0  0  0  0  0  0  0  0  0
   -5.1456   -4.7573   -2.9278 H   0  0  0  0  0  0  0  0  0  0  0  0
   -5.4379   -4.9112   -1.2072 H   0  0  0  0  0  0  0  0  0  0  0  0
   -5.5954   -3.3510   -1.9864 H   0  0  0  0  0  0  0  0  0  0  0  0
   -3.0424   -2.8131   -2.1606 N   0  0  0  0  0  0  0  0  0  0  0  0
   -1.6755   -2.3891   -2.0077 C   0  0  2  0  0  0  0  0  0  0  0  0
   -1.5782   -1.5673   -0.7292 C   0  0  0  0  0  0  0  0  0  0  0  0
   -2.5448   -1.0064   -0.2171 O   0  0  0  0  0  0  0  0  0  0  0  0
   -1.2087   -1.5823   -3.2094 C   0  0  0  0  0  0  0  0  0  0  0  0
   -3.6915   -2.1888   -2.6360 H   0  0  0  0  0  0  0  0  0  0  0  0
   -1.0721   -3.2977   -1.9053 H   0  0  0  0  0  0  0  0  0  0  0  0
   -1.8017   -0.6681   -3.3281 H   0  0  0  0  0  0  0  0  0  0  0  0
   -0.1601   -1.2849   -3.1045 H   0  0  0  0  0  0  0  0  0  0  0  0
   -1.3074   -2.1646   -4.1319 H   0  0  0  0  0  0  0  0  0  0  0  0
   -0.2835   -1.5112   -0.2725 N   0  0  0  0  0  0  0  0  0  0  0  0
    0.0769   -0.7658    0.9424 C   0  0  0  0  0  0  0  0  0  0  0  0
    0.0668    0.7130    0.6501 C   0  0  0  0  0  0  0  0  0  0  0  0
    0.9497    1.2820    0.0135 O   0  0  0  0  0  0  0  0  0  0  0  0
    0.4587   -2.0097   -0.7289 H   0  0  0  0  0  0  0  0  0  0  0  0
    1.0758   -1.0701    1.2687 H   0  0  0  0  0  0  0  0  0  0  0  0
   -0.6465   -0.9928    1.7310 H   0  0  0  0  0  0  0  0  0  0  0  0
   -1.0539    1.3342    1.1908 N   0  0  0  0  0  0  0  0  0  0  0  0
   -1.3176    2.7436    1.0667 C   0  0  2  0  0  0  0  0  0  0  0  0
   -2.6708    2.9110    0.3884 C   0  0  0  0  0  0  0  0  0  0  0  0
   -3.1816    2.0406   -0.3134 O   0  0  0  0  0  0  0  0  0  0  0  0
   -0.2231    3.4439    0.2765 C   0  0  0  0  0  0  0  0  0  0  0  0
   -1.7236    0.7613    1.7016 H   0  0  0  0  0  0  0  0  0  0  0  0
   -1.3660    3.1471    2.0841 H   0  0  0  0  0  0  0  0  0  0  0  0
   -0.1595    3.0529   -0.7456 H   0  0  0  0  0  0  0  0  0  0  0  0
   -0.4104    4.5205    0.2075 H   0  0  0  0  0  0  0  0  0  0  0  0
    0.7538    3.2974    0.7497 H   0  0  0  0  0  0  0  0  0  0  0  0
   -3.2212    4.1632    0.6236 N   0  0  0  0  0  0  0  0  0  0  0  0
   -4.4950    4.5700    0.0778 C   0  0  0  0  0  0  0  0  0  0  0  0
   -2.7368    4.8154    1.2334 H   0  0  0  0  0  0  0  0  0  0  0  0
   -4.3362    5.0828   -0.8822 H   0  0  0  0  0  0  0  0  0  0  0  0
   -5.1260    3.6830   -0.0804 H   0  0  0  0  0  0  0  0  0  0  0  0
   -4.9934    5.2539    0.7807 H   0  0  0  0  0  0  0  0  0  0  0  0
  1  3  1  0  0  0  0
  1  7  1  0  0  0  0
  1  2  2  0  0  0  0
 18 19  1  0  0  0  0
 19 24  1  0  0  0  0
 19 20  2  0  0  0  0
 25 26  1  0  0  0  0
 26 34  1  0  0  0  0
 26 27  2  0  0  0  0
  8  9  1  0  0  0  0
  9 17  1  0  0  0  0
  9 10  2  0  0  0  0
 25 28  1  0  0  0  0
  8 11  1  0  0  0  0
 34 35  1  0  0  0  0
 17 18  1  0  0  0  0
 24 25  1  0  0  0  0
  7  8  1  0  0  0  0
  3  4  1  0  0  0  0
  3  5  1  0  0  0  0
  3  6  1  0  0  0  0
 28 31  1  0  0  0  0
 28 32  1  0  0  0  0
 28 33  1  0  0  0  0
 11 14  1  0  0  0  0
 11 15  1  0  0  0  0
 11 16  1  0  0  0  0
 35 37  1  0  0  0  0
 35 38  1  0  0  0  0
 35 39  1  0  0  0  0
 18 22  1  0  0  0  0
 18 23  1  0  0  0  0
 25 30  1  0  0  0  0
  8 13  1  0  0  0  0
 34 36  1  0  0  0  0
 17 21  1  0  0  0  0
  7 12  1  0  0  0  0
 24 29  1  0  0  0  0
M  END
$$$$

  -OEChem-05262214473D

 39 38  0     1  0  0  0  0  0999 V2000
   -3.5200   -4.0268   -1.6943 C   0  0  0  0  0  0  0  0  0  0  0  0
   -2.8702   -4.8827   -1.1054 O   0  0  0  0  0  0  0  0  0  0  0  0
   -4.9704   -4.2579   -1.9614 C   0  0  0  0  0  0  0  0  0  0  0  0
   -5.1456   -4.7573   -2.9278 H   0  0  0  0  0  0  0  0  0  0  0  0
   -5.4379   -4.9112   -1.2072 H   0  0  0  0  0  0  0  0  0  0  0  0
   -5.5954   -3.3510   -1.9864 H   0  0  0  0  0  0  0  0  0  0  0  0
   -3.0424   -2.8131   -2.1606 N   0  0  0  0  0  0  0  0  0  0  0  0
   -1.6755   -2.3891   -2.0077 C   0  0  2  0  0  0  0  0  0  0  0  0
   -1.5782   -1.5673   -0.7292 C   0  0  0  0  0  0  0  0  0  0  0  0
   -2.5448   -1.0064   -0.2171 O   0  0  0  0  0  0  0  0  0  0  0  0
   -1.2087   -1.5823   -3.2094 C   0  0  0  0  0  0  0  0  0  0  0  0
   -3.6915   -2.1888   -2.6360 H   0  0  0  0  0  0  0  0  0  0  0  0
   -1.0721   -3.2977   -1.9053 H   0  0  0  0  0  0  0  0  0  0  0  0
   -1.8017   -0.6681   -3.3281 H   0  0  0  0  0  0  0  0  0  0  0  0
   -0.1601   -1.2849   -3.1045 H   0  0  0  0  0  0  0  0  0  0  0  0
   -1.3074   -2.1646   -4.1319 H   0  0  0  0  0  0  0  0  0  0  0  0
   -0.2835   -1.5112   -0.2725 N   0  0  0  0  0  0  0  0  0  0  0  0
    0.0769   -0.7658    0.9424 C   0  0  0  0  0  0  0  0  0  0  0  0
    0.0668    0.7130    0.6501 C   0  0  0  0  0  0  0  0  0  0  0  0
    0.7864    1.2397   -0.1944 O   0  0  0  0  0  0  0  0  0  0  0  0
    0.4587   -2.0097   -0.7289 H   0  0  0  0  0  0  0  0  0  0  0  0
    1.0758   -1.0701    1.2687 H   0  0  0  0  0  0  0  0  0  0  0  0
   -0.6465   -0.9928    1.7310 H   0  0  0  0  0  0  0  0  0  0  0  0
   -0.8474    1.3874    1.4524 N   0  0  0  0  0  0  0  0  0  0  0  0
   -1.0631    2.8089    1.3878 C   0  0  2  0  0  0  0  0  0  0  0  0
   -2.5341    3.0475    1.0739 C   0  0  0  0  0  0  0  0  0  0  0  0
   -3.2493    2.2073    0.5320 O   0  0  0  0  0  0  0  0  0  0  0  0
   -0.1716    3.4568    0.3399 C   0  0  0  0  0  0  0  0  0  0  0  0
   -1.3932    0.8465    2.1212 H   0  0  0  0  0  0  0  0  0  0  0  0
   -0.8313    3.2094    2.3808 H   0  0  0  0  0  0  0  0  0  0  0  0
   -0.3892    3.0680   -0.6615 H   0  0  0  0  0  0  0  0  0  0  0  0
   -0.3163    4.5418    0.3119 H   0  0  0  0  0  0  0  0  0  0  0  0
    0.8849    3.2589    0.5508 H   0  0  0  0  0  0  0  0  0  0  0  0
   -2.9434    4.3247    1.4309 N   0  0  0  0  0  0  0  0  0  0  0  0
   -4.2921    4.7978    1.2230 C   0  0  0  0  0  0  0  0  0  0  0  0
   -2.2881    4.9487    1.8923 H   0  0  0  0  0  0  0  0  0  0  0  0
   -4.3569    5.3066    0.2499 H   0  0  0  0  0  0  0  0  0  0  0  0
   -4.9862    3.9445    1.2374 H   0  0  0  0  0  0  0  0  0  0  0  0
   -4.5608    5.5026    2.0237 H   0  0  0  0  0  0  0  0  0  0  0  0
  1  3  1  0  0  0  0
  1  7  1  0  0  0  0
  1  2  2  0  0  0  0
 18 19  1  0  0  0  0
 19 24  1  0  0  0  0
 19 20  2  0  0  0  0
 25 26  1  0  0  0  0
 26 34  1  0  0  0  0
 26 27  2  0  0  0  0
  8  9  1  0  0  0  0
  9 17  1  0  0  0  0
  9 10  2  0  0  0  0
 25 28  1  0  0  0  0
  8 11  1  0  0  0  0
 34 35  1  0  0  0  0
 17 18  1  0  0  0  0
 24 25  1  0  0  0  0
  7  8  1  0  0  0  0
  3  4  1  0  0  0  0
  3  5  1  0  0  0  0
  3  6  1  0  0  0  0
 28 31  1  0  0  0  0
 28 32  1  0  0  0  0
 28 33  1  0  0  0  0
 11 14  1  0  0  0  0
 11 15  1  0  0  0  0
 11 16  1  0  0  0  0
 35 37  1  0  0  0  0
 35 38  1  0  0  0  0
 35 39  1  0  0  0  0
 18 22  1  0  0  0  0
 18 23  1  0  0  0  0
 25 30  1  0  0  0  0
  8 13  1  0  0  0  0
 34 36  1  0  0  0  0
 17 21  1  0  0  0  0
  7 12  1  0  0  0  0
 24 29  1  0  0  0  0
M  END
$$$$

  -OEChem-05262214473D

 39 38  0     1  0  0  0  0  0999 V2000
   -3.5200   -4.0268   -1.6943 C   0  0  0  0  0  0  0  0  0  0  0  0
   -2.8702   -4.8827   -1.1054 O   0  0  0  0  0  0  0  0  0  0  0  0
   -4.9704   -4.2579   -1.9614 C   0  0  0  0  0  0  0  0  0  0  0  0
   -5.1456   -4.7573   -2.9278 H   0  0  0  0  0  0  0  0  0  0  0  0
   -5.4379   -4.9112   -1.2072 H   0  0  0  0  0  0  0  0  0  0  0  0
   -5.5954   -3.3510   -1.9864 H   0  0  0  0  0  0  0  0  0  0  0  0
   -3.0424   -2.8131   -2.1606 N   0  0  0  0  0  0  0  0  0  0  0  0
   -1.6755   -2.3891   -2.0077 C   0  0  2  0  0  0  0  0  0  0  0  0
   -1.5782   -1.5673   -0.7292 C   0  0  0  0  0  0  0  0  0  0  0  0
   -2.5448   -1.0064   -0.2171 O   0  0  0  0  0  0  0  0  0  0  0  0
   -1.2087   -1.5823   -3.2094 C   0  0  0  0  0  0  0  0  0  0  0  0
   -3.6915   -2.1888   -2.6360 H   0  0  0  0  0  0  0  0  0  0  0  0
   -1.0721   -3.2977   -1.9053 H   0  0  0  0  0  0  0  0  0  0  0  0
   -1.8017   -0.6681   -3.3281 H   0  0  0  0  0  0  0  0  0  0  0  0
   -0.1601   -1.2849   -3.1045 H   0  0  0  0  0  0  0  0  0  0  0  0
   -1.3074   -2.1646   -4.1319 H   0  0  0  0  0  0  0  0  0  0  0  0
   -0.2835   -1.5112   -0.2725 N   0  0  0  0  0  0  0  0  0  0  0  0
    0.0769   -0.7658    0.9424 C   0  0  0  0  0  0  0  0  0  0  0  0
    0.0668    0.7130    0.6501 C   0  0  0  0  0  0  0  0  0  0  0  0
    0.5737    1.2068   -0.3537 O   0  0  0  0  0  0  0  0  0  0  0  0
    0.4587   -2.0097   -0.7289 H   0  0  0  0  0  0  0  0  0  0  0  0
    1.0758   -1.0701    1.2687 H   0  0  0  0  0  0  0  0  0  0  0  0
   -0.6465   -0.9928    1.7310 H   0  0  0  0  0  0  0  0  0  0  0  0
   -0.5788    1.4288    1.6527 N   0  0  0  0  0  0  0  0  0  0  0  0
   -0.7325    2.8596    1.6333 C   0  0  2  0  0  0  0  0  0  0  0  0
   -2.2212    3.1737    1.7011 C   0  0  0  0  0  0  0  0  0  0  0  0
   -3.0916    2.3732    1.3654 O   0  0  0  0  0  0  0  0  0  0  0  0
   -0.1051    3.4667    0.3881 C   0  0  0  0  0  0  0  0  0  0  0  0
   -0.9631    0.9130    2.4425 H   0  0  0  0  0  0  0  0  0  0  0  0
   -0.2364    3.2432    2.5315 H   0  0  0  0  0  0  0  0  0  0  0  0
   -0.5891    3.0942   -0.5221 H   0  0  0  0  0  0  0  0  0  0  0  0
   -0.1977    4.5578    0.3888 H   0  0  0  0  0  0  0  0  0  0  0  0
    0.9591    3.2149    0.3255 H   0  0  0  0  0  0  0  0  0  0  0  0
   -2.4621    4.4681    2.1398 N   0  0  0  0  0  0  0  0  0  0  0  0
   -3.7939    5.0096    2.2772 C   0  0  0  0  0  0  0  0  0  0  0  0
   -1.6807    5.0561    2.4146 H   0  0  0  0  0  0  0  0  0  0  0  0
   -4.0782    5.5256    1.3483 H   0  0  0  0  0  0  0  0  0  0  0  0
   -4.5033    4.1924    2.4743 H   0  0  0  0  0  0  0  0  0  0  0  0
   -3.8149    5.7232    3.1141 H   0  0  0  0  0  0  0  0  0  0  0  0
  1  3  1  0  0  0  0
  1  7  1  0  0  0  0
  1  2  2  0  0  0  0
 18 19  1  0  0  0  0
 19 24  1  0  0  0  0
 19 20  2  0  0  0  0
 25 26  1  0  0  0  0
 26 34  1  0  0  0  0
 26 27  2  0  0  0  0
  8  9  1  0  0  0  0
  9 17  1  0  0  0  0
  9 10  2  0  0  0  0
 25 28  1  0  0  0  0
  8 11  1  0  0  0  0
 34 35  1  0  0  0  0
 17 18  1  0  0  0  0
 24 25  1  0  0  0  0
  7  8  1  0  0  0  0
  3  4  1  0  0  0  0
  3  5  1  0  0  0  0
  3  6  1  0  0  0  0
 28 31  1  0  0  0  0
 28 32  1  0  0  0  0
 28 33  1  0  0  0  0
 11 14  1  0  0  0  0
 11 15  1  0  0  0  0
 11 16  1  0  0  0  0
 35 37  1  0  0  0  0
 35 38  1  0  0  0  0
 35 39  1  0  0  0  0
 18 22  1  0  0  0  0
 18 23  1  0  0  0  0
 25 30  1  0  0  0  0
  8 13  1  0  0  0  0
 34 36  1  0  0  0  0
 17 21  1  0  0  0  0
  7 12  1  0  0  0  0
 24 29  1  0  0  0  0
M  END
$$$$

  -OEChem-05262214473D

 39 38  0     1  0  0  0  0  0999 V2000
   -3.5200   -4.0268   -1.6943 C   0  0  0  0  0  0  0  0  0  0  0  0
   -2.8702   -4.8827   -1.1054 O   0  0  0  0  0  0  0  0  0  0  0  0
   -4.9704   -4.2579   -1.9614 C   0  0  0  0  0  0  0  0  0  0  0  0
   -5.1456   -4.7573   -2.9278 H   0  0  0  0  0  0  0  0  0  0  0  0
   -5.4379   -4.9112   -1.2072 H   0  0  0  0  0  0  0  0  0  0  0  0
   -5.5954   -3.3510   -1.9864 H   0  0  0  0  0  0  0  0  0  0  0  0
   -3.0424   -2.8131   -2.1606 N   0  0  0  0  0  0  0  0  0  0  0  0
   -1.6755   -2.3891   -2.0077 C   0  0  2  0  0  0  0  0  0  0  0  0
   -1.5782   -1.5673   -0.7292 C   0  0  0  0  0  0  0  0  0  0  0  0
   -2.5448   -1.0064   -0.2171 O   0  0  0  0  0  0  0  0  0  0  0  0
   -1.2087   -1.5823   -3.2094 C   0  0  0  0  0  0  0  0  0  0  0  0
   -3.6915   -2.1888   -2.6360 H   0  0  0  0  0  0  0  0  0  0  0  0
   -1.0721   -3.2977   -1.9053 H   0  0  0  0  0  0  0  0  0  0  0  0
   -1.8017   -0.6681   -3.3281 H   0  0  0  0  0  0  0  0  0  0  0  0
   -0.1601   -1.2849   -3.1045 H   0  0  0  0  0  0  0  0  0  0  0  0
   -1.3074   -2.1646   -4.1319 H   0  0  0  0  0  0  0  0  0  0  0  0
   -0.2835   -1.5112   -0.2725 N   0  0  0  0  0  0  0  0  0  0  0  0
    0.0769   -0.7658    0.9424 C   0  0  0  0  0  0  0  0  0  0  0  0
    0.0668    0.7130    0.6501 C   0  0  0  0  0  0  0  0  0  0  0  0
    0.3262    1.1854   -0.4535 O   0  0  0  0  0  0  0  0  0  0  0  0
    0.4587   -2.0097   -0.7289 H   0  0  0  0  0  0  0  0  0  0  0  0
    1.0758   -1.0701    1.2687 H   0  0  0  0  0  0  0  0  0  0  0  0
   -0.6465   -0.9928    1.7310 H   0  0  0  0  0  0  0  0  0  0  0  0
   -0.2664    1.4556    1.7778 N   0  0  0  0  0  0  0  0  0  0  0  0
   -0.3483    2.8925    1.7863 C   0  0  2  0  0  0  0  0  0  0  0  0
   -1.7533    3.2809    2.2273 C   0  0  0  0  0  0  0  0  0  0  0  0
   -2.7193    2.5269    2.1300 O   0  0  0  0  0  0  0  0  0  0  0  0
   -0.0281    3.4731    0.4177 C   0  0  0  0  0  0  0  0  0  0  0  0
   -0.4629    0.9561    2.6436 H   0  0  0  0  0  0  0  0  0  0  0  0
    0.3781    3.2463    2.5261 H   0  0  0  0  0  0  0  0  0  0  0  0
   -0.7454    3.1298   -0.3367 H   0  0  0  0  0  0  0  0  0  0  0  0
   -0.0629    4.5675    0.4330 H   0  0  0  0  0  0  0  0  0  0  0  0
    0.9713    3.1682    0.0891 H   0  0  0  0  0  0  0  0  0  0  0  0
   -1.8099    4.5838    2.7021 N   0  0  0  0  0  0  0  0  0  0  0  0
   -3.0344    5.1911    3.1687 C   0  0  0  0  0  0  0  0  0  0  0  0
   -0.9560    5.1303    2.7647 H   0  0  0  0  0  0  0  0  0  0  0  0
   -3.5191    5.7252    2.3381 H   0  0  0  0  0  0  0  0  0  0  0  0
   -3.7104    4.4097    3.5461 H   0  0  0  0  0  0  0  0  0  0  0  0
   -2.8065    5.9008    3.9775 H   0  0  0  0  0  0  0  0  0  0  0  0
  1  3  1  0  0  0  0
  1  7  1  0  0  0  0
  1  2  2  0  0  0  0
 18 19  1  0  0  0  0
 19 24  1  0  0  0  0
 19 20  2  0  0  0  0
 25 26  1  0  0  0  0
 26 34  1  0  0  0  0
 26 27  2  0  0  0  0
  8  9  1  0  0  0  0
  9 17  1  0  0  0  0
  9 10  2  0  0  0  0
 25 28  1  0  0  0  0
  8 11  1  0  0  0  0
 34 35  1  0  0  0  0
 17 18  1  0  0  0  0
 24 25  1  0  0  0  0
  7  8  1  0  0  0  0
  3  4  1  0  0  0  0
  3  5  1  0  0  0  0
  3  6  1  0  0  0  0
 28 31  1  0  0  0  0
 28 32  1  0  0  0  0
 28 33  1  0  0  0  0
 11 14  1  0  0  0  0
 11 15  1  0  0  0  0
 11 16  1  0  0  0  0
 35 37  1  0  0  0  0
 35 38  1  0  0  0  0
 35 39  1  0  0  0  0
 18 22  1  0  0  0  0
 18 23  1  0  0  0  0
 25 30  1  0  0  0  0
  8 13  1  0  0  0  0
 34 36  1  0  0  0  0
 17 21  1  0  0  0  0
  7 12  1  0  0  0  0
 24 29  1  0  0  0  0
M  END
$$$$

  -OEChem-05262214473D

 39 38  0     1  0  0  0  0  0999 V2000
   -3.5200   -4.0268   -1.6943 C   0  0  0  0  0  0  0  0  0  0  0  0
   -2.8702   -4.8827   -1.1054 O   0  0  0  0  0  0  0  0  0  0  0  0
   -4.9704   -4.2579   -1.9614 C   0  0  0  0  0  0  0  0  0  0  0  0
   -5.1456   -4.7573   -2.9278 H   0  0  0  0  0  0  0  0  0  0  0  0
   -5.4379   -4.9112   -1.2072 H   0  0  0  0  0  0  0  0  0  0  0  0
   -5.5954   -3.3510   -1.9864 H   0  0  0  0  0  0  0  0  0  0  0  0
   -3.0424   -2.8131   -2.1606 N   0  0  0  0  0  0  0  0  0  0  0  0
   -1.6755   -2.3891   -2.0077 C   0  0  2  0  0  0  0  0  0  0  0  0
   -1.5782   -1.5673   -0.7292 C   0  0  0  0  0  0  0  0  0  0  0  0
   -2.5448   -1.0064   -0.2171 O   0  0  0  0  0  0  0  0  0  0  0  0
   -1.2087   -1.5823   -3.2094 C   0  0  0  0  0  0  0  0  0  0  0  0
   -3.6915   -2.1888   -2.6360 H   0  0  0  0  0  0  0  0  0  0  0  0
   -1.0721   -3.2977   -1.9053 H   0  0  0  0  0  0  0  0  0  0  0  0
   -1.8017   -0.6681   -3.3281 H   0  0  0  0  0  0  0  0  0  0  0  0
   -0.1601   -1.2849   -3.1045 H   0  0  0  0  0  0  0  0  0  0  0  0
   -1.3074   -2.1646   -4.1319 H   0  0  0  0  0  0  0  0  0  0  0  0
   -0.2835   -1.5112   -0.2725 N   0  0  0  0  0  0  0  0  0  0  0  0
    0.0769   -0.7658    0.9424 C   0  0  0  0  0  0  0  0  0  0  0  0
    0.0668    0.7130    0.6501 C   0  0  0  0  0  0  0  0  0  0  0  0
    0.0608    1.1770   -0.4871 O   0  0  0  0  0  0  0  0  0  0  0  0
    0.4587   -2.0097   -0.7289 H   0  0  0  0  0  0  0  0  0  0  0  0
    1.0758   -1.0701    1.2687 H   0  0  0  0  0  0  0  0  0  0  0  0
   -0.6465   -0.9928    1.7310 H   0  0  0  0  0  0  0  0  0  0  0  0
    0.0685    1.4661    1.8193 N   0  0  0  0  0  0  0  0  0  0  0  0
    0.0634    2.9052    1.8366 C   0  0  2  0  0  0  0  0  0  0  0  0
   -1.1625    3.3619    2.6165 C   0  0  0  0  0  0  0  0  0  0  0  0
   -2.1579    2.6580    2.7739 O   0  0  0  0  0  0  0  0  0  0  0  0
    0.0541    3.4755    0.4268 C   0  0  0  0  0  0  0  0  0  0  0  0
    0.0736    0.9731    2.7107 H   0  0  0  0  0  0  0  0  0  0  0  0
    0.9705    3.2184    2.3647 H   0  0  0  0  0  0  0  0  0  0  0  0
   -0.8475    3.1724   -0.1180 H   0  0  0  0  0  0  0  0  0  0  0  0
    0.0791    4.5701    0.4414 H   0  0  0  0  0  0  0  0  0  0  0  0
    0.9208    3.1221   -0.1422 H   0  0  0  0  0  0  0  0  0  0  0  0
   -1.0314    4.6637    3.0794 N   0  0  0  0  0  0  0  0  0  0  0  0
   -2.0654    5.3297    3.8366 C   0  0  0  0  0  0  0  0  0  0  0  0
   -0.1634    5.1661    2.9188 H   0  0  0  0  0  0  0  0  0  0  0  0
   -2.7177    5.8915    3.1519 H   0  0  0  0  0  0  0  0  0  0  0  0
   -2.6616    4.5816    4.3797 H   0  0  0  0  0  0  0  0  0  0  0  0
   -1.6044    6.0232    4.5553 H   0  0  0  0  0  0  0  0  0  0  0  0
  1  3  1  0  0  0  0
  1  7  1  0  0  0  0
  1  2  2  0  0  0  0
 18 19  1  0  0  0  0
 19 24  1  0  0  0  0
 19 20  2  0  0  0  0
 25 26  1  0  0  0  0
 26 34  1  0  0  0  0
 26 27  2  0  0  0  0
  8  9  1  0  0  0  0
  9 17  1  0  0  0  0
  9 10  2  0  0  0  0
 25 28  1  0  0  0  0
  8 11  1  0  0  0  0
 34 35  1  0  0  0  0
 17 18  1  0  0  0  0
 24 25  1  0  0  0  0
  7  8  1  0  0  0  0
  3  4  1  0  0  0  0
  3  5  1  0  0  0  0
  3  6  1  0  0  0  0
 28 31  1  0  0  0  0
 28 32  1  0  0  0  0
 28 33  1  0  0  0  0
 11 14  1  0  0  0  0
 11 15  1  0  0  0  0
 11 16  1  0  0  0  0
 35 37  1  0  0  0  0
 35 38  1  0  0  0  0
 35 39  1  0  0  0  0
 18 22  1  0  0  0  0
 18 23  1  0  0  0  0
 25 30  1  0  0  0  0
  8 13  1  0  0  0  0
 34 36  1  0  0  0  0
 17 21  1  0  0  0  0
  7 12  1  0  0  0  0
 24 29  1  0  0  0  0
M  END
$$$$

  -OEChem-05262214473D

 39 38  0     1  0  0  0  0  0999 V2000
   -3.5200   -4.0268   -1.6943 C   0  0  0  0  0  0  0  0  0  0  0  0
   -2.8702   -4.8827   -1.1054 O   0  0  0  0  0  0  0  0  0  0  0  0
   -4.9704   -4.2579   -1.9614 C   0  0  0  0  0  0  0  0  0  0  0  0
   -5.1456   -4.7573   -2.9278 H   0  0  0  0  0  0  0  0  0  0  0  0
   -5.4379   -4.9112   -1.2072 H   0  0  0  0  0  0  0  0  0  0  0  0
   -5.5954   -3.3510   -1.9864 H   0  0  0  0  0  0  0  0  0  0  0  0
   -3.0424   -2.8131   -2.1606 N   0  0  0  0  0  0  0  0  0  0  0  0
   -1.6755   -2.3891   -2.0077 C   0  0  2  0  0  0  0  0  0  0  0  0
   -1.5782   -1.5673   -0.7292 C   0  0  0  0  0  0  0  0  0  0  0  0
   -2.5448   -1.0064   -0.2171 O   0  0  0  0  0  0  0  0  0  0  0  0
   -1.2087   -1.5823   -3.2094 C   0  0  0  0  0  0  0  0  0  0  0  0
   -3.6915   -2.1888   -2.6360 H   0  0  0  0  0  0  0  0  0  0  0  0
   -1.0721   -3.2977   -1.9053 H   0  0  0  0  0  0  0  0  0  0  0  0
   -1.8017   -0.6681   -3.3281 H   0  0  0  0  0  0  0  0  0  0  0  0
   -0.1601   -1.2849   -3.1045 H   0  0  0  0  0  0  0  0  0  0  0  0
   -1.3074   -2.1646   -4.1319 H   0  0  0  0  0  0  0  0  0  0  0  0
   -0.2835   -1.5112   -0.2725 N   0  0  0  0  0  0  0  0  0  0  0  0
    0.0769   -0.7658    0.9424 C   0  0  0  0  0  0  0  0  0  0  0  0
   -0.2832    0.6877    0.7694 C   0  0  0  0  0  0  0  0  0  0  0  0
   -0.7966    1.1399   -0.2506 O   0  0  0  0  0  0  0  0  0  0  0  0
    0.4587   -2.0097   -0.7289 H   0  0  0  0  0  0  0  0  0  0  0  0
    1.1526   -0.8605    1.1173 H   0  0  0  0  0  0  0  0  0  0  0  0
   -0.4668   -1.1836    1.7948 H   0  0  0  0  0  0  0  0  0  0  0  0
    0.0410    1.4334    1.8978 N   0  0  0  0  0  0  0  0  0  0  0  0
   -0.1904    2.8497    2.0067 C   0  0  2  0  0  0  0  0  0  0  0  0
   -1.0839    3.0886    3.2168 C   0  0  0  0  0  0  0  0  0  0  0  0
   -1.8162    2.2227    3.6912 O   0  0  0  0  0  0  0  0  0  0  0  0
   -0.8276    3.4051    0.7425 C   0  0  0  0  0  0  0  0  0  0  0  0
    0.4646    0.9516    2.6890 H   0  0  0  0  0  0  0  0  0  0  0  0
    0.7857    3.3177    2.1747 H   0  0  0  0  0  0  0  0  0  0  0  0
   -1.8066    2.9480    0.5577 H   0  0  0  0  0  0  0  0  0  0  0  0
   -0.9768    4.4874    0.8159 H   0  0  0  0  0  0  0  0  0  0  0  0
   -0.1977    3.2062   -0.1312 H   0  0  0  0  0  0  0  0  0  0  0  0
   -0.9995    4.3948    3.6781 N   0  0  0  0  0  0  0  0  0  0  0  0
   -1.7609    4.8731    4.8084 C   0  0  0  0  0  0  0  0  0  0  0  0
   -0.3517    5.0401    3.2357 H   0  0  0  0  0  0  0  0  0  0  0  0
   -2.7064    5.3107    4.4554 H   0  0  0  0  0  0  0  0  0  0  0  0
   -1.9758    4.0345    5.4869 H   0  0  0  0  0  0  0  0  0  0  0  0
   -1.1802    5.6386    5.3440 H   0  0  0  0  0  0  0  0  0  0  0  0
  1  3  1  0  0  0  0
  1  7  1  0  0  0  0
  1  2  2  0  0  0  0
 18 19  1  0  0  0  0
 19 24  1  0  0  0  0
 19 20  2  0  0  0  0
 25 26  1  0  0  0  0
 26 34  1  0  0  0  0
 26 27  2  0  0  0  0
  8  9  1  0  0  0  0
  9 17  1  0  0  0  0
  9 10  2  0  0  0  0
 25 28  1  0  0  0  0
  8 11  1  0  0  0  0
 34 35  1  0  0  0  0
 17 18  1  0  0  0  0
 24 25  1  0  0  0  0
  7  8  1  0  0  0  0
  3  4  1  0  0  0  0
  3  5  1  0  0  0  0
  3  6  1  0  0  0  0
 28 31  1  0  0  0  0
 28 32  1  0  0  0  0
 28 33  1  0  0  0  0
 11 14  1  0  0  0  0
 11 15  1  0  0  0  0
 11 16  1  0  0  0  0
 35 37  1  0  0  0  0
 35 38  1  0  0  0  0
 35 39  1  0  0  0  0
 18 22  1  0  0  0  0
 18 23  1  0  0  0  0
 25 30  1  0  0  0  0
  8 13  1  0  0  0  0
 34 36  1  0  0  0  0
 17 21  1  0  0  0  0
  7 12  1  0  0  0  0
 24 29  1  0  0  0  0
M  END
$$$$

  -OEChem-05262214473D

 39 38  0     1  0  0  0  0  0999 V2000
   -3.5200   -4.0268   -1.6943 C   0  0  0  0  0  0  0  0  0  0  0  0
   -2.8702   -4.8827   -1.1054 O   0  0  0  0  0  0  0  0  0  0  0  0
   -4.9704   -4.2579   -1.9614 C   0  0  0  0  0  0  0  0  0  0  0  0
   -5.1456   -4.7573   -2.9278 H   0  0  0  0  0  0  0  0  0  0  0  0
   -5.4379   -4.9112   -1.2072 H   0  0  0  0  0  0  0  0  0  0  0  0
   -5.5954   -3.3510   -1.9864 H   0  0  0  0  0  0  0  0  0  0  0  0
   -3.0424   -2.8131   -2.1606 N   0  0  0  0  0  0  0  0  0  0  0  0
   -1.6755   -2.3891   -2.0077 C   0  0  2  0  0  0  0  0  0  0  0  0
   -1.5782   -1.5673   -0.7292 C   0  0  0  0  0  0  0  0  0  0  0  0
   -2.5448   -1.0064   -0.2171 O   0  0  0  0  0  0  0  0  0  0  0  0
   -1.2087   -1.5823   -3.2094 C   0  0  0  0  0  0  0  0  0  0  0  0
   -3.6915   -2.1888   -2.6360 H   0  0  0  0  0  0  0  0  0  0  0  0
   -1.0721   -3.2977   -1.9053 H   0  0  0  0  0  0  0  0  0  0  0  0
   -1.8017   -0.6681   -3.3281 H   0  0  0  0  0  0  0  0  0  0  0  0
   -0.1601   -1.2849   -3.1045 H   0  0  0  0  0  0  0  0  0  0  0  0
   -1.3074   -2.1646   -4.1319 H   0  0  0  0  0  0  0  0  0  0  0  0
   -0.2835   -1.5112   -0.2725 N   0  0  0  0  0  0  0  0  0  0  0  0
    0.0769   -0.7658    0.9424 C   0  0  0  0  0  0  0  0  0  0  0  0
   -0.2832    0.6877    0.7694 C   0  0  0  0  0  0  0  0  0  0  0  0
   -1.0257    1.0989   -0.1183 O   0  0  0  0  0  0  0  0  0  0  0  0
    0.4587   -2.0097   -0.7289 H   0  0  0  0  0  0  0  0  0  0  0  0
    1.1526   -0.8605    1.1173 H   0  0  0  0  0  0  0  0  0  0  0  0
   -0.4668   -1.1836    1.7948 H   0  0  0  0  0  0  0  0  0  0  0  0
    0.3295    1.4849    1.7303 N   0  0  0  0  0  0  0  0  0  0  0  0
    0.1638    2.9129    1.8002 C   0  0  2  0  0  0  0  0  0  0  0  0
   -0.3926    3.2550    3.1761 C   0  0  0  0  0  0  0  0  0  0  0  0
   -1.0015    2.4463    3.8734 O   0  0  0  0  0  0  0  0  0  0  0  0
   -0.7574    3.4175    0.7005 C   0  0  0  0  0  0  0  0  0  0  0  0
    0.9272    1.0343    2.4212 H   0  0  0  0  0  0  0  0  0  0  0  0
    1.1609    3.3528    1.6892 H   0  0  0  0  0  0  0  0  0  0  0  0
   -1.7612    2.9876    0.7953 H   0  0  0  0  0  0  0  0  0  0  0  0
   -0.8598    4.5071    0.7376 H   0  0  0  0  0  0  0  0  0  0  0  0
   -0.3709    3.1447   -0.2874 H   0  0  0  0  0  0  0  0  0  0  0  0
   -0.1668    4.5817    3.5152 N   0  0  0  0  0  0  0  0  0  0  0  0
   -0.6101    5.1531    4.7654 C   0  0  0  0  0  0  0  0  0  0  0  0
    0.3635    5.1754    2.8843 H   0  0  0  0  0  0  0  0  0  0  0  0
   -1.6041    5.6046    4.6307 H   0  0  0  0  0  0  0  0  0  0  0  0
   -0.6665    4.3639    5.5296 H   0  0  0  0  0  0  0  0  0  0  0  0
    0.1028    5.9260    5.0884 H   0  0  0  0  0  0  0  0  0  0  0  0
  1  3  1  0  0  0  0
  1  7  1  0  0  0  0
  1  2  2  0  0  0  0
 18 19  1  0  0  0  0
 19 24  1  0  0  0  0
 19 20  2  0  0  0  0
 25 26  1  0  0  0  0
 26 34  1  0  0  0  0
 26 27  2  0  0  0  0
  8  9  1  0  0  0  0
  9 17  1  0  0  0  0
  9 10  2  0  0  0  0
 25 28  1  0  0  0  0
  8 11  1  0  0  0  0
 34 35  1  0  0  0  0
 17 18  1  0  0  0  0
 24 25  1  0  0  0  0
  7  8  1  0  0  0  0
  3  4  1  0  0  0  0
  3  5  1  0  0  0  0
  3  6  1  0  0  0  0
 28 31  1  0  0  0  0
 28 32  1  0  0  0  0
 28 33  1  0  0  0  0
 11 14  1  0  0  0  0
 11 15  1  0  0  0  0
 11 16  1  0  0  0  0
 35 37  1  0  0  0  0
 35 38  1  0  0  0  0
 35 39  1  0  0  0  0
 18 22  1  0  0  0  0
 18 23  1  0  0  0  0
 25 30  1  0  0  0  0
  8 13  1  0  0  0  0
 34 36  1  0  0  0  0
 17 21  1  0  0  0  0
  7 12  1  0  0  0  0
 24 29  1  0  0  0  0
M  END
$$$$

  -OEChem-05262214473D

 39 38  0     1  0  0  0  0  0999 V2000
   -3.5200   -4.0268   -1.6943 C   0  0  0  0  0  0  0  0  0  0  0  0
   -2.8702   -4.8827   -1.1054 O   0  0  0  0  0  0  0  0  0  0  0  0
   -4.9704   -4.2579   -1.9614 C   0  0  0  0  0  0  0  0  0  0  0  0
   -5.1456   -4.7573   -2.9278 H   0  0  0  0  0  0  0  0  0  0  0  0
   -5.4379   -4.9112   -1.2072 H   0  0  0  0  0  0  0  0  0  0  0  0
   -5.5954   -3.3510   -1.9864 H   0  0  0  0  0  0  0  0  0  0  0  0
   -3.0424   -2.8131   -2.1606 N   0  0  0  0  0  0  0  0  0  0  0  0
   -1.6755   -2.3891   -2.0077 C   0  0  2  0  0  0  0  0  0  0  0  0
   -1.5782   -1.5673   -0.7292 C   0  0  0  0  0  0  0  0  0  0  0  0
   -2.5448   -1.0064   -0.2171 O   0  0  0  0  0  0  0  0  0  0  0  0
   -1.2087   -1.5823   -3.2094 C   0  0  0  0  0  0  0  0  0  0  0  0
   -3.6915   -2.1888   -2.6360 H   0  0  0  0  0  0  0  0  0  0  0  0
   -1.0721   -3.2977   -1.9053 H   0  0  0  0  0  0  0  0  0  0  0  0
   -1.8017   -0.6681   -3.3281 H   0  0  0  0  0  0  0  0  0  0  0  0
   -0.1601   -1.2849   -3.1045 H   0  0  0  0  0  0  0  0  0  0  0  0
   -1.3074   -2.1646   -4.1319 H   0  0  0  0  0  0  0  0  0  0  0  0
   -0.2835   -1.5112   -0.2725 N   0  0  0  0  0  0  0  0  0  0  0  0
    0.0769   -0.7658    0.9424 C   0  0  0  0  0  0  0  0  0  0  0  0
   -0.2832    0.6877    0.7694 C   0  0  0  0  0  0  0  0  0  0  0  0
   -1.2152    1.0743    0.0691 O   0  0  0  0  0  0  0  0  0  0  0  0
    0.4587   -2.0097   -0.7289 H   0  0  0  0  0  0  0  0  0  0  0  0
    1.1526   -0.8605    1.1173 H   0  0  0  0  0  0  0  0  0  0  0  0
   -0.4668   -1.1836    1.7948 H   0  0  0  0  0  0  0  0  0  0  0  0
    0.5680    1.5158    1.4934 N   0  0  0  0  0  0  0  0  0  0  0  0
    0.4563    2.9506    1.5085 C   0  0  2  0  0  0  0  0  0  0  0  0
    0.2699    3.3927    2.9539 C   0  0  0  0  0  0  0  0  0  0  0  0
   -0.1624    2.6493    3.8323 O   0  0  0  0  0  0  0  0  0  0  0  0
   -0.6998    3.4248    0.6417 C   0  0  0  0  0  0  0  0  0  0  0  0
    1.3097    1.0839    2.0420 H   0  0  0  0  0  0  0  0  0  0  0  0
    1.4032    3.3456    1.1244 H   0  0  0  0  0  0  0  0  0  0  0  0
   -1.6570    3.0391    1.0110 H   0  0  0  0  0  0  0  0  0  0  0  0
   -0.7657    4.5178    0.6314 H   0  0  0  0  0  0  0  0  0  0  0  0
   -0.5791    3.0807   -0.3912 H   0  0  0  0  0  0  0  0  0  0  0  0
    0.6024    4.7274    3.1385 N   0  0  0  0  0  0  0  0  0  0  0  0
    0.4990    5.3867    4.4194 C   0  0  0  0  0  0  0  0  0  0  0  0
    0.9706    5.2632    2.3580 H   0  0  0  0  0  0  0  0  0  0  0  0
   -0.4869    5.8667    4.5067 H   0  0  0  0  0  0  0  0  0  0  0  0
    0.6186    4.6459    5.2236 H   0  0  0  0  0  0  0  0  0  0  0  0
    1.2868    6.1497    4.5035 H   0  0  0  0  0  0  0  0  0  0  0  0
  1  3  1  0  0  0  0
  1  7  1  0  0  0  0
  1  2  2  0  0  0  0
 18 19  1  0  0  0  0
 19 24  1  0  0  0  0
 19 20  2  0  0  0  0
 25 26  1  0  0  0  0
 26 34  1  0  0  0  0
 26 27  2  0  0  0  0
  8  9  1  0  0  0  0
  9 17  1  0  0  0  0
  9 10  2  0  0  0  0
 25 28  1  0  0  0  0
  8 11  1  0  0  0  0
 34 35  1  0  0  0  0
 17 18  1  0  0  0  0
 24 25  1  0  0  0  0
  7  8  1  0  0  0  0
  3  4  1  0  0  0  0
  3  5  1  0  0  0  0
  3  6  1  0  0  0  0
 28 31  1  0  0  0  0
 28 32  1  0  0  0  0
 28 33  1  0  0  0  0
 11 14  1  0  0  0  0
 11 15  1  0  0  0  0
 11 16  1  0  0  0  0
 35 37  1  0  0  0  0
 35 38  1  0  0  0  0
 35 39  1  0  0  0  0
 18 22  1  0  0  0  0
 18 23  1  0  0  0  0
 25 30  1  0  0  0  0
  8 13  1  0  0  0  0
 34 36  1  0  0  0  0
 17 21  1  0  0  0  0
  7 12  1  0  0  0  0
 24 29  1  0  0  0  0
M  END
$$$$

  -OEChem-05262214473D

 39 38  0     1  0  0  0  0  0999 V2000
   -3.5200   -4.0268   -1.6943 C   0  0  0  0  0  0  0  0  0  0  0  0
   -2.8702   -4.8827   -1.1054 O   0  0  0  0  0  0  0  0  0  0  0  0
   -4.9704   -4.2579   -1.9614 C   0  0  0  0  0  0  0  0  0  0  0  0
   -5.1456   -4.7573   -2.9278 H   0  0  0  0  0  0  0  0  0  0  0  0
   -5.4379   -4.9112   -1.2072 H   0  0  0  0  0  0  0  0  0  0  0  0
   -5.5954   -3.3510   -1.9864 H   0  0  0  0  0  0  0  0  0  0  0  0
   -3.0424   -2.8131   -2.1606 N   0  0  0  0  0  0  0  0  0  0  0  0
   -1.6755   -2.3891   -2.0077 C   0  0  2  0  0  0  0  0  0  0  0  0
   -1.5782   -1.5673   -0.7292 C   0  0  0  0  0  0  0  0  0  0  0  0
   -2.5448   -1.0064   -0.2171 O   0  0  0  0  0  0  0  0  0  0  0  0
   -1.2087   -1.5823   -3.2094 C   0  0  0  0  0  0  0  0  0  0  0  0
   -3.6915   -2.1888   -2.6360 H   0  0  0  0  0  0  0  0  0  0  0  0
   -1.0721   -3.2977   -1.9053 H   0  0  0  0  0  0  0  0  0  0  0  0
   -1.8017   -0.6681   -3.3281 H   0  0  0  0  0  0  0  0  0  0  0  0
   -0.1601   -1.2849   -3.1045 H   0  0  0  0  0  0  0  0  0  0  0  0
   -1.3074   -2.1646   -4.1319 H   0  0  0  0  0  0  0  0  0  0  0  0
   -0.2835   -1.5112   -0.2725 N   0  0  0  0  0  0  0  0  0  0  0  0
    0.0769   -0.7658    0.9424 C   0  0  0  0  0  0  0  0  0  0  0  0
   -0.2832    0.6877    0.7694 C   0  0  0  0  0  0  0  0  0  0  0  0
   -1.3522    1.0677    0.2990 O   0  0  0  0  0  0  0  0  0  0  0  0
    0.4587   -2.0097   -0.7289 H   0  0  0  0  0  0  0  0  0  0  0  0
    1.1526   -0.8605    1.1173 H   0  0  0  0  0  0  0  0  0  0  0  0
   -0.4668   -1.1836    1.7948 H   0  0  0  0  0  0  0  0  0  0  0  0
    0.7401    1.5239    1.2031 N   0  0  0  0  0  0  0  0  0  0  0  0
    0.6672    2.9603    1.1513 C   0  0  2  0  0  0  0  0  0  0  0  0
    0.8585    3.4922    2.5655 C   0  0  0  0  0  0  0  0  0  0  0  0
    0.6438    2.8178    3.5706 O   0  0  0  0  0  0  0  0  0  0  0  0
   -0.6585    3.4265    0.5700 C   0  0  0  0  0  0  0  0  0  0  0  0
    1.5860    1.0970    1.5772 H   0  0  0  0  0  0  0  0  0  0  0  0
    1.4960    3.2965    0.5188 H   0  0  0  0  0  0  0  0  0  0  0  0
   -1.5009    3.0991    1.1902 H   0  0  0  0  0  0  0  0  0  0  0  0
   -0.7010    4.5187    0.5048 H   0  0  0  0  0  0  0  0  0  0  0  0
   -0.8080    3.0187   -0.4356 H   0  0  0  0  0  0  0  0  0  0  0  0
    1.2557    4.8220    2.5736 N   0  0  0  0  0  0  0  0  0  0  0  0
    1.4909    5.5580    3.7939 C   0  0  0  0  0  0  0  0  0  0  0  0
    1.4283    5.2974    1.6927 H   0  0  0  0  0  0  0  0  0  0  0  0
    0.5690    6.0789    4.0920 H   0  0  0  0  0  0  0  0  0  0  0  0
    1.7919    4.8611    4.5900 H   0  0  0  0  0  0  0  0  0  0  0  0
    2.2912    6.2945    3.6293 H   0  0  0  0  0  0  0  0  0  0  0  0
  1  3  1  0  0  0  0
  1  7  1  0  0  0  0
  1  2  2  0  0  0  0
 18 19  1  0  0  0  0
 19 24  1  0  0  0  0
 19 20  2  0  0  0  0
 25 26  1  0  0  0  0
 26 34  1  0  0  0  0
 26 27  2  0  0  0  0
  8  9  1  0  0  0  0
  9 17  1  0  0  0  0
  9 10  2  0  0  0  0
 25 28  1  0  0  0  0
  8 11  1  0  0  0  0
 34 35  1  0  0  0  0
 17 18  1  0  0  0  0
 24 25  1  0  0  0  0
  7  8  1  0  0  0  0
  3  4  1  0  0  0  0
  3  5  1  0  0  0  0
  3  6  1  0  0  0  0
 28 31  1  0  0  0  0
 28 32  1  0  0  0  0
 28 33  1  0  0  0  0
 11 14  1  0  0  0  0
 11 15  1  0  0  0  0
 11 16  1  0  0  0  0
 35 37  1  0  0  0  0
 35 38  1  0  0  0  0
 35 39  1  0  0  0  0
 18 22  1  0  0  0  0
 18 23  1  0  0  0  0
 25 30  1  0  0  0  0
  8 13  1  0  0  0  0
 34 36  1  0  0  0  0
 17 21  1  0  0  0  0
  7 12  1  0  0  0  0
 24 29  1  0  0  0  0
M  END
$$$$

  -OEChem-05262214473D

 39 38  0     1  0  0  0  0  0999 V2000
   -3.5200   -4.0268   -1.6943 C   0  0  0  0  0  0  0  0  0  0  0  0
   -2.8702   -4.8827   -1.1054 O   0  0  0  0  0  0  0  0  0  0  0  0
   -4.9704   -4.2579   -1.9614 C   0  0  0  0  0  0  0  0  0  0  0  0
   -5.1456   -4.7573   -2.9278 H   0  0  0  0  0  0  0  0  0  0  0  0
   -5.4379   -4.9112   -1.2072 H   0  0  0  0  0  0  0  0  0  0  0  0
   -5.5954   -3.3510   -1.9864 H   0  0  0  0  0  0  0  0  0  0  0  0
   -3.0424   -2.8131   -2.1606 N   0  0  0  0  0  0  0  0  0  0  0  0
   -1.6755   -2.3891   -2.0077 C   0  0  2  0  0  0  0  0  0  0  0  0
   -1.5782   -1.5673   -0.7292 C   0  0  0  0  0  0  0  0  0  0  0  0
   -2.5448   -1.0064   -0.2171 O   0  0  0  0  0  0  0  0  0  0  0  0
   -1.2087   -1.5823   -3.2094 C   0  0  0  0  0  0  0  0  0  0  0  0
   -3.6915   -2.1888   -2.6360 H   0  0  0  0  0  0  0  0  0  0  0  0
   -1.0721   -3.2977   -1.9053 H   0  0  0  0  0  0  0  0  0  0  0  0
   -1.8017   -0.6681   -3.3281 H   0  0  0  0  0  0  0  0  0  0  0  0
   -0.1601   -1.2849   -3.1045 H   0  0  0  0  0  0  0  0  0  0  0  0
   -1.3074   -2.1646   -4.1319 H   0  0  0  0  0  0  0  0  0  0  0  0
   -0.2835   -1.5112   -0.2725 N   0  0  0  0  0  0  0  0  0  0  0  0
    0.0769   -0.7658    0.9424 C   0  0  0  0  0  0  0  0  0  0  0  0
   -0.2832    0.6877    0.7694 C   0  0  0  0  0  0  0  0  0  0  0  0
   -1.4274    1.0797    0.5557 O   0  0  0  0  0  0  0  0  0  0  0  0
    0.4587   -2.0097   -0.7289 H   0  0  0  0  0  0  0  0  0  0  0  0
    1.1526   -0.8605    1.1173 H   0  0  0  0  0  0  0  0  0  0  0  0
   -0.4668   -1.1836    1.7948 H   0  0  0  0  0  0  0  0  0  0  0  0
    0.8341    1.5086    0.8792 N   0  0  0  0  0  0  0  0  0  0  0  0
    0.7820    2.9414    0.7531 C   0  0  2  0  0  0  0  0  0  0  0  0
    1.3331    3.5469    2.0372 C   0  0  0  0  0  0  0  0  0  0  0  0
    1.3623    2.9405    3.1061 O   0  0  0  0  0  0  0  0  0  0  0  0
   -0.6365    3.4224    0.4903 C   0  0  0  0  0  0  0  0  0  0  0  0
    1.7372    1.0727    1.0584 H   0  0  0  0  0  0  0  0  0  0  0  0
    1.4331    3.2089   -0.0863 H   0  0  0  0  0  0  0  0  0  0  0  0
   -1.3036    3.1635    1.3206 H   0  0  0  0  0  0  0  0  0  0  0  0
   -0.6701    4.5099    0.3662 H   0  0  0  0  0  0  0  0  0  0  0  0
   -1.0421    2.9629   -0.4175 H   0  0  0  0  0  0  0  0  0  0  0  0
    1.7486    4.8590    1.8591 N   0  0  0  0  0  0  0  0  0  0  0  0
    2.2980    5.6553    2.9316 C   0  0  0  0  0  0  0  0  0  0  0  0
    1.7054    5.2756    0.9337 H   0  0  0  0  0  0  0  0  0  0  0  0
    1.4918    6.2269    3.4147 H   0  0  0  0  0  0  0  0  0  0  0  0
    2.7735    4.9950    3.6718 H   0  0  0  0  0  0  0  0  0  0  0  0
    3.0475    6.3504    2.5252 H   0  0  0  0  0  0  0  0  0  0  0  0
  1  3  1  0  0  0  0
  1  7  1  0  0  0  0
  1  2  2  0  0  0  0
 18 19  1  0  0  0  0
 19 24  1  0  0  0  0
 19 20  2  0  0  0  0
 25 26  1  0  0  0  0
 26 34  1  0  0  0  0
 26 27  2  0  0  0  0
  8  9  1  0  0  0  0
  9 17  1  0  0  0  0
  9 10  2  0  0  0  0
 25 28  1  0  0  0  0
  8 11  1  0  0  0  0
 34 35  1  0  0  0  0
 17 18  1  0  0  0  0
 24 25  1  0  0  0  0
  7  8  1  0  0  0  0
  3  4  1  0  0  0  0
  3  5  1  0  0  0  0
  3  6  1  0  0  0  0
 28 31  1  0  0  0  0
 28 32  1  0  0  0  0
 28 33  1  0  0  0  0
 11 14  1  0  0  0  0
 11 15  1  0  0  0  0
 11 16  1  0  0  0  0
 35 37  1  0  0  0  0
 35 38  1  0  0  0  0
 35 39  1  0  0  0  0
 18 22  1  0  0  0  0
 18 23  1  0  0  0  0
 25 30  1  0  0  0  0
  8 13  1  0  0  0  0
 34 36  1  0  0  0  0
 17 21  1  0  0  0  0
  7 12  1  0  0  0  0
 24 29  1  0  0  0  0
M  END
$$$$

  -OEChem-05262214473D

 39 38  0     1  0  0  0  0  0999 V2000
   -3.5200   -4.0268   -1.6943 C   0  0  0  0  0  0  0  0  0  0  0  0
   -2.8702   -4.8827   -1.1054 O   0  0  0  0  0  0  0  0  0  0  0  0
   -4.9704   -4.2579   -1.9614 C   0  0  0  0  0  0  0  0  0  0  0  0
   -5.1456   -4.7573   -2.9278 H   0  0  0  0  0  0  0  0  0  0  0  0
   -5.4379   -4.9112   -1.2072 H   0  0  0  0  0  0  0  0  0  0  0  0
   -5.5954   -3.3510   -1.9864 H   0  0  0  0  0  0  0  0  0  0  0  0
   -3.0424   -2.8131   -2.1606 N   0  0  0  0  0  0  0  0  0  0  0  0
   -1.6755   -2.3891   -2.0077 C   0  0  2  0  0  0  0  0  0  0  0  0
   -1.5782   -1.5673   -0.7292 C   0  0  0  0  0  0  0  0  0  0  0  0
   -2.5448   -1.0064   -0.2171 O   0  0  0  0  0  0  0  0  0  0  0  0
   -1.2087   -1.5823   -3.2094 C   0  0  0  0  0  0  0  0  0  0  0  0
   -3.6915   -2.1888   -2.6360 H   0  0  0  0  0  0  0  0  0  0  0  0
   -1.0721   -3.2977   -1.9053 H   0  0  0  0  0  0  0  0  0  0  0  0
   -1.8017   -0.6681   -3.3281 H   0  0  0  0  0  0  0  0  0  0  0  0
   -0.1601   -1.2849   -3.1045 H   0  0  0  0  0  0  0  0  0  0  0  0
   -1.3074   -2.1646   -4.1319 H   0  0  0  0  0  0  0  0  0  0  0  0
   -0.2835   -1.5112   -0.2725 N   0  0  0  0  0  0  0  0  0  0  0  0
    0.0769   -0.7658    0.9424 C   0  0  0  0  0  0  0  0  0  0  0  0
   -0.2832    0.6877    0.7694 C   0  0  0  0  0  0  0  0  0  0  0  0
   -1.4356    1.1093    0.8216 O   0  0  0  0  0  0  0  0  0  0  0  0
    0.4587   -2.0097   -0.7289 H   0  0  0  0  0  0  0  0  0  0  0  0
    1.1526   -0.8605    1.1173 H   0  0  0  0  0  0  0  0  0  0  0  0
   -0.4668   -1.1836    1.7948 H   0  0  0  0  0  0  0  0  0  0  0  0
    0.8437    1.4711    0.5439 N   0  0  0  0  0  0  0  0  0  0  0  0
    0.7929    2.8950    0.3409 C   0  0  2  0  0  0  0  0  0  0  0  0
    1.6612    3.5530    1.4052 C   0  0  0  0  0  0  0  0  0  0  0  0
    1.9440    3.0090    2.4707 O   0  0  0  0  0  0  0  0  0  0  0  0
   -0.6353    3.4130    0.4081 C   0  0  0  0  0  0  0  0  0  0  0  0
    1.7531    1.0127    0.5211 H   0  0  0  0  0  0  0  0  0  0  0  0
    1.2187    3.0887   -0.6496 H   0  0  0  0  0  0  0  0  0  0  0  0
   -1.0786    3.2279    1.3934 H   0  0  0  0  0  0  0  0  0  0  0  0
   -0.6751    4.4919    0.2252 H   0  0  0  0  0  0  0  0  0  0  0  0
   -1.2653    2.9171   -0.3382 H   0  0  0  0  0  0  0  0  0  0  0  0
    2.0475    4.8360    1.0436 N   0  0  0  0  0  0  0  0  0  0  0  0
    2.8653    5.6720    1.8912 C   0  0  0  0  0  0  0  0  0  0  0  0
    1.7830    5.1995    0.1328 H   0  0  0  0  0  0  0  0  0  0  0  0
    2.2185    6.3005    2.5210 H   0  0  0  0  0  0  0  0  0  0  0  0
    3.4966    5.0384    2.5317 H   0  0  0  0  0  0  0  0  0  0  0  0
    3.5041    6.3137    1.2666 H   0  0  0  0  0  0  0  0  0  0  0  0
  1  3  1  0  0  0  0
  1  7  1  0  0  0  0
  1  2  2  0  0  0  0
 18 19  1  0  0  0  0
 19 24  1  0  0  0  0
 19 20  2  0  0  0  0
 25 26  1  0  0  0  0
 26 34  1  0  0  0  0
 26 27  2  0  0  0  0
  8  9  1  0  0  0  0
  9 17  1  0  0  0  0
  9 10  2  0  0  0  0
 25 28  1  0  0  0  0
  8 11  1  0  0  0  0
 34 35  1  0  0  0  0
 17 18  1  0  0  0  0
 24 25  1  0  0  0  0
  7  8  1  0  0  0  0
  3  4  1  0  0  0  0
  3  5  1  0  0  0  0
  3  6  1  0  0  0  0
 28 31  1  0  0  0  0
 28 32  1  0  0  0  0
 28 33  1  0  0  0  0
 11 14  1  0  0  0  0
 11 15  1  0  0  0  0
 11 16  1  0  0  0  0
 35 37  1  0  0  0  0
 35 38  1  0  0  0  0
 35 39  1  0  0  0  0
 18 22  1  0  0  0  0
 18 23  1  0  0  0  0
 25 30  1  0  0  0  0
  8 13  1  0  0  0  0
 34 36  1  0  0  0  0
 17 21  1  0  0  0  0
  7 12  1  0  0  0  0
 24 29  1  0  0  0  0
M  END
$$$$

  -OEChem-05262214473D

 39 38  0     1  0  0  0  0  0999 V2000
   -3.5200   -4.0268   -1.6943 C   0  0  0  0  0  0  0  0  0  0  0  0
   -2.8702   -4.8827   -1.1054 O   0  0  0  0  0  0  0  0  0  0  0  0
   -4.9704   -4.2579   -1.9614 C   0  0  0  0  0  0  0  0  0  0  0  0
   -5.1456   -4.7573   -2.9278 H   0  0  0  0  0  0  0  0  0  0  0  0
   -5.4379   -4.9112   -1.2072 H   0  0  0  0  0  0  0  0  0  0  0  0
   -5.5954   -3.3510   -1.9864 H   0  0  0  0  0  0  0  0  0  0  0  0
   -3.0424   -2.8131   -2.1606 N   0  0  0  0  0  0  0  0  0  0  0  0
   -1.6755   -2.3891   -2.0077 C   0  0  2  0  0  0  0  0  0  0  0  0
   -1.5782   -1.5673   -0.7292 C   0  0  0  0  0  0  0  0  0  0  0  0
   -2.5448   -1.0064   -0.2171 O   0  0  0  0  0  0  0  0  0  0  0  0
   -1.2087   -1.5823   -3.2094 C   0  0  0  0  0  0  0  0  0  0  0  0
   -3.6915   -2.1888   -2.6360 H   0  0  0  0  0  0  0  0  0  0  0  0
   -1.0721   -3.2977   -1.9053 H   0  0  0  0  0  0  0  0  0  0  0  0
   -1.8017   -0.6681   -3.3281 H   0  0  0  0  0  0  0  0  0  0  0  0
   -0.1601   -1.2849   -3.1045 H   0  0  0  0  0  0  0  0  0  0  0  0
   -1.3074   -2.1646   -4.1319 H   0  0  0  0  0  0  0  0  0  0  0  0
   -0.2835   -1.5112   -0.2725 N   0  0  0  0  0  0  0  0  0  0  0  0
    0.0769   -0.7658    0.9424 C   0  0  0  0  0  0  0  0  0  0  0  0
   -0.2832    0.6877    0.7694 C   0  0  0  0  0  0  0  0  0  0  0  0
   -1.3763    1.1546    1.0787 O   0  0  0  0  0  0  0  0  0  0  0  0
    0.4587   -2.0097   -0.7289 H   0  0  0  0  0  0  0  0  0  0  0  0
    1.1526   -0.8605    1.1173 H   0  0  0  0  0  0  0  0  0  0  0  0
   -0.4668   -1.1836    1.7948 H   0  0  0  0  0  0  0  0  0  0  0  0
    0.7681    1.4138    0.2199 N   0  0  0  0  0  0  0  0  0  0  0  0
    0.6993    2.8244   -0.0570 C   0  0  2  0  0  0  0  0  0  0  0  0
    1.8207    3.5100    0.7124 C   0  0  0  0  0  0  0  0  0  0  0  0
    2.3494    3.0186    1.7074 O   0  0  0  0  0  0  0  0  0  0  0  0
   -0.6549    3.3987    0.3291 C   0  0  0  0  0  0  0  0  0  0  0  0
    1.6326    0.9210    0.0018 H   0  0  0  0  0  0  0  0  0  0  0  0
    0.8675    2.9441   -1.1329 H   0  0  0  0  0  0  0  0  0  0  0  0
   -0.8412    3.2879    1.4035 H   0  0  0  0  0  0  0  0  0  0  0  0
   -0.7157    4.4659    0.0914 H   0  0  0  0  0  0  0  0  0  0  0  0
   -1.4624    2.8843   -0.2031 H   0  0  0  0  0  0  0  0  0  0  0  0
    2.1321    4.7545    0.1828 N   0  0  0  0  0  0  0  0  0  0  0  0
    3.1542    5.6069    0.7437 C   0  0  0  0  0  0  0  0  0  0  0  0
    1.6558    5.0741   -0.6555 H   0  0  0  0  0  0  0  0  0  0  0  0
    2.6997    6.2948    1.4719 H   0  0  0  0  0  0  0  0  0  0  0  0
    3.9117    4.9883    1.2472 H   0  0  0  0  0  0  0  0  0  0  0  0
    3.6300    6.1868   -0.0608 H   0  0  0  0  0  0  0  0  0  0  0  0
  1  3  1  0  0  0  0
  1  7  1  0  0  0  0
  1  2  2  0  0  0  0
 18 19  1  0  0  0  0
 19 24  1  0  0  0  0
 19 20  2  0  0  0  0
 25 26  1  0  0  0  0
 26 34  1  0  0  0  0
 26 27  2  0  0  0  0
  8  9  1  0  0  0  0
  9 17  1  0  0  0  0
  9 10  2  0  0  0  0
 25 28  1  0  0  0  0
  8 11  1  0  0  0  0
 34 35  1  0  0  0  0
 17 18  1  0  0  0  0
 24 25  1  0  0  0  0
  7  8  1  0  0  0  0
  3  4  1  0  0  0  0
  3  5  1  0  0  0  0
  3  6  1  0  0  0  0
 28 31  1  0  0  0  0
 28 32  1  0  0  0  0
 28 33  1  0  0  0  0
 11 14  1  0  0  0  0
 11 15  1  0  0  0  0
 11 16  1  0  0  0  0
 35 37  1  0  0  0  0
 35 38  1  0  0  0  0
 35 39  1  0  0  0  0
 18 22  1  0  0  0  0
 18 23  1  0  0  0  0
 25 30  1  0  0  0  0
  8 13  1  0  0  0  0
 34 36  1  0  0  0  0
 17 21  1  0  0  0  0
  7 12  1  0  0  0  0
 24 29  1  0  0  0  0
M  END
$$$$

  -OEChem-05262214473D

 39 38  0     1  0  0  0  0  0999 V2000
   -3.5200   -4.0268   -1.6943 C   0  0  0  0  0  0  0  0  0  0  0  0
   -2.8702   -4.8827   -1.1054 O   0  0  0  0  0  0  0  0  0  0  0  0
   -4.9704   -4.2579   -1.9614 C   0  0  0  0  0  0  0  0  0  0  0  0
   -5.1456   -4.7573   -2.9278 H   0  0  0  0  0  0  0  0  0  0  0  0
   -5.4379   -4.9112   -1.2072 H   0  0  0  0  0  0  0  0  0  0  0  0
   -5.5954   -3.3510   -1.9864 H   0  0  0  0  0  0  0  0  0  0  0  0
   -3.0424   -2.8131   -2.1606 N   0  0  0  0  0  0  0  0  0  0  0  0
   -1.6755   -2.3891   -2.0077 C   0  0  2  0  0  0  0  0  0  0  0  0
   -1.5782   -1.5673   -0.7292 C   0  0  0  0  0  0  0  0  0  0  0  0
   -2.5448   -1.0064   -0.2171 O   0  0  0  0  0  0  0  0  0  0  0  0
   -1.2087   -1.5823   -3.2094 C   0  0  0  0  0  0  0  0  0  0  0  0
   -3.6915   -2.1888   -2.6360 H   0  0  0  0  0  0  0  0  0  0  0  0
   -1.0721   -3.2977   -1.9053 H   0  0  0  0  0  0  0  0  0  0  0  0
   -1.8017   -0.6681   -3.3281 H   0  0  0  0  0  0  0  0  0  0  0  0
   -0.1601   -1.2849   -3.1045 H   0  0  0  0  0  0  0  0  0  0  0  0
   -1.3074   -2.1646   -4.1319 H   0  0  0  0  0  0  0  0  0  0  0  0
   -0.2835   -1.5112   -0.2725 N   0  0  0  0  0  0  0  0  0  0  0  0
    0.0769   -0.7658    0.9424 C   0  0  0  0  0  0  0  0  0  0  0  0
   -0.2832    0.6877    0.7694 C   0  0  0  0  0  0  0  0  0  0  0  0
   -1.2534    1.2125    1.3095 O   0  0  0  0  0  0  0  0  0  0  0  0
    0.4587   -2.0097   -0.7289 H   0  0  0  0  0  0  0  0  0  0  0  0
    1.1526   -0.8605    1.1173 H   0  0  0  0  0  0  0  0  0  0  0  0
   -0.4668   -1.1836    1.7948 H   0  0  0  0  0  0  0  0  0  0  0  0
    0.6125    1.3406   -0.0707 N   0  0  0  0  0  0  0  0  0  0  0  0
    0.5074    2.7344   -0.4137 C   0  0  2  0  0  0  0  0  0  0  0  0
    1.8005    3.4209    0.0061 C   0  0  0  0  0  0  0  0  0  0  0  0
    2.5507    2.9686    0.8684 O   0  0  0  0  0  0  0  0  0  0  0  0
   -0.6940    3.3806    0.2584 C   0  0  0  0  0  0  0  0  0  0  0  0
    1.3839    0.8039   -0.4640 H   0  0  0  0  0  0  0  0  0  0  0  0
    0.4034    2.7851   -1.5030 H   0  0  0  0  0  0  0  0  0  0  0  0
   -0.6076    3.3394    1.3504 H   0  0  0  0  0  0  0  0  0  0  0  0
   -0.7890    4.4337   -0.0261 H   0  0  0  0  0  0  0  0  0  0  0  0
   -1.6201    2.8669   -0.0213 H   0  0  0  0  0  0  0  0  0  0  0  0
    1.9964    4.6199   -0.6648 N   0  0  0  0  0  0  0  0  0  0  0  0
    3.1448    5.4645   -0.4327 C   0  0  0  0  0  0  0  0  0  0  0  0
    1.3325    4.9081   -1.3774 H   0  0  0  0  0  0  0  0  0  0  0  0
    2.9024    6.2101    0.3388 H   0  0  0  0  0  0  0  0  0  0  0  0
    3.9906    4.8482   -0.0939 H   0  0  0  0  0  0  0  0  0  0  0  0
    3.4165    5.9785   -1.3666 H   0  0  0  0  0  0  0  0  0  0  0  0
  1  3  1  0  0  0  0
  1  7  1  0  0  0  0
  1  2  2  0  0  0  0
 18 19  1  0  0  0  0
 19 24  1  0  0  0  0
 19 20  2  0  0  0  0
 25 26  1  0  0  0  0
 26 34  1  0  0  0  0
 26 27  2  0  0  0  0
  8  9  1  0  0  0  0
  9 17  1  0  0  0  0
  9 10  2  0  0  0  0
 25 28  1  0  0  0  0
  8 11  1  0  0  0  0
 34 35  1  0  0  0  0
 17 18  1  0  0  0  0
 24 25  1  0  0  0  0
  7  8  1  0  0  0  0
  3  4  1  0  0  0  0
  3  5  1  0  0  0  0
  3  6  1  0  0  0  0
 28 31  1  0  0  0  0
 28 32  1  0  0  0  0
 28 33  1  0  0  0  0
 11 14  1  0  0  0  0
 11 15  1  0  0  0  0
 11 16  1  0  0  0  0
 35 37  1  0  0  0  0
 35 38  1  0  0  0  0
 35 39  1  0  0  0  0
 18 22  1  0  0  0  0
 18 23  1  0  0  0  0
 25 30  1  0  0  0  0
  8 13  1  0  0  0  0
 34 36  1  0  0  0  0
 17 21  1  0  0  0  0
  7 12  1  0  0  0  0
 24 29  1  0  0  0  0
M  END
$$$$

  -OEChem-05262214473D

 39 38  0     1  0  0  0  0  0999 V2000
   -3.5200   -4.0268   -1.6943 C   0  0  0  0  0  0  0  0  0  0  0  0
   -2.8702   -4.8827   -1.1054 O   0  0  0  0  0  0  0  0  0  0  0  0
   -4.9704   -4.2579   -1.9614 C   0  0  0  0  0  0  0  0  0  0  0  0
   -5.1456   -4.7573   -2.9278 H   0  0  0  0  0  0  0  0  0  0  0  0
   -5.4379   -4.9112   -1.2072 H   0  0  0  0  0  0  0  0  0  0  0  0
   -5.5954   -3.3510   -1.9864 H   0  0  0  0  0  0  0  0  0  0  0  0
   -3.0424   -2.8131   -2.1606 N   0  0  0  0  0  0  0  0  0  0  0  0
   -1.6755   -2.3891   -2.0077 C   0  0  2  0  0  0  0  0  0  0  0  0
   -1.5782   -1.5673   -0.7292 C   0  0  0  0  0  0  0  0  0  0  0  0
   -2.5448   -1.0064   -0.2171 O   0  0  0  0  0  0  0  0  0  0  0  0
   -1.2087   -1.5823   -3.2094 C   0  0  0  0  0  0  0  0  0  0  0  0
   -3.6915   -2.1888   -2.6360 H   0  0  0  0  0  0  0  0  0  0  0  0
   -1.0721   -3.2977   -1.9053 H   0  0  0  0  0  0  0  0  0  0  0  0
   -1.8017   -0.6681   -3.3281 H   0  0  0  0  0  0  0  0  0  0  0  0
   -0.1601   -1.2849   -3.1045 H   0  0  0  0  0  0  0  0  0  0  0  0
   -1.3074   -2.1646   -4.1319 H   0  0  0  0  0  0  0  0  0  0  0  0
   -0.2835   -1.5112   -0.2725 N   0  0  0  0  0  0  0  0  0  0  0  0
    0.0769   -0.7658    0.9424 C   0  0  0  0  0  0  0  0  0  0  0  0
   -0.2832    0.6877    0.7694 C   0  0  0  0  0  0  0  0  0  0  0  0
   -1.0755    1.2790    1.4981 O   0  0  0  0  0  0  0  0  0  0  0  0
    0.4587   -2.0097   -0.7289 H   0  0  0  0  0  0  0  0  0  0  0  0
    1.1526   -0.8605    1.1173 H   0  0  0  0  0  0  0  0  0  0  0  0
   -0.4668   -1.1836    1.7948 H   0  0  0  0  0  0  0  0  0  0  0  0
    0.3876    1.2567   -0.3080 N   0  0  0  0  0  0  0  0  0  0  0  0
    0.2304    2.6311   -0.7048 C   0  0  2  0  0  0  0  0  0  0  0  0
    1.6021    3.2918   -0.6656 C   0  0  0  0  0  0  0  0  0  0  0  0
    2.5344    2.8624    0.0109 O   0  0  0  0  0  0  0  0  0  0  0  0
   -0.7499    3.3599    0.2011 C   0  0  0  0  0  0  0  0  0  0  0  0
    1.0239    0.6694   -0.8446 H   0  0  0  0  0  0  0  0  0  0  0  0
   -0.1421    2.6223   -1.7349 H   0  0  0  0  0  0  0  0  0  0  0  0
   -0.3937    3.3790    1.2375 H   0  0  0  0  0  0  0  0  0  0  0  0
   -0.8901    4.3976   -0.1194 H   0  0  0  0  0  0  0  0  0  0  0  0
   -1.7276    2.8660    0.1947 H   0  0  0  0  0  0  0  0  0  0  0  0
    1.6499    4.4416   -1.4413 N   0  0  0  0  0  0  0  0  0  0  0  0
    2.8380    5.2545   -1.5580 C   0  0  0  0  0  0  0  0  0  0  0  0
    0.8350    4.7127   -1.9838 H   0  0  0  0  0  0  0  0  0  0  0  0
    2.8129    6.0522   -0.8010 H   0  0  0  0  0  0  0  0  0  0  0  0
    3.7280    4.6276   -1.4004 H   0  0  0  0  0  0  0  0  0  0  0  0
    2.8783    5.7028   -2.5617 H   0  0  0  0  0  0  0  0  0  0  0  0
  1  3  1  0  0  0  0
  1  7  1  0  0  0  0
  1  2  2  0  0  0  0
 18 19  1  0  0  0  0
 19 24  1  0  0  0  0
 19 20  2  0  0  0  0
 25 26  1  0  0  0  0
 26 34  1  0  0  0  0
 26 27  2  0  0  0  0
  8  9  1  0  0  0  0
  9 17  1  0  0  0  0
  9 10  2  0  0  0  0
 25 28  1  0  0  0  0
  8 11  1  0  0  0  0
 34 35  1  0  0  0  0
 17 18  1  0  0  0  0
 24 25  1  0  0  0  0
  7  8  1  0  0  0  0
  3  4  1  0  0  0  0
  3  5  1  0  0  0  0
  3  6  1  0  0  0  0
 28 31  1  0  0  0  0
 28 32  1  0  0  0  0
 28 33  1  0  0  0  0
 11 14  1  0  0  0  0
 11 15  1  0  0  0  0
 11 16  1  0  0  0  0
 35 37  1  0  0  0  0
 35 38  1  0  0  0  0
 35 39  1  0  0  0  0
 18 22  1  0  0  0  0
 18 23  1  0  0  0  0
 25 30  1  0  0  0  0
  8 13  1  0  0  0  0
 34 36  1  0  0  0  0
 17 21  1  0  0  0  0
  7 12  1  0  0  0  0
 24 29  1  0  0  0  0
M  END
$$$$

  -OEChem-05262214473D

 39 38  0     1  0  0  0  0  0999 V2000
   -3.5200   -4.0268   -1.6943 C   0  0  0  0  0  0  0  0  0  0  0  0
   -2.8702   -4.8827   -1.1054 O   0  0  0  0  0  0  0  0  0  0  0  0
   -4.9704   -4.2579   -1.9614 C   0  0  0  0  0  0  0  0  0  0  0  0
   -5.1456   -4.7573   -2.9278 H   0  0  0  0  0  0  0  0  0  0  0  0
   -5.4379   -4.9112   -1.2072 H   0  0  0  0  0  0  0  0  0  0  0  0
   -5.5954   -3.3510   -1.9864 H   0  0  0  0  0  0  0  0  0  0  0  0
   -3.0424   -2.8131   -2.1606 N   0  0  0  0  0  0  0  0  0  0  0  0
   -1.6755   -2.3891   -2.0077 C   0  0  2  0  0  0  0  0  0  0  0  0
   -1.5782   -1.5673   -0.7292 C   0  0  0  0  0  0  0  0  0  0  0  0
   -2.5448   -1.0064   -0.2171 O   0  0  0  0  0  0  0  0  0  0  0  0
   -1.2087   -1.5823   -3.2094 C   0  0  0  0  0  0  0  0  0  0  0  0
   -3.6915   -2.1888   -2.6360 H   0  0  0  0  0  0  0  0  0  0  0  0
   -1.0721   -3.2977   -1.9053 H   0  0  0  0  0  0  0  0  0  0  0  0
   -1.8017   -0.6681   -3.3281 H   0  0  0  0  0  0  0  0  0  0  0  0
   -0.1601   -1.2849   -3.1045 H   0  0  0  0  0  0  0  0  0  0  0  0
   -1.3074   -2.1646   -4.1319 H   0  0  0  0  0  0  0  0  0  0  0  0
   -0.2835   -1.5112   -0.2725 N   0  0  0  0  0  0  0  0  0  0  0  0
    0.0769   -0.7658    0.9424 C   0  0  0  0  0  0  0  0  0  0  0  0
   -0.2832    0.6877    0.7694 C   0  0  0  0  0  0  0  0  0  0  0  0
   -0.8546    1.3497    1.6318 O   0  0  0  0  0  0  0  0  0  0  0  0
    0.4587   -2.0097   -0.7289 H   0  0  0  0  0  0  0  0  0  0  0  0
    1.1526   -0.8605    1.1173 H   0  0  0  0  0  0  0  0  0  0  0  0
   -0.4668   -1.1836    1.7948 H   0  0  0  0  0  0  0  0  0  0  0  0
    0.1086    1.1675   -0.4759 N   0  0  0  0  0  0  0  0  0  0  0  0
   -0.1129    2.5216   -0.9104 C   0  0  2  0  0  0  0  0  0  0  0  0
    1.2390    3.1314   -1.2569 C   0  0  0  0  0  0  0  0  0  0  0  0
    2.3014    2.7073   -0.8068 O   0  0  0  0  0  0  0  0  0  0  0  0
   -0.8189    3.3381    0.1609 C   0  0  0  0  0  0  0  0  0  0  0  0
    0.5772    0.5267   -1.1141 H   0  0  0  0  0  0  0  0  0  0  0  0
   -0.7316    2.4670   -1.8127 H   0  0  0  0  0  0  0  0  0  0  0  0
   -0.2140    3.4039    1.0727 H   0  0  0  0  0  0  0  0  0  0  0  0
   -1.0121    4.3599   -0.1820 H   0  0  0  0  0  0  0  0  0  0  0  0
   -1.7775    2.8817    0.4303 H   0  0  0  0  0  0  0  0  0  0  0  0
    1.1161    4.2317   -2.0938 N   0  0  0  0  0  0  0  0  0  0  0  0
    2.2546    4.9912   -2.5553 C   0  0  0  0  0  0  0  0  0  0  0  0
    0.1975    4.5012   -2.4333 H   0  0  0  0  0  0  0  0  0  0  0  0
    2.4374    5.8319   -1.8699 H   0  0  0  0  0  0  0  0  0  0  0  0
    3.1417    4.3415   -2.5832 H   0  0  0  0  0  0  0  0  0  0  0  0
    2.0519    5.3787   -3.5647 H   0  0  0  0  0  0  0  0  0  0  0  0
  1  3  1  0  0  0  0
  1  7  1  0  0  0  0
  1  2  2  0  0  0  0
 18 19  1  0  0  0  0
 19 24  1  0  0  0  0
 19 20  2  0  0  0  0
 25 26  1  0  0  0  0
 26 34  1  0  0  0  0
 26 27  2  0  0  0  0
  8  9  1  0  0  0  0
  9 17  1  0  0  0  0
  9 10  2  0  0  0  0
 25 28  1  0  0  0  0
  8 11  1  0  0  0  0
 34 35  1  0  0  0  0
 17 18  1  0  0  0  0
 24 25  1  0  0  0  0
  7  8  1  0  0  0  0
  3  4  1  0  0  0  0
  3  5  1  0  0  0  0
  3  6  1  0  0  0  0
 28 31  1  0  0  0  0
 28 32  1  0  0  0  0
 28 33  1  0  0  0  0
 11 14  1  0  0  0  0
 11 15  1  0  0  0  0
 11 16  1  0  0  0  0
 35 37  1  0  0  0  0
 35 38  1  0  0  0  0
 35 39  1  0  0  0  0
 18 22  1  0  0  0  0
 18 23  1  0  0  0  0
 25 30  1  0  0  0  0
  8 13  1  0  0  0  0
 34 36  1  0  0  0  0
 17 21  1  0  0  0  0
  7 12  1  0  0  0  0
 24 29  1  0  0  0  0
M  END
$$$$

  -OEChem-05262214473D

 39 38  0     1  0  0  0  0  0999 V2000
   -3.5200   -4.0268   -1.6943 C   0  0  0  0  0  0  0  0  0  0  0  0
   -2.8702   -4.8827   -1.1054 O   0  0  0  0  0  0  0  0  0  0  0  0
   -4.9704   -4.2579   -1.9614 C   0  0  0  0  0  0  0  0  0  0  0  0
   -5.1456   -4.7573   -2.9278 H   0  0  0  0  0  0  0  0  0  0  0  0
   -5.4379   -4.9112   -1.2072 H   0  0  0  0  0  0  0  0  0  0  0  0
   -5.5954   -3.3510   -1.9864 H   0  0  0  0  0  0  0  0  0  0  0  0
   -3.0424   -2.8131   -2.1606 N   0  0  0  0  0  0  0  0  0  0  0  0
   -1.6755   -2.3891   -2.0077 C   0  0  2  0  0  0  0  0  0  0  0  0
   -1.5782   -1.5673   -0.7292 C   0  0  0  0  0  0  0  0  0  0  0  0
   -2.5448   -1.0064   -0.2171 O   0  0  0  0  0  0  0  0  0  0  0  0
   -1.2087   -1.5823   -3.2094 C   0  0  0  0  0  0  0  0  0  0  0  0
   -3.6915   -2.1888   -2.6360 H   0  0  0  0  0  0  0  0  0  0  0  0
   -1.0721   -3.2977   -1.9053 H   0  0  0  0  0  0  0  0  0  0  0  0
   -1.8017   -0.6681   -3.3281 H   0  0  0  0  0  0  0  0  0  0  0  0
   -0.1601   -1.2849   -3.1045 H   0  0  0  0  0  0  0  0  0  0  0  0
   -1.3074   -2.1646   -4.1319 H   0  0  0  0  0  0  0  0  0  0  0  0
   -0.2835   -1.5112   -0.2725 N   0  0  0  0  0  0  0  0  0  0  0  0
    0.0769   -0.7658    0.9424 C   0  0  0  0  0  0  0  0  0  0  0  0
   -0.2832    0.6877    0.7694 C   0  0  0  0  0  0  0  0  0  0  0  0
   -0.6057    1.4196    1.7014 O   0  0  0  0  0  0  0  0  0  0  0  0
    0.4587   -2.0097   -0.7289 H   0  0  0  0  0  0  0  0  0  0  0  0
    1.1526   -0.8605    1.1173 H   0  0  0  0  0  0  0  0  0  0  0  0
   -0.4668   -1.1836    1.7948 H   0  0  0  0  0  0  0  0  0  0  0  0
   -0.2054    1.0794   -0.5629 N   0  0  0  0  0  0  0  0  0  0  0  0
   -0.4990    2.4133   -1.0166 C   0  0  2  0  0  0  0  0  0  0  0  0
    0.7359    2.9507   -1.7276 C   0  0  0  0  0  0  0  0  0  0  0  0
    1.8677    2.5139   -1.5289 O   0  0  0  0  0  0  0  0  0  0  0  0
   -0.8961    3.3165    0.1407 C   0  0  0  0  0  0  0  0  0  0  0  0
    0.0742    0.3854   -1.2541 H   0  0  0  0  0  0  0  0  0  0  0  0
   -1.3251    2.3297   -1.7311 H   0  0  0  0  0  0  0  0  0  0  0  0
   -0.0809    3.4124    0.8671 H   0  0  0  0  0  0  0  0  0  0  0  0
   -1.1467    4.3232   -0.2096 H   0  0  0  0  0  0  0  0  0  0  0  0
   -1.7664    2.9128    0.6692 H   0  0  0  0  0  0  0  0  0  0  0  0
    0.4314    4.0044   -2.5780 N   0  0  0  0  0  0  0  0  0  0  0  0
    1.4343    4.6926   -3.3568 C   0  0  0  0  0  0  0  0  0  0  0  0
   -0.5369    4.2881   -2.6953 H   0  0  0  0  0  0  0  0  0  0  0  0
    1.8013    5.5642   -2.7950 H   0  0  0  0  0  0  0  0  0  0  0  0
    2.2718    4.0095   -3.5617 H   0  0  0  0  0  0  0  0  0  0  0  0
    0.9938    5.0281   -4.3073 H   0  0  0  0  0  0  0  0  0  0  0  0
  1  3  1  0  0  0  0
  1  7  1  0  0  0  0
  1  2  2  0  0  0  0
 18 19  1  0  0  0  0
 19 24  1  0  0  0  0
 19 20  2  0  0  0  0
 25 26  1  0  0  0  0
 26 34  1  0  0  0  0
 26 27  2  0  0  0  0
  8  9  1  0  0  0  0
  9 17  1  0  0  0  0
  9 10  2  0  0  0  0
 25 28  1  0  0  0  0
  8 11  1  0  0  0  0
 34 35  1  0  0  0  0
 17 18  1  0  0  0  0
 24 25  1  0  0  0  0
  7  8  1  0  0  0  0
  3  4  1  0  0  0  0
  3  5  1  0  0  0  0
  3  6  1  0  0  0  0
 28 31  1  0  0  0  0
 28 32  1  0  0  0  0
 28 33  1  0  0  0  0
 11 14  1  0  0  0  0
 11 15  1  0  0  0  0
 11 16  1  0  0  0  0
 35 37  1  0  0  0  0
 35 38  1  0  0  0  0
 35 39  1  0  0  0  0
 18 22  1  0  0  0  0
 18 23  1  0  0  0  0
 25 30  1  0  0  0  0
  8 13  1  0  0  0  0
 34 36  1  0  0  0  0
 17 21  1  0  0  0  0
  7 12  1  0  0  0  0
 24 29  1  0  0  0  0
M  END
$$$$

  -OEChem-05262214473D

 39 38  0     1  0  0  0  0  0999 V2000
   -3.5200   -4.0268   -1.6943 C   0  0  0  0  0  0  0  0  0  0  0  0
   -2.8702   -4.8827   -1.1054 O   0  0  0  0  0  0  0  0  0  0  0  0
   -4.9704   -4.2579   -1.9614 C   0  0  0  0  0  0  0  0  0  0  0  0
   -5.1456   -4.7573   -2.9278 H   0  0  0  0  0  0  0  0  0  0  0  0
   -5.4379   -4.9112   -1.2072 H   0  0  0  0  0  0  0  0  0  0  0  0
   -5.5954   -3.3510   -1.9864 H   0  0  0  0  0  0  0  0  0  0  0  0
   -3.0424   -2.8131   -2.1606 N   0  0  0  0  0  0  0  0  0  0  0  0
   -1.6755   -2.3891   -2.0077 C   0  0  2  0  0  0  0  0  0  0  0  0
   -1.5782   -1.5673   -0.7292 C   0  0  0  0  0  0  0  0  0  0  0  0
   -2.5448   -1.0064   -0.2171 O   0  0  0  0  0  0  0  0  0  0  0  0
   -1.2087   -1.5823   -3.2094 C   0  0  0  0  0  0  0  0  0  0  0  0
   -3.6915   -2.1888   -2.6360 H   0  0  0  0  0  0  0  0  0  0  0  0
   -1.0721   -3.2977   -1.9053 H   0  0  0  0  0  0  0  0  0  0  0  0
   -1.8017   -0.6681   -3.3281 H   0  0  0  0  0  0  0  0  0  0  0  0
   -0.1601   -1.2849   -3.1045 H   0  0  0  0  0  0  0  0  0  0  0  0
   -1.3074   -2.1646   -4.1319 H   0  0  0  0  0  0  0  0  0  0  0  0
   -0.2835   -1.5112   -0.2725 N   0  0  0  0  0  0  0  0  0  0  0  0
    0.0769   -0.7658    0.9424 C   0  0  0  0  0  0  0  0  0  0  0  0
   -0.2832    0.6877    0.7694 C   0  0  0  0  0  0  0  0  0  0  0  0
   -0.3459    1.4841    1.7022 O   0  0  0  0  0  0  0  0  0  0  0  0
    0.4587   -2.0097   -0.7289 H   0  0  0  0  0  0  0  0  0  0  0  0
    1.1526   -0.8605    1.1173 H   0  0  0  0  0  0  0  0  0  0  0  0
   -0.4668   -1.1836    1.7948 H   0  0  0  0  0  0  0  0  0  0  0  0
   -0.5331    0.9982   -0.5631 N   0  0  0  0  0  0  0  0  0  0  0  0
   -0.9017    2.3136   -1.0161 C   0  0  2  0  0  0  0  0  0  0  0  0
    0.1272    2.7621   -2.0455 C   0  0  0  0  0  0  0  0  0  0  0  0
    1.2628    2.2953   -2.1062 O   0  0  0  0  0  0  0  0  0  0  0  0
   -0.9764    3.2967    0.1418 C   0  0  0  0  0  0  0  0  0  0  0  0
   -0.4508    0.2552   -1.2551 H   0  0  0  0  0  0  0  0  0  0  0  0
   -1.8821    2.2197   -1.4957 H   0  0  0  0  0  0  0  0  0  0  0  0
   -0.0033    3.4040    0.6348 H   0  0  0  0  0  0  0  0  0  0  0  0
   -1.2847    4.2901   -0.2005 H   0  0  0  0  0  0  0  0  0  0  0  0
   -1.6952    2.9574    0.8954 H   0  0  0  0  0  0  0  0  0  0  0  0
   -0.3575    3.7753   -2.8607 N   0  0  0  0  0  0  0  0  0  0  0  0
    0.4331    4.3789   -3.9078 C   0  0  0  0  0  0  0  0  0  0  0  0
   -1.3179    4.0878   -2.7519 H   0  0  0  0  0  0  0  0  0  0  0  0
    0.9481    5.2673   -3.5134 H   0  0  0  0  0  0  0  0  0  0  0  0
    1.1774    3.6541   -4.2693 H   0  0  0  0  0  0  0  0  0  0  0  0
   -0.2240    4.6750   -4.7388 H   0  0  0  0  0  0  0  0  0  0  0  0
  1  3  1  0  0  0  0
  1  7  1  0  0  0  0
  1  2  2  0  0  0  0
 18 19  1  0  0  0  0
 19 24  1  0  0  0  0
 19 20  2  0  0  0  0
 25 26  1  0  0  0  0
 26 34  1  0  0  0  0
 26 27  2  0  0  0  0
  8  9  1  0  0  0  0
  9 17  1  0  0  0  0
  9 10  2  0  0  0  0
 25 28  1  0  0  0  0
  8 11  1  0  0  0  0
 34 35  1  0  0  0  0
 17 18  1  0  0  0  0
 24 25  1  0  0  0  0
  7  8  1  0  0  0  0
  3  4  1  0  0  0  0
  3  5  1  0  0  0  0
  3  6  1  0  0  0  0
 28 31  1  0  0  0  0
 28 32  1  0  0  0  0
 28 33  1  0  0  0  0
 11 14  1  0  0  0  0
 11 15  1  0  0  0  0
 11 16  1  0  0  0  0
 35 37  1  0  0  0  0
 35 38  1  0  0  0  0
 35 39  1  0  0  0  0
 18 22  1  0  0  0  0
 18 23  1  0  0  0  0
 25 30  1  0  0  0  0
  8 13  1  0  0  0  0
 34 36  1  0  0  0  0
 17 21  1  0  0  0  0
  7 12  1  0  0  0  0
 24 29  1  0  0  0  0
M  END
$$$$

  -OEChem-05262214473D

 39 38  0     1  0  0  0  0  0999 V2000
   -3.5200   -4.0268   -1.6943 C   0  0  0  0  0  0  0  0  0  0  0  0
   -2.8702   -4.8827   -1.1054 O   0  0  0  0  0  0  0  0  0  0  0  0
   -4.9704   -4.2579   -1.9614 C   0  0  0  0  0  0  0  0  0  0  0  0
   -5.1456   -4.7573   -2.9278 H   0  0  0  0  0  0  0  0  0  0  0  0
   -5.4379   -4.9112   -1.2072 H   0  0  0  0  0  0  0  0  0  0  0  0
   -5.5954   -3.3510   -1.9864 H   0  0  0  0  0  0  0  0  0  0  0  0
   -3.0424   -2.8131   -2.1606 N   0  0  0  0  0  0  0  0  0  0  0  0
   -1.6755   -2.3891   -2.0077 C   0  0  2  0  0  0  0  0  0  0  0  0
   -1.5782   -1.5673   -0.7292 C   0  0  0  0  0  0  0  0  0  0  0  0
   -2.5448   -1.0064   -0.2171 O   0  0  0  0  0  0  0  0  0  0  0  0
   -1.2087   -1.5823   -3.2094 C   0  0  0  0  0  0  0  0  0  0  0  0
   -3.6915   -2.1888   -2.6360 H   0  0  0  0  0  0  0  0  0  0  0  0
   -1.0721   -3.2977   -1.9053 H   0  0  0  0  0  0  0  0  0  0  0  0
   -1.8017   -0.6681   -3.3281 H   0  0  0  0  0  0  0  0  0  0  0  0
   -0.1601   -1.2849   -3.1045 H   0  0  0  0  0  0  0  0  0  0  0  0
   -1.3074   -2.1646   -4.1319 H   0  0  0  0  0  0  0  0  0  0  0  0
   -0.2835   -1.5112   -0.2725 N   0  0  0  0  0  0  0  0  0  0  0  0
    0.0769   -0.7658    0.9424 C   0  0  0  0  0  0  0  0  0  0  0  0
   -0.2832    0.6877    0.7694 C   0  0  0  0  0  0  0  0  0  0  0  0
   -0.0928    1.5387    1.6342 O   0  0  0  0  0  0  0  0  0  0  0  0
    0.4587   -2.0097   -0.7289 H   0  0  0  0  0  0  0  0  0  0  0  0
    1.1526   -0.8605    1.1173 H   0  0  0  0  0  0  0  0  0  0  0  0
   -0.4668   -1.1836    1.7948 H   0  0  0  0  0  0  0  0  0  0  0  0
   -0.8521    0.9295   -0.4766 N   0  0  0  0  0  0  0  0  0  0  0  0
   -1.2936    2.2293   -0.9089 C   0  0  2  0  0  0  0  0  0  0  0  0
   -0.5458    2.5783   -2.1889 C   0  0  0  0  0  0  0  0  0  0  0  0
    0.5279    2.0664   -2.4993 O   0  0  0  0  0  0  0  0  0  0  0  0
   -1.0543    3.2801    0.1641 C   0  0  0  0  0  0  0  0  0  0  0  0
   -0.9620    0.1450   -1.1170 H   0  0  0  0  0  0  0  0  0  0  0  0
   -2.3647    2.1446   -1.1225 H   0  0  0  0  0  0  0  0  0  0  0  0
    0.0133    3.3791    0.3915 H   0  0  0  0  0  0  0  0  0  0  0  0
   -1.4168    4.2628   -0.1552 H   0  0  0  0  0  0  0  0  0  0  0  0
   -1.5687    3.0123    1.0933 H   0  0  0  0  0  0  0  0  0  0  0  0
   -1.1970    3.5600   -2.9227 N   0  0  0  0  0  0  0  0  0  0  0  0
   -0.6809    4.0717   -4.1708 C   0  0  0  0  0  0  0  0  0  0  0  0
   -2.0924    3.9141   -2.5993 H   0  0  0  0  0  0  0  0  0  0  0  0
   -0.0642    4.9614   -3.9759 H   0  0  0  0  0  0  0  0  0  0  0  0
   -0.0669    3.2996   -4.6576 H   0  0  0  0  0  0  0  0  0  0  0  0
   -1.5186    4.3434   -4.8299 H   0  0  0  0  0  0  0  0  0  0  0  0
  1  3  1  0  0  0  0
  1  7  1  0  0  0  0
  1  2  2  0  0  0  0
 18 19  1  0  0  0  0
 19 24  1  0  0  0  0
 19 20  2  0  0  0  0
 25 26  1  0  0  0  0
 26 34  1  0  0  0  0
 26 27  2  0  0  0  0
  8  9  1  0  0  0  0
  9 17  1  0  0  0  0
  9 10  2  0  0  0  0
 25 28  1  0  0  0  0
  8 11  1  0  0  0  0
 34 35  1  0  0  0  0
 17 18  1  0  0  0  0
 24 25  1  0  0  0  0
  7  8  1  0  0  0  0
  3  4  1  0  0  0  0
  3  5  1  0  0  0  0
  3  6  1  0  0  0  0
 28 31  1  0  0  0  0
 28 32  1  0  0  0  0
 28 33  1  0  0  0  0
 11 14  1  0  0  0  0
 11 15  1  0  0  0  0
 11 16  1  0  0  0  0
 35 37  1  0  0  0  0
 35 38  1  0  0  0  0
 35 39  1  0  0  0  0
 18 22  1  0  0  0  0
 18 23  1  0  0  0  0
 25 30  1  0  0  0  0
  8 13  1  0  0  0  0
 34 36  1  0  0  0  0
 17 21  1  0  0  0  0
  7 12  1  0  0  0  0
 24 29  1  0  0  0  0
M  END
$$$$

  -OEChem-05262214473D

 39 38  0     1  0  0  0  0  0999 V2000
   -3.5200   -4.0268   -1.6943 C   0  0  0  0  0  0  0  0  0  0  0  0
   -2.8702   -4.8827   -1.1054 O   0  0  0  0  0  0  0  0  0  0  0  0
   -4.9704   -4.2579   -1.9614 C   0  0  0  0  0  0  0  0  0  0  0  0
   -5.1456   -4.7573   -2.9278 H   0  0  0  0  0  0  0  0  0  0  0  0
   -5.4379   -4.9112   -1.2072 H   0  0  0  0  0  0  0  0  0  0  0  0
   -5.5954   -3.3510   -1.9864 H   0  0  0  0  0  0  0  0  0  0  0  0
   -3.0424   -2.8131   -2.1606 N   0  0  0  0  0  0  0  0  0  0  0  0
   -1.6755   -2.3891   -2.0077 C   0  0  2  0  0  0  0  0  0  0  0  0
   -1.5782   -1.5673   -0.7292 C   0  0  0  0  0  0  0  0  0  0  0  0
   -2.5448   -1.0064   -0.2171 O   0  0  0  0  0  0  0  0  0  0  0  0
   -1.2087   -1.5823   -3.2094 C   0  0  0  0  0  0  0  0  0  0  0  0
   -3.6915   -2.1888   -2.6360 H   0  0  0  0  0  0  0  0  0  0  0  0
   -1.0721   -3.2977   -1.9053 H   0  0  0  0  0  0  0  0  0  0  0  0
   -1.8017   -0.6681   -3.3281 H   0  0  0  0  0  0  0  0  0  0  0  0
   -0.1601   -1.2849   -3.1045 H   0  0  0  0  0  0  0  0  0  0  0  0
   -1.3074   -2.1646   -4.1319 H   0  0  0  0  0  0  0  0  0  0  0  0
   -0.2835   -1.5112   -0.2725 N   0  0  0  0  0  0  0  0  0  0  0  0
    0.0769   -0.7658    0.9424 C   0  0  0  0  0  0  0  0  0  0  0  0
   -0.2832    0.6877    0.7694 C   0  0  0  0  0  0  0  0  0  0  0  0
    0.1364    1.5797    1.5020 O   0  0  0  0  0  0  0  0  0  0  0  0
    0.4587   -2.0097   -0.7289 H   0  0  0  0  0  0  0  0  0  0  0  0
    1.1526   -0.8605    1.1173 H   0  0  0  0  0  0  0  0  0  0  0  0
   -0.4668   -1.1836    1.7948 H   0  0  0  0  0  0  0  0  0  0  0  0
   -1.1406    0.8779   -0.3091 N   0  0  0  0  0  0  0  0  0  0  0  0
   -1.6478    2.1661   -0.7024 C   0  0  2  0  0  0  0  0  0  0  0  0
   -1.2370    2.4118   -2.1482 C   0  0  0  0  0  0  0  0  0  0  0  0
   -0.2868    1.8429   -2.6815 O   0  0  0  0  0  0  0  0  0  0  0  0
   -1.1245    3.2677    0.2061 C   0  0  0  0  0  0  0  0  0  0  0  0
   -1.4246    0.0623   -0.8492 H   0  0  0  0  0  0  0  0  0  0  0  0
   -2.7398    2.1095   -0.6370 H   0  0  0  0  0  0  0  0  0  0  0  0
   -0.0320    3.3396    0.1539 H   0  0  0  0  0  0  0  0  0  0  0  0
   -1.5338    4.2432   -0.0768 H   0  0  0  0  0  0  0  0  0  0  0  0
   -1.3954    3.0739    1.2496 H   0  0  0  0  0  0  0  0  0  0  0  0
   -2.0297    3.3731   -2.7598 N   0  0  0  0  0  0  0  0  0  0  0  0
   -1.8316    3.7917   -4.1278 C   0  0  0  0  0  0  0  0  0  0  0  0
   -2.8076    3.7788   -2.2479 H   0  0  0  0  0  0  0  0  0  0  0  0
   -1.1665    4.6675   -4.1512 H   0  0  0  0  0  0  0  0  0  0  0  0
   -1.3762    2.9702   -4.7002 H   0  0  0  0  0  0  0  0  0  0  0  0
   -2.8015    4.0560   -4.5743 H   0  0  0  0  0  0  0  0  0  0  0  0
  1  3  1  0  0  0  0
  1  7  1  0  0  0  0
  1  2  2  0  0  0  0
 18 19  1  0  0  0  0
 19 24  1  0  0  0  0
 19 20  2  0  0  0  0
 25 26  1  0  0  0  0
 26 34  1  0  0  0  0
 26 27  2  0  0  0  0
  8  9  1  0  0  0  0
  9 17  1  0  0  0  0
  9 10  2  0  0  0  0
 25 28  1  0  0  0  0
  8 11  1  0  0  0  0
 34 35  1  0  0  0  0
 17 18  1  0  0  0  0
 24 25  1  0  0  0  0
  7  8  1  0  0  0  0
  3  4  1  0  0  0  0
  3  5  1  0  0  0  0
  3  6  1  0  0  0  0
 28 31  1  0  0  0  0
 28 32  1  0  0  0  0
 28 33  1  0  0  0  0
 11 14  1  0  0  0  0
 11 15  1  0  0  0  0
 11 16  1  0  0  0  0
 35 37  1  0  0  0  0
 35 38  1  0  0  0  0
 35 39  1  0  0  0  0
 18 22  1  0  0  0  0
 18 23  1  0  0  0  0
 25 30  1  0  0  0  0
  8 13  1  0  0  0  0
 34 36  1  0  0  0  0
 17 21  1  0  0  0  0
  7 12  1  0  0  0  0
 24 29  1  0  0  0  0
M  END
$$$$

  -OEChem-05262214473D

 39 38  0     1  0  0  0  0  0999 V2000
   -3.5200   -4.0268   -1.6943 C   0  0  0  0  0  0  0  0  0  0  0  0
   -2.8702   -4.8827   -1.1054 O   0  0  0  0  0  0  0  0  0  0  0  0
   -4.9704   -4.2579   -1.9614 C   0  0  0  0  0  0  0  0  0  0  0  0
   -5.1456   -4.7573   -2.9278 H   0  0  0  0  0  0  0  0  0  0  0  0
   -5.4379   -4.9112   -1.2072 H   0  0  0  0  0  0  0  0  0  0  0  0
   -5.5954   -3.3510   -1.9864 H   0  0  0  0  0  0  0  0  0  0  0  0
   -3.0424   -2.8131   -2.1606 N   0  0  0  0  0  0  0  0  0  0  0  0
   -1.6755   -2.3891   -2.0077 C   0  0  2  0  0  0  0  0  0  0  0  0
   -1.5782   -1.5673   -0.7292 C   0  0  0  0  0  0  0  0  0  0  0  0
   -2.5448   -1.0064   -0.2171 O   0  0  0  0  0  0  0  0  0  0  0  0
   -1.2087   -1.5823   -3.2094 C   0  0  0  0  0  0  0  0  0  0  0  0
   -3.6915   -2.1888   -2.6360 H   0  0  0  0  0  0  0  0  0  0  0  0
   -1.0721   -3.2977   -1.9053 H   0  0  0  0  0  0  0  0  0  0  0  0
   -1.8017   -0.6681   -3.3281 H   0  0  0  0  0  0  0  0  0  0  0  0
   -0.1601   -1.2849   -3.1045 H   0  0  0  0  0  0  0  0  0  0  0  0
   -1.3074   -2.1646   -4.1319 H   0  0  0  0  0  0  0  0  0  0  0  0
   -0.2835   -1.5112   -0.2725 N   0  0  0  0  0  0  0  0  0  0  0  0
    0.0769   -0.7658    0.9424 C   0  0  0  0  0  0  0  0  0  0  0  0
   -0.2832    0.6877    0.7694 C   0  0  0  0  0  0  0  0  0  0  0  0
    0.3259    1.6044    1.3145 O   0  0  0  0  0  0  0  0  0  0  0  0
    0.4587   -2.0097   -0.7289 H   0  0  0  0  0  0  0  0  0  0  0  0
    1.1526   -0.8605    1.1173 H   0  0  0  0  0  0  0  0  0  0  0  0
   -0.4668   -1.1836    1.7948 H   0  0  0  0  0  0  0  0  0  0  0  0
   -1.3791    0.8470   -0.0721 N   0  0  0  0  0  0  0  0  0  0  0  0
   -1.9403    2.1284   -0.4106 C   0  0  2  0  0  0  0  0  0  0  0  0
   -1.8996    2.2742   -1.9261 C   0  0  0  0  0  0  0  0  0  0  0  0
   -1.1259    1.6399   -2.6404 O   0  0  0  0  0  0  0  0  0  0  0  0
   -1.1822    3.2604    0.2649 C   0  0  0  0  0  0  0  0  0  0  0  0
   -1.8071    0.0127   -0.4700 H   0  0  0  0  0  0  0  0  0  0  0  0
   -2.9821    2.1167   -0.0722 H   0  0  0  0  0  0  0  0  0  0  0  0
   -0.1363    3.2881   -0.0618 H   0  0  0  0  0  0  0  0  0  0  0  0
   -1.6278    4.2325    0.0293 H   0  0  0  0  0  0  0  0  0  0  0  0
   -1.1872    3.1378    1.3534 H   0  0  0  0  0  0  0  0  0  0  0  0
   -2.7989    3.2273   -2.3830 N   0  0  0  0  0  0  0  0  0  0  0  0
   -2.9407    3.5581   -3.7818 C   0  0  0  0  0  0  0  0  0  0  0  0
   -3.4147    3.6910   -1.7216 H   0  0  0  0  0  0  0  0  0  0  0  0
   -2.2837    4.4055   -4.0272 H   0  0  0  0  0  0  0  0  0  0  0  0
   -2.6613    2.6882   -4.3943 H   0  0  0  0  0  0  0  0  0  0  0  0
   -3.9856    3.8323   -3.9895 H   0  0  0  0  0  0  0  0  0  0  0  0
  1  3  1  0  0  0  0
  1  7  1  0  0  0  0
  1  2  2  0  0  0  0
 18 19  1  0  0  0  0
 19 24  1  0  0  0  0
 19 20  2  0  0  0  0
 25 26  1  0  0  0  0
 26 34  1  0  0  0  0
 26 27  2  0  0  0  0
  8  9  1  0  0  0  0
  9 17  1  0  0  0  0
  9 10  2  0  0  0  0
 25 28  1  0  0  0  0
  8 11  1  0  0  0  0
 34 35  1  0  0  0  0
 17 18  1  0  0  0  0
 24 25  1  0  0  0  0
  7  8  1  0  0  0  0
  3  4  1  0  0  0  0
  3  5  1  0  0  0  0
  3  6  1  0  0  0  0
 28 31  1  0  0  0  0
 28 32  1  0  0  0  0
 28 33  1  0  0  0  0
 11 14  1  0  0  0  0
 11 15  1  0  0  0  0
 11 16  1  0  0  0  0
 35 37  1  0  0  0  0
 35 38  1  0  0  0  0
 35 39  1  0  0  0  0
 18 22  1  0  0  0  0
 18 23  1  0  0  0  0
 25 30  1  0  0  0  0
  8 13  1  0  0  0  0
 34 36  1  0  0  0  0
 17 21  1  0  0  0  0
  7 12  1  0  0  0  0
 24 29  1  0  0  0  0
M  END
$$$$

  -OEChem-05262214473D

 39 38  0     1  0  0  0  0  0999 V2000
   -3.5200   -4.0268   -1.6943 C   0  0  0  0  0  0  0  0  0  0  0  0
   -2.8702   -4.8827   -1.1054 O   0  0  0  0  0  0  0  0  0  0  0  0
   -4.9704   -4.2579   -1.9614 C   0  0  0  0  0  0  0  0  0  0  0  0
   -5.1456   -4.7573   -2.9278 H   0  0  0  0  0  0  0  0  0  0  0  0
   -5.4379   -4.9112   -1.2072 H   0  0  0  0  0  0  0  0  0  0  0  0
   -5.5954   -3.3510   -1.9864 H   0  0  0  0  0  0  0  0  0  0  0  0
   -3.0424   -2.8131   -2.1606 N   0  0  0  0  0  0  0  0  0  0  0  0
   -1.6755   -2.3891   -2.0077 C   0  0  2  0  0  0  0  0  0  0  0  0
   -1.5782   -1.5673   -0.7292 C   0  0  0  0  0  0  0  0  0  0  0  0
   -2.5448   -1.0064   -0.2171 O   0  0  0  0  0  0  0  0  0  0  0  0
   -1.2087   -1.5823   -3.2094 C   0  0  0  0  0  0  0  0  0  0  0  0
   -3.6915   -2.1888   -2.6360 H   0  0  0  0  0  0  0  0  0  0  0  0
   -1.0721   -3.2977   -1.9053 H   0  0  0  0  0  0  0  0  0  0  0  0
   -1.8017   -0.6681   -3.3281 H   0  0  0  0  0  0  0  0  0  0  0  0
   -0.1601   -1.2849   -3.1045 H   0  0  0  0  0  0  0  0  0  0  0  0
   -1.3074   -2.1646   -4.1319 H   0  0  0  0  0  0  0  0  0  0  0  0
   -0.2835   -1.5112   -0.2725 N   0  0  0  0  0  0  0  0  0  0  0  0
    0.0769   -0.7658    0.9424 C   0  0  0  0  0  0  0  0  0  0  0  0
   -0.2832    0.6877    0.7694 C   0  0  0  0  0  0  0  0  0  0  0  0
    0.4629    1.6109    1.0846 O   0  0  0  0  0  0  0  0  0  0  0  0
    0.4587   -2.0097   -0.7289 H   0  0  0  0  0  0  0  0  0  0  0  0
    1.1526   -0.8605    1.1173 H   0  0  0  0  0  0  0  0  0  0  0  0
   -0.4668   -1.1836    1.7948 H   0  0  0  0  0  0  0  0  0  0  0  0
   -1.5512    0.8390    0.2181 N   0  0  0  0  0  0  0  0  0  0  0  0
   -2.1512    2.1187   -0.0535 C   0  0  2  0  0  0  0  0  0  0  0  0
   -2.4881    2.1746   -1.5376 C   0  0  0  0  0  0  0  0  0  0  0  0
   -1.9321    1.4713   -2.3787 O   0  0  0  0  0  0  0  0  0  0  0  0
   -1.2234    3.2588    0.3366 C   0  0  0  0  0  0  0  0  0  0  0  0
   -2.0833   -0.0004   -0.0052 H   0  0  0  0  0  0  0  0  0  0  0  0
   -3.0750    2.1658    0.5334 H   0  0  0  0  0  0  0  0  0  0  0  0
   -0.2923    3.2281   -0.2410 H   0  0  0  0  0  0  0  0  0  0  0  0
   -1.6925    4.2316    0.1560 H   0  0  0  0  0  0  0  0  0  0  0  0
   -0.9583    3.1998    1.3978 H   0  0  0  0  0  0  0  0  0  0  0  0
   -3.4522    3.1327   -1.8182 N   0  0  0  0  0  0  0  0  0  0  0  0
   -3.9326    3.3868   -3.1563 C   0  0  0  0  0  0  0  0  0  0  0  0
   -3.8724    3.6568   -1.0563 H   0  0  0  0  0  0  0  0  0  0  0  0
   -3.3396    4.1932   -3.6124 H   0  0  0  0  0  0  0  0  0  0  0  0
   -3.8346    2.4729   -3.7607 H   0  0  0  0  0  0  0  0  0  0  0  0
   -4.9899    3.6876   -3.1152 H   0  0  0  0  0  0  0  0  0  0  0  0
  1  3  1  0  0  0  0
  1  7  1  0  0  0  0
  1  2  2  0  0  0  0
 18 19  1  0  0  0  0
 19 24  1  0  0  0  0
 19 20  2  0  0  0  0
 25 26  1  0  0  0  0
 26 34  1  0  0  0  0
 26 27  2  0  0  0  0
  8  9  1  0  0  0  0
  9 17  1  0  0  0  0
  9 10  2  0  0  0  0
 25 28  1  0  0  0  0
  8 11  1  0  0  0  0
 34 35  1  0  0  0  0
 17 18  1  0  0  0  0
 24 25  1  0  0  0  0
  7  8  1  0  0  0  0
  3  4  1  0  0  0  0
  3  5  1  0  0  0  0
  3  6  1  0  0  0  0
 28 31  1  0  0  0  0
 28 32  1  0  0  0  0
 28 33  1  0  0  0  0
 11 14  1  0  0  0  0
 11 15  1  0  0  0  0
 11 16  1  0  0  0  0
 35 37  1  0  0  0  0
 35 38  1  0  0  0  0
 35 39  1  0  0  0  0
 18 22  1  0  0  0  0
 18 23  1  0  0  0  0
 25 30  1  0  0  0  0
  8 13  1  0  0  0  0
 34 36  1  0  0  0  0
 17 21  1  0  0  0  0
  7 12  1  0  0  0  0
 24 29  1  0  0  0  0
M  END
$$$$

  -OEChem-05262214473D

 39 38  0     1  0  0  0  0  0999 V2000
   -3.5200   -4.0268   -1.6943 C   0  0  0  0  0  0  0  0  0  0  0  0
   -2.8702   -4.8827   -1.1054 O   0  0  0  0  0  0  0  0  0  0  0  0
   -4.9704   -4.2579   -1.9614 C   0  0  0  0  0  0  0  0  0  0  0  0
   -5.1456   -4.7573   -2.9278 H   0  0  0  0  0  0  0  0  0  0  0  0
   -5.4379   -4.9112   -1.2072 H   0  0  0  0  0  0  0  0  0  0  0  0
   -5.5954   -3.3510   -1.9864 H   0  0  0  0  0  0  0  0  0  0  0  0
   -3.0424   -2.8131   -2.1606 N   0  0  0  0  0  0  0  0  0  0  0  0
   -1.6755   -2.3891   -2.0077 C   0  0  2  0  0  0  0  0  0  0  0  0
   -1.5782   -1.5673   -0.7292 C   0  0  0  0  0  0  0  0  0  0  0  0
   -2.5448   -1.0064   -0.2171 O   0  0  0  0  0  0  0  0  0  0  0  0
   -1.2087   -1.5823   -3.2094 C   0  0  0  0  0  0  0  0  0  0  0  0
   -3.6915   -2.1888   -2.6360 H   0  0  0  0  0  0  0  0  0  0  0  0
   -1.0721   -3.2977   -1.9053 H   0  0  0  0  0  0  0  0  0  0  0  0
   -1.8017   -0.6681   -3.3281 H   0  0  0  0  0  0  0  0  0  0  0  0
   -0.1601   -1.2849   -3.1045 H   0  0  0  0  0  0  0  0  0  0  0  0
   -1.3074   -2.1646   -4.1319 H   0  0  0  0  0  0  0  0  0  0  0  0
   -0.2835   -1.5112   -0.2725 N   0  0  0  0  0  0  0  0  0  0  0  0
    0.0769   -0.7658    0.9424 C   0  0  0  0  0  0  0  0  0  0  0  0
   -0.2832    0.6877    0.7694 C   0  0  0  0  0  0  0  0  0  0  0  0
    0.5381    1.5990    0.8279 O   0  0  0  0  0  0  0  0  0  0  0  0
    0.4587   -2.0097   -0.7289 H   0  0  0  0  0  0  0  0  0  0  0  0
    1.1526   -0.8605    1.1173 H   0  0  0  0  0  0  0  0  0  0  0  0
   -0.4668   -1.1836    1.7948 H   0  0  0  0  0  0  0  0  0  0  0  0
   -1.6452    0.8542    0.5420 N   0  0  0  0  0  0  0  0  0  0  0  0
   -2.2660    2.1376    0.3448 C   0  0  2  0  0  0  0  0  0  0  0  0
   -2.9627    2.1199   -1.0094 C   0  0  0  0  0  0  0  0  0  0  0  0
   -2.6506    1.3486   -1.9143 O   0  0  0  0  0  0  0  0  0  0  0  0
   -1.2454    3.2628    0.4163 C   0  0  0  0  0  0  0  0  0  0  0  0
   -2.2346    0.0239    0.5136 H   0  0  0  0  0  0  0  0  0  0  0  0
   -3.0121    2.2534    1.1385 H   0  0  0  0  0  0  0  0  0  0  0  0
   -0.4896    3.1637   -0.3714 H   0  0  0  0  0  0  0  0  0  0  0  0
   -1.7234    4.2404    0.2945 H   0  0  0  0  0  0  0  0  0  0  0  0
   -0.7243    3.2556    1.3797 H   0  0  0  0  0  0  0  0  0  0  0  0
   -3.9451    3.0957   -1.1037 N   0  0  0  0  0  0  0  0  0  0  0  0
   -4.7398    3.2895   -2.2940 C   0  0  0  0  0  0  0  0  0  0  0  0
   -4.1495    3.6785   -0.2973 H   0  0  0  0  0  0  0  0  0  0  0  0
   -4.2624    4.0453   -2.9351 H   0  0  0  0  0  0  0  0  0  0  0  0
   -4.8162    2.3391   -2.8425 H   0  0  0  0  0  0  0  0  0  0  0  0
   -5.7462    3.6317   -2.0112 H   0  0  0  0  0  0  0  0  0  0  0  0
  1  3  1  0  0  0  0
  1  7  1  0  0  0  0
  1  2  2  0  0  0  0
 18 19  1  0  0  0  0
 19 24  1  0  0  0  0
 19 20  2  0  0  0  0
 25 26  1  0  0  0  0
 26 34  1  0  0  0  0
 26 27  2  0  0  0  0
  8  9  1  0  0  0  0
  9 17  1  0  0  0  0
  9 10  2  0  0  0  0
 25 28  1  0  0  0  0
  8 11  1  0  0  0  0
 34 35  1  0  0  0  0
 17 18  1  0  0  0  0
 24 25  1  0  0  0  0
  7  8  1  0  0  0  0
  3  4  1  0  0  0  0
  3  5  1  0  0  0  0
  3  6  1  0  0  0  0
 28 31  1  0  0  0  0
 28 32  1  0  0  0  0
 28 33  1  0  0  0  0
 11 14  1  0  0  0  0
 11 15  1  0  0  0  0
 11 16  1  0  0  0  0
 35 37  1  0  0  0  0
 35 38  1  0  0  0  0
 35 39  1  0  0  0  0
 18 22  1  0  0  0  0
 18 23  1  0  0  0  0
 25 30  1  0  0  0  0
  8 13  1  0  0  0  0
 34 36  1  0  0  0  0
 17 21  1  0  0  0  0
  7 12  1  0  0  0  0
 24 29  1  0  0  0  0
M  END
$$$$

  -OEChem-05262214473D

 39 38  0     1  0  0  0  0  0999 V2000
   -3.5200   -4.0268   -1.6943 C   0  0  0  0  0  0  0  0  0  0  0  0
   -2.8702   -4.8827   -1.1054 O   0  0  0  0  0  0  0  0  0  0  0  0
   -4.9704   -4.2579   -1.9614 C   0  0  0  0  0  0  0  0  0  0  0  0
   -5.1456   -4.7573   -2.9278 H   0  0  0  0  0  0  0  0  0  0  0  0
   -5.4379   -4.9112   -1.2072 H   0  0  0  0  0  0  0  0  0  0  0  0
   -5.5954   -3.3510   -1.9864 H   0  0  0  0  0  0  0  0  0  0  0  0
   -3.0424   -2.8131   -2.1606 N   0  0  0  0  0  0  0  0  0  0  0  0
   -1.6755   -2.3891   -2.0077 C   0  0  2  0  0  0  0  0  0  0  0  0
   -1.5782   -1.5673   -0.7292 C   0  0  0  0  0  0  0  0  0  0  0  0
   -2.5448   -1.0064   -0.2171 O   0  0  0  0  0  0  0  0  0  0  0  0
   -1.2087   -1.5823   -3.2094 C   0  0  0  0  0  0  0  0  0  0  0  0
   -3.6915   -2.1888   -2.6360 H   0  0  0  0  0  0  0  0  0  0  0  0
   -1.0721   -3.2977   -1.9053 H   0  0  0  0  0  0  0  0  0  0  0  0
   -1.8017   -0.6681   -3.3281 H   0  0  0  0  0  0  0  0  0  0  0  0
   -0.1601   -1.2849   -3.1045 H   0  0  0  0  0  0  0  0  0  0  0  0
   -1.3074   -2.1646   -4.1319 H   0  0  0  0  0  0  0  0  0  0  0  0
   -0.2835   -1.5112   -0.2725 N   0  0  0  0  0  0  0  0  0  0  0  0
    0.0769   -0.7658    0.9424 C   0  0  0  0  0  0  0  0  0  0  0  0
   -0.2832    0.6877    0.7694 C   0  0  0  0  0  0  0  0  0  0  0  0
    0.5463    1.5694    0.5620 O   0  0  0  0  0  0  0  0  0  0  0  0
    0.4587   -2.0097   -0.7289 H   0  0  0  0  0  0  0  0  0  0  0  0
    1.1526   -0.8605    1.1173 H   0  0  0  0  0  0  0  0  0  0  0  0
   -0.4668   -1.1836    1.7948 H   0  0  0  0  0  0  0  0  0  0  0  0
   -1.6548    0.8918    0.8774 N   0  0  0  0  0  0  0  0  0  0  0  0
   -2.2769    2.1840    0.7569 C   0  0  2  0  0  0  0  0  0  0  0  0
   -3.2909    2.1139   -0.3773 C   0  0  0  0  0  0  0  0  0  0  0  0
   -3.2323    1.2802   -1.2788 O   0  0  0  0  0  0  0  0  0  0  0  0
   -1.2466    3.2723    0.4984 C   0  0  0  0  0  0  0  0  0  0  0  0
   -2.2505    0.0839    1.0509 H   0  0  0  0  0  0  0  0  0  0  0  0
   -2.7977    2.3736    1.7018 H   0  0  0  0  0  0  0  0  0  0  0  0
   -0.7146    3.0993   -0.4442 H   0  0  0  0  0  0  0  0  0  0  0  0
   -1.7184    4.2584    0.4355 H   0  0  0  0  0  0  0  0  0  0  0  0
   -0.5011    3.3015    1.3004 H   0  0  0  0  0  0  0  0  0  0  0  0
   -4.2440    3.1187   -0.2882 N   0  0  0  0  0  0  0  0  0  0  0  0
   -5.3071    3.2728   -1.2537 C   0  0  0  0  0  0  0  0  0  0  0  0
   -4.2270    3.7547    0.5036 H   0  0  0  0  0  0  0  0  0  0  0  0
   -4.9891    3.9716   -2.0415 H   0  0  0  0  0  0  0  0  0  0  0  0
   -5.5392    2.2957   -1.7023 H   0  0  0  0  0  0  0  0  0  0  0  0
   -6.2028    3.6684   -0.7525 H   0  0  0  0  0  0  0  0  0  0  0  0
  1  3  1  0  0  0  0
  1  7  1  0  0  0  0
  1  2  2  0  0  0  0
 18 19  1  0  0  0  0
 19 24  1  0  0  0  0
 19 20  2  0  0  0  0
 25 26  1  0  0  0  0
 26 34  1  0  0  0  0
 26 27  2  0  0  0  0
  8  9  1  0  0  0  0
  9 17  1  0  0  0  0
  9 10  2  0  0  0  0
 25 28  1  0  0  0  0
  8 11  1  0  0  0  0
 34 35  1  0  0  0  0
 17 18  1  0  0  0  0
 24 25  1  0  0  0  0
  7  8  1  0  0  0  0
  3  4  1  0  0  0  0
  3  5  1  0  0  0  0
  3  6  1  0  0  0  0
 28 31  1  0  0  0  0
 28 32  1  0  0  0  0
 28 33  1  0  0  0  0
 11 14  1  0  0  0  0
 11 15  1  0  0  0  0
 11 16  1  0  0  0  0
 35 37  1  0  0  0  0
 35 38  1  0  0  0  0
 35 39  1  0  0  0  0
 18 22  1  0  0  0  0
 18 23  1  0  0  0  0
 25 30  1  0  0  0  0
  8 13  1  0  0  0  0
 34 36  1  0  0  0  0
 17 21  1  0  0  0  0
  7 12  1  0  0  0  0
 24 29  1  0  0  0  0
M  END
$$$$

  -OEChem-05262214473D

 39 38  0     1  0  0  0  0  0999 V2000
   -3.5200   -4.0268   -1.6943 C   0  0  0  0  0  0  0  0  0  0  0  0
   -2.8702   -4.8827   -1.1054 O   0  0  0  0  0  0  0  0  0  0  0  0
   -4.9704   -4.2579   -1.9614 C   0  0  0  0  0  0  0  0  0  0  0  0
   -5.1456   -4.7573   -2.9278 H   0  0  0  0  0  0  0  0  0  0  0  0
   -5.4379   -4.9112   -1.2072 H   0  0  0  0  0  0  0  0  0  0  0  0
   -5.5954   -3.3510   -1.9864 H   0  0  0  0  0  0  0  0  0  0  0  0
   -3.0424   -2.8131   -2.1606 N   0  0  0  0  0  0  0  0  0  0  0  0
   -1.6755   -2.3891   -2.0077 C   0  0  2  0  0  0  0  0  0  0  0  0
   -1.5782   -1.5673   -0.7292 C   0  0  0  0  0  0  0  0  0  0  0  0
   -2.5448   -1.0064   -0.2171 O   0  0  0  0  0  0  0  0  0  0  0  0
   -1.2087   -1.5823   -3.2094 C   0  0  0  0  0  0  0  0  0  0  0  0
   -3.6915   -2.1888   -2.6360 H   0  0  0  0  0  0  0  0  0  0  0  0
   -1.0721   -3.2977   -1.9053 H   0  0  0  0  0  0  0  0  0  0  0  0
   -1.8017   -0.6681   -3.3281 H   0  0  0  0  0  0  0  0  0  0  0  0
   -0.1601   -1.2849   -3.1045 H   0  0  0  0  0  0  0  0  0  0  0  0
   -1.3074   -2.1646   -4.1319 H   0  0  0  0  0  0  0  0  0  0  0  0
   -0.2835   -1.5112   -0.2725 N   0  0  0  0  0  0  0  0  0  0  0  0
    0.0769   -0.7658    0.9424 C   0  0  0  0  0  0  0  0  0  0  0  0
   -0.2832    0.6877    0.7694 C   0  0  0  0  0  0  0  0  0  0  0  0
    0.4869    1.5241    0.3049 O   0  0  0  0  0  0  0  0  0  0  0  0
    0.4587   -2.0097   -0.7289 H   0  0  0  0  0  0  0  0  0  0  0  0
    1.1526   -0.8605    1.1173 H   0  0  0  0  0  0  0  0  0  0  0  0
   -0.4668   -1.1836    1.7948 H   0  0  0  0  0  0  0  0  0  0  0  0
   -1.5792    0.9491    1.2013 N   0  0  0  0  0  0  0  0  0  0  0  0
   -2.1833    2.2546    1.1549 C   0  0  2  0  0  0  0  0  0  0  0  0
   -3.4503    2.1568    0.3154 C   0  0  0  0  0  0  0  0  0  0  0  0
   -3.6377    1.2706   -0.5156 O   0  0  0  0  0  0  0  0  0  0  0  0
   -1.2270    3.2865    0.5775 C   0  0  0  0  0  0  0  0  0  0  0  0
   -2.1299    0.1756    1.5701 H   0  0  0  0  0  0  0  0  0  0  0  0
   -2.4465    2.5181    2.1851 H   0  0  0  0  0  0  0  0  0  0  0  0
   -0.9520    3.0393   -0.4543 H   0  0  0  0  0  0  0  0  0  0  0  0
   -1.6779    4.2844    0.5693 H   0  0  0  0  0  0  0  0  0  0  0  0
   -0.3039    3.3342    1.1652 H   0  0  0  0  0  0  0  0  0  0  0  0
   -4.3285    3.2003    0.5726 N   0  0  0  0  0  0  0  0  0  0  0  0
   -5.5959    3.3379   -0.1062 C   0  0  0  0  0  0  0  0  0  0  0  0
   -4.0998    3.8801    1.2919 H   0  0  0  0  0  0  0  0  0  0  0  0
   -5.4703    3.9773   -0.9924 H   0  0  0  0  0  0  0  0  0  0  0  0
   -5.9544    2.3458   -0.4179 H   0  0  0  0  0  0  0  0  0  0  0  0
   -6.3287    3.7952    0.5749 H   0  0  0  0  0  0  0  0  0  0  0  0
  1  3  1  0  0  0  0
  1  7  1  0  0  0  0
  1  2  2  0  0  0  0
 18 19  1  0  0  0  0
 19 24  1  0  0  0  0
 19 20  2  0  0  0  0
 25 26  1  0  0  0  0
 26 34  1  0  0  0  0
 26 27  2  0  0  0  0
  8  9  1  0  0  0  0
  9 17  1  0  0  0  0
  9 10  2  0  0  0  0
 25 28  1  0  0  0  0
  8 11  1  0  0  0  0
 34 35  1  0  0  0  0
 17 18  1  0  0  0  0
 24 25  1  0  0  0  0
  7  8  1  0  0  0  0
  3  4  1  0  0  0  0
  3  5  1  0  0  0  0
  3  6  1  0  0  0  0
 28 31  1  0  0  0  0
 28 32  1  0  0  0  0
 28 33  1  0  0  0  0
 11 14  1  0  0  0  0
 11 15  1  0  0  0  0
 11 16  1  0  0  0  0
 35 37  1  0  0  0  0
 35 38  1  0  0  0  0
 35 39  1  0  0  0  0
 18 22  1  0  0  0  0
 18 23  1  0  0  0  0
 25 30  1  0  0  0  0
  8 13  1  0  0  0  0
 34 36  1  0  0  0  0
 17 21  1  0  0  0  0
  7 12  1  0  0  0  0
 24 29  1  0  0  0  0
M  END
$$$$

  -OEChem-05262214473D

 39 38  0     1  0  0  0  0  0999 V2000
   -3.5200   -4.0268   -1.6943 C   0  0  0  0  0  0  0  0  0  0  0  0
   -2.8702   -4.8827   -1.1054 O   0  0  0  0  0  0  0  0  0  0  0  0
   -4.9704   -4.2579   -1.9614 C   0  0  0  0  0  0  0  0  0  0  0  0
   -5.1456   -4.7573   -2.9278 H   0  0  0  0  0  0  0  0  0  0  0  0
   -5.4379   -4.9112   -1.2072 H   0  0  0  0  0  0  0  0  0  0  0  0
   -5.5954   -3.3510   -1.9864 H   0  0  0  0  0  0  0  0  0  0  0  0
   -3.0424   -2.8131   -2.1606 N   0  0  0  0  0  0  0  0  0  0  0  0
   -1.6755   -2.3891   -2.0077 C   0  0  2  0  0  0  0  0  0  0  0  0
   -1.5782   -1.5673   -0.7292 C   0  0  0  0  0  0  0  0  0  0  0  0
   -2.5448   -1.0064   -0.2171 O   0  0  0  0  0  0  0  0  0  0  0  0
   -1.2087   -1.5823   -3.2094 C   0  0  0  0  0  0  0  0  0  0  0  0
   -3.6915   -2.1888   -2.6360 H   0  0  0  0  0  0  0  0  0  0  0  0
   -1.0721   -3.2977   -1.9053 H   0  0  0  0  0  0  0  0  0  0  0  0
   -1.8017   -0.6681   -3.3281 H   0  0  0  0  0  0  0  0  0  0  0  0
   -0.1601   -1.2849   -3.1045 H   0  0  0  0  0  0  0  0  0  0  0  0
   -1.3074   -2.1646   -4.1319 H   0  0  0  0  0  0  0  0  0  0  0  0
   -0.2835   -1.5112   -0.2725 N   0  0  0  0  0  0  0  0  0  0  0  0
    0.0769   -0.7658    0.9424 C   0  0  0  0  0  0  0  0  0  0  0  0
   -0.2832    0.6877    0.7694 C   0  0  0  0  0  0  0  0  0  0  0  0
    0.3641    1.4662    0.0741 O   0  0  0  0  0  0  0  0  0  0  0  0
    0.4587   -2.0097   -0.7289 H   0  0  0  0  0  0  0  0  0  0  0  0
    1.1526   -0.8605    1.1173 H   0  0  0  0  0  0  0  0  0  0  0  0
   -0.4668   -1.1836    1.7948 H   0  0  0  0  0  0  0  0  0  0  0  0
   -1.4236    1.0222    1.4919 N   0  0  0  0  0  0  0  0  0  0  0  0
   -1.9914    2.3446    1.5115 C   0  0  2  0  0  0  0  0  0  0  0  0
   -3.4301    2.2459    1.0218 C   0  0  0  0  0  0  0  0  0  0  0  0
   -3.8391    1.3206    0.3234 O   0  0  0  0  0  0  0  0  0  0  0  0
   -1.1880    3.3046    0.6482 C   0  0  0  0  0  0  0  0  0  0  0  0
   -1.8812    0.2926    2.0359 H   0  0  0  0  0  0  0  0  0  0  0  0
   -1.9823    2.6772    2.5552 H   0  0  0  0  0  0  0  0  0  0  0  0
   -1.1856    2.9877   -0.4011 H   0  0  0  0  0  0  0  0  0  0  0  0
   -1.6046    4.3166    0.6868 H   0  0  0  0  0  0  0  0  0  0  0  0
   -0.1462    3.3517    0.9834 H   0  0  0  0  0  0  0  0  0  0  0  0
   -4.1929    3.3348    1.4202 N   0  0  0  0  0  0  0  0  0  0  0  0
   -5.5866    3.4803    1.0703 C   0  0  0  0  0  0  0  0  0  0  0  0
   -3.7765    4.0461    2.0139 H   0  0  0  0  0  0  0  0  0  0  0  0
   -5.6730    4.0620    0.1407 H   0  0  0  0  0  0  0  0  0  0  0  0
   -6.0333    2.4859    0.9233 H   0  0  0  0  0  0  0  0  0  0  0  0
   -6.1153    4.0036    1.8806 H   0  0  0  0  0  0  0  0  0  0  0  0
  1  3  1  0  0  0  0
  1  7  1  0  0  0  0
  1  2  2  0  0  0  0
 18 19  1  0  0  0  0
 19 24  1  0  0  0  0
 19 20  2  0  0  0  0
 25 26  1  0  0  0  0
 26 34  1  0  0  0  0
 26 27  2  0  0  0  0
  8  9  1  0  0  0  0
  9 17  1  0  0  0  0
  9 10  2  0  0  0  0
 25 28  1  0  0  0  0
  8 11  1  0  0  0  0
 34 35  1  0  0  0  0
 17 18  1  0  0  0  0
 24 25  1  0  0  0  0
  7  8  1  0  0  0  0
  3  4  1  0  0  0  0
  3  5  1  0  0  0  0
  3  6  1  0  0  0  0
 28 31  1  0  0  0  0
 28 32  1  0  0  0  0
 28 33  1  0  0  0  0
 11 14  1  0  0  0  0
 11 15  1  0  0  0  0
 11 16  1  0  0  0  0
 35 37  1  0  0  0  0
 35 38  1  0  0  0  0
 35 39  1  0  0  0  0
 18 22  1  0  0  0  0
 18 23  1  0  0  0  0
 25 30  1  0  0  0  0
  8 13  1  0  0  0  0
 34 36  1  0  0  0  0
 17 21  1  0  0  0  0
  7 12  1  0  0  0  0
 24 29  1  0  0  0  0
M  END
$$$$

  -OEChem-05262214473D

 39 38  0     1  0  0  0  0  0999 V2000
   -3.5200   -4.0268   -1.6943 C   0  0  0  0  0  0  0  0  0  0  0  0
   -2.8702   -4.8827   -1.1054 O   0  0  0  0  0  0  0  0  0  0  0  0
   -4.9704   -4.2579   -1.9614 C   0  0  0  0  0  0  0  0  0  0  0  0
   -5.1456   -4.7573   -2.9278 H   0  0  0  0  0  0  0  0  0  0  0  0
   -5.4379   -4.9112   -1.2072 H   0  0  0  0  0  0  0  0  0  0  0  0
   -5.5954   -3.3510   -1.9864 H   0  0  0  0  0  0  0  0  0  0  0  0
   -3.0424   -2.8131   -2.1606 N   0  0  0  0  0  0  0  0  0  0  0  0
   -1.6755   -2.3891   -2.0077 C   0  0  2  0  0  0  0  0  0  0  0  0
   -1.5782   -1.5673   -0.7292 C   0  0  0  0  0  0  0  0  0  0  0  0
   -2.5448   -1.0064   -0.2171 O   0  0  0  0  0  0  0  0  0  0  0  0
   -1.2087   -1.5823   -3.2094 C   0  0  0  0  0  0  0  0  0  0  0  0
   -3.6915   -2.1888   -2.6360 H   0  0  0  0  0  0  0  0  0  0  0  0
   -1.0721   -3.2977   -1.9053 H   0  0  0  0  0  0  0  0  0  0  0  0
   -1.8017   -0.6681   -3.3281 H   0  0  0  0  0  0  0  0  0  0  0  0
   -0.1601   -1.2849   -3.1045 H   0  0  0  0  0  0  0  0  0  0  0  0
   -1.3074   -2.1646   -4.1319 H   0  0  0  0  0  0  0  0  0  0  0  0
   -0.2835   -1.5112   -0.2725 N   0  0  0  0  0  0  0  0  0  0  0  0
    0.0769   -0.7658    0.9424 C   0  0  0  0  0  0  0  0  0  0  0  0
   -0.2832    0.6877    0.7694 C   0  0  0  0  0  0  0  0  0  0  0  0
    0.1862    1.3996   -0.1145 O   0  0  0  0  0  0  0  0  0  0  0  0
    0.4587   -2.0097   -0.7289 H   0  0  0  0  0  0  0  0  0  0  0  0
    1.1526   -0.8605    1.1173 H   0  0  0  0  0  0  0  0  0  0  0  0
   -0.4668   -1.1836    1.7948 H   0  0  0  0  0  0  0  0  0  0  0  0
   -1.1987    1.1062    1.7292 N   0  0  0  0  0  0  0  0  0  0  0  0
   -1.7144    2.4478    1.8026 C   0  0  2  0  0  0  0  0  0  0  0  0
   -3.2317    2.3751    1.6935 C   0  0  0  0  0  0  0  0  0  0  0  0
   -3.8227    1.4268    1.1810 O   0  0  0  0  0  0  0  0  0  0  0  0
   -1.1320    3.3253    0.7055 C   0  0  0  0  0  0  0  0  0  0  0  0
   -1.5212    0.4271    2.4166 H   0  0  0  0  0  0  0  0  0  0  0  0
   -1.4369    2.8399    2.7871 H   0  0  0  0  0  0  0  0  0  0  0  0
   -1.3996    2.9481   -0.2883 H   0  0  0  0  0  0  0  0  0  0  0  0
   -1.5034    4.3527    0.7801 H   0  0  0  0  0  0  0  0  0  0  0  0
   -0.0388    3.3526    0.7674 H   0  0  0  0  0  0  0  0  0  0  0  0
   -3.8464    3.5131    2.1967 N   0  0  0  0  0  0  0  0  0  0  0  0
   -5.2798    3.6903    2.1956 C   0  0  0  0  0  0  0  0  0  0  0  0
   -3.2791    4.2415    2.6202 H   0  0  0  0  0  0  0  0  0  0  0  0
   -5.5835    4.2199    1.2805 H   0  0  0  0  0  0  0  0  0  0  0  0
   -5.7707    2.7065    2.2298 H   0  0  0  0  0  0  0  0  0  0  0  0
   -5.5770    4.2792    3.0758 H   0  0  0  0  0  0  0  0  0  0  0  0
  1  3  1  0  0  0  0
  1  7  1  0  0  0  0
  1  2  2  0  0  0  0
 18 19  1  0  0  0  0
 19 24  1  0  0  0  0
 19 20  2  0  0  0  0
 25 26  1  0  0  0  0
 26 34  1  0  0  0  0
 26 27  2  0  0  0  0
  8  9  1  0  0  0  0
  9 17  1  0  0  0  0
  9 10  2  0  0  0  0
 25 28  1  0  0  0  0
  8 11  1  0  0  0  0
 34 35  1  0  0  0  0
 17 18  1  0  0  0  0
 24 25  1  0  0  0  0
  7  8  1  0  0  0  0
  3  4  1  0  0  0  0
  3  5  1  0  0  0  0
  3  6  1  0  0  0  0
 28 31  1  0  0  0  0
 28 32  1  0  0  0  0
 28 33  1  0  0  0  0
 11 14  1  0  0  0  0
 11 15  1  0  0  0  0
 11 16  1  0  0  0  0
 35 37  1  0  0  0  0
 35 38  1  0  0  0  0
 35 39  1  0  0  0  0
 18 22  1  0  0  0  0
 18 23  1  0  0  0  0
 25 30  1  0  0  0  0
  8 13  1  0  0  0  0
 34 36  1  0  0  0  0
 17 21  1  0  0  0  0
  7 12  1  0  0  0  0
 24 29  1  0  0  0  0
M  END
$$$$

  -OEChem-05262214473D

 39 38  0     1  0  0  0  0  0999 V2000
   -3.5200   -4.0268   -1.6943 C   0  0  0  0  0  0  0  0  0  0  0  0
   -2.8702   -4.8827   -1.1054 O   0  0  0  0  0  0  0  0  0  0  0  0
   -4.9704   -4.2579   -1.9614 C   0  0  0  0  0  0  0  0  0  0  0  0
   -5.1456   -4.7573   -2.9278 H   0  0  0  0  0  0  0  0  0  0  0  0
   -5.4379   -4.9112   -1.2072 H   0  0  0  0  0  0  0  0  0  0  0  0
   -5.5954   -3.3510   -1.9864 H   0  0  0  0  0  0  0  0  0  0  0  0
   -3.0424   -2.8131   -2.1606 N   0  0  0  0  0  0  0  0  0  0  0  0
   -1.6755   -2.3891   -2.0077 C   0  0  2  0  0  0  0  0  0  0  0  0
   -1.5782   -1.5673   -0.7292 C   0  0  0  0  0  0  0  0  0  0  0  0
   -2.5448   -1.0064   -0.2171 O   0  0  0  0  0  0  0  0  0  0  0  0
   -1.2087   -1.5823   -3.2094 C   0  0  0  0  0  0  0  0  0  0  0  0
   -3.6915   -2.1888   -2.6360 H   0  0  0  0  0  0  0  0  0  0  0  0
   -1.0721   -3.2977   -1.9053 H   0  0  0  0  0  0  0  0  0  0  0  0
   -1.8017   -0.6681   -3.3281 H   0  0  0  0  0  0  0  0  0  0  0  0
   -0.1601   -1.2849   -3.1045 H   0  0  0  0  0  0  0  0  0  0  0  0
   -1.3074   -2.1646   -4.1319 H   0  0  0  0  0  0  0  0  0  0  0  0
   -0.2835   -1.5112   -0.2725 N   0  0  0  0  0  0  0  0  0  0  0  0
    0.0769   -0.7658    0.9424 C   0  0  0  0  0  0  0  0  0  0  0  0
   -0.2832    0.6877    0.7694 C   0  0  0  0  0  0  0  0  0  0  0  0
   -0.0348    1.3290   -0.2482 O   0  0  0  0  0  0  0  0  0  0  0  0
    0.4587   -2.0097   -0.7289 H   0  0  0  0  0  0  0  0  0  0  0  0
    1.1526   -0.8605    1.1173 H   0  0  0  0  0  0  0  0  0  0  0  0
   -0.4668   -1.1836    1.7948 H   0  0  0  0  0  0  0  0  0  0  0  0
   -0.9197    1.1953    1.8971 N   0  0  0  0  0  0  0  0  0  0  0  0
   -1.3711    2.5574    2.0082 C   0  0  2  0  0  0  0  0  0  0  0  0
   -2.8686    2.5354    2.2848 C   0  0  0  0  0  0  0  0  0  0  0  0
   -3.5897    1.5818    1.9987 O   0  0  0  0  0  0  0  0  0  0  0  0
   -1.0631    3.3472    0.7457 C   0  0  0  0  0  0  0  0  0  0  0  0
   -1.0745    0.5699    2.6861 H   0  0  0  0  0  0  0  0  0  0  0  0
   -0.8473    2.9953    2.8649 H   0  0  0  0  0  0  0  0  0  0  0  0
   -1.5792    2.9233   -0.1235 H   0  0  0  0  0  0  0  0  0  0  0  0
   -1.3814    4.3904    0.8427 H   0  0  0  0  0  0  0  0  0  0  0  0
    0.0111    3.3369    0.5319 H   0  0  0  0  0  0  0  0  0  0  0  0
   -3.3126    3.7230    2.8493 N   0  0  0  0  0  0  0  0  0  0  0  0
   -4.6963    3.9536    3.1929 C   0  0  0  0  0  0  0  0  0  0  0  0
   -2.6415    4.4530    3.0697 H   0  0  0  0  0  0  0  0  0  0  0  0
   -5.2080    4.4402    2.3494 H   0  0  0  0  0  0  0  0  0  0  0  0
   -5.1844    2.9926    3.4126 H   0  0  0  0  0  0  0  0  0  0  0  0
   -4.7507    4.6034    4.0788 H   0  0  0  0  0  0  0  0  0  0  0  0
  1  3  1  0  0  0  0
  1  7  1  0  0  0  0
  1  2  2  0  0  0  0
 18 19  1  0  0  0  0
 19 24  1  0  0  0  0
 19 20  2  0  0  0  0
 25 26  1  0  0  0  0
 26 34  1  0  0  0  0
 26 27  2  0  0  0  0
  8  9  1  0  0  0  0
  9 17  1  0  0  0  0
  9 10  2  0  0  0  0
 25 28  1  0  0  0  0
  8 11  1  0  0  0  0
 34 35  1  0  0  0  0
 17 18  1  0  0  0  0
 24 25  1  0  0  0  0
  7  8  1  0  0  0  0
  3  4  1  0  0  0  0
  3  5  1  0  0  0  0
  3  6  1  0  0  0  0
 28 31  1  0  0  0  0
 28 32  1  0  0  0  0
 28 33  1  0  0  0  0
 11 14  1  0  0  0  0
 11 15  1  0  0  0  0
 11 16  1  0  0  0  0
 35 37  1  0  0  0  0
 35 38  1  0  0  0  0
 35 39  1  0  0  0  0
 18 22  1  0  0  0  0
 18 23  1  0  0  0  0
 25 30  1  0  0  0  0
  8 13  1  0  0  0  0
 34 36  1  0  0  0  0
 17 21  1  0  0  0  0
  7 12  1  0  0  0  0
 24 29  1  0  0  0  0
M  END
$$$$

  -OEChem-05262214473D

 39 38  0     1  0  0  0  0  0999 V2000
   -3.5200   -4.0268   -1.6943 C   0  0  0  0  0  0  0  0  0  0  0  0
   -2.8702   -4.8827   -1.1054 O   0  0  0  0  0  0  0  0  0  0  0  0
   -4.9704   -4.2579   -1.9614 C   0  0  0  0  0  0  0  0  0  0  0  0
   -5.1456   -4.7573   -2.9278 H   0  0  0  0  0  0  0  0  0  0  0  0
   -5.4379   -4.9112   -1.2072 H   0  0  0  0  0  0  0  0  0  0  0  0
   -5.5954   -3.3510   -1.9864 H   0  0  0  0  0  0  0  0  0  0  0  0
   -3.0424   -2.8131   -2.1606 N   0  0  0  0  0  0  0  0  0  0  0  0
   -1.6755   -2.3891   -2.0077 C   0  0  2  0  0  0  0  0  0  0  0  0
   -1.5782   -1.5673   -0.7292 C   0  0  0  0  0  0  0  0  0  0  0  0
   -2.5448   -1.0064   -0.2171 O   0  0  0  0  0  0  0  0  0  0  0  0
   -1.2087   -1.5823   -3.2094 C   0  0  0  0  0  0  0  0  0  0  0  0
   -3.6915   -2.1888   -2.6360 H   0  0  0  0  0  0  0  0  0  0  0  0
   -1.0721   -3.2977   -1.9053 H   0  0  0  0  0  0  0  0  0  0  0  0
   -1.8017   -0.6681   -3.3281 H   0  0  0  0  0  0  0  0  0  0  0  0
   -0.1601   -1.2849   -3.1045 H   0  0  0  0  0  0  0  0  0  0  0  0
   -1.3074   -2.1646   -4.1319 H   0  0  0  0  0  0  0  0  0  0  0  0
   -0.2835   -1.5112   -0.2725 N   0  0  0  0  0  0  0  0  0  0  0  0
    0.0769   -0.7658    0.9424 C   0  0  0  0  0  0  0  0  0  0  0  0
   -0.2832    0.6877    0.7694 C   0  0  0  0  0  0  0  0  0  0  0  0
   -0.2836    1.2590   -0.3178 O   0  0  0  0  0  0  0  0  0  0  0  0
    0.4587   -2.0097   -0.7289 H   0  0  0  0  0  0  0  0  0  0  0  0
    1.1526   -0.8605    1.1173 H   0  0  0  0  0  0  0  0  0  0  0  0
   -0.4668   -1.1836    1.7948 H   0  0  0  0  0  0  0  0  0  0  0  0
   -0.6057    1.2835    1.9841 N   0  0  0  0  0  0  0  0  0  0  0  0
   -0.9850    2.6657    2.1144 C   0  0  2  0  0  0  0  0  0  0  0  0
   -2.3656    2.7161    2.7554 C   0  0  0  0  0  0  0  0  0  0  0  0
   -3.1560    1.7753    2.7208 O   0  0  0  0  0  0  0  0  0  0  0  0
   -0.9858    3.3687    0.7659 C   0  0  0  0  0  0  0  0  0  0  0  0
   -0.5716    0.7112    2.8261 H   0  0  0  0  0  0  0  0  0  0  0  0
   -0.2538    3.1326    2.7833 H   0  0  0  0  0  0  0  0  0  0  0  0
   -1.7124    2.9148    0.0821 H   0  0  0  0  0  0  0  0  0  0  0  0
   -1.2468    4.4270    0.8704 H   0  0  0  0  0  0  0  0  0  0  0  0
    0.0001    3.3057    0.2929 H   0  0  0  0  0  0  0  0  0  0  0  0
   -2.6279    3.9503    3.3334 N   0  0  0  0  0  0  0  0  0  0  0  0
   -3.8760    4.2522    3.9944 C   0  0  0  0  0  0  0  0  0  0  0  0
   -1.9072    4.6661    3.3317 H   0  0  0  0  0  0  0  0  0  0  0  0
   -4.5719    4.7079    3.2746 H   0  0  0  0  0  0  0  0  0  0  0  0
   -4.3145    3.3246    4.3911 H   0  0  0  0  0  0  0  0  0  0  0  0
   -3.6925    4.9539    4.8214 H   0  0  0  0  0  0  0  0  0  0  0  0
  1  3  1  0  0  0  0
  1  7  1  0  0  0  0
  1  2  2  0  0  0  0
 18 19  1  0  0  0  0
 19 24  1  0  0  0  0
 19 20  2  0  0  0  0
 25 26  1  0  0  0  0
 26 34  1  0  0  0  0
 26 27  2  0  0  0  0
  8  9  1  0  0  0  0
  9 17  1  0  0  0  0
  9 10  2  0  0  0  0
 25 28  1  0  0  0  0
  8 11  1  0  0  0  0
 34 35  1  0  0  0  0
 17 18  1  0  0  0  0
 24 25  1  0  0  0  0
  7  8  1  0  0  0  0
  3  4  1  0  0  0  0
  3  5  1  0  0  0  0
  3  6  1  0  0  0  0
 28 31  1  0  0  0  0
 28 32  1  0  0  0  0
 28 33  1  0  0  0  0
 11 14  1  0  0  0  0
 11 15  1  0  0  0  0
 11 16  1  0  0  0  0
 35 37  1  0  0  0  0
 35 38  1  0  0  0  0
 35 39  1  0  0  0  0
 18 22  1  0  0  0  0
 18 23  1  0  0  0  0
 25 30  1  0  0  0  0
  8 13  1  0  0  0  0
 34 36  1  0  0  0  0
 17 21  1  0  0  0  0
  7 12  1  0  0  0  0
 24 29  1  0  0  0  0
M  END
$$$$

  -OEChem-05262214473D

 39 38  0     1  0  0  0  0  0999 V2000
   -3.5200   -4.0268   -1.6943 C   0  0  0  0  0  0  0  0  0  0  0  0
   -2.8702   -4.8827   -1.1054 O   0  0  0  0  0  0  0  0  0  0  0  0
   -4.9704   -4.2579   -1.9614 C   0  0  0  0  0  0  0  0  0  0  0  0
   -5.1456   -4.7573   -2.9278 H   0  0  0  0  0  0  0  0  0  0  0  0
   -5.4379   -4.9112   -1.2072 H   0  0  0  0  0  0  0  0  0  0  0  0
   -5.5954   -3.3510   -1.9864 H   0  0  0  0  0  0  0  0  0  0  0  0
   -3.0424   -2.8131   -2.1606 N   0  0  0  0  0  0  0  0  0  0  0  0
   -1.6755   -2.3891   -2.0077 C   0  0  2  0  0  0  0  0  0  0  0  0
   -1.5782   -1.5673   -0.7292 C   0  0  0  0  0  0  0  0  0  0  0  0
   -2.5448   -1.0064   -0.2171 O   0  0  0  0  0  0  0  0  0  0  0  0
   -1.2087   -1.5823   -3.2094 C   0  0  0  0  0  0  0  0  0  0  0  0
   -3.6915   -2.1888   -2.6360 H   0  0  0  0  0  0  0  0  0  0  0  0
   -1.0721   -3.2977   -1.9053 H   0  0  0  0  0  0  0  0  0  0  0  0
   -1.8017   -0.6681   -3.3281 H   0  0  0  0  0  0  0  0  0  0  0  0
   -0.1601   -1.2849   -3.1045 H   0  0  0  0  0  0  0  0  0  0  0  0
   -1.3074   -2.1646   -4.1319 H   0  0  0  0  0  0  0  0  0  0  0  0
   -0.2835   -1.5112   -0.2725 N   0  0  0  0  0  0  0  0  0  0  0  0
    0.0769   -0.7658    0.9424 C   0  0  0  0  0  0  0  0  0  0  0  0
   -0.2832    0.6877    0.7694 C   0  0  0  0  0  0  0  0  0  0  0  0
   -0.5435    1.1945   -0.3186 O   0  0  0  0  0  0  0  0  0  0  0  0
    0.4587   -2.0097   -0.7289 H   0  0  0  0  0  0  0  0  0  0  0  0
    1.1526   -0.8605    1.1173 H   0  0  0  0  0  0  0  0  0  0  0  0
   -0.4668   -1.1836    1.7948 H   0  0  0  0  0  0  0  0  0  0  0  0
   -0.2780    1.3647    1.9843 N   0  0  0  0  0  0  0  0  0  0  0  0
   -0.5823    2.7654    2.1139 C   0  0  2  0  0  0  0  0  0  0  0  0
   -1.7568    2.9047    3.0733 C   0  0  0  0  0  0  0  0  0  0  0  0
   -2.5511    1.9939    3.2981 O   0  0  0  0  0  0  0  0  0  0  0  0
   -0.9055    3.3885    0.7648 C   0  0  0  0  0  0  0  0  0  0  0  0
   -0.0466    0.8414    2.8271 H   0  0  0  0  0  0  0  0  0  0  0  0
    0.3032    3.2425    2.5479 H   0  0  0  0  0  0  0  0  0  0  0  0
   -1.7899    2.9232    0.3145 H   0  0  0  0  0  0  0  0  0  0  0  0
   -1.1088    4.4601    0.8612 H   0  0  0  0  0  0  0  0  0  0  0  0
   -0.0711    3.2611    0.0667 H   0  0  0  0  0  0  0  0  0  0  0  0
   -1.8389    4.1794    3.6161 N   0  0  0  0  0  0  0  0  0  0  0  0
   -2.8748    4.5659    4.5454 C   0  0  0  0  0  0  0  0  0  0  0  0
   -1.1262    4.8664    3.3883 H   0  0  0  0  0  0  0  0  0  0  0  0
   -3.7186    5.0048    3.9929 H   0  0  0  0  0  0  0  0  0  0  0  0
   -3.2201    3.6800    5.0986 H   0  0  0  0  0  0  0  0  0  0  0  0
   -2.4747    5.3070    5.2529 H   0  0  0  0  0  0  0  0  0  0  0  0
  1  3  1  0  0  0  0
  1  7  1  0  0  0  0
  1  2  2  0  0  0  0
 18 19  1  0  0  0  0
 19 24  1  0  0  0  0
 19 20  2  0  0  0  0
 25 26  1  0  0  0  0
 26 34  1  0  0  0  0
 26 27  2  0  0  0  0
  8  9  1  0  0  0  0
  9 17  1  0  0  0  0
  9 10  2  0  0  0  0
 25 28  1  0  0  0  0
  8 11  1  0  0  0  0
 34 35  1  0  0  0  0
 17 18  1  0  0  0  0
 24 25  1  0  0  0  0
  7  8  1  0  0  0  0
  3  4  1  0  0  0  0
  3  5  1  0  0  0  0
  3  6  1  0  0  0  0
 28 31  1  0  0  0  0
 28 32  1  0  0  0  0
 28 33  1  0  0  0  0
 11 14  1  0  0  0  0
 11 15  1  0  0  0  0
 11 16  1  0  0  0  0
 35 37  1  0  0  0  0
 35 38  1  0  0  0  0
 35 39  1  0  0  0  0
 18 22  1  0  0  0  0
 18 23  1  0  0  0  0
 25 30  1  0  0  0  0
  8 13  1  0  0  0  0
 34 36  1  0  0  0  0
 17 21  1  0  0  0  0
  7 12  1  0  0  0  0
 24 29  1  0  0  0  0
M  END
$$$$

  -OEChem-05262214473D

 39 38  0     1  0  0  0  0  0999 V2000
   -3.5200   -4.0268   -1.6943 C   0  0  0  0  0  0  0  0  0  0  0  0
   -2.8702   -4.8827   -1.1054 O   0  0  0  0  0  0  0  0  0  0  0  0
   -4.9704   -4.2579   -1.9614 C   0  0  0  0  0  0  0  0  0  0  0  0
   -5.1456   -4.7573   -2.9278 H   0  0  0  0  0  0  0  0  0  0  0  0
   -5.4379   -4.9112   -1.2072 H   0  0  0  0  0  0  0  0  0  0  0  0
   -5.5954   -3.3510   -1.9864 H   0  0  0  0  0  0  0  0  0  0  0  0
   -3.0424   -2.8131   -2.1606 N   0  0  0  0  0  0  0  0  0  0  0  0
   -1.6755   -2.3891   -2.0077 C   0  0  2  0  0  0  0  0  0  0  0  0
   -1.5782   -1.5673   -0.7292 C   0  0  0  0  0  0  0  0  0  0  0  0
   -2.5448   -1.0064   -0.2171 O   0  0  0  0  0  0  0  0  0  0  0  0
   -1.2087   -1.5823   -3.2094 C   0  0  0  0  0  0  0  0  0  0  0  0
   -3.6915   -2.1888   -2.6360 H   0  0  0  0  0  0  0  0  0  0  0  0
   -1.0721   -3.2977   -1.9053 H   0  0  0  0  0  0  0  0  0  0  0  0
   -1.8017   -0.6681   -3.3281 H   0  0  0  0  0  0  0  0  0  0  0  0
   -0.1601   -1.2849   -3.1045 H   0  0  0  0  0  0  0  0  0  0  0  0
   -1.3074   -2.1646   -4.1319 H   0  0  0  0  0  0  0  0  0  0  0  0
   -0.2835   -1.5112   -0.2725 N   0  0  0  0  0  0  0  0  0  0  0  0
    0.0769   -0.7658    0.9424 C   0  0  0  0  0  0  0  0  0  0  0  0
   -0.6003    0.5809    0.9290 C   0  0  0  0  0  0  0  0  0  0  0  0
   -1.3329    0.9599    0.0190 O   0  0  0  0  0  0  0  0  0  0  0  0
    0.4587   -2.0097   -0.7289 H   0  0  0  0  0  0  0  0  0  0  0  0
    1.1622   -0.6321    0.9743 H   0  0  0  0  0  0  0  0  0  0  0  0
   -0.2441   -1.3335    1.8207 H   0  0  0  0  0  0  0  0  0  0  0  0
   -0.2869    1.3229    2.0628 N   0  0  0  0  0  0  0  0  0  0  0  0
   -0.7928    2.6476    2.3095 C   0  0  2  0  0  0  0  0  0  0  0  0
   -1.5405    2.6260    3.6361 C   0  0  0  0  0  0  0  0  0  0  0  0
   -2.0024    1.5990    4.1291 O   0  0  0  0  0  0  0  0  0  0  0  0
   -1.7006    3.1121    1.1813 C   0  0  0  0  0  0  0  0  0  0  0  0
    0.3334    0.9068    2.7554 H   0  0  0  0  0  0  0  0  0  0  0  0
    0.0772    3.3083    2.3906 H   0  0  0  0  0  0  0  0  0  0  0  0
   -2.5779    2.4621    1.0847 H   0  0  0  0  0  0  0  0  0  0  0  0
   -2.0618    4.1309    1.3566 H   0  0  0  0  0  0  0  0  0  0  0  0
   -1.1698    3.0986    0.2233 H   0  0  0  0  0  0  0  0  0  0  0  0
   -1.6690    3.8949    4.1835 N   0  0  0  0  0  0  0  0  0  0  0  0
   -2.3501    4.1395    5.4333 C   0  0  0  0  0  0  0  0  0  0  0  0
   -1.2383    4.6869    3.7155 H   0  0  0  0  0  0  0  0  0  0  0  0
   -3.4058    4.3771    5.2358 H   0  0  0  0  0  0  0  0  0  0  0  0
   -2.2886    3.2418    6.0661 H   0  0  0  0  0  0  0  0  0  0  0  0
   -1.8745    4.9859    5.9504 H   0  0  0  0  0  0  0  0  0  0  0  0
  1  3  1  0  0  0  0
  1  7  1  0  0  0  0
  1  2  2  0  0  0  0
 18 19  1  0  0  0  0
 19 24  1  0  0  0  0
 19 20  2  0  0  0  0
 25 26  1  0  0  0  0
 26 34  1  0  0  0  0
 26 27  2  0  0  0  0
  8  9  1  0  0  0  0
  9 17  1  0  0  0  0
  9 10  2  0  0  0  0
 25 28  1  0  0  0  0
  8 11  1  0  0  0  0
 34 35  1  0  0  0  0
 17 18  1  0  0  0  0
 24 25  1  0  0  0  0
  7  8  1  0  0  0  0
  3  4  1  0  0  0  0
  3  5  1  0  0  0  0
  3  6  1  0  0  0  0
 28 31  1  0  0  0  0
 28 32  1  0  0  0  0
 28 33  1  0  0  0  0
 11 14  1  0  0  0  0
 11 15  1  0  0  0  0
 11 16  1  0  0  0  0
 35 37  1  0  0  0  0
 35 38  1  0  0  0  0
 35 39  1  0  0  0  0
 18 22  1  0  0  0  0
 18 23  1  0  0  0  0
 25 30  1  0  0  0  0
  8 13  1  0  0  0  0
 34 36  1  0  0  0  0
 17 21  1  0  0  0  0
  7 12  1  0  0  0  0
 24 29  1  0  0  0  0
M  END
$$$$

  -OEChem-05262214473D

 39 38  0     1  0  0  0  0  0999 V2000
   -3.5200   -4.0268   -1.6943 C   0  0  0  0  0  0  0  0  0  0  0  0
   -2.8702   -4.8827   -1.1054 O   0  0  0  0  0  0  0  0  0  0  0  0
   -4.9704   -4.2579   -1.9614 C   0  0  0  0  0  0  0  0  0  0  0  0
   -5.1456   -4.7573   -2.9278 H   0  0  0  0  0  0  0  0  0  0  0  0
   -5.4379   -4.9112   -1.2072 H   0  0  0  0  0  0  0  0  0  0  0  0
   -5.5954   -3.3510   -1.9864 H   0  0  0  0  0  0  0  0  0  0  0  0
   -3.0424   -2.8131   -2.1606 N   0  0  0  0  0  0  0  0  0  0  0  0
   -1.6755   -2.3891   -2.0077 C   0  0  2  0  0  0  0  0  0  0  0  0
   -1.5782   -1.5673   -0.7292 C   0  0  0  0  0  0  0  0  0  0  0  0
   -2.5448   -1.0064   -0.2171 O   0  0  0  0  0  0  0  0  0  0  0  0
   -1.2087   -1.5823   -3.2094 C   0  0  0  0  0  0  0  0  0  0  0  0
   -3.6915   -2.1888   -2.6360 H   0  0  0  0  0  0  0  0  0  0  0  0
   -1.0721   -3.2977   -1.9053 H   0  0  0  0  0  0  0  0  0  0  0  0
   -1.8017   -0.6681   -3.3281 H   0  0  0  0  0  0  0  0  0  0  0  0
   -0.1601   -1.2849   -3.1045 H   0  0  0  0  0  0  0  0  0  0  0  0
   -1.3074   -2.1646   -4.1319 H   0  0  0  0  0  0  0  0  0  0  0  0
   -0.2835   -1.5112   -0.2725 N   0  0  0  0  0  0  0  0  0  0  0  0
    0.0769   -0.7658    0.9424 C   0  0  0  0  0  0  0  0  0  0  0  0
   -0.6003    0.5809    0.9290 C   0  0  0  0  0  0  0  0  0  0  0  0
   -1.5278    0.8634    0.1751 O   0  0  0  0  0  0  0  0  0  0  0  0
    0.4587   -2.0097   -0.7289 H   0  0  0  0  0  0  0  0  0  0  0  0
    1.1622   -0.6321    0.9743 H   0  0  0  0  0  0  0  0  0  0  0  0
   -0.2441   -1.3335    1.8207 H   0  0  0  0  0  0  0  0  0  0  0  0
   -0.0416    1.4443    1.8653 N   0  0  0  0  0  0  0  0  0  0  0  0
   -0.4917    2.7966    2.0661 C   0  0  2  0  0  0  0  0  0  0  0  0
   -0.9119    2.9410    3.5228 C   0  0  0  0  0  0  0  0  0  0  0  0
   -1.2355    1.9856    4.2255 O   0  0  0  0  0  0  0  0  0  0  0  0
   -1.6411    3.1416    1.1320 C   0  0  0  0  0  0  0  0  0  0  0  0
    0.7269    1.1015    2.4394 H   0  0  0  0  0  0  0  0  0  0  0  0
    0.3659    3.4483    1.8664 H   0  0  0  0  0  0  0  0  0  0  0  0
   -2.5095    2.4989    1.3171 H   0  0  0  0  0  0  0  0  0  0  0  0
   -1.9635    4.1794    1.2660 H   0  0  0  0  0  0  0  0  0  0  0  0
   -1.3462    3.0085    0.0855 H   0  0  0  0  0  0  0  0  0  0  0  0
   -0.9246    4.2667    3.9333 N   0  0  0  0  0  0  0  0  0  0  0  0
   -1.3009    4.6655    5.2695 C   0  0  0  0  0  0  0  0  0  0  0  0
   -0.6230    4.9921    3.2895 H   0  0  0  0  0  0  0  0  0  0  0  0
   -2.3763    4.8954    5.2950 H   0  0  0  0  0  0  0  0  0  0  0  0
   -1.0845    3.8464    5.9711 H   0  0  0  0  0  0  0  0  0  0  0  0
   -0.7282    5.5584    5.5604 H   0  0  0  0  0  0  0  0  0  0  0  0
  1  3  1  0  0  0  0
  1  7  1  0  0  0  0
  1  2  2  0  0  0  0
 18 19  1  0  0  0  0
 19 24  1  0  0  0  0
 19 20  2  0  0  0  0
 25 26  1  0  0  0  0
 26 34  1  0  0  0  0
 26 27  2  0  0  0  0
  8  9  1  0  0  0  0
  9 17  1  0  0  0  0
  9 10  2  0  0  0  0
 25 28  1  0  0  0  0
  8 11  1  0  0  0  0
 34 35  1  0  0  0  0
 17 18  1  0  0  0  0
 24 25  1  0  0  0  0
  7  8  1  0  0  0  0
  3  4  1  0  0  0  0
  3  5  1  0  0  0  0
  3  6  1  0  0  0  0
 28 31  1  0  0  0  0
 28 32  1  0  0  0  0
 28 33  1  0  0  0  0
 11 14  1  0  0  0  0
 11 15  1  0  0  0  0
 11 16  1  0  0  0  0
 35 37  1  0  0  0  0
 35 38  1  0  0  0  0
 35 39  1  0  0  0  0
 18 22  1  0  0  0  0
 18 23  1  0  0  0  0
 25 30  1  0  0  0  0
  8 13  1  0  0  0  0
 34 36  1  0  0  0  0
 17 21  1  0  0  0  0
  7 12  1  0  0  0  0
 24 29  1  0  0  0  0
M  END
$$$$

  -OEChem-05262214473D

 39 38  0     1  0  0  0  0  0999 V2000
   -3.5200   -4.0268   -1.6943 C   0  0  0  0  0  0  0  0  0  0  0  0
   -2.8702   -4.8827   -1.1054 O   0  0  0  0  0  0  0  0  0  0  0  0
   -4.9704   -4.2579   -1.9614 C   0  0  0  0  0  0  0  0  0  0  0  0
   -5.1456   -4.7573   -2.9278 H   0  0  0  0  0  0  0  0  0  0  0  0
   -5.4379   -4.9112   -1.2072 H   0  0  0  0  0  0  0  0  0  0  0  0
   -5.5954   -3.3510   -1.9864 H   0  0  0  0  0  0  0  0  0  0  0  0
   -3.0424   -2.8131   -2.1606 N   0  0  0  0  0  0  0  0  0  0  0  0
   -1.6755   -2.3891   -2.0077 C   0  0  2  0  0  0  0  0  0  0  0  0
   -1.5782   -1.5673   -0.7292 C   0  0  0  0  0  0  0  0  0  0  0  0
   -2.5448   -1.0064   -0.2171 O   0  0  0  0  0  0  0  0  0  0  0  0
   -1.2087   -1.5823   -3.2094 C   0  0  0  0  0  0  0  0  0  0  0  0
   -3.6915   -2.1888   -2.6360 H   0  0  0  0  0  0  0  0  0  0  0  0
   -1.0721   -3.2977   -1.9053 H   0  0  0  0  0  0  0  0  0  0  0  0
   -1.8017   -0.6681   -3.3281 H   0  0  0  0  0  0  0  0  0  0  0  0
   -0.1601   -1.2849   -3.1045 H   0  0  0  0  0  0  0  0  0  0  0  0
   -1.3074   -2.1646   -4.1319 H   0  0  0  0  0  0  0  0  0  0  0  0
   -0.2835   -1.5112   -0.2725 N   0  0  0  0  0  0  0  0  0  0  0  0
    0.0769   -0.7658    0.9424 C   0  0  0  0  0  0  0  0  0  0  0  0
   -0.6003    0.5809    0.9290 C   0  0  0  0  0  0  0  0  0  0  0  0
   -1.6802    0.7888    0.3822 O   0  0  0  0  0  0  0  0  0  0  0  0
    0.4587   -2.0097   -0.7289 H   0  0  0  0  0  0  0  0  0  0  0  0
    1.1622   -0.6321    0.9743 H   0  0  0  0  0  0  0  0  0  0  0  0
   -0.2441   -1.3335    1.8207 H   0  0  0  0  0  0  0  0  0  0  0  0
    0.1500    1.5381    1.6037 N   0  0  0  0  0  0  0  0  0  0  0  0
   -0.2567    2.9115    1.7440 C   0  0  2  0  0  0  0  0  0  0  0  0
   -0.3302    3.2306    3.2314 C   0  0  0  0  0  0  0  0  0  0  0  0
   -0.4715    2.3685    4.0962 O   0  0  0  0  0  0  0  0  0  0  0  0
   -1.5949    3.1641    1.0672 C   0  0  0  0  0  0  0  0  0  0  0  0
    1.0343    1.2519    2.0206 H   0  0  0  0  0  0  0  0  0  0  0  0
    0.5239    3.5218    1.2770 H   0  0  0  0  0  0  0  0  0  0  0  0
   -2.3896    2.5612    1.5216 H   0  0  0  0  0  0  0  0  0  0  0  0
   -1.8893    4.2155    1.1502 H   0  0  0  0  0  0  0  0  0  0  0  0
   -1.5487    2.9059    0.0037 H   0  0  0  0  0  0  0  0  0  0  0  0
   -0.2626    4.5950    3.4764 N   0  0  0  0  0  0  0  0  0  0  0  0
   -0.3240    5.1521    4.8075 C   0  0  0  0  0  0  0  0  0  0  0  0
   -0.1264    5.2359    2.7002 H   0  0  0  0  0  0  0  0  0  0  0  0
   -1.3669    5.4005    5.0538 H   0  0  0  0  0  0  0  0  0  0  0  0
    0.0581    4.4165    5.5306 H   0  0  0  0  0  0  0  0  0  0  0  0
    0.2903    6.0635    4.8521 H   0  0  0  0  0  0  0  0  0  0  0  0
  1  3  1  0  0  0  0
  1  7  1  0  0  0  0
  1  2  2  0  0  0  0
 18 19  1  0  0  0  0
 19 24  1  0  0  0  0
 19 20  2  0  0  0  0
 25 26  1  0  0  0  0
 26 34  1  0  0  0  0
 26 27  2  0  0  0  0
  8  9  1  0  0  0  0
  9 17  1  0  0  0  0
  9 10  2  0  0  0  0
 25 28  1  0  0  0  0
  8 11  1  0  0  0  0
 34 35  1  0  0  0  0
 17 18  1  0  0  0  0
 24 25  1  0  0  0  0
  7  8  1  0  0  0  0
  3  4  1  0  0  0  0
  3  5  1  0  0  0  0
  3  6  1  0  0  0  0
 28 31  1  0  0  0  0
 28 32  1  0  0  0  0
 28 33  1  0  0  0  0
 11 14  1  0  0  0  0
 11 15  1  0  0  0  0
 11 16  1  0  0  0  0
 35 37  1  0  0  0  0
 35 38  1  0  0  0  0
 35 39  1  0  0  0  0
 18 22  1  0  0  0  0
 18 23  1  0  0  0  0
 25 30  1  0  0  0  0
  8 13  1  0  0  0  0
 34 36  1  0  0  0  0
 17 21  1  0  0  0  0
  7 12  1  0  0  0  0
 24 29  1  0  0  0  0
M  END
$$$$

  -OEChem-05262214473D

 39 38  0     1  0  0  0  0  0999 V2000
   -3.5200   -4.0268   -1.6943 C   0  0  0  0  0  0  0  0  0  0  0  0
   -2.8702   -4.8827   -1.1054 O   0  0  0  0  0  0  0  0  0  0  0  0
   -4.9704   -4.2579   -1.9614 C   0  0  0  0  0  0  0  0  0  0  0  0
   -5.1456   -4.7573   -2.9278 H   0  0  0  0  0  0  0  0  0  0  0  0
   -5.4379   -4.9112   -1.2072 H   0  0  0  0  0  0  0  0  0  0  0  0
   -5.5954   -3.3510   -1.9864 H   0  0  0  0  0  0  0  0  0  0  0  0
   -3.0424   -2.8131   -2.1606 N   0  0  0  0  0  0  0  0  0  0  0  0
   -1.6755   -2.3891   -2.0077 C   0  0  2  0  0  0  0  0  0  0  0  0
   -1.5782   -1.5673   -0.7292 C   0  0  0  0  0  0  0  0  0  0  0  0
   -2.5448   -1.0064   -0.2171 O   0  0  0  0  0  0  0  0  0  0  0  0
   -1.2087   -1.5823   -3.2094 C   0  0  0  0  0  0  0  0  0  0  0  0
   -3.6915   -2.1888   -2.6360 H   0  0  0  0  0  0  0  0  0  0  0  0
   -1.0721   -3.2977   -1.9053 H   0  0  0  0  0  0  0  0  0  0  0  0
   -1.8017   -0.6681   -3.3281 H   0  0  0  0  0  0  0  0  0  0  0  0
   -0.1601   -1.2849   -3.1045 H   0  0  0  0  0  0  0  0  0  0  0  0
   -1.3074   -2.1646   -4.1319 H   0  0  0  0  0  0  0  0  0  0  0  0
   -0.2835   -1.5112   -0.2725 N   0  0  0  0  0  0  0  0  0  0  0  0
    0.0769   -0.7658    0.9424 C   0  0  0  0  0  0  0  0  0  0  0  0
   -0.6003    0.5809    0.9290 C   0  0  0  0  0  0  0  0  0  0  0  0
   -1.7797    0.7412    0.6262 O   0  0  0  0  0  0  0  0  0  0  0  0
    0.4587   -2.0097   -0.7289 H   0  0  0  0  0  0  0  0  0  0  0  0
    1.1622   -0.6321    0.9743 H   0  0  0  0  0  0  0  0  0  0  0  0
   -0.2441   -1.3335    1.8207 H   0  0  0  0  0  0  0  0  0  0  0  0
    0.2748    1.5978    1.2957 N   0  0  0  0  0  0  0  0  0  0  0  0
   -0.1040    2.9845    1.3652 C   0  0  2  0  0  0  0  0  0  0  0  0
    0.1650    3.4751    2.7817 C   0  0  0  0  0  0  0  0  0  0  0  0
    0.2374    2.7216    3.7502 O   0  0  0  0  0  0  0  0  0  0  0  0
   -1.5653    3.1783    0.9913 C   0  0  0  0  0  0  0  0  0  0  0  0
    1.2348    1.3478    1.5275 H   0  0  0  0  0  0  0  0  0  0  0  0
    0.5404    3.5240    0.6627 H   0  0  0  0  0  0  0  0  0  0  0  0
   -2.2263    2.6449    1.6841 H   0  0  0  0  0  0  0  0  0  0  0  0
   -1.8444    4.2368    1.0169 H   0  0  0  0  0  0  0  0  0  0  0  0
   -1.7634    2.7977   -0.0166 H   0  0  0  0  0  0  0  0  0  0  0  0
    0.2719    4.8575    2.8437 N   0  0  0  0  0  0  0  0  0  0  0  0
    0.5138    5.5661    4.0788 C   0  0  0  0  0  0  0  0  0  0  0  0
    0.2176    5.4017    1.9878 H   0  0  0  0  0  0  0  0  0  0  0  0
   -0.4465    5.8581    4.5287 H   0  0  0  0  0  0  0  0  0  0  0  0
    1.0612    4.9134    4.7747 H   0  0  0  0  0  0  0  0  0  0  0  0
    1.1114    6.4666    3.8737 H   0  0  0  0  0  0  0  0  0  0  0  0
  1  3  1  0  0  0  0
  1  7  1  0  0  0  0
  1  2  2  0  0  0  0
 18 19  1  0  0  0  0
 19 24  1  0  0  0  0
 19 20  2  0  0  0  0
 25 26  1  0  0  0  0
 26 34  1  0  0  0  0
 26 27  2  0  0  0  0
  8  9  1  0  0  0  0
  9 17  1  0  0  0  0
  9 10  2  0  0  0  0
 25 28  1  0  0  0  0
  8 11  1  0  0  0  0
 34 35  1  0  0  0  0
 17 18  1  0  0  0  0
 24 25  1  0  0  0  0
  7  8  1  0  0  0  0
  3  4  1  0  0  0  0
  3  5  1  0  0  0  0
  3  6  1  0  0  0  0
 28 31  1  0  0  0  0
 28 32  1  0  0  0  0
 28 33  1  0  0  0  0
 11 14  1  0  0  0  0
 11 15  1  0  0  0  0
 11 16  1  0  0  0  0
 35 37  1  0  0  0  0
 35 38  1  0  0  0  0
 35 39  1  0  0  0  0
 18 22  1  0  0  0  0
 18 23  1  0  0  0  0
 25 30  1  0  0  0  0
  8 13  1  0  0  0  0
 34 36  1  0  0  0  0
 17 21  1  0  0  0  0
  7 12  1  0  0  0  0
 24 29  1  0  0  0  0
M  END
$$$$

  -OEChem-05262214473D

 39 38  0     1  0  0  0  0  0999 V2000
   -3.5200   -4.0268   -1.6943 C   0  0  0  0  0  0  0  0  0  0  0  0
   -2.8702   -4.8827   -1.1054 O   0  0  0  0  0  0  0  0  0  0  0  0
   -4.9704   -4.2579   -1.9614 C   0  0  0  0  0  0  0  0  0  0  0  0
   -5.1456   -4.7573   -2.9278 H   0  0  0  0  0  0  0  0  0  0  0  0
   -5.4379   -4.9112   -1.2072 H   0  0  0  0  0  0  0  0  0  0  0  0
   -5.5954   -3.3510   -1.9864 H   0  0  0  0  0  0  0  0  0  0  0  0
   -3.0424   -2.8131   -2.1606 N   0  0  0  0  0  0  0  0  0  0  0  0
   -1.6755   -2.3891   -2.0077 C   0  0  2  0  0  0  0  0  0  0  0  0
   -1.5782   -1.5673   -0.7292 C   0  0  0  0  0  0  0  0  0  0  0  0
   -2.5448   -1.0064   -0.2171 O   0  0  0  0  0  0  0  0  0  0  0  0
   -1.2087   -1.5823   -3.2094 C   0  0  0  0  0  0  0  0  0  0  0  0
   -3.6915   -2.1888   -2.6360 H   0  0  0  0  0  0  0  0  0  0  0  0
   -1.0721   -3.2977   -1.9053 H   0  0  0  0  0  0  0  0  0  0  0  0
   -1.8017   -0.6681   -3.3281 H   0  0  0  0  0  0  0  0  0  0  0  0
   -0.1601   -1.2849   -3.1045 H   0  0  0  0  0  0  0  0  0  0  0  0
   -1.3074   -2.1646   -4.1319 H   0  0  0  0  0  0  0  0  0  0  0  0
   -0.2835   -1.5112   -0.2725 N   0  0  0  0  0  0  0  0  0  0  0  0
    0.0769   -0.7658    0.9424 C   0  0  0  0  0  0  0  0  0  0  0  0
   -0.6003    0.5809    0.9290 C   0  0  0  0  0  0  0  0  0  0  0  0
   -1.8195    0.7239    0.8903 O   0  0  0  0  0  0  0  0  0  0  0  0
    0.4587   -2.0097   -0.7289 H   0  0  0  0  0  0  0  0  0  0  0  0
    1.1622   -0.6321    0.9743 H   0  0  0  0  0  0  0  0  0  0  0  0
   -0.2441   -1.3335    1.8207 H   0  0  0  0  0  0  0  0  0  0  0  0
    0.3243    1.6193    0.9625 N   0  0  0  0  0  0  0  0  0  0  0  0
   -0.0439    3.0106    0.9556 C   0  0  2  0  0  0  0  0  0  0  0  0
    0.5400    3.6579    2.2044 C   0  0  0  0  0  0  0  0  0  0  0  0
    0.8430    3.0207    3.2110 O   0  0  0  0  0  0  0  0  0  0  0  0
   -1.5542    3.1831    0.9094 C   0  0  0  0  0  0  0  0  0  0  0  0
    1.3146    1.3826    0.9936 H   0  0  0  0  0  0  0  0  0  0  0  0
    0.4143    3.4546    0.0651 H   0  0  0  0  0  0  0  0  0  0  0  0
   -2.0309    2.7443    1.7936 H   0  0  0  0  0  0  0  0  0  0  0  0
   -1.8318    4.2417    0.8754 H   0  0  0  0  0  0  0  0  0  0  0  0
   -1.9757    2.6914    0.0261 H   0  0  0  0  0  0  0  0  0  0  0  0
    0.6426    5.0362    2.0785 N   0  0  0  0  0  0  0  0  0  0  0  0
    1.1556    5.8794    3.1330 C   0  0  0  0  0  0  0  0  0  0  0  0
    0.3855    5.4783    1.2009 H   0  0  0  0  0  0  0  0  0  0  0  0
    0.3221    6.2369    3.7555 H   0  0  0  0  0  0  0  0  0  0  0  0
    1.8565    5.3031    3.7548 H   0  0  0  0  0  0  0  0  0  0  0  0
    1.6792    6.7403    2.6919 H   0  0  0  0  0  0  0  0  0  0  0  0
  1  3  1  0  0  0  0
  1  7  1  0  0  0  0
  1  2  2  0  0  0  0
 18 19  1  0  0  0  0
 19 24  1  0  0  0  0
 19 20  2  0  0  0  0
 25 26  1  0  0  0  0
 26 34  1  0  0  0  0
 26 27  2  0  0  0  0
  8  9  1  0  0  0  0
  9 17  1  0  0  0  0
  9 10  2  0  0  0  0
 25 28  1  0  0  0  0
  8 11  1  0  0  0  0
 34 35  1  0  0  0  0
 17 18  1  0  0  0  0
 24 25  1  0  0  0  0
  7  8  1  0  0  0  0
  3  4  1  0  0  0  0
  3  5  1  0  0  0  0
  3  6  1  0  0  0  0
 28 31  1  0  0  0  0
 28 32  1  0  0  0  0
 28 33  1  0  0  0  0
 11 14  1  0  0  0  0
 11 15  1  0  0  0  0
 11 16  1  0  0  0  0
 35 37  1  0  0  0  0
 35 38  1  0  0  0  0
 35 39  1  0  0  0  0
 18 22  1  0  0  0  0
 18 23  1  0  0  0  0
 25 30  1  0  0  0  0
  8 13  1  0  0  0  0
 34 36  1  0  0  0  0
 17 21  1  0  0  0  0
  7 12  1  0  0  0  0
 24 29  1  0  0  0  0
M  END
$$$$

  -OEChem-05262214473D

 39 38  0     1  0  0  0  0  0999 V2000
   -3.5200   -4.0268   -1.6943 C   0  0  0  0  0  0  0  0  0  0  0  0
   -2.8702   -4.8827   -1.1054 O   0  0  0  0  0  0  0  0  0  0  0  0
   -4.9704   -4.2579   -1.9614 C   0  0  0  0  0  0  0  0  0  0  0  0
   -5.1456   -4.7573   -2.9278 H   0  0  0  0  0  0  0  0  0  0  0  0
   -5.4379   -4.9112   -1.2072 H   0  0  0  0  0  0  0  0  0  0  0  0
   -5.5954   -3.3510   -1.9864 H   0  0  0  0  0  0  0  0  0  0  0  0
   -3.0424   -2.8131   -2.1606 N   0  0  0  0  0  0  0  0  0  0  0  0
   -1.6755   -2.3891   -2.0077 C   0  0  2  0  0  0  0  0  0  0  0  0
   -1.5782   -1.5673   -0.7292 C   0  0  0  0  0  0  0  0  0  0  0  0
   -2.5448   -1.0064   -0.2171 O   0  0  0  0  0  0  0  0  0  0  0  0
   -1.2087   -1.5823   -3.2094 C   0  0  0  0  0  0  0  0  0  0  0  0
   -3.6915   -2.1888   -2.6360 H   0  0  0  0  0  0  0  0  0  0  0  0
   -1.0721   -3.2977   -1.9053 H   0  0  0  0  0  0  0  0  0  0  0  0
   -1.8017   -0.6681   -3.3281 H   0  0  0  0  0  0  0  0  0  0  0  0
   -0.1601   -1.2849   -3.1045 H   0  0  0  0  0  0  0  0  0  0  0  0
   -1.3074   -2.1646   -4.1319 H   0  0  0  0  0  0  0  0  0  0  0  0
   -0.2835   -1.5112   -0.2725 N   0  0  0  0  0  0  0  0  0  0  0  0
    0.0769   -0.7658    0.9424 C   0  0  0  0  0  0  0  0  0  0  0  0
   -0.6003    0.5809    0.9290 C   0  0  0  0  0  0  0  0  0  0  0  0
   -1.7969    0.7379    1.1567 O   0  0  0  0  0  0  0  0  0  0  0  0
    0.4587   -2.0097   -0.7289 H   0  0  0  0  0  0  0  0  0  0  0  0
    1.1622   -0.6321    0.9743 H   0  0  0  0  0  0  0  0  0  0  0  0
   -0.2441   -1.3335    1.8207 H   0  0  0  0  0  0  0  0  0  0  0  0
    0.2951    1.6013    0.6267 N   0  0  0  0  0  0  0  0  0  0  0  0
   -0.0805    2.9881    0.5429 C   0  0  2  0  0  0  0  0  0  0  0  0
    0.7691    3.7664    1.5389 C   0  0  0  0  0  0  0  0  0  0  0  0
    1.3040    3.2456    2.5154 O   0  0  0  0  0  0  0  0  0  0  0  0
   -1.5623    3.1781    0.8272 C   0  0  0  0  0  0  0  0  0  0  0  0
    1.2684    1.3540    0.4555 H   0  0  0  0  0  0  0  0  0  0  0  0
    0.1542    3.3184   -0.4748 H   0  0  0  0  0  0  0  0  0  0  0  0
   -1.8165    2.8526    1.8426 H   0  0  0  0  0  0  0  0  0  0  0  0
   -1.8523    4.2300    0.7351 H   0  0  0  0  0  0  0  0  0  0  0  0
   -2.1712    2.5941    0.1287 H   0  0  0  0  0  0  0  0  0  0  0  0
    0.8241    5.1190    1.2329 N   0  0  0  0  0  0  0  0  0  0  0  0
    1.5575    6.0705    2.0347 C   0  0  0  0  0  0  0  0  0  0  0  0
    0.3660    5.4604    0.3931 H   0  0  0  0  0  0  0  0  0  0  0  0
    0.8867    6.5111    2.7869 H   0  0  0  0  0  0  0  0  0  0  0  0
    2.3898    5.5592    2.5404 H   0  0  0  0  0  0  0  0  0  0  0  0
    1.9550    6.8660    1.3873 H   0  0  0  0  0  0  0  0  0  0  0  0
  1  3  1  0  0  0  0
  1  7  1  0  0  0  0
  1  2  2  0  0  0  0
 18 19  1  0  0  0  0
 19 24  1  0  0  0  0
 19 20  2  0  0  0  0
 25 26  1  0  0  0  0
 26 34  1  0  0  0  0
 26 27  2  0  0  0  0
  8  9  1  0  0  0  0
  9 17  1  0  0  0  0
  9 10  2  0  0  0  0
 25 28  1  0  0  0  0
  8 11  1  0  0  0  0
 34 35  1  0  0  0  0
 17 18  1  0  0  0  0
 24 25  1  0  0  0  0
  7  8  1  0  0  0  0
  3  4  1  0  0  0  0
  3  5  1  0  0  0  0
  3  6  1  0  0  0  0
 28 31  1  0  0  0  0
 28 32  1  0  0  0  0
 28 33  1  0  0  0  0
 11 14  1  0  0  0  0
 11 15  1  0  0  0  0
 11 16  1  0  0  0  0
 35 37  1  0  0  0  0
 35 38  1  0  0  0  0
 35 39  1  0  0  0  0
 18 22  1  0  0  0  0
 18 23  1  0  0  0  0
 25 30  1  0  0  0  0
  8 13  1  0  0  0  0
 34 36  1  0  0  0  0
 17 21  1  0  0  0  0
  7 12  1  0  0  0  0
 24 29  1  0  0  0  0
M  END
$$$$

  -OEChem-05262214473D

 39 38  0     1  0  0  0  0  0999 V2000
   -3.5200   -4.0268   -1.6943 C   0  0  0  0  0  0  0  0  0  0  0  0
   -2.8702   -4.8827   -1.1054 O   0  0  0  0  0  0  0  0  0  0  0  0
   -4.9704   -4.2579   -1.9614 C   0  0  0  0  0  0  0  0  0  0  0  0
   -5.1456   -4.7573   -2.9278 H   0  0  0  0  0  0  0  0  0  0  0  0
   -5.4379   -4.9112   -1.2072 H   0  0  0  0  0  0  0  0  0  0  0  0
   -5.5954   -3.3510   -1.9864 H   0  0  0  0  0  0  0  0  0  0  0  0
   -3.0424   -2.8131   -2.1606 N   0  0  0  0  0  0  0  0  0  0  0  0
   -1.6755   -2.3891   -2.0077 C   0  0  2  0  0  0  0  0  0  0  0  0
   -1.5782   -1.5673   -0.7292 C   0  0  0  0  0  0  0  0  0  0  0  0
   -2.5448   -1.0064   -0.2171 O   0  0  0  0  0  0  0  0  0  0  0  0
   -1.2087   -1.5823   -3.2094 C   0  0  0  0  0  0  0  0  0  0  0  0
   -3.6915   -2.1888   -2.6360 H   0  0  0  0  0  0  0  0  0  0  0  0
   -1.0721   -3.2977   -1.9053 H   0  0  0  0  0  0  0  0  0  0  0  0
   -1.8017   -0.6681   -3.3281 H   0  0  0  0  0  0  0  0  0  0  0  0
   -0.1601   -1.2849   -3.1045 H   0  0  0  0  0  0  0  0  0  0  0  0
   -1.3074   -2.1646   -4.1319 H   0  0  0  0  0  0  0  0  0  0  0  0
   -0.2835   -1.5112   -0.2725 N   0  0  0  0  0  0  0  0  0  0  0  0
    0.0769   -0.7658    0.9424 C   0  0  0  0  0  0  0  0  0  0  0  0
   -0.6003    0.5809    0.9290 C   0  0  0  0  0  0  0  0  0  0  0  0
   -1.7135    0.7823    1.4072 O   0  0  0  0  0  0  0  0  0  0  0  0
    0.4587   -2.0097   -0.7289 H   0  0  0  0  0  0  0  0  0  0  0  0
    1.1622   -0.6321    0.9743 H   0  0  0  0  0  0  0  0  0  0  0  0
   -0.2441   -1.3335    1.8207 H   0  0  0  0  0  0  0  0  0  0  0  0
    0.1892    1.5449    0.3111 N   0  0  0  0  0  0  0  0  0  0  0  0
   -0.2113    2.9184    0.1554 C   0  0  2  0  0  0  0  0  0  0  0  0
    0.8367    3.7934    0.8304 C   0  0  0  0  0  0  0  0  0  0  0  0
    1.5889    3.3808    1.7107 O   0  0  0  0  0  0  0  0  0  0  0  0
   -1.5892    3.1638    0.7503 C   0  0  0  0  0  0  0  0  0  0  0  0
    1.0992    1.2639   -0.0503 H   0  0  0  0  0  0  0  0  0  0  0  0
   -0.2222    3.1247   -0.9204 H   0  0  0  0  0  0  0  0  0  0  0  0
   -1.5979    2.9624    1.8277 H   0  0  0  0  0  0  0  0  0  0  0  0
   -1.9046    4.2024    0.6058 H   0  0  0  0  0  0  0  0  0  0  0  0
   -2.3365    2.5125    0.2844 H   0  0  0  0  0  0  0  0  0  0  0  0
    0.8041    5.1003    0.3645 N   0  0  0  0  0  0  0  0  0  0  0  0
    1.6922    6.1265    0.8586 C   0  0  0  0  0  0  0  0  0  0  0  0
    0.1602    5.3492   -0.3806 H   0  0  0  0  0  0  0  0  0  0  0  0
    1.2087    6.6621    1.6889 H   0  0  0  0  0  0  0  0  0  0  0  0
    2.6247    5.6641    1.2144 H   0  0  0  0  0  0  0  0  0  0  0  0
    1.9201    6.8351    0.0487 H   0  0  0  0  0  0  0  0  0  0  0  0
  1  3  1  0  0  0  0
  1  7  1  0  0  0  0
  1  2  2  0  0  0  0
 18 19  1  0  0  0  0
 19 24  1  0  0  0  0
 19 20  2  0  0  0  0
 25 26  1  0  0  0  0
 26 34  1  0  0  0  0
 26 27  2  0  0  0  0
  8  9  1  0  0  0  0
  9 17  1  0  0  0  0
  9 10  2  0  0  0  0
 25 28  1  0  0  0  0
  8 11  1  0  0  0  0
 34 35  1  0  0  0  0
 17 18  1  0  0  0  0
 24 25  1  0  0  0  0
  7  8  1  0  0  0  0
  3  4  1  0  0  0  0
  3  5  1  0  0  0  0
  3  6  1  0  0  0  0
 28 31  1  0  0  0  0
 28 32  1  0  0  0  0
 28 33  1  0  0  0  0
 11 14  1  0  0  0  0
 11 15  1  0  0  0  0
 11 16  1  0  0  0  0
 35 37  1  0  0  0  0
 35 38  1  0  0  0  0
 35 39  1  0  0  0  0
 18 22  1  0  0  0  0
 18 23  1  0  0  0  0
 25 30  1  0  0  0  0
  8 13  1  0  0  0  0
 34 36  1  0  0  0  0
 17 21  1  0  0  0  0
  7 12  1  0  0  0  0
 24 29  1  0  0  0  0
M  END
$$$$

  -OEChem-05262214473D

 39 38  0     1  0  0  0  0  0999 V2000
   -3.5200   -4.0268   -1.6943 C   0  0  0  0  0  0  0  0  0  0  0  0
   -2.8702   -4.8827   -1.1054 O   0  0  0  0  0  0  0  0  0  0  0  0
   -4.9704   -4.2579   -1.9614 C   0  0  0  0  0  0  0  0  0  0  0  0
   -5.1456   -4.7573   -2.9278 H   0  0  0  0  0  0  0  0  0  0  0  0
   -5.4379   -4.9112   -1.2072 H   0  0  0  0  0  0  0  0  0  0  0  0
   -5.5954   -3.3510   -1.9864 H   0  0  0  0  0  0  0  0  0  0  0  0
   -3.0424   -2.8131   -2.1606 N   0  0  0  0  0  0  0  0  0  0  0  0
   -1.6755   -2.3891   -2.0077 C   0  0  2  0  0  0  0  0  0  0  0  0
   -1.5782   -1.5673   -0.7292 C   0  0  0  0  0  0  0  0  0  0  0  0
   -2.5448   -1.0064   -0.2171 O   0  0  0  0  0  0  0  0  0  0  0  0
   -1.2087   -1.5823   -3.2094 C   0  0  0  0  0  0  0  0  0  0  0  0
   -3.6915   -2.1888   -2.6360 H   0  0  0  0  0  0  0  0  0  0  0  0
   -1.0721   -3.2977   -1.9053 H   0  0  0  0  0  0  0  0  0  0  0  0
   -1.8017   -0.6681   -3.3281 H   0  0  0  0  0  0  0  0  0  0  0  0
   -0.1601   -1.2849   -3.1045 H   0  0  0  0  0  0  0  0  0  0  0  0
   -1.3074   -2.1646   -4.1319 H   0  0  0  0  0  0  0  0  0  0  0  0
   -0.2835   -1.5112   -0.2725 N   0  0  0  0  0  0  0  0  0  0  0  0
    0.0769   -0.7658    0.9424 C   0  0  0  0  0  0  0  0  0  0  0  0
   -0.6003    0.5809    0.9290 C   0  0  0  0  0  0  0  0  0  0  0  0
   -1.5748    0.8542    1.6247 O   0  0  0  0  0  0  0  0  0  0  0  0
    0.4587   -2.0097   -0.7289 H   0  0  0  0  0  0  0  0  0  0  0  0
    1.1622   -0.6321    0.9743 H   0  0  0  0  0  0  0  0  0  0  0  0
   -0.2441   -1.3335    1.8207 H   0  0  0  0  0  0  0  0  0  0  0  0
    0.0139    1.4540    0.0374 N   0  0  0  0  0  0  0  0  0  0  0  0
   -0.4274    2.8064   -0.1805 C   0  0  2  0  0  0  0  0  0  0  0  0
    0.7383    3.7369    0.1273 C   0  0  0  0  0  0  0  0  0  0  0  0
    1.6784    3.4172    0.8519 O   0  0  0  0  0  0  0  0  0  0  0  0
   -1.6330    3.1411    0.6839 C   0  0  0  0  0  0  0  0  0  0  0  0
    0.8187    1.1184   -0.4893 H   0  0  0  0  0  0  0  0  0  0  0  0
   -0.6893    2.8866   -1.2412 H   0  0  0  0  0  0  0  0  0  0  0  0
   -1.3899    3.0662    1.7501 H   0  0  0  0  0  0  0  0  0  0  0  0
   -1.9851    4.1609    0.4961 H   0  0  0  0  0  0  0  0  0  0  0  0
   -2.4604    2.4522    0.4825 H   0  0  0  0  0  0  0  0  0  0  0  0
    0.5839    4.9813   -0.4675 N   0  0  0  0  0  0  0  0  0  0  0  0
    1.5505    6.0436   -0.3151 C   0  0  0  0  0  0  0  0  0  0  0  0
   -0.2176    5.1524   -1.0675 H   0  0  0  0  0  0  0  0  0  0  0  0
    1.2661    6.6795    0.5362 H   0  0  0  0  0  0  0  0  0  0  0  0
    2.5452    5.6106   -0.1330 H   0  0  0  0  0  0  0  0  0  0  0  0
    1.5768    6.6497   -1.2326 H   0  0  0  0  0  0  0  0  0  0  0  0
  1  3  1  0  0  0  0
  1  7  1  0  0  0  0
  1  2  2  0  0  0  0
 18 19  1  0  0  0  0
 19 24  1  0  0  0  0
 19 20  2  0  0  0  0
 25 26  1  0  0  0  0
 26 34  1  0  0  0  0
 26 27  2  0  0  0  0
  8  9  1  0  0  0  0
  9 17  1  0  0  0  0
  9 10  2  0  0  0  0
 25 28  1  0  0  0  0
  8 11  1  0  0  0  0
 34 35  1  0  0  0  0
 17 18  1  0  0  0  0
 24 25  1  0  0  0  0
  7  8  1  0  0  0  0
  3  4  1  0  0  0  0
  3  5  1  0  0  0  0
  3  6  1  0  0  0  0
 28 31  1  0  0  0  0
 28 32  1  0  0  0  0
 28 33  1  0  0  0  0
 11 14  1  0  0  0  0
 11 15  1  0  0  0  0
 11 16  1  0  0  0  0
 35 37  1  0  0  0  0
 35 38  1  0  0  0  0
 35 39  1  0  0  0  0
 18 22  1  0  0  0  0
 18 23  1  0  0  0  0
 25 30  1  0  0  0  0
  8 13  1  0  0  0  0
 34 36  1  0  0  0  0
 17 21  1  0  0  0  0
  7 12  1  0  0  0  0
 24 29  1  0  0  0  0
M  END
$$$$

  -OEChem-05262214473D

 39 38  0     1  0  0  0  0  0999 V2000
   -3.5200   -4.0268   -1.6943 C   0  0  0  0  0  0  0  0  0  0  0  0
   -2.8702   -4.8827   -1.1054 O   0  0  0  0  0  0  0  0  0  0  0  0
   -4.9704   -4.2579   -1.9614 C   0  0  0  0  0  0  0  0  0  0  0  0
   -5.1456   -4.7573   -2.9278 H   0  0  0  0  0  0  0  0  0  0  0  0
   -5.4379   -4.9112   -1.2072 H   0  0  0  0  0  0  0  0  0  0  0  0
   -5.5954   -3.3510   -1.9864 H   0  0  0  0  0  0  0  0  0  0  0  0
   -3.0424   -2.8131   -2.1606 N   0  0  0  0  0  0  0  0  0  0  0  0
   -1.6755   -2.3891   -2.0077 C   0  0  2  0  0  0  0  0  0  0  0  0
   -1.5782   -1.5673   -0.7292 C   0  0  0  0  0  0  0  0  0  0  0  0
   -2.5448   -1.0064   -0.2171 O   0  0  0  0  0  0  0  0  0  0  0  0
   -1.2087   -1.5823   -3.2094 C   0  0  0  0  0  0  0  0  0  0  0  0
   -3.6915   -2.1888   -2.6360 H   0  0  0  0  0  0  0  0  0  0  0  0
   -1.0721   -3.2977   -1.9053 H   0  0  0  0  0  0  0  0  0  0  0  0
   -1.8017   -0.6681   -3.3281 H   0  0  0  0  0  0  0  0  0  0  0  0
   -0.1601   -1.2849   -3.1045 H   0  0  0  0  0  0  0  0  0  0  0  0
   -1.3074   -2.1646   -4.1319 H   0  0  0  0  0  0  0  0  0  0  0  0
   -0.2835   -1.5112   -0.2725 N   0  0  0  0  0  0  0  0  0  0  0  0
    0.0769   -0.7658    0.9424 C   0  0  0  0  0  0  0  0  0  0  0  0
   -0.6003    0.5809    0.9290 C   0  0  0  0  0  0  0  0  0  0  0  0
   -1.3905    0.9486    1.7943 O   0  0  0  0  0  0  0  0  0  0  0  0
    0.4587   -2.0097   -0.7289 H   0  0  0  0  0  0  0  0  0  0  0  0
    1.1622   -0.6321    0.9743 H   0  0  0  0  0  0  0  0  0  0  0  0
   -0.2441   -1.3335    1.8207 H   0  0  0  0  0  0  0  0  0  0  0  0
   -0.2190    1.3347   -0.1759 N   0  0  0  0  0  0  0  0  0  0  0  0
   -0.7141    2.6596   -0.4420 C   0  0  2  0  0  0  0  0  0  0  0  0
    0.4805    3.6008   -0.5225 C   0  0  0  0  0  0  0  0  0  0  0  0
    1.5664    3.3524   -0.0026 O   0  0  0  0  0  0  0  0  0  0  0  0
   -1.6907    3.1116    0.6325 C   0  0  0  0  0  0  0  0  0  0  0  0
    0.4458    0.9275   -0.8315 H   0  0  0  0  0  0  0  0  0  0  0  0
   -1.2151    2.6205   -1.4154 H   0  0  0  0  0  0  0  0  0  0  0  0
   -1.2067    3.1570    1.6150 H   0  0  0  0  0  0  0  0  0  0  0  0
   -2.0882    4.1082    0.4136 H   0  0  0  0  0  0  0  0  0  0  0  0
   -2.5344    2.4173    0.7094 H   0  0  0  0  0  0  0  0  0  0  0  0
    0.1786    4.7701   -1.2064 N   0  0  0  0  0  0  0  0  0  0  0  0
    1.1421    5.8273   -1.4063 C   0  0  0  0  0  0  0  0  0  0  0  0
   -0.7419    4.8832   -1.6206 H   0  0  0  0  0  0  0  0  0  0  0  0
    1.0552    6.5621   -0.5924 H   0  0  0  0  0  0  0  0  0  0  0  0
    2.1568    5.4026   -1.4099 H   0  0  0  0  0  0  0  0  0  0  0  0
    0.9485    6.3224   -2.3694 H   0  0  0  0  0  0  0  0  0  0  0  0
  1  3  1  0  0  0  0
  1  7  1  0  0  0  0
  1  2  2  0  0  0  0
 18 19  1  0  0  0  0
 19 24  1  0  0  0  0
 19 20  2  0  0  0  0
 25 26  1  0  0  0  0
 26 34  1  0  0  0  0
 26 27  2  0  0  0  0
  8  9  1  0  0  0  0
  9 17  1  0  0  0  0
  9 10  2  0  0  0  0
 25 28  1  0  0  0  0
  8 11  1  0  0  0  0
 34 35  1  0  0  0  0
 17 18  1  0  0  0  0
 24 25  1  0  0  0  0
  7  8  1  0  0  0  0
  3  4  1  0  0  0  0
  3  5  1  0  0  0  0
  3  6  1  0  0  0  0
 28 31  1  0  0  0  0
 28 32  1  0  0  0  0
 28 33  1  0  0  0  0
 11 14  1  0  0  0  0
 11 15  1  0  0  0  0
 11 16  1  0  0  0  0
 35 37  1  0  0  0  0
 35 38  1  0  0  0  0
 35 39  1  0  0  0  0
 18 22  1  0  0  0  0
 18 23  1  0  0  0  0
 25 30  1  0  0  0  0
  8 13  1  0  0  0  0
 34 36  1  0  0  0  0
 17 21  1  0  0  0  0
  7 12  1  0  0  0  0
 24 29  1  0  0  0  0
M  END
$$$$

  -OEChem-05262214473D

 39 38  0     1  0  0  0  0  0999 V2000
   -3.5200   -4.0268   -1.6943 C   0  0  0  0  0  0  0  0  0  0  0  0
   -2.8702   -4.8827   -1.1054 O   0  0  0  0  0  0  0  0  0  0  0  0
   -4.9704   -4.2579   -1.9614 C   0  0  0  0  0  0  0  0  0  0  0  0
   -5.1456   -4.7573   -2.9278 H   0  0  0  0  0  0  0  0  0  0  0  0
   -5.4379   -4.9112   -1.2072 H   0  0  0  0  0  0  0  0  0  0  0  0
   -5.5954   -3.3510   -1.9864 H   0  0  0  0  0  0  0  0  0  0  0  0
   -3.0424   -2.8131   -2.1606 N   0  0  0  0  0  0  0  0  0  0  0  0
   -1.6755   -2.3891   -2.0077 C   0  0  2  0  0  0  0  0  0  0  0  0
   -1.5782   -1.5673   -0.7292 C   0  0  0  0  0  0  0  0  0  0  0  0
   -2.5448   -1.0064   -0.2171 O   0  0  0  0  0  0  0  0  0  0  0  0
   -1.2087   -1.5823   -3.2094 C   0  0  0  0  0  0  0  0  0  0  0  0
   -3.6915   -2.1888   -2.6360 H   0  0  0  0  0  0  0  0  0  0  0  0
   -1.0721   -3.2977   -1.9053 H   0  0  0  0  0  0  0  0  0  0  0  0
   -1.8017   -0.6681   -3.3281 H   0  0  0  0  0  0  0  0  0  0  0  0
   -0.1601   -1.2849   -3.1045 H   0  0  0  0  0  0  0  0  0  0  0  0
   -1.3074   -2.1646   -4.1319 H   0  0  0  0  0  0  0  0  0  0  0  0
   -0.2835   -1.5112   -0.2725 N   0  0  0  0  0  0  0  0  0  0  0  0
    0.0769   -0.7658    0.9424 C   0  0  0  0  0  0  0  0  0  0  0  0
   -0.6003    0.5809    0.9290 C   0  0  0  0  0  0  0  0  0  0  0  0
   -1.1730    1.0591    1.9046 O   0  0  0  0  0  0  0  0  0  0  0  0
    0.4587   -2.0097   -0.7289 H   0  0  0  0  0  0  0  0  0  0  0  0
    1.1622   -0.6321    0.9743 H   0  0  0  0  0  0  0  0  0  0  0  0
   -0.2441   -1.3335    1.8207 H   0  0  0  0  0  0  0  0  0  0  0  0
   -0.4936    1.1953   -0.3142 N   0  0  0  0  0  0  0  0  0  0  0  0
   -1.0519    2.4881   -0.6113 C   0  0  2  0  0  0  0  0  0  0  0  0
    0.0810    3.3944   -1.0748 C   0  0  0  0  0  0  0  0  0  0  0  0
    1.2604    3.1906   -0.7945 O   0  0  0  0  0  0  0  0  0  0  0  0
   -1.7584    3.0772    0.5997 C   0  0  0  0  0  0  0  0  0  0  0  0
    0.0061    0.7042   -1.0536 H   0  0  0  0  0  0  0  0  0  0  0  0
   -1.7640    2.3443   -1.4312 H   0  0  0  0  0  0  0  0  0  0  0  0
   -1.0608    3.2285    1.4315 H   0  0  0  0  0  0  0  0  0  0  0  0
   -2.2071    4.0479    0.3640 H   0  0  0  0  0  0  0  0  0  0  0  0
   -2.5535    2.4101    0.9498 H   0  0  0  0  0  0  0  0  0  0  0  0
   -0.3842    4.4811   -1.8018 N   0  0  0  0  0  0  0  0  0  0  0  0
    0.4948    5.4925   -2.3408 C   0  0  0  0  0  0  0  0  0  0  0  0
   -1.3768    4.5601   -2.0024 H   0  0  0  0  0  0  0  0  0  0  0  0
    0.5902    6.3180   -1.6202 H   0  0  0  0  0  0  0  0  0  0  0  0
    1.4859    5.0540   -2.5292 H   0  0  0  0  0  0  0  0  0  0  0  0
    0.0780    5.8755   -3.2840 H   0  0  0  0  0  0  0  0  0  0  0  0
  1  3  1  0  0  0  0
  1  7  1  0  0  0  0
  1  2  2  0  0  0  0
 18 19  1  0  0  0  0
 19 24  1  0  0  0  0
 19 20  2  0  0  0  0
 25 26  1  0  0  0  0
 26 34  1  0  0  0  0
 26 27  2  0  0  0  0
  8  9  1  0  0  0  0
  9 17  1  0  0  0  0
  9 10  2  0  0  0  0
 25 28  1  0  0  0  0
  8 11  1  0  0  0  0
 34 35  1  0  0  0  0
 17 18  1  0  0  0  0
 24 25  1  0  0  0  0
  7  8  1  0  0  0  0
  3  4  1  0  0  0  0
  3  5  1  0  0  0  0
  3  6  1  0  0  0  0
 28 31  1  0  0  0  0
 28 32  1  0  0  0  0
 28 33  1  0  0  0  0
 11 14  1  0  0  0  0
 11 15  1  0  0  0  0
 11 16  1  0  0  0  0
 35 37  1  0  0  0  0
 35 38  1  0  0  0  0
 35 39  1  0  0  0  0
 18 22  1  0  0  0  0
 18 23  1  0  0  0  0
 25 30  1  0  0  0  0
  8 13  1  0  0  0  0
 34 36  1  0  0  0  0
 17 21  1  0  0  0  0
  7 12  1  0  0  0  0
 24 29  1  0  0  0  0
M  END
$$$$

  -OEChem-05262214473D

 39 38  0     1  0  0  0  0  0999 V2000
   -3.5200   -4.0268   -1.6943 C   0  0  0  0  0  0  0  0  0  0  0  0
   -2.8702   -4.8827   -1.1054 O   0  0  0  0  0  0  0  0  0  0  0  0
   -4.9704   -4.2579   -1.9614 C   0  0  0  0  0  0  0  0  0  0  0  0
   -5.1456   -4.7573   -2.9278 H   0  0  0  0  0  0  0  0  0  0  0  0
   -5.4379   -4.9112   -1.2072 H   0  0  0  0  0  0  0  0  0  0  0  0
   -5.5954   -3.3510   -1.9864 H   0  0  0  0  0  0  0  0  0  0  0  0
   -3.0424   -2.8131   -2.1606 N   0  0  0  0  0  0  0  0  0  0  0  0
   -1.6755   -2.3891   -2.0077 C   0  0  2  0  0  0  0  0  0  0  0  0
   -1.5782   -1.5673   -0.7292 C   0  0  0  0  0  0  0  0  0  0  0  0
   -2.5448   -1.0064   -0.2171 O   0  0  0  0  0  0  0  0  0  0  0  0
   -1.2087   -1.5823   -3.2094 C   0  0  0  0  0  0  0  0  0  0  0  0
   -3.6915   -2.1888   -2.6360 H   0  0  0  0  0  0  0  0  0  0  0  0
   -1.0721   -3.2977   -1.9053 H   0  0  0  0  0  0  0  0  0  0  0  0
   -1.8017   -0.6681   -3.3281 H   0  0  0  0  0  0  0  0  0  0  0  0
   -0.1601   -1.2849   -3.1045 H   0  0  0  0  0  0  0  0  0  0  0  0
   -1.3074   -2.1646   -4.1319 H   0  0  0  0  0  0  0  0  0  0  0  0
   -0.2835   -1.5112   -0.2725 N   0  0  0  0  0  0  0  0  0  0  0  0
    0.0769   -0.7658    0.9424 C   0  0  0  0  0  0  0  0  0  0  0  0
   -0.6003    0.5809    0.9290 C   0  0  0  0  0  0  0  0  0  0  0  0
   -0.9371    1.1781    1.9479 O   0  0  0  0  0  0  0  0  0  0  0  0
    0.4587   -2.0097   -0.7289 H   0  0  0  0  0  0  0  0  0  0  0  0
    1.1622   -0.6321    0.9743 H   0  0  0  0  0  0  0  0  0  0  0  0
   -0.2441   -1.3335    1.8207 H   0  0  0  0  0  0  0  0  0  0  0  0
   -0.7911    1.0451   -0.3681 N   0  0  0  0  0  0  0  0  0  0  0  0
   -1.4176    2.3036   -0.6767 C   0  0  2  0  0  0  0  0  0  0  0  0
   -0.4331    3.1317   -1.4918 C   0  0  0  0  0  0  0  0  0  0  0  0
    0.7814    2.9430   -1.4699 O   0  0  0  0  0  0  0  0  0  0  0  0
   -1.8315    3.0404    0.5876 C   0  0  0  0  0  0  0  0  0  0  0  0
   -0.4704    0.4637   -1.1406 H   0  0  0  0  0  0  0  0  0  0  0  0
   -2.2984    2.0770   -1.2873 H   0  0  0  0  0  0  0  0  0  0  0  0
   -0.9621    3.2759    1.2123 H   0  0  0  0  0  0  0  0  0  0  0  0
   -2.3335    3.9842    0.3505 H   0  0  0  0  0  0  0  0  0  0  0  0
   -2.5163    2.4311    1.1873 H   0  0  0  0  0  0  0  0  0  0  0  0
   -1.0662    4.1341   -2.2132 N   0  0  0  0  0  0  0  0  0  0  0  0
   -0.3473    5.0619   -3.0549 C   0  0  0  0  0  0  0  0  0  0  0  0
   -2.0792    4.2051   -2.1869 H   0  0  0  0  0  0  0  0  0  0  0  0
   -0.0972    5.9638   -2.4771 H   0  0  0  0  0  0  0  0  0  0  0  0
    0.5782    4.5888   -3.4148 H   0  0  0  0  0  0  0  0  0  0  0  0
   -0.9753    5.3395   -3.9142 H   0  0  0  0  0  0  0  0  0  0  0  0
  1  3  1  0  0  0  0
  1  7  1  0  0  0  0
  1  2  2  0  0  0  0
 18 19  1  0  0  0  0
 19 24  1  0  0  0  0
 19 20  2  0  0  0  0
 25 26  1  0  0  0  0
 26 34  1  0  0  0  0
 26 27  2  0  0  0  0
  8  9  1  0  0  0  0
  9 17  1  0  0  0  0
  9 10  2  0  0  0  0
 25 28  1  0  0  0  0
  8 11  1  0  0  0  0
 34 35  1  0  0  0  0
 17 18  1  0  0  0  0
 24 25  1  0  0  0  0
  7  8  1  0  0  0  0
  3  4  1  0  0  0  0
  3  5  1  0  0  0  0
  3  6  1  0  0  0  0
 28 31  1  0  0  0  0
 28 32  1  0  0  0  0
 28 33  1  0  0  0  0
 11 14  1  0  0  0  0
 11 15  1  0  0  0  0
 11 16  1  0  0  0  0
 35 37  1  0  0  0  0
 35 38  1  0  0  0  0
 35 39  1  0  0  0  0
 18 22  1  0  0  0  0
 18 23  1  0  0  0  0
 25 30  1  0  0  0  0
  8 13  1  0  0  0  0
 34 36  1  0  0  0  0
 17 21  1  0  0  0  0
  7 12  1  0  0  0  0
 24 29  1  0  0  0  0
M  END
$$$$

  -OEChem-05262214473D

 39 38  0     1  0  0  0  0  0999 V2000
   -3.5200   -4.0268   -1.6943 C   0  0  0  0  0  0  0  0  0  0  0  0
   -2.8702   -4.8827   -1.1054 O   0  0  0  0  0  0  0  0  0  0  0  0
   -4.9704   -4.2579   -1.9614 C   0  0  0  0  0  0  0  0  0  0  0  0
   -5.1456   -4.7573   -2.9278 H   0  0  0  0  0  0  0  0  0  0  0  0
   -5.4379   -4.9112   -1.2072 H   0  0  0  0  0  0  0  0  0  0  0  0
   -5.5954   -3.3510   -1.9864 H   0  0  0  0  0  0  0  0  0  0  0  0
   -3.0424   -2.8131   -2.1606 N   0  0  0  0  0  0  0  0  0  0  0  0
   -1.6755   -2.3891   -2.0077 C   0  0  2  0  0  0  0  0  0  0  0  0
   -1.5782   -1.5673   -0.7292 C   0  0  0  0  0  0  0  0  0  0  0  0
   -2.5448   -1.0064   -0.2171 O   0  0  0  0  0  0  0  0  0  0  0  0
   -1.2087   -1.5823   -3.2094 C   0  0  0  0  0  0  0  0  0  0  0  0
   -3.6915   -2.1888   -2.6360 H   0  0  0  0  0  0  0  0  0  0  0  0
   -1.0721   -3.2977   -1.9053 H   0  0  0  0  0  0  0  0  0  0  0  0
   -1.8017   -0.6681   -3.3281 H   0  0  0  0  0  0  0  0  0  0  0  0
   -0.1601   -1.2849   -3.1045 H   0  0  0  0  0  0  0  0  0  0  0  0
   -1.3074   -2.1646   -4.1319 H   0  0  0  0  0  0  0  0  0  0  0  0
   -0.2835   -1.5112   -0.2725 N   0  0  0  0  0  0  0  0  0  0  0  0
    0.0769   -0.7658    0.9424 C   0  0  0  0  0  0  0  0  0  0  0  0
   -0.6003    0.5809    0.9290 C   0  0  0  0  0  0  0  0  0  0  0  0
   -0.6990    1.2976    1.9215 O   0  0  0  0  0  0  0  0  0  0  0  0
    0.4587   -2.0097   -0.7289 H   0  0  0  0  0  0  0  0  0  0  0  0
    1.1622   -0.6321    0.9743 H   0  0  0  0  0  0  0  0  0  0  0  0
   -0.2441   -1.3335    1.8207 H   0  0  0  0  0  0  0  0  0  0  0  0
   -1.0913    0.8945   -0.3339 N   0  0  0  0  0  0  0  0  0  0  0  0
   -1.7865    2.1185   -0.6339 C   0  0  2  0  0  0  0  0  0  0  0  0
   -1.0267    2.8307   -1.7452 C   0  0  0  0  0  0  0  0  0  0  0  0
    0.1620    2.6264   -1.9828 O   0  0  0  0  0  0  0  0  0  0  0  0
   -1.9049    3.0035    0.5971 C   0  0  0  0  0  0  0  0  0  0  0  0
   -0.9515    0.2223   -1.0864 H   0  0  0  0  0  0  0  0  0  0  0  0
   -2.7820    1.8368   -0.9938 H   0  0  0  0  0  0  0  0  0  0  0  0
   -0.9174    3.2960    0.9721 H   0  0  0  0  0  0  0  0  0  0  0  0
   -2.4589    3.9214    0.3741 H   0  0  0  0  0  0  0  0  0  0  0  0
   -2.4255    2.4790    1.4056 H   0  0  0  0  0  0  0  0  0  0  0  0
   -1.8209    3.7526   -2.4126 N   0  0  0  0  0  0  0  0  0  0  0  0
   -1.3268    4.5649   -3.4998 C   0  0  0  0  0  0  0  0  0  0  0  0
   -2.8010    3.8424   -2.1613 H   0  0  0  0  0  0  0  0  0  0  0  0
   -0.9601    5.5237   -3.1046 H   0  0  0  0  0  0  0  0  0  0  0  0
   -0.5043    4.0385   -4.0062 H   0  0  0  0  0  0  0  0  0  0  0  0
   -2.1397    4.7510   -4.2171 H   0  0  0  0  0  0  0  0  0  0  0  0
  1  3  1  0  0  0  0
  1  7  1  0  0  0  0
  1  2  2  0  0  0  0
 18 19  1  0  0  0  0
 19 24  1  0  0  0  0
 19 20  2  0  0  0  0
 25 26  1  0  0  0  0
 26 34  1  0  0  0  0
 26 27  2  0  0  0  0
  8  9  1  0  0  0  0
  9 17  1  0  0  0  0
  9 10  2  0  0  0  0
 25 28  1  0  0  0  0
  8 11  1  0  0  0  0
 34 35  1  0  0  0  0
 17 18  1  0  0  0  0
 24 25  1  0  0  0  0
  7  8  1  0  0  0  0
  3  4  1  0  0  0  0
  3  5  1  0  0  0  0
  3  6  1  0  0  0  0
 28 31  1  0  0  0  0
 28 32  1  0  0  0  0
 28 33  1  0  0  0  0
 11 14  1  0  0  0  0
 11 15  1  0  0  0  0
 11 16  1  0  0  0  0
 35 37  1  0  0  0  0
 35 38  1  0  0  0  0
 35 39  1  0  0  0  0
 18 22  1  0  0  0  0
 18 23  1  0  0  0  0
 25 30  1  0  0  0  0
  8 13  1  0  0  0  0
 34 36  1  0  0  0  0
 17 21  1  0  0  0  0
  7 12  1  0  0  0  0
 24 29  1  0  0  0  0
M  END
$$$$

  -OEChem-05262214473D

 39 38  0     1  0  0  0  0  0999 V2000
   -3.5200   -4.0268   -1.6943 C   0  0  0  0  0  0  0  0  0  0  0  0
   -2.8702   -4.8827   -1.1054 O   0  0  0  0  0  0  0  0  0  0  0  0
   -4.9704   -4.2579   -1.9614 C   0  0  0  0  0  0  0  0  0  0  0  0
   -5.1456   -4.7573   -2.9278 H   0  0  0  0  0  0  0  0  0  0  0  0
   -5.4379   -4.9112   -1.2072 H   0  0  0  0  0  0  0  0  0  0  0  0
   -5.5954   -3.3510   -1.9864 H   0  0  0  0  0  0  0  0  0  0  0  0
   -3.0424   -2.8131   -2.1606 N   0  0  0  0  0  0  0  0  0  0  0  0
   -1.6755   -2.3891   -2.0077 C   0  0  2  0  0  0  0  0  0  0  0  0
   -1.5782   -1.5673   -0.7292 C   0  0  0  0  0  0  0  0  0  0  0  0
   -2.5448   -1.0064   -0.2171 O   0  0  0  0  0  0  0  0  0  0  0  0
   -1.2087   -1.5823   -3.2094 C   0  0  0  0  0  0  0  0  0  0  0  0
   -3.6915   -2.1888   -2.6360 H   0  0  0  0  0  0  0  0  0  0  0  0
   -1.0721   -3.2977   -1.9053 H   0  0  0  0  0  0  0  0  0  0  0  0
   -1.8017   -0.6681   -3.3281 H   0  0  0  0  0  0  0  0  0  0  0  0
   -0.1601   -1.2849   -3.1045 H   0  0  0  0  0  0  0  0  0  0  0  0
   -1.3074   -2.1646   -4.1319 H   0  0  0  0  0  0  0  0  0  0  0  0
   -0.2835   -1.5112   -0.2725 N   0  0  0  0  0  0  0  0  0  0  0  0
    0.0769   -0.7658    0.9424 C   0  0  0  0  0  0  0  0  0  0  0  0
   -0.6003    0.5809    0.9290 C   0  0  0  0  0  0  0  0  0  0  0  0
   -0.4749    1.4094    1.8269 O   0  0  0  0  0  0  0  0  0  0  0  0
    0.4587   -2.0097   -0.7289 H   0  0  0  0  0  0  0  0  0  0  0  0
    1.1622   -0.6321    0.9743 H   0  0  0  0  0  0  0  0  0  0  0  0
   -0.2441   -1.3335    1.8207 H   0  0  0  0  0  0  0  0  0  0  0  0
   -1.3737    0.7537   -0.2140 N   0  0  0  0  0  0  0  0  0  0  0  0
   -2.1333    1.9456   -0.4857 C   0  0  2  0  0  0  0  0  0  0  0  0
   -1.6594    2.5118   -1.8178 C   0  0  0  0  0  0  0  0  0  0  0  0
   -0.5557    2.2624   -2.2981 O   0  0  0  0  0  0  0  0  0  0  0  0
   -1.9738    2.9692    0.6276 C   0  0  0  0  0  0  0  0  0  0  0  0
   -1.4041   -0.0034   -0.8948 H   0  0  0  0  0  0  0  0  0  0  0  0
   -3.1818    1.6399   -0.5704 H   0  0  0  0  0  0  0  0  0  0  0  0
   -0.9296    3.2874    0.7275 H   0  0  0  0  0  0  0  0  0  0  0  0
   -2.5747    3.8637    0.4332 H   0  0  0  0  0  0  0  0  0  0  0  0
   -2.2871    2.5504    1.5899 H   0  0  0  0  0  0  0  0  0  0  0  0
   -2.5969    3.3627   -2.3863 N   0  0  0  0  0  0  0  0  0  0  0  0
   -2.3770    4.0353   -3.6453 C   0  0  0  0  0  0  0  0  0  0  0  0
   -3.4932    3.4967   -1.9276 H   0  0  0  0  0  0  0  0  0  0  0  0
   -1.9397    5.0275   -3.4601 H   0  0  0  0  0  0  0  0  0  0  0  0
   -1.6881    3.4407   -4.2632 H   0  0  0  0  0  0  0  0  0  0  0  0
   -3.3359    4.1500   -4.1721 H   0  0  0  0  0  0  0  0  0  0  0  0
  1  3  1  0  0  0  0
  1  7  1  0  0  0  0
  1  2  2  0  0  0  0
 18 19  1  0  0  0  0
 19 24  1  0  0  0  0
 19 20  2  0  0  0  0
 25 26  1  0  0  0  0
 26 34  1  0  0  0  0
 26 27  2  0  0  0  0
  8  9  1  0  0  0  0
  9 17  1  0  0  0  0
  9 10  2  0  0  0  0
 25 28  1  0  0  0  0
  8 11  1  0  0  0  0
 34 35  1  0  0  0  0
 17 18  1  0  0  0  0
 24 25  1  0  0  0  0
  7  8  1  0  0  0  0
  3  4  1  0  0  0  0
  3  5  1  0  0  0  0
  3  6  1  0  0  0  0
 28 31  1  0  0  0  0
 28 32  1  0  0  0  0
 28 33  1  0  0  0  0
 11 14  1  0  0  0  0
 11 15  1  0  0  0  0
 11 16  1  0  0  0  0
 35 37  1  0  0  0  0
 35 38  1  0  0  0  0
 35 39  1  0  0  0  0
 18 22  1  0  0  0  0
 18 23  1  0  0  0  0
 25 30  1  0  0  0  0
  8 13  1  0  0  0  0
 34 36  1  0  0  0  0
 17 21  1  0  0  0  0
  7 12  1  0  0  0  0
 24 29  1  0  0  0  0
M  END
$$$$

  -OEChem-05262214473D

 39 38  0     1  0  0  0  0  0999 V2000
   -3.5200   -4.0268   -1.6943 C   0  0  0  0  0  0  0  0  0  0  0  0
   -2.8702   -4.8827   -1.1054 O   0  0  0  0  0  0  0  0  0  0  0  0
   -4.9704   -4.2579   -1.9614 C   0  0  0  0  0  0  0  0  0  0  0  0
   -5.1456   -4.7573   -2.9278 H   0  0  0  0  0  0  0  0  0  0  0  0
   -5.4379   -4.9112   -1.2072 H   0  0  0  0  0  0  0  0  0  0  0  0
   -5.5954   -3.3510   -1.9864 H   0  0  0  0  0  0  0  0  0  0  0  0
   -3.0424   -2.8131   -2.1606 N   0  0  0  0  0  0  0  0  0  0  0  0
   -1.6755   -2.3891   -2.0077 C   0  0  2  0  0  0  0  0  0  0  0  0
   -1.5782   -1.5673   -0.7292 C   0  0  0  0  0  0  0  0  0  0  0  0
   -2.5448   -1.0064   -0.2171 O   0  0  0  0  0  0  0  0  0  0  0  0
   -1.2087   -1.5823   -3.2094 C   0  0  0  0  0  0  0  0  0  0  0  0
   -3.6915   -2.1888   -2.6360 H   0  0  0  0  0  0  0  0  0  0  0  0
   -1.0721   -3.2977   -1.9053 H   0  0  0  0  0  0  0  0  0  0  0  0
   -1.8017   -0.6681   -3.3281 H   0  0  0  0  0  0  0  0  0  0  0  0
   -0.1601   -1.2849   -3.1045 H   0  0  0  0  0  0  0  0  0  0  0  0
   -1.3074   -2.1646   -4.1319 H   0  0  0  0  0  0  0  0  0  0  0  0
   -0.2835   -1.5112   -0.2725 N   0  0  0  0  0  0  0  0  0  0  0  0
    0.0769   -0.7658    0.9424 C   0  0  0  0  0  0  0  0  0  0  0  0
   -0.6003    0.5809    0.9290 C   0  0  0  0  0  0  0  0  0  0  0  0
   -0.2800    1.5058    1.6708 O   0  0  0  0  0  0  0  0  0  0  0  0
    0.4587   -2.0097   -0.7289 H   0  0  0  0  0  0  0  0  0  0  0  0
    1.1622   -0.6321    0.9743 H   0  0  0  0  0  0  0  0  0  0  0  0
   -0.2441   -1.3335    1.8207 H   0  0  0  0  0  0  0  0  0  0  0  0
   -1.6191    0.6323   -0.0165 N   0  0  0  0  0  0  0  0  0  0  0  0
   -2.4344    1.7966   -0.2423 C   0  0  2  0  0  0  0  0  0  0  0  0
   -2.2880    2.1968   -1.7045 C   0  0  0  0  0  0  0  0  0  0  0  0
   -1.3226    1.8757   -2.3944 O   0  0  0  0  0  0  0  0  0  0  0  0
   -2.0333    2.9398    0.6769 C   0  0  0  0  0  0  0  0  0  0  0  0
   -1.7976   -0.1981   -0.5788 H   0  0  0  0  0  0  0  0  0  0  0  0
   -3.4705    1.5000   -0.0462 H   0  0  0  0  0  0  0  0  0  0  0  0
   -0.9981    3.2507    0.4951 H   0  0  0  0  0  0  0  0  0  0  0  0
   -2.6730    3.8152    0.5237 H   0  0  0  0  0  0  0  0  0  0  0  0
   -2.1107    2.6405    1.7277 H   0  0  0  0  0  0  0  0  0  0  0  0
   -3.3412    2.9909   -2.1362 N   0  0  0  0  0  0  0  0  0  0  0  0
   -3.4263    3.5094   -3.4815 C   0  0  0  0  0  0  0  0  0  0  0  0
   -4.1086    3.1915   -1.5016 H   0  0  0  0  0  0  0  0  0  0  0  0
   -2.9692    4.5092   -3.5192 H   0  0  0  0  0  0  0  0  0  0  0  0
   -2.8922    2.8361   -4.1682 H   0  0  0  0  0  0  0  0  0  0  0  0
   -4.4822    3.5774   -3.7821 H   0  0  0  0  0  0  0  0  0  0  0  0
  1  3  1  0  0  0  0
  1  7  1  0  0  0  0
  1  2  2  0  0  0  0
 18 19  1  0  0  0  0
 19 24  1  0  0  0  0
 19 20  2  0  0  0  0
 25 26  1  0  0  0  0
 26 34  1  0  0  0  0
 26 27  2  0  0  0  0
  8  9  1  0  0  0  0
  9 17  1  0  0  0  0
  9 10  2  0  0  0  0
 25 28  1  0  0  0  0
  8 11  1  0  0  0  0
 34 35  1  0  0  0  0
 17 18  1  0  0  0  0
 24 25  1  0  0  0  0
  7  8  1  0  0  0  0
  3  4  1  0  0  0  0
  3  5  1  0  0  0  0
  3  6  1  0  0  0  0
 28 31  1  0  0  0  0
 28 32  1  0  0  0  0
 28 33  1  0  0  0  0
 11 14  1  0  0  0  0
 11 15  1  0  0  0  0
 11 16  1  0  0  0  0
 35 37  1  0  0  0  0
 35 38  1  0  0  0  0
 35 39  1  0  0  0  0
 18 22  1  0  0  0  0
 18 23  1  0  0  0  0
 25 30  1  0  0  0  0
  8 13  1  0  0  0  0
 34 36  1  0  0  0  0
 17 21  1  0  0  0  0
  7 12  1  0  0  0  0
 24 29  1  0  0  0  0
M  END
$$$$

  -OEChem-05262214473D

 39 38  0     1  0  0  0  0  0999 V2000
   -3.5200   -4.0268   -1.6943 C   0  0  0  0  0  0  0  0  0  0  0  0
   -2.8702   -4.8827   -1.1054 O   0  0  0  0  0  0  0  0  0  0  0  0
   -4.9704   -4.2579   -1.9614 C   0  0  0  0  0  0  0  0  0  0  0  0
   -5.1456   -4.7573   -2.9278 H   0  0  0  0  0  0  0  0  0  0  0  0
   -5.4379   -4.9112   -1.2072 H   0  0  0  0  0  0  0  0  0  0  0  0
   -5.5954   -3.3510   -1.9864 H   0  0  0  0  0  0  0  0  0  0  0  0
   -3.0424   -2.8131   -2.1606 N   0  0  0  0  0  0  0  0  0  0  0  0
   -1.6755   -2.3891   -2.0077 C   0  0  2  0  0  0  0  0  0  0  0  0
   -1.5782   -1.5673   -0.7292 C   0  0  0  0  0  0  0  0  0  0  0  0
   -2.5448   -1.0064   -0.2171 O   0  0  0  0  0  0  0  0  0  0  0  0
   -1.2087   -1.5823   -3.2094 C   0  0  0  0  0  0  0  0  0  0  0  0
   -3.6915   -2.1888   -2.6360 H   0  0  0  0  0  0  0  0  0  0  0  0
   -1.0721   -3.2977   -1.9053 H   0  0  0  0  0  0  0  0  0  0  0  0
   -1.8017   -0.6681   -3.3281 H   0  0  0  0  0  0  0  0  0  0  0  0
   -0.1601   -1.2849   -3.1045 H   0  0  0  0  0  0  0  0  0  0  0  0
   -1.3074   -2.1646   -4.1319 H   0  0  0  0  0  0  0  0  0  0  0  0
   -0.2835   -1.5112   -0.2725 N   0  0  0  0  0  0  0  0  0  0  0  0
    0.0769   -0.7658    0.9424 C   0  0  0  0  0  0  0  0  0  0  0  0
   -0.6003    0.5809    0.9290 C   0  0  0  0  0  0  0  0  0  0  0  0
   -0.1276    1.5804    1.4637 O   0  0  0  0  0  0  0  0  0  0  0  0
    0.4587   -2.0097   -0.7289 H   0  0  0  0  0  0  0  0  0  0  0  0
    1.1622   -0.6321    0.9743 H   0  0  0  0  0  0  0  0  0  0  0  0
   -0.2441   -1.3335    1.8207 H   0  0  0  0  0  0  0  0  0  0  0  0
   -1.8107    0.5386    0.2452 N   0  0  0  0  0  0  0  0  0  0  0  0
   -2.6693    1.6817    0.0797 C   0  0  2  0  0  0  0  0  0  0  0  0
   -2.8698    1.9072   -1.4131 C   0  0  0  0  0  0  0  0  0  0  0  0
   -2.0866    1.4929   -2.2652 O   0  0  0  0  0  0  0  0  0  0  0  0
   -2.0795    2.9172    0.7417 C   0  0  0  0  0  0  0  0  0  0  0  0
   -2.1050   -0.3485   -0.1600 H   0  0  0  0  0  0  0  0  0  0  0  0
   -3.6286    1.4264    0.5431 H   0  0  0  0  0  0  0  0  0  0  0  0
   -1.1180    3.1884    0.2906 H   0  0  0  0  0  0  0  0  0  0  0  0
   -2.7472    3.7791    0.6396 H   0  0  0  0  0  0  0  0  0  0  0  0
   -1.9083    2.7431    1.8095 H   0  0  0  0  0  0  0  0  0  0  0  0
   -4.0032    2.6625   -1.6792 N   0  0  0  0  0  0  0  0  0  0  0  0
   -4.4031    3.0228   -3.0195 C   0  0  0  0  0  0  0  0  0  0  0  0
   -4.6051    2.9477   -0.9123 H   0  0  0  0  0  0  0  0  0  0  0  0
   -3.9786    4.0041   -3.2781 H   0  0  0  0  0  0  0  0  0  0  0  0
   -4.0348    2.2660   -3.7278 H   0  0  0  0  0  0  0  0  0  0  0  0
   -5.5006    3.0724   -3.0737 H   0  0  0  0  0  0  0  0  0  0  0  0
  1  3  1  0  0  0  0
  1  7  1  0  0  0  0
  1  2  2  0  0  0  0
 18 19  1  0  0  0  0
 19 24  1  0  0  0  0
 19 20  2  0  0  0  0
 25 26  1  0  0  0  0
 26 34  1  0  0  0  0
 26 27  2  0  0  0  0
  8  9  1  0  0  0  0
  9 17  1  0  0  0  0
  9 10  2  0  0  0  0
 25 28  1  0  0  0  0
  8 11  1  0  0  0  0
 34 35  1  0  0  0  0
 17 18  1  0  0  0  0
 24 25  1  0  0  0  0
  7  8  1  0  0  0  0
  3  4  1  0  0  0  0
  3  5  1  0  0  0  0
  3  6  1  0  0  0  0
 28 31  1  0  0  0  0
 28 32  1  0  0  0  0
 28 33  1  0  0  0  0
 11 14  1  0  0  0  0
 11 15  1  0  0  0  0
 11 16  1  0  0  0  0
 35 37  1  0  0  0  0
 35 38  1  0  0  0  0
 35 39  1  0  0  0  0
 18 22  1  0  0  0  0
 18 23  1  0  0  0  0
 25 30  1  0  0  0  0
  8 13  1  0  0  0  0
 34 36  1  0  0  0  0
 17 21  1  0  0  0  0
  7 12  1  0  0  0  0
 24 29  1  0  0  0  0
M  END
$$$$

  -OEChem-05262214473D

 39 38  0     1  0  0  0  0  0999 V2000
   -3.5200   -4.0268   -1.6943 C   0  0  0  0  0  0  0  0  0  0  0  0
   -2.8702   -4.8827   -1.1054 O   0  0  0  0  0  0  0  0  0  0  0  0
   -4.9704   -4.2579   -1.9614 C   0  0  0  0  0  0  0  0  0  0  0  0
   -5.1456   -4.7573   -2.9278 H   0  0  0  0  0  0  0  0  0  0  0  0
   -5.4379   -4.9112   -1.2072 H   0  0  0  0  0  0  0  0  0  0  0  0
   -5.5954   -3.3510   -1.9864 H   0  0  0  0  0  0  0  0  0  0  0  0
   -3.0424   -2.8131   -2.1606 N   0  0  0  0  0  0  0  0  0  0  0  0
   -1.6755   -2.3891   -2.0077 C   0  0  2  0  0  0  0  0  0  0  0  0
   -1.5782   -1.5673   -0.7292 C   0  0  0  0  0  0  0  0  0  0  0  0
   -2.5448   -1.0064   -0.2171 O   0  0  0  0  0  0  0  0  0  0  0  0
   -1.2087   -1.5823   -3.2094 C   0  0  0  0  0  0  0  0  0  0  0  0
   -3.6915   -2.1888   -2.6360 H   0  0  0  0  0  0  0  0  0  0  0  0
   -1.0721   -3.2977   -1.9053 H   0  0  0  0  0  0  0  0  0  0  0  0
   -1.8017   -0.6681   -3.3281 H   0  0  0  0  0  0  0  0  0  0  0  0
   -0.1601   -1.2849   -3.1045 H   0  0  0  0  0  0  0  0  0  0  0  0
   -1.3074   -2.1646   -4.1319 H   0  0  0  0  0  0  0  0  0  0  0  0
   -0.2835   -1.5112   -0.2725 N   0  0  0  0  0  0  0  0  0  0  0  0
    0.0769   -0.7658    0.9424 C   0  0  0  0  0  0  0  0  0  0  0  0
   -0.6003    0.5809    0.9290 C   0  0  0  0  0  0  0  0  0  0  0  0
   -0.0281    1.6280    1.2198 O   0  0  0  0  0  0  0  0  0  0  0  0
    0.4587   -2.0097   -0.7289 H   0  0  0  0  0  0  0  0  0  0  0  0
    1.1622   -0.6321    0.9743 H   0  0  0  0  0  0  0  0  0  0  0  0
   -0.2441   -1.3335    1.8207 H   0  0  0  0  0  0  0  0  0  0  0  0
   -1.9355    0.4789    0.5531 N   0  0  0  0  0  0  0  0  0  0  0  0
   -2.8221    1.6087    0.4585 C   0  0  2  0  0  0  0  0  0  0  0  0
   -3.3650    1.6627   -0.9634 C   0  0  0  0  0  0  0  0  0  0  0  0
   -2.7955    1.1398   -1.9192 O   0  0  0  0  0  0  0  0  0  0  0  0
   -2.1091    2.9031    0.8176 C   0  0  0  0  0  0  0  0  0  0  0  0
   -2.3055   -0.4444    0.3331 H   0  0  0  0  0  0  0  0  0  0  0  0
   -3.6451    1.4242    1.1575 H   0  0  0  0  0  0  0  0  0  0  0  0
   -1.2812    3.1046    0.1281 H   0  0  0  0  0  0  0  0  0  0  0  0
   -2.7921    3.7578    0.7729 H   0  0  0  0  0  0  0  0  0  0  0  0
   -1.6936    2.8513    1.8298 H   0  0  0  0  0  0  0  0  0  0  0  0
   -4.5378    2.4001   -1.0466 N   0  0  0  0  0  0  0  0  0  0  0  0
   -5.2409    2.6087   -2.2908 C   0  0  0  0  0  0  0  0  0  0  0  0
   -4.9491    2.7818   -0.1999 H   0  0  0  0  0  0  0  0  0  0  0  0
   -4.8990    3.5465   -2.7530 H   0  0  0  0  0  0  0  0  0  0  0  0
   -5.0379    1.7691   -2.9718 H   0  0  0  0  0  0  0  0  0  0  0  0
   -6.3217    2.6693   -2.0953 H   0  0  0  0  0  0  0  0  0  0  0  0
  1  3  1  0  0  0  0
  1  7  1  0  0  0  0
  1  2  2  0  0  0  0
 18 19  1  0  0  0  0
 19 24  1  0  0  0  0
 19 20  2  0  0  0  0
 25 26  1  0  0  0  0
 26 34  1  0  0  0  0
 26 27  2  0  0  0  0
  8  9  1  0  0  0  0
  9 17  1  0  0  0  0
  9 10  2  0  0  0  0
 25 28  1  0  0  0  0
  8 11  1  0  0  0  0
 34 35  1  0  0  0  0
 17 18  1  0  0  0  0
 24 25  1  0  0  0  0
  7  8  1  0  0  0  0
  3  4  1  0  0  0  0
  3  5  1  0  0  0  0
  3  6  1  0  0  0  0
 28 31  1  0  0  0  0
 28 32  1  0  0  0  0
 28 33  1  0  0  0  0
 11 14  1  0  0  0  0
 11 15  1  0  0  0  0
 11 16  1  0  0  0  0
 35 37  1  0  0  0  0
 35 38  1  0  0  0  0
 35 39  1  0  0  0  0
 18 22  1  0  0  0  0
 18 23  1  0  0  0  0
 25 30  1  0  0  0  0
  8 13  1  0  0  0  0
 34 36  1  0  0  0  0
 17 21  1  0  0  0  0
  7 12  1  0  0  0  0
 24 29  1  0  0  0  0
M  END
$$$$

  -OEChem-05262214473D

 39 38  0     1  0  0  0  0  0999 V2000
   -3.5200   -4.0268   -1.6943 C   0  0  0  0  0  0  0  0  0  0  0  0
   -2.8702   -4.8827   -1.1054 O   0  0  0  0  0  0  0  0  0  0  0  0
   -4.9704   -4.2579   -1.9614 C   0  0  0  0  0  0  0  0  0  0  0  0
   -5.1456   -4.7573   -2.9278 H   0  0  0  0  0  0  0  0  0  0  0  0
   -5.4379   -4.9112   -1.2072 H   0  0  0  0  0  0  0  0  0  0  0  0
   -5.5954   -3.3510   -1.9864 H   0  0  0  0  0  0  0  0  0  0  0  0
   -3.0424   -2.8131   -2.1606 N   0  0  0  0  0  0  0  0  0  0  0  0
   -1.6755   -2.3891   -2.0077 C   0  0  2  0  0  0  0  0  0  0  0  0
   -1.5782   -1.5673   -0.7292 C   0  0  0  0  0  0  0  0  0  0  0  0
   -2.5448   -1.0064   -0.2171 O   0  0  0  0  0  0  0  0  0  0  0  0
   -1.2087   -1.5823   -3.2094 C   0  0  0  0  0  0  0  0  0  0  0  0
   -3.6915   -2.1888   -2.6360 H   0  0  0  0  0  0  0  0  0  0  0  0
   -1.0721   -3.2977   -1.9053 H   0  0  0  0  0  0  0  0  0  0  0  0
   -1.8017   -0.6681   -3.3281 H   0  0  0  0  0  0  0  0  0  0  0  0
   -0.1601   -1.2849   -3.1045 H   0  0  0  0  0  0  0  0  0  0  0  0
   -1.3074   -2.1646   -4.1319 H   0  0  0  0  0  0  0  0  0  0  0  0
   -0.2835   -1.5112   -0.2725 N   0  0  0  0  0  0  0  0  0  0  0  0
    0.0769   -0.7658    0.9424 C   0  0  0  0  0  0  0  0  0  0  0  0
   -0.6003    0.5809    0.9290 C   0  0  0  0  0  0  0  0  0  0  0  0
    0.0117    1.6454    0.9556 O   0  0  0  0  0  0  0  0  0  0  0  0
    0.4587   -2.0097   -0.7289 H   0  0  0  0  0  0  0  0  0  0  0  0
    1.1622   -0.6321    0.9743 H   0  0  0  0  0  0  0  0  0  0  0  0
   -0.2441   -1.3335    1.8207 H   0  0  0  0  0  0  0  0  0  0  0  0
   -1.9850    0.4573    0.8863 N   0  0  0  0  0  0  0  0  0  0  0  0
   -2.8822    1.5825    0.8682 C   0  0  2  0  0  0  0  0  0  0  0  0
   -3.7399    1.4799   -0.3861 C   0  0  0  0  0  0  0  0  0  0  0  0
   -3.4011    0.8407   -1.3800 O   0  0  0  0  0  0  0  0  0  0  0  0
   -2.1203    2.8983    0.8995 C   0  0  0  0  0  0  0  0  0  0  0  0
   -2.3853   -0.4792    0.8669 H   0  0  0  0  0  0  0  0  0  0  0  0
   -3.5190    1.4936    1.7551 H   0  0  0  0  0  0  0  0  0  0  0  0
   -1.4767    3.0053    0.0186 H   0  0  0  0  0  0  0  0  0  0  0  0
   -2.8047    3.7529    0.9144 H   0  0  0  0  0  0  0  0  0  0  0  0
   -1.4812    2.9576    1.7871 H   0  0  0  0  0  0  0  0  0  0  0  0
   -4.9084    2.2213   -0.2814 N   0  0  0  0  0  0  0  0  0  0  0  0
   -5.8827    2.2955   -1.3450 C   0  0  0  0  0  0  0  0  0  0  0  0
   -5.1170    2.7052    0.5870 H   0  0  0  0  0  0  0  0  0  0  0  0
   -5.6676    3.1677   -1.9798 H   0  0  0  0  0  0  0  0  0  0  0  0
   -5.8332    1.3794   -1.9519 H   0  0  0  0  0  0  0  0  0  0  0  0
   -6.8896    2.3955   -0.9135 H   0  0  0  0  0  0  0  0  0  0  0  0
  1  3  1  0  0  0  0
  1  7  1  0  0  0  0
  1  2  2  0  0  0  0
 18 19  1  0  0  0  0
 19 24  1  0  0  0  0
 19 20  2  0  0  0  0
 25 26  1  0  0  0  0
 26 34  1  0  0  0  0
 26 27  2  0  0  0  0
  8  9  1  0  0  0  0
  9 17  1  0  0  0  0
  9 10  2  0  0  0  0
 25 28  1  0  0  0  0
  8 11  1  0  0  0  0
 34 35  1  0  0  0  0
 17 18  1  0  0  0  0
 24 25  1  0  0  0  0
  7  8  1  0  0  0  0
  3  4  1  0  0  0  0
  3  5  1  0  0  0  0
  3  6  1  0  0  0  0
 28 31  1  0  0  0  0
 28 32  1  0  0  0  0
 28 33  1  0  0  0  0
 11 14  1  0  0  0  0
 11 15  1  0  0  0  0
 11 16  1  0  0  0  0
 35 37  1  0  0  0  0
 35 38  1  0  0  0  0
 35 39  1  0  0  0  0
 18 22  1  0  0  0  0
 18 23  1  0  0  0  0
 25 30  1  0  0  0  0
  8 13  1  0  0  0  0
 34 36  1  0  0  0  0
 17 21  1  0  0  0  0
  7 12  1  0  0  0  0
 24 29  1  0  0  0  0
M  END
$$$$

  -OEChem-05262214473D

 39 38  0     1  0  0  0  0  0999 V2000
   -3.5200   -4.0268   -1.6943 C   0  0  0  0  0  0  0  0  0  0  0  0
   -2.8702   -4.8827   -1.1054 O   0  0  0  0  0  0  0  0  0  0  0  0
   -4.9704   -4.2579   -1.9614 C   0  0  0  0  0  0  0  0  0  0  0  0
   -5.1456   -4.7573   -2.9278 H   0  0  0  0  0  0  0  0  0  0  0  0
   -5.4379   -4.9112   -1.2072 H   0  0  0  0  0  0  0  0  0  0  0  0
   -5.5954   -3.3510   -1.9864 H   0  0  0  0  0  0  0  0  0  0  0  0
   -3.0424   -2.8131   -2.1606 N   0  0  0  0  0  0  0  0  0  0  0  0
   -1.6755   -2.3891   -2.0077 C   0  0  2  0  0  0  0  0  0  0  0  0
   -1.5782   -1.5673   -0.7292 C   0  0  0  0  0  0  0  0  0  0  0  0
   -2.5448   -1.0064   -0.2171 O   0  0  0  0  0  0  0  0  0  0  0  0
   -1.2087   -1.5823   -3.2094 C   0  0  0  0  0  0  0  0  0  0  0  0
   -3.6915   -2.1888   -2.6360 H   0  0  0  0  0  0  0  0  0  0  0  0
   -1.0721   -3.2977   -1.9053 H   0  0  0  0  0  0  0  0  0  0  0  0
   -1.8017   -0.6681   -3.3281 H   0  0  0  0  0  0  0  0  0  0  0  0
   -0.1601   -1.2849   -3.1045 H   0  0  0  0  0  0  0  0  0  0  0  0
   -1.3074   -2.1646   -4.1319 H   0  0  0  0  0  0  0  0  0  0  0  0
   -0.2835   -1.5112   -0.2725 N   0  0  0  0  0  0  0  0  0  0  0  0
    0.0769   -0.7658    0.9424 C   0  0  0  0  0  0  0  0  0  0  0  0
   -0.6003    0.5809    0.9290 C   0  0  0  0  0  0  0  0  0  0  0  0
   -0.0109    1.6313    0.6892 O   0  0  0  0  0  0  0  0  0  0  0  0
    0.4587   -2.0097   -0.7289 H   0  0  0  0  0  0  0  0  0  0  0  0
    1.1622   -0.6321    0.9743 H   0  0  0  0  0  0  0  0  0  0  0  0
   -0.2441   -1.3335    1.8207 H   0  0  0  0  0  0  0  0  0  0  0  0
   -1.9558    0.4753    1.2222 N   0  0  0  0  0  0  0  0  0  0  0  0
   -2.8456    1.6051    1.2808 C   0  0  2  0  0  0  0  0  0  0  0  0
   -3.9690    1.3713    0.2794 C   0  0  0  0  0  0  0  0  0  0  0  0
   -3.8621    0.6158   -0.6844 O   0  0  0  0  0  0  0  0  0  0  0  0
   -2.1121    2.9032    0.9816 C   0  0  0  0  0  0  0  0  0  0  0  0
   -2.3391   -0.4506    1.4051 H   0  0  0  0  0  0  0  0  0  0  0  0
   -3.2588    1.6298    2.2950 H   0  0  0  0  0  0  0  0  0  0  0  0
   -1.6910    2.8970   -0.0304 H   0  0  0  0  0  0  0  0  0  0  0  0
   -2.7842    3.7646    1.0547 H   0  0  0  0  0  0  0  0  0  0  0  0
   -1.2858    3.0549    1.6845 H   0  0  0  0  0  0  0  0  0  0  0  0
   -5.0899    2.1385    0.5642 N   0  0  0  0  0  0  0  0  0  0  0  0
   -6.2846    2.1043   -0.2467 C   0  0  0  0  0  0  0  0  0  0  0  0
   -5.0975    2.7231    1.3948 H   0  0  0  0  0  0  0  0  0  0  0  0
   -6.2322    2.8935   -1.0112 H   0  0  0  0  0  0  0  0  0  0  0  0
   -6.3665    1.1233   -0.7376 H   0  0  0  0  0  0  0  0  0  0  0  0
   -7.1654    2.2698    0.3911 H   0  0  0  0  0  0  0  0  0  0  0  0
  1  3  1  0  0  0  0
  1  7  1  0  0  0  0
  1  2  2  0  0  0  0
 18 19  1  0  0  0  0
 19 24  1  0  0  0  0
 19 20  2  0  0  0  0
 25 26  1  0  0  0  0
 26 34  1  0  0  0  0
 26 27  2  0  0  0  0
  8  9  1  0  0  0  0
  9 17  1  0  0  0  0
  9 10  2  0  0  0  0
 25 28  1  0  0  0  0
  8 11  1  0  0  0  0
 34 35  1  0  0  0  0
 17 18  1  0  0  0  0
 24 25  1  0  0  0  0
  7  8  1  0  0  0  0
  3  4  1  0  0  0  0
  3  5  1  0  0  0  0
  3  6  1  0  0  0  0
 28 31  1  0  0  0  0
 28 32  1  0  0  0  0
 28 33  1  0  0  0  0
 11 14  1  0  0  0  0
 11 15  1  0  0  0  0
 11 16  1  0  0  0  0
 35 37  1  0  0  0  0
 35 38  1  0  0  0  0
 35 39  1  0  0  0  0
 18 22  1  0  0  0  0
 18 23  1  0  0  0  0
 25 30  1  0  0  0  0
  8 13  1  0  0  0  0
 34 36  1  0  0  0  0
 17 21  1  0  0  0  0
  7 12  1  0  0  0  0
 24 29  1  0  0  0  0
M  END
$$$$

  -OEChem-05262214473D

 39 38  0     1  0  0  0  0  0999 V2000
   -3.5200   -4.0268   -1.6943 C   0  0  0  0  0  0  0  0  0  0  0  0
   -2.8702   -4.8827   -1.1054 O   0  0  0  0  0  0  0  0  0  0  0  0
   -4.9704   -4.2579   -1.9614 C   0  0  0  0  0  0  0  0  0  0  0  0
   -5.1456   -4.7573   -2.9278 H   0  0  0  0  0  0  0  0  0  0  0  0
   -5.4379   -4.9112   -1.2072 H   0  0  0  0  0  0  0  0  0  0  0  0
   -5.5954   -3.3510   -1.9864 H   0  0  0  0  0  0  0  0  0  0  0  0
   -3.0424   -2.8131   -2.1606 N   0  0  0  0  0  0  0  0  0  0  0  0
   -1.6755   -2.3891   -2.0077 C   0  0  2  0  0  0  0  0  0  0  0  0
   -1.5782   -1.5673   -0.7292 C   0  0  0  0  0  0  0  0  0  0  0  0
   -2.5448   -1.0064   -0.2171 O   0  0  0  0  0  0  0  0  0  0  0  0
   -1.2087   -1.5823   -3.2094 C   0  0  0  0  0  0  0  0  0  0  0  0
   -3.6915   -2.1888   -2.6360 H   0  0  0  0  0  0  0  0  0  0  0  0
   -1.0721   -3.2977   -1.9053 H   0  0  0  0  0  0  0  0  0  0  0  0
   -1.8017   -0.6681   -3.3281 H   0  0  0  0  0  0  0  0  0  0  0  0
   -0.1601   -1.2849   -3.1045 H   0  0  0  0  0  0  0  0  0  0  0  0
   -1.3074   -2.1646   -4.1319 H   0  0  0  0  0  0  0  0  0  0  0  0
   -0.2835   -1.5112   -0.2725 N   0  0  0  0  0  0  0  0  0  0  0  0
    0.0769   -0.7658    0.9424 C   0  0  0  0  0  0  0  0  0  0  0  0
   -0.6003    0.5809    0.9290 C   0  0  0  0  0  0  0  0  0  0  0  0
   -0.0943    1.5869    0.4387 O   0  0  0  0  0  0  0  0  0  0  0  0
    0.4587   -2.0097   -0.7289 H   0  0  0  0  0  0  0  0  0  0  0  0
    1.1622   -0.6321    0.9743 H   0  0  0  0  0  0  0  0  0  0  0  0
   -0.2441   -1.3335    1.8207 H   0  0  0  0  0  0  0  0  0  0  0  0
   -1.8499    0.5317    1.5377 N   0  0  0  0  0  0  0  0  0  0  0  0
   -2.7147    1.6747    1.6683 C   0  0  2  0  0  0  0  0  0  0  0  0
   -4.0366    1.3444    0.9879 C   0  0  0  0  0  0  0  0  0  0  0  0
   -4.1470    0.4806    0.1203 O   0  0  0  0  0  0  0  0  0  0  0  0
   -2.0852    2.9175    1.0586 C   0  0  0  0  0  0  0  0  0  0  0  0
   -2.1699   -0.3604    1.9109 H   0  0  0  0  0  0  0  0  0  0  0  0
   -2.8824    1.8235    2.7406 H   0  0  0  0  0  0  0  0  0  0  0  0
   -1.9097    2.7872   -0.0155 H   0  0  0  0  0  0  0  0  0  0  0  0
   -2.7319    3.7922    1.1840 H   0  0  0  0  0  0  0  0  0  0  0  0
   -1.1205    3.1364    1.5288 H   0  0  0  0  0  0  0  0  0  0  0  0
   -5.0699    2.1572    1.4326 N   0  0  0  0  0  0  0  0  0  0  0  0
   -6.4193    2.0483    0.9294 C   0  0  0  0  0  0  0  0  0  0  0  0
   -4.8917    2.8343    2.1685 H   0  0  0  0  0  0  0  0  0  0  0  0
   -6.5542    2.7425    0.0868 H   0  0  0  0  0  0  0  0  0  0  0  0
   -6.6014    1.0184    0.5885 H   0  0  0  0  0  0  0  0  0  0  0  0
   -7.1305    2.3007    1.7297 H   0  0  0  0  0  0  0  0  0  0  0  0
  1  3  1  0  0  0  0
  1  7  1  0  0  0  0
  1  2  2  0  0  0  0
 18 19  1  0  0  0  0
 19 24  1  0  0  0  0
 19 20  2  0  0  0  0
 25 26  1  0  0  0  0
 26 34  1  0  0  0  0
 26 27  2  0  0  0  0
  8  9  1  0  0  0  0
  9 17  1  0  0  0  0
  9 10  2  0  0  0  0
 25 28  1  0  0  0  0
  8 11  1  0  0  0  0
 34 35  1  0  0  0  0
 17 18  1  0  0  0  0
 24 25  1  0  0  0  0
  7  8  1  0  0  0  0
  3  4  1  0  0  0  0
  3  5  1  0  0  0  0
  3  6  1  0  0  0  0
 28 31  1  0  0  0  0
 28 32  1  0  0  0  0
 28 33  1  0  0  0  0
 11 14  1  0  0  0  0
 11 15  1  0  0  0  0
 11 16  1  0  0  0  0
 35 37  1  0  0  0  0
 35 38  1  0  0  0  0
 35 39  1  0  0  0  0
 18 22  1  0  0  0  0
 18 23  1  0  0  0  0
 25 30  1  0  0  0  0
  8 13  1  0  0  0  0
 34 36  1  0  0  0  0
 17 21  1  0  0  0  0
  7 12  1  0  0  0  0
 24 29  1  0  0  0  0
M  END
$$$$

  -OEChem-05262214473D

 39 38  0     1  0  0  0  0  0999 V2000
   -3.5200   -4.0268   -1.6943 C   0  0  0  0  0  0  0  0  0  0  0  0
   -2.8702   -4.8827   -1.1054 O   0  0  0  0  0  0  0  0  0  0  0  0
   -4.9704   -4.2579   -1.9614 C   0  0  0  0  0  0  0  0  0  0  0  0
   -5.1456   -4.7573   -2.9278 H   0  0  0  0  0  0  0  0  0  0  0  0
   -5.4379   -4.9112   -1.2072 H   0  0  0  0  0  0  0  0  0  0  0  0
   -5.5954   -3.3510   -1.9864 H   0  0  0  0  0  0  0  0  0  0  0  0
   -3.0424   -2.8131   -2.1606 N   0  0  0  0  0  0  0  0  0  0  0  0
   -1.6755   -2.3891   -2.0077 C   0  0  2  0  0  0  0  0  0  0  0  0
   -1.5782   -1.5673   -0.7292 C   0  0  0  0  0  0  0  0  0  0  0  0
   -2.5448   -1.0064   -0.2171 O   0  0  0  0  0  0  0  0  0  0  0  0
   -1.2087   -1.5823   -3.2094 C   0  0  0  0  0  0  0  0  0  0  0  0
   -3.6915   -2.1888   -2.6360 H   0  0  0  0  0  0  0  0  0  0  0  0
   -1.0721   -3.2977   -1.9053 H   0  0  0  0  0  0  0  0  0  0  0  0
   -1.8017   -0.6681   -3.3281 H   0  0  0  0  0  0  0  0  0  0  0  0
   -0.1601   -1.2849   -3.1045 H   0  0  0  0  0  0  0  0  0  0  0  0
   -1.3074   -2.1646   -4.1319 H   0  0  0  0  0  0  0  0  0  0  0  0
   -0.2835   -1.5112   -0.2725 N   0  0  0  0  0  0  0  0  0  0  0  0
    0.0769   -0.7658    0.9424 C   0  0  0  0  0  0  0  0  0  0  0  0
   -0.6003    0.5809    0.9290 C   0  0  0  0  0  0  0  0  0  0  0  0
   -0.2329    1.5150    0.2213 O   0  0  0  0  0  0  0  0  0  0  0  0
    0.4587   -2.0097   -0.7289 H   0  0  0  0  0  0  0  0  0  0  0  0
    1.1622   -0.6321    0.9743 H   0  0  0  0  0  0  0  0  0  0  0  0
   -0.2441   -1.3335    1.8207 H   0  0  0  0  0  0  0  0  0  0  0  0
   -1.6745    0.6227    1.8115 N   0  0  0  0  0  0  0  0  0  0  0  0
   -2.4986    1.7867    2.0043 C   0  0  2  0  0  0  0  0  0  0  0  0
   -3.9382    1.4009    1.6910 C   0  0  0  0  0  0  0  0  0  0  0  0
   -4.2365    0.4441    0.9791 O   0  0  0  0  0  0  0  0  0  0  0  0
   -2.0414    2.9402    1.1250 C   0  0  0  0  0  0  0  0  0  0  0  0
   -1.8893   -0.2150    2.3498 H   0  0  0  0  0  0  0  0  0  0  0  0
   -2.4154    2.0616    3.0614 H   0  0  0  0  0  0  0  0  0  0  0  0
   -2.1177    2.6834    0.0621 H   0  0  0  0  0  0  0  0  0  0  0  0
   -2.6514    3.8337    1.2937 H   0  0  0  0  0  0  0  0  0  0  0  0
   -0.9966    3.1968    1.3307 H   0  0  0  0  0  0  0  0  0  0  0  0
   -4.8498    2.2762    2.2646 N   0  0  0  0  0  0  0  0  0  0  0  0
   -6.2777    2.1313    2.1030 C   0  0  0  0  0  0  0  0  0  0  0  0
   -4.5139    3.0312    2.8554 H   0  0  0  0  0  0  0  0  0  0  0  0
   -6.6117    2.7251    1.2395 H   0  0  0  0  0  0  0  0  0  0  0  0
   -6.5219    1.0718    1.9359 H   0  0  0  0  0  0  0  0  0  0  0  0
   -6.7872    2.4862    3.0110 H   0  0  0  0  0  0  0  0  0  0  0  0
  1  3  1  0  0  0  0
  1  7  1  0  0  0  0
  1  2  2  0  0  0  0
 18 19  1  0  0  0  0
 19 24  1  0  0  0  0
 19 20  2  0  0  0  0
 25 26  1  0  0  0  0
 26 34  1  0  0  0  0
 26 27  2  0  0  0  0
  8  9  1  0  0  0  0
  9 17  1  0  0  0  0
  9 10  2  0  0  0  0
 25 28  1  0  0  0  0
  8 11  1  0  0  0  0
 34 35  1  0  0  0  0
 17 18  1  0  0  0  0
 24 25  1  0  0  0  0
  7  8  1  0  0  0  0
  3  4  1  0  0  0  0
  3  5  1  0  0  0  0
  3  6  1  0  0  0  0
 28 31  1  0  0  0  0
 28 32  1  0  0  0  0
 28 33  1  0  0  0  0
 11 14  1  0  0  0  0
 11 15  1  0  0  0  0
 11 16  1  0  0  0  0
 35 37  1  0  0  0  0
 35 38  1  0  0  0  0
 35 39  1  0  0  0  0
 18 22  1  0  0  0  0
 18 23  1  0  0  0  0
 25 30  1  0  0  0  0
  8 13  1  0  0  0  0
 34 36  1  0  0  0  0
 17 21  1  0  0  0  0
  7 12  1  0  0  0  0
 24 29  1  0  0  0  0
M  END
$$$$

  -OEChem-05262214473D

 39 38  0     1  0  0  0  0  0999 V2000
   -3.5200   -4.0268   -1.6943 C   0  0  0  0  0  0  0  0  0  0  0  0
   -2.8702   -4.8827   -1.1054 O   0  0  0  0  0  0  0  0  0  0  0  0
   -4.9704   -4.2579   -1.9614 C   0  0  0  0  0  0  0  0  0  0  0  0
   -5.1456   -4.7573   -2.9278 H   0  0  0  0  0  0  0  0  0  0  0  0
   -5.4379   -4.9112   -1.2072 H   0  0  0  0  0  0  0  0  0  0  0  0
   -5.5954   -3.3510   -1.9864 H   0  0  0  0  0  0  0  0  0  0  0  0
   -3.0424   -2.8131   -2.1606 N   0  0  0  0  0  0  0  0  0  0  0  0
   -1.6755   -2.3891   -2.0077 C   0  0  2  0  0  0  0  0  0  0  0  0
   -1.5782   -1.5673   -0.7292 C   0  0  0  0  0  0  0  0  0  0  0  0
   -2.5448   -1.0064   -0.2171 O   0  0  0  0  0  0  0  0  0  0  0  0
   -1.2087   -1.5823   -3.2094 C   0  0  0  0  0  0  0  0  0  0  0  0
   -3.6915   -2.1888   -2.6360 H   0  0  0  0  0  0  0  0  0  0  0  0
   -1.0721   -3.2977   -1.9053 H   0  0  0  0  0  0  0  0  0  0  0  0
   -1.8017   -0.6681   -3.3281 H   0  0  0  0  0  0  0  0  0  0  0  0
   -0.1601   -1.2849   -3.1045 H   0  0  0  0  0  0  0  0  0  0  0  0
   -1.3074   -2.1646   -4.1319 H   0  0  0  0  0  0  0  0  0  0  0  0
   -0.2835   -1.5112   -0.2725 N   0  0  0  0  0  0  0  0  0  0  0  0
    0.0769   -0.7658    0.9424 C   0  0  0  0  0  0  0  0  0  0  0  0
   -0.6003    0.5809    0.9290 C   0  0  0  0  0  0  0  0  0  0  0  0
   -0.4173    1.4206    0.0516 O   0  0  0  0  0  0  0  0  0  0  0  0
    0.4587   -2.0097   -0.7289 H   0  0  0  0  0  0  0  0  0  0  0  0
    1.1622   -0.6321    0.9743 H   0  0  0  0  0  0  0  0  0  0  0  0
   -0.2441   -1.3335    1.8207 H   0  0  0  0  0  0  0  0  0  0  0  0
   -1.4416    0.7419    2.0248 N   0  0  0  0  0  0  0  0  0  0  0  0
   -2.2119    1.9335    2.2658 C   0  0  2  0  0  0  0  0  0  0  0  0
   -3.6805    1.5370    2.3408 C   0  0  0  0  0  0  0  0  0  0  0  0
   -4.1245    0.5090    1.8336 O   0  0  0  0  0  0  0  0  0  0  0  0
   -1.9837    2.9697    1.1763 C   0  0  0  0  0  0  0  0  0  0  0  0
   -1.5165   -0.0241    2.6921 H   0  0  0  0  0  0  0  0  0  0  0  0
   -1.8895    2.3278    3.2356 H   0  0  0  0  0  0  0  0  0  0  0  0
   -2.3008    2.5926    0.1972 H   0  0  0  0  0  0  0  0  0  0  0  0
   -2.5483    3.8864    1.3761 H   0  0  0  0  0  0  0  0  0  0  0  0
   -0.9226    3.2317    1.1038 H   0  0  0  0  0  0  0  0  0  0  0  0
   -4.4445    2.4874    3.0035 N   0  0  0  0  0  0  0  0  0  0  0  0
   -5.8692    2.3475    3.1943 C   0  0  0  0  0  0  0  0  0  0  0  0
   -3.9896    3.3003    3.4085 H   0  0  0  0  0  0  0  0  0  0  0  0
   -6.4007    2.8425    2.3681 H   0  0  0  0  0  0  0  0  0  0  0  0
   -6.1335    1.2799    3.2127 H   0  0  0  0  0  0  0  0  0  0  0  0
   -6.1589    2.8135    4.1477 H   0  0  0  0  0  0  0  0  0  0  0  0
  1  3  1  0  0  0  0
  1  7  1  0  0  0  0
  1  2  2  0  0  0  0
 18 19  1  0  0  0  0
 19 24  1  0  0  0  0
 19 20  2  0  0  0  0
 25 26  1  0  0  0  0
 26 34  1  0  0  0  0
 26 27  2  0  0  0  0
  8  9  1  0  0  0  0
  9 17  1  0  0  0  0
  9 10  2  0  0  0  0
 25 28  1  0  0  0  0
  8 11  1  0  0  0  0
 34 35  1  0  0  0  0
 17 18  1  0  0  0  0
 24 25  1  0  0  0  0
  7  8  1  0  0  0  0
  3  4  1  0  0  0  0
  3  5  1  0  0  0  0
  3  6  1  0  0  0  0
 28 31  1  0  0  0  0
 28 32  1  0  0  0  0
 28 33  1  0  0  0  0
 11 14  1  0  0  0  0
 11 15  1  0  0  0  0
 11 16  1  0  0  0  0
 35 37  1  0  0  0  0
 35 38  1  0  0  0  0
 35 39  1  0  0  0  0
 18 22  1  0  0  0  0
 18 23  1  0  0  0  0
 25 30  1  0  0  0  0
  8 13  1  0  0  0  0
 34 36  1  0  0  0  0
 17 21  1  0  0  0  0
  7 12  1  0  0  0  0
 24 29  1  0  0  0  0
M  END
$$$$

  -OEChem-05262214473D

 39 38  0     1  0  0  0  0  0999 V2000
   -3.5200   -4.0268   -1.6943 C   0  0  0  0  0  0  0  0  0  0  0  0
   -2.8702   -4.8827   -1.1054 O   0  0  0  0  0  0  0  0  0  0  0  0
   -4.9704   -4.2579   -1.9614 C   0  0  0  0  0  0  0  0  0  0  0  0
   -5.1456   -4.7573   -2.9278 H   0  0  0  0  0  0  0  0  0  0  0  0
   -5.4379   -4.9112   -1.2072 H   0  0  0  0  0  0  0  0  0  0  0  0
   -5.5954   -3.3510   -1.9864 H   0  0  0  0  0  0  0  0  0  0  0  0
   -3.0424   -2.8131   -2.1606 N   0  0  0  0  0  0  0  0  0  0  0  0
   -1.6755   -2.3891   -2.0077 C   0  0  2  0  0  0  0  0  0  0  0  0
   -1.5782   -1.5673   -0.7292 C   0  0  0  0  0  0  0  0  0  0  0  0
   -2.5448   -1.0064   -0.2171 O   0  0  0  0  0  0  0  0  0  0  0  0
   -1.2087   -1.5823   -3.2094 C   0  0  0  0  0  0  0  0  0  0  0  0
   -3.6915   -2.1888   -2.6360 H   0  0  0  0  0  0  0  0  0  0  0  0
   -1.0721   -3.2977   -1.9053 H   0  0  0  0  0  0  0  0  0  0  0  0
   -1.8017   -0.6681   -3.3281 H   0  0  0  0  0  0  0  0  0  0  0  0
   -0.1601   -1.2849   -3.1045 H   0  0  0  0  0  0  0  0  0  0  0  0
   -1.3074   -2.1646   -4.1319 H   0  0  0  0  0  0  0  0  0  0  0  0
   -0.2835   -1.5112   -0.2725 N   0  0  0  0  0  0  0  0  0  0  0  0
    0.0769   -0.7658    0.9424 C   0  0  0  0  0  0  0  0  0  0  0  0
   -0.6003    0.5809    0.9290 C   0  0  0  0  0  0  0  0  0  0  0  0
   -0.6348    1.3101   -0.0586 O   0  0  0  0  0  0  0  0  0  0  0  0
    0.4587   -2.0097   -0.7289 H   0  0  0  0  0  0  0  0  0  0  0  0
    1.1622   -0.6321    0.9743 H   0  0  0  0  0  0  0  0  0  0  0  0
   -0.2441   -1.3335    1.8207 H   0  0  0  0  0  0  0  0  0  0  0  0
   -1.1670    0.8814    2.1631 N   0  0  0  0  0  0  0  0  0  0  0  0
   -1.8742    2.1050    2.4350 C   0  0  2  0  0  0  0  0  0  0  0  0
   -3.2809    1.7434    2.8931 C   0  0  0  0  0  0  0  0  0  0  0  0
   -3.8185    0.6708    2.6256 O   0  0  0  0  0  0  0  0  0  0  0  0
   -1.9160    3.0041    1.2092 C   0  0  0  0  0  0  0  0  0  0  0  0
   -1.0768    0.1992    2.9142 H   0  0  0  0  0  0  0  0  0  0  0  0
   -1.3406    2.6039    3.2513 H   0  0  0  0  0  0  0  0  0  0  0  0
   -2.4468    2.5211    0.3807 H   0  0  0  0  0  0  0  0  0  0  0  0
   -2.4294    3.9467    1.4258 H   0  0  0  0  0  0  0  0  0  0  0  0
   -0.9035    3.2389    0.8634 H   0  0  0  0  0  0  0  0  0  0  0  0
   -3.8816    2.7764    3.5990 N   0  0  0  0  0  0  0  0  0  0  0  0
   -5.2219    2.6824    4.1288 C   0  0  0  0  0  0  0  0  0  0  0  0
   -3.3547    3.6234    3.7903 H   0  0  0  0  0  0  0  0  0  0  0  0
   -5.9357    3.0866    3.3959 H   0  0  0  0  0  0  0  0  0  0  0  0
   -5.4626    1.6284    4.3321 H   0  0  0  0  0  0  0  0  0  0  0  0
   -5.2884    3.2603    5.0624 H   0  0  0  0  0  0  0  0  0  0  0  0
  1  3  1  0  0  0  0
  1  7  1  0  0  0  0
  1  2  2  0  0  0  0
 18 19  1  0  0  0  0
 19 24  1  0  0  0  0
 19 20  2  0  0  0  0
 25 26  1  0  0  0  0
 26 34  1  0  0  0  0
 26 27  2  0  0  0  0
  8  9  1  0  0  0  0
  9 17  1  0  0  0  0
  9 10  2  0  0  0  0
 25 28  1  0  0  0  0
  8 11  1  0  0  0  0
 34 35  1  0  0  0  0
 17 18  1  0  0  0  0
 24 25  1  0  0  0  0
  7  8  1  0  0  0  0
  3  4  1  0  0  0  0
  3  5  1  0  0  0  0
  3  6  1  0  0  0  0
 28 31  1  0  0  0  0
 28 32  1  0  0  0  0
 28 33  1  0  0  0  0
 11 14  1  0  0  0  0
 11 15  1  0  0  0  0
 11 16  1  0  0  0  0
 35 37  1  0  0  0  0
 35 38  1  0  0  0  0
 35 39  1  0  0  0  0
 18 22  1  0  0  0  0
 18 23  1  0  0  0  0
 25 30  1  0  0  0  0
  8 13  1  0  0  0  0
 34 36  1  0  0  0  0
 17 21  1  0  0  0  0
  7 12  1  0  0  0  0
 24 29  1  0  0  0  0
M  END
$$$$

  -OEChem-05262214473D

 39 38  0     1  0  0  0  0  0999 V2000
   -3.5200   -4.0268   -1.6943 C   0  0  0  0  0  0  0  0  0  0  0  0
   -2.8702   -4.8827   -1.1054 O   0  0  0  0  0  0  0  0  0  0  0  0
   -4.9704   -4.2579   -1.9614 C   0  0  0  0  0  0  0  0  0  0  0  0
   -5.1456   -4.7573   -2.9278 H   0  0  0  0  0  0  0  0  0  0  0  0
   -5.4379   -4.9112   -1.2072 H   0  0  0  0  0  0  0  0  0  0  0  0
   -5.5954   -3.3510   -1.9864 H   0  0  0  0  0  0  0  0  0  0  0  0
   -3.0424   -2.8131   -2.1606 N   0  0  0  0  0  0  0  0  0  0  0  0
   -1.6755   -2.3891   -2.0077 C   0  0  2  0  0  0  0  0  0  0  0  0
   -1.5782   -1.5673   -0.7292 C   0  0  0  0  0  0  0  0  0  0  0  0
   -2.5448   -1.0064   -0.2171 O   0  0  0  0  0  0  0  0  0  0  0  0
   -1.2087   -1.5823   -3.2094 C   0  0  0  0  0  0  0  0  0  0  0  0
   -3.6915   -2.1888   -2.6360 H   0  0  0  0  0  0  0  0  0  0  0  0
   -1.0721   -3.2977   -1.9053 H   0  0  0  0  0  0  0  0  0  0  0  0
   -1.8017   -0.6681   -3.3281 H   0  0  0  0  0  0  0  0  0  0  0  0
   -0.1601   -1.2849   -3.1045 H   0  0  0  0  0  0  0  0  0  0  0  0
   -1.3074   -2.1646   -4.1319 H   0  0  0  0  0  0  0  0  0  0  0  0
   -0.2835   -1.5112   -0.2725 N   0  0  0  0  0  0  0  0  0  0  0  0
    0.0769   -0.7658    0.9424 C   0  0  0  0  0  0  0  0  0  0  0  0
   -0.6003    0.5809    0.9290 C   0  0  0  0  0  0  0  0  0  0  0  0
   -0.8706    1.1911   -0.1020 O   0  0  0  0  0  0  0  0  0  0  0  0
    0.4587   -2.0097   -0.7289 H   0  0  0  0  0  0  0  0  0  0  0  0
    1.1622   -0.6321    0.9743 H   0  0  0  0  0  0  0  0  0  0  0  0
   -0.2441   -1.3335    1.8207 H   0  0  0  0  0  0  0  0  0  0  0  0
   -0.8695    1.0315    2.2170 N   0  0  0  0  0  0  0  0  0  0  0  0
   -1.5084    2.2896    2.5005 C   0  0  2  0  0  0  0  0  0  0  0  0
   -2.7668    2.0061    3.3101 C   0  0  0  0  0  0  0  0  0  0  0  0
   -3.3395    0.9184    3.3010 O   0  0  0  0  0  0  0  0  0  0  0  0
   -1.8429    3.0410    1.2213 C   0  0  0  0  0  0  0  0  0  0  0  0
   -0.6002    0.4398    3.0012 H   0  0  0  0  0  0  0  0  0  0  0  0
   -0.8062    2.8712    3.1075 H   0  0  0  0  0  0  0  0  0  0  0  0
   -2.5455    2.4736    0.5999 H   0  0  0  0  0  0  0  0  0  0  0  0
   -2.3030    4.0104    1.4393 H   0  0  0  0  0  0  0  0  0  0  0  0
   -0.9407    3.2178    0.6259 H   0  0  0  0  0  0  0  0  0  0  0  0
   -3.1996    3.1234    4.0104 N   0  0  0  0  0  0  0  0  0  0  0  0
   -4.3798    3.1130    4.8429 C   0  0  0  0  0  0  0  0  0  0  0  0
   -2.6523    3.9784    3.9748 H   0  0  0  0  0  0  0  0  0  0  0  0
   -5.2483    3.4408    4.2528 H   0  0  0  0  0  0  0  0  0  0  0  0
   -4.5549    2.0937    5.2177 H   0  0  0  0  0  0  0  0  0  0  0  0
   -4.2350    3.7963    5.6926 H   0  0  0  0  0  0  0  0  0  0  0  0
  1  3  1  0  0  0  0
  1  7  1  0  0  0  0
  1  2  2  0  0  0  0
 18 19  1  0  0  0  0
 19 24  1  0  0  0  0
 19 20  2  0  0  0  0
 25 26  1  0  0  0  0
 26 34  1  0  0  0  0
 26 27  2  0  0  0  0
  8  9  1  0  0  0  0
  9 17  1  0  0  0  0
  9 10  2  0  0  0  0
 25 28  1  0  0  0  0
  8 11  1  0  0  0  0
 34 35  1  0  0  0  0
 17 18  1  0  0  0  0
 24 25  1  0  0  0  0
  7  8  1  0  0  0  0
  3  4  1  0  0  0  0
  3  5  1  0  0  0  0
  3  6  1  0  0  0  0
 28 31  1  0  0  0  0
 28 32  1  0  0  0  0
 28 33  1  0  0  0  0
 11 14  1  0  0  0  0
 11 15  1  0  0  0  0
 11 16  1  0  0  0  0
 35 37  1  0  0  0  0
 35 38  1  0  0  0  0
 35 39  1  0  0  0  0
 18 22  1  0  0  0  0
 18 23  1  0  0  0  0
 25 30  1  0  0  0  0
  8 13  1  0  0  0  0
 34 36  1  0  0  0  0
 17 21  1  0  0  0  0
  7 12  1  0  0  0  0
 24 29  1  0  0  0  0
M  END
$$$$

  -OEChem-05262214473D

 39 38  0     1  0  0  0  0  0999 V2000
   -3.5200   -4.0268   -1.6943 C   0  0  0  0  0  0  0  0  0  0  0  0
   -2.8702   -4.8827   -1.1054 O   0  0  0  0  0  0  0  0  0  0  0  0
   -4.9704   -4.2579   -1.9614 C   0  0  0  0  0  0  0  0  0  0  0  0
   -5.1456   -4.7573   -2.9278 H   0  0  0  0  0  0  0  0  0  0  0  0
   -5.4379   -4.9112   -1.2072 H   0  0  0  0  0  0  0  0  0  0  0  0
   -5.5954   -3.3510   -1.9864 H   0  0  0  0  0  0  0  0  0  0  0  0
   -3.0424   -2.8131   -2.1606 N   0  0  0  0  0  0  0  0  0  0  0  0
   -1.6755   -2.3891   -2.0077 C   0  0  2  0  0  0  0  0  0  0  0  0
   -1.5782   -1.5673   -0.7292 C   0  0  0  0  0  0  0  0  0  0  0  0
   -2.5448   -1.0064   -0.2171 O   0  0  0  0  0  0  0  0  0  0  0  0
   -1.2087   -1.5823   -3.2094 C   0  0  0  0  0  0  0  0  0  0  0  0
   -3.6915   -2.1888   -2.6360 H   0  0  0  0  0  0  0  0  0  0  0  0
   -1.0721   -3.2977   -1.9053 H   0  0  0  0  0  0  0  0  0  0  0  0
   -1.8017   -0.6681   -3.3281 H   0  0  0  0  0  0  0  0  0  0  0  0
   -0.1601   -1.2849   -3.1045 H   0  0  0  0  0  0  0  0  0  0  0  0
   -1.3074   -2.1646   -4.1319 H   0  0  0  0  0  0  0  0  0  0  0  0
   -0.2835   -1.5112   -0.2725 N   0  0  0  0  0  0  0  0  0  0  0  0
    0.0769   -0.7658    0.9424 C   0  0  0  0  0  0  0  0  0  0  0  0
   -0.6003    0.5809    0.9290 C   0  0  0  0  0  0  0  0  0  0  0  0
   -1.1087    1.0716   -0.0755 O   0  0  0  0  0  0  0  0  0  0  0  0
    0.4587   -2.0097   -0.7289 H   0  0  0  0  0  0  0  0  0  0  0  0
    1.1622   -0.6321    0.9743 H   0  0  0  0  0  0  0  0  0  0  0  0
   -0.2441   -1.3335    1.8207 H   0  0  0  0  0  0  0  0  0  0  0  0
   -0.5693    1.1821    2.1828 N   0  0  0  0  0  0  0  0  0  0  0  0
   -1.1396    2.4746    2.4576 C   0  0  2  0  0  0  0  0  0  0  0  0
   -2.1732    2.3071    3.5635 C   0  0  0  0  0  0  0  0  0  0  0  0
   -2.7201    1.2350    3.8138 O   0  0  0  0  0  0  0  0  0  0  0  0
   -1.7695    3.0778    1.2118 C   0  0  0  0  0  0  0  0  0  0  0  0
   -0.1192    0.6811    2.9470 H   0  0  0  0  0  0  0  0  0  0  0  0
   -0.3226    3.1115    2.8140 H   0  0  0  0  0  0  0  0  0  0  0  0
   -2.5902    2.4535    0.8401 H   0  0  0  0  0  0  0  0  0  0  0  0
   -2.1776    4.0732    1.4157 H   0  0  0  0  0  0  0  0  0  0  0  0
   -1.0315    3.1700    0.4076 H   0  0  0  0  0  0  0  0  0  0  0  0
   -2.4449    3.5049    4.2098 N   0  0  0  0  0  0  0  0  0  0  0  0
   -3.4003    3.6099    5.2878 C   0  0  0  0  0  0  0  0  0  0  0  0
   -1.9305    4.3411    3.9492 H   0  0  0  0  0  0  0  0  0  0  0  0
   -4.3854    3.8809    4.8803 H   0  0  0  0  0  0  0  0  0  0  0  0
   -3.4724    2.6440    5.8091 H   0  0  0  0  0  0  0  0  0  0  0  0
   -3.0706    4.3848    5.9955 H   0  0  0  0  0  0  0  0  0  0  0  0
  1  3  1  0  0  0  0
  1  7  1  0  0  0  0
  1  2  2  0  0  0  0
 18 19  1  0  0  0  0
 19 24  1  0  0  0  0
 19 20  2  0  0  0  0
 25 26  1  0  0  0  0
 26 34  1  0  0  0  0
 26 27  2  0  0  0  0
  8  9  1  0  0  0  0
  9 17  1  0  0  0  0
  9 10  2  0  0  0  0
 25 28  1  0  0  0  0
  8 11  1  0  0  0  0
 34 35  1  0  0  0  0
 17 18  1  0  0  0  0
 24 25  1  0  0  0  0
  7  8  1  0  0  0  0
  3  4  1  0  0  0  0
  3  5  1  0  0  0  0
  3  6  1  0  0  0  0
 28 31  1  0  0  0  0
 28 32  1  0  0  0  0
 28 33  1  0  0  0  0
 11 14  1  0  0  0  0
 11 15  1  0  0  0  0
 11 16  1  0  0  0  0
 35 37  1  0  0  0  0
 35 38  1  0  0  0  0
 35 39  1  0  0  0  0
 18 22  1  0  0  0  0
 18 23  1  0  0  0  0
 25 30  1  0  0  0  0
  8 13  1  0  0  0  0
 34 36  1  0  0  0  0
 17 21  1  0  0  0  0
  7 12  1  0  0  0  0
 24 29  1  0  0  0  0
M  END
$$$$

  -OEChem-05262214473D

 39 38  0     1  0  0  0  0  0999 V2000
   -3.5200   -4.0268   -1.6943 C   0  0  0  0  0  0  0  0  0  0  0  0
   -2.8702   -4.8827   -1.1054 O   0  0  0  0  0  0  0  0  0  0  0  0
   -4.9704   -4.2579   -1.9614 C   0  0  0  0  0  0  0  0  0  0  0  0
   -5.1456   -4.7573   -2.9278 H   0  0  0  0  0  0  0  0  0  0  0  0
   -5.4379   -4.9112   -1.2072 H   0  0  0  0  0  0  0  0  0  0  0  0
   -5.5954   -3.3510   -1.9864 H   0  0  0  0  0  0  0  0  0  0  0  0
   -3.0424   -2.8131   -2.1606 N   0  0  0  0  0  0  0  0  0  0  0  0
   -1.6755   -2.3891   -2.0077 C   0  0  2  0  0  0  0  0  0  0  0  0
   -1.5782   -1.5673   -0.7292 C   0  0  0  0  0  0  0  0  0  0  0  0
   -2.5448   -1.0064   -0.2171 O   0  0  0  0  0  0  0  0  0  0  0  0
   -1.2087   -1.5823   -3.2094 C   0  0  0  0  0  0  0  0  0  0  0  0
   -3.6915   -2.1888   -2.6360 H   0  0  0  0  0  0  0  0  0  0  0  0
   -1.0721   -3.2977   -1.9053 H   0  0  0  0  0  0  0  0  0  0  0  0
   -1.8017   -0.6681   -3.3281 H   0  0  0  0  0  0  0  0  0  0  0  0
   -0.1601   -1.2849   -3.1045 H   0  0  0  0  0  0  0  0  0  0  0  0
   -1.3074   -2.1646   -4.1319 H   0  0  0  0  0  0  0  0  0  0  0  0
   -0.2835   -1.5112   -0.2725 N   0  0  0  0  0  0  0  0  0  0  0  0
    0.0769   -0.7658    0.9424 C   0  0  0  0  0  0  0  0  0  0  0  0
   -0.8628    0.3998    1.1180 C   0  0  0  0  0  0  0  0  0  0  0  0
   -1.7770    0.6541    0.3384 O   0  0  0  0  0  0  0  0  0  0  0  0
    0.4587   -2.0097   -0.7289 H   0  0  0  0  0  0  0  0  0  0  0  0
    1.1038   -0.4003    0.8494 H   0  0  0  0  0  0  0  0  0  0  0  0
    0.0065   -1.4323    1.8070 H   0  0  0  0  0  0  0  0  0  0  0  0
   -0.5584    1.1356    2.2583 N   0  0  0  0  0  0  0  0  0  0  0  0
   -1.2917    2.3043    2.6681 C   0  0  2  0  0  0  0  0  0  0  0  0
   -1.8277    2.0549    4.0717 C   0  0  0  0  0  0  0  0  0  0  0  0
   -1.9914    0.9290    4.5370 O   0  0  0  0  0  0  0  0  0  0  0  0
   -2.4236    2.6145    1.7011 C   0  0  0  0  0  0  0  0  0  0  0  0
    0.2250    0.8313    2.8339 H   0  0  0  0  0  0  0  0  0  0  0  0
   -0.5768    3.1340    2.6916 H   0  0  0  0  0  0  0  0  0  0  0  0
   -3.1500    1.7944    1.6641 H   0  0  0  0  0  0  0  0  0  0  0  0
   -2.9626    3.5201    1.9986 H   0  0  0  0  0  0  0  0  0  0  0  0
   -2.0394    2.7642    0.6864 H   0  0  0  0  0  0  0  0  0  0  0  0
   -2.1424    3.2367    4.7277 N   0  0  0  0  0  0  0  0  0  0  0  0
   -2.6804    3.2651    6.0678 C   0  0  0  0  0  0  0  0  0  0  0  0
   -1.9562    4.1256    4.2728 H   0  0  0  0  0  0  0  0  0  0  0  0
   -3.7794    3.2762    6.0221 H   0  0  0  0  0  0  0  0  0  0  0  0
   -2.3453    2.3725    6.6163 H   0  0  0  0  0  0  0  0  0  0  0  0
   -2.3260    4.1684    6.5860 H   0  0  0  0  0  0  0  0  0  0  0  0
  1  3  1  0  0  0  0
  1  7  1  0  0  0  0
  1  2  2  0  0  0  0
 18 19  1  0  0  0  0
 19 24  1  0  0  0  0
 19 20  2  0  0  0  0
 25 26  1  0  0  0  0
 26 34  1  0  0  0  0
 26 27  2  0  0  0  0
  8  9  1  0  0  0  0
  9 17  1  0  0  0  0
  9 10  2  0  0  0  0
 25 28  1  0  0  0  0
  8 11  1  0  0  0  0
 34 35  1  0  0  0  0
 17 18  1  0  0  0  0
 24 25  1  0  0  0  0
  7  8  1  0  0  0  0
  3  4  1  0  0  0  0
  3  5  1  0  0  0  0
  3  6  1  0  0  0  0
 28 31  1  0  0  0  0
 28 32  1  0  0  0  0
 28 33  1  0  0  0  0
 11 14  1  0  0  0  0
 11 15  1  0  0  0  0
 11 16  1  0  0  0  0
 35 37  1  0  0  0  0
 35 38  1  0  0  0  0
 35 39  1  0  0  0  0
 18 22  1  0  0  0  0
 18 23  1  0  0  0  0
 25 30  1  0  0  0  0
  8 13  1  0  0  0  0
 34 36  1  0  0  0  0
 17 21  1  0  0  0  0
  7 12  1  0  0  0  0
 24 29  1  0  0  0  0
M  END
$$$$

  -OEChem-05262214473D

 39 38  0     1  0  0  0  0  0999 V2000
   -3.5200   -4.0268   -1.6943 C   0  0  0  0  0  0  0  0  0  0  0  0
   -2.8702   -4.8827   -1.1054 O   0  0  0  0  0  0  0  0  0  0  0  0
   -4.9704   -4.2579   -1.9614 C   0  0  0  0  0  0  0  0  0  0  0  0
   -5.1456   -4.7573   -2.9278 H   0  0  0  0  0  0  0  0  0  0  0  0
   -5.4379   -4.9112   -1.2072 H   0  0  0  0  0  0  0  0  0  0  0  0
   -5.5954   -3.3510   -1.9864 H   0  0  0  0  0  0  0  0  0  0  0  0
   -3.0424   -2.8131   -2.1606 N   0  0  0  0  0  0  0  0  0  0  0  0
   -1.6755   -2.3891   -2.0077 C   0  0  2  0  0  0  0  0  0  0  0  0
   -1.5782   -1.5673   -0.7292 C   0  0  0  0  0  0  0  0  0  0  0  0
   -2.5448   -1.0064   -0.2171 O   0  0  0  0  0  0  0  0  0  0  0  0
   -1.2087   -1.5823   -3.2094 C   0  0  0  0  0  0  0  0  0  0  0  0
   -3.6915   -2.1888   -2.6360 H   0  0  0  0  0  0  0  0  0  0  0  0
   -1.0721   -3.2977   -1.9053 H   0  0  0  0  0  0  0  0  0  0  0  0
   -1.8017   -0.6681   -3.3281 H   0  0  0  0  0  0  0  0  0  0  0  0
   -0.1601   -1.2849   -3.1045 H   0  0  0  0  0  0  0  0  0  0  0  0
   -1.3074   -2.1646   -4.1319 H   0  0  0  0  0  0  0  0  0  0  0  0
   -0.2835   -1.5112   -0.2725 N   0  0  0  0  0  0  0  0  0  0  0  0
    0.0769   -0.7658    0.9424 C   0  0  0  0  0  0  0  0  0  0  0  0
   -0.8628    0.3998    1.1180 C   0  0  0  0  0  0  0  0  0  0  0  0
   -1.9239    0.5099    0.5095 O   0  0  0  0  0  0  0  0  0  0  0  0
    0.4587   -2.0097   -0.7289 H   0  0  0  0  0  0  0  0  0  0  0  0
    1.1038   -0.4003    0.8494 H   0  0  0  0  0  0  0  0  0  0  0  0
    0.0065   -1.4323    1.8070 H   0  0  0  0  0  0  0  0  0  0  0  0
   -0.3736    1.3172    2.0418 N   0  0  0  0  0  0  0  0  0  0  0  0
   -1.0650    2.5271    2.4015 C   0  0  2  0  0  0  0  0  0  0  0  0
   -1.3009    2.5046    3.9059 C   0  0  0  0  0  0  0  0  0  0  0  0
   -1.3167    1.4683    4.5670 O   0  0  0  0  0  0  0  0  0  0  0  0
   -2.3790    2.6586    1.6472 C   0  0  0  0  0  0  0  0  0  0  0  0
    0.5214    1.1224    2.4875 H   0  0  0  0  0  0  0  0  0  0  0  0
   -0.3991    3.3592    2.1480 H   0  0  0  0  0  0  0  0  0  0  0  0
   -3.0593    1.8337    1.8884 H   0  0  0  0  0  0  0  0  0  0  0  0
   -2.8901    3.5933    1.9006 H   0  0  0  0  0  0  0  0  0  0  0  0
   -2.2103    2.6447    0.5650 H   0  0  0  0  0  0  0  0  0  0  0  0
   -1.5344    3.7738    4.4166 N   0  0  0  0  0  0  0  0  0  0  0  0
   -1.7976    4.0147    5.8162 C   0  0  0  0  0  0  0  0  0  0  0  0
   -1.4834    4.5783    3.7986 H   0  0  0  0  0  0  0  0  0  0  0  0
   -2.8833    4.0030    5.9929 H   0  0  0  0  0  0  0  0  0  0  0  0
   -1.3195    3.2291    6.4196 H   0  0  0  0  0  0  0  0  0  0  0  0
   -1.3903    4.9957    6.1022 H   0  0  0  0  0  0  0  0  0  0  0  0
  1  3  1  0  0  0  0
  1  7  1  0  0  0  0
  1  2  2  0  0  0  0
 18 19  1  0  0  0  0
 19 24  1  0  0  0  0
 19 20  2  0  0  0  0
 25 26  1  0  0  0  0
 26 34  1  0  0  0  0
 26 27  2  0  0  0  0
  8  9  1  0  0  0  0
  9 17  1  0  0  0  0
  9 10  2  0  0  0  0
 25 28  1  0  0  0  0
  8 11  1  0  0  0  0
 34 35  1  0  0  0  0
 17 18  1  0  0  0  0
 24 25  1  0  0  0  0
  7  8  1  0  0  0  0
  3  4  1  0  0  0  0
  3  5  1  0  0  0  0
  3  6  1  0  0  0  0
 28 31  1  0  0  0  0
 28 32  1  0  0  0  0
 28 33  1  0  0  0  0
 11 14  1  0  0  0  0
 11 15  1  0  0  0  0
 11 16  1  0  0  0  0
 35 37  1  0  0  0  0
 35 38  1  0  0  0  0
 35 39  1  0  0  0  0
 18 22  1  0  0  0  0
 18 23  1  0  0  0  0
 25 30  1  0  0  0  0
  8 13  1  0  0  0  0
 34 36  1  0  0  0  0
 17 21  1  0  0  0  0
  7 12  1  0  0  0  0
 24 29  1  0  0  0  0
M  END
$$$$

  -OEChem-05262214473D

 39 38  0     1  0  0  0  0  0999 V2000
   -3.5200   -4.0268   -1.6943 C   0  0  0  0  0  0  0  0  0  0  0  0
   -2.8702   -4.8827   -1.1054 O   0  0  0  0  0  0  0  0  0  0  0  0
   -4.9704   -4.2579   -1.9614 C   0  0  0  0  0  0  0  0  0  0  0  0
   -5.1456   -4.7573   -2.9278 H   0  0  0  0  0  0  0  0  0  0  0  0
   -5.4379   -4.9112   -1.2072 H   0  0  0  0  0  0  0  0  0  0  0  0
   -5.5954   -3.3510   -1.9864 H   0  0  0  0  0  0  0  0  0  0  0  0
   -3.0424   -2.8131   -2.1606 N   0  0  0  0  0  0  0  0  0  0  0  0
   -1.6755   -2.3891   -2.0077 C   0  0  2  0  0  0  0  0  0  0  0  0
   -1.5782   -1.5673   -0.7292 C   0  0  0  0  0  0  0  0  0  0  0  0
   -2.5448   -1.0064   -0.2171 O   0  0  0  0  0  0  0  0  0  0  0  0
   -1.2087   -1.5823   -3.2094 C   0  0  0  0  0  0  0  0  0  0  0  0
   -3.6915   -2.1888   -2.6360 H   0  0  0  0  0  0  0  0  0  0  0  0
   -1.0721   -3.2977   -1.9053 H   0  0  0  0  0  0  0  0  0  0  0  0
   -1.8017   -0.6681   -3.3281 H   0  0  0  0  0  0  0  0  0  0  0  0
   -0.1601   -1.2849   -3.1045 H   0  0  0  0  0  0  0  0  0  0  0  0
   -1.3074   -2.1646   -4.1319 H   0  0  0  0  0  0  0  0  0  0  0  0
   -0.2835   -1.5112   -0.2725 N   0  0  0  0  0  0  0  0  0  0  0  0
    0.0769   -0.7658    0.9424 C   0  0  0  0  0  0  0  0  0  0  0  0
   -0.8628    0.3998    1.1180 C   0  0  0  0  0  0  0  0  0  0  0  0
   -2.0272    0.3938    0.7276 O   0  0  0  0  0  0  0  0  0  0  0  0
    0.4587   -2.0097   -0.7289 H   0  0  0  0  0  0  0  0  0  0  0  0
    1.1038   -0.4003    0.8494 H   0  0  0  0  0  0  0  0  0  0  0  0
    0.0065   -1.4323    1.8070 H   0  0  0  0  0  0  0  0  0  0  0  0
   -0.2439    1.4632    1.7665 N   0  0  0  0  0  0  0  0  0  0  0  0
   -0.9062    2.7062    2.0626 C   0  0  2  0  0  0  0  0  0  0  0  0
   -0.8387    2.9281    3.5678 C   0  0  0  0  0  0  0  0  0  0  0  0
   -0.6754    2.0145    4.3739 O   0  0  0  0  0  0  0  0  0  0  0  0
   -2.3480    2.6939    1.5791 C   0  0  0  0  0  0  0  0  0  0  0  0
    0.7296    1.3566    2.0467 H   0  0  0  0  0  0  0  0  0  0  0  0
   -0.3430    3.4943    1.5511 H   0  0  0  0  0  0  0  0  0  0  0  0
   -2.9281    1.9106    2.0806 H   0  0  0  0  0  0  0  0  0  0  0  0
   -2.8419    3.6504    1.7795 H   0  0  0  0  0  0  0  0  0  0  0  0
   -2.3960    2.5045    0.5013 H   0  0  0  0  0  0  0  0  0  0  0  0
   -1.0255    4.2606    3.9078 N   0  0  0  0  0  0  0  0  0  0  0  0
   -1.0179    4.7248    5.2755 C   0  0  0  0  0  0  0  0  0  0  0  0
   -1.1352    4.9532    3.1729 H   0  0  0  0  0  0  0  0  0  0  0  0
   -2.0454    4.7274    5.6681 H   0  0  0  0  0  0  0  0  0  0  0  0
   -0.3939    4.0556    5.8862 H   0  0  0  0  0  0  0  0  0  0  0  0
   -0.6082    5.7449    5.3141 H   0  0  0  0  0  0  0  0  0  0  0  0
  1  3  1  0  0  0  0
  1  7  1  0  0  0  0
  1  2  2  0  0  0  0
 18 19  1  0  0  0  0
 19 24  1  0  0  0  0
 19 20  2  0  0  0  0
 25 26  1  0  0  0  0
 26 34  1  0  0  0  0
 26 27  2  0  0  0  0
  8  9  1  0  0  0  0
  9 17  1  0  0  0  0
  9 10  2  0  0  0  0
 25 28  1  0  0  0  0
  8 11  1  0  0  0  0
 34 35  1  0  0  0  0
 17 18  1  0  0  0  0
 24 25  1  0  0  0  0
  7  8  1  0  0  0  0
  3  4  1  0  0  0  0
  3  5  1  0  0  0  0
  3  6  1  0  0  0  0
 28 31  1  0  0  0  0
 28 32  1  0  0  0  0
 28 33  1  0  0  0  0
 11 14  1  0  0  0  0
 11 15  1  0  0  0  0
 11 16  1  0  0  0  0
 35 37  1  0  0  0  0
 35 38  1  0  0  0  0
 35 39  1  0  0  0  0
 18 22  1  0  0  0  0
 18 23  1  0  0  0  0
 25 30  1  0  0  0  0
  8 13  1  0  0  0  0
 34 36  1  0  0  0  0
 17 21  1  0  0  0  0
  7 12  1  0  0  0  0
 24 29  1  0  0  0  0
M  END
$$$$

  -OEChem-05262214473D

 39 38  0     1  0  0  0  0  0999 V2000
   -3.5200   -4.0268   -1.6943 C   0  0  0  0  0  0  0  0  0  0  0  0
   -2.8702   -4.8827   -1.1054 O   0  0  0  0  0  0  0  0  0  0  0  0
   -4.9704   -4.2579   -1.9614 C   0  0  0  0  0  0  0  0  0  0  0  0
   -5.1456   -4.7573   -2.9278 H   0  0  0  0  0  0  0  0  0  0  0  0
   -5.4379   -4.9112   -1.2072 H   0  0  0  0  0  0  0  0  0  0  0  0
   -5.5954   -3.3510   -1.9864 H   0  0  0  0  0  0  0  0  0  0  0  0
   -3.0424   -2.8131   -2.1606 N   0  0  0  0  0  0  0  0  0  0  0  0
   -1.6755   -2.3891   -2.0077 C   0  0  2  0  0  0  0  0  0  0  0  0
   -1.5782   -1.5673   -0.7292 C   0  0  0  0  0  0  0  0  0  0  0  0
   -2.5448   -1.0064   -0.2171 O   0  0  0  0  0  0  0  0  0  0  0  0
   -1.2087   -1.5823   -3.2094 C   0  0  0  0  0  0  0  0  0  0  0  0
   -3.6915   -2.1888   -2.6360 H   0  0  0  0  0  0  0  0  0  0  0  0
   -1.0721   -3.2977   -1.9053 H   0  0  0  0  0  0  0  0  0  0  0  0
   -1.8017   -0.6681   -3.3281 H   0  0  0  0  0  0  0  0  0  0  0  0
   -0.1601   -1.2849   -3.1045 H   0  0  0  0  0  0  0  0  0  0  0  0
   -1.3074   -2.1646   -4.1319 H   0  0  0  0  0  0  0  0  0  0  0  0
   -0.2835   -1.5112   -0.2725 N   0  0  0  0  0  0  0  0  0  0  0  0
    0.0769   -0.7658    0.9424 C   0  0  0  0  0  0  0  0  0  0  0  0
   -0.8628    0.3998    1.1180 C   0  0  0  0  0  0  0  0  0  0  0  0
   -2.0798    0.3137    0.9775 O   0  0  0  0  0  0  0  0  0  0  0  0
    0.4587   -2.0097   -0.7289 H   0  0  0  0  0  0  0  0  0  0  0  0
    1.1038   -0.4003    0.8494 H   0  0  0  0  0  0  0  0  0  0  0  0
    0.0065   -1.4323    1.8070 H   0  0  0  0  0  0  0  0  0  0  0  0
   -0.1782    1.5637    1.4510 N   0  0  0  0  0  0  0  0  0  0  0  0
   -0.8260    2.8293    1.6746 C   0  0  2  0  0  0  0  0  0  0  0  0
   -0.4728    3.2966    3.0805 C   0  0  0  0  0  0  0  0  0  0  0  0
   -0.1109    2.5302    3.9709 O   0  0  0  0  0  0  0  0  0  0  0  0
   -2.3328    2.7179    1.5014 C   0  0  0  0  0  0  0  0  0  0  0  0
    0.8354    1.5181    1.5414 H   0  0  0  0  0  0  0  0  0  0  0  0
   -0.4123    3.5303    0.9415 H   0  0  0  0  0  0  0  0  0  0  0  0
   -2.7651    2.0198    2.2275 H   0  0  0  0  0  0  0  0  0  0  0  0
   -2.8213    3.6875    1.6438 H   0  0  0  0  0  0  0  0  0  0  0  0
   -2.5840    2.3533    0.4996 H   0  0  0  0  0  0  0  0  0  0  0  0
   -0.6505    4.6642    3.2360 N   0  0  0  0  0  0  0  0  0  0  0  0
   -0.3943    5.3469    4.4827 C   0  0  0  0  0  0  0  0  0  0  0  0
   -0.9354    5.2249    2.4384 H   0  0  0  0  0  0  0  0  0  0  0  0
   -1.3230    5.3999    5.0699 H   0  0  0  0  0  0  0  0  0  0  0  0
    0.3685    4.7959    5.0523 H   0  0  0  0  0  0  0  0  0  0  0  0
   -0.0330    6.3650    4.2755 H   0  0  0  0  0  0  0  0  0  0  0  0
  1  3  1  0  0  0  0
  1  7  1  0  0  0  0
  1  2  2  0  0  0  0
 18 19  1  0  0  0  0
 19 24  1  0  0  0  0
 19 20  2  0  0  0  0
 25 26  1  0  0  0  0
 26 34  1  0  0  0  0
 26 27  2  0  0  0  0
  8  9  1  0  0  0  0
  9 17  1  0  0  0  0
  9 10  2  0  0  0  0
 25 28  1  0  0  0  0
  8 11  1  0  0  0  0
 34 35  1  0  0  0  0
 17 18  1  0  0  0  0
 24 25  1  0  0  0  0
  7  8  1  0  0  0  0
  3  4  1  0  0  0  0
  3  5  1  0  0  0  0
  3  6  1  0  0  0  0
 28 31  1  0  0  0  0
 28 32  1  0  0  0  0
 28 33  1  0  0  0  0
 11 14  1  0  0  0  0
 11 15  1  0  0  0  0
 11 16  1  0  0  0  0
 35 37  1  0  0  0  0
 35 38  1  0  0  0  0
 35 39  1  0  0  0  0
 18 22  1  0  0  0  0
 18 23  1  0  0  0  0
 25 30  1  0  0  0  0
  8 13  1  0  0  0  0
 34 36  1  0  0  0  0
 17 21  1  0  0  0  0
  7 12  1  0  0  0  0
 24 29  1  0  0  0  0
M  END
$$$$

  -OEChem-05262214473D

 39 38  0     1  0  0  0  0  0999 V2000
   -3.5200   -4.0268   -1.6943 C   0  0  0  0  0  0  0  0  0  0  0  0
   -2.8702   -4.8827   -1.1054 O   0  0  0  0  0  0  0  0  0  0  0  0
   -4.9704   -4.2579   -1.9614 C   0  0  0  0  0  0  0  0  0  0  0  0
   -5.1456   -4.7573   -2.9278 H   0  0  0  0  0  0  0  0  0  0  0  0
   -5.4379   -4.9112   -1.2072 H   0  0  0  0  0  0  0  0  0  0  0  0
   -5.5954   -3.3510   -1.9864 H   0  0  0  0  0  0  0  0  0  0  0  0
   -3.0424   -2.8131   -2.1606 N   0  0  0  0  0  0  0  0  0  0  0  0
   -1.6755   -2.3891   -2.0077 C   0  0  2  0  0  0  0  0  0  0  0  0
   -1.5782   -1.5673   -0.7292 C   0  0  0  0  0  0  0  0  0  0  0  0
   -2.5448   -1.0064   -0.2171 O   0  0  0  0  0  0  0  0  0  0  0  0
   -1.2087   -1.5823   -3.2094 C   0  0  0  0  0  0  0  0  0  0  0  0
   -3.6915   -2.1888   -2.6360 H   0  0  0  0  0  0  0  0  0  0  0  0
   -1.0721   -3.2977   -1.9053 H   0  0  0  0  0  0  0  0  0  0  0  0
   -1.8017   -0.6681   -3.3281 H   0  0  0  0  0  0  0  0  0  0  0  0
   -0.1601   -1.2849   -3.1045 H   0  0  0  0  0  0  0  0  0  0  0  0
   -1.3074   -2.1646   -4.1319 H   0  0  0  0  0  0  0  0  0  0  0  0
   -0.2835   -1.5112   -0.2725 N   0  0  0  0  0  0  0  0  0  0  0  0
    0.0769   -0.7658    0.9424 C   0  0  0  0  0  0  0  0  0  0  0  0
   -0.8628    0.3998    1.1180 C   0  0  0  0  0  0  0  0  0  0  0  0
   -2.0782    0.2751    1.2424 O   0  0  0  0  0  0  0  0  0  0  0  0
    0.4587   -2.0097   -0.7289 H   0  0  0  0  0  0  0  0  0  0  0  0
    1.1038   -0.4003    0.8494 H   0  0  0  0  0  0  0  0  0  0  0  0
    0.0065   -1.4323    1.8070 H   0  0  0  0  0  0  0  0  0  0  0  0
   -0.1808    1.6119    1.1169 N   0  0  0  0  0  0  0  0  0  0  0  0
   -0.8299    2.8880    1.2640 C   0  0  2  0  0  0  0  0  0  0  0  0
   -0.2279    3.5849    2.4770 C   0  0  0  0  0  0  0  0  0  0  0  0
    0.3381    2.9804    3.3855 O   0  0  0  0  0  0  0  0  0  0  0  0
   -2.3343    2.7290    1.4195 C   0  0  0  0  0  0  0  0  0  0  0  0
    0.8317    1.5957    1.0062 H   0  0  0  0  0  0  0  0  0  0  0  0
   -0.6024    3.4645    0.3607 H   0  0  0  0  0  0  0  0  0  0  0  0
   -2.5816    2.1539    2.3192 H   0  0  0  0  0  0  0  0  0  0  0  0
   -2.8297    3.7020    1.5026 H   0  0  0  0  0  0  0  0  0  0  0  0
   -2.7613    2.2012    0.5599 H   0  0  0  0  0  0  0  0  0  0  0  0
   -0.4349    4.9569    2.4469 N   0  0  0  0  0  0  0  0  0  0  0  0
    0.0305    5.8387    3.4917 C   0  0  0  0  0  0  0  0  0  0  0  0
   -0.8976    5.3749    1.6451 H   0  0  0  0  0  0  0  0  0  0  0  0
   -0.7652    5.9748    4.2389 H   0  0  0  0  0  0  0  0  0  0  0  0
    0.9157    5.3994    3.9748 H   0  0  0  0  0  0  0  0  0  0  0  0
    0.2960    6.8138    3.0572 H   0  0  0  0  0  0  0  0  0  0  0  0
  1  3  1  0  0  0  0
  1  7  1  0  0  0  0
  1  2  2  0  0  0  0
 18 19  1  0  0  0  0
 19 24  1  0  0  0  0
 19 20  2  0  0  0  0
 25 26  1  0  0  0  0
 26 34  1  0  0  0  0
 26 27  2  0  0  0  0
  8  9  1  0  0  0  0
  9 17  1  0  0  0  0
  9 10  2  0  0  0  0
 25 28  1  0  0  0  0
  8 11  1  0  0  0  0
 34 35  1  0  0  0  0
 17 18  1  0  0  0  0
 24 25  1  0  0  0  0
  7  8  1  0  0  0  0
  3  4  1  0  0  0  0
  3  5  1  0  0  0  0
  3  6  1  0  0  0  0
 28 31  1  0  0  0  0
 28 32  1  0  0  0  0
 28 33  1  0  0  0  0
 11 14  1  0  0  0  0
 11 15  1  0  0  0  0
 11 16  1  0  0  0  0
 35 37  1  0  0  0  0
 35 38  1  0  0  0  0
 35 39  1  0  0  0  0
 18 22  1  0  0  0  0
 18 23  1  0  0  0  0
 25 30  1  0  0  0  0
  8 13  1  0  0  0  0
 34 36  1  0  0  0  0
 17 21  1  0  0  0  0
  7 12  1  0  0  0  0
 24 29  1  0  0  0  0
M  END
$$$$

  -OEChem-05262214473D

 39 38  0     1  0  0  0  0  0999 V2000
   -3.5200   -4.0268   -1.6943 C   0  0  0  0  0  0  0  0  0  0  0  0
   -2.8702   -4.8827   -1.1054 O   0  0  0  0  0  0  0  0  0  0  0  0
   -4.9704   -4.2579   -1.9614 C   0  0  0  0  0  0  0  0  0  0  0  0
   -5.1456   -4.7573   -2.9278 H   0  0  0  0  0  0  0  0  0  0  0  0
   -5.4379   -4.9112   -1.2072 H   0  0  0  0  0  0  0  0  0  0  0  0
   -5.5954   -3.3510   -1.9864 H   0  0  0  0  0  0  0  0  0  0  0  0
   -3.0424   -2.8131   -2.1606 N   0  0  0  0  0  0  0  0  0  0  0  0
   -1.6755   -2.3891   -2.0077 C   0  0  2  0  0  0  0  0  0  0  0  0
   -1.5782   -1.5673   -0.7292 C   0  0  0  0  0  0  0  0  0  0  0  0
   -2.5448   -1.0064   -0.2171 O   0  0  0  0  0  0  0  0  0  0  0  0
   -1.2087   -1.5823   -3.2094 C   0  0  0  0  0  0  0  0  0  0  0  0
   -3.6915   -2.1888   -2.6360 H   0  0  0  0  0  0  0  0  0  0  0  0
   -1.0721   -3.2977   -1.9053 H   0  0  0  0  0  0  0  0  0  0  0  0
   -1.8017   -0.6681   -3.3281 H   0  0  0  0  0  0  0  0  0  0  0  0
   -0.1601   -1.2849   -3.1045 H   0  0  0  0  0  0  0  0  0  0  0  0
   -1.3074   -2.1646   -4.1319 H   0  0  0  0  0  0  0  0  0  0  0  0
   -0.2835   -1.5112   -0.2725 N   0  0  0  0  0  0  0  0  0  0  0  0
    0.0769   -0.7658    0.9424 C   0  0  0  0  0  0  0  0  0  0  0  0
   -0.8628    0.3998    1.1180 C   0  0  0  0  0  0  0  0  0  0  0  0
   -2.0225    0.2806    1.5042 O   0  0  0  0  0  0  0  0  0  0  0  0
    0.4587   -2.0097   -0.7289 H   0  0  0  0  0  0  0  0  0  0  0  0
    1.1038   -0.4003    0.8494 H   0  0  0  0  0  0  0  0  0  0  0  0
    0.0065   -1.4323    1.8070 H   0  0  0  0  0  0  0  0  0  0  0  0
   -0.2517    1.6045    0.7869 N   0  0  0  0  0  0  0  0  0  0  0  0
   -0.9176    2.8784    0.8586 C   0  0  2  0  0  0  0  0  0  0  0  0
   -0.1208    3.7734    1.7986 C   0  0  0  0  0  0  0  0  0  0  0  0
    0.6411    3.3343    2.6576 O   0  0  0  0  0  0  0  0  0  0  0  0
   -2.3525    2.7264    1.3388 C   0  0  0  0  0  0  0  0  0  0  0  0
    0.7186    1.5841    0.4774 H   0  0  0  0  0  0  0  0  0  0  0  0
   -0.9002    3.3016   -0.1517 H   0  0  0  0  0  0  0  0  0  0  0  0
   -2.3901    2.3038    2.3495 H   0  0  0  0  0  0  0  0  0  0  0  0
   -2.8664    3.6930    1.3655 H   0  0  0  0  0  0  0  0  0  0  0  0
   -2.9160    2.0587    0.6782 H   0  0  0  0  0  0  0  0  0  0  0  0
   -0.3934    5.1188    1.5943 N   0  0  0  0  0  0  0  0  0  0  0  0
    0.2278    6.1667    2.3701 C   0  0  0  0  0  0  0  0  0  0  0  0
   -1.0244    5.3929    0.8470 H   0  0  0  0  0  0  0  0  0  0  0  0
   -0.4100    6.4128    3.2319 H   0  0  0  0  0  0  0  0  0  0  0  0
    1.2105    5.8249    2.7272 H   0  0  0  0  0  0  0  0  0  0  0  0
    0.3564    7.0606    1.7421 H   0  0  0  0  0  0  0  0  0  0  0  0
  1  3  1  0  0  0  0
  1  7  1  0  0  0  0
  1  2  2  0  0  0  0
 18 19  1  0  0  0  0
 19 24  1  0  0  0  0
 19 20  2  0  0  0  0
 25 26  1  0  0  0  0
 26 34  1  0  0  0  0
 26 27  2  0  0  0  0
  8  9  1  0  0  0  0
  9 17  1  0  0  0  0
  9 10  2  0  0  0  0
 25 28  1  0  0  0  0
  8 11  1  0  0  0  0
 34 35  1  0  0  0  0
 17 18  1  0  0  0  0
 24 25  1  0  0  0  0
  7  8  1  0  0  0  0
  3  4  1  0  0  0  0
  3  5  1  0  0  0  0
  3  6  1  0  0  0  0
 28 31  1  0  0  0  0
 28 32  1  0  0  0  0
 28 33  1  0  0  0  0
 11 14  1  0  0  0  0
 11 15  1  0  0  0  0
 11 16  1  0  0  0  0
 35 37  1  0  0  0  0
 35 38  1  0  0  0  0
 35 39  1  0  0  0  0
 18 22  1  0  0  0  0
 18 23  1  0  0  0  0
 25 30  1  0  0  0  0
  8 13  1  0  0  0  0
 34 36  1  0  0  0  0
 17 21  1  0  0  0  0
  7 12  1  0  0  0  0
 24 29  1  0  0  0  0
M  END
$$$$

  -OEChem-05262214473D

 39 38  0     1  0  0  0  0  0999 V2000
   -3.5200   -4.0268   -1.6943 C   0  0  0  0  0  0  0  0  0  0  0  0
   -2.8702   -4.8827   -1.1054 O   0  0  0  0  0  0  0  0  0  0  0  0
   -4.9704   -4.2579   -1.9614 C   0  0  0  0  0  0  0  0  0  0  0  0
   -5.1456   -4.7573   -2.9278 H   0  0  0  0  0  0  0  0  0  0  0  0
   -5.4379   -4.9112   -1.2072 H   0  0  0  0  0  0  0  0  0  0  0  0
   -5.5954   -3.3510   -1.9864 H   0  0  0  0  0  0  0  0  0  0  0  0
   -3.0424   -2.8131   -2.1606 N   0  0  0  0  0  0  0  0  0  0  0  0
   -1.6755   -2.3891   -2.0077 C   0  0  2  0  0  0  0  0  0  0  0  0
   -1.5782   -1.5673   -0.7292 C   0  0  0  0  0  0  0  0  0  0  0  0
   -2.5448   -1.0064   -0.2171 O   0  0  0  0  0  0  0  0  0  0  0  0
   -1.2087   -1.5823   -3.2094 C   0  0  0  0  0  0  0  0  0  0  0  0
   -3.6915   -2.1888   -2.6360 H   0  0  0  0  0  0  0  0  0  0  0  0
   -1.0721   -3.2977   -1.9053 H   0  0  0  0  0  0  0  0  0  0  0  0
   -1.8017   -0.6681   -3.3281 H   0  0  0  0  0  0  0  0  0  0  0  0
   -0.1601   -1.2849   -3.1045 H   0  0  0  0  0  0  0  0  0  0  0  0
   -1.3074   -2.1646   -4.1319 H   0  0  0  0  0  0  0  0  0  0  0  0
   -0.2835   -1.5112   -0.2725 N   0  0  0  0  0  0  0  0  0  0  0  0
    0.0769   -0.7658    0.9424 C   0  0  0  0  0  0  0  0  0  0  0  0
   -0.8628    0.3998    1.1180 C   0  0  0  0  0  0  0  0  0  0  0  0
   -1.9165    0.3298    1.7451 O   0  0  0  0  0  0  0  0  0  0  0  0
    0.4587   -2.0097   -0.7289 H   0  0  0  0  0  0  0  0  0  0  0  0
    1.1038   -0.4003    0.8494 H   0  0  0  0  0  0  0  0  0  0  0  0
    0.0065   -1.4323    1.8070 H   0  0  0  0  0  0  0  0  0  0  0  0
   -0.3859    1.5419    0.4836 N   0  0  0  0  0  0  0  0  0  0  0  0
   -1.0831    2.8010    0.4861 C   0  0  2  0  0  0  0  0  0  0  0  0
   -0.1589    3.8492    1.0915 C   0  0  0  0  0  0  0  0  0  0  0  0
    0.7774    3.5678    1.8367 O   0  0  0  0  0  0  0  0  0  0  0  0
   -2.3862    2.7104    1.2650 C   0  0  0  0  0  0  0  0  0  0  0  0
    0.5039    1.4843   -0.0089 H   0  0  0  0  0  0  0  0  0  0  0  0
   -1.2855    3.0526   -0.5607 H   0  0  0  0  0  0  0  0  0  0  0  0
   -2.2035    2.4592    2.3162 H   0  0  0  0  0  0  0  0  0  0  0  0
   -2.9291    3.6611    1.2419 H   0  0  0  0  0  0  0  0  0  0  0  0
   -3.0374    1.9355    0.8463 H   0  0  0  0  0  0  0  0  0  0  0  0
   -0.5288    5.1388    0.7363 N   0  0  0  0  0  0  0  0  0  0  0  0
    0.1840    6.3085    1.1944 C   0  0  0  0  0  0  0  0  0  0  0  0
   -1.3071    5.2777    0.0986 H   0  0  0  0  0  0  0  0  0  0  0  0
   -0.2816    6.6842    2.1174 H   0  0  0  0  0  0  0  0  0  0  0  0
    1.2328    6.0436    1.3944 H   0  0  0  0  0  0  0  0  0  0  0  0
    0.1442    7.0886    0.4199 H   0  0  0  0  0  0  0  0  0  0  0  0
  1  3  1  0  0  0  0
  1  7  1  0  0  0  0
  1  2  2  0  0  0  0
 18 19  1  0  0  0  0
 19 24  1  0  0  0  0
 19 20  2  0  0  0  0
 25 26  1  0  0  0  0
 26 34  1  0  0  0  0
 26 27  2  0  0  0  0
  8  9  1  0  0  0  0
  9 17  1  0  0  0  0
  9 10  2  0  0  0  0
 25 28  1  0  0  0  0
  8 11  1  0  0  0  0
 34 35  1  0  0  0  0
 17 18  1  0  0  0  0
 24 25  1  0  0  0  0
  7  8  1  0  0  0  0
  3  4  1  0  0  0  0
  3  5  1  0  0  0  0
  3  6  1  0  0  0  0
 28 31  1  0  0  0  0
 28 32  1  0  0  0  0
 28 33  1  0  0  0  0
 11 14  1  0  0  0  0
 11 15  1  0  0  0  0
 11 16  1  0  0  0  0
 35 37  1  0  0  0  0
 35 38  1  0  0  0  0
 35 39  1  0  0  0  0
 18 22  1  0  0  0  0
 18 23  1  0  0  0  0
 25 30  1  0  0  0  0
  8 13  1  0  0  0  0
 34 36  1  0  0  0  0
 17 21  1  0  0  0  0
  7 12  1  0  0  0  0
 24 29  1  0  0  0  0
M  END
$$$$

  -OEChem-05262214473D

 39 38  0     1  0  0  0  0  0999 V2000
   -3.5200   -4.0268   -1.6943 C   0  0  0  0  0  0  0  0  0  0  0  0
   -2.8702   -4.8827   -1.1054 O   0  0  0  0  0  0  0  0  0  0  0  0
   -4.9704   -4.2579   -1.9614 C   0  0  0  0  0  0  0  0  0  0  0  0
   -5.1456   -4.7573   -2.9278 H   0  0  0  0  0  0  0  0  0  0  0  0
   -5.4379   -4.9112   -1.2072 H   0  0  0  0  0  0  0  0  0  0  0  0
   -5.5954   -3.3510   -1.9864 H   0  0  0  0  0  0  0  0  0  0  0  0
   -3.0424   -2.8131   -2.1606 N   0  0  0  0  0  0  0  0  0  0  0  0
   -1.6755   -2.3891   -2.0077 C   0  0  2  0  0  0  0  0  0  0  0  0
   -1.5782   -1.5673   -0.7292 C   0  0  0  0  0  0  0  0  0  0  0  0
   -2.5448   -1.0064   -0.2171 O   0  0  0  0  0  0  0  0  0  0  0  0
   -1.2087   -1.5823   -3.2094 C   0  0  0  0  0  0  0  0  0  0  0  0
   -3.6915   -2.1888   -2.6360 H   0  0  0  0  0  0  0  0  0  0  0  0
   -1.0721   -3.2977   -1.9053 H   0  0  0  0  0  0  0  0  0  0  0  0
   -1.8017   -0.6681   -3.3281 H   0  0  0  0  0  0  0  0  0  0  0  0
   -0.1601   -1.2849   -3.1045 H   0  0  0  0  0  0  0  0  0  0  0  0
   -1.3074   -2.1646   -4.1319 H   0  0  0  0  0  0  0  0  0  0  0  0
   -0.2835   -1.5112   -0.2725 N   0  0  0  0  0  0  0  0  0  0  0  0
    0.0769   -0.7658    0.9424 C   0  0  0  0  0  0  0  0  0  0  0  0
   -0.8628    0.3998    1.1180 C   0  0  0  0  0  0  0  0  0  0  0  0
   -1.7673    0.4194    1.9485 O   0  0  0  0  0  0  0  0  0  0  0  0
    0.4587   -2.0097   -0.7289 H   0  0  0  0  0  0  0  0  0  0  0  0
    1.1038   -0.4003    0.8494 H   0  0  0  0  0  0  0  0  0  0  0  0
    0.0065   -1.4323    1.8070 H   0  0  0  0  0  0  0  0  0  0  0  0
   -0.5745    1.4285    0.2275 N   0  0  0  0  0  0  0  0  0  0  0  0
   -1.3153    2.6612    0.1719 C   0  0  2  0  0  0  0  0  0  0  0  0
   -0.3394    3.8072    0.4038 C   0  0  0  0  0  0  0  0  0  0  0  0
    0.7377    3.6651    0.9789 O   0  0  0  0  0  0  0  0  0  0  0  0
   -2.4330    2.6820    1.2030 C   0  0  0  0  0  0  0  0  0  0  0  0
    0.2022    1.3029   -0.4196 H   0  0  0  0  0  0  0  0  0  0  0  0
   -1.7320    2.7344   -0.8385 H   0  0  0  0  0  0  0  0  0  0  0  0
   -2.0347    2.6095    2.2216 H   0  0  0  0  0  0  0  0  0  0  0  0
   -3.0135    3.6084    1.1402 H   0  0  0  0  0  0  0  0  0  0  0  0
   -3.1173    1.8400    1.0530 H   0  0  0  0  0  0  0  0  0  0  0  0
   -0.8319    5.0157   -0.0686 N   0  0  0  0  0  0  0  0  0  0  0  0
   -0.0978    6.2544    0.0445 C   0  0  0  0  0  0  0  0  0  0  0  0
   -1.7265    5.0371   -0.5491 H   0  0  0  0  0  0  0  0  0  0  0  0
   -0.3888    6.7704    0.9714 H   0  0  0  0  0  0  0  0  0  0  0  0
    0.9809    6.0405    0.0673 H   0  0  0  0  0  0  0  0  0  0  0  0
   -0.3262    6.8960   -0.8193 H   0  0  0  0  0  0  0  0  0  0  0  0
  1  3  1  0  0  0  0
  1  7  1  0  0  0  0
  1  2  2  0  0  0  0
 18 19  1  0  0  0  0
 19 24  1  0  0  0  0
 19 20  2  0  0  0  0
 25 26  1  0  0  0  0
 26 34  1  0  0  0  0
 26 27  2  0  0  0  0
  8  9  1  0  0  0  0
  9 17  1  0  0  0  0
  9 10  2  0  0  0  0
 25 28  1  0  0  0  0
  8 11  1  0  0  0  0
 34 35  1  0  0  0  0
 17 18  1  0  0  0  0
 24 25  1  0  0  0  0
  7  8  1  0  0  0  0
  3  4  1  0  0  0  0
  3  5  1  0  0  0  0
  3  6  1  0  0  0  0
 28 31  1  0  0  0  0
 28 32  1  0  0  0  0
 28 33  1  0  0  0  0
 11 14  1  0  0  0  0
 11 15  1  0  0  0  0
 11 16  1  0  0  0  0
 35 37  1  0  0  0  0
 35 38  1  0  0  0  0
 35 39  1  0  0  0  0
 18 22  1  0  0  0  0
 18 23  1  0  0  0  0
 25 30  1  0  0  0  0
  8 13  1  0  0  0  0
 34 36  1  0  0  0  0
 17 21  1  0  0  0  0
  7 12  1  0  0  0  0
 24 29  1  0  0  0  0
M  END
$$$$

  -OEChem-05262214473D

 39 38  0     1  0  0  0  0  0999 V2000
   -3.5200   -4.0268   -1.6943 C   0  0  0  0  0  0  0  0  0  0  0  0
   -2.8702   -4.8827   -1.1054 O   0  0  0  0  0  0  0  0  0  0  0  0
   -4.9704   -4.2579   -1.9614 C   0  0  0  0  0  0  0  0  0  0  0  0
   -5.1456   -4.7573   -2.9278 H   0  0  0  0  0  0  0  0  0  0  0  0
   -5.4379   -4.9112   -1.2072 H   0  0  0  0  0  0  0  0  0  0  0  0
   -5.5954   -3.3510   -1.9864 H   0  0  0  0  0  0  0  0  0  0  0  0
   -3.0424   -2.8131   -2.1606 N   0  0  0  0  0  0  0  0  0  0  0  0
   -1.6755   -2.3891   -2.0077 C   0  0  2  0  0  0  0  0  0  0  0  0
   -1.5782   -1.5673   -0.7292 C   0  0  0  0  0  0  0  0  0  0  0  0
   -2.5448   -1.0064   -0.2171 O   0  0  0  0  0  0  0  0  0  0  0  0
   -1.2087   -1.5823   -3.2094 C   0  0  0  0  0  0  0  0  0  0  0  0
   -3.6915   -2.1888   -2.6360 H   0  0  0  0  0  0  0  0  0  0  0  0
   -1.0721   -3.2977   -1.9053 H   0  0  0  0  0  0  0  0  0  0  0  0
   -1.8017   -0.6681   -3.3281 H   0  0  0  0  0  0  0  0  0  0  0  0
   -0.1601   -1.2849   -3.1045 H   0  0  0  0  0  0  0  0  0  0  0  0
   -1.3074   -2.1646   -4.1319 H   0  0  0  0  0  0  0  0  0  0  0  0
   -0.2835   -1.5112   -0.2725 N   0  0  0  0  0  0  0  0  0  0  0  0
    0.0769   -0.7658    0.9424 C   0  0  0  0  0  0  0  0  0  0  0  0
   -0.8628    0.3998    1.1180 C   0  0  0  0  0  0  0  0  0  0  0  0
   -1.5852    0.5433    2.1008 O   0  0  0  0  0  0  0  0  0  0  0  0
    0.4587   -2.0097   -0.7289 H   0  0  0  0  0  0  0  0  0  0  0  0
    1.1038   -0.4003    0.8494 H   0  0  0  0  0  0  0  0  0  0  0  0
    0.0065   -1.4323    1.8070 H   0  0  0  0  0  0  0  0  0  0  0  0
   -0.8044    1.2720    0.0362 N   0  0  0  0  0  0  0  0  0  0  0  0
   -1.5981    2.4685   -0.0625 C   0  0  2  0  0  0  0  0  0  0  0  0
   -0.6501    3.6503   -0.2175 C   0  0  0  0  0  0  0  0  0  0  0  0
    0.5248    3.6195    0.1425 O   0  0  0  0  0  0  0  0  0  0  0  0
   -2.4898    2.6432    1.1570 C   0  0  0  0  0  0  0  0  0  0  0  0
   -0.1660    1.0523   -0.7266 H   0  0  0  0  0  0  0  0  0  0  0  0
   -2.2093    2.3689   -0.9661 H   0  0  0  0  0  0  0  0  0  0  0  0
   -1.8951    2.7446    2.0722 H   0  0  0  0  0  0  0  0  0  0  0  0
   -3.1137    3.5386    1.0674 H   0  0  0  0  0  0  0  0  0  0  0  0
   -3.1502    1.7786    1.2840 H   0  0  0  0  0  0  0  0  0  0  0  0
   -1.2820    4.7578   -0.7655 N   0  0  0  0  0  0  0  0  0  0  0  0
   -0.5986    6.0082   -1.0010 C   0  0  0  0  0  0  0  0  0  0  0  0
   -2.2540    4.6877   -1.0521 H   0  0  0  0  0  0  0  0  0  0  0  0
   -0.7243    6.6655   -0.1279 H   0  0  0  0  0  0  0  0  0  0  0  0
    0.4722    5.8157   -1.1636 H   0  0  0  0  0  0  0  0  0  0  0  0
   -1.0228    6.4959   -1.8910 H   0  0  0  0  0  0  0  0  0  0  0  0
  1  3  1  0  0  0  0
  1  7  1  0  0  0  0
  1  2  2  0  0  0  0
 18 19  1  0  0  0  0
 19 24  1  0  0  0  0
 19 20  2  0  0  0  0
 25 26  1  0  0  0  0
 26 34  1  0  0  0  0
 26 27  2  0  0  0  0
  8  9  1  0  0  0  0
  9 17  1  0  0  0  0
  9 10  2  0  0  0  0
 25 28  1  0  0  0  0
  8 11  1  0  0  0  0
 34 35  1  0  0  0  0
 17 18  1  0  0  0  0
 24 25  1  0  0  0  0
  7  8  1  0  0  0  0
  3  4  1  0  0  0  0
  3  5  1  0  0  0  0
  3  6  1  0  0  0  0
 28 31  1  0  0  0  0
 28 32  1  0  0  0  0
 28 33  1  0  0  0  0
 11 14  1  0  0  0  0
 11 15  1  0  0  0  0
 11 16  1  0  0  0  0
 35 37  1  0  0  0  0
 35 38  1  0  0  0  0
 35 39  1  0  0  0  0
 18 22  1  0  0  0  0
 18 23  1  0  0  0  0
 25 30  1  0  0  0  0
  8 13  1  0  0  0  0
 34 36  1  0  0  0  0
 17 21  1  0  0  0  0
  7 12  1  0  0  0  0
 24 29  1  0  0  0  0
M  END
$$$$

  -OEChem-05262214473D

 39 38  0     1  0  0  0  0  0999 V2000
   -3.5200   -4.0268   -1.6943 C   0  0  0  0  0  0  0  0  0  0  0  0
   -2.8702   -4.8827   -1.1054 O   0  0  0  0  0  0  0  0  0  0  0  0
   -4.9704   -4.2579   -1.9614 C   0  0  0  0  0  0  0  0  0  0  0  0
   -5.1456   -4.7573   -2.9278 H   0  0  0  0  0  0  0  0  0  0  0  0
   -5.4379   -4.9112   -1.2072 H   0  0  0  0  0  0  0  0  0  0  0  0
   -5.5954   -3.3510   -1.9864 H   0  0  0  0  0  0  0  0  0  0  0  0
   -3.0424   -2.8131   -2.1606 N   0  0  0  0  0  0  0  0  0  0  0  0
   -1.6755   -2.3891   -2.0077 C   0  0  2  0  0  0  0  0  0  0  0  0
   -1.5782   -1.5673   -0.7292 C   0  0  0  0  0  0  0  0  0  0  0  0
   -2.5448   -1.0064   -0.2171 O   0  0  0  0  0  0  0  0  0  0  0  0
   -1.2087   -1.5823   -3.2094 C   0  0  0  0  0  0  0  0  0  0  0  0
   -3.6915   -2.1888   -2.6360 H   0  0  0  0  0  0  0  0  0  0  0  0
   -1.0721   -3.2977   -1.9053 H   0  0  0  0  0  0  0  0  0  0  0  0
   -1.8017   -0.6681   -3.3281 H   0  0  0  0  0  0  0  0  0  0  0  0
   -0.1601   -1.2849   -3.1045 H   0  0  0  0  0  0  0  0  0  0  0  0
   -1.3074   -2.1646   -4.1319 H   0  0  0  0  0  0  0  0  0  0  0  0
   -0.2835   -1.5112   -0.2725 N   0  0  0  0  0  0  0  0  0  0  0  0
    0.0769   -0.7658    0.9424 C   0  0  0  0  0  0  0  0  0  0  0  0
   -0.8628    0.3998    1.1180 C   0  0  0  0  0  0  0  0  0  0  0  0
   -1.3826    0.6930    2.1914 O   0  0  0  0  0  0  0  0  0  0  0  0
    0.4587   -2.0097   -0.7289 H   0  0  0  0  0  0  0  0  0  0  0  0
    1.1038   -0.4003    0.8494 H   0  0  0  0  0  0  0  0  0  0  0  0
    0.0065   -1.4323    1.8070 H   0  0  0  0  0  0  0  0  0  0  0  0
   -1.0600    1.0830   -0.0773 N   0  0  0  0  0  0  0  0  0  0  0  0
   -1.9125    2.2360   -0.2012 C   0  0  2  0  0  0  0  0  0  0  0  0
   -1.0699    3.3891   -0.7301 C   0  0  0  0  0  0  0  0  0  0  0  0
    0.1532    3.4340   -0.6154 O   0  0  0  0  0  0  0  0  0  0  0  0
   -2.5526    2.5965    1.1303 C   0  0  0  0  0  0  0  0  0  0  0  0
   -0.5755    0.7497   -0.9090 H   0  0  0  0  0  0  0  0  0  0  0  0
   -2.6849    1.9808   -0.9349 H   0  0  0  0  0  0  0  0  0  0  0  0
   -1.7942    2.8552    1.8781 H   0  0  0  0  0  0  0  0  0  0  0  0
   -3.2230    3.4563    1.0283 H   0  0  0  0  0  0  0  0  0  0  0  0
   -3.1340    1.7556    1.5236 H   0  0  0  0  0  0  0  0  0  0  0  0
   -1.8485    4.3827   -1.3070 N   0  0  0  0  0  0  0  0  0  0  0  0
   -1.2840    5.5866   -1.8709 C   0  0  0  0  0  0  0  0  0  0  0  0
   -2.8536    4.2531   -1.3759 H   0  0  0  0  0  0  0  0  0  0  0  0
   -1.2653    6.3767   -1.1057 H   0  0  0  0  0  0  0  0  0  0  0  0
   -0.2588    5.3847   -2.2146 H   0  0  0  0  0  0  0  0  0  0  0  0
   -1.8981    5.9155   -2.7223 H   0  0  0  0  0  0  0  0  0  0  0  0
  1  3  1  0  0  0  0
  1  7  1  0  0  0  0
  1  2  2  0  0  0  0
 18 19  1  0  0  0  0
 19 24  1  0  0  0  0
 19 20  2  0  0  0  0
 25 26  1  0  0  0  0
 26 34  1  0  0  0  0
 26 27  2  0  0  0  0
  8  9  1  0  0  0  0
  9 17  1  0  0  0  0
  9 10  2  0  0  0  0
 25 28  1  0  0  0  0
  8 11  1  0  0  0  0
 34 35  1  0  0  0  0
 17 18  1  0  0  0  0
 24 25  1  0  0  0  0
  7  8  1  0  0  0  0
  3  4  1  0  0  0  0
  3  5  1  0  0  0  0
  3  6  1  0  0  0  0
 28 31  1  0  0  0  0
 28 32  1  0  0  0  0
 28 33  1  0  0  0  0
 11 14  1  0  0  0  0
 11 15  1  0  0  0  0
 11 16  1  0  0  0  0
 35 37  1  0  0  0  0
 35 38  1  0  0  0  0
 35 39  1  0  0  0  0
 18 22  1  0  0  0  0
 18 23  1  0  0  0  0
 25 30  1  0  0  0  0
  8 13  1  0  0  0  0
 34 36  1  0  0  0  0
 17 21  1  0  0  0  0
  7 12  1  0  0  0  0
 24 29  1  0  0  0  0
M  END
$$$$

  -OEChem-05262214473D

 39 38  0     1  0  0  0  0  0999 V2000
   -3.5200   -4.0268   -1.6943 C   0  0  0  0  0  0  0  0  0  0  0  0
   -2.8702   -4.8827   -1.1054 O   0  0  0  0  0  0  0  0  0  0  0  0
   -4.9704   -4.2579   -1.9614 C   0  0  0  0  0  0  0  0  0  0  0  0
   -5.1456   -4.7573   -2.9278 H   0  0  0  0  0  0  0  0  0  0  0  0
   -5.4379   -4.9112   -1.2072 H   0  0  0  0  0  0  0  0  0  0  0  0
   -5.5954   -3.3510   -1.9864 H   0  0  0  0  0  0  0  0  0  0  0  0
   -3.0424   -2.8131   -2.1606 N   0  0  0  0  0  0  0  0  0  0  0  0
   -1.6755   -2.3891   -2.0077 C   0  0  2  0  0  0  0  0  0  0  0  0
   -1.5782   -1.5673   -0.7292 C   0  0  0  0  0  0  0  0  0  0  0  0
   -2.5448   -1.0064   -0.2171 O   0  0  0  0  0  0  0  0  0  0  0  0
   -1.2087   -1.5823   -3.2094 C   0  0  0  0  0  0  0  0  0  0  0  0
   -3.6915   -2.1888   -2.6360 H   0  0  0  0  0  0  0  0  0  0  0  0
   -1.0721   -3.2977   -1.9053 H   0  0  0  0  0  0  0  0  0  0  0  0
   -1.8017   -0.6681   -3.3281 H   0  0  0  0  0  0  0  0  0  0  0  0
   -0.1601   -1.2849   -3.1045 H   0  0  0  0  0  0  0  0  0  0  0  0
   -1.3074   -2.1646   -4.1319 H   0  0  0  0  0  0  0  0  0  0  0  0
   -0.2835   -1.5112   -0.2725 N   0  0  0  0  0  0  0  0  0  0  0  0
    0.0769   -0.7658    0.9424 C   0  0  0  0  0  0  0  0  0  0  0  0
   -0.8628    0.3998    1.1180 C   0  0  0  0  0  0  0  0  0  0  0  0
   -1.1733    0.8583    2.2142 O   0  0  0  0  0  0  0  0  0  0  0  0
    0.4587   -2.0097   -0.7289 H   0  0  0  0  0  0  0  0  0  0  0  0
    1.1038   -0.4003    0.8494 H   0  0  0  0  0  0  0  0  0  0  0  0
    0.0065   -1.4323    1.8070 H   0  0  0  0  0  0  0  0  0  0  0  0
   -1.3240    0.8744   -0.1053 N   0  0  0  0  0  0  0  0  0  0  0  0
   -2.2369    1.9795   -0.2349 C   0  0  2  0  0  0  0  0  0  0  0  0
   -1.5701    3.0415   -1.0992 C   0  0  0  0  0  0  0  0  0  0  0  0
   -0.3519    3.1214   -1.2432 O   0  0  0  0  0  0  0  0  0  0  0  0
   -2.6173    2.5453    1.1245 C   0  0  0  0  0  0  0  0  0  0  0  0
   -0.9984    0.4156   -0.9545 H   0  0  0  0  0  0  0  0  0  0  0  0
   -3.1263    1.5966   -0.7470 H   0  0  0  0  0  0  0  0  0  0  0  0
   -1.7389    2.9337    1.6526 H   0  0  0  0  0  0  0  0  0  0  0  0
   -3.3339    3.3673    1.0257 H   0  0  0  0  0  0  0  0  0  0  0  0
   -3.0696    1.7726    1.7555 H   0  0  0  0  0  0  0  0  0  0  0  0
   -2.4927    3.9159   -1.6562 N   0  0  0  0  0  0  0  0  0  0  0  0
   -2.1076    5.0184   -2.5060 C   0  0  0  0  0  0  0  0  0  0  0  0
   -3.4844    3.7629   -1.4986 H   0  0  0  0  0  0  0  0  0  0  0  0
   -1.9747    5.9237   -1.8954 H   0  0  0  0  0  0  0  0  0  0  0  0
   -1.1622    4.7768   -3.0139 H   0  0  0  0  0  0  0  0  0  0  0  0
   -2.8924    5.1943   -3.2564 H   0  0  0  0  0  0  0  0  0  0  0  0
  1  3  1  0  0  0  0
  1  7  1  0  0  0  0
  1  2  2  0  0  0  0
 18 19  1  0  0  0  0
 19 24  1  0  0  0  0
 19 20  2  0  0  0  0
 25 26  1  0  0  0  0
 26 34  1  0  0  0  0
 26 27  2  0  0  0  0
  8  9  1  0  0  0  0
  9 17  1  0  0  0  0
  9 10  2  0  0  0  0
 25 28  1  0  0  0  0
  8 11  1  0  0  0  0
 34 35  1  0  0  0  0
 17 18  1  0  0  0  0
 24 25  1  0  0  0  0
  7  8  1  0  0  0  0
  3  4  1  0  0  0  0
  3  5  1  0  0  0  0
  3  6  1  0  0  0  0
 28 31  1  0  0  0  0
 28 32  1  0  0  0  0
 28 33  1  0  0  0  0
 11 14  1  0  0  0  0
 11 15  1  0  0  0  0
 11 16  1  0  0  0  0
 35 37  1  0  0  0  0
 35 38  1  0  0  0  0
 35 39  1  0  0  0  0
 18 22  1  0  0  0  0
 18 23  1  0  0  0  0
 25 30  1  0  0  0  0
  8 13  1  0  0  0  0
 34 36  1  0  0  0  0
 17 21  1  0  0  0  0
  7 12  1  0  0  0  0
 24 29  1  0  0  0  0
M  END
$$$$

  -OEChem-05262214473D

 39 38  0     1  0  0  0  0  0999 V2000
   -3.5200   -4.0268   -1.6943 C   0  0  0  0  0  0  0  0  0  0  0  0
   -2.8702   -4.8827   -1.1054 O   0  0  0  0  0  0  0  0  0  0  0  0
   -4.9704   -4.2579   -1.9614 C   0  0  0  0  0  0  0  0  0  0  0  0
   -5.1456   -4.7573   -2.9278 H   0  0  0  0  0  0  0  0  0  0  0  0
   -5.4379   -4.9112   -1.2072 H   0  0  0  0  0  0  0  0  0  0  0  0
   -5.5954   -3.3510   -1.9864 H   0  0  0  0  0  0  0  0  0  0  0  0
   -3.0424   -2.8131   -2.1606 N   0  0  0  0  0  0  0  0  0  0  0  0
   -1.6755   -2.3891   -2.0077 C   0  0  2  0  0  0  0  0  0  0  0  0
   -1.5782   -1.5673   -0.7292 C   0  0  0  0  0  0  0  0  0  0  0  0
   -2.5448   -1.0064   -0.2171 O   0  0  0  0  0  0  0  0  0  0  0  0
   -1.2087   -1.5823   -3.2094 C   0  0  0  0  0  0  0  0  0  0  0  0
   -3.6915   -2.1888   -2.6360 H   0  0  0  0  0  0  0  0  0  0  0  0
   -1.0721   -3.2977   -1.9053 H   0  0  0  0  0  0  0  0  0  0  0  0
   -1.8017   -0.6681   -3.3281 H   0  0  0  0  0  0  0  0  0  0  0  0
   -0.1601   -1.2849   -3.1045 H   0  0  0  0  0  0  0  0  0  0  0  0
   -1.3074   -2.1646   -4.1319 H   0  0  0  0  0  0  0  0  0  0  0  0
   -0.2835   -1.5112   -0.2725 N   0  0  0  0  0  0  0  0  0  0  0  0
    0.0769   -0.7658    0.9424 C   0  0  0  0  0  0  0  0  0  0  0  0
   -0.8628    0.3998    1.1180 C   0  0  0  0  0  0  0  0  0  0  0  0
   -0.9715    1.0280    2.1677 O   0  0  0  0  0  0  0  0  0  0  0  0
    0.4587   -2.0097   -0.7289 H   0  0  0  0  0  0  0  0  0  0  0  0
    1.1038   -0.4003    0.8494 H   0  0  0  0  0  0  0  0  0  0  0  0
    0.0065   -1.4323    1.8070 H   0  0  0  0  0  0  0  0  0  0  0  0
   -1.5782    0.6605   -0.0459 N   0  0  0  0  0  0  0  0  0  0  0  0
   -2.5492    1.7166   -0.1610 C   0  0  2  0  0  0  0  0  0  0  0  0
   -2.1166    2.6311   -1.2995 C   0  0  0  0  0  0  0  0  0  0  0  0
   -0.9559    2.7029   -1.6981 O   0  0  0  0  0  0  0  0  0  0  0  0
   -2.6794    2.4929    1.1402 C   0  0  0  0  0  0  0  0  0  0  0  0
   -1.4059    0.0728   -0.8599 H   0  0  0  0  0  0  0  0  0  0  0  0
   -3.5035    1.2425   -0.4151 H   0  0  0  0  0  0  0  0  0  0  0  0
   -1.7329    2.9749    1.4111 H   0  0  0  0  0  0  0  0  0  0  0  0
   -3.4388    3.2776    1.0598 H   0  0  0  0  0  0  0  0  0  0  0  0
   -2.9616    1.8283    1.9639 H   0  0  0  0  0  0  0  0  0  0  0  0
   -3.1708    3.3893   -1.7892 N   0  0  0  0  0  0  0  0  0  0  0  0
   -3.0130    4.3422   -2.8630 C   0  0  0  0  0  0  0  0  0  0  0  0
   -4.1036    3.2507   -1.4118 H   0  0  0  0  0  0  0  0  0  0  0  0
   -2.8044    5.3373   -2.4431 H   0  0  0  0  0  0  0  0  0  0  0  0
   -2.1764    4.0334   -3.5071 H   0  0  0  0  0  0  0  0  0  0  0  0
   -3.9380    4.3816   -3.4570 H   0  0  0  0  0  0  0  0  0  0  0  0
  1  3  1  0  0  0  0
  1  7  1  0  0  0  0
  1  2  2  0  0  0  0
 18 19  1  0  0  0  0
 19 24  1  0  0  0  0
 19 20  2  0  0  0  0
 25 26  1  0  0  0  0
 26 34  1  0  0  0  0
 26 27  2  0  0  0  0
  8  9  1  0  0  0  0
  9 17  1  0  0  0  0
  9 10  2  0  0  0  0
 25 28  1  0  0  0  0
  8 11  1  0  0  0  0
 34 35  1  0  0  0  0
 17 18  1  0  0  0  0
 24 25  1  0  0  0  0
  7  8  1  0  0  0  0
  3  4  1  0  0  0  0
  3  5  1  0  0  0  0
  3  6  1  0  0  0  0
 28 31  1  0  0  0  0
 28 32  1  0  0  0  0
 28 33  1  0  0  0  0
 11 14  1  0  0  0  0
 11 15  1  0  0  0  0
 11 16  1  0  0  0  0
 35 37  1  0  0  0  0
 35 38  1  0  0  0  0
 35 39  1  0  0  0  0
 18 22  1  0  0  0  0
 18 23  1  0  0  0  0
 25 30  1  0  0  0  0
  8 13  1  0  0  0  0
 34 36  1  0  0  0  0
 17 21  1  0  0  0  0
  7 12  1  0  0  0  0
 24 29  1  0  0  0  0
M  END
$$$$

  -OEChem-05262214473D

 39 38  0     1  0  0  0  0  0999 V2000
   -3.5200   -4.0268   -1.6943 C   0  0  0  0  0  0  0  0  0  0  0  0
   -2.8702   -4.8827   -1.1054 O   0  0  0  0  0  0  0  0  0  0  0  0
   -4.9704   -4.2579   -1.9614 C   0  0  0  0  0  0  0  0  0  0  0  0
   -5.1456   -4.7573   -2.9278 H   0  0  0  0  0  0  0  0  0  0  0  0
   -5.4379   -4.9112   -1.2072 H   0  0  0  0  0  0  0  0  0  0  0  0
   -5.5954   -3.3510   -1.9864 H   0  0  0  0  0  0  0  0  0  0  0  0
   -3.0424   -2.8131   -2.1606 N   0  0  0  0  0  0  0  0  0  0  0  0
   -1.6755   -2.3891   -2.0077 C   0  0  2  0  0  0  0  0  0  0  0  0
   -1.5782   -1.5673   -0.7292 C   0  0  0  0  0  0  0  0  0  0  0  0
   -2.5448   -1.0064   -0.2171 O   0  0  0  0  0  0  0  0  0  0  0  0
   -1.2087   -1.5823   -3.2094 C   0  0  0  0  0  0  0  0  0  0  0  0
   -3.6915   -2.1888   -2.6360 H   0  0  0  0  0  0  0  0  0  0  0  0
   -1.0721   -3.2977   -1.9053 H   0  0  0  0  0  0  0  0  0  0  0  0
   -1.8017   -0.6681   -3.3281 H   0  0  0  0  0  0  0  0  0  0  0  0
   -0.1601   -1.2849   -3.1045 H   0  0  0  0  0  0  0  0  0  0  0  0
   -1.3074   -2.1646   -4.1319 H   0  0  0  0  0  0  0  0  0  0  0  0
   -0.2835   -1.5112   -0.2725 N   0  0  0  0  0  0  0  0  0  0  0  0
    0.0769   -0.7658    0.9424 C   0  0  0  0  0  0  0  0  0  0  0  0
   -0.8628    0.3998    1.1180 C   0  0  0  0  0  0  0  0  0  0  0  0
   -0.7910    1.1905    2.0550 O   0  0  0  0  0  0  0  0  0  0  0  0
    0.4587   -2.0097   -0.7289 H   0  0  0  0  0  0  0  0  0  0  0  0
    1.1038   -0.4003    0.8494 H   0  0  0  0  0  0  0  0  0  0  0  0
    0.0065   -1.4323    1.8070 H   0  0  0  0  0  0  0  0  0  0  0  0
   -1.8055    0.4557    0.0970 N   0  0  0  0  0  0  0  0  0  0  0  0
   -2.8282    1.4651    0.0152 C   0  0  2  0  0  0  0  0  0  0  0  0
   -2.6721    2.1858   -1.3173 C   0  0  0  0  0  0  0  0  0  0  0  0
   -1.6178    2.2071   -1.9491 O   0  0  0  0  0  0  0  0  0  0  0  0
   -2.7346    2.4429    1.1762 C   0  0  0  0  0  0  0  0  0  0  0  0
   -1.7703   -0.2554   -0.6316 H   0  0  0  0  0  0  0  0  0  0  0  0
   -3.7907    0.9427    0.0380 H   0  0  0  0  0  0  0  0  0  0  0  0
   -1.7768    2.9759    1.1700 H   0  0  0  0  0  0  0  0  0  0  0  0
   -3.5306    3.1932    1.1282 H   0  0  0  0  0  0  0  0  0  0  0  0
   -2.8172    1.9190    2.1346 H   0  0  0  0  0  0  0  0  0  0  0  0
   -3.8365    2.8387   -1.6971 N   0  0  0  0  0  0  0  0  0  0  0  0
   -3.9386    3.6042   -2.9175 C   0  0  0  0  0  0  0  0  0  0  0  0
   -4.6689    2.7512   -1.1214 H   0  0  0  0  0  0  0  0  0  0  0  0
   -3.6977    4.6575   -2.7115 H   0  0  0  0  0  0  0  0  0  0  0  0
   -3.2324    3.2052   -3.6606 H   0  0  0  0  0  0  0  0  0  0  0  0
   -4.9636    3.5327   -3.3104 H   0  0  0  0  0  0  0  0  0  0  0  0
  1  3  1  0  0  0  0
  1  7  1  0  0  0  0
  1  2  2  0  0  0  0
 18 19  1  0  0  0  0
 19 24  1  0  0  0  0
 19 20  2  0  0  0  0
 25 26  1  0  0  0  0
 26 34  1  0  0  0  0
 26 27  2  0  0  0  0
  8  9  1  0  0  0  0
  9 17  1  0  0  0  0
  9 10  2  0  0  0  0
 25 28  1  0  0  0  0
  8 11  1  0  0  0  0
 34 35  1  0  0  0  0
 17 18  1  0  0  0  0
 24 25  1  0  0  0  0
  7  8  1  0  0  0  0
  3  4  1  0  0  0  0
  3  5  1  0  0  0  0
  3  6  1  0  0  0  0
 28 31  1  0  0  0  0
 28 32  1  0  0  0  0
 28 33  1  0  0  0  0
 11 14  1  0  0  0  0
 11 15  1  0  0  0  0
 11 16  1  0  0  0  0
 35 37  1  0  0  0  0
 35 38  1  0  0  0  0
 35 39  1  0  0  0  0
 18 22  1  0  0  0  0
 18 23  1  0  0  0  0
 25 30  1  0  0  0  0
  8 13  1  0  0  0  0
 34 36  1  0  0  0  0
 17 21  1  0  0  0  0
  7 12  1  0  0  0  0
 24 29  1  0  0  0  0
M  END
$$$$

  -OEChem-05262214473D

 39 38  0     1  0  0  0  0  0999 V2000
   -3.5200   -4.0268   -1.6943 C   0  0  0  0  0  0  0  0  0  0  0  0
   -2.8702   -4.8827   -1.1054 O   0  0  0  0  0  0  0  0  0  0  0  0
   -4.9704   -4.2579   -1.9614 C   0  0  0  0  0  0  0  0  0  0  0  0
   -5.1456   -4.7573   -2.9278 H   0  0  0  0  0  0  0  0  0  0  0  0
   -5.4379   -4.9112   -1.2072 H   0  0  0  0  0  0  0  0  0  0  0  0
   -5.5954   -3.3510   -1.9864 H   0  0  0  0  0  0  0  0  0  0  0  0
   -3.0424   -2.8131   -2.1606 N   0  0  0  0  0  0  0  0  0  0  0  0
   -1.6755   -2.3891   -2.0077 C   0  0  2  0  0  0  0  0  0  0  0  0
   -1.5782   -1.5673   -0.7292 C   0  0  0  0  0  0  0  0  0  0  0  0
   -2.5448   -1.0064   -0.2171 O   0  0  0  0  0  0  0  0  0  0  0  0
   -1.2087   -1.5823   -3.2094 C   0  0  0  0  0  0  0  0  0  0  0  0
   -3.6915   -2.1888   -2.6360 H   0  0  0  0  0  0  0  0  0  0  0  0
   -1.0721   -3.2977   -1.9053 H   0  0  0  0  0  0  0  0  0  0  0  0
   -1.8017   -0.6681   -3.3281 H   0  0  0  0  0  0  0  0  0  0  0  0
   -0.1601   -1.2849   -3.1045 H   0  0  0  0  0  0  0  0  0  0  0  0
   -1.3074   -2.1646   -4.1319 H   0  0  0  0  0  0  0  0  0  0  0  0
   -0.2835   -1.5112   -0.2725 N   0  0  0  0  0  0  0  0  0  0  0  0
    0.0769   -0.7658    0.9424 C   0  0  0  0  0  0  0  0  0  0  0  0
   -0.8628    0.3998    1.1180 C   0  0  0  0  0  0  0  0  0  0  0  0
   -0.6441    1.3347    1.8839 O   0  0  0  0  0  0  0  0  0  0  0  0
    0.4587   -2.0097   -0.7289 H   0  0  0  0  0  0  0  0  0  0  0  0
    1.1038   -0.4003    0.8494 H   0  0  0  0  0  0  0  0  0  0  0  0
    0.0065   -1.4323    1.8070 H   0  0  0  0  0  0  0  0  0  0  0  0
   -1.9903    0.2742    0.3134 N   0  0  0  0  0  0  0  0  0  0  0  0
   -3.0548    1.2423    0.2818 C   0  0  2  0  0  0  0  0  0  0  0  0
   -3.1990    1.7362   -1.1516 C   0  0  0  0  0  0  0  0  0  0  0  0
   -2.2925    1.6677   -1.9790 O   0  0  0  0  0  0  0  0  0  0  0  0
   -2.7792    2.3988    1.2301 C   0  0  0  0  0  0  0  0  0  0  0  0
   -2.0667   -0.5465   -0.2852 H   0  0  0  0  0  0  0  0  0  0  0  0
   -3.9685    0.7175    0.5816 H   0  0  0  0  0  0  0  0  0  0  0  0
   -1.8674    2.9366    0.9457 H   0  0  0  0  0  0  0  0  0  0  0  0
   -3.6031    3.1200    1.2262 H   0  0  0  0  0  0  0  0  0  0  0  0
   -2.6463    2.0385    2.2559 H   0  0  0  0  0  0  0  0  0  0  0  0
   -4.4445    2.3016   -1.3860 N   0  0  0  0  0  0  0  0  0  0  0  0
   -4.8214    2.8546   -2.6659 C   0  0  0  0  0  0  0  0  0  0  0  0
   -5.1417    2.2986   -0.6472 H   0  0  0  0  0  0  0  0  0  0  0  0
   -4.5938    3.9307   -2.6823 H   0  0  0  0  0  0  0  0  0  0  0  0
   -4.2582    2.3487   -3.4639 H   0  0  0  0  0  0  0  0  0  0  0  0
   -5.8993    2.7054   -2.8266 H   0  0  0  0  0  0  0  0  0  0  0  0
  1  3  1  0  0  0  0
  1  7  1  0  0  0  0
  1  2  2  0  0  0  0
 18 19  1  0  0  0  0
 19 24  1  0  0  0  0
 19 20  2  0  0  0  0
 25 26  1  0  0  0  0
 26 34  1  0  0  0  0
 26 27  2  0  0  0  0
  8  9  1  0  0  0  0
  9 17  1  0  0  0  0
  9 10  2  0  0  0  0
 25 28  1  0  0  0  0
  8 11  1  0  0  0  0
 34 35  1  0  0  0  0
 17 18  1  0  0  0  0
 24 25  1  0  0  0  0
  7  8  1  0  0  0  0
  3  4  1  0  0  0  0
  3  5  1  0  0  0  0
  3  6  1  0  0  0  0
 28 31  1  0  0  0  0
 28 32  1  0  0  0  0
 28 33  1  0  0  0  0
 11 14  1  0  0  0  0
 11 15  1  0  0  0  0
 11 16  1  0  0  0  0
 35 37  1  0  0  0  0
 35 38  1  0  0  0  0
 35 39  1  0  0  0  0
 18 22  1  0  0  0  0
 18 23  1  0  0  0  0
 25 30  1  0  0  0  0
  8 13  1  0  0  0  0
 34 36  1  0  0  0  0
 17 21  1  0  0  0  0
  7 12  1  0  0  0  0
 24 29  1  0  0  0  0
M  END
$$$$

  -OEChem-05262214473D

 39 38  0     1  0  0  0  0  0999 V2000
   -3.5200   -4.0268   -1.6943 C   0  0  0  0  0  0  0  0  0  0  0  0
   -2.8702   -4.8827   -1.1054 O   0  0  0  0  0  0  0  0  0  0  0  0
   -4.9704   -4.2579   -1.9614 C   0  0  0  0  0  0  0  0  0  0  0  0
   -5.1456   -4.7573   -2.9278 H   0  0  0  0  0  0  0  0  0  0  0  0
   -5.4379   -4.9112   -1.2072 H   0  0  0  0  0  0  0  0  0  0  0  0
   -5.5954   -3.3510   -1.9864 H   0  0  0  0  0  0  0  0  0  0  0  0
   -3.0424   -2.8131   -2.1606 N   0  0  0  0  0  0  0  0  0  0  0  0
   -1.6755   -2.3891   -2.0077 C   0  0  2  0  0  0  0  0  0  0  0  0
   -1.5782   -1.5673   -0.7292 C   0  0  0  0  0  0  0  0  0  0  0  0
   -2.5448   -1.0064   -0.2171 O   0  0  0  0  0  0  0  0  0  0  0  0
   -1.2087   -1.5823   -3.2094 C   0  0  0  0  0  0  0  0  0  0  0  0
   -3.6915   -2.1888   -2.6360 H   0  0  0  0  0  0  0  0  0  0  0  0
   -1.0721   -3.2977   -1.9053 H   0  0  0  0  0  0  0  0  0  0  0  0
   -1.8017   -0.6681   -3.3281 H   0  0  0  0  0  0  0  0  0  0  0  0
   -0.1601   -1.2849   -3.1045 H   0  0  0  0  0  0  0  0  0  0  0  0
   -1.3074   -2.1646   -4.1319 H   0  0  0  0  0  0  0  0  0  0  0  0
   -0.2835   -1.5112   -0.2725 N   0  0  0  0  0  0  0  0  0  0  0  0
    0.0769   -0.7658    0.9424 C   0  0  0  0  0  0  0  0  0  0  0  0
   -0.8628    0.3998    1.1180 C   0  0  0  0  0  0  0  0  0  0  0  0
   -0.5408    1.4508    1.6658 O   0  0  0  0  0  0  0  0  0  0  0  0
    0.4587   -2.0097   -0.7289 H   0  0  0  0  0  0  0  0  0  0  0  0
    1.1038   -0.4003    0.8494 H   0  0  0  0  0  0  0  0  0  0  0  0
    0.0065   -1.4323    1.8070 H   0  0  0  0  0  0  0  0  0  0  0  0
   -2.1200    0.1281    0.5888 N   0  0  0  0  0  0  0  0  0  0  0  0
   -3.2136    1.0632    0.6207 C   0  0  2  0  0  0  0  0  0  0  0  0
   -3.6611    1.3127   -0.8135 C   0  0  0  0  0  0  0  0  0  0  0  0
   -2.9339    1.1215   -1.7860 O   0  0  0  0  0  0  0  0  0  0  0  0
   -2.8102    2.3635    1.2982 C   0  0  0  0  0  0  0  0  0  0  0  0
   -2.2749   -0.7807    0.1556 H   0  0  0  0  0  0  0  0  0  0  0  0
   -4.0246    0.5824    1.1785 H   0  0  0  0  0  0  0  0  0  0  0  0
   -1.9987    2.8597    0.7535 H   0  0  0  0  0  0  0  0  0  0  0  0
   -3.6513    3.0630    1.3472 H   0  0  0  0  0  0  0  0  0  0  0  0
   -2.4605    2.1787    2.3197 H   0  0  0  0  0  0  0  0  0  0  0  0
   -4.9534    1.8148   -0.8772 N   0  0  0  0  0  0  0  0  0  0  0  0
   -5.6011    2.1446   -2.1252 C   0  0  0  0  0  0  0  0  0  0  0  0
   -5.4898    1.9237   -0.0215 H   0  0  0  0  0  0  0  0  0  0  0  0
   -5.4316    3.2063   -2.3575 H   0  0  0  0  0  0  0  0  0  0  0  0
   -5.1838    1.5221   -2.9304 H   0  0  0  0  0  0  0  0  0  0  0  0
   -6.6814    1.9562   -2.0386 H   0  0  0  0  0  0  0  0  0  0  0  0
  1  3  1  0  0  0  0
  1  7  1  0  0  0  0
  1  2  2  0  0  0  0
 18 19  1  0  0  0  0
 19 24  1  0  0  0  0
 19 20  2  0  0  0  0
 25 26  1  0  0  0  0
 26 34  1  0  0  0  0
 26 27  2  0  0  0  0
  8  9  1  0  0  0  0
  9 17  1  0  0  0  0
  9 10  2  0  0  0  0
 25 28  1  0  0  0  0
  8 11  1  0  0  0  0
 34 35  1  0  0  0  0
 17 18  1  0  0  0  0
 24 25  1  0  0  0  0
  7  8  1  0  0  0  0
  3  4  1  0  0  0  0
  3  5  1  0  0  0  0
  3  6  1  0  0  0  0
 28 31  1  0  0  0  0
 28 32  1  0  0  0  0
 28 33  1  0  0  0  0
 11 14  1  0  0  0  0
 11 15  1  0  0  0  0
 11 16  1  0  0  0  0
 35 37  1  0  0  0  0
 35 38  1  0  0  0  0
 35 39  1  0  0  0  0
 18 22  1  0  0  0  0
 18 23  1  0  0  0  0
 25 30  1  0  0  0  0
  8 13  1  0  0  0  0
 34 36  1  0  0  0  0
 17 21  1  0  0  0  0
  7 12  1  0  0  0  0
 24 29  1  0  0  0  0
M  END
$$$$

  -OEChem-05262214473D

 39 38  0     1  0  0  0  0  0999 V2000
   -3.5200   -4.0268   -1.6943 C   0  0  0  0  0  0  0  0  0  0  0  0
   -2.8702   -4.8827   -1.1054 O   0  0  0  0  0  0  0  0  0  0  0  0
   -4.9704   -4.2579   -1.9614 C   0  0  0  0  0  0  0  0  0  0  0  0
   -5.1456   -4.7573   -2.9278 H   0  0  0  0  0  0  0  0  0  0  0  0
   -5.4379   -4.9112   -1.2072 H   0  0  0  0  0  0  0  0  0  0  0  0
   -5.5954   -3.3510   -1.9864 H   0  0  0  0  0  0  0  0  0  0  0  0
   -3.0424   -2.8131   -2.1606 N   0  0  0  0  0  0  0  0  0  0  0  0
   -1.6755   -2.3891   -2.0077 C   0  0  2  0  0  0  0  0  0  0  0  0
   -1.5782   -1.5673   -0.7292 C   0  0  0  0  0  0  0  0  0  0  0  0
   -2.5448   -1.0064   -0.2171 O   0  0  0  0  0  0  0  0  0  0  0  0
   -1.2087   -1.5823   -3.2094 C   0  0  0  0  0  0  0  0  0  0  0  0
   -3.6915   -2.1888   -2.6360 H   0  0  0  0  0  0  0  0  0  0  0  0
   -1.0721   -3.2977   -1.9053 H   0  0  0  0  0  0  0  0  0  0  0  0
   -1.8017   -0.6681   -3.3281 H   0  0  0  0  0  0  0  0  0  0  0  0
   -0.1601   -1.2849   -3.1045 H   0  0  0  0  0  0  0  0  0  0  0  0
   -1.3074   -2.1646   -4.1319 H   0  0  0  0  0  0  0  0  0  0  0  0
   -0.2835   -1.5112   -0.2725 N   0  0  0  0  0  0  0  0  0  0  0  0
    0.0769   -0.7658    0.9424 C   0  0  0  0  0  0  0  0  0  0  0  0
   -0.8628    0.3998    1.1180 C   0  0  0  0  0  0  0  0  0  0  0  0
   -0.4882    1.5309    1.4159 O   0  0  0  0  0  0  0  0  0  0  0  0
    0.4587   -2.0097   -0.7289 H   0  0  0  0  0  0  0  0  0  0  0  0
    1.1038   -0.4003    0.8494 H   0  0  0  0  0  0  0  0  0  0  0  0
    0.0065   -1.4323    1.8070 H   0  0  0  0  0  0  0  0  0  0  0  0
   -2.1857    0.0276    0.9042 N   0  0  0  0  0  0  0  0  0  0  0  0
   -3.2938    0.9401    1.0087 C   0  0  2  0  0  0  0  0  0  0  0  0
   -4.0271    0.9442   -0.3261 C   0  0  0  0  0  0  0  0  0  0  0  0
   -3.4983    0.6058   -1.3830 O   0  0  0  0  0  0  0  0  0  0  0  0
   -2.8255    2.3395    1.3759 C   0  0  0  0  0  0  0  0  0  0  0  0
   -2.3807   -0.9421    0.6609 H   0  0  0  0  0  0  0  0  0  0  0  0
   -3.9553    0.5464    1.7882 H   0  0  0  0  0  0  0  0  0  0  0  0
   -2.1616    2.7505    0.6066 H   0  0  0  0  0  0  0  0  0  0  0  0
   -3.6719    3.0259    1.4830 H   0  0  0  0  0  0  0  0  0  0  0  0
   -2.2726    2.3299    2.3214 H   0  0  0  0  0  0  0  0  0  0  0  0
   -5.3284    1.4112   -0.2053 N   0  0  0  0  0  0  0  0  0  0  0  0
   -6.2246    1.5224   -1.3324 C   0  0  0  0  0  0  0  0  0  0  0  0
   -5.6896    1.6520    0.7130 H   0  0  0  0  0  0  0  0  0  0  0  0
   -6.1541    2.5338   -1.7593 H   0  0  0  0  0  0  0  0  0  0  0  0
   -5.9462    0.7818   -2.0966 H   0  0  0  0  0  0  0  0  0  0  0  0
   -7.2565    1.3361   -1.0000 H   0  0  0  0  0  0  0  0  0  0  0  0
  1  3  1  0  0  0  0
  1  7  1  0  0  0  0
  1  2  2  0  0  0  0
 18 19  1  0  0  0  0
 19 24  1  0  0  0  0
 19 20  2  0  0  0  0
 25 26  1  0  0  0  0
 26 34  1  0  0  0  0
 26 27  2  0  0  0  0
  8  9  1  0  0  0  0
  9 17  1  0  0  0  0
  9 10  2  0  0  0  0
 25 28  1  0  0  0  0
  8 11  1  0  0  0  0
 34 35  1  0  0  0  0
 17 18  1  0  0  0  0
 24 25  1  0  0  0  0
  7  8  1  0  0  0  0
  3  4  1  0  0  0  0
  3  5  1  0  0  0  0
  3  6  1  0  0  0  0
 28 31  1  0  0  0  0
 28 32  1  0  0  0  0
 28 33  1  0  0  0  0
 11 14  1  0  0  0  0
 11 15  1  0  0  0  0
 11 16  1  0  0  0  0
 35 37  1  0  0  0  0
 35 38  1  0  0  0  0
 35 39  1  0  0  0  0
 18 22  1  0  0  0  0
 18 23  1  0  0  0  0
 25 30  1  0  0  0  0
  8 13  1  0  0  0  0
 34 36  1  0  0  0  0
 17 21  1  0  0  0  0
  7 12  1  0  0  0  0
 24 29  1  0  0  0  0
M  END
$$$$

  -OEChem-05262214473D

 39 38  0     1  0  0  0  0  0999 V2000
   -3.5200   -4.0268   -1.6943 C   0  0  0  0  0  0  0  0  0  0  0  0
   -2.8702   -4.8827   -1.1054 O   0  0  0  0  0  0  0  0  0  0  0  0
   -4.9704   -4.2579   -1.9614 C   0  0  0  0  0  0  0  0  0  0  0  0
   -5.1456   -4.7573   -2.9278 H   0  0  0  0  0  0  0  0  0  0  0  0
   -5.4379   -4.9112   -1.2072 H   0  0  0  0  0  0  0  0  0  0  0  0
   -5.5954   -3.3510   -1.9864 H   0  0  0  0  0  0  0  0  0  0  0  0
   -3.0424   -2.8131   -2.1606 N   0  0  0  0  0  0  0  0  0  0  0  0
   -1.6755   -2.3891   -2.0077 C   0  0  2  0  0  0  0  0  0  0  0  0
   -1.5782   -1.5673   -0.7292 C   0  0  0  0  0  0  0  0  0  0  0  0
   -2.5448   -1.0064   -0.2171 O   0  0  0  0  0  0  0  0  0  0  0  0
   -1.2087   -1.5823   -3.2094 C   0  0  0  0  0  0  0  0  0  0  0  0
   -3.6915   -2.1888   -2.6360 H   0  0  0  0  0  0  0  0  0  0  0  0
   -1.0721   -3.2977   -1.9053 H   0  0  0  0  0  0  0  0  0  0  0  0
   -1.8017   -0.6681   -3.3281 H   0  0  0  0  0  0  0  0  0  0  0  0
   -0.1601   -1.2849   -3.1045 H   0  0  0  0  0  0  0  0  0  0  0  0
   -1.3074   -2.1646   -4.1319 H   0  0  0  0  0  0  0  0  0  0  0  0
   -0.2835   -1.5112   -0.2725 N   0  0  0  0  0  0  0  0  0  0  0  0
    0.0769   -0.7658    0.9424 C   0  0  0  0  0  0  0  0  0  0  0  0
   -0.8628    0.3998    1.1180 C   0  0  0  0  0  0  0  0  0  0  0  0
   -0.4898    1.5695    1.1510 O   0  0  0  0  0  0  0  0  0  0  0  0
    0.4587   -2.0097   -0.7289 H   0  0  0  0  0  0  0  0  0  0  0  0
    1.1038   -0.4003    0.8494 H   0  0  0  0  0  0  0  0  0  0  0  0
    0.0065   -1.4323    1.8070 H   0  0  0  0  0  0  0  0  0  0  0  0
   -2.1831   -0.0206    1.2384 N   0  0  0  0  0  0  0  0  0  0  0  0
   -3.2899    0.8813    1.4194 C   0  0  2  0  0  0  0  0  0  0  0  0
   -4.2719    0.6559    0.2773 C   0  0  0  0  0  0  0  0  0  0  0  0
   -3.9473    0.1556   -0.7976 O   0  0  0  0  0  0  0  0  0  0  0  0
   -2.8239    2.3284    1.4579 C   0  0  0  0  0  0  0  0  0  0  0  0
   -2.3770   -1.0197    1.1961 H   0  0  0  0  0  0  0  0  0  0  0  0
   -3.7652    0.6122    2.3690 H   0  0  0  0  0  0  0  0  0  0  0  0
   -2.3451    2.6164    0.5149 H   0  0  0  0  0  0  0  0  0  0  0  0
   -3.6636    3.0114    1.6242 H   0  0  0  0  0  0  0  0  0  0  0  0
   -2.0952    2.4820    2.2611 H   0  0  0  0  0  0  0  0  0  0  0  0
   -5.5440    1.1186    0.5838 N   0  0  0  0  0  0  0  0  0  0  0  0
   -6.6495    1.0306   -0.3414 C   0  0  0  0  0  0  0  0  0  0  0  0
   -5.7274    1.5020    1.5063 H   0  0  0  0  0  0  0  0  0  0  0  0
   -6.7119    1.9589   -0.9283 H   0  0  0  0  0  0  0  0  0  0  0  0
   -6.4934    0.1783   -1.0191 H   0  0  0  0  0  0  0  0  0  0  0  0
   -7.5855    0.8873    0.2184 H   0  0  0  0  0  0  0  0  0  0  0  0
  1  3  1  0  0  0  0
  1  7  1  0  0  0  0
  1  2  2  0  0  0  0
 18 19  1  0  0  0  0
 19 24  1  0  0  0  0
 19 20  2  0  0  0  0
 25 26  1  0  0  0  0
 26 34  1  0  0  0  0
 26 27  2  0  0  0  0
  8  9  1  0  0  0  0
  9 17  1  0  0  0  0
  9 10  2  0  0  0  0
 25 28  1  0  0  0  0
  8 11  1  0  0  0  0
 34 35  1  0  0  0  0
 17 18  1  0  0  0  0
 24 25  1  0  0  0  0
  7  8  1  0  0  0  0
  3  4  1  0  0  0  0
  3  5  1  0  0  0  0
  3  6  1  0  0  0  0
 28 31  1  0  0  0  0
 28 32  1  0  0  0  0
 28 33  1  0  0  0  0
 11 14  1  0  0  0  0
 11 15  1  0  0  0  0
 11 16  1  0  0  0  0
 35 37  1  0  0  0  0
 35 38  1  0  0  0  0
 35 39  1  0  0  0  0
 18 22  1  0  0  0  0
 18 23  1  0  0  0  0
 25 30  1  0  0  0  0
  8 13  1  0  0  0  0
 34 36  1  0  0  0  0
 17 21  1  0  0  0  0
  7 12  1  0  0  0  0
 24 29  1  0  0  0  0
M  END
$$$$

  -OEChem-05262214473D

 39 38  0     1  0  0  0  0  0999 V2000
   -3.5200   -4.0268   -1.6943 C   0  0  0  0  0  0  0  0  0  0  0  0
   -2.8702   -4.8827   -1.1054 O   0  0  0  0  0  0  0  0  0  0  0  0
   -4.9704   -4.2579   -1.9614 C   0  0  0  0  0  0  0  0  0  0  0  0
   -5.1456   -4.7573   -2.9278 H   0  0  0  0  0  0  0  0  0  0  0  0
   -5.4379   -4.9112   -1.2072 H   0  0  0  0  0  0  0  0  0  0  0  0
   -5.5954   -3.3510   -1.9864 H   0  0  0  0  0  0  0  0  0  0  0  0
   -3.0424   -2.8131   -2.1606 N   0  0  0  0  0  0  0  0  0  0  0  0
   -1.6755   -2.3891   -2.0077 C   0  0  2  0  0  0  0  0  0  0  0  0
   -1.5782   -1.5673   -0.7292 C   0  0  0  0  0  0  0  0  0  0  0  0
   -2.5448   -1.0064   -0.2171 O   0  0  0  0  0  0  0  0  0  0  0  0
   -1.2087   -1.5823   -3.2094 C   0  0  0  0  0  0  0  0  0  0  0  0
   -3.6915   -2.1888   -2.6360 H   0  0  0  0  0  0  0  0  0  0  0  0
   -1.0721   -3.2977   -1.9053 H   0  0  0  0  0  0  0  0  0  0  0  0
   -1.8017   -0.6681   -3.3281 H   0  0  0  0  0  0  0  0  0  0  0  0
   -0.1601   -1.2849   -3.1045 H   0  0  0  0  0  0  0  0  0  0  0  0
   -1.3074   -2.1646   -4.1319 H   0  0  0  0  0  0  0  0  0  0  0  0
   -0.2835   -1.5112   -0.2725 N   0  0  0  0  0  0  0  0  0  0  0  0
    0.0769   -0.7658    0.9424 C   0  0  0  0  0  0  0  0  0  0  0  0
   -0.8628    0.3998    1.1180 C   0  0  0  0  0  0  0  0  0  0  0  0
   -0.5455    1.5640    0.8892 O   0  0  0  0  0  0  0  0  0  0  0  0
    0.4587   -2.0097   -0.7289 H   0  0  0  0  0  0  0  0  0  0  0  0
    1.1038   -0.4003    0.8494 H   0  0  0  0  0  0  0  0  0  0  0  0
    0.0065   -1.4323    1.8070 H   0  0  0  0  0  0  0  0  0  0  0  0
   -2.1122   -0.0132    1.5683 N   0  0  0  0  0  0  0  0  0  0  0  0
   -3.2022    0.8910    1.8248 C   0  0  2  0  0  0  0  0  0  0  0  0
   -4.3790    0.4674    0.9557 C   0  0  0  0  0  0  0  0  0  0  0  0
   -4.2503   -0.1983   -0.0697 O   0  0  0  0  0  0  0  0  0  0  0  0
   -2.8057    2.3310    1.5385 C   0  0  0  0  0  0  0  0  0  0  0  0
   -2.2639   -1.0082    1.7250 H   0  0  0  0  0  0  0  0  0  0  0  0
   -3.4674    0.7751    2.8813 H   0  0  0  0  0  0  0  0  0  0  0  0
   -2.5366    2.4665    0.4846 H   0  0  0  0  0  0  0  0  0  0  0  0
   -3.6268    3.0204    1.7613 H   0  0  0  0  0  0  0  0  0  0  0  0
   -1.9406    2.6245    2.1428 H   0  0  0  0  0  0  0  0  0  0  0  0
   -5.5855    0.9567    1.4364 N   0  0  0  0  0  0  0  0  0  0  0  0
   -6.8468    0.7027    0.7801 C   0  0  0  0  0  0  0  0  0  0  0  0
   -5.6007    1.4840    2.3044 H   0  0  0  0  0  0  0  0  0  0  0  0
   -7.0671    1.5209    0.0787 H   0  0  0  0  0  0  0  0  0  0  0  0
   -6.7882   -0.2472    0.2285 H   0  0  0  0  0  0  0  0  0  0  0  0
   -7.6460    0.6405    1.5334 H   0  0  0  0  0  0  0  0  0  0  0  0
  1  3  1  0  0  0  0
  1  7  1  0  0  0  0
  1  2  2  0  0  0  0
 18 19  1  0  0  0  0
 19 24  1  0  0  0  0
 19 20  2  0  0  0  0
 25 26  1  0  0  0  0
 26 34  1  0  0  0  0
 26 27  2  0  0  0  0
  8  9  1  0  0  0  0
  9 17  1  0  0  0  0
  9 10  2  0  0  0  0
 25 28  1  0  0  0  0
  8 11  1  0  0  0  0
 34 35  1  0  0  0  0
 17 18  1  0  0  0  0
 24 25  1  0  0  0  0
  7  8  1  0  0  0  0
  3  4  1  0  0  0  0
  3  5  1  0  0  0  0
  3  6  1  0  0  0  0
 28 31  1  0  0  0  0
 28 32  1  0  0  0  0
 28 33  1  0  0  0  0
 11 14  1  0  0  0  0
 11 15  1  0  0  0  0
 11 16  1  0  0  0  0
 35 37  1  0  0  0  0
 35 38  1  0  0  0  0
 35 39  1  0  0  0  0
 18 22  1  0  0  0  0
 18 23  1  0  0  0  0
 25 30  1  0  0  0  0
  8 13  1  0  0  0  0
 34 36  1  0  0  0  0
 17 21  1  0  0  0  0
  7 12  1  0  0  0  0
 24 29  1  0  0  0  0
M  END
$$$$

  -OEChem-05262214473D

 39 38  0     1  0  0  0  0  0999 V2000
   -3.5200   -4.0268   -1.6943 C   0  0  0  0  0  0  0  0  0  0  0  0
   -2.8702   -4.8827   -1.1054 O   0  0  0  0  0  0  0  0  0  0  0  0
   -4.9704   -4.2579   -1.9614 C   0  0  0  0  0  0  0  0  0  0  0  0
   -5.1456   -4.7573   -2.9278 H   0  0  0  0  0  0  0  0  0  0  0  0
   -5.4379   -4.9112   -1.2072 H   0  0  0  0  0  0  0  0  0  0  0  0
   -5.5954   -3.3510   -1.9864 H   0  0  0  0  0  0  0  0  0  0  0  0
   -3.0424   -2.8131   -2.1606 N   0  0  0  0  0  0  0  0  0  0  0  0
   -1.6755   -2.3891   -2.0077 C   0  0  2  0  0  0  0  0  0  0  0  0
   -1.5782   -1.5673   -0.7292 C   0  0  0  0  0  0  0  0  0  0  0  0
   -2.5448   -1.0064   -0.2171 O   0  0  0  0  0  0  0  0  0  0  0  0
   -1.2087   -1.5823   -3.2094 C   0  0  0  0  0  0  0  0  0  0  0  0
   -3.6915   -2.1888   -2.6360 H   0  0  0  0  0  0  0  0  0  0  0  0
   -1.0721   -3.2977   -1.9053 H   0  0  0  0  0  0  0  0  0  0  0  0
   -1.8017   -0.6681   -3.3281 H   0  0  0  0  0  0  0  0  0  0  0  0
   -0.1601   -1.2849   -3.1045 H   0  0  0  0  0  0  0  0  0  0  0  0
   -1.3074   -2.1646   -4.1319 H   0  0  0  0  0  0  0  0  0  0  0  0
   -0.2835   -1.5112   -0.2725 N   0  0  0  0  0  0  0  0  0  0  0  0
    0.0769   -0.7658    0.9424 C   0  0  0  0  0  0  0  0  0  0  0  0
   -0.8628    0.3998    1.1180 C   0  0  0  0  0  0  0  0  0  0  0  0
   -0.6516    1.5148    0.6483 O   0  0  0  0  0  0  0  0  0  0  0  0
    0.4587   -2.0097   -0.7289 H   0  0  0  0  0  0  0  0  0  0  0  0
    1.1038   -0.4003    0.8494 H   0  0  0  0  0  0  0  0  0  0  0  0
    0.0065   -1.4323    1.8070 H   0  0  0  0  0  0  0  0  0  0  0  0
   -1.9779    0.0494    1.8717 N   0  0  0  0  0  0  0  0  0  0  0  0
   -3.0367    0.9684    2.1972 C   0  0  2  0  0  0  0  0  0  0  0  0
   -4.3410    0.3916    1.6628 C   0  0  0  0  0  0  0  0  0  0  0  0
   -4.3866   -0.4318    0.7512 O   0  0  0  0  0  0  0  0  0  0  0  0
   -2.7721    2.3470    1.6124 C   0  0  0  0  0  0  0  0  0  0  0  0
   -2.0491   -0.9084    2.2112 H   0  0  0  0  0  0  0  0  0  0  0  0
   -3.0821    1.0241    3.2903 H   0  0  0  0  0  0  0  0  0  0  0  0
   -2.7232    2.3111    0.5179 H   0  0  0  0  0  0  0  0  0  0  0  0
   -3.5641    3.0523    1.8849 H   0  0  0  0  0  0  0  0  0  0  0  0
   -1.8192    2.7477    1.9746 H   0  0  0  0  0  0  0  0  0  0  0  0
   -5.4501    0.9366    2.2944 N   0  0  0  0  0  0  0  0  0  0  0  0
   -6.8030    0.5609    1.9559 C   0  0  0  0  0  0  0  0  0  0  0  0
   -5.3179    1.5992    3.0528 H   0  0  0  0  0  0  0  0  0  0  0  0
   -7.1954    1.2495    1.1932 H   0  0  0  0  0  0  0  0  0  0  0  0
   -6.8104   -0.4659    1.5613 H   0  0  0  0  0  0  0  0  0  0  0  0
   -7.4338    0.6124    2.8556 H   0  0  0  0  0  0  0  0  0  0  0  0
  1  3  1  0  0  0  0
  1  7  1  0  0  0  0
  1  2  2  0  0  0  0
 18 19  1  0  0  0  0
 19 24  1  0  0  0  0
 19 20  2  0  0  0  0
 25 26  1  0  0  0  0
 26 34  1  0  0  0  0
 26 27  2  0  0  0  0
  8  9  1  0  0  0  0
  9 17  1  0  0  0  0
  9 10  2  0  0  0  0
 25 28  1  0  0  0  0
  8 11  1  0  0  0  0
 34 35  1  0  0  0  0
 17 18  1  0  0  0  0
 24 25  1  0  0  0  0
  7  8  1  0  0  0  0
  3  4  1  0  0  0  0
  3  5  1  0  0  0  0
  3  6  1  0  0  0  0
 28 31  1  0  0  0  0
 28 32  1  0  0  0  0
 28 33  1  0  0  0  0
 11 14  1  0  0  0  0
 11 15  1  0  0  0  0
 11 16  1  0  0  0  0
 35 37  1  0  0  0  0
 35 38  1  0  0  0  0
 35 39  1  0  0  0  0
 18 22  1  0  0  0  0
 18 23  1  0  0  0  0
 25 30  1  0  0  0  0
  8 13  1  0  0  0  0
 34 36  1  0  0  0  0
 17 21  1  0  0  0  0
  7 12  1  0  0  0  0
 24 29  1  0  0  0  0
M  END
$$$$

  -OEChem-05262214473D

 39 38  0     1  0  0  0  0  0999 V2000
   -3.5200   -4.0268   -1.6943 C   0  0  0  0  0  0  0  0  0  0  0  0
   -2.8702   -4.8827   -1.1054 O   0  0  0  0  0  0  0  0  0  0  0  0
   -4.9704   -4.2579   -1.9614 C   0  0  0  0  0  0  0  0  0  0  0  0
   -5.1456   -4.7573   -2.9278 H   0  0  0  0  0  0  0  0  0  0  0  0
   -5.4379   -4.9112   -1.2072 H   0  0  0  0  0  0  0  0  0  0  0  0
   -5.5954   -3.3510   -1.9864 H   0  0  0  0  0  0  0  0  0  0  0  0
   -3.0424   -2.8131   -2.1606 N   0  0  0  0  0  0  0  0  0  0  0  0
   -1.6755   -2.3891   -2.0077 C   0  0  2  0  0  0  0  0  0  0  0  0
   -1.5782   -1.5673   -0.7292 C   0  0  0  0  0  0  0  0  0  0  0  0
   -2.5448   -1.0064   -0.2171 O   0  0  0  0  0  0  0  0  0  0  0  0
   -1.2087   -1.5823   -3.2094 C   0  0  0  0  0  0  0  0  0  0  0  0
   -3.6915   -2.1888   -2.6360 H   0  0  0  0  0  0  0  0  0  0  0  0
   -1.0721   -3.2977   -1.9053 H   0  0  0  0  0  0  0  0  0  0  0  0
   -1.8017   -0.6681   -3.3281 H   0  0  0  0  0  0  0  0  0  0  0  0
   -0.1601   -1.2849   -3.1045 H   0  0  0  0  0  0  0  0  0  0  0  0
   -1.3074   -2.1646   -4.1319 H   0  0  0  0  0  0  0  0  0  0  0  0
   -0.2835   -1.5112   -0.2725 N   0  0  0  0  0  0  0  0  0  0  0  0
    0.0769   -0.7658    0.9424 C   0  0  0  0  0  0  0  0  0  0  0  0
   -0.8628    0.3998    1.1180 C   0  0  0  0  0  0  0  0  0  0  0  0
   -0.8007    1.4252    0.4449 O   0  0  0  0  0  0  0  0  0  0  0  0
    0.4587   -2.0097   -0.7289 H   0  0  0  0  0  0  0  0  0  0  0  0
    1.1038   -0.4003    0.8494 H   0  0  0  0  0  0  0  0  0  0  0  0
    0.0065   -1.4323    1.8070 H   0  0  0  0  0  0  0  0  0  0  0  0
   -1.7894    0.1628    2.1277 N   0  0  0  0  0  0  0  0  0  0  0  0
   -2.8046    1.1082    2.5114 C   0  0  2  0  0  0  0  0  0  0  0  0
   -4.1604    0.4335    2.3505 C   0  0  0  0  0  0  0  0  0  0  0  0
   -4.3470   -0.5291    1.6090 O   0  0  0  0  0  0  0  0  0  0  0  0
   -2.7252    2.3754    1.6744 C   0  0  0  0  0  0  0  0  0  0  0  0
   -1.7474   -0.7270    2.6219 H   0  0  0  0  0  0  0  0  0  0  0  0
   -2.6356    1.3423    3.5681 H   0  0  0  0  0  0  0  0  0  0  0  0
   -2.8920    2.1607    0.6125 H   0  0  0  0  0  0  0  0  0  0  0  0
   -3.4798    3.1050    1.9866 H   0  0  0  0  0  0  0  0  0  0  0  0
   -1.7393    2.8432    1.7680 H   0  0  0  0  0  0  0  0  0  0  0  0
   -5.1471    1.0597    3.0993 N   0  0  0  0  0  0  0  0  0  0  0  0
   -6.5212    0.6149    3.1057 C   0  0  0  0  0  0  0  0  0  0  0  0
   -4.8986    1.8397    3.7005 H   0  0  0  0  0  0  0  0  0  0  0  0
   -7.0882    1.1633    2.3391 H   0  0  0  0  0  0  0  0  0  0  0  0
   -6.5586   -0.4628    2.8884 H   0  0  0  0  0  0  0  0  0  0  0  0
   -6.9633    0.8051    4.0948 H   0  0  0  0  0  0  0  0  0  0  0  0
  1  3  1  0  0  0  0
  1  7  1  0  0  0  0
  1  2  2  0  0  0  0
 18 19  1  0  0  0  0
 19 24  1  0  0  0  0
 19 20  2  0  0  0  0
 25 26  1  0  0  0  0
 26 34  1  0  0  0  0
 26 27  2  0  0  0  0
  8  9  1  0  0  0  0
  9 17  1  0  0  0  0
  9 10  2  0  0  0  0
 25 28  1  0  0  0  0
  8 11  1  0  0  0  0
 34 35  1  0  0  0  0
 17 18  1  0  0  0  0
 24 25  1  0  0  0  0
  7  8  1  0  0  0  0
  3  4  1  0  0  0  0
  3  5  1  0  0  0  0
  3  6  1  0  0  0  0
 28 31  1  0  0  0  0
 28 32  1  0  0  0  0
 28 33  1  0  0  0  0
 11 14  1  0  0  0  0
 11 15  1  0  0  0  0
 11 16  1  0  0  0  0
 35 37  1  0  0  0  0
 35 38  1  0  0  0  0
 35 39  1  0  0  0  0
 18 22  1  0  0  0  0
 18 23  1  0  0  0  0
 25 30  1  0  0  0  0
  8 13  1  0  0  0  0
 34 36  1  0  0  0  0
 17 21  1  0  0  0  0
  7 12  1  0  0  0  0
 24 29  1  0  0  0  0
M  END
$$$$

  -OEChem-05262214473D

 39 38  0     1  0  0  0  0  0999 V2000
   -3.5200   -4.0268   -1.6943 C   0  0  0  0  0  0  0  0  0  0  0  0
   -2.8702   -4.8827   -1.1054 O   0  0  0  0  0  0  0  0  0  0  0  0
   -4.9704   -4.2579   -1.9614 C   0  0  0  0  0  0  0  0  0  0  0  0
   -5.1456   -4.7573   -2.9278 H   0  0  0  0  0  0  0  0  0  0  0  0
   -5.4379   -4.9112   -1.2072 H   0  0  0  0  0  0  0  0  0  0  0  0
   -5.5954   -3.3510   -1.9864 H   0  0  0  0  0  0  0  0  0  0  0  0
   -3.0424   -2.8131   -2.1606 N   0  0  0  0  0  0  0  0  0  0  0  0
   -1.6755   -2.3891   -2.0077 C   0  0  2  0  0  0  0  0  0  0  0  0
   -1.5782   -1.5673   -0.7292 C   0  0  0  0  0  0  0  0  0  0  0  0
   -2.5448   -1.0064   -0.2171 O   0  0  0  0  0  0  0  0  0  0  0  0
   -1.2087   -1.5823   -3.2094 C   0  0  0  0  0  0  0  0  0  0  0  0
   -3.6915   -2.1888   -2.6360 H   0  0  0  0  0  0  0  0  0  0  0  0
   -1.0721   -3.2977   -1.9053 H   0  0  0  0  0  0  0  0  0  0  0  0
   -1.8017   -0.6681   -3.3281 H   0  0  0  0  0  0  0  0  0  0  0  0
   -0.1601   -1.2849   -3.1045 H   0  0  0  0  0  0  0  0  0  0  0  0
   -1.3074   -2.1646   -4.1319 H   0  0  0  0  0  0  0  0  0  0  0  0
   -0.2835   -1.5112   -0.2725 N   0  0  0  0  0  0  0  0  0  0  0  0
    0.0769   -0.7658    0.9424 C   0  0  0  0  0  0  0  0  0  0  0  0
   -0.8628    0.3998    1.1180 C   0  0  0  0  0  0  0  0  0  0  0  0
   -0.9828    1.3013    0.2926 O   0  0  0  0  0  0  0  0  0  0  0  0
    0.4587   -2.0097   -0.7289 H   0  0  0  0  0  0  0  0  0  0  0  0
    1.1038   -0.4003    0.8494 H   0  0  0  0  0  0  0  0  0  0  0  0
    0.0065   -1.4323    1.8070 H   0  0  0  0  0  0  0  0  0  0  0  0
   -1.5595    0.3193    2.3190 N   0  0  0  0  0  0  0  0  0  0  0  0
   -2.5217    1.3009    2.7458 C   0  0  2  0  0  0  0  0  0  0  0  0
   -3.8497    0.5904    2.9718 C   0  0  0  0  0  0  0  0  0  0  0  0
   -4.1341   -0.4834    2.4454 O   0  0  0  0  0  0  0  0  0  0  0  0
   -2.6685    2.4142    1.7203 C   0  0  0  0  0  0  0  0  0  0  0  0
   -1.3793   -0.4764    2.9289 H   0  0  0  0  0  0  0  0  0  0  0  0
   -2.1583    1.7079    3.6957 H   0  0  0  0  0  0  0  0  0  0  0  0
   -3.0317    2.0257    0.7619 H   0  0  0  0  0  0  0  0  0  0  0  0
   -3.3795    3.1748    2.0594 H   0  0  0  0  0  0  0  0  0  0  0  0
   -1.7063    2.9046    1.5370 H   0  0  0  0  0  0  0  0  0  0  0  0
   -4.6969    1.3176    3.7962 N   0  0  0  0  0  0  0  0  0  0  0  0
   -6.0204    0.8611    4.1512 C   0  0  0  0  0  0  0  0  0  0  0  0
   -4.3711    2.1892    4.2035 H   0  0  0  0  0  0  0  0  0  0  0  0
   -6.7527    1.2682    3.4385 H   0  0  0  0  0  0  0  0  0  0  0  0
   -6.0499   -0.2380    4.1193 H   0  0  0  0  0  0  0  0  0  0  0  0
   -6.2667    1.2052    5.1666 H   0  0  0  0  0  0  0  0  0  0  0  0
  1  3  1  0  0  0  0
  1  7  1  0  0  0  0
  1  2  2  0  0  0  0
 18 19  1  0  0  0  0
 19 24  1  0  0  0  0
 19 20  2  0  0  0  0
 25 26  1  0  0  0  0
 26 34  1  0  0  0  0
 26 27  2  0  0  0  0
  8  9  1  0  0  0  0
  9 17  1  0  0  0  0
  9 10  2  0  0  0  0
 25 28  1  0  0  0  0
  8 11  1  0  0  0  0
 34 35  1  0  0  0  0
 17 18  1  0  0  0  0
 24 25  1  0  0  0  0
  7  8  1  0  0  0  0
  3  4  1  0  0  0  0
  3  5  1  0  0  0  0
  3  6  1  0  0  0  0
 28 31  1  0  0  0  0
 28 32  1  0  0  0  0
 28 33  1  0  0  0  0
 11 14  1  0  0  0  0
 11 15  1  0  0  0  0
 11 16  1  0  0  0  0
 35 37  1  0  0  0  0
 35 38  1  0  0  0  0
 35 39  1  0  0  0  0
 18 22  1  0  0  0  0
 18 23  1  0  0  0  0
 25 30  1  0  0  0  0
  8 13  1  0  0  0  0
 34 36  1  0  0  0  0
 17 21  1  0  0  0  0
  7 12  1  0  0  0  0
 24 29  1  0  0  0  0
M  END
$$$$

  -OEChem-05262214473D

 39 38  0     1  0  0  0  0  0999 V2000
   -3.5200   -4.0268   -1.6943 C   0  0  0  0  0  0  0  0  0  0  0  0
   -2.8702   -4.8827   -1.1054 O   0  0  0  0  0  0  0  0  0  0  0  0
   -4.9704   -4.2579   -1.9614 C   0  0  0  0  0  0  0  0  0  0  0  0
   -5.1456   -4.7573   -2.9278 H   0  0  0  0  0  0  0  0  0  0  0  0
   -5.4379   -4.9112   -1.2072 H   0  0  0  0  0  0  0  0  0  0  0  0
   -5.5954   -3.3510   -1.9864 H   0  0  0  0  0  0  0  0  0  0  0  0
   -3.0424   -2.8131   -2.1606 N   0  0  0  0  0  0  0  0  0  0  0  0
   -1.6755   -2.3891   -2.0077 C   0  0  2  0  0  0  0  0  0  0  0  0
   -1.5782   -1.5673   -0.7292 C   0  0  0  0  0  0  0  0  0  0  0  0
   -2.5448   -1.0064   -0.2171 O   0  0  0  0  0  0  0  0  0  0  0  0
   -1.2087   -1.5823   -3.2094 C   0  0  0  0  0  0  0  0  0  0  0  0
   -3.6915   -2.1888   -2.6360 H   0  0  0  0  0  0  0  0  0  0  0  0
   -1.0721   -3.2977   -1.9053 H   0  0  0  0  0  0  0  0  0  0  0  0
   -1.8017   -0.6681   -3.3281 H   0  0  0  0  0  0  0  0  0  0  0  0
   -0.1601   -1.2849   -3.1045 H   0  0  0  0  0  0  0  0  0  0  0  0
   -1.3074   -2.1646   -4.1319 H   0  0  0  0  0  0  0  0  0  0  0  0
   -0.2835   -1.5112   -0.2725 N   0  0  0  0  0  0  0  0  0  0  0  0
    0.0769   -0.7658    0.9424 C   0  0  0  0  0  0  0  0  0  0  0  0
   -0.8628    0.3998    1.1180 C   0  0  0  0  0  0  0  0  0  0  0  0
   -1.1854    1.1516    0.2020 O   0  0  0  0  0  0  0  0  0  0  0  0
    0.4587   -2.0097   -0.7289 H   0  0  0  0  0  0  0  0  0  0  0  0
    1.1038   -0.4003    0.8494 H   0  0  0  0  0  0  0  0  0  0  0  0
    0.0065   -1.4323    1.8070 H   0  0  0  0  0  0  0  0  0  0  0  0
   -1.3039    0.5083    2.4325 N   0  0  0  0  0  0  0  0  0  0  0  0
   -2.2074    1.5334    2.8846 C   0  0  2  0  0  0  0  0  0  0  0  0
   -3.4300    0.8516    3.4845 C   0  0  0  0  0  0  0  0  0  0  0  0
   -3.7624   -0.2979    3.2033 O   0  0  0  0  0  0  0  0  0  0  0  0
   -2.6056    2.4609    1.7471 C   0  0  0  0  0  0  0  0  0  0  0  0
   -0.9698   -0.1738    3.1113 H   0  0  0  0  0  0  0  0  0  0  0  0
   -1.6827    2.0959    3.6645 H   0  0  0  0  0  0  0  0  0  0  0  0
   -3.1326    1.9151    0.9560 H   0  0  0  0  0  0  0  0  0  0  0  0
   -3.2703    3.2570    2.0985 H   0  0  0  0  0  0  0  0  0  0  0  0
   -1.7226    2.9276    1.2974 H   0  0  0  0  0  0  0  0  0  0  0  0
   -4.1305    1.6927    4.3377 N   0  0  0  0  0  0  0  0  0  0  0  0
   -5.3349    1.2827    5.0212 C   0  0  0  0  0  0  0  0  0  0  0  0
   -3.7715    2.6238    4.5273 H   0  0  0  0  0  0  0  0  0  0  0  0
   -6.2118    1.5570    4.4163 H   0  0  0  0  0  0  0  0  0  0  0  0
   -5.3189    0.1930    5.1703 H   0  0  0  0  0  0  0  0  0  0  0  0
   -5.3915    1.7856    5.9978 H   0  0  0  0  0  0  0  0  0  0  0  0
  1  3  1  0  0  0  0
  1  7  1  0  0  0  0
  1  2  2  0  0  0  0
 18 19  1  0  0  0  0
 19 24  1  0  0  0  0
 19 20  2  0  0  0  0
 25 26  1  0  0  0  0
 26 34  1  0  0  0  0
 26 27  2  0  0  0  0
  8  9  1  0  0  0  0
  9 17  1  0  0  0  0
  9 10  2  0  0  0  0
 25 28  1  0  0  0  0
  8 11  1  0  0  0  0
 34 35  1  0  0  0  0
 17 18  1  0  0  0  0
 24 25  1  0  0  0  0
  7  8  1  0  0  0  0
  3  4  1  0  0  0  0
  3  5  1  0  0  0  0
  3  6  1  0  0  0  0
 28 31  1  0  0  0  0
 28 32  1  0  0  0  0
 28 33  1  0  0  0  0
 11 14  1  0  0  0  0
 11 15  1  0  0  0  0
 11 16  1  0  0  0  0
 35 37  1  0  0  0  0
 35 38  1  0  0  0  0
 35 39  1  0  0  0  0
 18 22  1  0  0  0  0
 18 23  1  0  0  0  0
 25 30  1  0  0  0  0
  8 13  1  0  0  0  0
 34 36  1  0  0  0  0
 17 21  1  0  0  0  0
  7 12  1  0  0  0  0
 24 29  1  0  0  0  0
M  END
$$$$

  -OEChem-05262214473D

 39 38  0     1  0  0  0  0  0999 V2000
   -3.5200   -4.0268   -1.6943 C   0  0  0  0  0  0  0  0  0  0  0  0
   -2.8702   -4.8827   -1.1054 O   0  0  0  0  0  0  0  0  0  0  0  0
   -4.9704   -4.2579   -1.9614 C   0  0  0  0  0  0  0  0  0  0  0  0
   -5.1456   -4.7573   -2.9278 H   0  0  0  0  0  0  0  0  0  0  0  0
   -5.4379   -4.9112   -1.2072 H   0  0  0  0  0  0  0  0  0  0  0  0
   -5.5954   -3.3510   -1.9864 H   0  0  0  0  0  0  0  0  0  0  0  0
   -3.0424   -2.8131   -2.1606 N   0  0  0  0  0  0  0  0  0  0  0  0
   -1.6755   -2.3891   -2.0077 C   0  0  2  0  0  0  0  0  0  0  0  0
   -1.5782   -1.5673   -0.7292 C   0  0  0  0  0  0  0  0  0  0  0  0
   -2.5448   -1.0064   -0.2171 O   0  0  0  0  0  0  0  0  0  0  0  0
   -1.2087   -1.5823   -3.2094 C   0  0  0  0  0  0  0  0  0  0  0  0
   -3.6915   -2.1888   -2.6360 H   0  0  0  0  0  0  0  0  0  0  0  0
   -1.0721   -3.2977   -1.9053 H   0  0  0  0  0  0  0  0  0  0  0  0
   -1.8017   -0.6681   -3.3281 H   0  0  0  0  0  0  0  0  0  0  0  0
   -0.1601   -1.2849   -3.1045 H   0  0  0  0  0  0  0  0  0  0  0  0
   -1.3074   -2.1646   -4.1319 H   0  0  0  0  0  0  0  0  0  0  0  0
   -0.2835   -1.5112   -0.2725 N   0  0  0  0  0  0  0  0  0  0  0  0
    0.0769   -0.7658    0.9424 C   0  0  0  0  0  0  0  0  0  0  0  0
   -0.8628    0.3998    1.1180 C   0  0  0  0  0  0  0  0  0  0  0  0
   -1.3948    0.9863    0.1792 O   0  0  0  0  0  0  0  0  0  0  0  0
    0.4587   -2.0097   -0.7289 H   0  0  0  0  0  0  0  0  0  0  0  0
    1.1038   -0.4003    0.8494 H   0  0  0  0  0  0  0  0  0  0  0  0
    0.0065   -1.4323    1.8070 H   0  0  0  0  0  0  0  0  0  0  0  0
   -1.0399    0.7169    2.4605 N   0  0  0  0  0  0  0  0  0  0  0  0
   -1.8830    1.7899    2.9182 C   0  0  2  0  0  0  0  0  0  0  0  0
   -2.9298    1.1993    3.8535 C   0  0  0  0  0  0  0  0  0  0  0  0
   -3.2573    0.0147    3.8311 O   0  0  0  0  0  0  0  0  0  0  0  0
   -2.5409    2.5122    1.7528 C   0  0  0  0  0  0  0  0  0  0  0  0
   -0.5469    0.1603    3.1568 H   0  0  0  0  0  0  0  0  0  0  0  0
   -1.2413    2.4801    3.4766 H   0  0  0  0  0  0  0  0  0  0  0  0
   -3.1879    1.8365    1.1814 H   0  0  0  0  0  0  0  0  0  0  0  0
   -3.1594    3.3460    2.1010 H   0  0  0  0  0  0  0  0  0  0  0  0
   -1.7869    2.9106    1.0655 H   0  0  0  0  0  0  0  0  0  0  0  0
   -3.4862    2.1595    4.6869 N   0  0  0  0  0  0  0  0  0  0  0  0
   -4.5114    1.8510    5.6563 C   0  0  0  0  0  0  0  0  0  0  0  0
   -3.1406    3.1140    4.6500 H   0  0  0  0  0  0  0  0  0  0  0  0
   -5.5024    2.0100    5.2060 H   0  0  0  0  0  0  0  0  0  0  0  0
   -4.4155    0.8009    5.9696 H   0  0  0  0  0  0  0  0  0  0  0  0
   -4.3972    2.5068    6.5320 H   0  0  0  0  0  0  0  0  0  0  0  0
  1  3  1  0  0  0  0
  1  7  1  0  0  0  0
  1  2  2  0  0  0  0
 18 19  1  0  0  0  0
 19 24  1  0  0  0  0
 19 20  2  0  0  0  0
 25 26  1  0  0  0  0
 26 34  1  0  0  0  0
 26 27  2  0  0  0  0
  8  9  1  0  0  0  0
  9 17  1  0  0  0  0
  9 10  2  0  0  0  0
 25 28  1  0  0  0  0
  8 11  1  0  0  0  0
 34 35  1  0  0  0  0
 17 18  1  0  0  0  0
 24 25  1  0  0  0  0
  7  8  1  0  0  0  0
  3  4  1  0  0  0  0
  3  5  1  0  0  0  0
  3  6  1  0  0  0  0
 28 31  1  0  0  0  0
 28 32  1  0  0  0  0
 28 33  1  0  0  0  0
 11 14  1  0  0  0  0
 11 15  1  0  0  0  0
 11 16  1  0  0  0  0
 35 37  1  0  0  0  0
 35 38  1  0  0  0  0
 35 39  1  0  0  0  0
 18 22  1  0  0  0  0
 18 23  1  0  0  0  0
 25 30  1  0  0  0  0
  8 13  1  0  0  0  0
 34 36  1  0  0  0  0
 17 21  1  0  0  0  0
  7 12  1  0  0  0  0
 24 29  1  0  0  0  0
M  END
$$$$

  -OEChem-05262214473D

 39 38  0     1  0  0  0  0  0999 V2000
   -3.5200   -4.0268   -1.6943 C   0  0  0  0  0  0  0  0  0  0  0  0
   -2.8702   -4.8827   -1.1054 O   0  0  0  0  0  0  0  0  0  0  0  0
   -4.9704   -4.2579   -1.9614 C   0  0  0  0  0  0  0  0  0  0  0  0
   -5.1456   -4.7573   -2.9278 H   0  0  0  0  0  0  0  0  0  0  0  0
   -5.4379   -4.9112   -1.2072 H   0  0  0  0  0  0  0  0  0  0  0  0
   -5.5954   -3.3510   -1.9864 H   0  0  0  0  0  0  0  0  0  0  0  0
   -3.0424   -2.8131   -2.1606 N   0  0  0  0  0  0  0  0  0  0  0  0
   -1.6755   -2.3891   -2.0077 C   0  0  2  0  0  0  0  0  0  0  0  0
   -1.5782   -1.5673   -0.7292 C   0  0  0  0  0  0  0  0  0  0  0  0
   -2.5448   -1.0064   -0.2171 O   0  0  0  0  0  0  0  0  0  0  0  0
   -1.2087   -1.5823   -3.2094 C   0  0  0  0  0  0  0  0  0  0  0  0
   -3.6915   -2.1888   -2.6360 H   0  0  0  0  0  0  0  0  0  0  0  0
   -1.0721   -3.2977   -1.9053 H   0  0  0  0  0  0  0  0  0  0  0  0
   -1.8017   -0.6681   -3.3281 H   0  0  0  0  0  0  0  0  0  0  0  0
   -0.1601   -1.2849   -3.1045 H   0  0  0  0  0  0  0  0  0  0  0  0
   -1.3074   -2.1646   -4.1319 H   0  0  0  0  0  0  0  0  0  0  0  0
   -0.2835   -1.5112   -0.2725 N   0  0  0  0  0  0  0  0  0  0  0  0
    0.0769   -0.7658    0.9424 C   0  0  0  0  0  0  0  0  0  0  0  0
   -0.8628    0.3998    1.1180 C   0  0  0  0  0  0  0  0  0  0  0  0
   -1.5966    0.8166    0.2257 O   0  0  0  0  0  0  0  0  0  0  0  0
    0.4587   -2.0097   -0.7289 H   0  0  0  0  0  0  0  0  0  0  0  0
    1.1038   -0.4003    0.8494 H   0  0  0  0  0  0  0  0  0  0  0  0
    0.0065   -1.4323    1.8070 H   0  0  0  0  0  0  0  0  0  0  0  0
   -0.7857    0.9309    2.4011 N   0  0  0  0  0  0  0  0  0  0  0  0
   -1.5706    2.0528    2.8444 C   0  0  2  0  0  0  0  0  0  0  0  0
   -2.3833    1.6097    4.0538 C   0  0  0  0  0  0  0  0  0  0  0  0
   -2.6533    0.4331    4.2860 O   0  0  0  0  0  0  0  0  0  0  0  0
   -2.4789    2.5646    1.7371 C   0  0  0  0  0  0  0  0  0  0  0  0
   -0.1393    0.5031    3.0622 H   0  0  0  0  0  0  0  0  0  0  0  0
   -0.8641    2.8342    3.1447 H   0  0  0  0  0  0  0  0  0  0  0  0
   -3.1938    1.7954    1.4230 H   0  0  0  0  0  0  0  0  0  0  0  0
   -3.0544    3.4358    2.0670 H   0  0  0  0  0  0  0  0  0  0  0  0
   -1.8950    2.8549    0.8571 H   0  0  0  0  0  0  0  0  0  0  0  0
   -2.8081    2.6861    4.8199 N   0  0  0  0  0  0  0  0  0  0  0  0
   -3.6060    2.5271    6.0133 C   0  0  0  0  0  0  0  0  0  0  0  0
   -2.5215    3.6262    4.5632 H   0  0  0  0  0  0  0  0  0  0  0  0
   -4.6727    2.5964    5.7537 H   0  0  0  0  0  0  0  0  0  0  0  0
   -3.4013    1.5443    6.4628 H   0  0  0  0  0  0  0  0  0  0  0  0
   -3.3516    3.3195    6.7326 H   0  0  0  0  0  0  0  0  0  0  0  0
  1  3  1  0  0  0  0
  1  7  1  0  0  0  0
  1  2  2  0  0  0  0
 18 19  1  0  0  0  0
 19 24  1  0  0  0  0
 19 20  2  0  0  0  0
 25 26  1  0  0  0  0
 26 34  1  0  0  0  0
 26 27  2  0  0  0  0
  8  9  1  0  0  0  0
  9 17  1  0  0  0  0
  9 10  2  0  0  0  0
 25 28  1  0  0  0  0
  8 11  1  0  0  0  0
 34 35  1  0  0  0  0
 17 18  1  0  0  0  0
 24 25  1  0  0  0  0
  7  8  1  0  0  0  0
  3  4  1  0  0  0  0
  3  5  1  0  0  0  0
  3  6  1  0  0  0  0
 28 31  1  0  0  0  0
 28 32  1  0  0  0  0
 28 33  1  0  0  0  0
 11 14  1  0  0  0  0
 11 15  1  0  0  0  0
 11 16  1  0  0  0  0
 35 37  1  0  0  0  0
 35 38  1  0  0  0  0
 35 39  1  0  0  0  0
 18 22  1  0  0  0  0
 18 23  1  0  0  0  0
 25 30  1  0  0  0  0
  8 13  1  0  0  0  0
 34 36  1  0  0  0  0
 17 21  1  0  0  0  0
  7 12  1  0  0  0  0
 24 29  1  0  0  0  0
M  END
$$$$

  -OEChem-05262214473D

 39 38  0     1  0  0  0  0  0999 V2000
   -3.5200   -4.0268   -1.6943 C   0  0  0  0  0  0  0  0  0  0  0  0
   -2.8702   -4.8827   -1.1054 O   0  0  0  0  0  0  0  0  0  0  0  0
   -4.9704   -4.2579   -1.9614 C   0  0  0  0  0  0  0  0  0  0  0  0
   -5.1456   -4.7573   -2.9278 H   0  0  0  0  0  0  0  0  0  0  0  0
   -5.4379   -4.9112   -1.2072 H   0  0  0  0  0  0  0  0  0  0  0  0
   -5.5954   -3.3510   -1.9864 H   0  0  0  0  0  0  0  0  0  0  0  0
   -3.0424   -2.8131   -2.1606 N   0  0  0  0  0  0  0  0  0  0  0  0
   -1.6755   -2.3891   -2.0077 C   0  0  2  0  0  0  0  0  0  0  0  0
   -1.5782   -1.5673   -0.7292 C   0  0  0  0  0  0  0  0  0  0  0  0
   -2.5448   -1.0064   -0.2171 O   0  0  0  0  0  0  0  0  0  0  0  0
   -1.2087   -1.5823   -3.2094 C   0  0  0  0  0  0  0  0  0  0  0  0
   -3.6915   -2.1888   -2.6360 H   0  0  0  0  0  0  0  0  0  0  0  0
   -1.0721   -3.2977   -1.9053 H   0  0  0  0  0  0  0  0  0  0  0  0
   -1.8017   -0.6681   -3.3281 H   0  0  0  0  0  0  0  0  0  0  0  0
   -0.1601   -1.2849   -3.1045 H   0  0  0  0  0  0  0  0  0  0  0  0
   -1.3074   -2.1646   -4.1319 H   0  0  0  0  0  0  0  0  0  0  0  0
   -0.2835   -1.5112   -0.2725 N   0  0  0  0  0  0  0  0  0  0  0  0
    0.0769   -0.7658    0.9424 C   0  0  0  0  0  0  0  0  0  0  0  0
   -1.0528    0.1567    1.3235 C   0  0  0  0  0  0  0  0  0  0  0  0
   -2.0988    0.2435    0.6857 O   0  0  0  0  0  0  0  0  0  0  0  0
    0.4587   -2.0097   -0.7289 H   0  0  0  0  0  0  0  0  0  0  0  0
    0.9815   -0.1810    0.7511 H   0  0  0  0  0  0  0  0  0  0  0  0
    0.2680   -1.4733    1.7545 H   0  0  0  0  0  0  0  0  0  0  0  0
   -0.7549    0.8842    2.4708 N   0  0  0  0  0  0  0  0  0  0  0  0
   -1.6530    1.8432    3.0582 C   0  0  2  0  0  0  0  0  0  0  0  0
   -1.9258    1.4143    4.4939 C   0  0  0  0  0  0  0  0  0  0  0  0
   -1.7839    0.2582    4.8870 O   0  0  0  0  0  0  0  0  0  0  0  0
   -2.9474    1.9463    2.2665 C   0  0  0  0  0  0  0  0  0  0  0  0
    0.1468    0.7302    2.9192 H   0  0  0  0  0  0  0  0  0  0  0  0
   -1.1318    2.8067    3.0571 H   0  0  0  0  0  0  0  0  0  0  0  0
   -3.4836    0.9903    2.2565 H   0  0  0  0  0  0  0  0  0  0  0  0
   -3.6178    2.6968    2.6982 H   0  0  0  0  0  0  0  0  0  0  0  0
   -2.7470    2.2259    1.2266 H   0  0  0  0  0  0  0  0  0  0  0  0
   -2.3875    2.4653    5.2738 N   0  0  0  0  0  0  0  0  0  0  0  0
   -2.7291    2.3097    6.6685 C   0  0  0  0  0  0  0  0  0  0  0  0
   -2.4565    3.3946    4.8698 H   0  0  0  0  0  0  0  0  0  0  0  0
   -3.8015    2.0830    6.7608 H   0  0  0  0  0  0  0  0  0  0  0  0
   -2.1418    1.4858    7.1000 H   0  0  0  0  0  0  0  0  0  0  0  0
   -2.5039    3.2419    7.2072 H   0  0  0  0  0  0  0  0  0  0  0  0
  1  3  1  0  0  0  0
  1  7  1  0  0  0  0
  1  2  2  0  0  0  0
 18 19  1  0  0  0  0
 19 24  1  0  0  0  0
 19 20  2  0  0  0  0
 25 26  1  0  0  0  0
 26 34  1  0  0  0  0
 26 27  2  0  0  0  0
  8  9  1  0  0  0  0
  9 17  1  0  0  0  0
  9 10  2  0  0  0  0
 25 28  1  0  0  0  0
  8 11  1  0  0  0  0
 34 35  1  0  0  0  0
 17 18  1  0  0  0  0
 24 25  1  0  0  0  0
  7  8  1  0  0  0  0
  3  4  1  0  0  0  0
  3  5  1  0  0  0  0
  3  6  1  0  0  0  0
 28 31  1  0  0  0  0
 28 32  1  0  0  0  0
 28 33  1  0  0  0  0
 11 14  1  0  0  0  0
 11 15  1  0  0  0  0
 11 16  1  0  0  0  0
 35 37  1  0  0  0  0
 35 38  1  0  0  0  0
 35 39  1  0  0  0  0
 18 22  1  0  0  0  0
 18 23  1  0  0  0  0
 25 30  1  0  0  0  0
  8 13  1  0  0  0  0
 34 36  1  0  0  0  0
 17 21  1  0  0  0  0
  7 12  1  0  0  0  0
 24 29  1  0  0  0  0
M  END
$$$$

  -OEChem-05262214473D

 39 38  0     1  0  0  0  0  0999 V2000
   -3.5200   -4.0268   -1.6943 C   0  0  0  0  0  0  0  0  0  0  0  0
   -2.8702   -4.8827   -1.1054 O   0  0  0  0  0  0  0  0  0  0  0  0
   -4.9704   -4.2579   -1.9614 C   0  0  0  0  0  0  0  0  0  0  0  0
   -5.1456   -4.7573   -2.9278 H   0  0  0  0  0  0  0  0  0  0  0  0
   -5.4379   -4.9112   -1.2072 H   0  0  0  0  0  0  0  0  0  0  0  0
   -5.5954   -3.3510   -1.9864 H   0  0  0  0  0  0  0  0  0  0  0  0
   -3.0424   -2.8131   -2.1606 N   0  0  0  0  0  0  0  0  0  0  0  0
   -1.6755   -2.3891   -2.0077 C   0  0  2  0  0  0  0  0  0  0  0  0
   -1.5782   -1.5673   -0.7292 C   0  0  0  0  0  0  0  0  0  0  0  0
   -2.5448   -1.0064   -0.2171 O   0  0  0  0  0  0  0  0  0  0  0  0
   -1.2087   -1.5823   -3.2094 C   0  0  0  0  0  0  0  0  0  0  0  0
   -3.6915   -2.1888   -2.6360 H   0  0  0  0  0  0  0  0  0  0  0  0
   -1.0721   -3.2977   -1.9053 H   0  0  0  0  0  0  0  0  0  0  0  0
   -1.8017   -0.6681   -3.3281 H   0  0  0  0  0  0  0  0  0  0  0  0
   -0.1601   -1.2849   -3.1045 H   0  0  0  0  0  0  0  0  0  0  0  0
   -1.3074   -2.1646   -4.1319 H   0  0  0  0  0  0  0  0  0  0  0  0
   -0.2835   -1.5112   -0.2725 N   0  0  0  0  0  0  0  0  0  0  0  0
    0.0769   -0.7658    0.9424 C   0  0  0  0  0  0  0  0  0  0  0  0
   -1.0528    0.1567    1.3235 C   0  0  0  0  0  0  0  0  0  0  0  0
   -2.1871    0.0625    0.8621 O   0  0  0  0  0  0  0  0  0  0  0  0
    0.4587   -2.0097   -0.7289 H   0  0  0  0  0  0  0  0  0  0  0  0
    0.9815   -0.1810    0.7511 H   0  0  0  0  0  0  0  0  0  0  0  0
    0.2680   -1.4733    1.7545 H   0  0  0  0  0  0  0  0  0  0  0  0
   -0.6440    1.1121    2.2479 N   0  0  0  0  0  0  0  0  0  0  0  0
   -1.5172    2.1230    2.7836 C   0  0  2  0  0  0  0  0  0  0  0  0
   -1.5330    1.9756    4.2994 C   0  0  0  0  0  0  0  0  0  0  0  0
   -1.2398    0.9296    4.8747 O   0  0  0  0  0  0  0  0  0  0  0  0
   -2.9209    2.0016    2.2111 C   0  0  0  0  0  0  0  0  0  0  0  0
    0.3248    1.0956    2.5623 H   0  0  0  0  0  0  0  0  0  0  0  0
   -1.0821    3.0917    2.5148 H   0  0  0  0  0  0  0  0  0  0  0  0
   -3.3731    1.0374    2.4701 H   0  0  0  0  0  0  0  0  0  0  0  0
   -3.5765    2.7887    2.5979 H   0  0  0  0  0  0  0  0  0  0  0  0
   -2.9041    2.0781    1.1185 H   0  0  0  0  0  0  0  0  0  0  0  0
   -1.9545    3.1366    4.9322 N   0  0  0  0  0  0  0  0  0  0  0  0
   -2.0665    3.2452    6.3681 C   0  0  0  0  0  0  0  0  0  0  0  0
   -2.1592    3.9622    4.3771 H   0  0  0  0  0  0  0  0  0  0  0  0
   -3.0905    2.9883    6.6770 H   0  0  0  0  0  0  0  0  0  0  0  0
   -1.3557    2.5541    6.8445 H   0  0  0  0  0  0  0  0  0  0  0  0
   -1.8383    4.2761    6.6766 H   0  0  0  0  0  0  0  0  0  0  0  0
  1  3  1  0  0  0  0
  1  7  1  0  0  0  0
  1  2  2  0  0  0  0
 18 19  1  0  0  0  0
 19 24  1  0  0  0  0
 19 20  2  0  0  0  0
 25 26  1  0  0  0  0
 26 34  1  0  0  0  0
 26 27  2  0  0  0  0
  8  9  1  0  0  0  0
  9 17  1  0  0  0  0
  9 10  2  0  0  0  0
 25 28  1  0  0  0  0
  8 11  1  0  0  0  0
 34 35  1  0  0  0  0
 17 18  1  0  0  0  0
 24 25  1  0  0  0  0
  7  8  1  0  0  0  0
  3  4  1  0  0  0  0
  3  5  1  0  0  0  0
  3  6  1  0  0  0  0
 28 31  1  0  0  0  0
 28 32  1  0  0  0  0
 28 33  1  0  0  0  0
 11 14  1  0  0  0  0
 11 15  1  0  0  0  0
 11 16  1  0  0  0  0
 35 37  1  0  0  0  0
 35 38  1  0  0  0  0
 35 39  1  0  0  0  0
 18 22  1  0  0  0  0
 18 23  1  0  0  0  0
 25 30  1  0  0  0  0
  8 13  1  0  0  0  0
 34 36  1  0  0  0  0
 17 21  1  0  0  0  0
  7 12  1  0  0  0  0
 24 29  1  0  0  0  0
M  END
$$$$

  -OEChem-05262214473D

 39 38  0     1  0  0  0  0  0999 V2000
   -3.5200   -4.0268   -1.6943 C   0  0  0  0  0  0  0  0  0  0  0  0
   -2.8702   -4.8827   -1.1054 O   0  0  0  0  0  0  0  0  0  0  0  0
   -4.9704   -4.2579   -1.9614 C   0  0  0  0  0  0  0  0  0  0  0  0
   -5.1456   -4.7573   -2.9278 H   0  0  0  0  0  0  0  0  0  0  0  0
   -5.4379   -4.9112   -1.2072 H   0  0  0  0  0  0  0  0  0  0  0  0
   -5.5954   -3.3510   -1.9864 H   0  0  0  0  0  0  0  0  0  0  0  0
   -3.0424   -2.8131   -2.1606 N   0  0  0  0  0  0  0  0  0  0  0  0
   -1.6755   -2.3891   -2.0077 C   0  0  2  0  0  0  0  0  0  0  0  0
   -1.5782   -1.5673   -0.7292 C   0  0  0  0  0  0  0  0  0  0  0  0
   -2.5448   -1.0064   -0.2171 O   0  0  0  0  0  0  0  0  0  0  0  0
   -1.2087   -1.5823   -3.2094 C   0  0  0  0  0  0  0  0  0  0  0  0
   -3.6915   -2.1888   -2.6360 H   0  0  0  0  0  0  0  0  0  0  0  0
   -1.0721   -3.2977   -1.9053 H   0  0  0  0  0  0  0  0  0  0  0  0
   -1.8017   -0.6681   -3.3281 H   0  0  0  0  0  0  0  0  0  0  0  0
   -0.1601   -1.2849   -3.1045 H   0  0  0  0  0  0  0  0  0  0  0  0
   -1.3074   -2.1646   -4.1319 H   0  0  0  0  0  0  0  0  0  0  0  0
   -0.2835   -1.5112   -0.2725 N   0  0  0  0  0  0  0  0  0  0  0  0
    0.0769   -0.7658    0.9424 C   0  0  0  0  0  0  0  0  0  0  0  0
   -1.0528    0.1567    1.3235 C   0  0  0  0  0  0  0  0  0  0  0  0
   -2.2326   -0.0839    1.0816 O   0  0  0  0  0  0  0  0  0  0  0  0
    0.4587   -2.0097   -0.7289 H   0  0  0  0  0  0  0  0  0  0  0  0
    0.9815   -0.1810    0.7511 H   0  0  0  0  0  0  0  0  0  0  0  0
    0.2680   -1.4733    1.7545 H   0  0  0  0  0  0  0  0  0  0  0  0
   -0.5871    1.2963    1.9707 N   0  0  0  0  0  0  0  0  0  0  0  0
   -1.4478    2.3488    2.4426 C   0  0  2  0  0  0  0  0  0  0  0  0
   -1.2211    2.5058    3.9404 C   0  0  0  0  0  0  0  0  0  0  0  0
   -0.7601    1.6113    4.6464 O   0  0  0  0  0  0  0  0  0  0  0  0
   -2.9077    2.0461    2.1426 C   0  0  0  0  0  0  0  0  0  0  0  0
    0.4163    1.3910    2.1186 H   0  0  0  0  0  0  0  0  0  0  0  0
   -1.1385    3.2650    1.9278 H   0  0  0  0  0  0  0  0  0  0  0  0
   -3.2357    1.1315    2.6499 H   0  0  0  0  0  0  0  0  0  0  0  0
   -3.5586    2.8608    2.4766 H   0  0  0  0  0  0  0  0  0  0  0  0
   -3.0633    1.9041    1.0677 H   0  0  0  0  0  0  0  0  0  0  0  0
   -1.6343    3.7471    4.4035 N   0  0  0  0  0  0  0  0  0  0  0  0
   -1.5353    4.1339    5.7915 C   0  0  0  0  0  0  0  0  0  0  0  0
   -1.9872    4.4344    3.7440 H   0  0  0  0  0  0  0  0  0  0  0  0
   -2.4763    3.8931    6.3078 H   0  0  0  0  0  0  0  0  0  0  0  0
   -0.7067    3.5878    6.2660 H   0  0  0  0  0  0  0  0  0  0  0  0
   -1.3472    5.2157    5.8581 H   0  0  0  0  0  0  0  0  0  0  0  0
  1  3  1  0  0  0  0
  1  7  1  0  0  0  0
  1  2  2  0  0  0  0
 18 19  1  0  0  0  0
 19 24  1  0  0  0  0
 19 20  2  0  0  0  0
 25 26  1  0  0  0  0
 26 34  1  0  0  0  0
 26 27  2  0  0  0  0
  8  9  1  0  0  0  0
  9 17  1  0  0  0  0
  9 10  2  0  0  0  0
 25 28  1  0  0  0  0
  8 11  1  0  0  0  0
 34 35  1  0  0  0  0
 17 18  1  0  0  0  0
 24 25  1  0  0  0  0
  7  8  1  0  0  0  0
  3  4  1  0  0  0  0
  3  5  1  0  0  0  0
  3  6  1  0  0  0  0
 28 31  1  0  0  0  0
 28 32  1  0  0  0  0
 28 33  1  0  0  0  0
 11 14  1  0  0  0  0
 11 15  1  0  0  0  0
 11 16  1  0  0  0  0
 35 37  1  0  0  0  0
 35 38  1  0  0  0  0
 35 39  1  0  0  0  0
 18 22  1  0  0  0  0
 18 23  1  0  0  0  0
 25 30  1  0  0  0  0
  8 13  1  0  0  0  0
 34 36  1  0  0  0  0
 17 21  1  0  0  0  0
  7 12  1  0  0  0  0
 24 29  1  0  0  0  0
M  END
$$$$

  -OEChem-05262214473D

 39 38  0     1  0  0  0  0  0999 V2000
   -3.5200   -4.0268   -1.6943 C   0  0  0  0  0  0  0  0  0  0  0  0
   -2.8702   -4.8827   -1.1054 O   0  0  0  0  0  0  0  0  0  0  0  0
   -4.9704   -4.2579   -1.9614 C   0  0  0  0  0  0  0  0  0  0  0  0
   -5.1456   -4.7573   -2.9278 H   0  0  0  0  0  0  0  0  0  0  0  0
   -5.4379   -4.9112   -1.2072 H   0  0  0  0  0  0  0  0  0  0  0  0
   -5.5954   -3.3510   -1.9864 H   0  0  0  0  0  0  0  0  0  0  0  0
   -3.0424   -2.8131   -2.1606 N   0  0  0  0  0  0  0  0  0  0  0  0
   -1.6755   -2.3891   -2.0077 C   0  0  2  0  0  0  0  0  0  0  0  0
   -1.5782   -1.5673   -0.7292 C   0  0  0  0  0  0  0  0  0  0  0  0
   -2.5448   -1.0064   -0.2171 O   0  0  0  0  0  0  0  0  0  0  0  0
   -1.2087   -1.5823   -3.2094 C   0  0  0  0  0  0  0  0  0  0  0  0
   -3.6915   -2.1888   -2.6360 H   0  0  0  0  0  0  0  0  0  0  0  0
   -1.0721   -3.2977   -1.9053 H   0  0  0  0  0  0  0  0  0  0  0  0
   -1.8017   -0.6681   -3.3281 H   0  0  0  0  0  0  0  0  0  0  0  0
   -0.1601   -1.2849   -3.1045 H   0  0  0  0  0  0  0  0  0  0  0  0
   -1.3074   -2.1646   -4.1319 H   0  0  0  0  0  0  0  0  0  0  0  0
   -0.2835   -1.5112   -0.2725 N   0  0  0  0  0  0  0  0  0  0  0  0
    0.0769   -0.7658    0.9424 C   0  0  0  0  0  0  0  0  0  0  0  0
   -1.0528    0.1567    1.3235 C   0  0  0  0  0  0  0  0  0  0  0  0
   -2.2322   -0.1857    1.3292 O   0  0  0  0  0  0  0  0  0  0  0  0
    0.4587   -2.0097   -0.7289 H   0  0  0  0  0  0  0  0  0  0  0  0
    0.9815   -0.1810    0.7511 H   0  0  0  0  0  0  0  0  0  0  0  0
    0.2680   -1.4733    1.7545 H   0  0  0  0  0  0  0  0  0  0  0  0
   -0.5881    1.4241    1.6583 N   0  0  0  0  0  0  0  0  0  0  0  0
   -1.4496    2.5054    2.0584 C   0  0  2  0  0  0  0  0  0  0  0  0
   -1.0114    2.9687    3.4414 C   0  0  0  0  0  0  0  0  0  0  0  0
   -0.3775    2.2569    4.2177 O   0  0  0  0  0  0  0  0  0  0  0  0
   -2.9087    2.0767    2.0657 C   0  0  0  0  0  0  0  0  0  0  0  0
    0.4151    1.5963    1.6182 H   0  0  0  0  0  0  0  0  0  0  0  0
   -1.2974    3.3149    1.3362 H   0  0  0  0  0  0  0  0  0  0  0  0
   -3.0806    1.2662    2.7835 H   0  0  0  0  0  0  0  0  0  0  0  0
   -3.5651    2.9081    2.3427 H   0  0  0  0  0  0  0  0  0  0  0  0
   -3.2138    1.7157    1.0776 H   0  0  0  0  0  0  0  0  0  0  0  0
   -1.4487    4.2553    3.7237 N   0  0  0  0  0  0  0  0  0  0  0  0
   -1.1717    4.9153    4.9781 C   0  0  0  0  0  0  0  0  0  0  0  0
   -1.9522    4.7789    3.0137 H   0  0  0  0  0  0  0  0  0  0  0  0
   -2.0006    4.7356    5.6785 H   0  0  0  0  0  0  0  0  0  0  0  0
   -0.2391    4.5166    5.4039 H   0  0  0  0  0  0  0  0  0  0  0  0
   -1.0640    5.9966    4.8074 H   0  0  0  0  0  0  0  0  0  0  0  0
  1  3  1  0  0  0  0
  1  7  1  0  0  0  0
  1  2  2  0  0  0  0
 18 19  1  0  0  0  0
 19 24  1  0  0  0  0
 19 20  2  0  0  0  0
 25 26  1  0  0  0  0
 26 34  1  0  0  0  0
 26 27  2  0  0  0  0
  8  9  1  0  0  0  0
  9 17  1  0  0  0  0
  9 10  2  0  0  0  0
 25 28  1  0  0  0  0
  8 11  1  0  0  0  0
 34 35  1  0  0  0  0
 17 18  1  0  0  0  0
 24 25  1  0  0  0  0
  7  8  1  0  0  0  0
  3  4  1  0  0  0  0
  3  5  1  0  0  0  0
  3  6  1  0  0  0  0
 28 31  1  0  0  0  0
 28 32  1  0  0  0  0
 28 33  1  0  0  0  0
 11 14  1  0  0  0  0
 11 15  1  0  0  0  0
 11 16  1  0  0  0  0
 35 37  1  0  0  0  0
 35 38  1  0  0  0  0
 35 39  1  0  0  0  0
 18 22  1  0  0  0  0
 18 23  1  0  0  0  0
 25 30  1  0  0  0  0
  8 13  1  0  0  0  0
 34 36  1  0  0  0  0
 17 21  1  0  0  0  0
  7 12  1  0  0  0  0
 24 29  1  0  0  0  0
M  END
$$$$

  -OEChem-05262214473D

 39 38  0     1  0  0  0  0  0999 V2000
   -3.5200   -4.0268   -1.6943 C   0  0  0  0  0  0  0  0  0  0  0  0
   -2.8702   -4.8827   -1.1054 O   0  0  0  0  0  0  0  0  0  0  0  0
   -4.9704   -4.2579   -1.9614 C   0  0  0  0  0  0  0  0  0  0  0  0
   -5.1456   -4.7573   -2.9278 H   0  0  0  0  0  0  0  0  0  0  0  0
   -5.4379   -4.9112   -1.2072 H   0  0  0  0  0  0  0  0  0  0  0  0
   -5.5954   -3.3510   -1.9864 H   0  0  0  0  0  0  0  0  0  0  0  0
   -3.0424   -2.8131   -2.1606 N   0  0  0  0  0  0  0  0  0  0  0  0
   -1.6755   -2.3891   -2.0077 C   0  0  2  0  0  0  0  0  0  0  0  0
   -1.5782   -1.5673   -0.7292 C   0  0  0  0  0  0  0  0  0  0  0  0
   -2.5448   -1.0064   -0.2171 O   0  0  0  0  0  0  0  0  0  0  0  0
   -1.2087   -1.5823   -3.2094 C   0  0  0  0  0  0  0  0  0  0  0  0
   -3.6915   -2.1888   -2.6360 H   0  0  0  0  0  0  0  0  0  0  0  0
   -1.0721   -3.2977   -1.9053 H   0  0  0  0  0  0  0  0  0  0  0  0
   -1.8017   -0.6681   -3.3281 H   0  0  0  0  0  0  0  0  0  0  0  0
   -0.1601   -1.2849   -3.1045 H   0  0  0  0  0  0  0  0  0  0  0  0
   -1.3074   -2.1646   -4.1319 H   0  0  0  0  0  0  0  0  0  0  0  0
   -0.2835   -1.5112   -0.2725 N   0  0  0  0  0  0  0  0  0  0  0  0
    0.0769   -0.7658    0.9424 C   0  0  0  0  0  0  0  0  0  0  0  0
   -1.0528    0.1567    1.3235 C   0  0  0  0  0  0  0  0  0  0  0  0
   -2.1860   -0.2360    1.5880 O   0  0  0  0  0  0  0  0  0  0  0  0
    0.4587   -2.0097   -0.7289 H   0  0  0  0  0  0  0  0  0  0  0  0
    0.9815   -0.1810    0.7511 H   0  0  0  0  0  0  0  0  0  0  0  0
    0.2680   -1.4733    1.7545 H   0  0  0  0  0  0  0  0  0  0  0  0
   -0.6469    1.4870    1.3319 N   0  0  0  0  0  0  0  0  0  0  0  0
   -1.5224    2.5820    1.6572 C   0  0  2  0  0  0  0  0  0  0  0  0
   -0.9182    3.3328    2.8365 C   0  0  0  0  0  0  0  0  0  0  0  0
   -0.1182    2.8224    3.6178 O   0  0  0  0  0  0  0  0  0  0  0  0
   -2.9238    2.0912    1.9857 C   0  0  0  0  0  0  0  0  0  0  0  0
    0.3213    1.6974    1.0952 H   0  0  0  0  0  0  0  0  0  0  0  0
   -1.5478    3.2379    0.7802 H   0  0  0  0  0  0  0  0  0  0  0  0
   -2.9184    1.4325    2.8618 H   0  0  0  0  0  0  0  0  0  0  0  0
   -3.5958    2.9274    2.2051 H   0  0  0  0  0  0  0  0  0  0  0  0
   -3.3452    1.5259    1.1475 H   0  0  0  0  0  0  0  0  0  0  0  0
   -1.4104    4.6264    2.9390 N   0  0  0  0  0  0  0  0  0  0  0  0
   -1.0004    5.5361    3.9832 C   0  0  0  0  0  0  0  0  0  0  0  0
   -2.0567    4.9723    2.2359 H   0  0  0  0  0  0  0  0  0  0  0  0
   -1.6959    5.4584    4.8319 H   0  0  0  0  0  0  0  0  0  0  0  0
    0.0153    5.2772    4.3169 H   0  0  0  0  0  0  0  0  0  0  0  0
   -1.0079    6.5657    3.5962 H   0  0  0  0  0  0  0  0  0  0  0  0
  1  3  1  0  0  0  0
  1  7  1  0  0  0  0
  1  2  2  0  0  0  0
 18 19  1  0  0  0  0
 19 24  1  0  0  0  0
 19 20  2  0  0  0  0
 25 26  1  0  0  0  0
 26 34  1  0  0  0  0
 26 27  2  0  0  0  0
  8  9  1  0  0  0  0
  9 17  1  0  0  0  0
  9 10  2  0  0  0  0
 25 28  1  0  0  0  0
  8 11  1  0  0  0  0
 34 35  1  0  0  0  0
 17 18  1  0  0  0  0
 24 25  1  0  0  0  0
  7  8  1  0  0  0  0
  3  4  1  0  0  0  0
  3  5  1  0  0  0  0
  3  6  1  0  0  0  0
 28 31  1  0  0  0  0
 28 32  1  0  0  0  0
 28 33  1  0  0  0  0
 11 14  1  0  0  0  0
 11 15  1  0  0  0  0
 11 16  1  0  0  0  0
 35 37  1  0  0  0  0
 35 38  1  0  0  0  0
 35 39  1  0  0  0  0
 18 22  1  0  0  0  0
 18 23  1  0  0  0  0
 25 30  1  0  0  0  0
  8 13  1  0  0  0  0
 34 36  1  0  0  0  0
 17 21  1  0  0  0  0
  7 12  1  0  0  0  0
 24 29  1  0  0  0  0
M  END
$$$$

  -OEChem-05262214473D

 39 38  0     1  0  0  0  0  0999 V2000
   -3.5200   -4.0268   -1.6943 C   0  0  0  0  0  0  0  0  0  0  0  0
   -2.8702   -4.8827   -1.1054 O   0  0  0  0  0  0  0  0  0  0  0  0
   -4.9704   -4.2579   -1.9614 C   0  0  0  0  0  0  0  0  0  0  0  0
   -5.1456   -4.7573   -2.9278 H   0  0  0  0  0  0  0  0  0  0  0  0
   -5.4379   -4.9112   -1.2072 H   0  0  0  0  0  0  0  0  0  0  0  0
   -5.5954   -3.3510   -1.9864 H   0  0  0  0  0  0  0  0  0  0  0  0
   -3.0424   -2.8131   -2.1606 N   0  0  0  0  0  0  0  0  0  0  0  0
   -1.6755   -2.3891   -2.0077 C   0  0  2  0  0  0  0  0  0  0  0  0
   -1.5782   -1.5673   -0.7292 C   0  0  0  0  0  0  0  0  0  0  0  0
   -2.5448   -1.0064   -0.2171 O   0  0  0  0  0  0  0  0  0  0  0  0
   -1.2087   -1.5823   -3.2094 C   0  0  0  0  0  0  0  0  0  0  0  0
   -3.6915   -2.1888   -2.6360 H   0  0  0  0  0  0  0  0  0  0  0  0
   -1.0721   -3.2977   -1.9053 H   0  0  0  0  0  0  0  0  0  0  0  0
   -1.8017   -0.6681   -3.3281 H   0  0  0  0  0  0  0  0  0  0  0  0
   -0.1601   -1.2849   -3.1045 H   0  0  0  0  0  0  0  0  0  0  0  0
   -1.3074   -2.1646   -4.1319 H   0  0  0  0  0  0  0  0  0  0  0  0
   -0.2835   -1.5112   -0.2725 N   0  0  0  0  0  0  0  0  0  0  0  0
    0.0769   -0.7658    0.9424 C   0  0  0  0  0  0  0  0  0  0  0  0
   -1.0528    0.1567    1.3235 C   0  0  0  0  0  0  0  0  0  0  0  0
   -2.0970   -0.2314    1.8405 O   0  0  0  0  0  0  0  0  0  0  0  0
    0.4587   -2.0097   -0.7289 H   0  0  0  0  0  0  0  0  0  0  0  0
    0.9815   -0.1810    0.7511 H   0  0  0  0  0  0  0  0  0  0  0  0
    0.2680   -1.4733    1.7545 H   0  0  0  0  0  0  0  0  0  0  0  0
   -0.7595    1.4805    1.0137 N   0  0  0  0  0  0  0  0  0  0  0  0
   -1.6613    2.5734    1.2663 C   0  0  2  0  0  0  0  0  0  0  0  0
   -0.9478    3.5732    2.1667 C   0  0  0  0  0  0  0  0  0  0  0  0
    0.0004    3.2692    2.8876 O   0  0  0  0  0  0  0  0  0  0  0  0
   -2.9520    2.0887    1.9080 C   0  0  0  0  0  0  0  0  0  0  0  0
    0.1412    1.6875    0.5852 H   0  0  0  0  0  0  0  0  0  0  0  0
   -1.8727    3.0393    0.2977 H   0  0  0  0  0  0  0  0  0  0  0  0
   -2.7602    1.6188    2.8795 H   0  0  0  0  0  0  0  0  0  0  0  0
   -3.6484    2.9174    2.0734 H   0  0  0  0  0  0  0  0  0  0  0  0
   -3.4487    1.3475    1.2726 H   0  0  0  0  0  0  0  0  0  0  0  0
   -1.5219    4.8352    2.1031 N   0  0  0  0  0  0  0  0  0  0  0  0
   -1.0331    5.9539    2.8747 C   0  0  0  0  0  0  0  0  0  0  0  0
   -2.2934    5.0015    1.4636 H   0  0  0  0  0  0  0  0  0  0  0  0
   -1.5830    6.0124    3.8256 H   0  0  0  0  0  0  0  0  0  0  0  0
    0.0391    5.8176    3.0792 H   0  0  0  0  0  0  0  0  0  0  0  0
   -1.1827    6.8841    2.3070 H   0  0  0  0  0  0  0  0  0  0  0  0
  1  3  1  0  0  0  0
  1  7  1  0  0  0  0
  1  2  2  0  0  0  0
 18 19  1  0  0  0  0
 19 24  1  0  0  0  0
 19 20  2  0  0  0  0
 25 26  1  0  0  0  0
 26 34  1  0  0  0  0
 26 27  2  0  0  0  0
  8  9  1  0  0  0  0
  9 17  1  0  0  0  0
  9 10  2  0  0  0  0
 25 28  1  0  0  0  0
  8 11  1  0  0  0  0
 34 35  1  0  0  0  0
 17 18  1  0  0  0  0
 24 25  1  0  0  0  0
  7  8  1  0  0  0  0
  3  4  1  0  0  0  0
  3  5  1  0  0  0  0
  3  6  1  0  0  0  0
 28 31  1  0  0  0  0
 28 32  1  0  0  0  0
 28 33  1  0  0  0  0
 11 14  1  0  0  0  0
 11 15  1  0  0  0  0
 11 16  1  0  0  0  0
 35 37  1  0  0  0  0
 35 38  1  0  0  0  0
 35 39  1  0  0  0  0
 18 22  1  0  0  0  0
 18 23  1  0  0  0  0
 25 30  1  0  0  0  0
  8 13  1  0  0  0  0
 34 36  1  0  0  0  0
 17 21  1  0  0  0  0
  7 12  1  0  0  0  0
 24 29  1  0  0  0  0
M  END
$$$$

  -OEChem-05262214473D

 39 38  0     1  0  0  0  0  0999 V2000
   -3.5200   -4.0268   -1.6943 C   0  0  0  0  0  0  0  0  0  0  0  0
   -2.8702   -4.8827   -1.1054 O   0  0  0  0  0  0  0  0  0  0  0  0
   -4.9704   -4.2579   -1.9614 C   0  0  0  0  0  0  0  0  0  0  0  0
   -5.1456   -4.7573   -2.9278 H   0  0  0  0  0  0  0  0  0  0  0  0
   -5.4379   -4.9112   -1.2072 H   0  0  0  0  0  0  0  0  0  0  0  0
   -5.5954   -3.3510   -1.9864 H   0  0  0  0  0  0  0  0  0  0  0  0
   -3.0424   -2.8131   -2.1606 N   0  0  0  0  0  0  0  0  0  0  0  0
   -1.6755   -2.3891   -2.0077 C   0  0  2  0  0  0  0  0  0  0  0  0
   -1.5782   -1.5673   -0.7292 C   0  0  0  0  0  0  0  0  0  0  0  0
   -2.5448   -1.0064   -0.2171 O   0  0  0  0  0  0  0  0  0  0  0  0
   -1.2087   -1.5823   -3.2094 C   0  0  0  0  0  0  0  0  0  0  0  0
   -3.6915   -2.1888   -2.6360 H   0  0  0  0  0  0  0  0  0  0  0  0
   -1.0721   -3.2977   -1.9053 H   0  0  0  0  0  0  0  0  0  0  0  0
   -1.8017   -0.6681   -3.3281 H   0  0  0  0  0  0  0  0  0  0  0  0
   -0.1601   -1.2849   -3.1045 H   0  0  0  0  0  0  0  0  0  0  0  0
   -1.3074   -2.1646   -4.1319 H   0  0  0  0  0  0  0  0  0  0  0  0
   -0.2835   -1.5112   -0.2725 N   0  0  0  0  0  0  0  0  0  0  0  0
    0.0769   -0.7658    0.9424 C   0  0  0  0  0  0  0  0  0  0  0  0
   -1.0528    0.1567    1.3235 C   0  0  0  0  0  0  0  0  0  0  0  0
   -1.9714   -0.1721    2.0694 O   0  0  0  0  0  0  0  0  0  0  0  0
    0.4587   -2.0097   -0.7289 H   0  0  0  0  0  0  0  0  0  0  0  0
    0.9815   -0.1810    0.7511 H   0  0  0  0  0  0  0  0  0  0  0  0
    0.2680   -1.4733    1.7545 H   0  0  0  0  0  0  0  0  0  0  0  0
   -0.9183    1.4051    0.7254 N   0  0  0  0  0  0  0  0  0  0  0  0
   -1.8568    2.4802    0.9125 C   0  0  2  0  0  0  0  0  0  0  0  0
   -1.0982    3.6736    1.4779 C   0  0  0  0  0  0  0  0  0  0  0  0
   -0.0300    3.5670    2.0768 O   0  0  0  0  0  0  0  0  0  0  0  0
   -2.9915    2.0694    1.8379 C   0  0  0  0  0  0  0  0  0  0  0  0
   -0.1129    1.5672    0.1231 H   0  0  0  0  0  0  0  0  0  0  0  0
   -2.2500    2.7327   -0.0783 H   0  0  0  0  0  0  0  0  0  0  0  0
   -2.6168    1.8126    2.8355 H   0  0  0  0  0  0  0  0  0  0  0  0
   -3.7195    2.8786    1.9564 H   0  0  0  0  0  0  0  0  0  0  0  0
   -3.5172    1.1926    1.4445 H   0  0  0  0  0  0  0  0  0  0  0  0
   -1.7757    4.8674    1.2728 N   0  0  0  0  0  0  0  0  0  0  0  0
   -1.2676    6.1404    1.7281 C   0  0  0  0  0  0  0  0  0  0  0  0
   -2.6463    4.8643    0.7495 H   0  0  0  0  0  0  0  0  0  0  0  0
   -1.6696    6.3596    2.7283 H   0  0  0  0  0  0  0  0  0  0  0  0
   -0.1693    6.1011    1.7751 H   0  0  0  0  0  0  0  0  0  0  0  0
   -1.5767    6.9302    1.0277 H   0  0  0  0  0  0  0  0  0  0  0  0
  1  3  1  0  0  0  0
  1  7  1  0  0  0  0
  1  2  2  0  0  0  0
 18 19  1  0  0  0  0
 19 24  1  0  0  0  0
 19 20  2  0  0  0  0
 25 26  1  0  0  0  0
 26 34  1  0  0  0  0
 26 27  2  0  0  0  0
  8  9  1  0  0  0  0
  9 17  1  0  0  0  0
  9 10  2  0  0  0  0
 25 28  1  0  0  0  0
  8 11  1  0  0  0  0
 34 35  1  0  0  0  0
 17 18  1  0  0  0  0
 24 25  1  0  0  0  0
  7  8  1  0  0  0  0
  3  4  1  0  0  0  0
  3  5  1  0  0  0  0
  3  6  1  0  0  0  0
 28 31  1  0  0  0  0
 28 32  1  0  0  0  0
 28 33  1  0  0  0  0
 11 14  1  0  0  0  0
 11 15  1  0  0  0  0
 11 16  1  0  0  0  0
 35 37  1  0  0  0  0
 35 38  1  0  0  0  0
 35 39  1  0  0  0  0
 18 22  1  0  0  0  0
 18 23  1  0  0  0  0
 25 30  1  0  0  0  0
  8 13  1  0  0  0  0
 34 36  1  0  0  0  0
 17 21  1  0  0  0  0
  7 12  1  0  0  0  0
 24 29  1  0  0  0  0
M  END
$$$$

  -OEChem-05262214473D

 39 38  0     1  0  0  0  0  0999 V2000
   -3.5200   -4.0268   -1.6943 C   0  0  0  0  0  0  0  0  0  0  0  0
   -2.8702   -4.8827   -1.1054 O   0  0  0  0  0  0  0  0  0  0  0  0
   -4.9704   -4.2579   -1.9614 C   0  0  0  0  0  0  0  0  0  0  0  0
   -5.1456   -4.7573   -2.9278 H   0  0  0  0  0  0  0  0  0  0  0  0
   -5.4379   -4.9112   -1.2072 H   0  0  0  0  0  0  0  0  0  0  0  0
   -5.5954   -3.3510   -1.9864 H   0  0  0  0  0  0  0  0  0  0  0  0
   -3.0424   -2.8131   -2.1606 N   0  0  0  0  0  0  0  0  0  0  0  0
   -1.6755   -2.3891   -2.0077 C   0  0  2  0  0  0  0  0  0  0  0  0
   -1.5782   -1.5673   -0.7292 C   0  0  0  0  0  0  0  0  0  0  0  0
   -2.5448   -1.0064   -0.2171 O   0  0  0  0  0  0  0  0  0  0  0  0
   -1.2087   -1.5823   -3.2094 C   0  0  0  0  0  0  0  0  0  0  0  0
   -3.6915   -2.1888   -2.6360 H   0  0  0  0  0  0  0  0  0  0  0  0
   -1.0721   -3.2977   -1.9053 H   0  0  0  0  0  0  0  0  0  0  0  0
   -1.8017   -0.6681   -3.3281 H   0  0  0  0  0  0  0  0  0  0  0  0
   -0.1601   -1.2849   -3.1045 H   0  0  0  0  0  0  0  0  0  0  0  0
   -1.3074   -2.1646   -4.1319 H   0  0  0  0  0  0  0  0  0  0  0  0
   -0.2835   -1.5112   -0.2725 N   0  0  0  0  0  0  0  0  0  0  0  0
    0.0769   -0.7658    0.9424 C   0  0  0  0  0  0  0  0  0  0  0  0
   -1.0528    0.1567    1.3235 C   0  0  0  0  0  0  0  0  0  0  0  0
   -1.8177   -0.0623    2.2591 O   0  0  0  0  0  0  0  0  0  0  0  0
    0.4587   -2.0097   -0.7289 H   0  0  0  0  0  0  0  0  0  0  0  0
    0.9815   -0.1810    0.7511 H   0  0  0  0  0  0  0  0  0  0  0  0
    0.2680   -1.4733    1.7545 H   0  0  0  0  0  0  0  0  0  0  0  0
   -1.1124    1.2661    0.4868 N   0  0  0  0  0  0  0  0  0  0  0  0
   -2.0955    2.3087    0.6197 C   0  0  2  0  0  0  0  0  0  0  0  0
   -1.3591    3.6272    0.8168 C   0  0  0  0  0  0  0  0  0  0  0  0
   -0.2073    3.6953    1.2407 O   0  0  0  0  0  0  0  0  0  0  0  0
   -3.0394    2.0345    1.7802 C   0  0  0  0  0  0  0  0  0  0  0  0
   -0.4237    1.3448   -0.2597 H   0  0  0  0  0  0  0  0  0  0  0  0
   -2.6539    2.3389   -0.3223 H   0  0  0  0  0  0  0  0  0  0  0  0
   -2.4980    2.0007    2.7326 H   0  0  0  0  0  0  0  0  0  0  0  0
   -3.8041    2.8139    1.8623 H   0  0  0  0  0  0  0  0  0  0  0  0
   -3.5460    1.0719    1.6514 H   0  0  0  0  0  0  0  0  0  0  0  0
   -2.1544    4.7209    0.5047 N   0  0  0  0  0  0  0  0  0  0  0  0
   -1.6879    6.0828    0.6216 C   0  0  0  0  0  0  0  0  0  0  0  0
   -3.0913    4.5703    0.1422 H   0  0  0  0  0  0  0  0  0  0  0  0
   -1.9498    6.4766    1.6148 H   0  0  0  0  0  0  0  0  0  0  0  0
   -0.5957    6.1084    0.4934 H   0  0  0  0  0  0  0  0  0  0  0  0
   -2.1628    6.7008   -0.1546 H   0  0  0  0  0  0  0  0  0  0  0  0
  1  3  1  0  0  0  0
  1  7  1  0  0  0  0
  1  2  2  0  0  0  0
 18 19  1  0  0  0  0
 19 24  1  0  0  0  0
 19 20  2  0  0  0  0
 25 26  1  0  0  0  0
 26 34  1  0  0  0  0
 26 27  2  0  0  0  0
  8  9  1  0  0  0  0
  9 17  1  0  0  0  0
  9 10  2  0  0  0  0
 25 28  1  0  0  0  0
  8 11  1  0  0  0  0
 34 35  1  0  0  0  0
 17 18  1  0  0  0  0
 24 25  1  0  0  0  0
  7  8  1  0  0  0  0
  3  4  1  0  0  0  0
  3  5  1  0  0  0  0
  3  6  1  0  0  0  0
 28 31  1  0  0  0  0
 28 32  1  0  0  0  0
 28 33  1  0  0  0  0
 11 14  1  0  0  0  0
 11 15  1  0  0  0  0
 11 16  1  0  0  0  0
 35 37  1  0  0  0  0
 35 38  1  0  0  0  0
 35 39  1  0  0  0  0
 18 22  1  0  0  0  0
 18 23  1  0  0  0  0
 25 30  1  0  0  0  0
  8 13  1  0  0  0  0
 34 36  1  0  0  0  0
 17 21  1  0  0  0  0
  7 12  1  0  0  0  0
 24 29  1  0  0  0  0
M  END
$$$$

  -OEChem-05262214473D

 39 38  0     1  0  0  0  0  0999 V2000
   -3.5200   -4.0268   -1.6943 C   0  0  0  0  0  0  0  0  0  0  0  0
   -2.8702   -4.8827   -1.1054 O   0  0  0  0  0  0  0  0  0  0  0  0
   -4.9704   -4.2579   -1.9614 C   0  0  0  0  0  0  0  0  0  0  0  0
   -5.1456   -4.7573   -2.9278 H   0  0  0  0  0  0  0  0  0  0  0  0
   -5.4379   -4.9112   -1.2072 H   0  0  0  0  0  0  0  0  0  0  0  0
   -5.5954   -3.3510   -1.9864 H   0  0  0  0  0  0  0  0  0  0  0  0
   -3.0424   -2.8131   -2.1606 N   0  0  0  0  0  0  0  0  0  0  0  0
   -1.6755   -2.3891   -2.0077 C   0  0  2  0  0  0  0  0  0  0  0  0
   -1.5782   -1.5673   -0.7292 C   0  0  0  0  0  0  0  0  0  0  0  0
   -2.5448   -1.0064   -0.2171 O   0  0  0  0  0  0  0  0  0  0  0  0
   -1.2087   -1.5823   -3.2094 C   0  0  0  0  0  0  0  0  0  0  0  0
   -3.6915   -2.1888   -2.6360 H   0  0  0  0  0  0  0  0  0  0  0  0
   -1.0721   -3.2977   -1.9053 H   0  0  0  0  0  0  0  0  0  0  0  0
   -1.8017   -0.6681   -3.3281 H   0  0  0  0  0  0  0  0  0  0  0  0
   -0.1601   -1.2849   -3.1045 H   0  0  0  0  0  0  0  0  0  0  0  0
   -1.3074   -2.1646   -4.1319 H   0  0  0  0  0  0  0  0  0  0  0  0
   -0.2835   -1.5112   -0.2725 N   0  0  0  0  0  0  0  0  0  0  0  0
    0.0769   -0.7658    0.9424 C   0  0  0  0  0  0  0  0  0  0  0  0
   -1.0528    0.1567    1.3235 C   0  0  0  0  0  0  0  0  0  0  0  0
   -1.6464    0.0907    2.3966 O   0  0  0  0  0  0  0  0  0  0  0  0
    0.4587   -2.0097   -0.7289 H   0  0  0  0  0  0  0  0  0  0  0  0
    0.9815   -0.1810    0.7511 H   0  0  0  0  0  0  0  0  0  0  0  0
    0.2680   -1.4733    1.7545 H   0  0  0  0  0  0  0  0  0  0  0  0
   -1.3285    1.0728    0.3140 N   0  0  0  0  0  0  0  0  0  0  0  0
   -2.3613    2.0707    0.4080 C   0  0  2  0  0  0  0  0  0  0  0  0
   -1.7128    3.4370    0.2287 C   0  0  0  0  0  0  0  0  0  0  0  0
   -0.5193    3.6455    0.4363 O   0  0  0  0  0  0  0  0  0  0  0  0
   -3.0926    1.9865    1.7387 C   0  0  0  0  0  0  0  0  0  0  0  0
   -0.7699    1.0354   -0.5370 H   0  0  0  0  0  0  0  0  0  0  0  0
   -3.0569    1.8847   -0.4176 H   0  0  0  0  0  0  0  0  0  0  0  0
   -2.4118    2.1701    2.5780 H   0  0  0  0  0  0  0  0  0  0  0  0
   -3.8966    2.7276    1.7972 H   0  0  0  0  0  0  0  0  0  0  0  0
   -3.5331    0.9936    1.8793 H   0  0  0  0  0  0  0  0  0  0  0  0
   -2.6323    4.4056   -0.1488 N   0  0  0  0  0  0  0  0  0  0  0  0
   -2.2654    5.7850   -0.3695 C   0  0  0  0  0  0  0  0  0  0  0  0
   -3.5980    4.1393   -0.3169 H   0  0  0  0  0  0  0  0  0  0  0  0
   -2.4044    6.3552    0.5608 H   0  0  0  0  0  0  0  0  0  0  0  0
   -1.2111    5.8389   -0.6785 H   0  0  0  0  0  0  0  0  0  0  0  0
   -2.9013    6.2115   -1.1593 H   0  0  0  0  0  0  0  0  0  0  0  0
  1  3  1  0  0  0  0
  1  7  1  0  0  0  0
  1  2  2  0  0  0  0
 18 19  1  0  0  0  0
 19 24  1  0  0  0  0
 19 20  2  0  0  0  0
 25 26  1  0  0  0  0
 26 34  1  0  0  0  0
 26 27  2  0  0  0  0
  8  9  1  0  0  0  0
  9 17  1  0  0  0  0
  9 10  2  0  0  0  0
 25 28  1  0  0  0  0
  8 11  1  0  0  0  0
 34 35  1  0  0  0  0
 17 18  1  0  0  0  0
 24 25  1  0  0  0  0
  7  8  1  0  0  0  0
  3  4  1  0  0  0  0
  3  5  1  0  0  0  0
  3  6  1  0  0  0  0
 28 31  1  0  0  0  0
 28 32  1  0  0  0  0
 28 33  1  0  0  0  0
 11 14  1  0  0  0  0
 11 15  1  0  0  0  0
 11 16  1  0  0  0  0
 35 37  1  0  0  0  0
 35 38  1  0  0  0  0
 35 39  1  0  0  0  0
 18 22  1  0  0  0  0
 18 23  1  0  0  0  0
 25 30  1  0  0  0  0
  8 13  1  0  0  0  0
 34 36  1  0  0  0  0
 17 21  1  0  0  0  0
  7 12  1  0  0  0  0
 24 29  1  0  0  0  0
M  END
$$$$

  -OEChem-05262214473D

 39 38  0     1  0  0  0  0  0999 V2000
   -3.5200   -4.0268   -1.6943 C   0  0  0  0  0  0  0  0  0  0  0  0
   -2.8702   -4.8827   -1.1054 O   0  0  0  0  0  0  0  0  0  0  0  0
   -4.9704   -4.2579   -1.9614 C   0  0  0  0  0  0  0  0  0  0  0  0
   -5.1456   -4.7573   -2.9278 H   0  0  0  0  0  0  0  0  0  0  0  0
   -5.4379   -4.9112   -1.2072 H   0  0  0  0  0  0  0  0  0  0  0  0
   -5.5954   -3.3510   -1.9864 H   0  0  0  0  0  0  0  0  0  0  0  0
   -3.0424   -2.8131   -2.1606 N   0  0  0  0  0  0  0  0  0  0  0  0
   -1.6755   -2.3891   -2.0077 C   0  0  2  0  0  0  0  0  0  0  0  0
   -1.5782   -1.5673   -0.7292 C   0  0  0  0  0  0  0  0  0  0  0  0
   -2.5448   -1.0064   -0.2171 O   0  0  0  0  0  0  0  0  0  0  0  0
   -1.2087   -1.5823   -3.2094 C   0  0  0  0  0  0  0  0  0  0  0  0
   -3.6915   -2.1888   -2.6360 H   0  0  0  0  0  0  0  0  0  0  0  0
   -1.0721   -3.2977   -1.9053 H   0  0  0  0  0  0  0  0  0  0  0  0
   -1.8017   -0.6681   -3.3281 H   0  0  0  0  0  0  0  0  0  0  0  0
   -0.1601   -1.2849   -3.1045 H   0  0  0  0  0  0  0  0  0  0  0  0
   -1.3074   -2.1646   -4.1319 H   0  0  0  0  0  0  0  0  0  0  0  0
   -0.2835   -1.5112   -0.2725 N   0  0  0  0  0  0  0  0  0  0  0  0
    0.0769   -0.7658    0.9424 C   0  0  0  0  0  0  0  0  0  0  0  0
   -1.0528    0.1567    1.3235 C   0  0  0  0  0  0  0  0  0  0  0  0
   -1.4692    0.2763    2.4727 O   0  0  0  0  0  0  0  0  0  0  0  0
    0.4587   -2.0097   -0.7289 H   0  0  0  0  0  0  0  0  0  0  0  0
    0.9815   -0.1810    0.7511 H   0  0  0  0  0  0  0  0  0  0  0  0
    0.2680   -1.4733    1.7545 H   0  0  0  0  0  0  0  0  0  0  0  0
   -1.5520    0.8384    0.2188 N   0  0  0  0  0  0  0  0  0  0  0  0
   -2.6360    1.7823    0.2917 C   0  0  2  0  0  0  0  0  0  0  0  0
   -2.1352    3.1161   -0.2466 C   0  0  0  0  0  0  0  0  0  0  0  0
   -0.9449    3.4209   -0.2816 O   0  0  0  0  0  0  0  0  0  0  0  0
   -3.1473    1.9287    1.7165 C   0  0  0  0  0  0  0  0  0  0  0  0
   -1.1280    0.6601   -0.6901 H   0  0  0  0  0  0  0  0  0  0  0  0
   -3.4315    1.4012   -0.3578 H   0  0  0  0  0  0  0  0  0  0  0  0
   -2.3641    2.3095    2.3821 H   0  0  0  0  0  0  0  0  0  0  0  0
   -3.9905    2.6255    1.7658 H   0  0  0  0  0  0  0  0  0  0  0  0
   -3.4794    0.9629    2.1125 H   0  0  0  0  0  0  0  0  0  0  0  0
   -3.1768    3.9430   -0.6432 N   0  0  0  0  0  0  0  0  0  0  0  0
   -2.9608    5.2673   -1.1776 C   0  0  0  0  0  0  0  0  0  0  0  0
   -4.1321    3.6009   -0.5965 H   0  0  0  0  0  0  0  0  0  0  0  0
   -3.0025    6.0039   -0.3616 H   0  0  0  0  0  0  0  0  0  0  0  0
   -1.9735    5.3111   -1.6607 H   0  0  0  0  0  0  0  0  0  0  0  0
   -3.7417    5.4958   -1.9179 H   0  0  0  0  0  0  0  0  0  0  0  0
  1  3  1  0  0  0  0
  1  7  1  0  0  0  0
  1  2  2  0  0  0  0
 18 19  1  0  0  0  0
 19 24  1  0  0  0  0
 19 20  2  0  0  0  0
 25 26  1  0  0  0  0
 26 34  1  0  0  0  0
 26 27  2  0  0  0  0
  8  9  1  0  0  0  0
  9 17  1  0  0  0  0
  9 10  2  0  0  0  0
 25 28  1  0  0  0  0
  8 11  1  0  0  0  0
 34 35  1  0  0  0  0
 17 18  1  0  0  0  0
 24 25  1  0  0  0  0
  7  8  1  0  0  0  0
  3  4  1  0  0  0  0
  3  5  1  0  0  0  0
  3  6  1  0  0  0  0
 28 31  1  0  0  0  0
 28 32  1  0  0  0  0
 28 33  1  0  0  0  0
 11 14  1  0  0  0  0
 11 15  1  0  0  0  0
 11 16  1  0  0  0  0
 35 37  1  0  0  0  0
 35 38  1  0  0  0  0
 35 39  1  0  0  0  0
 18 22  1  0  0  0  0
 18 23  1  0  0  0  0
 25 30  1  0  0  0  0
  8 13  1  0  0  0  0
 34 36  1  0  0  0  0
 17 21  1  0  0  0  0
  7 12  1  0  0  0  0
 24 29  1  0  0  0  0
M  END
$$$$

  -OEChem-05262214473D

 39 38  0     1  0  0  0  0  0999 V2000
   -3.5200   -4.0268   -1.6943 C   0  0  0  0  0  0  0  0  0  0  0  0
   -2.8702   -4.8827   -1.1054 O   0  0  0  0  0  0  0  0  0  0  0  0
   -4.9704   -4.2579   -1.9614 C   0  0  0  0  0  0  0  0  0  0  0  0
   -5.1456   -4.7573   -2.9278 H   0  0  0  0  0  0  0  0  0  0  0  0
   -5.4379   -4.9112   -1.2072 H   0  0  0  0  0  0  0  0  0  0  0  0
   -5.5954   -3.3510   -1.9864 H   0  0  0  0  0  0  0  0  0  0  0  0
   -3.0424   -2.8131   -2.1606 N   0  0  0  0  0  0  0  0  0  0  0  0
   -1.6755   -2.3891   -2.0077 C   0  0  2  0  0  0  0  0  0  0  0  0
   -1.5782   -1.5673   -0.7292 C   0  0  0  0  0  0  0  0  0  0  0  0
   -2.5448   -1.0064   -0.2171 O   0  0  0  0  0  0  0  0  0  0  0  0
   -1.2087   -1.5823   -3.2094 C   0  0  0  0  0  0  0  0  0  0  0  0
   -3.6915   -2.1888   -2.6360 H   0  0  0  0  0  0  0  0  0  0  0  0
   -1.0721   -3.2977   -1.9053 H   0  0  0  0  0  0  0  0  0  0  0  0
   -1.8017   -0.6681   -3.3281 H   0  0  0  0  0  0  0  0  0  0  0  0
   -0.1601   -1.2849   -3.1045 H   0  0  0  0  0  0  0  0  0  0  0  0
   -1.3074   -2.1646   -4.1319 H   0  0  0  0  0  0  0  0  0  0  0  0
   -0.2835   -1.5112   -0.2725 N   0  0  0  0  0  0  0  0  0  0  0  0
    0.0769   -0.7658    0.9424 C   0  0  0  0  0  0  0  0  0  0  0  0
   -1.0528    0.1567    1.3235 C   0  0  0  0  0  0  0  0  0  0  0  0
   -1.2980    0.4820    2.4821 O   0  0  0  0  0  0  0  0  0  0  0  0
    0.4587   -2.0097   -0.7289 H   0  0  0  0  0  0  0  0  0  0  0  0
    0.9815   -0.1810    0.7511 H   0  0  0  0  0  0  0  0  0  0  0  0
    0.2680   -1.4733    1.7545 H   0  0  0  0  0  0  0  0  0  0  0  0
   -1.7677    0.5789    0.2077 N   0  0  0  0  0  0  0  0  0  0  0  0
   -2.9009    1.4633    0.2789 C   0  0  2  0  0  0  0  0  0  0  0  0
   -2.5975    2.6863   -0.5765 C   0  0  0  0  0  0  0  0  0  0  0  0
   -1.4549    3.0369   -0.8642 O   0  0  0  0  0  0  0  0  0  0  0  0
   -3.2000    1.8649    1.7149 C   0  0  0  0  0  0  0  0  0  0  0  0
   -1.4736    0.2444   -0.7085 H   0  0  0  0  0  0  0  0  0  0  0  0
   -3.7523    0.9212   -0.1469 H   0  0  0  0  0  0  0  0  0  0  0  0
   -2.3582    2.4092    2.1583 H   0  0  0  0  0  0  0  0  0  0  0  0
   -4.0796    2.5147    1.7701 H   0  0  0  0  0  0  0  0  0  0  0  0
   -3.3887    0.9821    2.3352 H   0  0  0  0  0  0  0  0  0  0  0  0
   -3.7508    3.3647   -0.9448 N   0  0  0  0  0  0  0  0  0  0  0  0
   -3.7265    4.5651   -1.7476 C   0  0  0  0  0  0  0  0  0  0  0  0
   -4.6569    2.9916   -0.6775 H   0  0  0  0  0  0  0  0  0  0  0  0
   -3.7033    5.4464   -1.0898 H   0  0  0  0  0  0  0  0  0  0  0  0
   -2.8309    4.5608   -2.3863 H   0  0  0  0  0  0  0  0  0  0  0  0
   -4.6267    4.6023   -2.3786 H   0  0  0  0  0  0  0  0  0  0  0  0
  1  3  1  0  0  0  0
  1  7  1  0  0  0  0
  1  2  2  0  0  0  0
 18 19  1  0  0  0  0
 19 24  1  0  0  0  0
 19 20  2  0  0  0  0
 25 26  1  0  0  0  0
 26 34  1  0  0  0  0
 26 27  2  0  0  0  0
  8  9  1  0  0  0  0
  9 17  1  0  0  0  0
  9 10  2  0  0  0  0
 25 28  1  0  0  0  0
  8 11  1  0  0  0  0
 34 35  1  0  0  0  0
 17 18  1  0  0  0  0
 24 25  1  0  0  0  0
  7  8  1  0  0  0  0
  3  4  1  0  0  0  0
  3  5  1  0  0  0  0
  3  6  1  0  0  0  0
 28 31  1  0  0  0  0
 28 32  1  0  0  0  0
 28 33  1  0  0  0  0
 11 14  1  0  0  0  0
 11 15  1  0  0  0  0
 11 16  1  0  0  0  0
 35 37  1  0  0  0  0
 35 38  1  0  0  0  0
 35 39  1  0  0  0  0
 18 22  1  0  0  0  0
 18 23  1  0  0  0  0
 25 30  1  0  0  0  0
  8 13  1  0  0  0  0
 34 36  1  0  0  0  0
 17 21  1  0  0  0  0
  7 12  1  0  0  0  0
 24 29  1  0  0  0  0
M  END
$$$$

  -OEChem-05262214473D

 39 38  0     1  0  0  0  0  0999 V2000
   -3.5200   -4.0268   -1.6943 C   0  0  0  0  0  0  0  0  0  0  0  0
   -2.8702   -4.8827   -1.1054 O   0  0  0  0  0  0  0  0  0  0  0  0
   -4.9704   -4.2579   -1.9614 C   0  0  0  0  0  0  0  0  0  0  0  0
   -5.1456   -4.7573   -2.9278 H   0  0  0  0  0  0  0  0  0  0  0  0
   -5.4379   -4.9112   -1.2072 H   0  0  0  0  0  0  0  0  0  0  0  0
   -5.5954   -3.3510   -1.9864 H   0  0  0  0  0  0  0  0  0  0  0  0
   -3.0424   -2.8131   -2.1606 N   0  0  0  0  0  0  0  0  0  0  0  0
   -1.6755   -2.3891   -2.0077 C   0  0  2  0  0  0  0  0  0  0  0  0
   -1.5782   -1.5673   -0.7292 C   0  0  0  0  0  0  0  0  0  0  0  0
   -2.5448   -1.0064   -0.2171 O   0  0  0  0  0  0  0  0  0  0  0  0
   -1.2087   -1.5823   -3.2094 C   0  0  0  0  0  0  0  0  0  0  0  0
   -3.6915   -2.1888   -2.6360 H   0  0  0  0  0  0  0  0  0  0  0  0
   -1.0721   -3.2977   -1.9053 H   0  0  0  0  0  0  0  0  0  0  0  0
   -1.8017   -0.6681   -3.3281 H   0  0  0  0  0  0  0  0  0  0  0  0
   -0.1601   -1.2849   -3.1045 H   0  0  0  0  0  0  0  0  0  0  0  0
   -1.3074   -2.1646   -4.1319 H   0  0  0  0  0  0  0  0  0  0  0  0
   -0.2835   -1.5112   -0.2725 N   0  0  0  0  0  0  0  0  0  0  0  0
    0.0769   -0.7658    0.9424 C   0  0  0  0  0  0  0  0  0  0  0  0
   -1.0528    0.1567    1.3235 C   0  0  0  0  0  0  0  0  0  0  0  0
   -1.1447    0.6937    2.4242 O   0  0  0  0  0  0  0  0  0  0  0  0
    0.4587   -2.0097   -0.7289 H   0  0  0  0  0  0  0  0  0  0  0  0
    0.9815   -0.1810    0.7511 H   0  0  0  0  0  0  0  0  0  0  0  0
    0.2680   -1.4733    1.7545 H   0  0  0  0  0  0  0  0  0  0  0  0
   -1.9607    0.3120    0.2815 N   0  0  0  0  0  0  0  0  0  0  0  0
   -3.1379    1.1353    0.3703 C   0  0  2  0  0  0  0  0  0  0  0  0
   -3.0681    2.1769   -0.7385 C   0  0  0  0  0  0  0  0  0  0  0  0
   -2.0148    2.5197   -1.2715 O   0  0  0  0  0  0  0  0  0  0  0  0
   -3.2469    1.7995    1.7340 C   0  0  0  0  0  0  0  0  0  0  0  0
   -1.7832   -0.1832   -0.5909 H   0  0  0  0  0  0  0  0  0  0  0  0
   -3.9974    0.4775    0.2008 H   0  0  0  0  0  0  0  0  0  0  0  0
   -2.3944    2.4624    1.9218 H   0  0  0  0  0  0  0  0  0  0  0  0
   -4.1576    2.4027    1.8099 H   0  0  0  0  0  0  0  0  0  0  0  0
   -3.2670    1.0497    2.5322 H   0  0  0  0  0  0  0  0  0  0  0  0
   -4.3152    2.7101   -1.0330 N   0  0  0  0  0  0  0  0  0  0  0  0
   -4.5105    3.7261   -2.0407 C   0  0  0  0  0  0  0  0  0  0  0  0
   -5.1369    2.3530   -0.5545 H   0  0  0  0  0  0  0  0  0  0  0  0
   -4.4592    4.7208   -1.5740 H   0  0  0  0  0  0  0  0  0  0  0  0
   -3.7250    3.6393   -2.8058 H   0  0  0  0  0  0  0  0  0  0  0  0
   -5.4961    3.5919   -2.5103 H   0  0  0  0  0  0  0  0  0  0  0  0
  1  3  1  0  0  0  0
  1  7  1  0  0  0  0
  1  2  2  0  0  0  0
 18 19  1  0  0  0  0
 19 24  1  0  0  0  0
 19 20  2  0  0  0  0
 25 26  1  0  0  0  0
 26 34  1  0  0  0  0
 26 27  2  0  0  0  0
  8  9  1  0  0  0  0
  9 17  1  0  0  0  0
  9 10  2  0  0  0  0
 25 28  1  0  0  0  0
  8 11  1  0  0  0  0
 34 35  1  0  0  0  0
 17 18  1  0  0  0  0
 24 25  1  0  0  0  0
  7  8  1  0  0  0  0
  3  4  1  0  0  0  0
  3  5  1  0  0  0  0
  3  6  1  0  0  0  0
 28 31  1  0  0  0  0
 28 32  1  0  0  0  0
 28 33  1  0  0  0  0
 11 14  1  0  0  0  0
 11 15  1  0  0  0  0
 11 16  1  0  0  0  0
 35 37  1  0  0  0  0
 35 38  1  0  0  0  0
 35 39  1  0  0  0  0
 18 22  1  0  0  0  0
 18 23  1  0  0  0  0
 25 30  1  0  0  0  0
  8 13  1  0  0  0  0
 34 36  1  0  0  0  0
 17 21  1  0  0  0  0
  7 12  1  0  0  0  0
 24 29  1  0  0  0  0
M  END
$$$$

  -OEChem-05262214473D

 39 38  0     1  0  0  0  0  0999 V2000
   -3.5200   -4.0268   -1.6943 C   0  0  0  0  0  0  0  0  0  0  0  0
   -2.8702   -4.8827   -1.1054 O   0  0  0  0  0  0  0  0  0  0  0  0
   -4.9704   -4.2579   -1.9614 C   0  0  0  0  0  0  0  0  0  0  0  0
   -5.1456   -4.7573   -2.9278 H   0  0  0  0  0  0  0  0  0  0  0  0
   -5.4379   -4.9112   -1.2072 H   0  0  0  0  0  0  0  0  0  0  0  0
   -5.5954   -3.3510   -1.9864 H   0  0  0  0  0  0  0  0  0  0  0  0
   -3.0424   -2.8131   -2.1606 N   0  0  0  0  0  0  0  0  0  0  0  0
   -1.6755   -2.3891   -2.0077 C   0  0  2  0  0  0  0  0  0  0  0  0
   -1.5782   -1.5673   -0.7292 C   0  0  0  0  0  0  0  0  0  0  0  0
   -2.5448   -1.0064   -0.2171 O   0  0  0  0  0  0  0  0  0  0  0  0
   -1.2087   -1.5823   -3.2094 C   0  0  0  0  0  0  0  0  0  0  0  0
   -3.6915   -2.1888   -2.6360 H   0  0  0  0  0  0  0  0  0  0  0  0
   -1.0721   -3.2977   -1.9053 H   0  0  0  0  0  0  0  0  0  0  0  0
   -1.8017   -0.6681   -3.3281 H   0  0  0  0  0  0  0  0  0  0  0  0
   -0.1601   -1.2849   -3.1045 H   0  0  0  0  0  0  0  0  0  0  0  0
   -1.3074   -2.1646   -4.1319 H   0  0  0  0  0  0  0  0  0  0  0  0
   -0.2835   -1.5112   -0.2725 N   0  0  0  0  0  0  0  0  0  0  0  0
    0.0769   -0.7658    0.9424 C   0  0  0  0  0  0  0  0  0  0  0  0
   -1.0528    0.1567    1.3235 C   0  0  0  0  0  0  0  0  0  0  0  0
   -1.0196    0.8970    2.3030 O   0  0  0  0  0  0  0  0  0  0  0  0
    0.4587   -2.0097   -0.7289 H   0  0  0  0  0  0  0  0  0  0  0  0
    0.9815   -0.1810    0.7511 H   0  0  0  0  0  0  0  0  0  0  0  0
    0.2680   -1.4733    1.7545 H   0  0  0  0  0  0  0  0  0  0  0  0
   -2.1181    0.0558    0.4351 N   0  0  0  0  0  0  0  0  0  0  0  0
   -3.3309    0.8206    0.5598 C   0  0  2  0  0  0  0  0  0  0  0  0
   -3.5150    1.6227   -0.7217 C   0  0  0  0  0  0  0  0  0  0  0  0
   -2.5862    1.9044   -1.4761 O   0  0  0  0  0  0  0  0  0  0  0  0
   -3.2849    1.7370    1.7726 C   0  0  0  0  0  0  0  0  0  0  0  0
   -2.0356   -0.5938   -0.3453 H   0  0  0  0  0  0  0  0  0  0  0  0
   -4.1500    0.1004    0.6614 H   0  0  0  0  0  0  0  0  0  0  0  0
   -2.4704    2.4657    1.6888 H   0  0  0  0  0  0  0  0  0  0  0  0
   -4.2194    2.2971    1.8824 H   0  0  0  0  0  0  0  0  0  0  0  0
   -3.1226    1.1612    2.6902 H   0  0  0  0  0  0  0  0  0  0  0  0
   -4.8314    2.0237   -0.9018 N   0  0  0  0  0  0  0  0  0  0  0  0
   -5.2593    2.8076   -2.0369 C   0  0  0  0  0  0  0  0  0  0  0  0
   -5.5392    1.7286   -0.2357 H   0  0  0  0  0  0  0  0  0  0  0  0
   -5.2185    3.8767   -1.7812 H   0  0  0  0  0  0  0  0  0  0  0  0
   -4.5947    2.6093   -2.8908 H   0  0  0  0  0  0  0  0  0  0  0  0
   -6.2907    2.5336   -2.3037 H   0  0  0  0  0  0  0  0  0  0  0  0
  1  3  1  0  0  0  0
  1  7  1  0  0  0  0
  1  2  2  0  0  0  0
 18 19  1  0  0  0  0
 19 24  1  0  0  0  0
 19 20  2  0  0  0  0
 25 26  1  0  0  0  0
 26 34  1  0  0  0  0
 26 27  2  0  0  0  0
  8  9  1  0  0  0  0
  9 17  1  0  0  0  0
  9 10  2  0  0  0  0
 25 28  1  0  0  0  0
  8 11  1  0  0  0  0
 34 35  1  0  0  0  0
 17 18  1  0  0  0  0
 24 25  1  0  0  0  0
  7  8  1  0  0  0  0
  3  4  1  0  0  0  0
  3  5  1  0  0  0  0
  3  6  1  0  0  0  0
 28 31  1  0  0  0  0
 28 32  1  0  0  0  0
 28 33  1  0  0  0  0
 11 14  1  0  0  0  0
 11 15  1  0  0  0  0
 11 16  1  0  0  0  0
 35 37  1  0  0  0  0
 35 38  1  0  0  0  0
 35 39  1  0  0  0  0
 18 22  1  0  0  0  0
 18 23  1  0  0  0  0
 25 30  1  0  0  0  0
  8 13  1  0  0  0  0
 34 36  1  0  0  0  0
 17 21  1  0  0  0  0
  7 12  1  0  0  0  0
 24 29  1  0  0  0  0
M  END
$$$$

  -OEChem-05262214473D

 39 38  0     1  0  0  0  0  0999 V2000
   -3.5200   -4.0268   -1.6943 C   0  0  0  0  0  0  0  0  0  0  0  0
   -2.8702   -4.8827   -1.1054 O   0  0  0  0  0  0  0  0  0  0  0  0
   -4.9704   -4.2579   -1.9614 C   0  0  0  0  0  0  0  0  0  0  0  0
   -5.1456   -4.7573   -2.9278 H   0  0  0  0  0  0  0  0  0  0  0  0
   -5.4379   -4.9112   -1.2072 H   0  0  0  0  0  0  0  0  0  0  0  0
   -5.5954   -3.3510   -1.9864 H   0  0  0  0  0  0  0  0  0  0  0  0
   -3.0424   -2.8131   -2.1606 N   0  0  0  0  0  0  0  0  0  0  0  0
   -1.6755   -2.3891   -2.0077 C   0  0  2  0  0  0  0  0  0  0  0  0
   -1.5782   -1.5673   -0.7292 C   0  0  0  0  0  0  0  0  0  0  0  0
   -2.5448   -1.0064   -0.2171 O   0  0  0  0  0  0  0  0  0  0  0  0
   -1.2087   -1.5823   -3.2094 C   0  0  0  0  0  0  0  0  0  0  0  0
   -3.6915   -2.1888   -2.6360 H   0  0  0  0  0  0  0  0  0  0  0  0
   -1.0721   -3.2977   -1.9053 H   0  0  0  0  0  0  0  0  0  0  0  0
   -1.8017   -0.6681   -3.3281 H   0  0  0  0  0  0  0  0  0  0  0  0
   -0.1601   -1.2849   -3.1045 H   0  0  0  0  0  0  0  0  0  0  0  0
   -1.3074   -2.1646   -4.1319 H   0  0  0  0  0  0  0  0  0  0  0  0
   -0.2835   -1.5112   -0.2725 N   0  0  0  0  0  0  0  0  0  0  0  0
    0.0769   -0.7658    0.9424 C   0  0  0  0  0  0  0  0  0  0  0  0
   -1.0528    0.1567    1.3235 C   0  0  0  0  0  0  0  0  0  0  0  0
   -0.9313    1.0780    2.1266 O   0  0  0  0  0  0  0  0  0  0  0  0
    0.4587   -2.0097   -0.7289 H   0  0  0  0  0  0  0  0  0  0  0  0
    0.9815   -0.1810    0.7511 H   0  0  0  0  0  0  0  0  0  0  0  0
    0.2680   -1.4733    1.7545 H   0  0  0  0  0  0  0  0  0  0  0  0
   -2.2290   -0.1721    0.6580 N   0  0  0  0  0  0  0  0  0  0  0  0
   -3.4667    0.5409    0.8344 C   0  0  2  0  0  0  0  0  0  0  0  0
   -3.9078    1.0613   -0.5272 C   0  0  0  0  0  0  0  0  0  0  0  0
   -3.1303    1.2330   -1.4638 O   0  0  0  0  0  0  0  0  0  0  0  0
   -3.3114    1.6816    1.8281 C   0  0  0  0  0  0  0  0  0  0  0  0
   -2.2136   -0.9592    0.0116 H   0  0  0  0  0  0  0  0  0  0  0  0
   -4.1997   -0.1846    1.2037 H   0  0  0  0  0  0  0  0  0  0  0  0
   -2.5809    2.4186    1.4752 H   0  0  0  0  0  0  0  0  0  0  0  0
   -4.2607    2.2051    1.9827 H   0  0  0  0  0  0  0  0  0  0  0  0
   -2.9655    1.3090    2.7983 H   0  0  0  0  0  0  0  0  0  0  0  0
   -5.2644    1.3523   -0.5603 N   0  0  0  0  0  0  0  0  0  0  0  0
   -5.9219    1.8721   -1.7365 C   0  0  0  0  0  0  0  0  0  0  0  0
   -5.8365    1.1610    0.2569 H   0  0  0  0  0  0  0  0  0  0  0  0
   -5.9295    2.9713   -1.6974 H   0  0  0  0  0  0  0  0  0  0  0  0
   -5.3809    1.5410   -2.6353 H   0  0  0  0  0  0  0  0  0  0  0  0
   -6.9562    1.4994   -1.7731 H   0  0  0  0  0  0  0  0  0  0  0  0
  1  3  1  0  0  0  0
  1  7  1  0  0  0  0
  1  2  2  0  0  0  0
 18 19  1  0  0  0  0
 19 24  1  0  0  0  0
 19 20  2  0  0  0  0
 25 26  1  0  0  0  0
 26 34  1  0  0  0  0
 26 27  2  0  0  0  0
  8  9  1  0  0  0  0
  9 17  1  0  0  0  0
  9 10  2  0  0  0  0
 25 28  1  0  0  0  0
  8 11  1  0  0  0  0
 34 35  1  0  0  0  0
 17 18  1  0  0  0  0
 24 25  1  0  0  0  0
  7  8  1  0  0  0  0
  3  4  1  0  0  0  0
  3  5  1  0  0  0  0
  3  6  1  0  0  0  0
 28 31  1  0  0  0  0
 28 32  1  0  0  0  0
 28 33  1  0  0  0  0
 11 14  1  0  0  0  0
 11 15  1  0  0  0  0
 11 16  1  0  0  0  0
 35 37  1  0  0  0  0
 35 38  1  0  0  0  0
 35 39  1  0  0  0  0
 18 22  1  0  0  0  0
 18 23  1  0  0  0  0
 25 30  1  0  0  0  0
  8 13  1  0  0  0  0
 34 36  1  0  0  0  0
 17 21  1  0  0  0  0
  7 12  1  0  0  0  0
 24 29  1  0  0  0  0
M  END
$$$$

  -OEChem-05262214473D

 39 38  0     1  0  0  0  0  0999 V2000
   -3.5200   -4.0268   -1.6943 C   0  0  0  0  0  0  0  0  0  0  0  0
   -2.8702   -4.8827   -1.1054 O   0  0  0  0  0  0  0  0  0  0  0  0
   -4.9704   -4.2579   -1.9614 C   0  0  0  0  0  0  0  0  0  0  0  0
   -5.1456   -4.7573   -2.9278 H   0  0  0  0  0  0  0  0  0  0  0  0
   -5.4379   -4.9112   -1.2072 H   0  0  0  0  0  0  0  0  0  0  0  0
   -5.5954   -3.3510   -1.9864 H   0  0  0  0  0  0  0  0  0  0  0  0
   -3.0424   -2.8131   -2.1606 N   0  0  0  0  0  0  0  0  0  0  0  0
   -1.6755   -2.3891   -2.0077 C   0  0  2  0  0  0  0  0  0  0  0  0
   -1.5782   -1.5673   -0.7292 C   0  0  0  0  0  0  0  0  0  0  0  0
   -2.5448   -1.0064   -0.2171 O   0  0  0  0  0  0  0  0  0  0  0  0
   -1.2087   -1.5823   -3.2094 C   0  0  0  0  0  0  0  0  0  0  0  0
   -3.6915   -2.1888   -2.6360 H   0  0  0  0  0  0  0  0  0  0  0  0
   -1.0721   -3.2977   -1.9053 H   0  0  0  0  0  0  0  0  0  0  0  0
   -1.8017   -0.6681   -3.3281 H   0  0  0  0  0  0  0  0  0  0  0  0
   -0.1601   -1.2849   -3.1045 H   0  0  0  0  0  0  0  0  0  0  0  0
   -1.3074   -2.1646   -4.1319 H   0  0  0  0  0  0  0  0  0  0  0  0
   -0.2835   -1.5112   -0.2725 N   0  0  0  0  0  0  0  0  0  0  0  0
    0.0769   -0.7658    0.9424 C   0  0  0  0  0  0  0  0  0  0  0  0
   -1.0528    0.1567    1.3235 C   0  0  0  0  0  0  0  0  0  0  0  0
   -0.8858    1.2244    1.9071 O   0  0  0  0  0  0  0  0  0  0  0  0
    0.4587   -2.0097   -0.7289 H   0  0  0  0  0  0  0  0  0  0  0  0
    0.9815   -0.1810    0.7511 H   0  0  0  0  0  0  0  0  0  0  0  0
    0.2680   -1.4733    1.7545 H   0  0  0  0  0  0  0  0  0  0  0  0
   -2.2859   -0.3562    0.9352 N   0  0  0  0  0  0  0  0  0  0  0  0
   -3.5361    0.3150    1.1754 C   0  0  2  0  0  0  0  0  0  0  0  0
   -4.2197    0.5311   -0.1683 C   0  0  0  0  0  0  0  0  0  0  0  0
   -3.6100    0.5513   -1.2355 O   0  0  0  0  0  0  0  0  0  0  0  0
   -3.3246    1.6371    1.8965 C   0  0  0  0  0  0  0  0  0  0  0  0
   -2.3051   -1.2546    0.4553 H   0  0  0  0  0  0  0  0  0  0  0  0
   -4.1432   -0.3579    1.7907 H   0  0  0  0  0  0  0  0  0  0  0  0
   -2.7183    2.3245    1.2954 H   0  0  0  0  0  0  0  0  0  0  0  0
   -4.2787    2.1330    2.1039 H   0  0  0  0  0  0  0  0  0  0  0  0
   -2.8063    1.4830    2.8491 H   0  0  0  0  0  0  0  0  0  0  0  0
   -5.5846    0.7418   -0.0315 N   0  0  0  0  0  0  0  0  0  0  0  0
   -6.4531    0.9833   -1.1600 C   0  0  0  0  0  0  0  0  0  0  0  0
   -6.0085    0.6889    0.8900 H   0  0  0  0  0  0  0  0  0  0  0  0
   -6.5437    2.0666   -1.3283 H   0  0  0  0  0  0  0  0  0  0  0  0
   -6.0299    0.5072   -2.0567 H   0  0  0  0  0  0  0  0  0  0  0  0
   -7.4473    0.5599   -0.9546 H   0  0  0  0  0  0  0  0  0  0  0  0
  1  3  1  0  0  0  0
  1  7  1  0  0  0  0
  1  2  2  0  0  0  0
 18 19  1  0  0  0  0
 19 24  1  0  0  0  0
 19 20  2  0  0  0  0
 25 26  1  0  0  0  0
 26 34  1  0  0  0  0
 26 27  2  0  0  0  0
  8  9  1  0  0  0  0
  9 17  1  0  0  0  0
  9 10  2  0  0  0  0
 25 28  1  0  0  0  0
  8 11  1  0  0  0  0
 34 35  1  0  0  0  0
 17 18  1  0  0  0  0
 24 25  1  0  0  0  0
  7  8  1  0  0  0  0
  3  4  1  0  0  0  0
  3  5  1  0  0  0  0
  3  6  1  0  0  0  0
 28 31  1  0  0  0  0
 28 32  1  0  0  0  0
 28 33  1  0  0  0  0
 11 14  1  0  0  0  0
 11 15  1  0  0  0  0
 11 16  1  0  0  0  0
 35 37  1  0  0  0  0
 35 38  1  0  0  0  0
 35 39  1  0  0  0  0
 18 22  1  0  0  0  0
 18 23  1  0  0  0  0
 25 30  1  0  0  0  0
  8 13  1  0  0  0  0
 34 36  1  0  0  0  0
 17 21  1  0  0  0  0
  7 12  1  0  0  0  0
 24 29  1  0  0  0  0
M  END
$$$$

  -OEChem-05262214473D

 39 38  0     1  0  0  0  0  0999 V2000
   -3.5200   -4.0268   -1.6943 C   0  0  0  0  0  0  0  0  0  0  0  0
   -2.8702   -4.8827   -1.1054 O   0  0  0  0  0  0  0  0  0  0  0  0
   -4.9704   -4.2579   -1.9614 C   0  0  0  0  0  0  0  0  0  0  0  0
   -5.1456   -4.7573   -2.9278 H   0  0  0  0  0  0  0  0  0  0  0  0
   -5.4379   -4.9112   -1.2072 H   0  0  0  0  0  0  0  0  0  0  0  0
   -5.5954   -3.3510   -1.9864 H   0  0  0  0  0  0  0  0  0  0  0  0
   -3.0424   -2.8131   -2.1606 N   0  0  0  0  0  0  0  0  0  0  0  0
   -1.6755   -2.3891   -2.0077 C   0  0  2  0  0  0  0  0  0  0  0  0
   -1.5782   -1.5673   -0.7292 C   0  0  0  0  0  0  0  0  0  0  0  0
   -2.5448   -1.0064   -0.2171 O   0  0  0  0  0  0  0  0  0  0  0  0
   -1.2087   -1.5823   -3.2094 C   0  0  0  0  0  0  0  0  0  0  0  0
   -3.6915   -2.1888   -2.6360 H   0  0  0  0  0  0  0  0  0  0  0  0
   -1.0721   -3.2977   -1.9053 H   0  0  0  0  0  0  0  0  0  0  0  0
   -1.8017   -0.6681   -3.3281 H   0  0  0  0  0  0  0  0  0  0  0  0
   -0.1601   -1.2849   -3.1045 H   0  0  0  0  0  0  0  0  0  0  0  0
   -1.3074   -2.1646   -4.1319 H   0  0  0  0  0  0  0  0  0  0  0  0
   -0.2835   -1.5112   -0.2725 N   0  0  0  0  0  0  0  0  0  0  0  0
    0.0769   -0.7658    0.9424 C   0  0  0  0  0  0  0  0  0  0  0  0
   -1.0528    0.1567    1.3235 C   0  0  0  0  0  0  0  0  0  0  0  0
   -0.8862    1.3262    1.6595 O   0  0  0  0  0  0  0  0  0  0  0  0
    0.4587   -2.0097   -0.7289 H   0  0  0  0  0  0  0  0  0  0  0  0
    0.9815   -0.1810    0.7511 H   0  0  0  0  0  0  0  0  0  0  0  0
    0.2680   -1.4733    1.7545 H   0  0  0  0  0  0  0  0  0  0  0  0
   -2.2849   -0.4841    1.2476 N   0  0  0  0  0  0  0  0  0  0  0  0
   -3.5343    0.1585    1.5596 C   0  0  2  0  0  0  0  0  0  0  0  0
   -4.4293    0.0682    0.3307 C   0  0  0  0  0  0  0  0  0  0  0  0
   -3.9925   -0.0943   -0.8068 O   0  0  0  0  0  0  0  0  0  0  0  0
   -3.3236    1.6066    1.9734 C   0  0  0  0  0  0  0  0  0  0  0  0
   -2.3039   -1.4598    0.9557 H   0  0  0  0  0  0  0  0  0  0  0  0
   -3.9844   -0.4078    2.3823 H   0  0  0  0  0  0  0  0  0  0  0  0
   -2.8734    2.1898    1.1618 H   0  0  0  0  0  0  0  0  0  0  0  0
   -4.2721    2.0857    2.2379 H   0  0  0  0  0  0  0  0  0  0  0  0
   -2.6558    1.6713    2.8392 H   0  0  0  0  0  0  0  0  0  0  0  0
   -5.7702    0.2336    0.6483 N   0  0  0  0  0  0  0  0  0  0  0  0
   -6.8167    0.2020   -0.3465 C   0  0  0  0  0  0  0  0  0  0  0  0
   -6.0435    0.3443    1.6203 H   0  0  0  0  0  0  0  0  0  0  0  0
   -7.0194    1.2241   -0.6990 H   0  0  0  0  0  0  0  0  0  0  0  0
   -6.4975   -0.4216   -1.1946 H   0  0  0  0  0  0  0  0  0  0  0  0
   -7.7306   -0.2211    0.0961 H   0  0  0  0  0  0  0  0  0  0  0  0
  1  3  1  0  0  0  0
  1  7  1  0  0  0  0
  1  2  2  0  0  0  0
 18 19  1  0  0  0  0
 19 24  1  0  0  0  0
 19 20  2  0  0  0  0
 25 26  1  0  0  0  0
 26 34  1  0  0  0  0
 26 27  2  0  0  0  0
  8  9  1  0  0  0  0
  9 17  1  0  0  0  0
  9 10  2  0  0  0  0
 25 28  1  0  0  0  0
  8 11  1  0  0  0  0
 34 35  1  0  0  0  0
 17 18  1  0  0  0  0
 24 25  1  0  0  0  0
  7  8  1  0  0  0  0
  3  4  1  0  0  0  0
  3  5  1  0  0  0  0
  3  6  1  0  0  0  0
 28 31  1  0  0  0  0
 28 32  1  0  0  0  0
 28 33  1  0  0  0  0
 11 14  1  0  0  0  0
 11 15  1  0  0  0  0
 11 16  1  0  0  0  0
 35 37  1  0  0  0  0
 35 38  1  0  0  0  0
 35 39  1  0  0  0  0
 18 22  1  0  0  0  0
 18 23  1  0  0  0  0
 25 30  1  0  0  0  0
  8 13  1  0  0  0  0
 34 36  1  0  0  0  0
 17 21  1  0  0  0  0
  7 12  1  0  0  0  0
 24 29  1  0  0  0  0
M  END
$$$$

  -OEChem-05262214473D

 39 38  0     1  0  0  0  0  0999 V2000
   -3.5200   -4.0268   -1.6943 C   0  0  0  0  0  0  0  0  0  0  0  0
   -2.8702   -4.8827   -1.1054 O   0  0  0  0  0  0  0  0  0  0  0  0
   -4.9704   -4.2579   -1.9614 C   0  0  0  0  0  0  0  0  0  0  0  0
   -5.1456   -4.7573   -2.9278 H   0  0  0  0  0  0  0  0  0  0  0  0
   -5.4379   -4.9112   -1.2072 H   0  0  0  0  0  0  0  0  0  0  0  0
   -5.5954   -3.3510   -1.9864 H   0  0  0  0  0  0  0  0  0  0  0  0
   -3.0424   -2.8131   -2.1606 N   0  0  0  0  0  0  0  0  0  0  0  0
   -1.6755   -2.3891   -2.0077 C   0  0  2  0  0  0  0  0  0  0  0  0
   -1.5782   -1.5673   -0.7292 C   0  0  0  0  0  0  0  0  0  0  0  0
   -2.5448   -1.0064   -0.2171 O   0  0  0  0  0  0  0  0  0  0  0  0
   -1.2087   -1.5823   -3.2094 C   0  0  0  0  0  0  0  0  0  0  0  0
   -3.6915   -2.1888   -2.6360 H   0  0  0  0  0  0  0  0  0  0  0  0
   -1.0721   -3.2977   -1.9053 H   0  0  0  0  0  0  0  0  0  0  0  0
   -1.8017   -0.6681   -3.3281 H   0  0  0  0  0  0  0  0  0  0  0  0
   -0.1601   -1.2849   -3.1045 H   0  0  0  0  0  0  0  0  0  0  0  0
   -1.3074   -2.1646   -4.1319 H   0  0  0  0  0  0  0  0  0  0  0  0
   -0.2835   -1.5112   -0.2725 N   0  0  0  0  0  0  0  0  0  0  0  0
    0.0769   -0.7658    0.9424 C   0  0  0  0  0  0  0  0  0  0  0  0
   -1.0528    0.1567    1.3235 C   0  0  0  0  0  0  0  0  0  0  0  0
   -0.9324    1.3765    1.4007 O   0  0  0  0  0  0  0  0  0  0  0  0
    0.4587   -2.0097   -0.7289 H   0  0  0  0  0  0  0  0  0  0  0  0
    0.9815   -0.1810    0.7511 H   0  0  0  0  0  0  0  0  0  0  0  0
    0.2680   -1.4733    1.7545 H   0  0  0  0  0  0  0  0  0  0  0  0
   -2.2260   -0.5469    1.5740 N   0  0  0  0  0  0  0  0  0  0  0  0
   -3.4615    0.0819    1.9608 C   0  0  2  0  0  0  0  0  0  0  0  0
   -4.5226   -0.2959    0.9357 C   0  0  0  0  0  0  0  0  0  0  0  0
   -4.2519   -0.6598   -0.2069 O   0  0  0  0  0  0  0  0  0  0  0  0
   -3.3085    1.5921    2.0534 C   0  0  0  0  0  0  0  0  0  0  0  0
   -2.2101   -1.5610    1.4787 H   0  0  0  0  0  0  0  0  0  0  0  0
   -3.7340   -0.3308    2.9383 H   0  0  0  0  0  0  0  0  0  0  0  0
   -3.0356    2.0236    1.0835 H   0  0  0  0  0  0  0  0  0  0  0  0
   -4.2414    2.0664    2.3754 H   0  0  0  0  0  0  0  0  0  0  0  0
   -2.5243    1.8612    2.7693 H   0  0  0  0  0  0  0  0  0  0  0  0
   -5.8086   -0.1375    1.4330 N   0  0  0  0  0  0  0  0  0  0  0  0
   -6.9880   -0.4188    0.6483 C   0  0  0  0  0  0  0  0  0  0  0  0
   -5.9391    0.1509    2.3981 H   0  0  0  0  0  0  0  0  0  0  0  0
   -7.3241    0.5012    0.1477 H   0  0  0  0  0  0  0  0  0  0  0  0
   -6.7519   -1.1821   -0.1077 H   0  0  0  0  0  0  0  0  0  0  0  0
   -7.7867   -0.7901    1.3073 H   0  0  0  0  0  0  0  0  0  0  0  0
  1  3  1  0  0  0  0
  1  7  1  0  0  0  0
  1  2  2  0  0  0  0
 18 19  1  0  0  0  0
 19 24  1  0  0  0  0
 19 20  2  0  0  0  0
 25 26  1  0  0  0  0
 26 34  1  0  0  0  0
 26 27  2  0  0  0  0
  8  9  1  0  0  0  0
  9 17  1  0  0  0  0
  9 10  2  0  0  0  0
 25 28  1  0  0  0  0
  8 11  1  0  0  0  0
 34 35  1  0  0  0  0
 17 18  1  0  0  0  0
 24 25  1  0  0  0  0
  7  8  1  0  0  0  0
  3  4  1  0  0  0  0
  3  5  1  0  0  0  0
  3  6  1  0  0  0  0
 28 31  1  0  0  0  0
 28 32  1  0  0  0  0
 28 33  1  0  0  0  0
 11 14  1  0  0  0  0
 11 15  1  0  0  0  0
 11 16  1  0  0  0  0
 35 37  1  0  0  0  0
 35 38  1  0  0  0  0
 35 39  1  0  0  0  0
 18 22  1  0  0  0  0
 18 23  1  0  0  0  0
 25 30  1  0  0  0  0
  8 13  1  0  0  0  0
 34 36  1  0  0  0  0
 17 21  1  0  0  0  0
  7 12  1  0  0  0  0
 24 29  1  0  0  0  0
M  END
$$$$

  -OEChem-05262214473D

 39 38  0     1  0  0  0  0  0999 V2000
   -3.5200   -4.0268   -1.6943 C   0  0  0  0  0  0  0  0  0  0  0  0
   -2.8702   -4.8827   -1.1054 O   0  0  0  0  0  0  0  0  0  0  0  0
   -4.9704   -4.2579   -1.9614 C   0  0  0  0  0  0  0  0  0  0  0  0
   -5.1456   -4.7573   -2.9278 H   0  0  0  0  0  0  0  0  0  0  0  0
   -5.4379   -4.9112   -1.2072 H   0  0  0  0  0  0  0  0  0  0  0  0
   -5.5954   -3.3510   -1.9864 H   0  0  0  0  0  0  0  0  0  0  0  0
   -3.0424   -2.8131   -2.1606 N   0  0  0  0  0  0  0  0  0  0  0  0
   -1.6755   -2.3891   -2.0077 C   0  0  2  0  0  0  0  0  0  0  0  0
   -1.5782   -1.5673   -0.7292 C   0  0  0  0  0  0  0  0  0  0  0  0
   -2.5448   -1.0064   -0.2171 O   0  0  0  0  0  0  0  0  0  0  0  0
   -1.2087   -1.5823   -3.2094 C   0  0  0  0  0  0  0  0  0  0  0  0
   -3.6915   -2.1888   -2.6360 H   0  0  0  0  0  0  0  0  0  0  0  0
   -1.0721   -3.2977   -1.9053 H   0  0  0  0  0  0  0  0  0  0  0  0
   -1.8017   -0.6681   -3.3281 H   0  0  0  0  0  0  0  0  0  0  0  0
   -0.1601   -1.2849   -3.1045 H   0  0  0  0  0  0  0  0  0  0  0  0
   -1.3074   -2.1646   -4.1319 H   0  0  0  0  0  0  0  0  0  0  0  0
   -0.2835   -1.5112   -0.2725 N   0  0  0  0  0  0  0  0  0  0  0  0
    0.0769   -0.7658    0.9424 C   0  0  0  0  0  0  0  0  0  0  0  0
   -1.0528    0.1567    1.3235 C   0  0  0  0  0  0  0  0  0  0  0  0
   -1.0214    1.3719    1.1482 O   0  0  0  0  0  0  0  0  0  0  0  0
    0.4587   -2.0097   -0.7289 H   0  0  0  0  0  0  0  0  0  0  0  0
    0.9815   -0.1810    0.7511 H   0  0  0  0  0  0  0  0  0  0  0  0
    0.2680   -1.4733    1.7545 H   0  0  0  0  0  0  0  0  0  0  0  0
   -2.1134   -0.5404    1.8922 N   0  0  0  0  0  0  0  0  0  0  0  0
   -3.3227    0.0905    2.3517 C   0  0  2  0  0  0  0  0  0  0  0  0
   -4.4930   -0.5363    1.6054 C   0  0  0  0  0  0  0  0  0  0  0  0
   -4.3705   -1.1066    0.5234 O   0  0  0  0  0  0  0  0  0  0  0  0
   -3.2802    1.5946    2.1312 C   0  0  0  0  0  0  0  0  0  0  0  0
   -2.0300   -1.5511    1.9887 H   0  0  0  0  0  0  0  0  0  0  0  0
   -3.4091   -0.1322    3.4208 H   0  0  0  0  0  0  0  0  0  0  0  0
   -3.1938    1.8372    1.0657 H   0  0  0  0  0  0  0  0  0  0  0  0
   -4.1888    2.0765    2.5072 H   0  0  0  0  0  0  0  0  0  0  0  0
   -2.4209    2.0396    2.6442 H   0  0  0  0  0  0  0  0  0  0  0  0
   -5.6970   -0.3462    2.2689 N   0  0  0  0  0  0  0  0  0  0  0  0
   -6.9553   -0.8366    1.7568 C   0  0  0  0  0  0  0  0  0  0  0  0
   -5.7023    0.1218    3.1704 H   0  0  0  0  0  0  0  0  0  0  0  0
   -7.4370   -0.0527    1.1540 H   0  0  0  0  0  0  0  0  0  0  0  0
   -6.7757   -1.7226    1.1300 H   0  0  0  0  0  0  0  0  0  0  0  0
   -7.6118   -1.1085    2.5965 H   0  0  0  0  0  0  0  0  0  0  0  0
  1  3  1  0  0  0  0
  1  7  1  0  0  0  0
  1  2  2  0  0  0  0
 18 19  1  0  0  0  0
 19 24  1  0  0  0  0
 19 20  2  0  0  0  0
 25 26  1  0  0  0  0
 26 34  1  0  0  0  0
 26 27  2  0  0  0  0
  8  9  1  0  0  0  0
  9 17  1  0  0  0  0
  9 10  2  0  0  0  0
 25 28  1  0  0  0  0
  8 11  1  0  0  0  0
 34 35  1  0  0  0  0
 17 18  1  0  0  0  0
 24 25  1  0  0  0  0
  7  8  1  0  0  0  0
  3  4  1  0  0  0  0
  3  5  1  0  0  0  0
  3  6  1  0  0  0  0
 28 31  1  0  0  0  0
 28 32  1  0  0  0  0
 28 33  1  0  0  0  0
 11 14  1  0  0  0  0
 11 15  1  0  0  0  0
 11 16  1  0  0  0  0
 35 37  1  0  0  0  0
 35 38  1  0  0  0  0
 35 39  1  0  0  0  0
 18 22  1  0  0  0  0
 18 23  1  0  0  0  0
 25 30  1  0  0  0  0
  8 13  1  0  0  0  0
 34 36  1  0  0  0  0
 17 21  1  0  0  0  0
  7 12  1  0  0  0  0
 24 29  1  0  0  0  0
M  END
$$$$

  -OEChem-05262214473D

 39 38  0     1  0  0  0  0  0999 V2000
   -3.5200   -4.0268   -1.6943 C   0  0  0  0  0  0  0  0  0  0  0  0
   -2.8702   -4.8827   -1.1054 O   0  0  0  0  0  0  0  0  0  0  0  0
   -4.9704   -4.2579   -1.9614 C   0  0  0  0  0  0  0  0  0  0  0  0
   -5.1456   -4.7573   -2.9278 H   0  0  0  0  0  0  0  0  0  0  0  0
   -5.4379   -4.9112   -1.2072 H   0  0  0  0  0  0  0  0  0  0  0  0
   -5.5954   -3.3510   -1.9864 H   0  0  0  0  0  0  0  0  0  0  0  0
   -3.0424   -2.8131   -2.1606 N   0  0  0  0  0  0  0  0  0  0  0  0
   -1.6755   -2.3891   -2.0077 C   0  0  2  0  0  0  0  0  0  0  0  0
   -1.5782   -1.5673   -0.7292 C   0  0  0  0  0  0  0  0  0  0  0  0
   -2.5448   -1.0064   -0.2171 O   0  0  0  0  0  0  0  0  0  0  0  0
   -1.2087   -1.5823   -3.2094 C   0  0  0  0  0  0  0  0  0  0  0  0
   -3.6915   -2.1888   -2.6360 H   0  0  0  0  0  0  0  0  0  0  0  0
   -1.0721   -3.2977   -1.9053 H   0  0  0  0  0  0  0  0  0  0  0  0
   -1.8017   -0.6681   -3.3281 H   0  0  0  0  0  0  0  0  0  0  0  0
   -0.1601   -1.2849   -3.1045 H   0  0  0  0  0  0  0  0  0  0  0  0
   -1.3074   -2.1646   -4.1319 H   0  0  0  0  0  0  0  0  0  0  0  0
   -0.2835   -1.5112   -0.2725 N   0  0  0  0  0  0  0  0  0  0  0  0
    0.0769   -0.7658    0.9424 C   0  0  0  0  0  0  0  0  0  0  0  0
   -1.0528    0.1567    1.3235 C   0  0  0  0  0  0  0  0  0  0  0  0
   -1.1470    1.3126    0.9193 O   0  0  0  0  0  0  0  0  0  0  0  0
    0.4587   -2.0097   -0.7289 H   0  0  0  0  0  0  0  0  0  0  0  0
    0.9815   -0.1810    0.7511 H   0  0  0  0  0  0  0  0  0  0  0  0
    0.2680   -1.4733    1.7545 H   0  0  0  0  0  0  0  0  0  0  0  0
   -1.9547   -0.4651    2.1805 N   0  0  0  0  0  0  0  0  0  0  0  0
   -3.1272    0.1837    2.7055 C   0  0  2  0  0  0  0  0  0  0  0  0
   -4.3426   -0.6367    2.2943 C   0  0  0  0  0  0  0  0  0  0  0  0
   -4.3401   -1.4044    1.3341 O   0  0  0  0  0  0  0  0  0  0  0  0
   -3.2408    1.6139    2.2013 C   0  0  0  0  0  0  0  0  0  0  0  0
   -1.7759   -1.4308    2.4508 H   0  0  0  0  0  0  0  0  0  0  0  0
   -3.0318    0.1744    3.7968 H   0  0  0  0  0  0  0  0  0  0  0  0
   -3.3372    1.6434    1.1098 H   0  0  0  0  0  0  0  0  0  0  0  0
   -4.1177    2.1152    2.6241 H   0  0  0  0  0  0  0  0  0  0  0  0
   -2.3524    2.1945    2.4723 H   0  0  0  0  0  0  0  0  0  0  0  0
   -5.4433   -0.3785    3.0992 N   0  0  0  0  0  0  0  0  0  0  0  0
   -6.7208   -1.0231    2.9034 C   0  0  0  0  0  0  0  0  0  0  0  0
   -5.3494    0.2589    3.8845 H   0  0  0  0  0  0  0  0  0  0  0  0
   -7.3504   -0.4000    2.2512 H   0  0  0  0  0  0  0  0  0  0  0  0
   -6.5672   -2.0061    2.4342 H   0  0  0  0  0  0  0  0  0  0  0  0
   -7.2179   -1.1546    3.8758 H   0  0  0  0  0  0  0  0  0  0  0  0
  1  3  1  0  0  0  0
  1  7  1  0  0  0  0
  1  2  2  0  0  0  0
 18 19  1  0  0  0  0
 19 24  1  0  0  0  0
 19 20  2  0  0  0  0
 25 26  1  0  0  0  0
 26 34  1  0  0  0  0
 26 27  2  0  0  0  0
  8  9  1  0  0  0  0
  9 17  1  0  0  0  0
  9 10  2  0  0  0  0
 25 28  1  0  0  0  0
  8 11  1  0  0  0  0
 34 35  1  0  0  0  0
 17 18  1  0  0  0  0
 24 25  1  0  0  0  0
  7  8  1  0  0  0  0
  3  4  1  0  0  0  0
  3  5  1  0  0  0  0
  3  6  1  0  0  0  0
 28 31  1  0  0  0  0
 28 32  1  0  0  0  0
 28 33  1  0  0  0  0
 11 14  1  0  0  0  0
 11 15  1  0  0  0  0
 11 16  1  0  0  0  0
 35 37  1  0  0  0  0
 35 38  1  0  0  0  0
 35 39  1  0  0  0  0
 18 22  1  0  0  0  0
 18 23  1  0  0  0  0
 25 30  1  0  0  0  0
  8 13  1  0  0  0  0
 34 36  1  0  0  0  0
 17 21  1  0  0  0  0
  7 12  1  0  0  0  0
 24 29  1  0  0  0  0
M  END
$$$$

  -OEChem-05262214473D

 39 38  0     1  0  0  0  0  0999 V2000
   -3.5200   -4.0268   -1.6943 C   0  0  0  0  0  0  0  0  0  0  0  0
   -2.8702   -4.8827   -1.1054 O   0  0  0  0  0  0  0  0  0  0  0  0
   -4.9704   -4.2579   -1.9614 C   0  0  0  0  0  0  0  0  0  0  0  0
   -5.1456   -4.7573   -2.9278 H   0  0  0  0  0  0  0  0  0  0  0  0
   -5.4379   -4.9112   -1.2072 H   0  0  0  0  0  0  0  0  0  0  0  0
   -5.5954   -3.3510   -1.9864 H   0  0  0  0  0  0  0  0  0  0  0  0
   -3.0424   -2.8131   -2.1606 N   0  0  0  0  0  0  0  0  0  0  0  0
   -1.6755   -2.3891   -2.0077 C   0  0  2  0  0  0  0  0  0  0  0  0
   -1.5782   -1.5673   -0.7292 C   0  0  0  0  0  0  0  0  0  0  0  0
   -2.5448   -1.0064   -0.2171 O   0  0  0  0  0  0  0  0  0  0  0  0
   -1.2087   -1.5823   -3.2094 C   0  0  0  0  0  0  0  0  0  0  0  0
   -3.6915   -2.1888   -2.6360 H   0  0  0  0  0  0  0  0  0  0  0  0
   -1.0721   -3.2977   -1.9053 H   0  0  0  0  0  0  0  0  0  0  0  0
   -1.8017   -0.6681   -3.3281 H   0  0  0  0  0  0  0  0  0  0  0  0
   -0.1601   -1.2849   -3.1045 H   0  0  0  0  0  0  0  0  0  0  0  0
   -1.3074   -2.1646   -4.1319 H   0  0  0  0  0  0  0  0  0  0  0  0
   -0.2835   -1.5112   -0.2725 N   0  0  0  0  0  0  0  0  0  0  0  0
    0.0769   -0.7658    0.9424 C   0  0  0  0  0  0  0  0  0  0  0  0
   -1.0528    0.1567    1.3235 C   0  0  0  0  0  0  0  0  0  0  0  0
   -1.3007    1.2028    0.7296 O   0  0  0  0  0  0  0  0  0  0  0  0
    0.4587   -2.0097   -0.7289 H   0  0  0  0  0  0  0  0  0  0  0  0
    0.9815   -0.1810    0.7511 H   0  0  0  0  0  0  0  0  0  0  0  0
    0.2680   -1.4733    1.7545 H   0  0  0  0  0  0  0  0  0  0  0  0
   -1.7606   -0.3260    2.4191 N   0  0  0  0  0  0  0  0  0  0  0  0
   -2.8884    0.3551    2.9983 C   0  0  2  0  0  0  0  0  0  0  0  0
   -4.0817   -0.5903    2.9553 C   0  0  0  0  0  0  0  0  0  0  0  0
   -4.1628   -1.5327    2.1702 O   0  0  0  0  0  0  0  0  0  0  0  0
   -3.1929    1.6487    2.2590 C   0  0  0  0  0  0  0  0  0  0  0  0
   -1.4651   -1.2084    2.8336 H   0  0  0  0  0  0  0  0  0  0  0  0
   -2.6279    0.5682    4.0408 H   0  0  0  0  0  0  0  0  0  0  0  0
   -3.4560    1.4553    1.2126 H   0  0  0  0  0  0  0  0  0  0  0  0
   -4.0331    2.1799    2.7183 H   0  0  0  0  0  0  0  0  0  0  0  0
   -2.3236    2.3152    2.2654 H   0  0  0  0  0  0  0  0  0  0  0  0
   -5.0645   -0.2319    3.8673 N   0  0  0  0  0  0  0  0  0  0  0  0
   -6.3005   -0.9655    4.0100 C   0  0  0  0  0  0  0  0  0  0  0  0
   -4.9044    0.5530    4.4918 H   0  0  0  0  0  0  0  0  0  0  0  0
   -7.0702   -0.5169    3.3648 H   0  0  0  0  0  0  0  0  0  0  0  0
   -6.1408   -2.0133    3.7159 H   0  0  0  0  0  0  0  0  0  0  0  0
   -6.6317   -0.9252    5.0581 H   0  0  0  0  0  0  0  0  0  0  0  0
  1  3  1  0  0  0  0
  1  7  1  0  0  0  0
  1  2  2  0  0  0  0
 18 19  1  0  0  0  0
 19 24  1  0  0  0  0
 19 20  2  0  0  0  0
 25 26  1  0  0  0  0
 26 34  1  0  0  0  0
 26 27  2  0  0  0  0
  8  9  1  0  0  0  0
  9 17  1  0  0  0  0
  9 10  2  0  0  0  0
 25 28  1  0  0  0  0
  8 11  1  0  0  0  0
 34 35  1  0  0  0  0
 17 18  1  0  0  0  0
 24 25  1  0  0  0  0
  7  8  1  0  0  0  0
  3  4  1  0  0  0  0
  3  5  1  0  0  0  0
  3  6  1  0  0  0  0
 28 31  1  0  0  0  0
 28 32  1  0  0  0  0
 28 33  1  0  0  0  0
 11 14  1  0  0  0  0
 11 15  1  0  0  0  0
 11 16  1  0  0  0  0
 35 37  1  0  0  0  0
 35 38  1  0  0  0  0
 35 39  1  0  0  0  0
 18 22  1  0  0  0  0
 18 23  1  0  0  0  0
 25 30  1  0  0  0  0
  8 13  1  0  0  0  0
 34 36  1  0  0  0  0
 17 21  1  0  0  0  0
  7 12  1  0  0  0  0
 24 29  1  0  0  0  0
M  END
$$$$

  -OEChem-05262214473D

 39 38  0     1  0  0  0  0  0999 V2000
   -3.5200   -4.0268   -1.6943 C   0  0  0  0  0  0  0  0  0  0  0  0
   -2.8702   -4.8827   -1.1054 O   0  0  0  0  0  0  0  0  0  0  0  0
   -4.9704   -4.2579   -1.9614 C   0  0  0  0  0  0  0  0  0  0  0  0
   -5.1456   -4.7573   -2.9278 H   0  0  0  0  0  0  0  0  0  0  0  0
   -5.4379   -4.9112   -1.2072 H   0  0  0  0  0  0  0  0  0  0  0  0
   -5.5954   -3.3510   -1.9864 H   0  0  0  0  0  0  0  0  0  0  0  0
   -3.0424   -2.8131   -2.1606 N   0  0  0  0  0  0  0  0  0  0  0  0
   -1.6755   -2.3891   -2.0077 C   0  0  2  0  0  0  0  0  0  0  0  0
   -1.5782   -1.5673   -0.7292 C   0  0  0  0  0  0  0  0  0  0  0  0
   -2.5448   -1.0064   -0.2171 O   0  0  0  0  0  0  0  0  0  0  0  0
   -1.2087   -1.5823   -3.2094 C   0  0  0  0  0  0  0  0  0  0  0  0
   -3.6915   -2.1888   -2.6360 H   0  0  0  0  0  0  0  0  0  0  0  0
   -1.0721   -3.2977   -1.9053 H   0  0  0  0  0  0  0  0  0  0  0  0
   -1.8017   -0.6681   -3.3281 H   0  0  0  0  0  0  0  0  0  0  0  0
   -0.1601   -1.2849   -3.1045 H   0  0  0  0  0  0  0  0  0  0  0  0
   -1.3074   -2.1646   -4.1319 H   0  0  0  0  0  0  0  0  0  0  0  0
   -0.2835   -1.5112   -0.2725 N   0  0  0  0  0  0  0  0  0  0  0  0
    0.0769   -0.7658    0.9424 C   0  0  0  0  0  0  0  0  0  0  0  0
   -1.0528    0.1567    1.3235 C   0  0  0  0  0  0  0  0  0  0  0  0
   -1.4720    1.0498    0.5921 O   0  0  0  0  0  0  0  0  0  0  0  0
    0.4587   -2.0097   -0.7289 H   0  0  0  0  0  0  0  0  0  0  0  0
    0.9815   -0.1810    0.7511 H   0  0  0  0  0  0  0  0  0  0  0  0
    0.2680   -1.4733    1.7545 H   0  0  0  0  0  0  0  0  0  0  0  0
   -1.5444   -0.1327    2.5919 N   0  0  0  0  0  0  0  0  0  0  0  0
   -2.6226    0.5932    3.2100 C   0  0  2  0  0  0  0  0  0  0  0  0
   -3.7279   -0.4001    3.5435 C   0  0  0  0  0  0  0  0  0  0  0  0
   -3.8508   -1.4829    2.9747 O   0  0  0  0  0  0  0  0  0  0  0  0
   -3.1397    1.6967    2.3004 C   0  0  0  0  0  0  0  0  0  0  0  0
   -1.1189   -0.8990    3.1110 H   0  0  0  0  0  0  0  0  0  0  0  0
   -2.2249    1.0224    4.1361 H   0  0  0  0  0  0  0  0  0  0  0  0
   -3.5422    1.2859    1.3673 H   0  0  0  0  0  0  0  0  0  0  0  0
   -3.9406    2.2663    2.7833 H   0  0  0  0  0  0  0  0  0  0  0  0
   -2.3365    2.3935    2.0375 H   0  0  0  0  0  0  0  0  0  0  0  0
   -4.5866    0.0833    4.5208 N   0  0  0  0  0  0  0  0  0  0  0  0
   -5.7230   -0.6677    5.0010 C   0  0  0  0  0  0  0  0  0  0  0  0
   -4.3977    0.9839    4.9509 H   0  0  0  0  0  0  0  0  0  0  0  0
   -6.6156   -0.3956    4.4187 H   0  0  0  0  0  0  0  0  0  0  0  0
   -5.5254   -1.7439    4.8877 H   0  0  0  0  0  0  0  0  0  0  0  0
   -5.8933   -0.4360    6.0628 H   0  0  0  0  0  0  0  0  0  0  0  0
  1  3  1  0  0  0  0
  1  7  1  0  0  0  0
  1  2  2  0  0  0  0
 18 19  1  0  0  0  0
 19 24  1  0  0  0  0
 19 20  2  0  0  0  0
 25 26  1  0  0  0  0
 26 34  1  0  0  0  0
 26 27  2  0  0  0  0
  8  9  1  0  0  0  0
  9 17  1  0  0  0  0
  9 10  2  0  0  0  0
 25 28  1  0  0  0  0
  8 11  1  0  0  0  0
 34 35  1  0  0  0  0
 17 18  1  0  0  0  0
 24 25  1  0  0  0  0
  7  8  1  0  0  0  0
  3  4  1  0  0  0  0
  3  5  1  0  0  0  0
  3  6  1  0  0  0  0
 28 31  1  0  0  0  0
 28 32  1  0  0  0  0
 28 33  1  0  0  0  0
 11 14  1  0  0  0  0
 11 15  1  0  0  0  0
 11 16  1  0  0  0  0
 35 37  1  0  0  0  0
 35 38  1  0  0  0  0
 35 39  1  0  0  0  0
 18 22  1  0  0  0  0
 18 23  1  0  0  0  0
 25 30  1  0  0  0  0
  8 13  1  0  0  0  0
 34 36  1  0  0  0  0
 17 21  1  0  0  0  0
  7 12  1  0  0  0  0
 24 29  1  0  0  0  0
M  END
$$$$

  -OEChem-05262214473D

 39 38  0     1  0  0  0  0  0999 V2000
   -3.5200   -4.0268   -1.6943 C   0  0  0  0  0  0  0  0  0  0  0  0
   -2.8702   -4.8827   -1.1054 O   0  0  0  0  0  0  0  0  0  0  0  0
   -4.9704   -4.2579   -1.9614 C   0  0  0  0  0  0  0  0  0  0  0  0
   -5.1456   -4.7573   -2.9278 H   0  0  0  0  0  0  0  0  0  0  0  0
   -5.4379   -4.9112   -1.2072 H   0  0  0  0  0  0  0  0  0  0  0  0
   -5.5954   -3.3510   -1.9864 H   0  0  0  0  0  0  0  0  0  0  0  0
   -3.0424   -2.8131   -2.1606 N   0  0  0  0  0  0  0  0  0  0  0  0
   -1.6755   -2.3891   -2.0077 C   0  0  2  0  0  0  0  0  0  0  0  0
   -1.5782   -1.5673   -0.7292 C   0  0  0  0  0  0  0  0  0  0  0  0
   -2.5448   -1.0064   -0.2171 O   0  0  0  0  0  0  0  0  0  0  0  0
   -1.2087   -1.5823   -3.2094 C   0  0  0  0  0  0  0  0  0  0  0  0
   -3.6915   -2.1888   -2.6360 H   0  0  0  0  0  0  0  0  0  0  0  0
   -1.0721   -3.2977   -1.9053 H   0  0  0  0  0  0  0  0  0  0  0  0
   -1.8017   -0.6681   -3.3281 H   0  0  0  0  0  0  0  0  0  0  0  0
   -0.1601   -1.2849   -3.1045 H   0  0  0  0  0  0  0  0  0  0  0  0
   -1.3074   -2.1646   -4.1319 H   0  0  0  0  0  0  0  0  0  0  0  0
   -0.2835   -1.5112   -0.2725 N   0  0  0  0  0  0  0  0  0  0  0  0
    0.0769   -0.7658    0.9424 C   0  0  0  0  0  0  0  0  0  0  0  0
   -1.0528    0.1567    1.3235 C   0  0  0  0  0  0  0  0  0  0  0  0
   -1.6492    0.8642    0.5160 O   0  0  0  0  0  0  0  0  0  0  0  0
    0.4587   -2.0097   -0.7289 H   0  0  0  0  0  0  0  0  0  0  0  0
    0.9815   -0.1810    0.7511 H   0  0  0  0  0  0  0  0  0  0  0  0
    0.2680   -1.4733    1.7545 H   0  0  0  0  0  0  0  0  0  0  0  0
   -1.3209    0.1017    2.6871 N   0  0  0  0  0  0  0  0  0  0  0  0
   -2.3479    0.8815    3.3263 C   0  0  2  0  0  0  0  0  0  0  0  0
   -3.3056   -0.0792    4.0187 C   0  0  0  0  0  0  0  0  0  0  0  0
   -3.4252   -1.2583    3.6926 O   0  0  0  0  0  0  0  0  0  0  0  0
   -3.0850    1.7546    2.3227 C   0  0  0  0  0  0  0  0  0  0  0  0
   -0.7608   -0.5237    3.2640 H   0  0  0  0  0  0  0  0  0  0  0  0
   -1.8503    1.5059    4.0763 H   0  0  0  0  0  0  0  0  0  0  0  0
   -3.5899    1.1465    1.5632 H   0  0  0  0  0  0  0  0  0  0  0  0
   -3.8467    2.3683    2.8148 H   0  0  0  0  0  0  0  0  0  0  0  0
   -2.3902    2.4242    1.8043 H   0  0  0  0  0  0  0  0  0  0  0  0
   -4.0421    0.5459    5.0152 N   0  0  0  0  0  0  0  0  0  0  0  0
   -5.0276   -0.1500    5.8091 C   0  0  0  0  0  0  0  0  0  0  0  0
   -3.8636    1.5224    5.2305 H   0  0  0  0  0  0  0  0  0  0  0  0
   -6.0175   -0.0442    5.3412 H   0  0  0  0  0  0  0  0  0  0  0  0
   -4.7631   -1.2160    5.8699 H   0  0  0  0  0  0  0  0  0  0  0  0
   -5.0529    0.2798    6.8214 H   0  0  0  0  0  0  0  0  0  0  0  0
  1  3  1  0  0  0  0
  1  7  1  0  0  0  0
  1  2  2  0  0  0  0
 18 19  1  0  0  0  0
 19 24  1  0  0  0  0
 19 20  2  0  0  0  0
 25 26  1  0  0  0  0
 26 34  1  0  0  0  0
 26 27  2  0  0  0  0
  8  9  1  0  0  0  0
  9 17  1  0  0  0  0
  9 10  2  0  0  0  0
 25 28  1  0  0  0  0
  8 11  1  0  0  0  0
 34 35  1  0  0  0  0
 17 18  1  0  0  0  0
 24 25  1  0  0  0  0
  7  8  1  0  0  0  0
  3  4  1  0  0  0  0
  3  5  1  0  0  0  0
  3  6  1  0  0  0  0
 28 31  1  0  0  0  0
 28 32  1  0  0  0  0
 28 33  1  0  0  0  0
 11 14  1  0  0  0  0
 11 15  1  0  0  0  0
 11 16  1  0  0  0  0
 35 37  1  0  0  0  0
 35 38  1  0  0  0  0
 35 39  1  0  0  0  0
 18 22  1  0  0  0  0
 18 23  1  0  0  0  0
 25 30  1  0  0  0  0
  8 13  1  0  0  0  0
 34 36  1  0  0  0  0
 17 21  1  0  0  0  0
  7 12  1  0  0  0  0
 24 29  1  0  0  0  0
M  END
$$$$

  -OEChem-05262214473D

 39 38  0     1  0  0  0  0  0999 V2000
   -3.5200   -4.0268   -1.6943 C   0  0  0  0  0  0  0  0  0  0  0  0
   -2.8702   -4.8827   -1.1054 O   0  0  0  0  0  0  0  0  0  0  0  0
   -4.9704   -4.2579   -1.9614 C   0  0  0  0  0  0  0  0  0  0  0  0
   -5.1456   -4.7573   -2.9278 H   0  0  0  0  0  0  0  0  0  0  0  0
   -5.4379   -4.9112   -1.2072 H   0  0  0  0  0  0  0  0  0  0  0  0
   -5.5954   -3.3510   -1.9864 H   0  0  0  0  0  0  0  0  0  0  0  0
   -3.0424   -2.8131   -2.1606 N   0  0  0  0  0  0  0  0  0  0  0  0
   -1.6755   -2.3891   -2.0077 C   0  0  2  0  0  0  0  0  0  0  0  0
   -1.5782   -1.5673   -0.7292 C   0  0  0  0  0  0  0  0  0  0  0  0
   -2.5448   -1.0064   -0.2171 O   0  0  0  0  0  0  0  0  0  0  0  0
   -1.2087   -1.5823   -3.2094 C   0  0  0  0  0  0  0  0  0  0  0  0
   -3.6915   -2.1888   -2.6360 H   0  0  0  0  0  0  0  0  0  0  0  0
   -1.0721   -3.2977   -1.9053 H   0  0  0  0  0  0  0  0  0  0  0  0
   -1.8017   -0.6681   -3.3281 H   0  0  0  0  0  0  0  0  0  0  0  0
   -0.1601   -1.2849   -3.1045 H   0  0  0  0  0  0  0  0  0  0  0  0
   -1.3074   -2.1646   -4.1319 H   0  0  0  0  0  0  0  0  0  0  0  0
   -0.2835   -1.5112   -0.2725 N   0  0  0  0  0  0  0  0  0  0  0  0
    0.0769   -0.7658    0.9424 C   0  0  0  0  0  0  0  0  0  0  0  0
   -1.0528    0.1567    1.3235 C   0  0  0  0  0  0  0  0  0  0  0  0
   -1.8204    0.6585    0.5066 O   0  0  0  0  0  0  0  0  0  0  0  0
    0.4587   -2.0097   -0.7289 H   0  0  0  0  0  0  0  0  0  0  0  0
    0.9815   -0.1810    0.7511 H   0  0  0  0  0  0  0  0  0  0  0  0
    0.2680   -1.4733    1.7545 H   0  0  0  0  0  0  0  0  0  0  0  0
   -1.1053    0.3612    2.6982 N   0  0  0  0  0  0  0  0  0  0  0  0
   -2.0830    1.2006    3.3391 C   0  0  2  0  0  0  0  0  0  0  0  0
   -2.8433    0.3506    4.3486 C   0  0  0  0  0  0  0  0  0  0  0  0
   -2.9152   -0.8743    4.2751 O   0  0  0  0  0  0  0  0  0  0  0  0
   -3.0323    1.8184    2.3243 C   0  0  0  0  0  0  0  0  0  0  0  0
   -0.4152   -0.1080    3.2824 H   0  0  0  0  0  0  0  0  0  0  0  0
   -1.5295    1.9859    3.8654 H   0  0  0  0  0  0  0  0  0  0  0  0
   -3.5958    1.0468    1.7870 H   0  0  0  0  0  0  0  0  0  0  0  0
   -3.7577    2.4791    2.8104 H   0  0  0  0  0  0  0  0  0  0  0  0
   -2.4809    2.4050    1.5816 H   0  0  0  0  0  0  0  0  0  0  0  0
   -3.4681    1.1242    5.3168 N   0  0  0  0  0  0  0  0  0  0  0  0
   -4.2619    0.5522    6.3792 C   0  0  0  0  0  0  0  0  0  0  0  0
   -3.3388    2.1317    5.3115 H   0  0  0  0  0  0  0  0  0  0  0  0
   -5.3166    0.5133    6.0693 H   0  0  0  0  0  0  0  0  0  0  0  0
   -3.9056   -0.4658    6.5955 H   0  0  0  0  0  0  0  0  0  0  0  0
   -4.1678    1.1733    7.2821 H   0  0  0  0  0  0  0  0  0  0  0  0
  1  3  1  0  0  0  0
  1  7  1  0  0  0  0
  1  2  2  0  0  0  0
 18 19  1  0  0  0  0
 19 24  1  0  0  0  0
 19 20  2  0  0  0  0
 25 26  1  0  0  0  0
 26 34  1  0  0  0  0
 26 27  2  0  0  0  0
  8  9  1  0  0  0  0
  9 17  1  0  0  0  0
  9 10  2  0  0  0  0
 25 28  1  0  0  0  0
  8 11  1  0  0  0  0
 34 35  1  0  0  0  0
 17 18  1  0  0  0  0
 24 25  1  0  0  0  0
  7  8  1  0  0  0  0
  3  4  1  0  0  0  0
  3  5  1  0  0  0  0
  3  6  1  0  0  0  0
 28 31  1  0  0  0  0
 28 32  1  0  0  0  0
 28 33  1  0  0  0  0
 11 14  1  0  0  0  0
 11 15  1  0  0  0  0
 11 16  1  0  0  0  0
 35 37  1  0  0  0  0
 35 38  1  0  0  0  0
 35 39  1  0  0  0  0
 18 22  1  0  0  0  0
 18 23  1  0  0  0  0
 25 30  1  0  0  0  0
  8 13  1  0  0  0  0
 34 36  1  0  0  0  0
 17 21  1  0  0  0  0
  7 12  1  0  0  0  0
 24 29  1  0  0  0  0
M  END
$$$$

  -OEChem-05262214473D

 39 38  0     1  0  0  0  0  0999 V2000
   -3.5200   -4.0268   -1.6943 C   0  0  0  0  0  0  0  0  0  0  0  0
   -2.8702   -4.8827   -1.1054 O   0  0  0  0  0  0  0  0  0  0  0  0
   -4.9704   -4.2579   -1.9614 C   0  0  0  0  0  0  0  0  0  0  0  0
   -5.1456   -4.7573   -2.9278 H   0  0  0  0  0  0  0  0  0  0  0  0
   -5.4379   -4.9112   -1.2072 H   0  0  0  0  0  0  0  0  0  0  0  0
   -5.5954   -3.3510   -1.9864 H   0  0  0  0  0  0  0  0  0  0  0  0
   -3.0424   -2.8131   -2.1606 N   0  0  0  0  0  0  0  0  0  0  0  0
   -1.6755   -2.3891   -2.0077 C   0  0  2  0  0  0  0  0  0  0  0  0
   -1.5782   -1.5673   -0.7292 C   0  0  0  0  0  0  0  0  0  0  0  0
   -2.5448   -1.0064   -0.2171 O   0  0  0  0  0  0  0  0  0  0  0  0
   -1.2087   -1.5823   -3.2094 C   0  0  0  0  0  0  0  0  0  0  0  0
   -3.6915   -2.1888   -2.6360 H   0  0  0  0  0  0  0  0  0  0  0  0
   -1.0721   -3.2977   -1.9053 H   0  0  0  0  0  0  0  0  0  0  0  0
   -1.8017   -0.6681   -3.3281 H   0  0  0  0  0  0  0  0  0  0  0  0
   -0.1601   -1.2849   -3.1045 H   0  0  0  0  0  0  0  0  0  0  0  0
   -1.3074   -2.1646   -4.1319 H   0  0  0  0  0  0  0  0  0  0  0  0
   -0.2835   -1.5112   -0.2725 N   0  0  0  0  0  0  0  0  0  0  0  0
    0.0769   -0.7658    0.9424 C   0  0  0  0  0  0  0  0  0  0  0  0
   -1.0528    0.1567    1.3235 C   0  0  0  0  0  0  0  0  0  0  0  0
   -1.9737    0.4468    0.5645 O   0  0  0  0  0  0  0  0  0  0  0  0
    0.4587   -2.0097   -0.7289 H   0  0  0  0  0  0  0  0  0  0  0  0
    0.9815   -0.1810    0.7511 H   0  0  0  0  0  0  0  0  0  0  0  0
    0.2680   -1.4733    1.7545 H   0  0  0  0  0  0  0  0  0  0  0  0
   -0.9122    0.6281    2.6244 N   0  0  0  0  0  0  0  0  0  0  0  0
   -1.8460    1.5286    3.2477 C   0  0  2  0  0  0  0  0  0  0  0  0
   -2.3727    0.8600    4.5107 C   0  0  0  0  0  0  0  0  0  0  0  0
   -2.3553   -0.3571    4.6825 O   0  0  0  0  0  0  0  0  0  0  0  0
   -2.9854    1.8838    2.3051 C   0  0  0  0  0  0  0  0  0  0  0  0
   -0.1056    0.3196    3.1648 H   0  0  0  0  0  0  0  0  0  0  0  0
   -1.2844    2.4295    3.5177 H   0  0  0  0  0  0  0  0  0  0  0  0
   -3.5596    0.9936    2.0235 H   0  0  0  0  0  0  0  0  0  0  0  0
   -3.6796    2.5911    2.7707 H   0  0  0  0  0  0  0  0  0  0  0  0
   -2.6026    2.3374    1.3845 H   0  0  0  0  0  0  0  0  0  0  0  0
   -2.9038    1.7789    5.4050 N   0  0  0  0  0  0  0  0  0  0  0  0
   -3.4779    1.3912    6.6723 C   0  0  0  0  0  0  0  0  0  0  0  0
   -2.8588    2.7703    5.1885 H   0  0  0  0  0  0  0  0  0  0  0  0
   -4.5608    1.2388    6.5535 H   0  0  0  0  0  0  0  0  0  0  0  0
   -3.0116    0.4558    7.0151 H   0  0  0  0  0  0  0  0  0  0  0  0
   -3.2984    2.1836    7.4138 H   0  0  0  0  0  0  0  0  0  0  0  0
  1  3  1  0  0  0  0
  1  7  1  0  0  0  0
  1  2  2  0  0  0  0
 18 19  1  0  0  0  0
 19 24  1  0  0  0  0
 19 20  2  0  0  0  0
 25 26  1  0  0  0  0
 26 34  1  0  0  0  0
 26 27  2  0  0  0  0
  8  9  1  0  0  0  0
  9 17  1  0  0  0  0
  9 10  2  0  0  0  0
 25 28  1  0  0  0  0
  8 11  1  0  0  0  0
 34 35  1  0  0  0  0
 17 18  1  0  0  0  0
 24 25  1  0  0  0  0
  7  8  1  0  0  0  0
  3  4  1  0  0  0  0
  3  5  1  0  0  0  0
  3  6  1  0  0  0  0
 28 31  1  0  0  0  0
 28 32  1  0  0  0  0
 28 33  1  0  0  0  0
 11 14  1  0  0  0  0
 11 15  1  0  0  0  0
 11 16  1  0  0  0  0
 35 37  1  0  0  0  0
 35 38  1  0  0  0  0
 35 39  1  0  0  0  0
 18 22  1  0  0  0  0
 18 23  1  0  0  0  0
 25 30  1  0  0  0  0
  8 13  1  0  0  0  0
 34 36  1  0  0  0  0
 17 21  1  0  0  0  0
  7 12  1  0  0  0  0
 24 29  1  0  0  0  0
M  END
$$$$

  -OEChem-05262214473D

 39 38  0     1  0  0  0  0  0999 V2000
   -3.5200   -4.0268   -1.6943 C   0  0  0  0  0  0  0  0  0  0  0  0
   -2.8702   -4.8827   -1.1054 O   0  0  0  0  0  0  0  0  0  0  0  0
   -4.9704   -4.2579   -1.9614 C   0  0  0  0  0  0  0  0  0  0  0  0
   -5.1456   -4.7573   -2.9278 H   0  0  0  0  0  0  0  0  0  0  0  0
   -5.4379   -4.9112   -1.2072 H   0  0  0  0  0  0  0  0  0  0  0  0
   -5.5954   -3.3510   -1.9864 H   0  0  0  0  0  0  0  0  0  0  0  0
   -3.0424   -2.8131   -2.1606 N   0  0  0  0  0  0  0  0  0  0  0  0
   -1.6755   -2.3891   -2.0077 C   0  0  2  0  0  0  0  0  0  0  0  0
   -1.5782   -1.5673   -0.7292 C   0  0  0  0  0  0  0  0  0  0  0  0
   -2.5448   -1.0064   -0.2171 O   0  0  0  0  0  0  0  0  0  0  0  0
   -1.2087   -1.5823   -3.2094 C   0  0  0  0  0  0  0  0  0  0  0  0
   -3.6915   -2.1888   -2.6360 H   0  0  0  0  0  0  0  0  0  0  0  0
   -1.0721   -3.2977   -1.9053 H   0  0  0  0  0  0  0  0  0  0  0  0
   -1.8017   -0.6681   -3.3281 H   0  0  0  0  0  0  0  0  0  0  0  0
   -0.1601   -1.2849   -3.1045 H   0  0  0  0  0  0  0  0  0  0  0  0
   -1.3074   -2.1646   -4.1319 H   0  0  0  0  0  0  0  0  0  0  0  0
   -0.2835   -1.5112   -0.2725 N   0  0  0  0  0  0  0  0  0  0  0  0
    0.0769   -0.7658    0.9424 C   0  0  0  0  0  0  0  0  0  0  0  0
   -1.1573   -0.1318    1.5315 C   0  0  0  0  0  0  0  0  0  0  0  0
   -2.2761   -0.2439    1.0375 O   0  0  0  0  0  0  0  0  0  0  0  0
    0.4587   -2.0097   -0.7289 H   0  0  0  0  0  0  0  0  0  0  0  0
    0.8035    0.0109    0.6862 H   0  0  0  0  0  0  0  0  0  0  0  0
    0.5223   -1.4537    1.6670 H   0  0  0  0  0  0  0  0  0  0  0  0
   -0.8630    0.5859    2.6860 N   0  0  0  0  0  0  0  0  0  0  0  0
   -1.8523    1.2958    3.4532 C   0  0  2  0  0  0  0  0  0  0  0  0
   -1.8281    0.7477    4.8739 C   0  0  0  0  0  0  0  0  0  0  0  0
   -1.3941   -0.3675    5.1553 O   0  0  0  0  0  0  0  0  0  0  0  0
   -3.2362    1.1529    2.8390 C   0  0  0  0  0  0  0  0  0  0  0  0
    0.1040    0.6103    3.0054 H   0  0  0  0  0  0  0  0  0  0  0  0
   -1.5499    2.3487    3.4622 H   0  0  0  0  0  0  0  0  0  0  0  0
   -3.5562    0.1047    2.8214 H   0  0  0  0  0  0  0  0  0  0  0  0
   -3.9828    1.7169    3.4077 H   0  0  0  0  0  0  0  0  0  0  0  0
   -3.2444    1.5203    1.8071 H   0  0  0  0  0  0  0  0  0  0  0  0
   -2.3876    1.6330    5.7845 N   0  0  0  0  0  0  0  0  0  0  0  0
   -2.4930    1.3383    7.1945 C   0  0  0  0  0  0  0  0  0  0  0  0
   -2.7050    2.5437    5.4656 H   0  0  0  0  0  0  0  0  0  0  0  0
   -3.4708    0.8789    7.4015 H   0  0  0  0  0  0  0  0  0  0  0  0
   -1.6922    0.6421    7.4843 H   0  0  0  0  0  0  0  0  0  0  0  0
   -2.3960    2.2696    7.7718 H   0  0  0  0  0  0  0  0  0  0  0  0
  1  3  1  0  0  0  0
  1  7  1  0  0  0  0
  1  2  2  0  0  0  0
 18 19  1  0  0  0  0
 19 24  1  0  0  0  0
 19 20  2  0  0  0  0
 25 26  1  0  0  0  0
 26 34  1  0  0  0  0
 26 27  2  0  0  0  0
  8  9  1  0  0  0  0
  9 17  1  0  0  0  0
  9 10  2  0  0  0  0
 25 28  1  0  0  0  0
  8 11  1  0  0  0  0
 34 35  1  0  0  0  0
 17 18  1  0  0  0  0
 24 25  1  0  0  0  0
  7  8  1  0  0  0  0
  3  4  1  0  0  0  0
  3  5  1  0  0  0  0
  3  6  1  0  0  0  0
 28 31  1  0  0  0  0
 28 32  1  0  0  0  0
 28 33  1  0  0  0  0
 11 14  1  0  0  0  0
 11 15  1  0  0  0  0
 11 16  1  0  0  0  0
 35 37  1  0  0  0  0
 35 38  1  0  0  0  0
 35 39  1  0  0  0  0
 18 22  1  0  0  0  0
 18 23  1  0  0  0  0
 25 30  1  0  0  0  0
  8 13  1  0  0  0  0
 34 36  1  0  0  0  0
 17 21  1  0  0  0  0
  7 12  1  0  0  0  0
 24 29  1  0  0  0  0
M  END
$$$$

  -OEChem-05262214473D

 39 38  0     1  0  0  0  0  0999 V2000
   -3.5200   -4.0268   -1.6943 C   0  0  0  0  0  0  0  0  0  0  0  0
   -2.8702   -4.8827   -1.1054 O   0  0  0  0  0  0  0  0  0  0  0  0
   -4.9704   -4.2579   -1.9614 C   0  0  0  0  0  0  0  0  0  0  0  0
   -5.1456   -4.7573   -2.9278 H   0  0  0  0  0  0  0  0  0  0  0  0
   -5.4379   -4.9112   -1.2072 H   0  0  0  0  0  0  0  0  0  0  0  0
   -5.5954   -3.3510   -1.9864 H   0  0  0  0  0  0  0  0  0  0  0  0
   -3.0424   -2.8131   -2.1606 N   0  0  0  0  0  0  0  0  0  0  0  0
   -1.6755   -2.3891   -2.0077 C   0  0  2  0  0  0  0  0  0  0  0  0
   -1.5782   -1.5673   -0.7292 C   0  0  0  0  0  0  0  0  0  0  0  0
   -2.5448   -1.0064   -0.2171 O   0  0  0  0  0  0  0  0  0  0  0  0
   -1.2087   -1.5823   -3.2094 C   0  0  0  0  0  0  0  0  0  0  0  0
   -3.6915   -2.1888   -2.6360 H   0  0  0  0  0  0  0  0  0  0  0  0
   -1.0721   -3.2977   -1.9053 H   0  0  0  0  0  0  0  0  0  0  0  0
   -1.8017   -0.6681   -3.3281 H   0  0  0  0  0  0  0  0  0  0  0  0
   -0.1601   -1.2849   -3.1045 H   0  0  0  0  0  0  0  0  0  0  0  0
   -1.3074   -2.1646   -4.1319 H   0  0  0  0  0  0  0  0  0  0  0  0
   -0.2835   -1.5112   -0.2725 N   0  0  0  0  0  0  0  0  0  0  0  0
    0.0769   -0.7658    0.9424 C   0  0  0  0  0  0  0  0  0  0  0  0
   -1.1573   -0.1318    1.5315 C   0  0  0  0  0  0  0  0  0  0  0  0
   -2.2993   -0.4483    1.2088 O   0  0  0  0  0  0  0  0  0  0  0  0
    0.4587   -2.0097   -0.7289 H   0  0  0  0  0  0  0  0  0  0  0  0
    0.8035    0.0109    0.6862 H   0  0  0  0  0  0  0  0  0  0  0  0
    0.5223   -1.4537    1.6670 H   0  0  0  0  0  0  0  0  0  0  0  0
   -0.8342    0.8432    2.4693 N   0  0  0  0  0  0  0  0  0  0  0  0
   -1.8174    1.6116    3.1864 C   0  0  2  0  0  0  0  0  0  0  0  0
   -1.5924    1.3900    4.6763 C   0  0  0  0  0  0  0  0  0  0  0  0
   -1.0099    0.4062    5.1277 O   0  0  0  0  0  0  0  0  0  0  0  0
   -3.2298    1.2154    2.7852 C   0  0  0  0  0  0  0  0  0  0  0  0
    0.1504    1.0229    2.6587 H   0  0  0  0  0  0  0  0  0  0  0  0
   -1.6364    2.6639    2.9417 H   0  0  0  0  0  0  0  0  0  0  0  0
   -3.4296    0.1641    3.0227 H   0  0  0  0  0  0  0  0  0  0  0  0
   -3.9760    1.8205    3.3105 H   0  0  0  0  0  0  0  0  0  0  0  0
   -3.3805    1.3473    1.7083 H   0  0  0  0  0  0  0  0  0  0  0  0
   -2.1564    2.3986    5.4450 N   0  0  0  0  0  0  0  0  0  0  0  0
   -2.0893    2.4094    6.8877 C   0  0  0  0  0  0  0  0  0  0  0  0
   -2.6043    3.1860    4.9854 H   0  0  0  0  0  0  0  0  0  0  0  0
   -2.9840    1.9205    7.3006 H   0  0  0  0  0  0  0  0  0  0  0  0
   -1.1905    1.8674    7.2169 H   0  0  0  0  0  0  0  0  0  0  0  0
   -2.0419    3.4488    7.2446 H   0  0  0  0  0  0  0  0  0  0  0  0
  1  3  1  0  0  0  0
  1  7  1  0  0  0  0
  1  2  2  0  0  0  0
 18 19  1  0  0  0  0
 19 24  1  0  0  0  0
 19 20  2  0  0  0  0
 25 26  1  0  0  0  0
 26 34  1  0  0  0  0
 26 27  2  0  0  0  0
  8  9  1  0  0  0  0
  9 17  1  0  0  0  0
  9 10  2  0  0  0  0
 25 28  1  0  0  0  0
  8 11  1  0  0  0  0
 34 35  1  0  0  0  0
 17 18  1  0  0  0  0
 24 25  1  0  0  0  0
  7  8  1  0  0  0  0
  3  4  1  0  0  0  0
  3  5  1  0  0  0  0
  3  6  1  0  0  0  0
 28 31  1  0  0  0  0
 28 32  1  0  0  0  0
 28 33  1  0  0  0  0
 11 14  1  0  0  0  0
 11 15  1  0  0  0  0
 11 16  1  0  0  0  0
 35 37  1  0  0  0  0
 35 38  1  0  0  0  0
 35 39  1  0  0  0  0
 18 22  1  0  0  0  0
 18 23  1  0  0  0  0
 25 30  1  0  0  0  0
  8 13  1  0  0  0  0
 34 36  1  0  0  0  0
 17 21  1  0  0  0  0
  7 12  1  0  0  0  0
 24 29  1  0  0  0  0
M  END
$$$$

  -OEChem-05262214473D

 39 38  0     1  0  0  0  0  0999 V2000
   -3.5200   -4.0268   -1.6943 C   0  0  0  0  0  0  0  0  0  0  0  0
   -2.8702   -4.8827   -1.1054 O   0  0  0  0  0  0  0  0  0  0  0  0
   -4.9704   -4.2579   -1.9614 C   0  0  0  0  0  0  0  0  0  0  0  0
   -5.1456   -4.7573   -2.9278 H   0  0  0  0  0  0  0  0  0  0  0  0
   -5.4379   -4.9112   -1.2072 H   0  0  0  0  0  0  0  0  0  0  0  0
   -5.5954   -3.3510   -1.9864 H   0  0  0  0  0  0  0  0  0  0  0  0
   -3.0424   -2.8131   -2.1606 N   0  0  0  0  0  0  0  0  0  0  0  0
   -1.6755   -2.3891   -2.0077 C   0  0  2  0  0  0  0  0  0  0  0  0
   -1.5782   -1.5673   -0.7292 C   0  0  0  0  0  0  0  0  0  0  0  0
   -2.5448   -1.0064   -0.2171 O   0  0  0  0  0  0  0  0  0  0  0  0
   -1.2087   -1.5823   -3.2094 C   0  0  0  0  0  0  0  0  0  0  0  0
   -3.6915   -2.1888   -2.6360 H   0  0  0  0  0  0  0  0  0  0  0  0
   -1.0721   -3.2977   -1.9053 H   0  0  0  0  0  0  0  0  0  0  0  0
   -1.8017   -0.6681   -3.3281 H   0  0  0  0  0  0  0  0  0  0  0  0
   -0.1601   -1.2849   -3.1045 H   0  0  0  0  0  0  0  0  0  0  0  0
   -1.3074   -2.1646   -4.1319 H   0  0  0  0  0  0  0  0  0  0  0  0
   -0.2835   -1.5112   -0.2725 N   0  0  0  0  0  0  0  0  0  0  0  0
    0.0769   -0.7658    0.9424 C   0  0  0  0  0  0  0  0  0  0  0  0
   -1.1573   -0.1318    1.5315 C   0  0  0  0  0  0  0  0  0  0  0  0
   -2.2823   -0.6117    1.4202 O   0  0  0  0  0  0  0  0  0  0  0  0
    0.4587   -2.0097   -0.7289 H   0  0  0  0  0  0  0  0  0  0  0  0
    0.8035    0.0109    0.6862 H   0  0  0  0  0  0  0  0  0  0  0  0
    0.5223   -1.4537    1.6670 H   0  0  0  0  0  0  0  0  0  0  0  0
   -0.8561    1.0487    2.2024 N   0  0  0  0  0  0  0  0  0  0  0  0
   -1.8447    1.8637    2.8580 C   0  0  2  0  0  0  0  0  0  0  0  0
   -1.4513    1.9925    4.3237 C   0  0  0  0  0  0  0  0  0  0  0  0
   -0.7200    1.1865    4.8952 O   0  0  0  0  0  0  0  0  0  0  0  0
   -3.2358    1.2650    2.7192 C   0  0  0  0  0  0  0  0  0  0  0  0
    0.1158    1.3526    2.2313 H   0  0  0  0  0  0  0  0  0  0  0  0
   -1.8085    2.8494    2.3816 H   0  0  0  0  0  0  0  0  0  0  0  0
   -3.2915    0.2770    3.1907 H   0  0  0  0  0  0  0  0  0  0  0  0
   -3.9905    1.9007    3.1939 H   0  0  0  0  0  0  0  0  0  0  0  0
   -3.5051    1.1454    1.6643 H   0  0  0  0  0  0  0  0  0  0  0  0
   -2.0475    3.0895    4.9296 N   0  0  0  0  0  0  0  0  0  0  0  0
   -1.8410    3.4199    6.3204 C   0  0  0  0  0  0  0  0  0  0  0  0
   -2.6242    3.7148    4.3745 H   0  0  0  0  0  0  0  0  0  0  0  0
   -2.6300    2.9545    6.9294 H   0  0  0  0  0  0  0  0  0  0  0  0
   -0.8589    3.0450    6.6442 H   0  0  0  0  0  0  0  0  0  0  0  0
   -1.8765    4.5120    6.4469 H   0  0  0  0  0  0  0  0  0  0  0  0
  1  3  1  0  0  0  0
  1  7  1  0  0  0  0
  1  2  2  0  0  0  0
 18 19  1  0  0  0  0
 19 24  1  0  0  0  0
 19 20  2  0  0  0  0
 25 26  1  0  0  0  0
 26 34  1  0  0  0  0
 26 27  2  0  0  0  0
  8  9  1  0  0  0  0
  9 17  1  0  0  0  0
  9 10  2  0  0  0  0
 25 28  1  0  0  0  0
  8 11  1  0  0  0  0
 34 35  1  0  0  0  0
 17 18  1  0  0  0  0
 24 25  1  0  0  0  0
  7  8  1  0  0  0  0
  3  4  1  0  0  0  0
  3  5  1  0  0  0  0
  3  6  1  0  0  0  0
 28 31  1  0  0  0  0
 28 32  1  0  0  0  0
 28 33  1  0  0  0  0
 11 14  1  0  0  0  0
 11 15  1  0  0  0  0
 11 16  1  0  0  0  0
 35 37  1  0  0  0  0
 35 38  1  0  0  0  0
 35 39  1  0  0  0  0
 18 22  1  0  0  0  0
 18 23  1  0  0  0  0
 25 30  1  0  0  0  0
  8 13  1  0  0  0  0
 34 36  1  0  0  0  0
 17 21  1  0  0  0  0
  7 12  1  0  0  0  0
 24 29  1  0  0  0  0
M  END
$$$$

  -OEChem-05262214473D

 39 38  0     1  0  0  0  0  0999 V2000
   -3.5200   -4.0268   -1.6943 C   0  0  0  0  0  0  0  0  0  0  0  0
   -2.8702   -4.8827   -1.1054 O   0  0  0  0  0  0  0  0  0  0  0  0
   -4.9704   -4.2579   -1.9614 C   0  0  0  0  0  0  0  0  0  0  0  0
   -5.1456   -4.7573   -2.9278 H   0  0  0  0  0  0  0  0  0  0  0  0
   -5.4379   -4.9112   -1.2072 H   0  0  0  0  0  0  0  0  0  0  0  0
   -5.5954   -3.3510   -1.9864 H   0  0  0  0  0  0  0  0  0  0  0  0
   -3.0424   -2.8131   -2.1606 N   0  0  0  0  0  0  0  0  0  0  0  0
   -1.6755   -2.3891   -2.0077 C   0  0  2  0  0  0  0  0  0  0  0  0
   -1.5782   -1.5673   -0.7292 C   0  0  0  0  0  0  0  0  0  0  0  0
   -2.5448   -1.0064   -0.2171 O   0  0  0  0  0  0  0  0  0  0  0  0
   -1.2087   -1.5823   -3.2094 C   0  0  0  0  0  0  0  0  0  0  0  0
   -3.6915   -2.1888   -2.6360 H   0  0  0  0  0  0  0  0  0  0  0  0
   -1.0721   -3.2977   -1.9053 H   0  0  0  0  0  0  0  0  0  0  0  0
   -1.8017   -0.6681   -3.3281 H   0  0  0  0  0  0  0  0  0  0  0  0
   -0.1601   -1.2849   -3.1045 H   0  0  0  0  0  0  0  0  0  0  0  0
   -1.3074   -2.1646   -4.1319 H   0  0  0  0  0  0  0  0  0  0  0  0
   -0.2835   -1.5112   -0.2725 N   0  0  0  0  0  0  0  0  0  0  0  0
    0.0769   -0.7658    0.9424 C   0  0  0  0  0  0  0  0  0  0  0  0
   -1.1573   -0.1318    1.5315 C   0  0  0  0  0  0  0  0  0  0  0  0
   -2.2264   -0.7230    1.6572 O   0  0  0  0  0  0  0  0  0  0  0  0
    0.4587   -2.0097   -0.7289 H   0  0  0  0  0  0  0  0  0  0  0  0
    0.8035    0.0109    0.6862 H   0  0  0  0  0  0  0  0  0  0  0  0
    0.5223   -1.4537    1.6670 H   0  0  0  0  0  0  0  0  0  0  0  0
   -0.9270    1.1885    1.9034 N   0  0  0  0  0  0  0  0  0  0  0  0
   -1.9323    2.0348    2.4904 C   0  0  2  0  0  0  0  0  0  0  0  0
   -1.4143    2.5139    3.8400 C   0  0  0  0  0  0  0  0  0  0  0  0
   -0.5442    1.9202    4.4738 O   0  0  0  0  0  0  0  0  0  0  0  0
   -3.2538    1.2983    2.6457 C   0  0  0  0  0  0  0  0  0  0  0  0
    0.0025    1.5770    1.7524 H   0  0  0  0  0  0  0  0  0  0  0  0
   -2.0544    2.8925    1.8199 H   0  0  0  0  0  0  0  0  0  0  0  0
   -3.1511    0.4356    3.3140 H   0  0  0  0  0  0  0  0  0  0  0  0
   -4.0253    1.9519    3.0659 H   0  0  0  0  0  0  0  0  0  0  0  0
   -3.6099    0.9286    1.6781 H   0  0  0  0  0  0  0  0  0  0  0  0
   -2.0683    3.6587    4.2735 N   0  0  0  0  0  0  0  0  0  0  0  0
   -1.7652    4.3007    5.5313 C   0  0  0  0  0  0  0  0  0  0  0  0
   -2.7635    4.0942    3.6745 H   0  0  0  0  0  0  0  0  0  0  0  0
   -2.4331    3.9103    6.3132 H   0  0  0  0  0  0  0  0  0  0  0  0
   -0.7200    4.0946    5.8055 H   0  0  0  0  0  0  0  0  0  0  0  0
   -1.9112    5.3866    5.4330 H   0  0  0  0  0  0  0  0  0  0  0  0
  1  3  1  0  0  0  0
  1  7  1  0  0  0  0
  1  2  2  0  0  0  0
 18 19  1  0  0  0  0
 19 24  1  0  0  0  0
 19 20  2  0  0  0  0
 25 26  1  0  0  0  0
 26 34  1  0  0  0  0
 26 27  2  0  0  0  0
  8  9  1  0  0  0  0
  9 17  1  0  0  0  0
  9 10  2  0  0  0  0
 25 28  1  0  0  0  0
  8 11  1  0  0  0  0
 34 35  1  0  0  0  0
 17 18  1  0  0  0  0
 24 25  1  0  0  0  0
  7  8  1  0  0  0  0
  3  4  1  0  0  0  0
  3  5  1  0  0  0  0
  3  6  1  0  0  0  0
 28 31  1  0  0  0  0
 28 32  1  0  0  0  0
 28 33  1  0  0  0  0
 11 14  1  0  0  0  0
 11 15  1  0  0  0  0
 11 16  1  0  0  0  0
 35 37  1  0  0  0  0
 35 38  1  0  0  0  0
 35 39  1  0  0  0  0
 18 22  1  0  0  0  0
 18 23  1  0  0  0  0
 25 30  1  0  0  0  0
  8 13  1  0  0  0  0
 34 36  1  0  0  0  0
 17 21  1  0  0  0  0
  7 12  1  0  0  0  0
 24 29  1  0  0  0  0
M  END
$$$$

  -OEChem-05262214473D

 39 38  0     1  0  0  0  0  0999 V2000
   -3.5200   -4.0268   -1.6943 C   0  0  0  0  0  0  0  0  0  0  0  0
   -2.8702   -4.8827   -1.1054 O   0  0  0  0  0  0  0  0  0  0  0  0
   -4.9704   -4.2579   -1.9614 C   0  0  0  0  0  0  0  0  0  0  0  0
   -5.1456   -4.7573   -2.9278 H   0  0  0  0  0  0  0  0  0  0  0  0
   -5.4379   -4.9112   -1.2072 H   0  0  0  0  0  0  0  0  0  0  0  0
   -5.5954   -3.3510   -1.9864 H   0  0  0  0  0  0  0  0  0  0  0  0
   -3.0424   -2.8131   -2.1606 N   0  0  0  0  0  0  0  0  0  0  0  0
   -1.6755   -2.3891   -2.0077 C   0  0  2  0  0  0  0  0  0  0  0  0
   -1.5782   -1.5673   -0.7292 C   0  0  0  0  0  0  0  0  0  0  0  0
   -2.5448   -1.0064   -0.2171 O   0  0  0  0  0  0  0  0  0  0  0  0
   -1.2087   -1.5823   -3.2094 C   0  0  0  0  0  0  0  0  0  0  0  0
   -3.6915   -2.1888   -2.6360 H   0  0  0  0  0  0  0  0  0  0  0  0
   -1.0721   -3.2977   -1.9053 H   0  0  0  0  0  0  0  0  0  0  0  0
   -1.8017   -0.6681   -3.3281 H   0  0  0  0  0  0  0  0  0  0  0  0
   -0.1601   -1.2849   -3.1045 H   0  0  0  0  0  0  0  0  0  0  0  0
   -1.3074   -2.1646   -4.1319 H   0  0  0  0  0  0  0  0  0  0  0  0
   -0.2835   -1.5112   -0.2725 N   0  0  0  0  0  0  0  0  0  0  0  0
    0.0769   -0.7658    0.9424 C   0  0  0  0  0  0  0  0  0  0  0  0
   -1.1573   -0.1318    1.5315 C   0  0  0  0  0  0  0  0  0  0  0  0
   -2.1354   -0.7747    1.9036 O   0  0  0  0  0  0  0  0  0  0  0  0
    0.4587   -2.0097   -0.7289 H   0  0  0  0  0  0  0  0  0  0  0  0
    0.8035    0.0109    0.6862 H   0  0  0  0  0  0  0  0  0  0  0  0
    0.5223   -1.4537    1.6670 H   0  0  0  0  0  0  0  0  0  0  0  0
   -1.0422    1.2529    1.5927 N   0  0  0  0  0  0  0  0  0  0  0  0
   -2.0743    2.1133    2.1085 C   0  0  2  0  0  0  0  0  0  0  0  0
   -1.4839    2.9189    3.2583 C   0  0  0  0  0  0  0  0  0  0  0  0
   -0.4946    2.5575    3.8920 O   0  0  0  0  0  0  0  0  0  0  0  0
   -3.2825    1.3131    2.5695 C   0  0  0  0  0  0  0  0  0  0  0  0
   -0.1818    1.6808    1.2546 H   0  0  0  0  0  0  0  0  0  0  0  0
   -2.3575    2.7902    1.2951 H   0  0  0  0  0  0  0  0  0  0  0  0
   -3.0182    0.6291    3.3843 H   0  0  0  0  0  0  0  0  0  0  0  0
   -4.0780    1.9708    2.9351 H   0  0  0  0  0  0  0  0  0  0  0  0
   -3.6877    0.7114    1.7488 H   0  0  0  0  0  0  0  0  0  0  0  0
   -2.2173    4.0673    3.5214 N   0  0  0  0  0  0  0  0  0  0  0  0
   -1.8669    4.9921    4.5741 C   0  0  0  0  0  0  0  0  0  0  0  0
   -3.0126    4.2981    2.9331 H   0  0  0  0  0  0  0  0  0  0  0  0
   -2.4067    4.7230    5.4940 H   0  0  0  0  0  0  0  0  0  0  0  0
   -0.7834    4.9448    4.7578 H   0  0  0  0  0  0  0  0  0  0  0  0
   -2.1435    6.0130    4.2722 H   0  0  0  0  0  0  0  0  0  0  0  0
  1  3  1  0  0  0  0
  1  7  1  0  0  0  0
  1  2  2  0  0  0  0
 18 19  1  0  0  0  0
 19 24  1  0  0  0  0
 19 20  2  0  0  0  0
 25 26  1  0  0  0  0
 26 34  1  0  0  0  0
 26 27  2  0  0  0  0
  8  9  1  0  0  0  0
  9 17  1  0  0  0  0
  9 10  2  0  0  0  0
 25 28  1  0  0  0  0
  8 11  1  0  0  0  0
 34 35  1  0  0  0  0
 17 18  1  0  0  0  0
 24 25  1  0  0  0  0
  7  8  1  0  0  0  0
  3  4  1  0  0  0  0
  3  5  1  0  0  0  0
  3  6  1  0  0  0  0
 28 31  1  0  0  0  0
 28 32  1  0  0  0  0
 28 33  1  0  0  0  0
 11 14  1  0  0  0  0
 11 15  1  0  0  0  0
 11 16  1  0  0  0  0
 35 37  1  0  0  0  0
 35 38  1  0  0  0  0
 35 39  1  0  0  0  0
 18 22  1  0  0  0  0
 18 23  1  0  0  0  0
 25 30  1  0  0  0  0
  8 13  1  0  0  0  0
 34 36  1  0  0  0  0
 17 21  1  0  0  0  0
  7 12  1  0  0  0  0
 24 29  1  0  0  0  0
M  END
$$$$

  -OEChem-05262214473D

 39 38  0     1  0  0  0  0  0999 V2000
   -3.5200   -4.0268   -1.6943 C   0  0  0  0  0  0  0  0  0  0  0  0
   -2.8702   -4.8827   -1.1054 O   0  0  0  0  0  0  0  0  0  0  0  0
   -4.9704   -4.2579   -1.9614 C   0  0  0  0  0  0  0  0  0  0  0  0
   -5.1456   -4.7573   -2.9278 H   0  0  0  0  0  0  0  0  0  0  0  0
   -5.4379   -4.9112   -1.2072 H   0  0  0  0  0  0  0  0  0  0  0  0
   -5.5954   -3.3510   -1.9864 H   0  0  0  0  0  0  0  0  0  0  0  0
   -3.0424   -2.8131   -2.1606 N   0  0  0  0  0  0  0  0  0  0  0  0
   -1.6755   -2.3891   -2.0077 C   0  0  2  0  0  0  0  0  0  0  0  0
   -1.5782   -1.5673   -0.7292 C   0  0  0  0  0  0  0  0  0  0  0  0
   -2.5448   -1.0064   -0.2171 O   0  0  0  0  0  0  0  0  0  0  0  0
   -1.2087   -1.5823   -3.2094 C   0  0  0  0  0  0  0  0  0  0  0  0
   -3.6915   -2.1888   -2.6360 H   0  0  0  0  0  0  0  0  0  0  0  0
   -1.0721   -3.2977   -1.9053 H   0  0  0  0  0  0  0  0  0  0  0  0
   -1.8017   -0.6681   -3.3281 H   0  0  0  0  0  0  0  0  0  0  0  0
   -0.1601   -1.2849   -3.1045 H   0  0  0  0  0  0  0  0  0  0  0  0
   -1.3074   -2.1646   -4.1319 H   0  0  0  0  0  0  0  0  0  0  0  0
   -0.2835   -1.5112   -0.2725 N   0  0  0  0  0  0  0  0  0  0  0  0
    0.0769   -0.7658    0.9424 C   0  0  0  0  0  0  0  0  0  0  0  0
   -1.1573   -0.1318    1.5315 C   0  0  0  0  0  0  0  0  0  0  0  0
   -2.0154   -0.7632    2.1426 O   0  0  0  0  0  0  0  0  0  0  0  0
    0.4587   -2.0097   -0.7289 H   0  0  0  0  0  0  0  0  0  0  0  0
    0.8035    0.0109    0.6862 H   0  0  0  0  0  0  0  0  0  0  0  0
    0.5223   -1.4537    1.6670 H   0  0  0  0  0  0  0  0  0  0  0  0
   -1.1938    1.2377    1.2915 N   0  0  0  0  0  0  0  0  0  0  0  0
   -2.2609    2.0938    1.7385 C   0  0  2  0  0  0  0  0  0  0  0  0
   -1.6555    3.1797    2.6181 C   0  0  0  0  0  0  0  0  0  0  0  0
   -0.5744    3.0548    3.1897 O   0  0  0  0  0  0  0  0  0  0  0  0
   -3.3201    1.3083    2.4960 C   0  0  0  0  0  0  0  0  0  0  0  0
   -0.4245    1.6570    0.7718 H   0  0  0  0  0  0  0  0  0  0  0  0
   -2.6970    2.5495    0.8428 H   0  0  0  0  0  0  0  0  0  0  0  0
   -2.9017    0.8444    3.3967 H   0  0  0  0  0  0  0  0  0  0  0  0
   -4.1450    1.9560    2.8106 H   0  0  0  0  0  0  0  0  0  0  0  0
   -3.7332    0.5088    1.8716 H   0  0  0  0  0  0  0  0  0  0  0  0
   -2.4845    4.2876    2.7246 N   0  0  0  0  0  0  0  0  0  0  0  0
   -2.1393    5.4467    3.5141 C   0  0  0  0  0  0  0  0  0  0  0  0
   -3.3545    4.3129    2.2009 H   0  0  0  0  0  0  0  0  0  0  0  0
   -2.5526    5.3370    4.5276 H   0  0  0  0  0  0  0  0  0  0  0  0
   -1.0446    5.5377    3.5725 H   0  0  0  0  0  0  0  0  0  0  0  0
   -2.5576    6.3486    3.0434 H   0  0  0  0  0  0  0  0  0  0  0  0
  1  3  1  0  0  0  0
  1  7  1  0  0  0  0
  1  2  2  0  0  0  0
 18 19  1  0  0  0  0
 19 24  1  0  0  0  0
 19 20  2  0  0  0  0
 25 26  1  0  0  0  0
 26 34  1  0  0  0  0
 26 27  2  0  0  0  0
  8  9  1  0  0  0  0
  9 17  1  0  0  0  0
  9 10  2  0  0  0  0
 25 28  1  0  0  0  0
  8 11  1  0  0  0  0
 34 35  1  0  0  0  0
 17 18  1  0  0  0  0
 24 25  1  0  0  0  0
  7  8  1  0  0  0  0
  3  4  1  0  0  0  0
  3  5  1  0  0  0  0
  3  6  1  0  0  0  0
 28 31  1  0  0  0  0
 28 32  1  0  0  0  0
 28 33  1  0  0  0  0
 11 14  1  0  0  0  0
 11 15  1  0  0  0  0
 11 16  1  0  0  0  0
 35 37  1  0  0  0  0
 35 38  1  0  0  0  0
 35 39  1  0  0  0  0
 18 22  1  0  0  0  0
 18 23  1  0  0  0  0
 25 30  1  0  0  0  0
  8 13  1  0  0  0  0
 34 36  1  0  0  0  0
 17 21  1  0  0  0  0
  7 12  1  0  0  0  0
 24 29  1  0  0  0  0
M  END
$$$$

  -OEChem-05262214473D

 39 38  0     1  0  0  0  0  0999 V2000
   -3.5200   -4.0268   -1.6943 C   0  0  0  0  0  0  0  0  0  0  0  0
   -2.8702   -4.8827   -1.1054 O   0  0  0  0  0  0  0  0  0  0  0  0
   -4.9704   -4.2579   -1.9614 C   0  0  0  0  0  0  0  0  0  0  0  0
   -5.1456   -4.7573   -2.9278 H   0  0  0  0  0  0  0  0  0  0  0  0
   -5.4379   -4.9112   -1.2072 H   0  0  0  0  0  0  0  0  0  0  0  0
   -5.5954   -3.3510   -1.9864 H   0  0  0  0  0  0  0  0  0  0  0  0
   -3.0424   -2.8131   -2.1606 N   0  0  0  0  0  0  0  0  0  0  0  0
   -1.6755   -2.3891   -2.0077 C   0  0  2  0  0  0  0  0  0  0  0  0
   -1.5782   -1.5673   -0.7292 C   0  0  0  0  0  0  0  0  0  0  0  0
   -2.5448   -1.0064   -0.2171 O   0  0  0  0  0  0  0  0  0  0  0  0
   -1.2087   -1.5823   -3.2094 C   0  0  0  0  0  0  0  0  0  0  0  0
   -3.6915   -2.1888   -2.6360 H   0  0  0  0  0  0  0  0  0  0  0  0
   -1.0721   -3.2977   -1.9053 H   0  0  0  0  0  0  0  0  0  0  0  0
   -1.8017   -0.6681   -3.3281 H   0  0  0  0  0  0  0  0  0  0  0  0
   -0.1601   -1.2849   -3.1045 H   0  0  0  0  0  0  0  0  0  0  0  0
   -1.3074   -2.1646   -4.1319 H   0  0  0  0  0  0  0  0  0  0  0  0
   -0.2835   -1.5112   -0.2725 N   0  0  0  0  0  0  0  0  0  0  0  0
    0.0769   -0.7658    0.9424 C   0  0  0  0  0  0  0  0  0  0  0  0
   -1.1573   -0.1318    1.5315 C   0  0  0  0  0  0  0  0  0  0  0  0
   -1.8746   -0.6893    2.3580 O   0  0  0  0  0  0  0  0  0  0  0  0
    0.4587   -2.0097   -0.7289 H   0  0  0  0  0  0  0  0  0  0  0  0
    0.8035    0.0109    0.6862 H   0  0  0  0  0  0  0  0  0  0  0  0
    0.5223   -1.4537    1.6670 H   0  0  0  0  0  0  0  0  0  0  0  0
   -1.3715    1.1438    1.0202 N   0  0  0  0  0  0  0  0  0  0  0  0
   -2.4794    1.9777    1.4055 C   0  0  2  0  0  0  0  0  0  0  0  0
   -1.9172    3.2786    1.9632 C   0  0  0  0  0  0  0  0  0  0  0  0
   -0.7782    3.3782    2.4146 O   0  0  0  0  0  0  0  0  0  0  0  0
   -3.3639    1.2843    2.4300 C   0  0  0  0  0  0  0  0  0  0  0  0
   -0.7091    1.5071    0.3369 H   0  0  0  0  0  0  0  0  0  0  0  0
   -3.0498    2.1868    0.4939 H   0  0  0  0  0  0  0  0  0  0  0  0
   -2.8096    1.0668    3.3503 H   0  0  0  0  0  0  0  0  0  0  0  0
   -4.2219    1.9085    2.7007 H   0  0  0  0  0  0  0  0  0  0  0  0
   -3.7433    0.3345    2.0381 H   0  0  0  0  0  0  0  0  0  0  0  0
   -2.8516    4.3045    1.9373 N   0  0  0  0  0  0  0  0  0  0  0  0
   -2.5638    5.6337    2.4236 C   0  0  0  0  0  0  0  0  0  0  0  0
   -3.7660    4.1374    1.5277 H   0  0  0  0  0  0  0  0  0  0  0  0
   -2.8607    5.7105    3.4799 H   0  0  0  0  0  0  0  0  0  0  0  0
   -1.4860    5.8327    2.3304 H   0  0  0  0  0  0  0  0  0  0  0  0
   -3.1253    6.3705    1.8305 H   0  0  0  0  0  0  0  0  0  0  0  0
  1  3  1  0  0  0  0
  1  7  1  0  0  0  0
  1  2  2  0  0  0  0
 18 19  1  0  0  0  0
 19 24  1  0  0  0  0
 19 20  2  0  0  0  0
 25 26  1  0  0  0  0
 26 34  1  0  0  0  0
 26 27  2  0  0  0  0
  8  9  1  0  0  0  0
  9 17  1  0  0  0  0
  9 10  2  0  0  0  0
 25 28  1  0  0  0  0
  8 11  1  0  0  0  0
 34 35  1  0  0  0  0
 17 18  1  0  0  0  0
 24 25  1  0  0  0  0
  7  8  1  0  0  0  0
  3  4  1  0  0  0  0
  3  5  1  0  0  0  0
  3  6  1  0  0  0  0
 28 31  1  0  0  0  0
 28 32  1  0  0  0  0
 28 33  1  0  0  0  0
 11 14  1  0  0  0  0
 11 15  1  0  0  0  0
 11 16  1  0  0  0  0
 35 37  1  0  0  0  0
 35 38  1  0  0  0  0
 35 39  1  0  0  0  0
 18 22  1  0  0  0  0
 18 23  1  0  0  0  0
 25 30  1  0  0  0  0
  8 13  1  0  0  0  0
 34 36  1  0  0  0  0
 17 21  1  0  0  0  0
  7 12  1  0  0  0  0
 24 29  1  0  0  0  0
M  END
$$$$

  -OEChem-05262214473D

 39 38  0     1  0  0  0  0  0999 V2000
   -3.5200   -4.0268   -1.6943 C   0  0  0  0  0  0  0  0  0  0  0  0
   -2.8702   -4.8827   -1.1054 O   0  0  0  0  0  0  0  0  0  0  0  0
   -4.9704   -4.2579   -1.9614 C   0  0  0  0  0  0  0  0  0  0  0  0
   -5.1456   -4.7573   -2.9278 H   0  0  0  0  0  0  0  0  0  0  0  0
   -5.4379   -4.9112   -1.2072 H   0  0  0  0  0  0  0  0  0  0  0  0
   -5.5954   -3.3510   -1.9864 H   0  0  0  0  0  0  0  0  0  0  0  0
   -3.0424   -2.8131   -2.1606 N   0  0  0  0  0  0  0  0  0  0  0  0
   -1.6755   -2.3891   -2.0077 C   0  0  2  0  0  0  0  0  0  0  0  0
   -1.5782   -1.5673   -0.7292 C   0  0  0  0  0  0  0  0  0  0  0  0
   -2.5448   -1.0064   -0.2171 O   0  0  0  0  0  0  0  0  0  0  0  0
   -1.2087   -1.5823   -3.2094 C   0  0  0  0  0  0  0  0  0  0  0  0
   -3.6915   -2.1888   -2.6360 H   0  0  0  0  0  0  0  0  0  0  0  0
   -1.0721   -3.2977   -1.9053 H   0  0  0  0  0  0  0  0  0  0  0  0
   -1.8017   -0.6681   -3.3281 H   0  0  0  0  0  0  0  0  0  0  0  0
   -0.1601   -1.2849   -3.1045 H   0  0  0  0  0  0  0  0  0  0  0  0
   -1.3074   -2.1646   -4.1319 H   0  0  0  0  0  0  0  0  0  0  0  0
   -0.2835   -1.5112   -0.2725 N   0  0  0  0  0  0  0  0  0  0  0  0
    0.0769   -0.7658    0.9424 C   0  0  0  0  0  0  0  0  0  0  0  0
   -1.1573   -0.1318    1.5315 C   0  0  0  0  0  0  0  0  0  0  0  0
   -1.7227   -0.5580    2.5351 O   0  0  0  0  0  0  0  0  0  0  0  0
    0.4587   -2.0097   -0.7289 H   0  0  0  0  0  0  0  0  0  0  0  0
    0.8035    0.0109    0.6862 H   0  0  0  0  0  0  0  0  0  0  0  0
    0.5223   -1.4537    1.6670 H   0  0  0  0  0  0  0  0  0  0  0  0
   -1.5631    0.9777    0.7975 N   0  0  0  0  0  0  0  0  0  0  0  0
   -2.7150    1.7729    1.1322 C   0  0  2  0  0  0  0  0  0  0  0  0
   -2.2514    3.2089    1.3382 C   0  0  0  0  0  0  0  0  0  0  0  0
   -1.0922    3.5057    1.6195 O   0  0  0  0  0  0  0  0  0  0  0  0
   -3.4109    1.2428    2.3762 C   0  0  0  0  0  0  0  0  0  0  0  0
   -1.0161    1.2413   -0.0204 H   0  0  0  0  0  0  0  0  0  0  0  0
   -3.3920    1.7269    0.2722 H   0  0  0  0  0  0  0  0  0  0  0  0
   -2.7482    1.2810    3.2484 H   0  0  0  0  0  0  0  0  0  0  0  0
   -4.3032    1.8316    2.6130 H   0  0  0  0  0  0  0  0  0  0  0  0
   -3.7172    0.2004    2.2370 H   0  0  0  0  0  0  0  0  0  0  0  0
   -3.2936    4.1169    1.2133 N   0  0  0  0  0  0  0  0  0  0  0  0
   -3.1114    5.5403    1.3768 C   0  0  0  0  0  0  0  0  0  0  0  0
   -4.2190    3.7836    0.9595 H   0  0  0  0  0  0  0  0  0  0  0  0
   -3.3102    5.8182    2.4224 H   0  0  0  0  0  0  0  0  0  0  0  0
   -2.0773    5.8098    1.1162 H   0  0  0  0  0  0  0  0  0  0  0  0
   -3.8079    6.0772    0.7160 H   0  0  0  0  0  0  0  0  0  0  0  0
  1  3  1  0  0  0  0
  1  7  1  0  0  0  0
  1  2  2  0  0  0  0
 18 19  1  0  0  0  0
 19 24  1  0  0  0  0
 19 20  2  0  0  0  0
 25 26  1  0  0  0  0
 26 34  1  0  0  0  0
 26 27  2  0  0  0  0
  8  9  1  0  0  0  0
  9 17  1  0  0  0  0
  9 10  2  0  0  0  0
 25 28  1  0  0  0  0
  8 11  1  0  0  0  0
 34 35  1  0  0  0  0
 17 18  1  0  0  0  0
 24 25  1  0  0  0  0
  7  8  1  0  0  0  0
  3  4  1  0  0  0  0
  3  5  1  0  0  0  0
  3  6  1  0  0  0  0
 28 31  1  0  0  0  0
 28 32  1  0  0  0  0
 28 33  1  0  0  0  0
 11 14  1  0  0  0  0
 11 15  1  0  0  0  0
 11 16  1  0  0  0  0
 35 37  1  0  0  0  0
 35 38  1  0  0  0  0
 35 39  1  0  0  0  0
 18 22  1  0  0  0  0
 18 23  1  0  0  0  0
 25 30  1  0  0  0  0
  8 13  1  0  0  0  0
 34 36  1  0  0  0  0
 17 21  1  0  0  0  0
  7 12  1  0  0  0  0
 24 29  1  0  0  0  0
M  END
$$$$

  -OEChem-05262214473D

 39 38  0     1  0  0  0  0  0999 V2000
   -3.5200   -4.0268   -1.6943 C   0  0  0  0  0  0  0  0  0  0  0  0
   -2.8702   -4.8827   -1.1054 O   0  0  0  0  0  0  0  0  0  0  0  0
   -4.9704   -4.2579   -1.9614 C   0  0  0  0  0  0  0  0  0  0  0  0
   -5.1456   -4.7573   -2.9278 H   0  0  0  0  0  0  0  0  0  0  0  0
   -5.4379   -4.9112   -1.2072 H   0  0  0  0  0  0  0  0  0  0  0  0
   -5.5954   -3.3510   -1.9864 H   0  0  0  0  0  0  0  0  0  0  0  0
   -3.0424   -2.8131   -2.1606 N   0  0  0  0  0  0  0  0  0  0  0  0
   -1.6755   -2.3891   -2.0077 C   0  0  2  0  0  0  0  0  0  0  0  0
   -1.5782   -1.5673   -0.7292 C   0  0  0  0  0  0  0  0  0  0  0  0
   -2.5448   -1.0064   -0.2171 O   0  0  0  0  0  0  0  0  0  0  0  0
   -1.2087   -1.5823   -3.2094 C   0  0  0  0  0  0  0  0  0  0  0  0
   -3.6915   -2.1888   -2.6360 H   0  0  0  0  0  0  0  0  0  0  0  0
   -1.0721   -3.2977   -1.9053 H   0  0  0  0  0  0  0  0  0  0  0  0
   -1.8017   -0.6681   -3.3281 H   0  0  0  0  0  0  0  0  0  0  0  0
   -0.1601   -1.2849   -3.1045 H   0  0  0  0  0  0  0  0  0  0  0  0
   -1.3074   -2.1646   -4.1319 H   0  0  0  0  0  0  0  0  0  0  0  0
   -0.2835   -1.5112   -0.2725 N   0  0  0  0  0  0  0  0  0  0  0  0
    0.0769   -0.7658    0.9424 C   0  0  0  0  0  0  0  0  0  0  0  0
   -1.1573   -0.1318    1.5315 C   0  0  0  0  0  0  0  0  0  0  0  0
   -1.5699   -0.3784    2.6617 O   0  0  0  0  0  0  0  0  0  0  0  0
    0.4587   -2.0097   -0.7289 H   0  0  0  0  0  0  0  0  0  0  0  0
    0.8035    0.0109    0.6862 H   0  0  0  0  0  0  0  0  0  0  0  0
    0.5223   -1.4537    1.6670 H   0  0  0  0  0  0  0  0  0  0  0  0
   -1.7557    0.7506    0.6384 N   0  0  0  0  0  0  0  0  0  0  0  0
   -2.9517    1.4934    0.9374 C   0  0  2  0  0  0  0  0  0  0  0  0
   -2.6352    2.9754    0.7855 C   0  0  0  0  0  0  0  0  0  0  0  0
   -1.4949    3.4287    0.8587 O   0  0  0  0  0  0  0  0  0  0  0  0
   -3.4580    1.1864    2.3381 C   0  0  0  0  0  0  0  0  0  0  0  0
   -1.3247    0.8779   -0.2758 H   0  0  0  0  0  0  0  0  0  0  0  0
   -3.7000    1.2010    0.1927 H   0  0  0  0  0  0  0  0  0  0  0  0
   -2.7216    1.4726    3.0979 H   0  0  0  0  0  0  0  0  0  0  0  0
   -4.3836    1.7305    2.5535 H   0  0  0  0  0  0  0  0  0  0  0  0
   -3.6569    0.1156    2.4547 H   0  0  0  0  0  0  0  0  0  0  0  0
   -3.7804    3.7375    0.6017 N   0  0  0  0  0  0  0  0  0  0  0  0
   -3.7449    5.1728    0.4450 C   0  0  0  0  0  0  0  0  0  0  0  0
   -4.6826    3.2756    0.5349 H   0  0  0  0  0  0  0  0  0  0  0  0
   -3.8704    5.6526    1.4269 H   0  0  0  0  0  0  0  0  0  0  0  0
   -2.7783    5.4705    0.0125 H   0  0  0  0  0  0  0  0  0  0  0  0
   -4.5589    5.4887   -0.2240 H   0  0  0  0  0  0  0  0  0  0  0  0
  1  3  1  0  0  0  0
  1  7  1  0  0  0  0
  1  2  2  0  0  0  0
 18 19  1  0  0  0  0
 19 24  1  0  0  0  0
 19 20  2  0  0  0  0
 25 26  1  0  0  0  0
 26 34  1  0  0  0  0
 26 27  2  0  0  0  0
  8  9  1  0  0  0  0
  9 17  1  0  0  0  0
  9 10  2  0  0  0  0
 25 28  1  0  0  0  0
  8 11  1  0  0  0  0
 34 35  1  0  0  0  0
 17 18  1  0  0  0  0
 24 25  1  0  0  0  0
  7  8  1  0  0  0  0
  3  4  1  0  0  0  0
  3  5  1  0  0  0  0
  3  6  1  0  0  0  0
 28 31  1  0  0  0  0
 28 32  1  0  0  0  0
 28 33  1  0  0  0  0
 11 14  1  0  0  0  0
 11 15  1  0  0  0  0
 11 16  1  0  0  0  0
 35 37  1  0  0  0  0
 35 38  1  0  0  0  0
 35 39  1  0  0  0  0
 18 22  1  0  0  0  0
 18 23  1  0  0  0  0
 25 30  1  0  0  0  0
  8 13  1  0  0  0  0
 34 36  1  0  0  0  0
 17 21  1  0  0  0  0
  7 12  1  0  0  0  0
 24 29  1  0  0  0  0
M  END
$$$$

  -OEChem-05262214473D

 39 38  0     1  0  0  0  0  0999 V2000
   -3.5200   -4.0268   -1.6943 C   0  0  0  0  0  0  0  0  0  0  0  0
   -2.8702   -4.8827   -1.1054 O   0  0  0  0  0  0  0  0  0  0  0  0
   -4.9704   -4.2579   -1.9614 C   0  0  0  0  0  0  0  0  0  0  0  0
   -5.1456   -4.7573   -2.9278 H   0  0  0  0  0  0  0  0  0  0  0  0
   -5.4379   -4.9112   -1.2072 H   0  0  0  0  0  0  0  0  0  0  0  0
   -5.5954   -3.3510   -1.9864 H   0  0  0  0  0  0  0  0  0  0  0  0
   -3.0424   -2.8131   -2.1606 N   0  0  0  0  0  0  0  0  0  0  0  0
   -1.6755   -2.3891   -2.0077 C   0  0  2  0  0  0  0  0  0  0  0  0
   -1.5782   -1.5673   -0.7292 C   0  0  0  0  0  0  0  0  0  0  0  0
   -2.5448   -1.0064   -0.2171 O   0  0  0  0  0  0  0  0  0  0  0  0
   -1.2087   -1.5823   -3.2094 C   0  0  0  0  0  0  0  0  0  0  0  0
   -3.6915   -2.1888   -2.6360 H   0  0  0  0  0  0  0  0  0  0  0  0
   -1.0721   -3.2977   -1.9053 H   0  0  0  0  0  0  0  0  0  0  0  0
   -1.8017   -0.6681   -3.3281 H   0  0  0  0  0  0  0  0  0  0  0  0
   -0.1601   -1.2849   -3.1045 H   0  0  0  0  0  0  0  0  0  0  0  0
   -1.3074   -2.1646   -4.1319 H   0  0  0  0  0  0  0  0  0  0  0  0
   -0.2835   -1.5112   -0.2725 N   0  0  0  0  0  0  0  0  0  0  0  0
    0.0769   -0.7658    0.9424 C   0  0  0  0  0  0  0  0  0  0  0  0
   -1.1573   -0.1318    1.5315 C   0  0  0  0  0  0  0  0  0  0  0  0
   -1.4267   -0.1625    2.7294 O   0  0  0  0  0  0  0  0  0  0  0  0
    0.4587   -2.0097   -0.7289 H   0  0  0  0  0  0  0  0  0  0  0  0
    0.8035    0.0109    0.6862 H   0  0  0  0  0  0  0  0  0  0  0  0
    0.5223   -1.4537    1.6670 H   0  0  0  0  0  0  0  0  0  0  0  0
   -1.9361    0.4781    0.5538 N   0  0  0  0  0  0  0  0  0  0  0  0
   -3.1732    1.1581    0.8341 C   0  0  2  0  0  0  0  0  0  0  0  0
   -3.0424    2.5938    0.3430 C   0  0  0  0  0  0  0  0  0  0  0  0
   -1.9589    3.1523    0.1840 O   0  0  0  0  0  0  0  0  0  0  0  0
   -3.5020    1.1192    2.3184 C   0  0  0  0  0  0  0  0  0  0  0  0
   -1.6138    0.4415   -0.4119 H   0  0  0  0  0  0  0  0  0  0  0  0
   -3.9531    0.6451    0.2609 H   0  0  0  0  0  0  0  0  0  0  0  0
   -2.7317    1.6284    2.9090 H   0  0  0  0  0  0  0  0  0  0  0  0
   -4.4575    1.6121    2.5262 H   0  0  0  0  0  0  0  0  0  0  0  0
   -3.5663    0.0860    2.6763 H   0  0  0  0  0  0  0  0  0  0  0  0
   -4.2788    3.1922    0.1444 N   0  0  0  0  0  0  0  0  0  0  0  0
   -4.4211    4.5563   -0.3081 C   0  0  0  0  0  0  0  0  0  0  0  0
   -5.1252    2.6480    0.2828 H   0  0  0  0  0  0  0  0  0  0  0  0
   -4.5032    5.2250    0.5615 H   0  0  0  0  0  0  0  0  0  0  0  0
   -3.5413    4.8380   -0.9053 H   0  0  0  0  0  0  0  0  0  0  0  0
   -5.3271    4.6451   -0.9255 H   0  0  0  0  0  0  0  0  0  0  0  0
  1  3  1  0  0  0  0
  1  7  1  0  0  0  0
  1  2  2  0  0  0  0
 18 19  1  0  0  0  0
 19 24  1  0  0  0  0
 19 20  2  0  0  0  0
 25 26  1  0  0  0  0
 26 34  1  0  0  0  0
 26 27  2  0  0  0  0
  8  9  1  0  0  0  0
  9 17  1  0  0  0  0
  9 10  2  0  0  0  0
 25 28  1  0  0  0  0
  8 11  1  0  0  0  0
 34 35  1  0  0  0  0
 17 18  1  0  0  0  0
 24 25  1  0  0  0  0
  7  8  1  0  0  0  0
  3  4  1  0  0  0  0
  3  5  1  0  0  0  0
  3  6  1  0  0  0  0
 28 31  1  0  0  0  0
 28 32  1  0  0  0  0
 28 33  1  0  0  0  0
 11 14  1  0  0  0  0
 11 15  1  0  0  0  0
 11 16  1  0  0  0  0
 35 37  1  0  0  0  0
 35 38  1  0  0  0  0
 35 39  1  0  0  0  0
 18 22  1  0  0  0  0
 18 23  1  0  0  0  0
 25 30  1  0  0  0  0
  8 13  1  0  0  0  0
 34 36  1  0  0  0  0
 17 21  1  0  0  0  0
  7 12  1  0  0  0  0
 24 29  1  0  0  0  0
M  END
$$$$

  -OEChem-05262214473D

 39 38  0     1  0  0  0  0  0999 V2000
   -3.5200   -4.0268   -1.6943 C   0  0  0  0  0  0  0  0  0  0  0  0
   -2.8702   -4.8827   -1.1054 O   0  0  0  0  0  0  0  0  0  0  0  0
   -4.9704   -4.2579   -1.9614 C   0  0  0  0  0  0  0  0  0  0  0  0
   -5.1456   -4.7573   -2.9278 H   0  0  0  0  0  0  0  0  0  0  0  0
   -5.4379   -4.9112   -1.2072 H   0  0  0  0  0  0  0  0  0  0  0  0
   -5.5954   -3.3510   -1.9864 H   0  0  0  0  0  0  0  0  0  0  0  0
   -3.0424   -2.8131   -2.1606 N   0  0  0  0  0  0  0  0  0  0  0  0
   -1.6755   -2.3891   -2.0077 C   0  0  2  0  0  0  0  0  0  0  0  0
   -1.5782   -1.5673   -0.7292 C   0  0  0  0  0  0  0  0  0  0  0  0
   -2.5448   -1.0064   -0.2171 O   0  0  0  0  0  0  0  0  0  0  0  0
   -1.2087   -1.5823   -3.2094 C   0  0  0  0  0  0  0  0  0  0  0  0
   -3.6915   -2.1888   -2.6360 H   0  0  0  0  0  0  0  0  0  0  0  0
   -1.0721   -3.2977   -1.9053 H   0  0  0  0  0  0  0  0  0  0  0  0
   -1.8017   -0.6681   -3.3281 H   0  0  0  0  0  0  0  0  0  0  0  0
   -0.1601   -1.2849   -3.1045 H   0  0  0  0  0  0  0  0  0  0  0  0
   -1.3074   -2.1646   -4.1319 H   0  0  0  0  0  0  0  0  0  0  0  0
   -0.2835   -1.5112   -0.2725 N   0  0  0  0  0  0  0  0  0  0  0  0
    0.0769   -0.7658    0.9424 C   0  0  0  0  0  0  0  0  0  0  0  0
   -1.1573   -0.1318    1.5315 C   0  0  0  0  0  0  0  0  0  0  0  0
   -1.3029    0.0748    2.7334 O   0  0  0  0  0  0  0  0  0  0  0  0
    0.4587   -2.0097   -0.7289 H   0  0  0  0  0  0  0  0  0  0  0  0
    0.8035    0.0109    0.6862 H   0  0  0  0  0  0  0  0  0  0  0  0
    0.5223   -1.4537    1.6670 H   0  0  0  0  0  0  0  0  0  0  0  0
   -2.0920    0.1787    0.5495 N   0  0  0  0  0  0  0  0  0  0  0  0
   -3.3645    0.7900    0.8295 C   0  0  2  0  0  0  0  0  0  0  0  0
   -3.4453    2.0903    0.0408 C   0  0  0  0  0  0  0  0  0  0  0  0
   -2.4526    2.6954   -0.3586 O   0  0  0  0  0  0  0  0  0  0  0  0
   -3.5398    1.0456    2.3184 C   0  0  0  0  0  0  0  0  0  0  0  0
   -1.8638   -0.0381   -0.4194 H   0  0  0  0  0  0  0  0  0  0  0  0
   -4.1338    0.0969    0.4721 H   0  0  0  0  0  0  0  0  0  0  0  0
   -2.7778    1.7379    2.6946 H   0  0  0  0  0  0  0  0  0  0  0  0
   -4.5198    1.4844    2.5329 H   0  0  0  0  0  0  0  0  0  0  0  0
   -3.4517    0.1135    2.8869 H   0  0  0  0  0  0  0  0  0  0  0  0
   -4.7548    2.5181   -0.1275 N   0  0  0  0  0  0  0  0  0  0  0  0
   -5.0938    3.7329   -0.8313 C   0  0  0  0  0  0  0  0  0  0  0  0
   -5.5168    1.9436    0.2206 H   0  0  0  0  0  0  0  0  0  0  0  0
   -5.1653    4.5646   -0.1150 H   0  0  0  0  0  0  0  0  0  0  0  0
   -4.3142    3.9554   -1.5748 H   0  0  0  0  0  0  0  0  0  0  0  0
   -6.0602    3.6038   -1.3408 H   0  0  0  0  0  0  0  0  0  0  0  0
  1  3  1  0  0  0  0
  1  7  1  0  0  0  0
  1  2  2  0  0  0  0
 18 19  1  0  0  0  0
 19 24  1  0  0  0  0
 19 20  2  0  0  0  0
 25 26  1  0  0  0  0
 26 34  1  0  0  0  0
 26 27  2  0  0  0  0
  8  9  1  0  0  0  0
  9 17  1  0  0  0  0
  9 10  2  0  0  0  0
 25 28  1  0  0  0  0
  8 11  1  0  0  0  0
 34 35  1  0  0  0  0
 17 18  1  0  0  0  0
 24 25  1  0  0  0  0
  7  8  1  0  0  0  0
  3  4  1  0  0  0  0
  3  5  1  0  0  0  0
  3  6  1  0  0  0  0
 28 31  1  0  0  0  0
 28 32  1  0  0  0  0
 28 33  1  0  0  0  0
 11 14  1  0  0  0  0
 11 15  1  0  0  0  0
 11 16  1  0  0  0  0
 35 37  1  0  0  0  0
 35 38  1  0  0  0  0
 35 39  1  0  0  0  0
 18 22  1  0  0  0  0
 18 23  1  0  0  0  0
 25 30  1  0  0  0  0
  8 13  1  0  0  0  0
 34 36  1  0  0  0  0
 17 21  1  0  0  0  0
  7 12  1  0  0  0  0
 24 29  1  0  0  0  0
M  END
$$$$

  -OEChem-05262214473D

 39 38  0     1  0  0  0  0  0999 V2000
   -3.5200   -4.0268   -1.6943 C   0  0  0  0  0  0  0  0  0  0  0  0
   -2.8702   -4.8827   -1.1054 O   0  0  0  0  0  0  0  0  0  0  0  0
   -4.9704   -4.2579   -1.9614 C   0  0  0  0  0  0  0  0  0  0  0  0
   -5.1456   -4.7573   -2.9278 H   0  0  0  0  0  0  0  0  0  0  0  0
   -5.4379   -4.9112   -1.2072 H   0  0  0  0  0  0  0  0  0  0  0  0
   -5.5954   -3.3510   -1.9864 H   0  0  0  0  0  0  0  0  0  0  0  0
   -3.0424   -2.8131   -2.1606 N   0  0  0  0  0  0  0  0  0  0  0  0
   -1.6755   -2.3891   -2.0077 C   0  0  2  0  0  0  0  0  0  0  0  0
   -1.5782   -1.5673   -0.7292 C   0  0  0  0  0  0  0  0  0  0  0  0
   -2.5448   -1.0064   -0.2171 O   0  0  0  0  0  0  0  0  0  0  0  0
   -1.2087   -1.5823   -3.2094 C   0  0  0  0  0  0  0  0  0  0  0  0
   -3.6915   -2.1888   -2.6360 H   0  0  0  0  0  0  0  0  0  0  0  0
   -1.0721   -3.2977   -1.9053 H   0  0  0  0  0  0  0  0  0  0  0  0
   -1.8017   -0.6681   -3.3281 H   0  0  0  0  0  0  0  0  0  0  0  0
   -0.1601   -1.2849   -3.1045 H   0  0  0  0  0  0  0  0  0  0  0  0
   -1.3074   -2.1646   -4.1319 H   0  0  0  0  0  0  0  0  0  0  0  0
   -0.2835   -1.5112   -0.2725 N   0  0  0  0  0  0  0  0  0  0  0  0
    0.0769   -0.7658    0.9424 C   0  0  0  0  0  0  0  0  0  0  0  0
   -1.1573   -0.1318    1.5315 C   0  0  0  0  0  0  0  0  0  0  0  0
   -1.2069    0.3174    2.6735 O   0  0  0  0  0  0  0  0  0  0  0  0
    0.4587   -2.0097   -0.7289 H   0  0  0  0  0  0  0  0  0  0  0  0
    0.8035    0.0109    0.6862 H   0  0  0  0  0  0  0  0  0  0  0  0
    0.5223   -1.4537    1.6670 H   0  0  0  0  0  0  0  0  0  0  0  0
   -2.2127   -0.1272    0.6257 N   0  0  0  0  0  0  0  0  0  0  0  0
   -3.5125    0.4141    0.9239 C   0  0  2  0  0  0  0  0  0  0  0  0
   -3.8164    1.4991   -0.1006 C   0  0  0  0  0  0  0  0  0  0  0  0
   -2.9423    2.0892   -0.7322 O   0  0  0  0  0  0  0  0  0  0  0  0
   -3.5689    0.9707    2.3381 C   0  0  0  0  0  0  0  0  0  0  0  0
   -2.0575   -0.5283   -0.2978 H   0  0  0  0  0  0  0  0  0  0  0  0
   -4.2300   -0.4061    0.8120 H   0  0  0  0  0  0  0  0  0  0  0  0
   -2.8567    1.7936    2.4694 H   0  0  0  0  0  0  0  0  0  0  0  0
   -4.5664    1.3563    2.5732 H   0  0  0  0  0  0  0  0  0  0  0  0
   -3.3208    0.1963    3.0719 H   0  0  0  0  0  0  0  0  0  0  0  0
   -5.1760    1.7613   -0.1954 N   0  0  0  0  0  0  0  0  0  0  0  0
   -5.7173    2.7585   -1.0890 C   0  0  0  0  0  0  0  0  0  0  0  0
   -5.8305    1.2105    0.3523 H   0  0  0  0  0  0  0  0  0  0  0  0
   -5.8117    3.7164   -0.5564 H   0  0  0  0  0  0  0  0  0  0  0  0
   -5.0444    2.8829   -1.9503 H   0  0  0  0  0  0  0  0  0  0  0  0
   -6.7081    2.4359   -1.4414 H   0  0  0  0  0  0  0  0  0  0  0  0
  1  3  1  0  0  0  0
  1  7  1  0  0  0  0
  1  2  2  0  0  0  0
 18 19  1  0  0  0  0
 19 24  1  0  0  0  0
 19 20  2  0  0  0  0
 25 26  1  0  0  0  0
 26 34  1  0  0  0  0
 26 27  2  0  0  0  0
  8  9  1  0  0  0  0
  9 17  1  0  0  0  0
  9 10  2  0  0  0  0
 25 28  1  0  0  0  0
  8 11  1  0  0  0  0
 34 35  1  0  0  0  0
 17 18  1  0  0  0  0
 24 25  1  0  0  0  0
  7  8  1  0  0  0  0
  3  4  1  0  0  0  0
  3  5  1  0  0  0  0
  3  6  1  0  0  0  0
 28 31  1  0  0  0  0
 28 32  1  0  0  0  0
 28 33  1  0  0  0  0
 11 14  1  0  0  0  0
 11 15  1  0  0  0  0
 11 16  1  0  0  0  0
 35 37  1  0  0  0  0
 35 38  1  0  0  0  0
 35 39  1  0  0  0  0
 18 22  1  0  0  0  0
 18 23  1  0  0  0  0
 25 30  1  0  0  0  0
  8 13  1  0  0  0  0
 34 36  1  0  0  0  0
 17 21  1  0  0  0  0
  7 12  1  0  0  0  0
 24 29  1  0  0  0  0
M  END
$$$$

  -OEChem-05262214473D

 39 38  0     1  0  0  0  0  0999 V2000
   -3.5200   -4.0268   -1.6943 C   0  0  0  0  0  0  0  0  0  0  0  0
   -2.8702   -4.8827   -1.1054 O   0  0  0  0  0  0  0  0  0  0  0  0
   -4.9704   -4.2579   -1.9614 C   0  0  0  0  0  0  0  0  0  0  0  0
   -5.1456   -4.7573   -2.9278 H   0  0  0  0  0  0  0  0  0  0  0  0
   -5.4379   -4.9112   -1.2072 H   0  0  0  0  0  0  0  0  0  0  0  0
   -5.5954   -3.3510   -1.9864 H   0  0  0  0  0  0  0  0  0  0  0  0
   -3.0424   -2.8131   -2.1606 N   0  0  0  0  0  0  0  0  0  0  0  0
   -1.6755   -2.3891   -2.0077 C   0  0  2  0  0  0  0  0  0  0  0  0
   -1.5782   -1.5673   -0.7292 C   0  0  0  0  0  0  0  0  0  0  0  0
   -2.5448   -1.0064   -0.2171 O   0  0  0  0  0  0  0  0  0  0  0  0
   -1.2087   -1.5823   -3.2094 C   0  0  0  0  0  0  0  0  0  0  0  0
   -3.6915   -2.1888   -2.6360 H   0  0  0  0  0  0  0  0  0  0  0  0
   -1.0721   -3.2977   -1.9053 H   0  0  0  0  0  0  0  0  0  0  0  0
   -1.8017   -0.6681   -3.3281 H   0  0  0  0  0  0  0  0  0  0  0  0
   -0.1601   -1.2849   -3.1045 H   0  0  0  0  0  0  0  0  0  0  0  0
   -1.3074   -2.1646   -4.1319 H   0  0  0  0  0  0  0  0  0  0  0  0
   -0.2835   -1.5112   -0.2725 N   0  0  0  0  0  0  0  0  0  0  0  0
    0.0769   -0.7658    0.9424 C   0  0  0  0  0  0  0  0  0  0  0  0
   -1.1573   -0.1318    1.5315 C   0  0  0  0  0  0  0  0  0  0  0  0
   -1.1451    0.5488    2.5538 O   0  0  0  0  0  0  0  0  0  0  0  0
    0.4587   -2.0097   -0.7289 H   0  0  0  0  0  0  0  0  0  0  0  0
    0.8035    0.0109    0.6862 H   0  0  0  0  0  0  0  0  0  0  0  0
    0.5223   -1.4537    1.6670 H   0  0  0  0  0  0  0  0  0  0  0  0
   -2.2901   -0.4188    0.7773 N   0  0  0  0  0  0  0  0  0  0  0  0
   -3.6072    0.0561    1.1109 C   0  0  2  0  0  0  0  0  0  0  0  0
   -4.1306    0.8606   -0.0716 C   0  0  0  0  0  0  0  0  0  0  0  0
   -3.3947    1.3749   -0.9113 O   0  0  0  0  0  0  0  0  0  0  0  0
   -3.5872    0.8996    2.3761 C   0  0  0  0  0  0  0  0  0  0  0  0
   -2.1818   -0.9955   -0.0553 H   0  0  0  0  0  0  0  0  0  0  0  0
   -4.2350   -0.8296    1.2573 H   0  0  0  0  0  0  0  0  0  0  0  0
   -2.9631    1.7916    2.2486 H   0  0  0  0  0  0  0  0  0  0  0  0
   -4.5941    1.2363    2.6444 H   0  0  0  0  0  0  0  0  0  0  0  0
   -3.1827    0.3287    3.2188 H   0  0  0  0  0  0  0  0  0  0  0  0
   -5.5137    0.9732   -0.0549 N   0  0  0  0  0  0  0  0  0  0  0  0
   -6.2490    1.6998   -1.0636 C   0  0  0  0  0  0  0  0  0  0  0  0
   -6.0450    0.4985    0.6691 H   0  0  0  0  0  0  0  0  0  0  0  0
   -6.3983    2.7381   -0.7326 H   0  0  0  0  0  0  0  0  0  0  0  0
   -5.6821    1.6934   -2.0062 H   0  0  0  0  0  0  0  0  0  0  0  0
   -7.2268    1.2209   -1.2205 H   0  0  0  0  0  0  0  0  0  0  0  0
  1  3  1  0  0  0  0
  1  7  1  0  0  0  0
  1  2  2  0  0  0  0
 18 19  1  0  0  0  0
 19 24  1  0  0  0  0
 19 20  2  0  0  0  0
 25 26  1  0  0  0  0
 26 34  1  0  0  0  0
 26 27  2  0  0  0  0
  8  9  1  0  0  0  0
  9 17  1  0  0  0  0
  9 10  2  0  0  0  0
 25 28  1  0  0  0  0
  8 11  1  0  0  0  0
 34 35  1  0  0  0  0
 17 18  1  0  0  0  0
 24 25  1  0  0  0  0
  7  8  1  0  0  0  0
  3  4  1  0  0  0  0
  3  5  1  0  0  0  0
  3  6  1  0  0  0  0
 28 31  1  0  0  0  0
 28 32  1  0  0  0  0
 28 33  1  0  0  0  0
 11 14  1  0  0  0  0
 11 15  1  0  0  0  0
 11 16  1  0  0  0  0
 35 37  1  0  0  0  0
 35 38  1  0  0  0  0
 35 39  1  0  0  0  0
 18 22  1  0  0  0  0
 18 23  1  0  0  0  0
 25 30  1  0  0  0  0
  8 13  1  0  0  0  0
 34 36  1  0  0  0  0
 17 21  1  0  0  0  0
  7 12  1  0  0  0  0
 24 29  1  0  0  0  0
M  END
$$$$

  -OEChem-05262214473D

 39 38  0     1  0  0  0  0  0999 V2000
   -3.5200   -4.0268   -1.6943 C   0  0  0  0  0  0  0  0  0  0  0  0
   -2.8702   -4.8827   -1.1054 O   0  0  0  0  0  0  0  0  0  0  0  0
   -4.9704   -4.2579   -1.9614 C   0  0  0  0  0  0  0  0  0  0  0  0
   -5.1456   -4.7573   -2.9278 H   0  0  0  0  0  0  0  0  0  0  0  0
   -5.4379   -4.9112   -1.2072 H   0  0  0  0  0  0  0  0  0  0  0  0
   -5.5954   -3.3510   -1.9864 H   0  0  0  0  0  0  0  0  0  0  0  0
   -3.0424   -2.8131   -2.1606 N   0  0  0  0  0  0  0  0  0  0  0  0
   -1.6755   -2.3891   -2.0077 C   0  0  2  0  0  0  0  0  0  0  0  0
   -1.5782   -1.5673   -0.7292 C   0  0  0  0  0  0  0  0  0  0  0  0
   -2.5448   -1.0064   -0.2171 O   0  0  0  0  0  0  0  0  0  0  0  0
   -1.2087   -1.5823   -3.2094 C   0  0  0  0  0  0  0  0  0  0  0  0
   -3.6915   -2.1888   -2.6360 H   0  0  0  0  0  0  0  0  0  0  0  0
   -1.0721   -3.2977   -1.9053 H   0  0  0  0  0  0  0  0  0  0  0  0
   -1.8017   -0.6681   -3.3281 H   0  0  0  0  0  0  0  0  0  0  0  0
   -0.1601   -1.2849   -3.1045 H   0  0  0  0  0  0  0  0  0  0  0  0
   -1.3074   -2.1646   -4.1319 H   0  0  0  0  0  0  0  0  0  0  0  0
   -0.2835   -1.5112   -0.2725 N   0  0  0  0  0  0  0  0  0  0  0  0
    0.0769   -0.7658    0.9424 C   0  0  0  0  0  0  0  0  0  0  0  0
   -1.1573   -0.1318    1.5315 C   0  0  0  0  0  0  0  0  0  0  0  0
   -1.1220    0.7532    2.3824 O   0  0  0  0  0  0  0  0  0  0  0  0
    0.4587   -2.0097   -0.7289 H   0  0  0  0  0  0  0  0  0  0  0  0
    0.8035    0.0109    0.6862 H   0  0  0  0  0  0  0  0  0  0  0  0
    0.5223   -1.4537    1.6670 H   0  0  0  0  0  0  0  0  0  0  0  0
   -2.3189   -0.6760    0.9939 N   0  0  0  0  0  0  0  0  0  0  0  0
   -3.6420   -0.2598    1.3777 C   0  0  2  0  0  0  0  0  0  0  0  0
   -4.3662    0.2182    0.1261 C   0  0  0  0  0  0  0  0  0  0  0  0
   -3.7790    0.6012   -0.8837 O   0  0  0  0  0  0  0  0  0  0  0  0
   -3.5936    0.8371    2.4300 C   0  0  0  0  0  0  0  0  0  0  0  0
   -2.2283   -1.4081    0.2914 H   0  0  0  0  0  0  0  0  0  0  0  0
   -4.1485   -1.1449    1.7778 H   0  0  0  0  0  0  0  0  0  0  0  0
   -3.0897    1.7322    2.0473 H   0  0  0  0  0  0  0  0  0  0  0  0
   -4.6009    1.1327    2.7416 H   0  0  0  0  0  0  0  0  0  0  0  0
   -3.0466    0.5017    3.3177 H   0  0  0  0  0  0  0  0  0  0  0  0
   -5.7449    0.2076    0.2847 N   0  0  0  0  0  0  0  0  0  0  0  0
   -6.6528    0.6286   -0.7568 C   0  0  0  0  0  0  0  0  0  0  0  0
   -6.1458   -0.1438    1.1493 H   0  0  0  0  0  0  0  0  0  0  0  0
   -6.8852    1.6965   -0.6317 H   0  0  0  0  0  0  0  0  0  0  0  0
   -6.1839    0.4681   -1.7388 H   0  0  0  0  0  0  0  0  0  0  0  0
   -7.5809    0.0417   -0.6933 H   0  0  0  0  0  0  0  0  0  0  0  0
  1  3  1  0  0  0  0
  1  7  1  0  0  0  0
  1  2  2  0  0  0  0
 18 19  1  0  0  0  0
 19 24  1  0  0  0  0
 19 20  2  0  0  0  0
 25 26  1  0  0  0  0
 26 34  1  0  0  0  0
 26 27  2  0  0  0  0
  8  9  1  0  0  0  0
  9 17  1  0  0  0  0
  9 10  2  0  0  0  0
 25 28  1  0  0  0  0
  8 11  1  0  0  0  0
 34 35  1  0  0  0  0
 17 18  1  0  0  0  0
 24 25  1  0  0  0  0
  7  8  1  0  0  0  0
  3  4  1  0  0  0  0
  3  5  1  0  0  0  0
  3  6  1  0  0  0  0
 28 31  1  0  0  0  0
 28 32  1  0  0  0  0
 28 33  1  0  0  0  0
 11 14  1  0  0  0  0
 11 15  1  0  0  0  0
 11 16  1  0  0  0  0
 35 37  1  0  0  0  0
 35 38  1  0  0  0  0
 35 39  1  0  0  0  0
 18 22  1  0  0  0  0
 18 23  1  0  0  0  0
 25 30  1  0  0  0  0
  8 13  1  0  0  0  0
 34 36  1  0  0  0  0
 17 21  1  0  0  0  0
  7 12  1  0  0  0  0
 24 29  1  0  0  0  0
M  END
$$$$

  -OEChem-05262214473D

 39 38  0     1  0  0  0  0  0999 V2000
   -3.5200   -4.0268   -1.6943 C   0  0  0  0  0  0  0  0  0  0  0  0
   -2.8702   -4.8827   -1.1054 O   0  0  0  0  0  0  0  0  0  0  0  0
   -4.9704   -4.2579   -1.9614 C   0  0  0  0  0  0  0  0  0  0  0  0
   -5.1456   -4.7573   -2.9278 H   0  0  0  0  0  0  0  0  0  0  0  0
   -5.4379   -4.9112   -1.2072 H   0  0  0  0  0  0  0  0  0  0  0  0
   -5.5954   -3.3510   -1.9864 H   0  0  0  0  0  0  0  0  0  0  0  0
   -3.0424   -2.8131   -2.1606 N   0  0  0  0  0  0  0  0  0  0  0  0
   -1.6755   -2.3891   -2.0077 C   0  0  2  0  0  0  0  0  0  0  0  0
   -1.5782   -1.5673   -0.7292 C   0  0  0  0  0  0  0  0  0  0  0  0
   -2.5448   -1.0064   -0.2171 O   0  0  0  0  0  0  0  0  0  0  0  0
   -1.2087   -1.5823   -3.2094 C   0  0  0  0  0  0  0  0  0  0  0  0
   -3.6915   -2.1888   -2.6360 H   0  0  0  0  0  0  0  0  0  0  0  0
   -1.0721   -3.2977   -1.9053 H   0  0  0  0  0  0  0  0  0  0  0  0
   -1.8017   -0.6681   -3.3281 H   0  0  0  0  0  0  0  0  0  0  0  0
   -0.1601   -1.2849   -3.1045 H   0  0  0  0  0  0  0  0  0  0  0  0
   -1.3074   -2.1646   -4.1319 H   0  0  0  0  0  0  0  0  0  0  0  0
   -0.2835   -1.5112   -0.2725 N   0  0  0  0  0  0  0  0  0  0  0  0
    0.0769   -0.7658    0.9424 C   0  0  0  0  0  0  0  0  0  0  0  0
   -1.1573   -0.1318    1.5315 C   0  0  0  0  0  0  0  0  0  0  0  0
   -1.1389    0.9166    2.1710 O   0  0  0  0  0  0  0  0  0  0  0  0
    0.4587   -2.0097   -0.7289 H   0  0  0  0  0  0  0  0  0  0  0  0
    0.8035    0.0109    0.6862 H   0  0  0  0  0  0  0  0  0  0  0  0
    0.5223   -1.4537    1.6670 H   0  0  0  0  0  0  0  0  0  0  0  0
   -2.2970   -0.8816    1.2608 N   0  0  0  0  0  0  0  0  0  0  0  0
   -3.6148   -0.5118    1.7061 C   0  0  2  0  0  0  0  0  0  0  0  0
   -4.5073   -0.3842    0.4787 C   0  0  0  0  0  0  0  0  0  0  0  0
   -4.0688   -0.1791   -0.6512 O   0  0  0  0  0  0  0  0  0  0  0  0
   -3.5876    0.7875    2.4959 C   0  0  0  0  0  0  0  0  0  0  0  0
   -2.1936   -1.7378    0.7187 H   0  0  0  0  0  0  0  0  0  0  0  0
   -3.9764   -1.3304    2.3379 H   0  0  0  0  0  0  0  0  0  0  0  0
   -3.2279    1.6193    1.8793 H   0  0  0  0  0  0  0  0  0  0  0  0
   -4.5864    1.0525    2.8582 H   0  0  0  0  0  0  0  0  0  0  0  0
   -2.9220    0.7035    3.3617 H   0  0  0  0  0  0  0  0  0  0  0  0
   -5.8539   -0.4833    0.8000 N   0  0  0  0  0  0  0  0  0  0  0  0
   -6.9010   -0.3818   -0.1894 C   0  0  0  0  0  0  0  0  0  0  0  0
   -6.1258   -0.6726    1.7602 H   0  0  0  0  0  0  0  0  0  0  0  0
   -7.2391    0.6626   -0.2605 H   0  0  0  0  0  0  0  0  0  0  0  0
   -6.5154   -0.7095   -1.1661 H   0  0  0  0  0  0  0  0  0  0  0  0
   -7.7463   -1.0215    0.1044 H   0  0  0  0  0  0  0  0  0  0  0  0
  1  3  1  0  0  0  0
  1  7  1  0  0  0  0
  1  2  2  0  0  0  0
 18 19  1  0  0  0  0
 19 24  1  0  0  0  0
 19 20  2  0  0  0  0
 25 26  1  0  0  0  0
 26 34  1  0  0  0  0
 26 27  2  0  0  0  0
  8  9  1  0  0  0  0
  9 17  1  0  0  0  0
  9 10  2  0  0  0  0
 25 28  1  0  0  0  0
  8 11  1  0  0  0  0
 34 35  1  0  0  0  0
 17 18  1  0  0  0  0
 24 25  1  0  0  0  0
  7  8  1  0  0  0  0
  3  4  1  0  0  0  0
  3  5  1  0  0  0  0
  3  6  1  0  0  0  0
 28 31  1  0  0  0  0
 28 32  1  0  0  0  0
 28 33  1  0  0  0  0
 11 14  1  0  0  0  0
 11 15  1  0  0  0  0
 11 16  1  0  0  0  0
 35 37  1  0  0  0  0
 35 38  1  0  0  0  0
 35 39  1  0  0  0  0
 18 22  1  0  0  0  0
 18 23  1  0  0  0  0
 25 30  1  0  0  0  0
  8 13  1  0  0  0  0
 34 36  1  0  0  0  0
 17 21  1  0  0  0  0
  7 12  1  0  0  0  0
 24 29  1  0  0  0  0
M  END
$$$$

  -OEChem-05262214473D

 39 38  0     1  0  0  0  0  0999 V2000
   -3.5200   -4.0268   -1.6943 C   0  0  0  0  0  0  0  0  0  0  0  0
   -2.8702   -4.8827   -1.1054 O   0  0  0  0  0  0  0  0  0  0  0  0
   -4.9704   -4.2579   -1.9614 C   0  0  0  0  0  0  0  0  0  0  0  0
   -5.1456   -4.7573   -2.9278 H   0  0  0  0  0  0  0  0  0  0  0  0
   -5.4379   -4.9112   -1.2072 H   0  0  0  0  0  0  0  0  0  0  0  0
   -5.5954   -3.3510   -1.9864 H   0  0  0  0  0  0  0  0  0  0  0  0
   -3.0424   -2.8131   -2.1606 N   0  0  0  0  0  0  0  0  0  0  0  0
   -1.6755   -2.3891   -2.0077 C   0  0  2  0  0  0  0  0  0  0  0  0
   -1.5782   -1.5673   -0.7292 C   0  0  0  0  0  0  0  0  0  0  0  0
   -2.5448   -1.0064   -0.2171 O   0  0  0  0  0  0  0  0  0  0  0  0
   -1.2087   -1.5823   -3.2094 C   0  0  0  0  0  0  0  0  0  0  0  0
   -3.6915   -2.1888   -2.6360 H   0  0  0  0  0  0  0  0  0  0  0  0
   -1.0721   -3.2977   -1.9053 H   0  0  0  0  0  0  0  0  0  0  0  0
   -1.8017   -0.6681   -3.3281 H   0  0  0  0  0  0  0  0  0  0  0  0
   -0.1601   -1.2849   -3.1045 H   0  0  0  0  0  0  0  0  0  0  0  0
   -1.3074   -2.1646   -4.1319 H   0  0  0  0  0  0  0  0  0  0  0  0
   -0.2835   -1.5112   -0.2725 N   0  0  0  0  0  0  0  0  0  0  0  0
    0.0769   -0.7658    0.9424 C   0  0  0  0  0  0  0  0  0  0  0  0
   -1.1573   -0.1318    1.5315 C   0  0  0  0  0  0  0  0  0  0  0  0
   -1.1948    1.0279    1.9341 O   0  0  0  0  0  0  0  0  0  0  0  0
    0.4587   -2.0097   -0.7289 H   0  0  0  0  0  0  0  0  0  0  0  0
    0.8035    0.0109    0.6862 H   0  0  0  0  0  0  0  0  0  0  0  0
    0.5223   -1.4537    1.6670 H   0  0  0  0  0  0  0  0  0  0  0  0
   -2.2261   -1.0213    1.5598 N   0  0  0  0  0  0  0  0  0  0  0  0
   -3.5272   -0.6829    2.0738 C   0  0  2  0  0  0  0  0  0  0  0  0
   -4.5444   -0.9057    0.9624 C   0  0  0  0  0  0  0  0  0  0  0  0
   -4.2446   -0.9129   -0.2298 O   0  0  0  0  0  0  0  0  0  0  0  0
   -3.5696    0.7542    2.5694 C   0  0  0  0  0  0  0  0  0  0  0  0
   -2.0803   -1.9622    1.1977 H   0  0  0  0  0  0  0  0  0  0  0  0
   -3.7305   -1.3734    2.8995 H   0  0  0  0  0  0  0  0  0  0  0  0
   -3.3682    1.4607    1.7560 H   0  0  0  0  0  0  0  0  0  0  0  0
   -4.5516    1.0013    2.9862 H   0  0  0  0  0  0  0  0  0  0  0  0
   -2.8172    0.9204    3.3479 H   0  0  0  0  0  0  0  0  0  0  0  0
   -5.8331   -1.0525    1.4561 N   0  0  0  0  0  0  0  0  0  0  0  0
   -6.9769   -1.2627    0.5997 C   0  0  0  0  0  0  0  0  0  0  0  0
   -5.9866   -1.0520    2.4602 H   0  0  0  0  0  0  0  0  0  0  0  0
   -7.4360   -0.2933    0.3557 H   0  0  0  0  0  0  0  0  0  0  0  0
   -6.6543   -1.7591   -0.3274 H   0  0  0  0  0  0  0  0  0  0  0  0
   -7.7116   -1.8961    1.1183 H   0  0  0  0  0  0  0  0  0  0  0  0
  1  3  1  0  0  0  0
  1  7  1  0  0  0  0
  1  2  2  0  0  0  0
 18 19  1  0  0  0  0
 19 24  1  0  0  0  0
 19 20  2  0  0  0  0
 25 26  1  0  0  0  0
 26 34  1  0  0  0  0
 26 27  2  0  0  0  0
  8  9  1  0  0  0  0
  9 17  1  0  0  0  0
  9 10  2  0  0  0  0
 25 28  1  0  0  0  0
  8 11  1  0  0  0  0
 34 35  1  0  0  0  0
 17 18  1  0  0  0  0
 24 25  1  0  0  0  0
  7  8  1  0  0  0  0
  3  4  1  0  0  0  0
  3  5  1  0  0  0  0
  3  6  1  0  0  0  0
 28 31  1  0  0  0  0
 28 32  1  0  0  0  0
 28 33  1  0  0  0  0
 11 14  1  0  0  0  0
 11 15  1  0  0  0  0
 11 16  1  0  0  0  0
 35 37  1  0  0  0  0
 35 38  1  0  0  0  0
 35 39  1  0  0  0  0
 18 22  1  0  0  0  0
 18 23  1  0  0  0  0
 25 30  1  0  0  0  0
  8 13  1  0  0  0  0
 34 36  1  0  0  0  0
 17 21  1  0  0  0  0
  7 12  1  0  0  0  0
 24 29  1  0  0  0  0
M  END
$$$$

  -OEChem-05262214473D

 39 38  0     1  0  0  0  0  0999 V2000
   -3.5200   -4.0268   -1.6943 C   0  0  0  0  0  0  0  0  0  0  0  0
   -2.8702   -4.8827   -1.1054 O   0  0  0  0  0  0  0  0  0  0  0  0
   -4.9704   -4.2579   -1.9614 C   0  0  0  0  0  0  0  0  0  0  0  0
   -5.1456   -4.7573   -2.9278 H   0  0  0  0  0  0  0  0  0  0  0  0
   -5.4379   -4.9112   -1.2072 H   0  0  0  0  0  0  0  0  0  0  0  0
   -5.5954   -3.3510   -1.9864 H   0  0  0  0  0  0  0  0  0  0  0  0
   -3.0424   -2.8131   -2.1606 N   0  0  0  0  0  0  0  0  0  0  0  0
   -1.6755   -2.3891   -2.0077 C   0  0  2  0  0  0  0  0  0  0  0  0
   -1.5782   -1.5673   -0.7292 C   0  0  0  0  0  0  0  0  0  0  0  0
   -2.5448   -1.0064   -0.2171 O   0  0  0  0  0  0  0  0  0  0  0  0
   -1.2087   -1.5823   -3.2094 C   0  0  0  0  0  0  0  0  0  0  0  0
   -3.6915   -2.1888   -2.6360 H   0  0  0  0  0  0  0  0  0  0  0  0
   -1.0721   -3.2977   -1.9053 H   0  0  0  0  0  0  0  0  0  0  0  0
   -1.8017   -0.6681   -3.3281 H   0  0  0  0  0  0  0  0  0  0  0  0
   -0.1601   -1.2849   -3.1045 H   0  0  0  0  0  0  0  0  0  0  0  0
   -1.3074   -2.1646   -4.1319 H   0  0  0  0  0  0  0  0  0  0  0  0
   -0.2835   -1.5112   -0.2725 N   0  0  0  0  0  0  0  0  0  0  0  0
    0.0769   -0.7658    0.9424 C   0  0  0  0  0  0  0  0  0  0  0  0
   -1.1573   -0.1318    1.5315 C   0  0  0  0  0  0  0  0  0  0  0  0
   -1.2859    1.0796    1.6877 O   0  0  0  0  0  0  0  0  0  0  0  0
    0.4587   -2.0097   -0.7289 H   0  0  0  0  0  0  0  0  0  0  0  0
    0.8035    0.0109    0.6862 H   0  0  0  0  0  0  0  0  0  0  0  0
    0.5223   -1.4537    1.6670 H   0  0  0  0  0  0  0  0  0  0  0  0
   -2.1109   -1.0858    1.8705 N   0  0  0  0  0  0  0  0  0  0  0  0
   -3.3852   -0.7614    2.4556 C   0  0  2  0  0  0  0  0  0  0  0  0
   -4.4747   -1.3106    1.5441 C   0  0  0  0  0  0  0  0  0  0  0  0
   -4.2943   -1.5501    0.3520 O   0  0  0  0  0  0  0  0  0  0  0  0
   -3.5409    0.7394    2.6456 C   0  0  0  0  0  0  0  0  0  0  0  0
   -1.8960   -2.0660    1.6955 H   0  0  0  0  0  0  0  0  0  0  0  0
   -3.4274   -1.2711    3.4243 H   0  0  0  0  0  0  0  0  0  0  0  0
   -3.5012    1.2672    1.6857 H   0  0  0  0  0  0  0  0  0  0  0  0
   -4.4989    0.9824    3.1169 H   0  0  0  0  0  0  0  0  0  0  0  0
   -2.7394    1.1375    3.2771 H   0  0  0  0  0  0  0  0  0  0  0  0
   -5.6840   -1.4611    2.2082 N   0  0  0  0  0  0  0  0  0  0  0  0
   -6.8751   -1.9540    1.5568 C   0  0  0  0  0  0  0  0  0  0  0  0
   -5.7375   -1.2560    3.2016 H   0  0  0  0  0  0  0  0  0  0  0  0
   -7.4624   -1.1059    1.1749 H   0  0  0  0  0  0  0  0  0  0  0  0
   -6.5909   -2.6093    0.7203 H   0  0  0  0  0  0  0  0  0  0  0  0
   -7.4793   -2.5225    2.2791 H   0  0  0  0  0  0  0  0  0  0  0  0
  1  3  1  0  0  0  0
  1  7  1  0  0  0  0
  1  2  2  0  0  0  0
 18 19  1  0  0  0  0
 19 24  1  0  0  0  0
 19 20  2  0  0  0  0
 25 26  1  0  0  0  0
 26 34  1  0  0  0  0
 26 27  2  0  0  0  0
  8  9  1  0  0  0  0
  9 17  1  0  0  0  0
  9 10  2  0  0  0  0
 25 28  1  0  0  0  0
  8 11  1  0  0  0  0
 34 35  1  0  0  0  0
 17 18  1  0  0  0  0
 24 25  1  0  0  0  0
  7  8  1  0  0  0  0
  3  4  1  0  0  0  0
  3  5  1  0  0  0  0
  3  6  1  0  0  0  0
 28 31  1  0  0  0  0
 28 32  1  0  0  0  0
 28 33  1  0  0  0  0
 11 14  1  0  0  0  0
 11 15  1  0  0  0  0
 11 16  1  0  0  0  0
 35 37  1  0  0  0  0
 35 38  1  0  0  0  0
 35 39  1  0  0  0  0
 18 22  1  0  0  0  0
 18 23  1  0  0  0  0
 25 30  1  0  0  0  0
  8 13  1  0  0  0  0
 34 36  1  0  0  0  0
 17 21  1  0  0  0  0
  7 12  1  0  0  0  0
 24 29  1  0  0  0  0
M  END
$$$$

  -OEChem-05262214473D

 39 38  0     1  0  0  0  0  0999 V2000
   -3.5200   -4.0268   -1.6943 C   0  0  0  0  0  0  0  0  0  0  0  0
   -2.8702   -4.8827   -1.1054 O   0  0  0  0  0  0  0  0  0  0  0  0
   -4.9704   -4.2579   -1.9614 C   0  0  0  0  0  0  0  0  0  0  0  0
   -5.1456   -4.7573   -2.9278 H   0  0  0  0  0  0  0  0  0  0  0  0
   -5.4379   -4.9112   -1.2072 H   0  0  0  0  0  0  0  0  0  0  0  0
   -5.5954   -3.3510   -1.9864 H   0  0  0  0  0  0  0  0  0  0  0  0
   -3.0424   -2.8131   -2.1606 N   0  0  0  0  0  0  0  0  0  0  0  0
   -1.6755   -2.3891   -2.0077 C   0  0  2  0  0  0  0  0  0  0  0  0
   -1.5782   -1.5673   -0.7292 C   0  0  0  0  0  0  0  0  0  0  0  0
   -2.5448   -1.0064   -0.2171 O   0  0  0  0  0  0  0  0  0  0  0  0
   -1.2087   -1.5823   -3.2094 C   0  0  0  0  0  0  0  0  0  0  0  0
   -3.6915   -2.1888   -2.6360 H   0  0  0  0  0  0  0  0  0  0  0  0
   -1.0721   -3.2977   -1.9053 H   0  0  0  0  0  0  0  0  0  0  0  0
   -1.8017   -0.6681   -3.3281 H   0  0  0  0  0  0  0  0  0  0  0  0
   -0.1601   -1.2849   -3.1045 H   0  0  0  0  0  0  0  0  0  0  0  0
   -1.3074   -2.1646   -4.1319 H   0  0  0  0  0  0  0  0  0  0  0  0
   -0.2835   -1.5112   -0.2725 N   0  0  0  0  0  0  0  0  0  0  0  0
    0.0769   -0.7658    0.9424 C   0  0  0  0  0  0  0  0  0  0  0  0
   -1.1573   -0.1318    1.5315 C   0  0  0  0  0  0  0  0  0  0  0  0
   -1.4059    1.0681    1.4487 O   0  0  0  0  0  0  0  0  0  0  0  0
    0.4587   -2.0097   -0.7289 H   0  0  0  0  0  0  0  0  0  0  0  0
    0.8035    0.0109    0.6862 H   0  0  0  0  0  0  0  0  0  0  0  0
    0.5223   -1.4537    1.6670 H   0  0  0  0  0  0  0  0  0  0  0  0
   -1.9593   -1.0706    2.1718 N   0  0  0  0  0  0  0  0  0  0  0  0
   -3.1986   -0.7419    2.8256 C   0  0  2  0  0  0  0  0  0  0  0  0
   -4.3031   -1.5714    2.1842 C   0  0  0  0  0  0  0  0  0  0  0  0
   -4.2145   -2.0474    1.0543 O   0  0  0  0  0  0  0  0  0  0  0  0
   -3.5033    0.7442    2.7191 C   0  0  0  0  0  0  0  0  0  0  0  0
   -1.6534   -2.0422    2.1783 H   0  0  0  0  0  0  0  0  0  0  0  0
   -3.0879   -1.0304    3.8766 H   0  0  0  0  0  0  0  0  0  0  0  0
   -3.6177    1.0519    1.6733 H   0  0  0  0  0  0  0  0  0  0  0  0
   -4.4319    0.9972    3.2415 H   0  0  0  0  0  0  0  0  0  0  0  0
   -2.6939    1.3402    3.1543 H   0  0  0  0  0  0  0  0  0  0  0  0
   -5.4168   -1.6814    3.0050 N   0  0  0  0  0  0  0  0  0  0  0  0
   -6.6027   -2.4086    2.6168 C   0  0  0  0  0  0  0  0  0  0  0  0
   -5.3955   -1.2707    3.9338 H   0  0  0  0  0  0  0  0  0  0  0  0
   -7.3166   -1.7200    2.1413 H   0  0  0  0  0  0  0  0  0  0  0  0
   -6.3297   -3.2022    1.9056 H   0  0  0  0  0  0  0  0  0  0  0  0
   -7.0652   -2.8581    3.5079 H   0  0  0  0  0  0  0  0  0  0  0  0
  1  3  1  0  0  0  0
  1  7  1  0  0  0  0
  1  2  2  0  0  0  0
 18 19  1  0  0  0  0
 19 24  1  0  0  0  0
 19 20  2  0  0  0  0
 25 26  1  0  0  0  0
 26 34  1  0  0  0  0
 26 27  2  0  0  0  0
  8  9  1  0  0  0  0
  9 17  1  0  0  0  0
  9 10  2  0  0  0  0
 25 28  1  0  0  0  0
  8 11  1  0  0  0  0
 34 35  1  0  0  0  0
 17 18  1  0  0  0  0
 24 25  1  0  0  0  0
  7  8  1  0  0  0  0
  3  4  1  0  0  0  0
  3  5  1  0  0  0  0
  3  6  1  0  0  0  0
 28 31  1  0  0  0  0
 28 32  1  0  0  0  0
 28 33  1  0  0  0  0
 11 14  1  0  0  0  0
 11 15  1  0  0  0  0
 11 16  1  0  0  0  0
 35 37  1  0  0  0  0
 35 38  1  0  0  0  0
 35 39  1  0  0  0  0
 18 22  1  0  0  0  0
 18 23  1  0  0  0  0
 25 30  1  0  0  0  0
  8 13  1  0  0  0  0
 34 36  1  0  0  0  0
 17 21  1  0  0  0  0
  7 12  1  0  0  0  0
 24 29  1  0  0  0  0
M  END
$$$$

  -OEChem-05262214473D

 39 38  0     1  0  0  0  0  0999 V2000
   -3.5200   -4.0268   -1.6943 C   0  0  0  0  0  0  0  0  0  0  0  0
   -2.8702   -4.8827   -1.1054 O   0  0  0  0  0  0  0  0  0  0  0  0
   -4.9704   -4.2579   -1.9614 C   0  0  0  0  0  0  0  0  0  0  0  0
   -5.1456   -4.7573   -2.9278 H   0  0  0  0  0  0  0  0  0  0  0  0
   -5.4379   -4.9112   -1.2072 H   0  0  0  0  0  0  0  0  0  0  0  0
   -5.5954   -3.3510   -1.9864 H   0  0  0  0  0  0  0  0  0  0  0  0
   -3.0424   -2.8131   -2.1606 N   0  0  0  0  0  0  0  0  0  0  0  0
   -1.6755   -2.3891   -2.0077 C   0  0  2  0  0  0  0  0  0  0  0  0
   -1.5782   -1.5673   -0.7292 C   0  0  0  0  0  0  0  0  0  0  0  0
   -2.5448   -1.0064   -0.2171 O   0  0  0  0  0  0  0  0  0  0  0  0
   -1.2087   -1.5823   -3.2094 C   0  0  0  0  0  0  0  0  0  0  0  0
   -3.6915   -2.1888   -2.6360 H   0  0  0  0  0  0  0  0  0  0  0  0
   -1.0721   -3.2977   -1.9053 H   0  0  0  0  0  0  0  0  0  0  0  0
   -1.8017   -0.6681   -3.3281 H   0  0  0  0  0  0  0  0  0  0  0  0
   -0.1601   -1.2849   -3.1045 H   0  0  0  0  0  0  0  0  0  0  0  0
   -1.3074   -2.1646   -4.1319 H   0  0  0  0  0  0  0  0  0  0  0  0
   -0.2835   -1.5112   -0.2725 N   0  0  0  0  0  0  0  0  0  0  0  0
    0.0769   -0.7658    0.9424 C   0  0  0  0  0  0  0  0  0  0  0  0
   -1.1573   -0.1318    1.5315 C   0  0  0  0  0  0  0  0  0  0  0  0
   -1.5467    0.9942    1.2333 O   0  0  0  0  0  0  0  0  0  0  0  0
    0.4587   -2.0097   -0.7289 H   0  0  0  0  0  0  0  0  0  0  0  0
    0.8035    0.0109    0.6862 H   0  0  0  0  0  0  0  0  0  0  0  0
    0.5223   -1.4537    1.6670 H   0  0  0  0  0  0  0  0  0  0  0  0
   -1.7816   -0.9767    2.4430 N   0  0  0  0  0  0  0  0  0  0  0  0
   -2.9801   -0.6259    3.1586 C   0  0  2  0  0  0  0  0  0  0  0  0
   -4.0414   -1.6704    2.8391 C   0  0  0  0  0  0  0  0  0  0  0  0
   -4.0106   -2.3708    1.8294 O   0  0  0  0  0  0  0  0  0  0  0  0
   -3.4595    0.7682    2.7851 C   0  0  0  0  0  0  0  0  0  0  0  0
   -1.3688   -1.8923    2.6131 H   0  0  0  0  0  0  0  0  0  0  0  0
   -2.7351   -0.6678    4.2255 H   0  0  0  0  0  0  0  0  0  0  0  0
   -3.7098    0.8295    1.7197 H   0  0  0  0  0  0  0  0  0  0  0  0
   -4.3550    1.0447    3.3513 H   0  0  0  0  0  0  0  0  0  0  0  0
   -2.6838    1.5145    2.9878 H   0  0  0  0  0  0  0  0  0  0  0  0
   -5.0497   -1.6983    3.7923 N   0  0  0  0  0  0  0  0  0  0  0  0
   -6.1783   -2.5956    3.7073 C   0  0  0  0  0  0  0  0  0  0  0  0
   -4.9841   -1.0952    4.6070 H   0  0  0  0  0  0  0  0  0  0  0  0
   -7.0084   -2.0935    3.1889 H   0  0  0  0  0  0  0  0  0  0  0  0
   -5.8884   -3.4972    3.1477 H   0  0  0  0  0  0  0  0  0  0  0  0
   -6.4975   -2.8800    4.7208 H   0  0  0  0  0  0  0  0  0  0  0  0
  1  3  1  0  0  0  0
  1  7  1  0  0  0  0
  1  2  2  0  0  0  0
 18 19  1  0  0  0  0
 19 24  1  0  0  0  0
 19 20  2  0  0  0  0
 25 26  1  0  0  0  0
 26 34  1  0  0  0  0
 26 27  2  0  0  0  0
  8  9  1  0  0  0  0
  9 17  1  0  0  0  0
  9 10  2  0  0  0  0
 25 28  1  0  0  0  0
  8 11  1  0  0  0  0
 34 35  1  0  0  0  0
 17 18  1  0  0  0  0
 24 25  1  0  0  0  0
  7  8  1  0  0  0  0
  3  4  1  0  0  0  0
  3  5  1  0  0  0  0
  3  6  1  0  0  0  0
 28 31  1  0  0  0  0
 28 32  1  0  0  0  0
 28 33  1  0  0  0  0
 11 14  1  0  0  0  0
 11 15  1  0  0  0  0
 11 16  1  0  0  0  0
 35 37  1  0  0  0  0
 35 38  1  0  0  0  0
 35 39  1  0  0  0  0
 18 22  1  0  0  0  0
 18 23  1  0  0  0  0
 25 30  1  0  0  0  0
  8 13  1  0  0  0  0
 34 36  1  0  0  0  0
 17 21  1  0  0  0  0
  7 12  1  0  0  0  0
 24 29  1  0  0  0  0
M  END
$$$$

  -OEChem-05262214473D

 39 38  0     1  0  0  0  0  0999 V2000
   -3.5200   -4.0268   -1.6943 C   0  0  0  0  0  0  0  0  0  0  0  0
   -2.8702   -4.8827   -1.1054 O   0  0  0  0  0  0  0  0  0  0  0  0
   -4.9704   -4.2579   -1.9614 C   0  0  0  0  0  0  0  0  0  0  0  0
   -5.1456   -4.7573   -2.9278 H   0  0  0  0  0  0  0  0  0  0  0  0
   -5.4379   -4.9112   -1.2072 H   0  0  0  0  0  0  0  0  0  0  0  0
   -5.5954   -3.3510   -1.9864 H   0  0  0  0  0  0  0  0  0  0  0  0
   -3.0424   -2.8131   -2.1606 N   0  0  0  0  0  0  0  0  0  0  0  0
   -1.6755   -2.3891   -2.0077 C   0  0  2  0  0  0  0  0  0  0  0  0
   -1.5782   -1.5673   -0.7292 C   0  0  0  0  0  0  0  0  0  0  0  0
   -2.5448   -1.0064   -0.2171 O   0  0  0  0  0  0  0  0  0  0  0  0
   -1.2087   -1.5823   -3.2094 C   0  0  0  0  0  0  0  0  0  0  0  0
   -3.6915   -2.1888   -2.6360 H   0  0  0  0  0  0  0  0  0  0  0  0
   -1.0721   -3.2977   -1.9053 H   0  0  0  0  0  0  0  0  0  0  0  0
   -1.8017   -0.6681   -3.3281 H   0  0  0  0  0  0  0  0  0  0  0  0
   -0.1601   -1.2849   -3.1045 H   0  0  0  0  0  0  0  0  0  0  0  0
   -1.3074   -2.1646   -4.1319 H   0  0  0  0  0  0  0  0  0  0  0  0
   -0.2835   -1.5112   -0.2725 N   0  0  0  0  0  0  0  0  0  0  0  0
    0.0769   -0.7658    0.9424 C   0  0  0  0  0  0  0  0  0  0  0  0
   -1.1573   -0.1318    1.5315 C   0  0  0  0  0  0  0  0  0  0  0  0
   -1.6986    0.8629    1.0562 O   0  0  0  0  0  0  0  0  0  0  0  0
    0.4587   -2.0097   -0.7289 H   0  0  0  0  0  0  0  0  0  0  0  0
    0.8035    0.0109    0.6862 H   0  0  0  0  0  0  0  0  0  0  0  0
    0.5223   -1.4537    1.6670 H   0  0  0  0  0  0  0  0  0  0  0  0
   -1.5900   -0.8105    2.6658 N   0  0  0  0  0  0  0  0  0  0  0  0
   -2.7444   -0.4211    3.4319 C   0  0  2  0  0  0  0  0  0  0  0  0
   -3.7072   -1.6007    3.4642 C   0  0  0  0  0  0  0  0  0  0  0  0
   -3.6967   -2.4984    2.6245 O   0  0  0  0  0  0  0  0  0  0  0  0
   -3.4125    0.8097    2.8389 C   0  0  0  0  0  0  0  0  0  0  0  0
   -1.0617   -1.6265    2.9704 H   0  0  0  0  0  0  0  0  0  0  0  0
   -2.3930   -0.2078    4.4473 H   0  0  0  0  0  0  0  0  0  0  0  0
   -3.7712    0.6153    1.8216 H   0  0  0  0  0  0  0  0  0  0  0  0
   -4.2737    1.1216    3.4390 H   0  0  0  0  0  0  0  0  0  0  0  0
   -2.7099    1.6486    2.7890 H   0  0  0  0  0  0  0  0  0  0  0  0
   -4.6077   -1.5106    4.5164 N   0  0  0  0  0  0  0  0  0  0  0  0
   -5.6306   -2.5022    4.7542 C   0  0  0  0  0  0  0  0  0  0  0  0
   -4.5311   -0.7414    5.1753 H   0  0  0  0  0  0  0  0  0  0  0  0
   -6.5589   -2.2011    4.2465 H   0  0  0  0  0  0  0  0  0  0  0  0
   -5.2971   -3.4743    4.3619 H   0  0  0  0  0  0  0  0  0  0  0  0
   -5.8149   -2.5867    5.8353 H   0  0  0  0  0  0  0  0  0  0  0  0
  1  3  1  0  0  0  0
  1  7  1  0  0  0  0
  1  2  2  0  0  0  0
 18 19  1  0  0  0  0
 19 24  1  0  0  0  0
 19 20  2  0  0  0  0
 25 26  1  0  0  0  0
 26 34  1  0  0  0  0
 26 27  2  0  0  0  0
  8  9  1  0  0  0  0
  9 17  1  0  0  0  0
  9 10  2  0  0  0  0
 25 28  1  0  0  0  0
  8 11  1  0  0  0  0
 34 35  1  0  0  0  0
 17 18  1  0  0  0  0
 24 25  1  0  0  0  0
  7  8  1  0  0  0  0
  3  4  1  0  0  0  0
  3  5  1  0  0  0  0
  3  6  1  0  0  0  0
 28 31  1  0  0  0  0
 28 32  1  0  0  0  0
 28 33  1  0  0  0  0
 11 14  1  0  0  0  0
 11 15  1  0  0  0  0
 11 16  1  0  0  0  0
 35 37  1  0  0  0  0
 35 38  1  0  0  0  0
 35 39  1  0  0  0  0
 18 22  1  0  0  0  0
 18 23  1  0  0  0  0
 25 30  1  0  0  0  0
  8 13  1  0  0  0  0
 34 36  1  0  0  0  0
 17 21  1  0  0  0  0
  7 12  1  0  0  0  0
 24 29  1  0  0  0  0
M  END
$$$$

  -OEChem-05262214473D

 39 38  0     1  0  0  0  0  0999 V2000
   -3.5200   -4.0268   -1.6943 C   0  0  0  0  0  0  0  0  0  0  0  0
   -2.8702   -4.8827   -1.1054 O   0  0  0  0  0  0  0  0  0  0  0  0
   -4.9704   -4.2579   -1.9614 C   0  0  0  0  0  0  0  0  0  0  0  0
   -5.1456   -4.7573   -2.9278 H   0  0  0  0  0  0  0  0  0  0  0  0
   -5.4379   -4.9112   -1.2072 H   0  0  0  0  0  0  0  0  0  0  0  0
   -5.5954   -3.3510   -1.9864 H   0  0  0  0  0  0  0  0  0  0  0  0
   -3.0424   -2.8131   -2.1606 N   0  0  0  0  0  0  0  0  0  0  0  0
   -1.6755   -2.3891   -2.0077 C   0  0  2  0  0  0  0  0  0  0  0  0
   -1.5782   -1.5673   -0.7292 C   0  0  0  0  0  0  0  0  0  0  0  0
   -2.5448   -1.0064   -0.2171 O   0  0  0  0  0  0  0  0  0  0  0  0
   -1.2087   -1.5823   -3.2094 C   0  0  0  0  0  0  0  0  0  0  0  0
   -3.6915   -2.1888   -2.6360 H   0  0  0  0  0  0  0  0  0  0  0  0
   -1.0721   -3.2977   -1.9053 H   0  0  0  0  0  0  0  0  0  0  0  0
   -1.8017   -0.6681   -3.3281 H   0  0  0  0  0  0  0  0  0  0  0  0
   -0.1601   -1.2849   -3.1045 H   0  0  0  0  0  0  0  0  0  0  0  0
   -1.3074   -2.1646   -4.1319 H   0  0  0  0  0  0  0  0  0  0  0  0
   -0.2835   -1.5112   -0.2725 N   0  0  0  0  0  0  0  0  0  0  0  0
    0.0769   -0.7658    0.9424 C   0  0  0  0  0  0  0  0  0  0  0  0
   -1.1573   -0.1318    1.5315 C   0  0  0  0  0  0  0  0  0  0  0  0
   -1.8514    0.6832    0.9295 O   0  0  0  0  0  0  0  0  0  0  0  0
    0.4587   -2.0097   -0.7289 H   0  0  0  0  0  0  0  0  0  0  0  0
    0.8035    0.0109    0.6862 H   0  0  0  0  0  0  0  0  0  0  0  0
    0.5223   -1.4537    1.6670 H   0  0  0  0  0  0  0  0  0  0  0  0
   -1.3974   -0.5835    2.8249 N   0  0  0  0  0  0  0  0  0  0  0  0
   -2.5078   -0.1415    3.6268 C   0  0  2  0  0  0  0  0  0  0  0  0
   -3.3235   -1.3671    4.0168 C   0  0  0  0  0  0  0  0  0  0  0  0
   -3.2939   -2.4213    3.3853 O   0  0  0  0  0  0  0  0  0  0  0  0
   -3.3654    0.8661    2.8770 C   0  0  0  0  0  0  0  0  0  0  0  0
   -0.7531   -1.2631    3.2258 H   0  0  0  0  0  0  0  0  0  0  0  0
   -2.0849    0.3180    4.5268 H   0  0  0  0  0  0  0  0  0  0  0  0
   -3.7977    0.4237    1.9721 H   0  0  0  0  0  0  0  0  0  0  0  0
   -4.1933    1.2227    3.4986 H   0  0  0  0  0  0  0  0  0  0  0  0
   -2.7702    1.7333    2.5713 H   0  0  0  0  0  0  0  0  0  0  0  0
   -4.1210   -1.1312    5.1279 N   0  0  0  0  0  0  0  0  0  0  0  0
   -4.9971   -2.1347    5.6859 C   0  0  0  0  0  0  0  0  0  0  0  0
   -4.0675   -0.2334    5.5999 H   0  0  0  0  0  0  0  0  0  0  0  0
   -5.9987   -2.0355    5.2420 H   0  0  0  0  0  0  0  0  0  0  0  0
   -4.5960   -3.1350    5.4656 H   0  0  0  0  0  0  0  0  0  0  0  0
   -5.0639   -1.9982    6.7753 H   0  0  0  0  0  0  0  0  0  0  0  0
  1  3  1  0  0  0  0
  1  7  1  0  0  0  0
  1  2  2  0  0  0  0
 18 19  1  0  0  0  0
 19 24  1  0  0  0  0
 19 20  2  0  0  0  0
 25 26  1  0  0  0  0
 26 34  1  0  0  0  0
 26 27  2  0  0  0  0
  8  9  1  0  0  0  0
  9 17  1  0  0  0  0
  9 10  2  0  0  0  0
 25 28  1  0  0  0  0
  8 11  1  0  0  0  0
 34 35  1  0  0  0  0
 17 18  1  0  0  0  0
 24 25  1  0  0  0  0
  7  8  1  0  0  0  0
  3  4  1  0  0  0  0
  3  5  1  0  0  0  0
  3  6  1  0  0  0  0
 28 31  1  0  0  0  0
 28 32  1  0  0  0  0
 28 33  1  0  0  0  0
 11 14  1  0  0  0  0
 11 15  1  0  0  0  0
 11 16  1  0  0  0  0
 35 37  1  0  0  0  0
 35 38  1  0  0  0  0
 35 39  1  0  0  0  0
 18 22  1  0  0  0  0
 18 23  1  0  0  0  0
 25 30  1  0  0  0  0
  8 13  1  0  0  0  0
 34 36  1  0  0  0  0
 17 21  1  0  0  0  0
  7 12  1  0  0  0  0
 24 29  1  0  0  0  0
M  END
$$$$

  -OEChem-05262214473D

 39 38  0     1  0  0  0  0  0999 V2000
   -3.5200   -4.0268   -1.6943 C   0  0  0  0  0  0  0  0  0  0  0  0
   -2.8702   -4.8827   -1.1054 O   0  0  0  0  0  0  0  0  0  0  0  0
   -4.9704   -4.2579   -1.9614 C   0  0  0  0  0  0  0  0  0  0  0  0
   -5.1456   -4.7573   -2.9278 H   0  0  0  0  0  0  0  0  0  0  0  0
   -5.4379   -4.9112   -1.2072 H   0  0  0  0  0  0  0  0  0  0  0  0
   -5.5954   -3.3510   -1.9864 H   0  0  0  0  0  0  0  0  0  0  0  0
   -3.0424   -2.8131   -2.1606 N   0  0  0  0  0  0  0  0  0  0  0  0
   -1.6755   -2.3891   -2.0077 C   0  0  2  0  0  0  0  0  0  0  0  0
   -1.5782   -1.5673   -0.7292 C   0  0  0  0  0  0  0  0  0  0  0  0
   -2.5448   -1.0064   -0.2171 O   0  0  0  0  0  0  0  0  0  0  0  0
   -1.2087   -1.5823   -3.2094 C   0  0  0  0  0  0  0  0  0  0  0  0
   -3.6915   -2.1888   -2.6360 H   0  0  0  0  0  0  0  0  0  0  0  0
   -1.0721   -3.2977   -1.9053 H   0  0  0  0  0  0  0  0  0  0  0  0
   -1.8017   -0.6681   -3.3281 H   0  0  0  0  0  0  0  0  0  0  0  0
   -0.1601   -1.2849   -3.1045 H   0  0  0  0  0  0  0  0  0  0  0  0
   -1.3074   -2.1646   -4.1319 H   0  0  0  0  0  0  0  0  0  0  0  0
   -0.2835   -1.5112   -0.2725 N   0  0  0  0  0  0  0  0  0  0  0  0
    0.0769   -0.7658    0.9424 C   0  0  0  0  0  0  0  0  0  0  0  0
   -1.1573   -0.1318    1.5315 C   0  0  0  0  0  0  0  0  0  0  0  0
   -1.9945    0.4674    0.8619 O   0  0  0  0  0  0  0  0  0  0  0  0
    0.4587   -2.0097   -0.7289 H   0  0  0  0  0  0  0  0  0  0  0  0
    0.8035    0.0109    0.6862 H   0  0  0  0  0  0  0  0  0  0  0  0
    0.5223   -1.4537    1.6670 H   0  0  0  0  0  0  0  0  0  0  0  0
   -1.2170   -0.3109    2.9095 N   0  0  0  0  0  0  0  0  0  0  0  0
   -2.2863    0.1938    3.7300 C   0  0  2  0  0  0  0  0  0  0  0  0
   -2.9162   -0.9855    4.4593 C   0  0  0  0  0  0  0  0  0  0  0  0
   -2.8299   -2.1449    4.0600 O   0  0  0  0  0  0  0  0  0  0  0  0
   -3.3214    0.9333    2.8967 C   0  0  0  0  0  0  0  0  0  0  0  0
   -0.4640   -0.8267    3.3619 H   0  0  0  0  0  0  0  0  0  0  0  0
   -1.8319    0.8740    4.4586 H   0  0  0  0  0  0  0  0  0  0  0  0
   -3.7876    0.2679    2.1610 H   0  0  0  0  0  0  0  0  0  0  0  0
   -4.1194    1.3411    3.5259 H   0  0  0  0  0  0  0  0  0  0  0  0
   -2.8608    1.7630    2.3496 H   0  0  0  0  0  0  0  0  0  0  0  0
   -3.6226   -0.5859    5.5852 N   0  0  0  0  0  0  0  0  0  0  0  0
   -4.3210   -1.5183    6.4390 C   0  0  0  0  0  0  0  0  0  0  0  0
   -3.6248    0.3942    5.8519 H   0  0  0  0  0  0  0  0  0  0  0  0
   -5.3660   -1.6080    6.1074 H   0  0  0  0  0  0  0  0  0  0  0  0
   -3.8330   -2.5025    6.3834 H   0  0  0  0  0  0  0  0  0  0  0  0
   -4.2957   -1.1546    7.4768 H   0  0  0  0  0  0  0  0  0  0  0  0
  1  3  1  0  0  0  0
  1  7  1  0  0  0  0
  1  2  2  0  0  0  0
 18 19  1  0  0  0  0
 19 24  1  0  0  0  0
 19 20  2  0  0  0  0
 25 26  1  0  0  0  0
 26 34  1  0  0  0  0
 26 27  2  0  0  0  0
  8  9  1  0  0  0  0
  9 17  1  0  0  0  0
  9 10  2  0  0  0  0
 25 28  1  0  0  0  0
  8 11  1  0  0  0  0
 34 35  1  0  0  0  0
 17 18  1  0  0  0  0
 24 25  1  0  0  0  0
  7  8  1  0  0  0  0
  3  4  1  0  0  0  0
  3  5  1  0  0  0  0
  3  6  1  0  0  0  0
 28 31  1  0  0  0  0
 28 32  1  0  0  0  0
 28 33  1  0  0  0  0
 11 14  1  0  0  0  0
 11 15  1  0  0  0  0
 11 16  1  0  0  0  0
 35 37  1  0  0  0  0
 35 38  1  0  0  0  0
 35 39  1  0  0  0  0
 18 22  1  0  0  0  0
 18 23  1  0  0  0  0
 25 30  1  0  0  0  0
  8 13  1  0  0  0  0
 34 36  1  0  0  0  0
 17 21  1  0  0  0  0
  7 12  1  0  0  0  0
 24 29  1  0  0  0  0
M  END
$$$$

  -OEChem-05262214473D

 39 38  0     1  0  0  0  0  0999 V2000
   -3.5200   -4.0268   -1.6943 C   0  0  0  0  0  0  0  0  0  0  0  0
   -2.8702   -4.8827   -1.1054 O   0  0  0  0  0  0  0  0  0  0  0  0
   -4.9704   -4.2579   -1.9614 C   0  0  0  0  0  0  0  0  0  0  0  0
   -5.1456   -4.7573   -2.9278 H   0  0  0  0  0  0  0  0  0  0  0  0
   -5.4379   -4.9112   -1.2072 H   0  0  0  0  0  0  0  0  0  0  0  0
   -5.5954   -3.3510   -1.9864 H   0  0  0  0  0  0  0  0  0  0  0  0
   -3.0424   -2.8131   -2.1606 N   0  0  0  0  0  0  0  0  0  0  0  0
   -1.6755   -2.3891   -2.0077 C   0  0  2  0  0  0  0  0  0  0  0  0
   -1.5782   -1.5673   -0.7292 C   0  0  0  0  0  0  0  0  0  0  0  0
   -2.5448   -1.0064   -0.2171 O   0  0  0  0  0  0  0  0  0  0  0  0
   -1.2087   -1.5823   -3.2094 C   0  0  0  0  0  0  0  0  0  0  0  0
   -3.6915   -2.1888   -2.6360 H   0  0  0  0  0  0  0  0  0  0  0  0
   -1.0721   -3.2977   -1.9053 H   0  0  0  0  0  0  0  0  0  0  0  0
   -1.8017   -0.6681   -3.3281 H   0  0  0  0  0  0  0  0  0  0  0  0
   -0.1601   -1.2849   -3.1045 H   0  0  0  0  0  0  0  0  0  0  0  0
   -1.3074   -2.1646   -4.1319 H   0  0  0  0  0  0  0  0  0  0  0  0
   -0.2835   -1.5112   -0.2725 N   0  0  0  0  0  0  0  0  0  0  0  0
    0.0769   -0.7658    0.9424 C   0  0  0  0  0  0  0  0  0  0  0  0
   -1.1573   -0.1318    1.5315 C   0  0  0  0  0  0  0  0  0  0  0  0
   -2.1184    0.2301    0.8578 O   0  0  0  0  0  0  0  0  0  0  0  0
    0.4587   -2.0097   -0.7289 H   0  0  0  0  0  0  0  0  0  0  0  0
    0.8035    0.0109    0.6862 H   0  0  0  0  0  0  0  0  0  0  0  0
    0.5223   -1.4537    1.6670 H   0  0  0  0  0  0  0  0  0  0  0  0
   -1.0611   -0.0115    2.9138 N   0  0  0  0  0  0  0  0  0  0  0  0
   -2.0950    0.5619    3.7346 C   0  0  2  0  0  0  0  0  0  0  0  0
   -2.5133   -0.4820    4.7616 C   0  0  0  0  0  0  0  0  0  0  0  0
   -2.3362   -1.6880    4.6026 O   0  0  0  0  0  0  0  0  0  0  0  0
   -3.2836    1.0069    2.8968 C   0  0  0  0  0  0  0  0  0  0  0  0
   -0.2141   -0.3471    3.3694 H   0  0  0  0  0  0  0  0  0  0  0  0
   -1.6511    1.4221    4.2474 H   0  0  0  0  0  0  0  0  0  0  0  0
   -3.7415    0.1584    2.3754 H   0  0  0  0  0  0  0  0  0  0  0  0
   -4.0571    1.4688    3.5192 H   0  0  0  0  0  0  0  0  0  0  0  0
   -2.9754    1.7354    2.1391 H   0  0  0  0  0  0  0  0  0  0  0  0
   -3.1466    0.0881    5.8571 N   0  0  0  0  0  0  0  0  0  0  0  0
   -3.6483   -0.6948    6.9623 C   0  0  0  0  0  0  0  0  0  0  0  0
   -3.2333    1.0985    5.9142 H   0  0  0  0  0  0  0  0  0  0  0  0
   -4.7039   -0.9476    6.7839 H   0  0  0  0  0  0  0  0  0  0  0  0
   -3.0601   -1.6199    7.0529 H   0  0  0  0  0  0  0  0  0  0  0  0
   -3.5627   -0.1133    7.8921 H   0  0  0  0  0  0  0  0  0  0  0  0
  1  3  1  0  0  0  0
  1  7  1  0  0  0  0
  1  2  2  0  0  0  0
 18 19  1  0  0  0  0
 19 24  1  0  0  0  0
 19 20  2  0  0  0  0
 25 26  1  0  0  0  0
 26 34  1  0  0  0  0
 26 27  2  0  0  0  0
  8  9  1  0  0  0  0
  9 17  1  0  0  0  0
  9 10  2  0  0  0  0
 25 28  1  0  0  0  0
  8 11  1  0  0  0  0
 34 35  1  0  0  0  0
 17 18  1  0  0  0  0
 24 25  1  0  0  0  0
  7  8  1  0  0  0  0
  3  4  1  0  0  0  0
  3  5  1  0  0  0  0
  3  6  1  0  0  0  0
 28 31  1  0  0  0  0
 28 32  1  0  0  0  0
 28 33  1  0  0  0  0
 11 14  1  0  0  0  0
 11 15  1  0  0  0  0
 11 16  1  0  0  0  0
 35 37  1  0  0  0  0
 35 38  1  0  0  0  0
 35 39  1  0  0  0  0
 18 22  1  0  0  0  0
 18 23  1  0  0  0  0
 25 30  1  0  0  0  0
  8 13  1  0  0  0  0
 34 36  1  0  0  0  0
 17 21  1  0  0  0  0
  7 12  1  0  0  0  0
 24 29  1  0  0  0  0
M  END
$$$$

  -OEChem-05262214473D

 39 38  0     1  0  0  0  0  0999 V2000
   -3.5200   -4.0268   -1.6943 C   0  0  0  0  0  0  0  0  0  0  0  0
   -2.8702   -4.8827   -1.1054 O   0  0  0  0  0  0  0  0  0  0  0  0
   -4.9704   -4.2579   -1.9614 C   0  0  0  0  0  0  0  0  0  0  0  0
   -5.1456   -4.7573   -2.9278 H   0  0  0  0  0  0  0  0  0  0  0  0
   -5.4379   -4.9112   -1.2072 H   0  0  0  0  0  0  0  0  0  0  0  0
   -5.5954   -3.3510   -1.9864 H   0  0  0  0  0  0  0  0  0  0  0  0
   -3.0424   -2.8131   -2.1606 N   0  0  0  0  0  0  0  0  0  0  0  0
   -1.6755   -2.3891   -2.0077 C   0  0  2  0  0  0  0  0  0  0  0  0
   -1.5782   -1.5673   -0.7292 C   0  0  0  0  0  0  0  0  0  0  0  0
   -2.5448   -1.0064   -0.2171 O   0  0  0  0  0  0  0  0  0  0  0  0
   -1.2087   -1.5823   -3.2094 C   0  0  0  0  0  0  0  0  0  0  0  0
   -3.6915   -2.1888   -2.6360 H   0  0  0  0  0  0  0  0  0  0  0  0
   -1.0721   -3.2977   -1.9053 H   0  0  0  0  0  0  0  0  0  0  0  0
   -1.8017   -0.6681   -3.3281 H   0  0  0  0  0  0  0  0  0  0  0  0
   -0.1601   -1.2849   -3.1045 H   0  0  0  0  0  0  0  0  0  0  0  0
   -1.3074   -2.1646   -4.1319 H   0  0  0  0  0  0  0  0  0  0  0  0
   -0.2835   -1.5112   -0.2725 N   0  0  0  0  0  0  0  0  0  0  0  0
    0.0769   -0.7658    0.9424 C   0  0  0  0  0  0  0  0  0  0  0  0
   -1.1573   -0.1318    1.5315 C   0  0  0  0  0  0  0  0  0  0  0  0
   -2.2144   -0.0126    0.9177 O   0  0  0  0  0  0  0  0  0  0  0  0
    0.4587   -2.0097   -0.7289 H   0  0  0  0  0  0  0  0  0  0  0  0
    0.8035    0.0109    0.6862 H   0  0  0  0  0  0  0  0  0  0  0  0
    0.5223   -1.4537    1.6670 H   0  0  0  0  0  0  0  0  0  0  0  0
   -0.9404    0.2944    2.8376 N   0  0  0  0  0  0  0  0  0  0  0  0
   -1.9470    0.9378    3.6402 C   0  0  2  0  0  0  0  0  0  0  0  0
   -2.1422    0.1091    4.9030 C   0  0  0  0  0  0  0  0  0  0  0  0
   -1.8465   -1.0818    4.9762 O   0  0  0  0  0  0  0  0  0  0  0  0
   -3.2545    1.0818    2.8771 C   0  0  0  0  0  0  0  0  0  0  0  0
   -0.0203    0.1431    3.2478 H   0  0  0  0  0  0  0  0  0  0  0  0
   -1.5550    1.9251    3.9075 H   0  0  0  0  0  0  0  0  0  0  0  0
   -3.6626    0.1027    2.6006 H   0  0  0  0  0  0  0  0  0  0  0  0
   -4.0105    1.5970    3.4789 H   0  0  0  0  0  0  0  0  0  0  0  0
   -3.1063    1.6527    1.9541 H   0  0  0  0  0  0  0  0  0  0  0  0
   -2.7253    0.8449    5.9251 N   0  0  0  0  0  0  0  0  0  0  0  0
   -3.0248    0.2795    7.2199 C   0  0  0  0  0  0  0  0  0  0  0  0
   -2.9196    1.8317    5.7824 H   0  0  0  0  0  0  0  0  0  0  0  0
   -4.0575   -0.0993    7.2253 H   0  0  0  0  0  0  0  0  0  0  0  0
   -2.3299   -0.5474    7.4284 H   0  0  0  0  0  0  0  0  0  0  0  0
   -2.9147    1.0546    7.9927 H   0  0  0  0  0  0  0  0  0  0  0  0
  1  3  1  0  0  0  0
  1  7  1  0  0  0  0
  1  2  2  0  0  0  0
 18 19  1  0  0  0  0
 19 24  1  0  0  0  0
 19 20  2  0  0  0  0
 25 26  1  0  0  0  0
 26 34  1  0  0  0  0
 26 27  2  0  0  0  0
  8  9  1  0  0  0  0
  9 17  1  0  0  0  0
  9 10  2  0  0  0  0
 25 28  1  0  0  0  0
  8 11  1  0  0  0  0
 34 35  1  0  0  0  0
 17 18  1  0  0  0  0
 24 25  1  0  0  0  0
  7  8  1  0  0  0  0
  3  4  1  0  0  0  0
  3  5  1  0  0  0  0
  3  6  1  0  0  0  0
 28 31  1  0  0  0  0
 28 32  1  0  0  0  0
 28 33  1  0  0  0  0
 11 14  1  0  0  0  0
 11 15  1  0  0  0  0
 11 16  1  0  0  0  0
 35 37  1  0  0  0  0
 35 38  1  0  0  0  0
 35 39  1  0  0  0  0
 18 22  1  0  0  0  0
 18 23  1  0  0  0  0
 25 30  1  0  0  0  0
  8 13  1  0  0  0  0
 34 36  1  0  0  0  0
 17 21  1  0  0  0  0
  7 12  1  0  0  0  0
 24 29  1  0  0  0  0
M  END
$$$$

  -OEChem-05262214473D

 39 38  0     1  0  0  0  0  0999 V2000
   -3.5200   -4.0268   -1.6943 C   0  0  0  0  0  0  0  0  0  0  0  0
   -2.8702   -4.8827   -1.1054 O   0  0  0  0  0  0  0  0  0  0  0  0
   -4.9704   -4.2579   -1.9614 C   0  0  0  0  0  0  0  0  0  0  0  0
   -5.1456   -4.7573   -2.9278 H   0  0  0  0  0  0  0  0  0  0  0  0
   -5.4379   -4.9112   -1.2072 H   0  0  0  0  0  0  0  0  0  0  0  0
   -5.5954   -3.3510   -1.9864 H   0  0  0  0  0  0  0  0  0  0  0  0
   -3.0424   -2.8131   -2.1606 N   0  0  0  0  0  0  0  0  0  0  0  0
   -1.6755   -2.3891   -2.0077 C   0  0  2  0  0  0  0  0  0  0  0  0
   -1.5782   -1.5673   -0.7292 C   0  0  0  0  0  0  0  0  0  0  0  0
   -2.5448   -1.0064   -0.2171 O   0  0  0  0  0  0  0  0  0  0  0  0
   -1.2087   -1.5823   -3.2094 C   0  0  0  0  0  0  0  0  0  0  0  0
   -3.6915   -2.1888   -2.6360 H   0  0  0  0  0  0  0  0  0  0  0  0
   -1.0721   -3.2977   -1.9053 H   0  0  0  0  0  0  0  0  0  0  0  0
   -1.8017   -0.6681   -3.3281 H   0  0  0  0  0  0  0  0  0  0  0  0
   -0.1601   -1.2849   -3.1045 H   0  0  0  0  0  0  0  0  0  0  0  0
   -1.3074   -2.1646   -4.1319 H   0  0  0  0  0  0  0  0  0  0  0  0
   -0.2835   -1.5112   -0.2725 N   0  0  0  0  0  0  0  0  0  0  0  0
    0.0769   -0.7658    0.9424 C   0  0  0  0  0  0  0  0  0  0  0  0
   -1.1693   -0.4460    1.7279 C   0  0  0  0  0  0  0  0  0  0  0  0
   -2.2970   -0.7750    1.3695 O   0  0  0  0  0  0  0  0  0  0  0  0
    0.4587   -2.0097   -0.7289 H   0  0  0  0  0  0  0  0  0  0  0  0
    0.5820    0.1623    0.6590 H   0  0  0  0  0  0  0  0  0  0  0  0
    0.7524   -1.3747    1.5503 H   0  0  0  0  0  0  0  0  0  0  0  0
   -0.8754    0.2610    2.8890 N   0  0  0  0  0  0  0  0  0  0  0  0
   -1.8759    0.6994    3.8262 C   0  0  2  0  0  0  0  0  0  0  0  0
   -1.5413    0.1006    5.1859 C   0  0  0  0  0  0  0  0  0  0  0  0
   -0.8485   -0.9056    5.3236 O   0  0  0  0  0  0  0  0  0  0  0  0
   -3.2703    0.2885    3.3795 C   0  0  0  0  0  0  0  0  0  0  0  0
    0.0996    0.4800    3.0867 H   0  0  0  0  0  0  0  0  0  0  0  0
   -1.8027    1.7911    3.8792 H   0  0  0  0  0  0  0  0  0  0  0  0
   -3.3628   -0.8021    3.3205 H   0  0  0  0  0  0  0  0  0  0  0  0
   -4.0328    0.6474    4.0787 H   0  0  0  0  0  0  0  0  0  0  0  0
   -3.4978    0.6955    2.3884 H   0  0  0  0  0  0  0  0  0  0  0  0
   -2.1427    0.7967    6.2250 N   0  0  0  0  0  0  0  0  0  0  0  0
   -1.9882    0.4171    7.6100 C   0  0  0  0  0  0  0  0  0  0  0  0
   -2.6849    1.6307    6.0198 H   0  0  0  0  0  0  0  0  0  0  0  0
   -2.8098   -0.2541    7.9006 H   0  0  0  0  0  0  0  0  0  0  0  0
   -1.0271   -0.1011    7.7430 H   0  0  0  0  0  0  0  0  0  0  0  0
   -2.0098    1.3176    8.2414 H   0  0  0  0  0  0  0  0  0  0  0  0
  1  3  1  0  0  0  0
  1  7  1  0  0  0  0
  1  2  2  0  0  0  0
 18 19  1  0  0  0  0
 19 24  1  0  0  0  0
 19 20  2  0  0  0  0
 25 26  1  0  0  0  0
 26 34  1  0  0  0  0
 26 27  2  0  0  0  0
  8  9  1  0  0  0  0
  9 17  1  0  0  0  0
  9 10  2  0  0  0  0
 25 28  1  0  0  0  0
  8 11  1  0  0  0  0
 34 35  1  0  0  0  0
 17 18  1  0  0  0  0
 24 25  1  0  0  0  0
  7  8  1  0  0  0  0
  3  4  1  0  0  0  0
  3  5  1  0  0  0  0
  3  6  1  0  0  0  0
 28 31  1  0  0  0  0
 28 32  1  0  0  0  0
 28 33  1  0  0  0  0
 11 14  1  0  0  0  0
 11 15  1  0  0  0  0
 11 16  1  0  0  0  0
 35 37  1  0  0  0  0
 35 38  1  0  0  0  0
 35 39  1  0  0  0  0
 18 22  1  0  0  0  0
 18 23  1  0  0  0  0
 25 30  1  0  0  0  0
  8 13  1  0  0  0  0
 34 36  1  0  0  0  0
 17 21  1  0  0  0  0
  7 12  1  0  0  0  0
 24 29  1  0  0  0  0
M  END
$$$$

  -OEChem-05262214473D

 39 38  0     1  0  0  0  0  0999 V2000
   -3.5200   -4.0268   -1.6943 C   0  0  0  0  0  0  0  0  0  0  0  0
   -2.8702   -4.8827   -1.1054 O   0  0  0  0  0  0  0  0  0  0  0  0
   -4.9704   -4.2579   -1.9614 C   0  0  0  0  0  0  0  0  0  0  0  0
   -5.1456   -4.7573   -2.9278 H   0  0  0  0  0  0  0  0  0  0  0  0
   -5.4379   -4.9112   -1.2072 H   0  0  0  0  0  0  0  0  0  0  0  0
   -5.5954   -3.3510   -1.9864 H   0  0  0  0  0  0  0  0  0  0  0  0
   -3.0424   -2.8131   -2.1606 N   0  0  0  0  0  0  0  0  0  0  0  0
   -1.6755   -2.3891   -2.0077 C   0  0  2  0  0  0  0  0  0  0  0  0
   -1.5782   -1.5673   -0.7292 C   0  0  0  0  0  0  0  0  0  0  0  0
   -2.5448   -1.0064   -0.2171 O   0  0  0  0  0  0  0  0  0  0  0  0
   -1.2087   -1.5823   -3.2094 C   0  0  0  0  0  0  0  0  0  0  0  0
   -3.6915   -2.1888   -2.6360 H   0  0  0  0  0  0  0  0  0  0  0  0
   -1.0721   -3.2977   -1.9053 H   0  0  0  0  0  0  0  0  0  0  0  0
   -1.8017   -0.6681   -3.3281 H   0  0  0  0  0  0  0  0  0  0  0  0
   -0.1601   -1.2849   -3.1045 H   0  0  0  0  0  0  0  0  0  0  0  0
   -1.3074   -2.1646   -4.1319 H   0  0  0  0  0  0  0  0  0  0  0  0
   -0.2835   -1.5112   -0.2725 N   0  0  0  0  0  0  0  0  0  0  0  0
    0.0769   -0.7658    0.9424 C   0  0  0  0  0  0  0  0  0  0  0  0
   -1.1693   -0.4460    1.7279 C   0  0  0  0  0  0  0  0  0  0  0  0
   -2.2529   -0.9877    1.5261 O   0  0  0  0  0  0  0  0  0  0  0  0
    0.4587   -2.0097   -0.7289 H   0  0  0  0  0  0  0  0  0  0  0  0
    0.5820    0.1623    0.6590 H   0  0  0  0  0  0  0  0  0  0  0  0
    0.7524   -1.3747    1.5503 H   0  0  0  0  0  0  0  0  0  0  0  0
   -0.9314    0.5287    2.6912 N   0  0  0  0  0  0  0  0  0  0  0  0
   -1.9452    1.0280    3.5825 C   0  0  2  0  0  0  0  0  0  0  0  0
   -1.4751    0.7878    5.0110 C   0  0  0  0  0  0  0  0  0  0  0  0
   -0.6426   -0.0663    5.3086 O   0  0  0  0  0  0  0  0  0  0  0  0
   -3.2846    0.3534    3.3303 C   0  0  0  0  0  0  0  0  0  0  0  0
    0.0101    0.9093    2.7700 H   0  0  0  0  0  0  0  0  0  0  0  0
   -2.0244    2.1051    3.3997 H   0  0  0  0  0  0  0  0  0  0  0  0
   -3.2249   -0.7265    3.5084 H   0  0  0  0  0  0  0  0  0  0  0  0
   -4.0613    0.7547    3.9898 H   0  0  0  0  0  0  0  0  0  0  0  0
   -3.6069    0.5021    2.2941 H   0  0  0  0  0  0  0  0  0  0  0  0
   -2.1263    1.6100    5.9199 N   0  0  0  0  0  0  0  0  0  0  0  0
   -1.8643    1.5643    7.3395 C   0  0  0  0  0  0  0  0  0  0  0  0
   -2.7884    2.3024    5.5822 H   0  0  0  0  0  0  0  0  0  0  0  0
   -2.5708    0.8723    7.8212 H   0  0  0  0  0  0  0  0  0  0  0  0
   -0.8352    1.2158    7.5113 H   0  0  0  0  0  0  0  0  0  0  0  0
   -1.9870    2.5701    7.7675 H   0  0  0  0  0  0  0  0  0  0  0  0
  1  3  1  0  0  0  0
  1  7  1  0  0  0  0
  1  2  2  0  0  0  0
 18 19  1  0  0  0  0
 19 24  1  0  0  0  0
 19 20  2  0  0  0  0
 25 26  1  0  0  0  0
 26 34  1  0  0  0  0
 26 27  2  0  0  0  0
  8  9  1  0  0  0  0
  9 17  1  0  0  0  0
  9 10  2  0  0  0  0
 25 28  1  0  0  0  0
  8 11  1  0  0  0  0
 34 35  1  0  0  0  0
 17 18  1  0  0  0  0
 24 25  1  0  0  0  0
  7  8  1  0  0  0  0
  3  4  1  0  0  0  0
  3  5  1  0  0  0  0
  3  6  1  0  0  0  0
 28 31  1  0  0  0  0
 28 32  1  0  0  0  0
 28 33  1  0  0  0  0
 11 14  1  0  0  0  0
 11 15  1  0  0  0  0
 11 16  1  0  0  0  0
 35 37  1  0  0  0  0
 35 38  1  0  0  0  0
 35 39  1  0  0  0  0
 18 22  1  0  0  0  0
 18 23  1  0  0  0  0
 25 30  1  0  0  0  0
  8 13  1  0  0  0  0
 34 36  1  0  0  0  0
 17 21  1  0  0  0  0
  7 12  1  0  0  0  0
 24 29  1  0  0  0  0
M  END
$$$$

  -OEChem-05262214473D

 39 38  0     1  0  0  0  0  0999 V2000
   -3.5200   -4.0268   -1.6943 C   0  0  0  0  0  0  0  0  0  0  0  0
   -2.8702   -4.8827   -1.1054 O   0  0  0  0  0  0  0  0  0  0  0  0
   -4.9704   -4.2579   -1.9614 C   0  0  0  0  0  0  0  0  0  0  0  0
   -5.1456   -4.7573   -2.9278 H   0  0  0  0  0  0  0  0  0  0  0  0
   -5.4379   -4.9112   -1.2072 H   0  0  0  0  0  0  0  0  0  0  0  0
   -5.5954   -3.3510   -1.9864 H   0  0  0  0  0  0  0  0  0  0  0  0
   -3.0424   -2.8131   -2.1606 N   0  0  0  0  0  0  0  0  0  0  0  0
   -1.6755   -2.3891   -2.0077 C   0  0  2  0  0  0  0  0  0  0  0  0
   -1.5782   -1.5673   -0.7292 C   0  0  0  0  0  0  0  0  0  0  0  0
   -2.5448   -1.0064   -0.2171 O   0  0  0  0  0  0  0  0  0  0  0  0
   -1.2087   -1.5823   -3.2094 C   0  0  0  0  0  0  0  0  0  0  0  0
   -3.6915   -2.1888   -2.6360 H   0  0  0  0  0  0  0  0  0  0  0  0
   -1.0721   -3.2977   -1.9053 H   0  0  0  0  0  0  0  0  0  0  0  0
   -1.8017   -0.6681   -3.3281 H   0  0  0  0  0  0  0  0  0  0  0  0
   -0.1601   -1.2849   -3.1045 H   0  0  0  0  0  0  0  0  0  0  0  0
   -1.3074   -2.1646   -4.1319 H   0  0  0  0  0  0  0  0  0  0  0  0
   -0.2835   -1.5112   -0.2725 N   0  0  0  0  0  0  0  0  0  0  0  0
    0.0769   -0.7658    0.9424 C   0  0  0  0  0  0  0  0  0  0  0  0
   -1.1693   -0.4460    1.7279 C   0  0  0  0  0  0  0  0  0  0  0  0
   -2.1731   -1.1537    1.7203 O   0  0  0  0  0  0  0  0  0  0  0  0
    0.4587   -2.0097   -0.7289 H   0  0  0  0  0  0  0  0  0  0  0  0
    0.5820    0.1623    0.6590 H   0  0  0  0  0  0  0  0  0  0  0  0
    0.7524   -1.3747    1.5503 H   0  0  0  0  0  0  0  0  0  0  0  0
   -1.0325    0.7373    2.4458 N   0  0  0  0  0  0  0  0  0  0  0  0
   -2.0698    1.2838    3.2806 C   0  0  2  0  0  0  0  0  0  0  0  0
   -1.5135    1.4231    4.6915 C   0  0  0  0  0  0  0  0  0  0  0  0
   -0.5577    0.7689    5.1033 O   0  0  0  0  0  0  0  0  0  0  0  0
   -3.3100    0.4037    3.2697 C   0  0  0  0  0  0  0  0  0  0  0  0
   -0.1515    1.2441    2.3772 H   0  0  0  0  0  0  0  0  0  0  0  0
   -2.3072    2.2759    2.8814 H   0  0  0  0  0  0  0  0  0  0  0  0
   -3.0916   -0.5946    3.6662 H   0  0  0  0  0  0  0  0  0  0  0  0
   -4.1082    0.8354    3.8825 H   0  0  0  0  0  0  0  0  0  0  0  0
   -3.6914    0.2803    2.2504 H   0  0  0  0  0  0  0  0  0  0  0  0
   -2.2369    2.3325    5.4503 N   0  0  0  0  0  0  0  0  0  0  0  0
   -1.9142    2.6312    6.8260 C   0  0  0  0  0  0  0  0  0  0  0  0
   -3.0029    2.8435    5.0215 H   0  0  0  0  0  0  0  0  0  0  0  0
   -2.4962    1.9755    7.4904 H   0  0  0  0  0  0  0  0  0  0  0  0
   -0.8402    2.4640    6.9951 H   0  0  0  0  0  0  0  0  0  0  0  0
   -2.1600    3.6817    7.0405 H   0  0  0  0  0  0  0  0  0  0  0  0
  1  3  1  0  0  0  0
  1  7  1  0  0  0  0
  1  2  2  0  0  0  0
 18 19  1  0  0  0  0
 19 24  1  0  0  0  0
 19 20  2  0  0  0  0
 25 26  1  0  0  0  0
 26 34  1  0  0  0  0
 26 27  2  0  0  0  0
  8  9  1  0  0  0  0
  9 17  1  0  0  0  0
  9 10  2  0  0  0  0
 25 28  1  0  0  0  0
  8 11  1  0  0  0  0
 34 35  1  0  0  0  0
 17 18  1  0  0  0  0
 24 25  1  0  0  0  0
  7  8  1  0  0  0  0
  3  4  1  0  0  0  0
  3  5  1  0  0  0  0
  3  6  1  0  0  0  0
 28 31  1  0  0  0  0
 28 32  1  0  0  0  0
 28 33  1  0  0  0  0
 11 14  1  0  0  0  0
 11 15  1  0  0  0  0
 11 16  1  0  0  0  0
 35 37  1  0  0  0  0
 35 38  1  0  0  0  0
 35 39  1  0  0  0  0
 18 22  1  0  0  0  0
 18 23  1  0  0  0  0
 25 30  1  0  0  0  0
  8 13  1  0  0  0  0
 34 36  1  0  0  0  0
 17 21  1  0  0  0  0
  7 12  1  0  0  0  0
 24 29  1  0  0  0  0
M  END
$$$$

  -OEChem-05262214473D

 39 38  0     1  0  0  0  0  0999 V2000
   -3.5200   -4.0268   -1.6943 C   0  0  0  0  0  0  0  0  0  0  0  0
   -2.8702   -4.8827   -1.1054 O   0  0  0  0  0  0  0  0  0  0  0  0
   -4.9704   -4.2579   -1.9614 C   0  0  0  0  0  0  0  0  0  0  0  0
   -5.1456   -4.7573   -2.9278 H   0  0  0  0  0  0  0  0  0  0  0  0
   -5.4379   -4.9112   -1.2072 H   0  0  0  0  0  0  0  0  0  0  0  0
   -5.5954   -3.3510   -1.9864 H   0  0  0  0  0  0  0  0  0  0  0  0
   -3.0424   -2.8131   -2.1606 N   0  0  0  0  0  0  0  0  0  0  0  0
   -1.6755   -2.3891   -2.0077 C   0  0  2  0  0  0  0  0  0  0  0  0
   -1.5782   -1.5673   -0.7292 C   0  0  0  0  0  0  0  0  0  0  0  0
   -2.5448   -1.0064   -0.2171 O   0  0  0  0  0  0  0  0  0  0  0  0
   -1.2087   -1.5823   -3.2094 C   0  0  0  0  0  0  0  0  0  0  0  0
   -3.6915   -2.1888   -2.6360 H   0  0  0  0  0  0  0  0  0  0  0  0
   -1.0721   -3.2977   -1.9053 H   0  0  0  0  0  0  0  0  0  0  0  0
   -1.8017   -0.6681   -3.3281 H   0  0  0  0  0  0  0  0  0  0  0  0
   -0.1601   -1.2849   -3.1045 H   0  0  0  0  0  0  0  0  0  0  0  0
   -1.3074   -2.1646   -4.1319 H   0  0  0  0  0  0  0  0  0  0  0  0
   -0.2835   -1.5112   -0.2725 N   0  0  0  0  0  0  0  0  0  0  0  0
    0.0769   -0.7658    0.9424 C   0  0  0  0  0  0  0  0  0  0  0  0
   -1.1693   -0.4460    1.7279 C   0  0  0  0  0  0  0  0  0  0  0  0
   -2.0629   -1.2616    1.9391 O   0  0  0  0  0  0  0  0  0  0  0  0
    0.4587   -2.0097   -0.7289 H   0  0  0  0  0  0  0  0  0  0  0  0
    0.5820    0.1623    0.6590 H   0  0  0  0  0  0  0  0  0  0  0  0
    0.7524   -1.3747    1.5503 H   0  0  0  0  0  0  0  0  0  0  0  0
   -1.1718    0.8728    2.1697 N   0  0  0  0  0  0  0  0  0  0  0  0
   -2.2412    1.4496    2.9411 C   0  0  2  0  0  0  0  0  0  0  0  0
   -1.6538    1.9632    4.2490 C   0  0  0  0  0  0  0  0  0  0  0  0
   -0.5996    1.5432    4.7216 O   0  0  0  0  0  0  0  0  0  0  0  0
   -3.3445    0.4359    3.2018 C   0  0  0  0  0  0  0  0  0  0  0  0
   -0.3744    1.4617    1.9350 H   0  0  0  0  0  0  0  0  0  0  0  0
   -2.6319    2.2919    2.3598 H   0  0  0  0  0  0  0  0  0  0  0  0
   -2.9720   -0.4155    3.7831 H   0  0  0  0  0  0  0  0  0  0  0  0
   -4.1703    0.8840    3.7642 H   0  0  0  0  0  0  0  0  0  0  0  0
   -3.7454    0.0454    2.2602 H   0  0  0  0  0  0  0  0  0  0  0  0
   -2.4670    2.9150    4.8481 N   0  0  0  0  0  0  0  0  0  0  0  0
   -2.1344    3.5451    6.1045 C   0  0  0  0  0  0  0  0  0  0  0  0
   -3.3140    3.2173    4.3758 H   0  0  0  0  0  0  0  0  0  0  0  0
   -2.5911    2.9804    6.9306 H   0  0  0  0  0  0  0  0  0  0  0  0
   -1.0417    3.5587    6.2298 H   0  0  0  0  0  0  0  0  0  0  0  0
   -2.5170    4.5764    6.1099 H   0  0  0  0  0  0  0  0  0  0  0  0
  1  3  1  0  0  0  0
  1  7  1  0  0  0  0
  1  2  2  0  0  0  0
 18 19  1  0  0  0  0
 19 24  1  0  0  0  0
 19 20  2  0  0  0  0
 25 26  1  0  0  0  0
 26 34  1  0  0  0  0
 26 27  2  0  0  0  0
  8  9  1  0  0  0  0
  9 17  1  0  0  0  0
  9 10  2  0  0  0  0
 25 28  1  0  0  0  0
  8 11  1  0  0  0  0
 34 35  1  0  0  0  0
 17 18  1  0  0  0  0
 24 25  1  0  0  0  0
  7  8  1  0  0  0  0
  3  4  1  0  0  0  0
  3  5  1  0  0  0  0
  3  6  1  0  0  0  0
 28 31  1  0  0  0  0
 28 32  1  0  0  0  0
 28 33  1  0  0  0  0
 11 14  1  0  0  0  0
 11 15  1  0  0  0  0
 11 16  1  0  0  0  0
 35 37  1  0  0  0  0
 35 38  1  0  0  0  0
 35 39  1  0  0  0  0
 18 22  1  0  0  0  0
 18 23  1  0  0  0  0
 25 30  1  0  0  0  0
  8 13  1  0  0  0  0
 34 36  1  0  0  0  0
 17 21  1  0  0  0  0
  7 12  1  0  0  0  0
 24 29  1  0  0  0  0
M  END
$$$$

  -OEChem-05262214473D

 39 38  0     1  0  0  0  0  0999 V2000
   -3.5200   -4.0268   -1.6943 C   0  0  0  0  0  0  0  0  0  0  0  0
   -2.8702   -4.8827   -1.1054 O   0  0  0  0  0  0  0  0  0  0  0  0
   -4.9704   -4.2579   -1.9614 C   0  0  0  0  0  0  0  0  0  0  0  0
   -5.1456   -4.7573   -2.9278 H   0  0  0  0  0  0  0  0  0  0  0  0
   -5.4379   -4.9112   -1.2072 H   0  0  0  0  0  0  0  0  0  0  0  0
   -5.5954   -3.3510   -1.9864 H   0  0  0  0  0  0  0  0  0  0  0  0
   -3.0424   -2.8131   -2.1606 N   0  0  0  0  0  0  0  0  0  0  0  0
   -1.6755   -2.3891   -2.0077 C   0  0  2  0  0  0  0  0  0  0  0  0
   -1.5782   -1.5673   -0.7292 C   0  0  0  0  0  0  0  0  0  0  0  0
   -2.5448   -1.0064   -0.2171 O   0  0  0  0  0  0  0  0  0  0  0  0
   -1.2087   -1.5823   -3.2094 C   0  0  0  0  0  0  0  0  0  0  0  0
   -3.6915   -2.1888   -2.6360 H   0  0  0  0  0  0  0  0  0  0  0  0
   -1.0721   -3.2977   -1.9053 H   0  0  0  0  0  0  0  0  0  0  0  0
   -1.8017   -0.6681   -3.3281 H   0  0  0  0  0  0  0  0  0  0  0  0
   -0.1601   -1.2849   -3.1045 H   0  0  0  0  0  0  0  0  0  0  0  0
   -1.3074   -2.1646   -4.1319 H   0  0  0  0  0  0  0  0  0  0  0  0
   -0.2835   -1.5112   -0.2725 N   0  0  0  0  0  0  0  0  0  0  0  0
    0.0769   -0.7658    0.9424 C   0  0  0  0  0  0  0  0  0  0  0  0
   -1.1693   -0.4460    1.7279 C   0  0  0  0  0  0  0  0  0  0  0  0
   -1.9299   -1.3043    2.1675 O   0  0  0  0  0  0  0  0  0  0  0  0
    0.4587   -2.0097   -0.7289 H   0  0  0  0  0  0  0  0  0  0  0  0
    0.5820    0.1623    0.6590 H   0  0  0  0  0  0  0  0  0  0  0  0
    0.7524   -1.3747    1.5503 H   0  0  0  0  0  0  0  0  0  0  0  0
   -1.3397    0.9258    1.8817 N   0  0  0  0  0  0  0  0  0  0  0  0
   -2.4478    1.5139    2.5871 C   0  0  2  0  0  0  0  0  0  0  0  0
   -1.8865    2.3713    3.7137 C   0  0  0  0  0  0  0  0  0  0  0  0
   -0.7655    2.2037    4.1895 O   0  0  0  0  0  0  0  0  0  0  0  0
   -3.3860    0.4478    3.1312 C   0  0  0  0  0  0  0  0  0  0  0  0
   -0.6433    1.5471    1.4735 H   0  0  0  0  0  0  0  0  0  0  0  0
   -2.9763    2.1519    1.8703 H   0  0  0  0  0  0  0  0  0  0  0  0
   -2.8742   -0.2013    3.8511 H   0  0  0  0  0  0  0  0  0  0  0  0
   -4.2433    0.8974    3.6429 H   0  0  0  0  0  0  0  0  0  0  0  0
   -3.7655   -0.1867    2.3230 H   0  0  0  0  0  0  0  0  0  0  0  0
   -2.8008    3.3178    4.1544 N   0  0  0  0  0  0  0  0  0  0  0  0
   -2.5101    4.2438    5.2240 C   0  0  0  0  0  0  0  0  0  0  0  0
   -3.7002    3.3982    3.6893 H   0  0  0  0  0  0  0  0  0  0  0  0
   -2.8491    3.8185    6.1802 H   0  0  0  0  0  0  0  0  0  0  0  0
   -1.4260    4.4251    5.2673 H   0  0  0  0  0  0  0  0  0  0  0  0
   -3.0335    5.1934    5.0391 H   0  0  0  0  0  0  0  0  0  0  0  0
  1  3  1  0  0  0  0
  1  7  1  0  0  0  0
  1  2  2  0  0  0  0
 18 19  1  0  0  0  0
 19 24  1  0  0  0  0
 19 20  2  0  0  0  0
 25 26  1  0  0  0  0
 26 34  1  0  0  0  0
 26 27  2  0  0  0  0
  8  9  1  0  0  0  0
  9 17  1  0  0  0  0
  9 10  2  0  0  0  0
 25 28  1  0  0  0  0
  8 11  1  0  0  0  0
 34 35  1  0  0  0  0
 17 18  1  0  0  0  0
 24 25  1  0  0  0  0
  7  8  1  0  0  0  0
  3  4  1  0  0  0  0
  3  5  1  0  0  0  0
  3  6  1  0  0  0  0
 28 31  1  0  0  0  0
 28 32  1  0  0  0  0
 28 33  1  0  0  0  0
 11 14  1  0  0  0  0
 11 15  1  0  0  0  0
 11 16  1  0  0  0  0
 35 37  1  0  0  0  0
 35 38  1  0  0  0  0
 35 39  1  0  0  0  0
 18 22  1  0  0  0  0
 18 23  1  0  0  0  0
 25 30  1  0  0  0  0
  8 13  1  0  0  0  0
 34 36  1  0  0  0  0
 17 21  1  0  0  0  0
  7 12  1  0  0  0  0
 24 29  1  0  0  0  0
M  END
$$$$

  -OEChem-05262214473D

 39 38  0     1  0  0  0  0  0999 V2000
   -3.5200   -4.0268   -1.6943 C   0  0  0  0  0  0  0  0  0  0  0  0
   -2.8702   -4.8827   -1.1054 O   0  0  0  0  0  0  0  0  0  0  0  0
   -4.9704   -4.2579   -1.9614 C   0  0  0  0  0  0  0  0  0  0  0  0
   -5.1456   -4.7573   -2.9278 H   0  0  0  0  0  0  0  0  0  0  0  0
   -5.4379   -4.9112   -1.2072 H   0  0  0  0  0  0  0  0  0  0  0  0
   -5.5954   -3.3510   -1.9864 H   0  0  0  0  0  0  0  0  0  0  0  0
   -3.0424   -2.8131   -2.1606 N   0  0  0  0  0  0  0  0  0  0  0  0
   -1.6755   -2.3891   -2.0077 C   0  0  2  0  0  0  0  0  0  0  0  0
   -1.5782   -1.5673   -0.7292 C   0  0  0  0  0  0  0  0  0  0  0  0
   -2.5448   -1.0064   -0.2171 O   0  0  0  0  0  0  0  0  0  0  0  0
   -1.2087   -1.5823   -3.2094 C   0  0  0  0  0  0  0  0  0  0  0  0
   -3.6915   -2.1888   -2.6360 H   0  0  0  0  0  0  0  0  0  0  0  0
   -1.0721   -3.2977   -1.9053 H   0  0  0  0  0  0  0  0  0  0  0  0
   -1.8017   -0.6681   -3.3281 H   0  0  0  0  0  0  0  0  0  0  0  0
   -0.1601   -1.2849   -3.1045 H   0  0  0  0  0  0  0  0  0  0  0  0
   -1.3074   -2.1646   -4.1319 H   0  0  0  0  0  0  0  0  0  0  0  0
   -0.2835   -1.5112   -0.2725 N   0  0  0  0  0  0  0  0  0  0  0  0
    0.0769   -0.7658    0.9424 C   0  0  0  0  0  0  0  0  0  0  0  0
   -1.1693   -0.4460    1.7279 C   0  0  0  0  0  0  0  0  0  0  0  0
   -1.7831   -1.2786    2.3900 O   0  0  0  0  0  0  0  0  0  0  0  0
    0.4587   -2.0097   -0.7289 H   0  0  0  0  0  0  0  0  0  0  0  0
    0.5820    0.1623    0.6590 H   0  0  0  0  0  0  0  0  0  0  0  0
    0.7524   -1.3747    1.5503 H   0  0  0  0  0  0  0  0  0  0  0  0
   -1.5249    0.8927    1.6014 N   0  0  0  0  0  0  0  0  0  0  0  0
   -2.6755    1.4724    2.2428 C   0  0  2  0  0  0  0  0  0  0  0  0
   -2.1956    2.6196    3.1221 C   0  0  0  0  0  0  0  0  0  0  0  0
   -1.0440    2.7055    3.5433 O   0  0  0  0  0  0  0  0  0  0  0  0
   -3.4315    0.4385    3.0627 C   0  0  0  0  0  0  0  0  0  0  0  0
   -0.9399    1.4947    1.0243 H   0  0  0  0  0  0  0  0  0  0  0  0
   -3.3169    1.8655    1.4465 H   0  0  0  0  0  0  0  0  0  0  0  0
   -2.8048    0.0333    3.8656 H   0  0  0  0  0  0  0  0  0  0  0  0
   -4.3223    0.8744    3.5268 H   0  0  0  0  0  0  0  0  0  0  0  0
   -3.7500   -0.4002    2.4343 H   0  0  0  0  0  0  0  0  0  0  0  0
   -3.2157    3.5134    3.4166 N   0  0  0  0  0  0  0  0  0  0  0  0
   -3.0155    4.6796    4.2447 C   0  0  0  0  0  0  0  0  0  0  0  0
   -4.1354    3.3740    3.0086 H   0  0  0  0  0  0  0  0  0  0  0  0
   -3.2525    4.4327    5.2901 H   0  0  0  0  0  0  0  0  0  0  0  0
   -1.9668    5.0042    4.1734 H   0  0  0  0  0  0  0  0  0  0  0  0
   -3.6744    5.4906    3.9012 H   0  0  0  0  0  0  0  0  0  0  0  0
  1  3  1  0  0  0  0
  1  7  1  0  0  0  0
  1  2  2  0  0  0  0
 18 19  1  0  0  0  0
 19 24  1  0  0  0  0
 19 20  2  0  0  0  0
 25 26  1  0  0  0  0
 26 34  1  0  0  0  0
 26 27  2  0  0  0  0
  8  9  1  0  0  0  0
  9 17  1  0  0  0  0
  9 10  2  0  0  0  0
 25 28  1  0  0  0  0
  8 11  1  0  0  0  0
 34 35  1  0  0  0  0
 17 18  1  0  0  0  0
 24 25  1  0  0  0  0
  7  8  1  0  0  0  0
  3  4  1  0  0  0  0
  3  5  1  0  0  0  0
  3  6  1  0  0  0  0
 28 31  1  0  0  0  0
 28 32  1  0  0  0  0
 28 33  1  0  0  0  0
 11 14  1  0  0  0  0
 11 15  1  0  0  0  0
 11 16  1  0  0  0  0
 35 37  1  0  0  0  0
 35 38  1  0  0  0  0
 35 39  1  0  0  0  0
 18 22  1  0  0  0  0
 18 23  1  0  0  0  0
 25 30  1  0  0  0  0
  8 13  1  0  0  0  0
 34 36  1  0  0  0  0
 17 21  1  0  0  0  0
  7 12  1  0  0  0  0
 24 29  1  0  0  0  0
M  END
$$$$

  -OEChem-05262214473D

 39 38  0     1  0  0  0  0  0999 V2000
   -3.5200   -4.0268   -1.6943 C   0  0  0  0  0  0  0  0  0  0  0  0
   -2.8702   -4.8827   -1.1054 O   0  0  0  0  0  0  0  0  0  0  0  0
   -4.9704   -4.2579   -1.9614 C   0  0  0  0  0  0  0  0  0  0  0  0
   -5.1456   -4.7573   -2.9278 H   0  0  0  0  0  0  0  0  0  0  0  0
   -5.4379   -4.9112   -1.2072 H   0  0  0  0  0  0  0  0  0  0  0  0
   -5.5954   -3.3510   -1.9864 H   0  0  0  0  0  0  0  0  0  0  0  0
   -3.0424   -2.8131   -2.1606 N   0  0  0  0  0  0  0  0  0  0  0  0
   -1.6755   -2.3891   -2.0077 C   0  0  2  0  0  0  0  0  0  0  0  0
   -1.5782   -1.5673   -0.7292 C   0  0  0  0  0  0  0  0  0  0  0  0
   -2.5448   -1.0064   -0.2171 O   0  0  0  0  0  0  0  0  0  0  0  0
   -1.2087   -1.5823   -3.2094 C   0  0  0  0  0  0  0  0  0  0  0  0
   -3.6915   -2.1888   -2.6360 H   0  0  0  0  0  0  0  0  0  0  0  0
   -1.0721   -3.2977   -1.9053 H   0  0  0  0  0  0  0  0  0  0  0  0
   -1.8017   -0.6681   -3.3281 H   0  0  0  0  0  0  0  0  0  0  0  0
   -0.1601   -1.2849   -3.1045 H   0  0  0  0  0  0  0  0  0  0  0  0
   -1.3074   -2.1646   -4.1319 H   0  0  0  0  0  0  0  0  0  0  0  0
   -0.2835   -1.5112   -0.2725 N   0  0  0  0  0  0  0  0  0  0  0  0
    0.0769   -0.7658    0.9424 C   0  0  0  0  0  0  0  0  0  0  0  0
   -1.1693   -0.4460    1.7279 C   0  0  0  0  0  0  0  0  0  0  0  0
   -1.6326   -1.1865    2.5913 O   0  0  0  0  0  0  0  0  0  0  0  0
    0.4587   -2.0097   -0.7289 H   0  0  0  0  0  0  0  0  0  0  0  0
    0.5820    0.1623    0.6590 H   0  0  0  0  0  0  0  0  0  0  0  0
    0.7524   -1.3747    1.5503 H   0  0  0  0  0  0  0  0  0  0  0  0
   -1.7147    0.7757    1.3479 N   0  0  0  0  0  0  0  0  0  0  0  0
   -2.9087    1.3280    1.9315 C   0  0  2  0  0  0  0  0  0  0  0  0
   -2.5602    2.6911    2.5145 C   0  0  0  0  0  0  0  0  0  0  0  0
   -1.4162    3.0144    2.8271 O   0  0  0  0  0  0  0  0  0  0  0  0
   -3.4780    0.4089    3.0011 C   0  0  0  0  0  0  0  0  0  0  0  0
   -1.2440    1.3079    0.6178 H   0  0  0  0  0  0  0  0  0  0  0  0
   -3.6306    1.4522    1.1170 H   0  0  0  0  0  0  0  0  0  0  0  0
   -2.7687    0.2724    3.8256 H   0  0  0  0  0  0  0  0  0  0  0  0
   -4.4019    0.8168    3.4240 H   0  0  0  0  0  0  0  0  0  0  0  0
   -3.7002   -0.5805    2.5868 H   0  0  0  0  0  0  0  0  0  0  0  0
   -3.6833    3.4885    2.6847 N   0  0  0  0  0  0  0  0  0  0  0  0
   -3.6162    4.8229    3.2333 C   0  0  0  0  0  0  0  0  0  0  0  0
   -4.5899    3.1463    2.3803 H   0  0  0  0  0  0  0  0  0  0  0  0
   -3.7738    4.7811    4.3211 H   0  0  0  0  0  0  0  0  0  0  0  0
   -2.6274    5.2565    3.0226 H   0  0  0  0  0  0  0  0  0  0  0  0
   -4.3961    5.4478    2.7736 H   0  0  0  0  0  0  0  0  0  0  0  0
  1  3  1  0  0  0  0
  1  7  1  0  0  0  0
  1  2  2  0  0  0  0
 18 19  1  0  0  0  0
 19 24  1  0  0  0  0
 19 20  2  0  0  0  0
 25 26  1  0  0  0  0
 26 34  1  0  0  0  0
 26 27  2  0  0  0  0
  8  9  1  0  0  0  0
  9 17  1  0  0  0  0
  9 10  2  0  0  0  0
 25 28  1  0  0  0  0
  8 11  1  0  0  0  0
 34 35  1  0  0  0  0
 17 18  1  0  0  0  0
 24 25  1  0  0  0  0
  7  8  1  0  0  0  0
  3  4  1  0  0  0  0
  3  5  1  0  0  0  0
  3  6  1  0  0  0  0
 28 31  1  0  0  0  0
 28 32  1  0  0  0  0
 28 33  1  0  0  0  0
 11 14  1  0  0  0  0
 11 15  1  0  0  0  0
 11 16  1  0  0  0  0
 35 37  1  0  0  0  0
 35 38  1  0  0  0  0
 35 39  1  0  0  0  0
 18 22  1  0  0  0  0
 18 23  1  0  0  0  0
 25 30  1  0  0  0  0
  8 13  1  0  0  0  0
 34 36  1  0  0  0  0
 17 21  1  0  0  0  0
  7 12  1  0  0  0  0
 24 29  1  0  0  0  0
M  END
$$$$

  -OEChem-05262214473D

 39 38  0     1  0  0  0  0  0999 V2000
   -3.5200   -4.0268   -1.6943 C   0  0  0  0  0  0  0  0  0  0  0  0
   -2.8702   -4.8827   -1.1054 O   0  0  0  0  0  0  0  0  0  0  0  0
   -4.9704   -4.2579   -1.9614 C   0  0  0  0  0  0  0  0  0  0  0  0
   -5.1456   -4.7573   -2.9278 H   0  0  0  0  0  0  0  0  0  0  0  0
   -5.4379   -4.9112   -1.2072 H   0  0  0  0  0  0  0  0  0  0  0  0
   -5.5954   -3.3510   -1.9864 H   0  0  0  0  0  0  0  0  0  0  0  0
   -3.0424   -2.8131   -2.1606 N   0  0  0  0  0  0  0  0  0  0  0  0
   -1.6755   -2.3891   -2.0077 C   0  0  2  0  0  0  0  0  0  0  0  0
   -1.5782   -1.5673   -0.7292 C   0  0  0  0  0  0  0  0  0  0  0  0
   -2.5448   -1.0064   -0.2171 O   0  0  0  0  0  0  0  0  0  0  0  0
   -1.2087   -1.5823   -3.2094 C   0  0  0  0  0  0  0  0  0  0  0  0
   -3.6915   -2.1888   -2.6360 H   0  0  0  0  0  0  0  0  0  0  0  0
   -1.0721   -3.2977   -1.9053 H   0  0  0  0  0  0  0  0  0  0  0  0
   -1.8017   -0.6681   -3.3281 H   0  0  0  0  0  0  0  0  0  0  0  0
   -0.1601   -1.2849   -3.1045 H   0  0  0  0  0  0  0  0  0  0  0  0
   -1.3074   -2.1646   -4.1319 H   0  0  0  0  0  0  0  0  0  0  0  0
   -0.2835   -1.5112   -0.2725 N   0  0  0  0  0  0  0  0  0  0  0  0
    0.0769   -0.7658    0.9424 C   0  0  0  0  0  0  0  0  0  0  0  0
   -1.1693   -0.4460    1.7279 C   0  0  0  0  0  0  0  0  0  0  0  0
   -1.4886   -1.0341    2.7577 O   0  0  0  0  0  0  0  0  0  0  0  0
    0.4587   -2.0097   -0.7289 H   0  0  0  0  0  0  0  0  0  0  0  0
    0.5820    0.1623    0.6590 H   0  0  0  0  0  0  0  0  0  0  0  0
    0.7524   -1.3747    1.5503 H   0  0  0  0  0  0  0  0  0  0  0  0
   -1.8961    0.5830    1.1385 N   0  0  0  0  0  0  0  0  0  0  0  0
   -3.1316    1.0904    1.6746 C   0  0  2  0  0  0  0  0  0  0  0  0
   -2.9554    2.5811    1.9323 C   0  0  0  0  0  0  0  0  0  0  0  0
   -1.8566    3.1093    2.0895 O   0  0  0  0  0  0  0  0  0  0  0  0
   -3.5222    0.3607    2.9504 C   0  0  0  0  0  0  0  0  0  0  0  0
   -1.5349    0.9995    0.2819 H   0  0  0  0  0  0  0  0  0  0  0  0
   -3.8960    0.9402    0.9044 H   0  0  0  0  0  0  0  0  0  0  0  0
   -2.7682    0.4997    3.7338 H   0  0  0  0  0  0  0  0  0  0  0  0
   -4.4767    0.7284    3.3414 H   0  0  0  0  0  0  0  0  0  0  0  0
   -3.6194   -0.7153    2.7698 H   0  0  0  0  0  0  0  0  0  0  0  0
   -4.1718    3.2448    2.0089 N   0  0  0  0  0  0  0  0  0  0  0  0
   -4.2713    4.6639    2.2586 C   0  0  0  0  0  0  0  0  0  0  0  0
   -5.0327    2.7306    1.8470 H   0  0  0  0  0  0  0  0  0  0  0  0
   -4.3776    4.8400    3.3392 H   0  0  0  0  0  0  0  0  0  0  0  0
   -3.3628    5.1649    1.8932 H   0  0  0  0  0  0  0  0  0  0  0  0
   -5.1493    5.0678    1.7333 H   0  0  0  0  0  0  0  0  0  0  0  0
  1  3  1  0  0  0  0
  1  7  1  0  0  0  0
  1  2  2  0  0  0  0
 18 19  1  0  0  0  0
 19 24  1  0  0  0  0
 19 20  2  0  0  0  0
 25 26  1  0  0  0  0
 26 34  1  0  0  0  0
 26 27  2  0  0  0  0
  8  9  1  0  0  0  0
  9 17  1  0  0  0  0
  9 10  2  0  0  0  0
 25 28  1  0  0  0  0
  8 11  1  0  0  0  0
 34 35  1  0  0  0  0
 17 18  1  0  0  0  0
 24 25  1  0  0  0  0
  7  8  1  0  0  0  0
  3  4  1  0  0  0  0
  3  5  1  0  0  0  0
  3  6  1  0  0  0  0
 28 31  1  0  0  0  0
 28 32  1  0  0  0  0
 28 33  1  0  0  0  0
 11 14  1  0  0  0  0
 11 15  1  0  0  0  0
 11 16  1  0  0  0  0
 35 37  1  0  0  0  0
 35 38  1  0  0  0  0
 35 39  1  0  0  0  0
 18 22  1  0  0  0  0
 18 23  1  0  0  0  0
 25 30  1  0  0  0  0
  8 13  1  0  0  0  0
 34 36  1  0  0  0  0
 17 21  1  0  0  0  0
  7 12  1  0  0  0  0
 24 29  1  0  0  0  0
M  END
$$$$

  -OEChem-05262214473D

 39 38  0     1  0  0  0  0  0999 V2000
   -3.5200   -4.0268   -1.6943 C   0  0  0  0  0  0  0  0  0  0  0  0
   -2.8702   -4.8827   -1.1054 O   0  0  0  0  0  0  0  0  0  0  0  0
   -4.9704   -4.2579   -1.9614 C   0  0  0  0  0  0  0  0  0  0  0  0
   -5.1456   -4.7573   -2.9278 H   0  0  0  0  0  0  0  0  0  0  0  0
   -5.4379   -4.9112   -1.2072 H   0  0  0  0  0  0  0  0  0  0  0  0
   -5.5954   -3.3510   -1.9864 H   0  0  0  0  0  0  0  0  0  0  0  0
   -3.0424   -2.8131   -2.1606 N   0  0  0  0  0  0  0  0  0  0  0  0
   -1.6755   -2.3891   -2.0077 C   0  0  2  0  0  0  0  0  0  0  0  0
   -1.5782   -1.5673   -0.7292 C   0  0  0  0  0  0  0  0  0  0  0  0
   -2.5448   -1.0064   -0.2171 O   0  0  0  0  0  0  0  0  0  0  0  0
   -1.2087   -1.5823   -3.2094 C   0  0  0  0  0  0  0  0  0  0  0  0
   -3.6915   -2.1888   -2.6360 H   0  0  0  0  0  0  0  0  0  0  0  0
   -1.0721   -3.2977   -1.9053 H   0  0  0  0  0  0  0  0  0  0  0  0
   -1.8017   -0.6681   -3.3281 H   0  0  0  0  0  0  0  0  0  0  0  0
   -0.1601   -1.2849   -3.1045 H   0  0  0  0  0  0  0  0  0  0  0  0
   -1.3074   -2.1646   -4.1319 H   0  0  0  0  0  0  0  0  0  0  0  0
   -0.2835   -1.5112   -0.2725 N   0  0  0  0  0  0  0  0  0  0  0  0
    0.0769   -0.7658    0.9424 C   0  0  0  0  0  0  0  0  0  0  0  0
   -1.1693   -0.4460    1.7279 C   0  0  0  0  0  0  0  0  0  0  0  0
   -1.3609   -0.8319    2.8780 O   0  0  0  0  0  0  0  0  0  0  0  0
    0.4587   -2.0097   -0.7289 H   0  0  0  0  0  0  0  0  0  0  0  0
    0.5820    0.1623    0.6590 H   0  0  0  0  0  0  0  0  0  0  0  0
    0.7524   -1.3747    1.5503 H   0  0  0  0  0  0  0  0  0  0  0  0
   -2.0569    0.3275    0.9874 N   0  0  0  0  0  0  0  0  0  0  0  0
   -3.3290    0.7759    1.4895 C   0  0  2  0  0  0  0  0  0  0  0  0
   -3.3542    2.2969    1.4152 C   0  0  0  0  0  0  0  0  0  0  0  0
   -2.3354    2.9838    1.3810 O   0  0  0  0  0  0  0  0  0  0  0  0
   -3.5613    0.2974    2.9142 C   0  0  0  0  0  0  0  0  0  0  0  0
   -1.7927    0.5905    0.0394 H   0  0  0  0  0  0  0  0  0  0  0  0
   -4.0949    0.3643    0.8232 H   0  0  0  0  0  0  0  0  0  0  0  0
   -2.8035    0.6996    3.5965 H   0  0  0  0  0  0  0  0  0  0  0  0
   -4.5415    0.6152    3.2847 H   0  0  0  0  0  0  0  0  0  0  0  0
   -3.5132   -0.7954    2.9711 H   0  0  0  0  0  0  0  0  0  0  0  0
   -4.6480    2.7989    1.4350 N   0  0  0  0  0  0  0  0  0  0  0  0
   -4.9362    4.2134    1.3871 C   0  0  0  0  0  0  0  0  0  0  0  0
   -5.4337    2.1552    1.4451 H   0  0  0  0  0  0  0  0  0  0  0  0
   -5.0226    4.6053    2.4113 H   0  0  0  0  0  0  0  0  0  0  0  0
   -4.1227    4.7356    0.8622 H   0  0  0  0  0  0  0  0  0  0  0  0
   -5.8827    4.3766    0.8511 H   0  0  0  0  0  0  0  0  0  0  0  0
  1  3  1  0  0  0  0
  1  7  1  0  0  0  0
  1  2  2  0  0  0  0
 18 19  1  0  0  0  0
 19 24  1  0  0  0  0
 19 20  2  0  0  0  0
 25 26  1  0  0  0  0
 26 34  1  0  0  0  0
 26 27  2  0  0  0  0
  8  9  1  0  0  0  0
  9 17  1  0  0  0  0
  9 10  2  0  0  0  0
 25 28  1  0  0  0  0
  8 11  1  0  0  0  0
 34 35  1  0  0  0  0
 17 18  1  0  0  0  0
 24 25  1  0  0  0  0
  7  8  1  0  0  0  0
  3  4  1  0  0  0  0
  3  5  1  0  0  0  0
  3  6  1  0  0  0  0
 28 31  1  0  0  0  0
 28 32  1  0  0  0  0
 28 33  1  0  0  0  0
 11 14  1  0  0  0  0
 11 15  1  0  0  0  0
 11 16  1  0  0  0  0
 35 37  1  0  0  0  0
 35 38  1  0  0  0  0
 35 39  1  0  0  0  0
 18 22  1  0  0  0  0
 18 23  1  0  0  0  0
 25 30  1  0  0  0  0
  8 13  1  0  0  0  0
 34 36  1  0  0  0  0
 17 21  1  0  0  0  0
  7 12  1  0  0  0  0
 24 29  1  0  0  0  0
M  END
$$$$

  -OEChem-05262214473D

 39 38  0     1  0  0  0  0  0999 V2000
   -3.5200   -4.0268   -1.6943 C   0  0  0  0  0  0  0  0  0  0  0  0
   -2.8702   -4.8827   -1.1054 O   0  0  0  0  0  0  0  0  0  0  0  0
   -4.9704   -4.2579   -1.9614 C   0  0  0  0  0  0  0  0  0  0  0  0
   -5.1456   -4.7573   -2.9278 H   0  0  0  0  0  0  0  0  0  0  0  0
   -5.4379   -4.9112   -1.2072 H   0  0  0  0  0  0  0  0  0  0  0  0
   -5.5954   -3.3510   -1.9864 H   0  0  0  0  0  0  0  0  0  0  0  0
   -3.0424   -2.8131   -2.1606 N   0  0  0  0  0  0  0  0  0  0  0  0
   -1.6755   -2.3891   -2.0077 C   0  0  2  0  0  0  0  0  0  0  0  0
   -1.5782   -1.5673   -0.7292 C   0  0  0  0  0  0  0  0  0  0  0  0
   -2.5448   -1.0064   -0.2171 O   0  0  0  0  0  0  0  0  0  0  0  0
   -1.2087   -1.5823   -3.2094 C   0  0  0  0  0  0  0  0  0  0  0  0
   -3.6915   -2.1888   -2.6360 H   0  0  0  0  0  0  0  0  0  0  0  0
   -1.0721   -3.2977   -1.9053 H   0  0  0  0  0  0  0  0  0  0  0  0
   -1.8017   -0.6681   -3.3281 H   0  0  0  0  0  0  0  0  0  0  0  0
   -0.1601   -1.2849   -3.1045 H   0  0  0  0  0  0  0  0  0  0  0  0
   -1.3074   -2.1646   -4.1319 H   0  0  0  0  0  0  0  0  0  0  0  0
   -0.2835   -1.5112   -0.2725 N   0  0  0  0  0  0  0  0  0  0  0  0
    0.0769   -0.7658    0.9424 C   0  0  0  0  0  0  0  0  0  0  0  0
   -1.1693   -0.4460    1.7279 C   0  0  0  0  0  0  0  0  0  0  0  0
   -1.2582   -0.5936    2.9439 O   0  0  0  0  0  0  0  0  0  0  0  0
    0.4587   -2.0097   -0.7289 H   0  0  0  0  0  0  0  0  0  0  0  0
    0.5820    0.1623    0.6590 H   0  0  0  0  0  0  0  0  0  0  0  0
    0.7524   -1.3747    1.5503 H   0  0  0  0  0  0  0  0  0  0  0  0
   -2.1861    0.0267    0.9049 N   0  0  0  0  0  0  0  0  0  0  0  0
   -3.4874    0.4059    1.3889 C   0  0  2  0  0  0  0  0  0  0  0  0
   -3.7296    1.8579    0.9984 C   0  0  0  0  0  0  0  0  0  0  0  0
   -2.8198    2.6464    0.7498 O   0  0  0  0  0  0  0  0  0  0  0  0
   -3.5925    0.2232    2.8950 C   0  0  0  0  0  0  0  0  0  0  0  0
   -1.9999    0.1088   -0.0932 H   0  0  0  0  0  0  0  0  0  0  0  0
   -4.2139   -0.2361    0.8789 H   0  0  0  0  0  0  0  0  0  0  0  0
   -2.8720    0.8586    3.4230 H   0  0  0  0  0  0  0  0  0  0  0  0
   -4.5920    0.4850    3.2576 H   0  0  0  0  0  0  0  0  0  0  0  0
   -3.3887   -0.8154    3.1767 H   0  0  0  0  0  0  0  0  0  0  0  0
   -5.0792    2.1812    1.0022 N   0  0  0  0  0  0  0  0  0  0  0  0
   -5.5655    3.5021    0.6783 C   0  0  0  0  0  0  0  0  0  0  0  0
   -5.7654    1.4594    1.2021 H   0  0  0  0  0  0  0  0  0  0  0  0
   -5.6650    4.0931    1.6006 H   0  0  0  0  0  0  0  0  0  0  0  0
   -4.8554    3.9979    0.0000 H   0  0  0  0  0  0  0  0  0  0  0  0
   -6.5464    3.4213    0.1871 H   0  0  0  0  0  0  0  0  0  0  0  0
  1  3  1  0  0  0  0
  1  7  1  0  0  0  0
  1  2  2  0  0  0  0
 18 19  1  0  0  0  0
 19 24  1  0  0  0  0
 19 20  2  0  0  0  0
 25 26  1  0  0  0  0
 26 34  1  0  0  0  0
 26 27  2  0  0  0  0
  8  9  1  0  0  0  0
  9 17  1  0  0  0  0
  9 10  2  0  0  0  0
 25 28  1  0  0  0  0
  8 11  1  0  0  0  0
 34 35  1  0  0  0  0
 17 18  1  0  0  0  0
 24 25  1  0  0  0  0
  7  8  1  0  0  0  0
  3  4  1  0  0  0  0
  3  5  1  0  0  0  0
  3  6  1  0  0  0  0
 28 31  1  0  0  0  0
 28 32  1  0  0  0  0
 28 33  1  0  0  0  0
 11 14  1  0  0  0  0
 11 15  1  0  0  0  0
 11 16  1  0  0  0  0
 35 37  1  0  0  0  0
 35 38  1  0  0  0  0
 35 39  1  0  0  0  0
 18 22  1  0  0  0  0
 18 23  1  0  0  0  0
 25 30  1  0  0  0  0
  8 13  1  0  0  0  0
 34 36  1  0  0  0  0
 17 21  1  0  0  0  0
  7 12  1  0  0  0  0
 24 29  1  0  0  0  0
M  END
$$$$

  -OEChem-05262214473D

 39 38  0     1  0  0  0  0  0999 V2000
   -3.5200   -4.0268   -1.6943 C   0  0  0  0  0  0  0  0  0  0  0  0
   -2.8702   -4.8827   -1.1054 O   0  0  0  0  0  0  0  0  0  0  0  0
   -4.9704   -4.2579   -1.9614 C   0  0  0  0  0  0  0  0  0  0  0  0
   -5.1456   -4.7573   -2.9278 H   0  0  0  0  0  0  0  0  0  0  0  0
   -5.4379   -4.9112   -1.2072 H   0  0  0  0  0  0  0  0  0  0  0  0
   -5.5954   -3.3510   -1.9864 H   0  0  0  0  0  0  0  0  0  0  0  0
   -3.0424   -2.8131   -2.1606 N   0  0  0  0  0  0  0  0  0  0  0  0
   -1.6755   -2.3891   -2.0077 C   0  0  2  0  0  0  0  0  0  0  0  0
   -1.5782   -1.5673   -0.7292 C   0  0  0  0  0  0  0  0  0  0  0  0
   -2.5448   -1.0064   -0.2171 O   0  0  0  0  0  0  0  0  0  0  0  0
   -1.2087   -1.5823   -3.2094 C   0  0  0  0  0  0  0  0  0  0  0  0
   -3.6915   -2.1888   -2.6360 H   0  0  0  0  0  0  0  0  0  0  0  0
   -1.0721   -3.2977   -1.9053 H   0  0  0  0  0  0  0  0  0  0  0  0
   -1.8017   -0.6681   -3.3281 H   0  0  0  0  0  0  0  0  0  0  0  0
   -0.1601   -1.2849   -3.1045 H   0  0  0  0  0  0  0  0  0  0  0  0
   -1.3074   -2.1646   -4.1319 H   0  0  0  0  0  0  0  0  0  0  0  0
   -0.2835   -1.5112   -0.2725 N   0  0  0  0  0  0  0  0  0  0  0  0
    0.0769   -0.7658    0.9424 C   0  0  0  0  0  0  0  0  0  0  0  0
   -1.1693   -0.4460    1.7279 C   0  0  0  0  0  0  0  0  0  0  0  0
   -1.1875   -0.3354    2.9509 O   0  0  0  0  0  0  0  0  0  0  0  0
    0.4587   -2.0097   -0.7289 H   0  0  0  0  0  0  0  0  0  0  0  0
    0.5820    0.1623    0.6590 H   0  0  0  0  0  0  0  0  0  0  0  0
    0.7524   -1.3747    1.5503 H   0  0  0  0  0  0  0  0  0  0  0  0
   -2.2748   -0.2990    0.8968 N   0  0  0  0  0  0  0  0  0  0  0  0
   -3.5960    0.0056    1.3795 C   0  0  2  0  0  0  0  0  0  0  0  0
   -4.0558    1.2941    0.7104 C   0  0  0  0  0  0  0  0  0  0  0  0
   -3.2769    2.1201    0.2389 O   0  0  0  0  0  0  0  0  0  0  0  0
   -3.6136    0.1433    2.8939 C   0  0  0  0  0  0  0  0  0  0  0  0
   -2.1423   -0.4129   -0.1068 H   0  0  0  0  0  0  0  0  0  0  0  0
   -4.2448   -0.8202    1.0677 H   0  0  0  0  0  0  0  0  0  0  0  0
   -2.9692    0.9658    3.2252 H   0  0  0  0  0  0  0  0  0  0  0  0
   -4.6246    0.3467    3.2621 H   0  0  0  0  0  0  0  0  0  0  0  0
   -3.2544   -0.7740    3.3729 H   0  0  0  0  0  0  0  0  0  0  0  0
   -5.4363    1.4338    0.7400 N   0  0  0  0  0  0  0  0  0  0  0  0
   -6.1163    2.5785    0.1803 C   0  0  0  0  0  0  0  0  0  0  0  0
   -6.0053    0.6905    1.1344 H   0  0  0  0  0  0  0  0  0  0  0  0
   -6.2609    3.3383    0.9625 H   0  0  0  0  0  0  0  0  0  0  0  0
   -5.5110    3.0020   -0.6347 H   0  0  0  0  0  0  0  0  0  0  0  0
   -7.0950    2.2669   -0.2135 H   0  0  0  0  0  0  0  0  0  0  0  0
  1  3  1  0  0  0  0
  1  7  1  0  0  0  0
  1  2  2  0  0  0  0
 18 19  1  0  0  0  0
 19 24  1  0  0  0  0
 19 20  2  0  0  0  0
 25 26  1  0  0  0  0
 26 34  1  0  0  0  0
 26 27  2  0  0  0  0
  8  9  1  0  0  0  0
  9 17  1  0  0  0  0
  9 10  2  0  0  0  0
 25 28  1  0  0  0  0
  8 11  1  0  0  0  0
 34 35  1  0  0  0  0
 17 18  1  0  0  0  0
 24 25  1  0  0  0  0
  7  8  1  0  0  0  0
  3  4  1  0  0  0  0
  3  5  1  0  0  0  0
  3  6  1  0  0  0  0
 28 31  1  0  0  0  0
 28 32  1  0  0  0  0
 28 33  1  0  0  0  0
 11 14  1  0  0  0  0
 11 15  1  0  0  0  0
 11 16  1  0  0  0  0
 35 37  1  0  0  0  0
 35 38  1  0  0  0  0
 35 39  1  0  0  0  0
 18 22  1  0  0  0  0
 18 23  1  0  0  0  0
 25 30  1  0  0  0  0
  8 13  1  0  0  0  0
 34 36  1  0  0  0  0
 17 21  1  0  0  0  0
  7 12  1  0  0  0  0
 24 29  1  0  0  0  0
M  END
$$$$

  -OEChem-05262214473D

 39 38  0     1  0  0  0  0  0999 V2000
   -3.5200   -4.0268   -1.6943 C   0  0  0  0  0  0  0  0  0  0  0  0
   -2.8702   -4.8827   -1.1054 O   0  0  0  0  0  0  0  0  0  0  0  0
   -4.9704   -4.2579   -1.9614 C   0  0  0  0  0  0  0  0  0  0  0  0
   -5.1456   -4.7573   -2.9278 H   0  0  0  0  0  0  0  0  0  0  0  0
   -5.4379   -4.9112   -1.2072 H   0  0  0  0  0  0  0  0  0  0  0  0
   -5.5954   -3.3510   -1.9864 H   0  0  0  0  0  0  0  0  0  0  0  0
   -3.0424   -2.8131   -2.1606 N   0  0  0  0  0  0  0  0  0  0  0  0
   -1.6755   -2.3891   -2.0077 C   0  0  2  0  0  0  0  0  0  0  0  0
   -1.5782   -1.5673   -0.7292 C   0  0  0  0  0  0  0  0  0  0  0  0
   -2.5448   -1.0064   -0.2171 O   0  0  0  0  0  0  0  0  0  0  0  0
   -1.2087   -1.5823   -3.2094 C   0  0  0  0  0  0  0  0  0  0  0  0
   -3.6915   -2.1888   -2.6360 H   0  0  0  0  0  0  0  0  0  0  0  0
   -1.0721   -3.2977   -1.9053 H   0  0  0  0  0  0  0  0  0  0  0  0
   -1.8017   -0.6681   -3.3281 H   0  0  0  0  0  0  0  0  0  0  0  0
   -0.1601   -1.2849   -3.1045 H   0  0  0  0  0  0  0  0  0  0  0  0
   -1.3074   -2.1646   -4.1319 H   0  0  0  0  0  0  0  0  0  0  0  0
   -0.2835   -1.5112   -0.2725 N   0  0  0  0  0  0  0  0  0  0  0  0
    0.0769   -0.7658    0.9424 C   0  0  0  0  0  0  0  0  0  0  0  0
   -1.1693   -0.4460    1.7279 C   0  0  0  0  0  0  0  0  0  0  0  0
   -1.1537   -0.0751    2.8986 O   0  0  0  0  0  0  0  0  0  0  0  0
    0.4587   -2.0097   -0.7289 H   0  0  0  0  0  0  0  0  0  0  0  0
    0.5820    0.1623    0.6590 H   0  0  0  0  0  0  0  0  0  0  0  0
    0.7524   -1.3747    1.5503 H   0  0  0  0  0  0  0  0  0  0  0  0
   -2.3170   -0.6272    0.9634 N   0  0  0  0  0  0  0  0  0  0  0  0
   -3.6474   -0.3977    1.4621 C   0  0  2  0  0  0  0  0  0  0  0  0
   -4.3106    0.6439    0.5707 C   0  0  0  0  0  0  0  0  0  0  0  0
   -3.6755    1.4407   -0.1169 O   0  0  0  0  0  0  0  0  0  0  0  0
   -3.6233    0.0630    2.9112 C   0  0  0  0  0  0  0  0  0  0  0  0
   -2.2103   -0.9388   -0.0005 H   0  0  0  0  0  0  0  0  0  0  0  0
   -4.1855   -1.3481    1.3768 H   0  0  0  0  0  0  0  0  0  0  0  0
   -3.0884    1.0139    3.0165 H   0  0  0  0  0  0  0  0  0  0  0  0
   -4.6373    0.2096    3.2978 H   0  0  0  0  0  0  0  0  0  0  0  0
   -3.1196   -0.6739    3.5461 H   0  0  0  0  0  0  0  0  0  0  0  0
   -5.6947    0.6076    0.6663 N   0  0  0  0  0  0  0  0  0  0  0  0
   -6.5512    1.5055   -0.0728 C   0  0  0  0  0  0  0  0  0  0  0  0
   -6.1371   -0.0990    1.2467 H   0  0  0  0  0  0  0  0  0  0  0  0
   -6.7697    2.3923    0.5403 H   0  0  0  0  0  0  0  0  0  0  0  0
   -6.0449    1.8158   -0.9987 H   0  0  0  0  0  0  0  0  0  0  0  0
   -7.4913    0.9922   -0.3232 H   0  0  0  0  0  0  0  0  0  0  0  0
  1  3  1  0  0  0  0
  1  7  1  0  0  0  0
  1  2  2  0  0  0  0
 18 19  1  0  0  0  0
 19 24  1  0  0  0  0
 19 20  2  0  0  0  0
 25 26  1  0  0  0  0
 26 34  1  0  0  0  0
 26 27  2  0  0  0  0
  8  9  1  0  0  0  0
  9 17  1  0  0  0  0
  9 10  2  0  0  0  0
 25 28  1  0  0  0  0
  8 11  1  0  0  0  0
 34 35  1  0  0  0  0
 17 18  1  0  0  0  0
 24 25  1  0  0  0  0
  7  8  1  0  0  0  0
  3  4  1  0  0  0  0
  3  5  1  0  0  0  0
  3  6  1  0  0  0  0
 28 31  1  0  0  0  0
 28 32  1  0  0  0  0
 28 33  1  0  0  0  0
 11 14  1  0  0  0  0
 11 15  1  0  0  0  0
 11 16  1  0  0  0  0
 35 37  1  0  0  0  0
 35 38  1  0  0  0  0
 35 39  1  0  0  0  0
 18 22  1  0  0  0  0
 18 23  1  0  0  0  0
 25 30  1  0  0  0  0
  8 13  1  0  0  0  0
 34 36  1  0  0  0  0
 17 21  1  0  0  0  0
  7 12  1  0  0  0  0
 24 29  1  0  0  0  0
M  END
$$$$

  -OEChem-05262214473D

 39 38  0     1  0  0  0  0  0999 V2000
   -3.5200   -4.0268   -1.6943 C   0  0  0  0  0  0  0  0  0  0  0  0
   -2.8702   -4.8827   -1.1054 O   0  0  0  0  0  0  0  0  0  0  0  0
   -4.9704   -4.2579   -1.9614 C   0  0  0  0  0  0  0  0  0  0  0  0
   -5.1456   -4.7573   -2.9278 H   0  0  0  0  0  0  0  0  0  0  0  0
   -5.4379   -4.9112   -1.2072 H   0  0  0  0  0  0  0  0  0  0  0  0
   -5.5954   -3.3510   -1.9864 H   0  0  0  0  0  0  0  0  0  0  0  0
   -3.0424   -2.8131   -2.1606 N   0  0  0  0  0  0  0  0  0  0  0  0
   -1.6755   -2.3891   -2.0077 C   0  0  2  0  0  0  0  0  0  0  0  0
   -1.5782   -1.5673   -0.7292 C   0  0  0  0  0  0  0  0  0  0  0  0
   -2.5448   -1.0064   -0.2171 O   0  0  0  0  0  0  0  0  0  0  0  0
   -1.2087   -1.5823   -3.2094 C   0  0  0  0  0  0  0  0  0  0  0  0
   -3.6915   -2.1888   -2.6360 H   0  0  0  0  0  0  0  0  0  0  0  0
   -1.0721   -3.2977   -1.9053 H   0  0  0  0  0  0  0  0  0  0  0  0
   -1.8017   -0.6681   -3.3281 H   0  0  0  0  0  0  0  0  0  0  0  0
   -0.1601   -1.2849   -3.1045 H   0  0  0  0  0  0  0  0  0  0  0  0
   -1.3074   -2.1646   -4.1319 H   0  0  0  0  0  0  0  0  0  0  0  0
   -0.2835   -1.5112   -0.2725 N   0  0  0  0  0  0  0  0  0  0  0  0
    0.0769   -0.7658    0.9424 C   0  0  0  0  0  0  0  0  0  0  0  0
   -1.1693   -0.4460    1.7279 C   0  0  0  0  0  0  0  0  0  0  0  0
   -1.1590    0.1698    2.7905 O   0  0  0  0  0  0  0  0  0  0  0  0
    0.4587   -2.0097   -0.7289 H   0  0  0  0  0  0  0  0  0  0  0  0
    0.5820    0.1623    0.6590 H   0  0  0  0  0  0  0  0  0  0  0  0
    0.7524   -1.3747    1.5503 H   0  0  0  0  0  0  0  0  0  0  0  0
   -2.3098   -0.9357    1.1003 N   0  0  0  0  0  0  0  0  0  0  0  0
   -3.6382   -0.7765    1.6310 C   0  0  2  0  0  0  0  0  0  0  0  0
   -4.4768   -0.0484    0.5889 C   0  0  0  0  0  0  0  0  0  0  0  0
   -3.9884    0.6547   -0.2933 O   0  0  0  0  0  0  0  0  0  0  0  0
   -3.6210   -0.0122    2.9456 C   0  0  0  0  0  0  0  0  0  0  0  0
   -2.1992   -1.4333    0.2184 H   0  0  0  0  0  0  0  0  0  0  0  0
   -4.0400   -1.7839    1.7850 H   0  0  0  0  0  0  0  0  0  0  0  0
   -3.2214    0.9996    2.8112 H   0  0  0  0  0  0  0  0  0  0  0  0
   -4.6291    0.0832    3.3623 H   0  0  0  0  0  0  0  0  0  0  0  0
   -2.9933   -0.5219    3.6846 H   0  0  0  0  0  0  0  0  0  0  0  0
   -5.8370   -0.2411    0.7861 N   0  0  0  0  0  0  0  0  0  0  0  0
   -6.8404    0.3563   -0.0638 C   0  0  0  0  0  0  0  0  0  0  0  0
   -6.1518   -0.8553    1.5314 H   0  0  0  0  0  0  0  0  0  0  0  0
   -7.1568    1.3195    0.3628 H   0  0  0  0  0  0  0  0  0  0  0  0
   -6.4205    0.5201   -1.0672 H   0  0  0  0  0  0  0  0  0  0  0  0
   -7.7082   -0.3160   -0.1347 H   0  0  0  0  0  0  0  0  0  0  0  0
  1  3  1  0  0  0  0
  1  7  1  0  0  0  0
  1  2  2  0  0  0  0
 18 19  1  0  0  0  0
 19 24  1  0  0  0  0
 19 20  2  0  0  0  0
 25 26  1  0  0  0  0
 26 34  1  0  0  0  0
 26 27  2  0  0  0  0
  8  9  1  0  0  0  0
  9 17  1  0  0  0  0
  9 10  2  0  0  0  0
 25 28  1  0  0  0  0
  8 11  1  0  0  0  0
 34 35  1  0  0  0  0
 17 18  1  0  0  0  0
 24 25  1  0  0  0  0
  7  8  1  0  0  0  0
  3  4  1  0  0  0  0
  3  5  1  0  0  0  0
  3  6  1  0  0  0  0
 28 31  1  0  0  0  0
 28 32  1  0  0  0  0
 28 33  1  0  0  0  0
 11 14  1  0  0  0  0
 11 15  1  0  0  0  0
 11 16  1  0  0  0  0
 35 37  1  0  0  0  0
 35 38  1  0  0  0  0
 35 39  1  0  0  0  0
 18 22  1  0  0  0  0
 18 23  1  0  0  0  0
 25 30  1  0  0  0  0
  8 13  1  0  0  0  0
 34 36  1  0  0  0  0
 17 21  1  0  0  0  0
  7 12  1  0  0  0  0
 24 29  1  0  0  0  0
M  END
$$$$

  -OEChem-05262214473D

 39 38  0     1  0  0  0  0  0999 V2000
   -3.5200   -4.0268   -1.6943 C   0  0  0  0  0  0  0  0  0  0  0  0
   -2.8702   -4.8827   -1.1054 O   0  0  0  0  0  0  0  0  0  0  0  0
   -4.9704   -4.2579   -1.9614 C   0  0  0  0  0  0  0  0  0  0  0  0
   -5.1456   -4.7573   -2.9278 H   0  0  0  0  0  0  0  0  0  0  0  0
   -5.4379   -4.9112   -1.2072 H   0  0  0  0  0  0  0  0  0  0  0  0
   -5.5954   -3.3510   -1.9864 H   0  0  0  0  0  0  0  0  0  0  0  0
   -3.0424   -2.8131   -2.1606 N   0  0  0  0  0  0  0  0  0  0  0  0
   -1.6755   -2.3891   -2.0077 C   0  0  2  0  0  0  0  0  0  0  0  0
   -1.5782   -1.5673   -0.7292 C   0  0  0  0  0  0  0  0  0  0  0  0
   -2.5448   -1.0064   -0.2171 O   0  0  0  0  0  0  0  0  0  0  0  0
   -1.2087   -1.5823   -3.2094 C   0  0  0  0  0  0  0  0  0  0  0  0
   -3.6915   -2.1888   -2.6360 H   0  0  0  0  0  0  0  0  0  0  0  0
   -1.0721   -3.2977   -1.9053 H   0  0  0  0  0  0  0  0  0  0  0  0
   -1.8017   -0.6681   -3.3281 H   0  0  0  0  0  0  0  0  0  0  0  0
   -0.1601   -1.2849   -3.1045 H   0  0  0  0  0  0  0  0  0  0  0  0
   -1.3074   -2.1646   -4.1319 H   0  0  0  0  0  0  0  0  0  0  0  0
   -0.2835   -1.5112   -0.2725 N   0  0  0  0  0  0  0  0  0  0  0  0
    0.0769   -0.7658    0.9424 C   0  0  0  0  0  0  0  0  0  0  0  0
   -1.1693   -0.4460    1.7279 C   0  0  0  0  0  0  0  0  0  0  0  0
   -1.2031    0.3824    2.6340 O   0  0  0  0  0  0  0  0  0  0  0  0
    0.4587   -2.0097   -0.7289 H   0  0  0  0  0  0  0  0  0  0  0  0
    0.5820    0.1623    0.6590 H   0  0  0  0  0  0  0  0  0  0  0  0
    0.7524   -1.3747    1.5503 H   0  0  0  0  0  0  0  0  0  0  0  0
   -2.2538   -1.2034    1.2982 N   0  0  0  0  0  0  0  0  0  0  0  0
   -3.5689   -1.1051    1.8747 C   0  0  2  0  0  0  0  0  0  0  0  0
   -4.5430   -0.7356    0.7637 C   0  0  0  0  0  0  0  0  0  0  0  0
   -4.1943   -0.1846   -0.2783 O   0  0  0  0  0  0  0  0  0  0  0  0
   -3.6066   -0.0772    2.9948 C   0  0  0  0  0  0  0  0  0  0  0  0
   -2.1097   -1.8626    0.5351 H   0  0  0  0  0  0  0  0  0  0  0  0
   -3.8183   -2.0979    2.2646 H   0  0  0  0  0  0  0  0  0  0  0  0
   -3.3593    0.9240    2.6232 H   0  0  0  0  0  0  0  0  0  0  0  0
   -4.6005   -0.0241    3.4513 H   0  0  0  0  0  0  0  0  0  0  0  0
   -2.8842   -0.3285    3.7789 H   0  0  0  0  0  0  0  0  0  0  0  0
   -5.8534   -1.0544    1.0912 N   0  0  0  0  0  0  0  0  0  0  0  0
   -6.9643   -0.7909    0.2067 C   0  0  0  0  0  0  0  0  0  0  0  0
   -6.0483   -1.5269    1.9690 H   0  0  0  0  0  0  0  0  0  0  0  0
   -7.3958    0.1931    0.4423 H   0  0  0  0  0  0  0  0  0  0  0  0
   -6.6124   -0.7968   -0.8355 H   0  0  0  0  0  0  0  0  0  0  0  0
   -7.7309   -1.5686    0.3392 H   0  0  0  0  0  0  0  0  0  0  0  0
  1  3  1  0  0  0  0
  1  7  1  0  0  0  0
  1  2  2  0  0  0  0
 18 19  1  0  0  0  0
 19 24  1  0  0  0  0
 19 20  2  0  0  0  0
 25 26  1  0  0  0  0
 26 34  1  0  0  0  0
 26 27  2  0  0  0  0
  8  9  1  0  0  0  0
  9 17  1  0  0  0  0
  9 10  2  0  0  0  0
 25 28  1  0  0  0  0
  8 11  1  0  0  0  0
 34 35  1  0  0  0  0
 17 18  1  0  0  0  0
 24 25  1  0  0  0  0
  7  8  1  0  0  0  0
  3  4  1  0  0  0  0
  3  5  1  0  0  0  0
  3  6  1  0  0  0  0
 28 31  1  0  0  0  0
 28 32  1  0  0  0  0
 28 33  1  0  0  0  0
 11 14  1  0  0  0  0
 11 15  1  0  0  0  0
 11 16  1  0  0  0  0
 35 37  1  0  0  0  0
 35 38  1  0  0  0  0
 35 39  1  0  0  0  0
 18 22  1  0  0  0  0
 18 23  1  0  0  0  0
 25 30  1  0  0  0  0
  8 13  1  0  0  0  0
 34 36  1  0  0  0  0
 17 21  1  0  0  0  0
  7 12  1  0  0  0  0
 24 29  1  0  0  0  0
M  END
$$$$

  -OEChem-05262214473D

 39 38  0     1  0  0  0  0  0999 V2000
   -3.5200   -4.0268   -1.6943 C   0  0  0  0  0  0  0  0  0  0  0  0
   -2.8702   -4.8827   -1.1054 O   0  0  0  0  0  0  0  0  0  0  0  0
   -4.9704   -4.2579   -1.9614 C   0  0  0  0  0  0  0  0  0  0  0  0
   -5.1456   -4.7573   -2.9278 H   0  0  0  0  0  0  0  0  0  0  0  0
   -5.4379   -4.9112   -1.2072 H   0  0  0  0  0  0  0  0  0  0  0  0
   -5.5954   -3.3510   -1.9864 H   0  0  0  0  0  0  0  0  0  0  0  0
   -3.0424   -2.8131   -2.1606 N   0  0  0  0  0  0  0  0  0  0  0  0
   -1.6755   -2.3891   -2.0077 C   0  0  2  0  0  0  0  0  0  0  0  0
   -1.5782   -1.5673   -0.7292 C   0  0  0  0  0  0  0  0  0  0  0  0
   -2.5448   -1.0064   -0.2171 O   0  0  0  0  0  0  0  0  0  0  0  0
   -1.2087   -1.5823   -3.2094 C   0  0  0  0  0  0  0  0  0  0  0  0
   -3.6915   -2.1888   -2.6360 H   0  0  0  0  0  0  0  0  0  0  0  0
   -1.0721   -3.2977   -1.9053 H   0  0  0  0  0  0  0  0  0  0  0  0
   -1.8017   -0.6681   -3.3281 H   0  0  0  0  0  0  0  0  0  0  0  0
   -0.1601   -1.2849   -3.1045 H   0  0  0  0  0  0  0  0  0  0  0  0
   -1.3074   -2.1646   -4.1319 H   0  0  0  0  0  0  0  0  0  0  0  0
   -0.2835   -1.5112   -0.2725 N   0  0  0  0  0  0  0  0  0  0  0  0
    0.0769   -0.7658    0.9424 C   0  0  0  0  0  0  0  0  0  0  0  0
   -1.1693   -0.4460    1.7279 C   0  0  0  0  0  0  0  0  0  0  0  0
   -1.2830    0.5484    2.4397 O   0  0  0  0  0  0  0  0  0  0  0  0
    0.4587   -2.0097   -0.7289 H   0  0  0  0  0  0  0  0  0  0  0  0
    0.5820    0.1623    0.6590 H   0  0  0  0  0  0  0  0  0  0  0  0
    0.7524   -1.3747    1.5503 H   0  0  0  0  0  0  0  0  0  0  0  0
   -2.1527   -1.4121    1.5435 N   0  0  0  0  0  0  0  0  0  0  0  0
   -3.4443   -1.3609    2.1766 C   0  0  2  0  0  0  0  0  0  0  0  0
   -4.5046   -1.3709    1.0833 C   0  0  0  0  0  0  0  0  0  0  0  0
   -4.2792   -1.0198   -0.0730 O   0  0  0  0  0  0  0  0  0  0  0  0
   -3.5813   -0.1274    3.0554 C   0  0  0  0  0  0  0  0  0  0  0  0
   -1.9481   -2.1974    0.9279 H   0  0  0  0  0  0  0  0  0  0  0  0
   -3.5355   -2.2687    2.7829 H   0  0  0  0  0  0  0  0  0  0  0  0
   -3.4926    0.7921    2.4654 H   0  0  0  0  0  0  0  0  0  0  0  0
   -4.5536   -0.1048    3.5586 H   0  0  0  0  0  0  0  0  0  0  0  0
   -2.7998   -0.1067    3.8226 H   0  0  0  0  0  0  0  0  0  0  0  0
   -5.7428   -1.7770    1.5609 N   0  0  0  0  0  0  0  0  0  0  0  0
   -6.9144   -1.8578    0.7202 C   0  0  0  0  0  0  0  0  0  0  0  0
   -5.8337   -2.0681    2.5298 H   0  0  0  0  0  0  0  0  0  0  0  0
   -7.4704   -0.9101    0.7731 H   0  0  0  0  0  0  0  0  0  0  0  0
   -6.6074   -2.0450   -0.3194 H   0  0  0  0  0  0  0  0  0  0  0  0
   -7.5579   -2.6801    1.0662 H   0  0  0  0  0  0  0  0  0  0  0  0
  1  3  1  0  0  0  0
  1  7  1  0  0  0  0
  1  2  2  0  0  0  0
 18 19  1  0  0  0  0
 19 24  1  0  0  0  0
 19 20  2  0  0  0  0
 25 26  1  0  0  0  0
 26 34  1  0  0  0  0
 26 27  2  0  0  0  0
  8  9  1  0  0  0  0
  9 17  1  0  0  0  0
  9 10  2  0  0  0  0
 25 28  1  0  0  0  0
  8 11  1  0  0  0  0
 34 35  1  0  0  0  0
 17 18  1  0  0  0  0
 24 25  1  0  0  0  0
  7  8  1  0  0  0  0
  3  4  1  0  0  0  0
  3  5  1  0  0  0  0
  3  6  1  0  0  0  0
 28 31  1  0  0  0  0
 28 32  1  0  0  0  0
 28 33  1  0  0  0  0
 11 14  1  0  0  0  0
 11 15  1  0  0  0  0
 11 16  1  0  0  0  0
 35 37  1  0  0  0  0
 35 38  1  0  0  0  0
 35 39  1  0  0  0  0
 18 22  1  0  0  0  0
 18 23  1  0  0  0  0
 25 30  1  0  0  0  0
  8 13  1  0  0  0  0
 34 36  1  0  0  0  0
 17 21  1  0  0  0  0
  7 12  1  0  0  0  0
 24 29  1  0  0  0  0
M  END
$$$$

  -OEChem-05262214473D

 39 38  0     1  0  0  0  0  0999 V2000
   -3.5200   -4.0268   -1.6943 C   0  0  0  0  0  0  0  0  0  0  0  0
   -2.8702   -4.8827   -1.1054 O   0  0  0  0  0  0  0  0  0  0  0  0
   -4.9704   -4.2579   -1.9614 C   0  0  0  0  0  0  0  0  0  0  0  0
   -5.1456   -4.7573   -2.9278 H   0  0  0  0  0  0  0  0  0  0  0  0
   -5.4379   -4.9112   -1.2072 H   0  0  0  0  0  0  0  0  0  0  0  0
   -5.5954   -3.3510   -1.9864 H   0  0  0  0  0  0  0  0  0  0  0  0
   -3.0424   -2.8131   -2.1606 N   0  0  0  0  0  0  0  0  0  0  0  0
   -1.6755   -2.3891   -2.0077 C   0  0  2  0  0  0  0  0  0  0  0  0
   -1.5782   -1.5673   -0.7292 C   0  0  0  0  0  0  0  0  0  0  0  0
   -2.5448   -1.0064   -0.2171 O   0  0  0  0  0  0  0  0  0  0  0  0
   -1.2087   -1.5823   -3.2094 C   0  0  0  0  0  0  0  0  0  0  0  0
   -3.6915   -2.1888   -2.6360 H   0  0  0  0  0  0  0  0  0  0  0  0
   -1.0721   -3.2977   -1.9053 H   0  0  0  0  0  0  0  0  0  0  0  0
   -1.8017   -0.6681   -3.3281 H   0  0  0  0  0  0  0  0  0  0  0  0
   -0.1601   -1.2849   -3.1045 H   0  0  0  0  0  0  0  0  0  0  0  0
   -1.3074   -2.1646   -4.1319 H   0  0  0  0  0  0  0  0  0  0  0  0
   -0.2835   -1.5112   -0.2725 N   0  0  0  0  0  0  0  0  0  0  0  0
    0.0769   -0.7658    0.9424 C   0  0  0  0  0  0  0  0  0  0  0  0
   -1.1693   -0.4460    1.7279 C   0  0  0  0  0  0  0  0  0  0  0  0
   -1.3931    0.6564    2.2209 O   0  0  0  0  0  0  0  0  0  0  0  0
    0.4587   -2.0097   -0.7289 H   0  0  0  0  0  0  0  0  0  0  0  0
    0.5820    0.1623    0.6590 H   0  0  0  0  0  0  0  0  0  0  0  0
    0.7524   -1.3747    1.5503 H   0  0  0  0  0  0  0  0  0  0  0  0
   -2.0135   -1.5475    1.8196 N   0  0  0  0  0  0  0  0  0  0  0  0
   -3.2728   -1.5267    2.5161 C   0  0  2  0  0  0  0  0  0  0  0  0
   -4.3643   -1.9110    1.5258 C   0  0  0  0  0  0  0  0  0  0  0  0
   -4.2373   -1.7941    0.3088 O   0  0  0  0  0  0  0  0  0  0  0  0
   -3.5468   -0.1596    3.1234 C   0  0  0  0  0  0  0  0  0  0  0  0
   -1.7252   -2.4150    1.3701 H   0  0  0  0  0  0  0  0  0  0  0  0
   -3.2108   -2.2847    3.3045 H   0  0  0  0  0  0  0  0  0  0  0  0
   -3.6123    0.6129    2.3485 H   0  0  0  0  0  0  0  0  0  0  0  0
   -4.4915   -0.1535    3.6769 H   0  0  0  0  0  0  0  0  0  0  0  0
   -2.7457    0.1282    3.8127 H   0  0  0  0  0  0  0  0  0  0  0  0
   -5.5127   -2.3595    2.1631 N   0  0  0  0  0  0  0  0  0  0  0  0
   -6.6941   -2.7717    1.4417 C   0  0  0  0  0  0  0  0  0  0  0  0
   -5.5227   -2.4418    3.1754 H   0  0  0  0  0  0  0  0  0  0  0  0
   -7.3755   -1.9150    1.3328 H   0  0  0  0  0  0  0  0  0  0  0  0
   -6.4059   -3.1397    0.4460 H   0  0  0  0  0  0  0  0  0  0  0  0
   -7.2009   -3.5748    1.9968 H   0  0  0  0  0  0  0  0  0  0  0  0
  1  3  1  0  0  0  0
  1  7  1  0  0  0  0
  1  2  2  0  0  0  0
 18 19  1  0  0  0  0
 19 24  1  0  0  0  0
 19 20  2  0  0  0  0
 25 26  1  0  0  0  0
 26 34  1  0  0  0  0
 26 27  2  0  0  0  0
  8  9  1  0  0  0  0
  9 17  1  0  0  0  0
  9 10  2  0  0  0  0
 25 28  1  0  0  0  0
  8 11  1  0  0  0  0
 34 35  1  0  0  0  0
 17 18  1  0  0  0  0
 24 25  1  0  0  0  0
  7  8  1  0  0  0  0
  3  4  1  0  0  0  0
  3  5  1  0  0  0  0
  3  6  1  0  0  0  0
 28 31  1  0  0  0  0
 28 32  1  0  0  0  0
 28 33  1  0  0  0  0
 11 14  1  0  0  0  0
 11 15  1  0  0  0  0
 11 16  1  0  0  0  0
 35 37  1  0  0  0  0
 35 38  1  0  0  0  0
 35 39  1  0  0  0  0
 18 22  1  0  0  0  0
 18 23  1  0  0  0  0
 25 30  1  0  0  0  0
  8 13  1  0  0  0  0
 34 36  1  0  0  0  0
 17 21  1  0  0  0  0
  7 12  1  0  0  0  0
 24 29  1  0  0  0  0
M  END
$$$$

  -OEChem-05262214473D

 39 38  0     1  0  0  0  0  0999 V2000
   -3.5200   -4.0268   -1.6943 C   0  0  0  0  0  0  0  0  0  0  0  0
   -2.8702   -4.8827   -1.1054 O   0  0  0  0  0  0  0  0  0  0  0  0
   -4.9704   -4.2579   -1.9614 C   0  0  0  0  0  0  0  0  0  0  0  0
   -5.1456   -4.7573   -2.9278 H   0  0  0  0  0  0  0  0  0  0  0  0
   -5.4379   -4.9112   -1.2072 H   0  0  0  0  0  0  0  0  0  0  0  0
   -5.5954   -3.3510   -1.9864 H   0  0  0  0  0  0  0  0  0  0  0  0
   -3.0424   -2.8131   -2.1606 N   0  0  0  0  0  0  0  0  0  0  0  0
   -1.6755   -2.3891   -2.0077 C   0  0  2  0  0  0  0  0  0  0  0  0
   -1.5782   -1.5673   -0.7292 C   0  0  0  0  0  0  0  0  0  0  0  0
   -2.5448   -1.0064   -0.2171 O   0  0  0  0  0  0  0  0  0  0  0  0
   -1.2087   -1.5823   -3.2094 C   0  0  0  0  0  0  0  0  0  0  0  0
   -3.6915   -2.1888   -2.6360 H   0  0  0  0  0  0  0  0  0  0  0  0
   -1.0721   -3.2977   -1.9053 H   0  0  0  0  0  0  0  0  0  0  0  0
   -1.8017   -0.6681   -3.3281 H   0  0  0  0  0  0  0  0  0  0  0  0
   -0.1601   -1.2849   -3.1045 H   0  0  0  0  0  0  0  0  0  0  0  0
   -1.3074   -2.1646   -4.1319 H   0  0  0  0  0  0  0  0  0  0  0  0
   -0.2835   -1.5112   -0.2725 N   0  0  0  0  0  0  0  0  0  0  0  0
    0.0769   -0.7658    0.9424 C   0  0  0  0  0  0  0  0  0  0  0  0
   -1.1693   -0.4460    1.7279 C   0  0  0  0  0  0  0  0  0  0  0  0
   -1.5262    0.6990    1.9925 O   0  0  0  0  0  0  0  0  0  0  0  0
    0.4587   -2.0097   -0.7289 H   0  0  0  0  0  0  0  0  0  0  0  0
    0.5820    0.1623    0.6590 H   0  0  0  0  0  0  0  0  0  0  0  0
    0.7524   -1.3747    1.5503 H   0  0  0  0  0  0  0  0  0  0  0  0
   -1.8456   -1.6005    2.1076 N   0  0  0  0  0  0  0  0  0  0  0  0
   -3.0662   -1.5910    2.8700 C   0  0  2  0  0  0  0  0  0  0  0  0
   -4.1316   -2.3191    2.0611 C   0  0  0  0  0  0  0  0  0  0  0  0
   -4.0714   -2.4546    0.8408 O   0  0  0  0  0  0  0  0  0  0  0  0
   -3.5053   -0.1715    3.1940 C   0  0  0  0  0  0  0  0  0  0  0  0
   -1.4563   -2.5004    1.8316 H   0  0  0  0  0  0  0  0  0  0  0  0
   -2.8664   -2.1447    3.7939 H   0  0  0  0  0  0  0  0  0  0  0  0
   -3.7101    0.3988    2.2805 H   0  0  0  0  0  0  0  0  0  0  0  0
   -4.4185   -0.1668    3.7982 H   0  0  0  0  0  0  0  0  0  0  0  0
   -2.7257    0.3603    3.7500 H   0  0  0  0  0  0  0  0  0  0  0  0
   -5.1789   -2.7622    2.8567 N   0  0  0  0  0  0  0  0  0  0  0  0
   -6.3185   -3.4704    2.3222 C   0  0  0  0  0  0  0  0  0  0  0  0
   -5.1364   -2.6228    3.8620 H   0  0  0  0  0  0  0  0  0  0  0  0
   -7.1175   -2.7531    2.0833 H   0  0  0  0  0  0  0  0  0  0  0  0
   -6.0216   -4.0060    1.4084 H   0  0  0  0  0  0  0  0  0  0  0  0
   -6.6844   -4.1918    3.0676 H   0  0  0  0  0  0  0  0  0  0  0  0
  1  3  1  0  0  0  0
  1  7  1  0  0  0  0
  1  2  2  0  0  0  0
 18 19  1  0  0  0  0
 19 24  1  0  0  0  0
 19 20  2  0  0  0  0
 25 26  1  0  0  0  0
 26 34  1  0  0  0  0
 26 27  2  0  0  0  0
  8  9  1  0  0  0  0
  9 17  1  0  0  0  0
  9 10  2  0  0  0  0
 25 28  1  0  0  0  0
  8 11  1  0  0  0  0
 34 35  1  0  0  0  0
 17 18  1  0  0  0  0
 24 25  1  0  0  0  0
  7  8  1  0  0  0  0
  3  4  1  0  0  0  0
  3  5  1  0  0  0  0
  3  6  1  0  0  0  0
 28 31  1  0  0  0  0
 28 32  1  0  0  0  0
 28 33  1  0  0  0  0
 11 14  1  0  0  0  0
 11 15  1  0  0  0  0
 11 16  1  0  0  0  0
 35 37  1  0  0  0  0
 35 38  1  0  0  0  0
 35 39  1  0  0  0  0
 18 22  1  0  0  0  0
 18 23  1  0  0  0  0
 25 30  1  0  0  0  0
  8 13  1  0  0  0  0
 34 36  1  0  0  0  0
 17 21  1  0  0  0  0
  7 12  1  0  0  0  0
 24 29  1  0  0  0  0
M  END
$$$$

  -OEChem-05262214473D

 39 38  0     1  0  0  0  0  0999 V2000
   -3.5200   -4.0268   -1.6943 C   0  0  0  0  0  0  0  0  0  0  0  0
   -2.8702   -4.8827   -1.1054 O   0  0  0  0  0  0  0  0  0  0  0  0
   -4.9704   -4.2579   -1.9614 C   0  0  0  0  0  0  0  0  0  0  0  0
   -5.1456   -4.7573   -2.9278 H   0  0  0  0  0  0  0  0  0  0  0  0
   -5.4379   -4.9112   -1.2072 H   0  0  0  0  0  0  0  0  0  0  0  0
   -5.5954   -3.3510   -1.9864 H   0  0  0  0  0  0  0  0  0  0  0  0
   -3.0424   -2.8131   -2.1606 N   0  0  0  0  0  0  0  0  0  0  0  0
   -1.6755   -2.3891   -2.0077 C   0  0  2  0  0  0  0  0  0  0  0  0
   -1.5782   -1.5673   -0.7292 C   0  0  0  0  0  0  0  0  0  0  0  0
   -2.5448   -1.0064   -0.2171 O   0  0  0  0  0  0  0  0  0  0  0  0
   -1.2087   -1.5823   -3.2094 C   0  0  0  0  0  0  0  0  0  0  0  0
   -3.6915   -2.1888   -2.6360 H   0  0  0  0  0  0  0  0  0  0  0  0
   -1.0721   -3.2977   -1.9053 H   0  0  0  0  0  0  0  0  0  0  0  0
   -1.8017   -0.6681   -3.3281 H   0  0  0  0  0  0  0  0  0  0  0  0
   -0.1601   -1.2849   -3.1045 H   0  0  0  0  0  0  0  0  0  0  0  0
   -1.3074   -2.1646   -4.1319 H   0  0  0  0  0  0  0  0  0  0  0  0
   -0.2835   -1.5112   -0.2725 N   0  0  0  0  0  0  0  0  0  0  0  0
    0.0769   -0.7658    0.9424 C   0  0  0  0  0  0  0  0  0  0  0  0
   -1.1693   -0.4460    1.7279 C   0  0  0  0  0  0  0  0  0  0  0  0
   -1.6729    0.6734    1.7701 O   0  0  0  0  0  0  0  0  0  0  0  0
    0.4587   -2.0097   -0.7289 H   0  0  0  0  0  0  0  0  0  0  0  0
    0.5820    0.1623    0.6590 H   0  0  0  0  0  0  0  0  0  0  0  0
    0.7524   -1.3747    1.5503 H   0  0  0  0  0  0  0  0  0  0  0  0
   -1.6604   -1.5674    2.3880 N   0  0  0  0  0  0  0  0  0  0  0  0
   -2.8386   -1.5495    3.2144 C   0  0  2  0  0  0  0  0  0  0  0  0
   -3.8224   -2.5674    2.6527 C   0  0  0  0  0  0  0  0  0  0  0  0
   -3.7929   -2.9564    1.4870 O   0  0  0  0  0  0  0  0  0  0  0  0
   -3.4598   -0.1623    3.2624 C   0  0  0  0  0  0  0  0  0  0  0  0
   -1.1597   -2.4480    2.2808 H   0  0  0  0  0  0  0  0  0  0  0  0
   -2.5258   -1.8583    4.2178 H   0  0  0  0  0  0  0  0  0  0  0  0
   -3.7794    0.1641    2.2660 H   0  0  0  0  0  0  0  0  0  0  0  0
   -4.3395   -0.1438    3.9142 H   0  0  0  0  0  0  0  0  0  0  0  0
   -2.7411    0.5738    3.6386 H   0  0  0  0  0  0  0  0  0  0  0  0
   -4.7640   -2.9579    3.5946 N   0  0  0  0  0  0  0  0  0  0  0  0
   -5.8131   -3.9062    3.3015 C   0  0  0  0  0  0  0  0  0  0  0  0
   -4.7012   -2.5986    4.5426 H   0  0  0  0  0  0  0  0  0  0  0  0
   -6.7142   -3.3673    2.9734 H   0  0  0  0  0  0  0  0  0  0  0  0
   -5.4807   -4.5851    2.5023 H   0  0  0  0  0  0  0  0  0  0  0  0
   -6.0435   -4.4891    4.2055 H   0  0  0  0  0  0  0  0  0  0  0  0
  1  3  1  0  0  0  0
  1  7  1  0  0  0  0
  1  2  2  0  0  0  0
 18 19  1  0  0  0  0
 19 24  1  0  0  0  0
 19 20  2  0  0  0  0
 25 26  1  0  0  0  0
 26 34  1  0  0  0  0
 26 27  2  0  0  0  0
  8  9  1  0  0  0  0
  9 17  1  0  0  0  0
  9 10  2  0  0  0  0
 25 28  1  0  0  0  0
  8 11  1  0  0  0  0
 34 35  1  0  0  0  0
 17 18  1  0  0  0  0
 24 25  1  0  0  0  0
  7  8  1  0  0  0  0
  3  4  1  0  0  0  0
  3  5  1  0  0  0  0
  3  6  1  0  0  0  0
 28 31  1  0  0  0  0
 28 32  1  0  0  0  0
 28 33  1  0  0  0  0
 11 14  1  0  0  0  0
 11 15  1  0  0  0  0
 11 16  1  0  0  0  0
 35 37  1  0  0  0  0
 35 38  1  0  0  0  0
 35 39  1  0  0  0  0
 18 22  1  0  0  0  0
 18 23  1  0  0  0  0
 25 30  1  0  0  0  0
  8 13  1  0  0  0  0
 34 36  1  0  0  0  0
 17 21  1  0  0  0  0
  7 12  1  0  0  0  0
 24 29  1  0  0  0  0
M  END
$$$$

  -OEChem-05262214473D

 39 38  0     1  0  0  0  0  0999 V2000
   -3.5200   -4.0268   -1.6943 C   0  0  0  0  0  0  0  0  0  0  0  0
   -2.8702   -4.8827   -1.1054 O   0  0  0  0  0  0  0  0  0  0  0  0
   -4.9704   -4.2579   -1.9614 C   0  0  0  0  0  0  0  0  0  0  0  0
   -5.1456   -4.7573   -2.9278 H   0  0  0  0  0  0  0  0  0  0  0  0
   -5.4379   -4.9112   -1.2072 H   0  0  0  0  0  0  0  0  0  0  0  0
   -5.5954   -3.3510   -1.9864 H   0  0  0  0  0  0  0  0  0  0  0  0
   -3.0424   -2.8131   -2.1606 N   0  0  0  0  0  0  0  0  0  0  0  0
   -1.6755   -2.3891   -2.0077 C   0  0  2  0  0  0  0  0  0  0  0  0
   -1.5782   -1.5673   -0.7292 C   0  0  0  0  0  0  0  0  0  0  0  0
   -2.5448   -1.0064   -0.2171 O   0  0  0  0  0  0  0  0  0  0  0  0
   -1.2087   -1.5823   -3.2094 C   0  0  0  0  0  0  0  0  0  0  0  0
   -3.6915   -2.1888   -2.6360 H   0  0  0  0  0  0  0  0  0  0  0  0
   -1.0721   -3.2977   -1.9053 H   0  0  0  0  0  0  0  0  0  0  0  0
   -1.8017   -0.6681   -3.3281 H   0  0  0  0  0  0  0  0  0  0  0  0
   -0.1601   -1.2849   -3.1045 H   0  0  0  0  0  0  0  0  0  0  0  0
   -1.3074   -2.1646   -4.1319 H   0  0  0  0  0  0  0  0  0  0  0  0
   -0.2835   -1.5112   -0.2725 N   0  0  0  0  0  0  0  0  0  0  0  0
    0.0769   -0.7658    0.9424 C   0  0  0  0  0  0  0  0  0  0  0  0
   -1.1693   -0.4460    1.7279 C   0  0  0  0  0  0  0  0  0  0  0  0
   -1.8234    0.5813    1.5688 O   0  0  0  0  0  0  0  0  0  0  0  0
    0.4587   -2.0097   -0.7289 H   0  0  0  0  0  0  0  0  0  0  0  0
    0.5820    0.1623    0.6590 H   0  0  0  0  0  0  0  0  0  0  0  0
    0.7524   -1.3747    1.5503 H   0  0  0  0  0  0  0  0  0  0  0  0
   -1.4706   -1.4505    2.6415 N   0  0  0  0  0  0  0  0  0  0  0  0
   -2.6054   -1.4051    3.5256 C   0  0  2  0  0  0  0  0  0  0  0  0
   -3.4578   -2.6389    3.2603 C   0  0  0  0  0  0  0  0  0  0  0  0
   -3.4207   -3.2653    2.2033 O   0  0  0  0  0  0  0  0  0  0  0  0
   -3.4133   -0.1326    3.3241 C   0  0  0  0  0  0  0  0  0  0  0  0
   -0.8556   -2.2612    2.6872 H   0  0  0  0  0  0  0  0  0  0  0  0
   -2.2121   -1.4450    4.5473 H   0  0  0  0  0  0  0  0  0  0  0  0
   -3.8156   -0.0749    2.3061 H   0  0  0  0  0  0  0  0  0  0  0  0
   -4.2599   -0.0862    4.0170 H   0  0  0  0  0  0  0  0  0  0  0  0
   -2.7909    0.7540    3.4862 H   0  0  0  0  0  0  0  0  0  0  0  0
   -4.2964   -2.9330    4.3264 N   0  0  0  0  0  0  0  0  0  0  0  0
   -5.2124   -4.0495    4.3129 C   0  0  0  0  0  0  0  0  0  0  0  0
   -4.2467   -2.3709    5.1710 H   0  0  0  0  0  0  0  0  0  0  0  0
   -6.1928   -3.7157    3.9424 H   0  0  0  0  0  0  0  0  0  0  0  0
   -4.8201   -4.8375    3.6532 H   0  0  0  0  0  0  0  0  0  0  0  0
   -5.3218   -4.4462    5.3331 H   0  0  0  0  0  0  0  0  0  0  0  0
  1  3  1  0  0  0  0
  1  7  1  0  0  0  0
  1  2  2  0  0  0  0
 18 19  1  0  0  0  0
 19 24  1  0  0  0  0
 19 20  2  0  0  0  0
 25 26  1  0  0  0  0
 26 34  1  0  0  0  0
 26 27  2  0  0  0  0
  8  9  1  0  0  0  0
  9 17  1  0  0  0  0
  9 10  2  0  0  0  0
 25 28  1  0  0  0  0
  8 11  1  0  0  0  0
 34 35  1  0  0  0  0
 17 18  1  0  0  0  0
 24 25  1  0  0  0  0
  7  8  1  0  0  0  0
  3  4  1  0  0  0  0
  3  5  1  0  0  0  0
  3  6  1  0  0  0  0
 28 31  1  0  0  0  0
 28 32  1  0  0  0  0
 28 33  1  0  0  0  0
 11 14  1  0  0  0  0
 11 15  1  0  0  0  0
 11 16  1  0  0  0  0
 35 37  1  0  0  0  0
 35 38  1  0  0  0  0
 35 39  1  0  0  0  0
 18 22  1  0  0  0  0
 18 23  1  0  0  0  0
 25 30  1  0  0  0  0
  8 13  1  0  0  0  0
 34 36  1  0  0  0  0
 17 21  1  0  0  0  0
  7 12  1  0  0  0  0
 24 29  1  0  0  0  0
M  END
$$$$

  -OEChem-05262214473D

 39 38  0     1  0  0  0  0  0999 V2000
   -3.5200   -4.0268   -1.6943 C   0  0  0  0  0  0  0  0  0  0  0  0
   -2.8702   -4.8827   -1.1054 O   0  0  0  0  0  0  0  0  0  0  0  0
   -4.9704   -4.2579   -1.9614 C   0  0  0  0  0  0  0  0  0  0  0  0
   -5.1456   -4.7573   -2.9278 H   0  0  0  0  0  0  0  0  0  0  0  0
   -5.4379   -4.9112   -1.2072 H   0  0  0  0  0  0  0  0  0  0  0  0
   -5.5954   -3.3510   -1.9864 H   0  0  0  0  0  0  0  0  0  0  0  0
   -3.0424   -2.8131   -2.1606 N   0  0  0  0  0  0  0  0  0  0  0  0
   -1.6755   -2.3891   -2.0077 C   0  0  2  0  0  0  0  0  0  0  0  0
   -1.5782   -1.5673   -0.7292 C   0  0  0  0  0  0  0  0  0  0  0  0
   -2.5448   -1.0064   -0.2171 O   0  0  0  0  0  0  0  0  0  0  0  0
   -1.2087   -1.5823   -3.2094 C   0  0  0  0  0  0  0  0  0  0  0  0
   -3.6915   -2.1888   -2.6360 H   0  0  0  0  0  0  0  0  0  0  0  0
   -1.0721   -3.2977   -1.9053 H   0  0  0  0  0  0  0  0  0  0  0  0
   -1.8017   -0.6681   -3.3281 H   0  0  0  0  0  0  0  0  0  0  0  0
   -0.1601   -1.2849   -3.1045 H   0  0  0  0  0  0  0  0  0  0  0  0
   -1.3074   -2.1646   -4.1319 H   0  0  0  0  0  0  0  0  0  0  0  0
   -0.2835   -1.5112   -0.2725 N   0  0  0  0  0  0  0  0  0  0  0  0
    0.0769   -0.7658    0.9424 C   0  0  0  0  0  0  0  0  0  0  0  0
   -1.1693   -0.4460    1.7279 C   0  0  0  0  0  0  0  0  0  0  0  0
   -1.9675    0.4289    1.4023 O   0  0  0  0  0  0  0  0  0  0  0  0
    0.4587   -2.0097   -0.7289 H   0  0  0  0  0  0  0  0  0  0  0  0
    0.5820    0.1623    0.6590 H   0  0  0  0  0  0  0  0  0  0  0  0
    0.7524   -1.3747    1.5503 H   0  0  0  0  0  0  0  0  0  0  0  0
   -1.2891   -1.2577    2.8509 N   0  0  0  0  0  0  0  0  0  0  0  0
   -2.3825   -1.1675    3.7825 C   0  0  2  0  0  0  0  0  0  0  0  0
   -3.0627   -2.5289    3.8425 C   0  0  0  0  0  0  0  0  0  0  0  0
   -2.9803   -3.3602    2.9408 O   0  0  0  0  0  0  0  0  0  0  0  0
   -3.3690   -0.0845    3.3747 C   0  0  0  0  0  0  0  0  0  0  0  0
   -0.5647   -1.9528    3.0232 H   0  0  0  0  0  0  0  0  0  0  0  0
   -1.9467   -0.9330    4.7598 H   0  0  0  0  0  0  0  0  0  0  0  0
   -3.8160   -0.3022    2.3978 H   0  0  0  0  0  0  0  0  0  0  0  0
   -4.1851    0.0022    4.0996 H   0  0  0  0  0  0  0  0  0  0  0  0
   -2.8717    0.8888    3.3031 H   0  0  0  0  0  0  0  0  0  0  0  0
   -3.8079   -2.6893    5.0023 N   0  0  0  0  0  0  0  0  0  0  0  0
   -4.5573   -3.8905    5.2876 C   0  0  0  0  0  0  0  0  0  0  0  0
   -3.8039   -1.9552    5.7043 H   0  0  0  0  0  0  0  0  0  0  0  0
   -5.5891   -3.7746    4.9243 H   0  0  0  0  0  0  0  0  0  0  0  0
   -4.0848   -4.7459    4.7826 H   0  0  0  0  0  0  0  0  0  0  0  0
   -4.5686   -4.0663    6.3734 H   0  0  0  0  0  0  0  0  0  0  0  0
  1  3  1  0  0  0  0
  1  7  1  0  0  0  0
  1  2  2  0  0  0  0
 18 19  1  0  0  0  0
 19 24  1  0  0  0  0
 19 20  2  0  0  0  0
 25 26  1  0  0  0  0
 26 34  1  0  0  0  0
 26 27  2  0  0  0  0
  8  9  1  0  0  0  0
  9 17  1  0  0  0  0
  9 10  2  0  0  0  0
 25 28  1  0  0  0  0
  8 11  1  0  0  0  0
 34 35  1  0  0  0  0
 17 18  1  0  0  0  0
 24 25  1  0  0  0  0
  7  8  1  0  0  0  0
  3  4  1  0  0  0  0
  3  5  1  0  0  0  0
  3  6  1  0  0  0  0
 28 31  1  0  0  0  0
 28 32  1  0  0  0  0
 28 33  1  0  0  0  0
 11 14  1  0  0  0  0
 11 15  1  0  0  0  0
 11 16  1  0  0  0  0
 35 37  1  0  0  0  0
 35 38  1  0  0  0  0
 35 39  1  0  0  0  0
 18 22  1  0  0  0  0
 18 23  1  0  0  0  0
 25 30  1  0  0  0  0
  8 13  1  0  0  0  0
 34 36  1  0  0  0  0
 17 21  1  0  0  0  0
  7 12  1  0  0  0  0
 24 29  1  0  0  0  0
M  END
$$$$

  -OEChem-05262214473D

 39 38  0     1  0  0  0  0  0999 V2000
   -3.5200   -4.0268   -1.6943 C   0  0  0  0  0  0  0  0  0  0  0  0
   -2.8702   -4.8827   -1.1054 O   0  0  0  0  0  0  0  0  0  0  0  0
   -4.9704   -4.2579   -1.9614 C   0  0  0  0  0  0  0  0  0  0  0  0
   -5.1456   -4.7573   -2.9278 H   0  0  0  0  0  0  0  0  0  0  0  0
   -5.4379   -4.9112   -1.2072 H   0  0  0  0  0  0  0  0  0  0  0  0
   -5.5954   -3.3510   -1.9864 H   0  0  0  0  0  0  0  0  0  0  0  0
   -3.0424   -2.8131   -2.1606 N   0  0  0  0  0  0  0  0  0  0  0  0
   -1.6755   -2.3891   -2.0077 C   0  0  2  0  0  0  0  0  0  0  0  0
   -1.5782   -1.5673   -0.7292 C   0  0  0  0  0  0  0  0  0  0  0  0
   -2.5448   -1.0064   -0.2171 O   0  0  0  0  0  0  0  0  0  0  0  0
   -1.2087   -1.5823   -3.2094 C   0  0  0  0  0  0  0  0  0  0  0  0
   -3.6915   -2.1888   -2.6360 H   0  0  0  0  0  0  0  0  0  0  0  0
   -1.0721   -3.2977   -1.9053 H   0  0  0  0  0  0  0  0  0  0  0  0
   -1.8017   -0.6681   -3.3281 H   0  0  0  0  0  0  0  0  0  0  0  0
   -0.1601   -1.2849   -3.1045 H   0  0  0  0  0  0  0  0  0  0  0  0
   -1.3074   -2.1646   -4.1319 H   0  0  0  0  0  0  0  0  0  0  0  0
   -0.2835   -1.5112   -0.2725 N   0  0  0  0  0  0  0  0  0  0  0  0
    0.0769   -0.7658    0.9424 C   0  0  0  0  0  0  0  0  0  0  0  0
   -1.1693   -0.4460    1.7279 C   0  0  0  0  0  0  0  0  0  0  0  0
   -2.0952    0.2266    1.2820 O   0  0  0  0  0  0  0  0  0  0  0  0
    0.4587   -2.0097   -0.7289 H   0  0  0  0  0  0  0  0  0  0  0  0
    0.5820    0.1623    0.6590 H   0  0  0  0  0  0  0  0  0  0  0  0
    0.7524   -1.3747    1.5503 H   0  0  0  0  0  0  0  0  0  0  0  0
   -1.1284   -1.0022    3.0020 N   0  0  0  0  0  0  0  0  0  0  0  0
   -2.1851   -0.8530    3.9676 C   0  0  2  0  0  0  0  0  0  0  0  0
   -2.6638   -2.2447    4.3596 C   0  0  0  0  0  0  0  0  0  0  0  0
   -2.5015   -3.2347    3.6493 O   0  0  0  0  0  0  0  0  0  0  0  0
   -3.3300   -0.0211    3.4109 C   0  0  0  0  0  0  0  0  0  0  0  0
   -0.3069   -1.5438    3.2657 H   0  0  0  0  0  0  0  0  0  0  0  0
   -1.7478   -0.3571    4.8410 H   0  0  0  0  0  0  0  0  0  0  0  0
   -3.7808   -0.5021    2.5352 H   0  0  0  0  0  0  0  0  0  0  0  0
   -4.1203    0.1154    4.1564 H   0  0  0  0  0  0  0  0  0  0  0  0
   -2.9780    0.9690    3.1019 H   0  0  0  0  0  0  0  0  0  0  0  0
   -3.3318   -2.2434    5.5762 N   0  0  0  0  0  0  0  0  0  0  0  0
   -3.8924   -3.4400    6.1590 C   0  0  0  0  0  0  0  0  0  0  0  0
   -3.4030   -1.3798    6.1062 H   0  0  0  0  0  0  0  0  0  0  0  0
   -4.9440   -3.5399    5.8522 H   0  0  0  0  0  0  0  0  0  0  0  0
   -3.3249   -4.3166    5.8135 H   0  0  0  0  0  0  0  0  0  0  0  0
   -3.8352   -3.3751    7.2556 H   0  0  0  0  0  0  0  0  0  0  0  0
  1  3  1  0  0  0  0
  1  7  1  0  0  0  0
  1  2  2  0  0  0  0
 18 19  1  0  0  0  0
 19 24  1  0  0  0  0
 19 20  2  0  0  0  0
 25 26  1  0  0  0  0
 26 34  1  0  0  0  0
 26 27  2  0  0  0  0
  8  9  1  0  0  0  0
  9 17  1  0  0  0  0
  9 10  2  0  0  0  0
 25 28  1  0  0  0  0
  8 11  1  0  0  0  0
 34 35  1  0  0  0  0
 17 18  1  0  0  0  0
 24 25  1  0  0  0  0
  7  8  1  0  0  0  0
  3  4  1  0  0  0  0
  3  5  1  0  0  0  0
  3  6  1  0  0  0  0
 28 31  1  0  0  0  0
 28 32  1  0  0  0  0
 28 33  1  0  0  0  0
 11 14  1  0  0  0  0
 11 15  1  0  0  0  0
 11 16  1  0  0  0  0
 35 37  1  0  0  0  0
 35 38  1  0  0  0  0
 35 39  1  0  0  0  0
 18 22  1  0  0  0  0
 18 23  1  0  0  0  0
 25 30  1  0  0  0  0
  8 13  1  0  0  0  0
 34 36  1  0  0  0  0
 17 21  1  0  0  0  0
  7 12  1  0  0  0  0
 24 29  1  0  0  0  0
M  END
$$$$

  -OEChem-05262214473D

 39 38  0     1  0  0  0  0  0999 V2000
   -3.5200   -4.0268   -1.6943 C   0  0  0  0  0  0  0  0  0  0  0  0
   -2.8702   -4.8827   -1.1054 O   0  0  0  0  0  0  0  0  0  0  0  0
   -4.9704   -4.2579   -1.9614 C   0  0  0  0  0  0  0  0  0  0  0  0
   -5.1456   -4.7573   -2.9278 H   0  0  0  0  0  0  0  0  0  0  0  0
   -5.4379   -4.9112   -1.2072 H   0  0  0  0  0  0  0  0  0  0  0  0
   -5.5954   -3.3510   -1.9864 H   0  0  0  0  0  0  0  0  0  0  0  0
   -3.0424   -2.8131   -2.1606 N   0  0  0  0  0  0  0  0  0  0  0  0
   -1.6755   -2.3891   -2.0077 C   0  0  2  0  0  0  0  0  0  0  0  0
   -1.5782   -1.5673   -0.7292 C   0  0  0  0  0  0  0  0  0  0  0  0
   -2.5448   -1.0064   -0.2171 O   0  0  0  0  0  0  0  0  0  0  0  0
   -1.2087   -1.5823   -3.2094 C   0  0  0  0  0  0  0  0  0  0  0  0
   -3.6915   -2.1888   -2.6360 H   0  0  0  0  0  0  0  0  0  0  0  0
   -1.0721   -3.2977   -1.9053 H   0  0  0  0  0  0  0  0  0  0  0  0
   -1.8017   -0.6681   -3.3281 H   0  0  0  0  0  0  0  0  0  0  0  0
   -0.1601   -1.2849   -3.1045 H   0  0  0  0  0  0  0  0  0  0  0  0
   -1.3074   -2.1646   -4.1319 H   0  0  0  0  0  0  0  0  0  0  0  0
   -0.2835   -1.5112   -0.2725 N   0  0  0  0  0  0  0  0  0  0  0  0
    0.0769   -0.7658    0.9424 C   0  0  0  0  0  0  0  0  0  0  0  0
   -1.1693   -0.4460    1.7279 C   0  0  0  0  0  0  0  0  0  0  0  0
   -2.1978   -0.0117    1.2161 O   0  0  0  0  0  0  0  0  0  0  0  0
    0.4587   -2.0097   -0.7289 H   0  0  0  0  0  0  0  0  0  0  0  0
    0.5820    0.1623    0.6590 H   0  0  0  0  0  0  0  0  0  0  0  0
    0.7524   -1.3747    1.5503 H   0  0  0  0  0  0  0  0  0  0  0  0
   -0.9992   -0.7014    3.0844 N   0  0  0  0  0  0  0  0  0  0  0  0
   -2.0267   -0.4830    4.0683 C   0  0  2  0  0  0  0  0  0  0  0  0
   -2.2885   -1.8057    4.7764 C   0  0  0  0  0  0  0  0  0  0  0  0
   -2.0171   -2.8973    4.2805 O   0  0  0  0  0  0  0  0  0  0  0  0
   -3.2988    0.0530    3.4302 C   0  0  0  0  0  0  0  0  0  0  0  0
   -0.0997   -1.0621    3.3983 H   0  0  0  0  0  0  0  0  0  0  0  0
   -1.6288    0.2433    4.7853 H   0  0  0  0  0  0  0  0  0  0  0  0
   -3.7122   -0.6611    2.7086 H   0  0  0  0  0  0  0  0  0  0  0  0
   -4.0699    0.2455    4.1835 H   0  0  0  0  0  0  0  0  0  0  0  0
   -3.1025    0.9890    2.8962 H   0  0  0  0  0  0  0  0  0  0  0  0
   -2.9005   -1.6256    6.0089 N   0  0  0  0  0  0  0  0  0  0  0  0
   -3.2631   -2.7287    6.8679 C   0  0  0  0  0  0  0  0  0  0  0  0
   -3.0713   -0.6839    6.3492 H   0  0  0  0  0  0  0  0  0  0  0  0
   -4.3017   -3.0277    6.6628 H   0  0  0  0  0  0  0  0  0  0  0  0
   -2.5921   -3.5789    6.6757 H   0  0  0  0  0  0  0  0  0  0  0  0
   -3.1716   -2.4197    7.9196 H   0  0  0  0  0  0  0  0  0  0  0  0
  1  3  1  0  0  0  0
  1  7  1  0  0  0  0
  1  2  2  0  0  0  0
 18 19  1  0  0  0  0
 19 24  1  0  0  0  0
 19 20  2  0  0  0  0
 25 26  1  0  0  0  0
 26 34  1  0  0  0  0
 26 27  2  0  0  0  0
  8  9  1  0  0  0  0
  9 17  1  0  0  0  0
  9 10  2  0  0  0  0
 25 28  1  0  0  0  0
  8 11  1  0  0  0  0
 34 35  1  0  0  0  0
 17 18  1  0  0  0  0
 24 25  1  0  0  0  0
  7  8  1  0  0  0  0
  3  4  1  0  0  0  0
  3  5  1  0  0  0  0
  3  6  1  0  0  0  0
 28 31  1  0  0  0  0
 28 32  1  0  0  0  0
 28 33  1  0  0  0  0
 11 14  1  0  0  0  0
 11 15  1  0  0  0  0
 11 16  1  0  0  0  0
 35 37  1  0  0  0  0
 35 38  1  0  0  0  0
 35 39  1  0  0  0  0
 18 22  1  0  0  0  0
 18 23  1  0  0  0  0
 25 30  1  0  0  0  0
  8 13  1  0  0  0  0
 34 36  1  0  0  0  0
 17 21  1  0  0  0  0
  7 12  1  0  0  0  0
 24 29  1  0  0  0  0
M  END
$$$$

  -OEChem-05262214473D

 39 38  0     1  0  0  0  0  0999 V2000
   -3.5200   -4.0268   -1.6943 C   0  0  0  0  0  0  0  0  0  0  0  0
   -2.8702   -4.8827   -1.1054 O   0  0  0  0  0  0  0  0  0  0  0  0
   -4.9704   -4.2579   -1.9614 C   0  0  0  0  0  0  0  0  0  0  0  0
   -5.1456   -4.7573   -2.9278 H   0  0  0  0  0  0  0  0  0  0  0  0
   -5.4379   -4.9112   -1.2072 H   0  0  0  0  0  0  0  0  0  0  0  0
   -5.5954   -3.3510   -1.9864 H   0  0  0  0  0  0  0  0  0  0  0  0
   -3.0424   -2.8131   -2.1606 N   0  0  0  0  0  0  0  0  0  0  0  0
   -1.6755   -2.3891   -2.0077 C   0  0  2  0  0  0  0  0  0  0  0  0
   -1.5782   -1.5673   -0.7292 C   0  0  0  0  0  0  0  0  0  0  0  0
   -2.5448   -1.0064   -0.2171 O   0  0  0  0  0  0  0  0  0  0  0  0
   -1.2087   -1.5823   -3.2094 C   0  0  0  0  0  0  0  0  0  0  0  0
   -3.6915   -2.1888   -2.6360 H   0  0  0  0  0  0  0  0  0  0  0  0
   -1.0721   -3.2977   -1.9053 H   0  0  0  0  0  0  0  0  0  0  0  0
   -1.8017   -0.6681   -3.3281 H   0  0  0  0  0  0  0  0  0  0  0  0
   -0.1601   -1.2849   -3.1045 H   0  0  0  0  0  0  0  0  0  0  0  0
   -1.3074   -2.1646   -4.1319 H   0  0  0  0  0  0  0  0  0  0  0  0
   -0.2835   -1.5112   -0.2725 N   0  0  0  0  0  0  0  0  0  0  0  0
    0.0769   -0.7658    0.9424 C   0  0  0  0  0  0  0  0  0  0  0  0
   -1.1693   -0.4460    1.7279 C   0  0  0  0  0  0  0  0  0  0  0  0
   -2.2685   -0.2698    1.2091 O   0  0  0  0  0  0  0  0  0  0  0  0
    0.4587   -2.0097   -0.7289 H   0  0  0  0  0  0  0  0  0  0  0  0
    0.5820    0.1623    0.6590 H   0  0  0  0  0  0  0  0  0  0  0  0
    0.7524   -1.3747    1.5503 H   0  0  0  0  0  0  0  0  0  0  0  0
   -0.9105   -0.3758    3.0926 N   0  0  0  0  0  0  0  0  0  0  0  0
   -1.9181   -0.0827    4.0776 C   0  0  2  0  0  0  0  0  0  0  0  0
   -1.9623   -1.2419    5.0644 C   0  0  0  0  0  0  0  0  0  0  0  0
   -1.5600   -2.3710    4.7914 O   0  0  0  0  0  0  0  0  0  0  0  0
   -3.2776    0.1330    3.4312 C   0  0  0  0  0  0  0  0  0  0  0  0
    0.0427   -0.5405    3.4119 H   0  0  0  0  0  0  0  0  0  0  0  0
   -1.5979    0.8274    4.5965 H   0  0  0  0  0  0  0  0  0  0  0  0
   -3.6150   -0.7683    2.9065 H   0  0  0  0  0  0  0  0  0  0  0  0
   -4.0372    0.3839    4.1790 H   0  0  0  0  0  0  0  0  0  0  0  0
   -3.2367    0.9476    2.7001 H   0  0  0  0  0  0  0  0  0  0  0  0
   -2.5435   -0.8782    6.2711 N   0  0  0  0  0  0  0  0  0  0  0  0
   -2.7123   -1.8051    7.3658 C   0  0  0  0  0  0  0  0  0  0  0  0
   -2.8313    0.0849    6.4169 H   0  0  0  0  0  0  0  0  0  0  0  0
   -3.7057   -2.2729    7.3010 H   0  0  0  0  0  0  0  0  0  0  0  0
   -1.9365   -2.5830    7.3105 H   0  0  0  0  0  0  0  0  0  0  0  0
   -2.6229   -1.2653    8.3202 H   0  0  0  0  0  0  0  0  0  0  0  0
  1  3  1  0  0  0  0
  1  7  1  0  0  0  0
  1  2  2  0  0  0  0
 18 19  1  0  0  0  0
 19 24  1  0  0  0  0
 19 20  2  0  0  0  0
 25 26  1  0  0  0  0
 26 34  1  0  0  0  0
 26 27  2  0  0  0  0
  8  9  1  0  0  0  0
  9 17  1  0  0  0  0
  9 10  2  0  0  0  0
 25 28  1  0  0  0  0
  8 11  1  0  0  0  0
 34 35  1  0  0  0  0
 17 18  1  0  0  0  0
 24 25  1  0  0  0  0
  7  8  1  0  0  0  0
  3  4  1  0  0  0  0
  3  5  1  0  0  0  0
  3  6  1  0  0  0  0
 28 31  1  0  0  0  0
 28 32  1  0  0  0  0
 28 33  1  0  0  0  0
 11 14  1  0  0  0  0
 11 15  1  0  0  0  0
 11 16  1  0  0  0  0
 35 37  1  0  0  0  0
 35 38  1  0  0  0  0
 35 39  1  0  0  0  0
 18 22  1  0  0  0  0
 18 23  1  0  0  0  0
 25 30  1  0  0  0  0
  8 13  1  0  0  0  0
 34 36  1  0  0  0  0
 17 21  1  0  0  0  0
  7 12  1  0  0  0  0
 24 29  1  0  0  0  0
M  END
$$$$

  -OEChem-05262214473D

 39 38  0     1  0  0  0  0  0999 V2000
   -3.5200   -4.0268   -1.6943 C   0  0  0  0  0  0  0  0  0  0  0  0
   -2.8702   -4.8827   -1.1054 O   0  0  0  0  0  0  0  0  0  0  0  0
   -4.9704   -4.2579   -1.9614 C   0  0  0  0  0  0  0  0  0  0  0  0
   -5.1456   -4.7573   -2.9278 H   0  0  0  0  0  0  0  0  0  0  0  0
   -5.4379   -4.9112   -1.2072 H   0  0  0  0  0  0  0  0  0  0  0  0
   -5.5954   -3.3510   -1.9864 H   0  0  0  0  0  0  0  0  0  0  0  0
   -3.0424   -2.8131   -2.1606 N   0  0  0  0  0  0  0  0  0  0  0  0
   -1.6755   -2.3891   -2.0077 C   0  0  2  0  0  0  0  0  0  0  0  0
   -1.5782   -1.5673   -0.7292 C   0  0  0  0  0  0  0  0  0  0  0  0
   -2.5448   -1.0064   -0.2171 O   0  0  0  0  0  0  0  0  0  0  0  0
   -1.2087   -1.5823   -3.2094 C   0  0  0  0  0  0  0  0  0  0  0  0
   -3.6915   -2.1888   -2.6360 H   0  0  0  0  0  0  0  0  0  0  0  0
   -1.0721   -3.2977   -1.9053 H   0  0  0  0  0  0  0  0  0  0  0  0
   -1.8017   -0.6681   -3.3281 H   0  0  0  0  0  0  0  0  0  0  0  0
   -0.1601   -1.2849   -3.1045 H   0  0  0  0  0  0  0  0  0  0  0  0
   -1.3074   -2.1646   -4.1319 H   0  0  0  0  0  0  0  0  0  0  0  0
   -0.2835   -1.5112   -0.2725 N   0  0  0  0  0  0  0  0  0  0  0  0
    0.0769   -0.7658    0.9424 C   0  0  0  0  0  0  0  0  0  0  0  0
   -1.1693   -0.4460    1.7279 C   0  0  0  0  0  0  0  0  0  0  0  0
   -2.3023   -0.5301    1.2614 O   0  0  0  0  0  0  0  0  0  0  0  0
    0.4587   -2.0097   -0.7289 H   0  0  0  0  0  0  0  0  0  0  0  0
    0.5820    0.1623    0.6590 H   0  0  0  0  0  0  0  0  0  0  0  0
    0.7524   -1.3747    1.5503 H   0  0  0  0  0  0  0  0  0  0  0  0
   -0.8683   -0.0475    3.0260 N   0  0  0  0  0  0  0  0  0  0  0  0
   -1.8667    0.3206    3.9950 C   0  0  2  0  0  0  0  0  0  0  0  0
   -1.7074   -0.5917    5.2041 C   0  0  0  0  0  0  0  0  0  0  0  0
   -1.1614   -1.6916    5.1472 O   0  0  0  0  0  0  0  0  0  0  0  0
   -3.2679    0.2133    3.4139 C   0  0  0  0  0  0  0  0  0  0  0  0
    0.1107   -0.0145    3.3056 H   0  0  0  0  0  0  0  0  0  0  0  0
   -1.6572    1.3553    4.2875 H   0  0  0  0  0  0  0  0  0  0  0  0
   -3.4959   -0.8164    3.1151 H   0  0  0  0  0  0  0  0  0  0  0  0
   -4.0245    0.5210    4.1433 H   0  0  0  0  0  0  0  0  0  0  0  0
   -3.3716    0.8474    2.5269 H   0  0  0  0  0  0  0  0  0  0  0  0
   -2.2850   -0.0520    6.3448 N   0  0  0  0  0  0  0  0  0  0  0  0
   -2.2774   -0.7321    7.6190 C   0  0  0  0  0  0  0  0  0  0  0  0
   -2.6996    0.8744    6.3045 H   0  0  0  0  0  0  0  0  0  0  0  0
   -3.1969   -1.3269    7.7232 H   0  0  0  0  0  0  0  0  0  0  0  0
   -1.4027   -1.3967    7.6745 H   0  0  0  0  0  0  0  0  0  0  0  0
   -2.2266    0.0094    8.4299 H   0  0  0  0  0  0  0  0  0  0  0  0
  1  3  1  0  0  0  0
  1  7  1  0  0  0  0
  1  2  2  0  0  0  0
 18 19  1  0  0  0  0
 19 24  1  0  0  0  0
 19 20  2  0  0  0  0
 25 26  1  0  0  0  0
 26 34  1  0  0  0  0
 26 27  2  0  0  0  0
  8  9  1  0  0  0  0
  9 17  1  0  0  0  0
  9 10  2  0  0  0  0
 25 28  1  0  0  0  0
  8 11  1  0  0  0  0
 34 35  1  0  0  0  0
 17 18  1  0  0  0  0
 24 25  1  0  0  0  0
  7  8  1  0  0  0  0
  3  4  1  0  0  0  0
  3  5  1  0  0  0  0
  3  6  1  0  0  0  0
 28 31  1  0  0  0  0
 28 32  1  0  0  0  0
 28 33  1  0  0  0  0
 11 14  1  0  0  0  0
 11 15  1  0  0  0  0
 11 16  1  0  0  0  0
 35 37  1  0  0  0  0
 35 38  1  0  0  0  0
 35 39  1  0  0  0  0
 18 22  1  0  0  0  0
 18 23  1  0  0  0  0
 25 30  1  0  0  0  0
  8 13  1  0  0  0  0
 34 36  1  0  0  0  0
 17 21  1  0  0  0  0
  7 12  1  0  0  0  0
 24 29  1  0  0  0  0
M  END
$$$$

  -OEChem-05262214473D

 39 38  0     1  0  0  0  0  0999 V2000
   -3.5200   -4.0268   -1.6943 C   0  0  0  0  0  0  0  0  0  0  0  0
   -2.8702   -4.8827   -1.1054 O   0  0  0  0  0  0  0  0  0  0  0  0
   -4.9704   -4.2579   -1.9614 C   0  0  0  0  0  0  0  0  0  0  0  0
   -5.1456   -4.7573   -2.9278 H   0  0  0  0  0  0  0  0  0  0  0  0
   -5.4379   -4.9112   -1.2072 H   0  0  0  0  0  0  0  0  0  0  0  0
   -5.5954   -3.3510   -1.9864 H   0  0  0  0  0  0  0  0  0  0  0  0
   -3.0424   -2.8131   -2.1606 N   0  0  0  0  0  0  0  0  0  0  0  0
   -1.6755   -2.3891   -2.0077 C   0  0  2  0  0  0  0  0  0  0  0  0
   -1.5782   -1.5673   -0.7292 C   0  0  0  0  0  0  0  0  0  0  0  0
   -2.5448   -1.0064   -0.2171 O   0  0  0  0  0  0  0  0  0  0  0  0
   -1.2087   -1.5823   -3.2094 C   0  0  0  0  0  0  0  0  0  0  0  0
   -3.6915   -2.1888   -2.6360 H   0  0  0  0  0  0  0  0  0  0  0  0
   -1.0721   -3.2977   -1.9053 H   0  0  0  0  0  0  0  0  0  0  0  0
   -1.8017   -0.6681   -3.3281 H   0  0  0  0  0  0  0  0  0  0  0  0
   -0.1601   -1.2849   -3.1045 H   0  0  0  0  0  0  0  0  0  0  0  0
   -1.3074   -2.1646   -4.1319 H   0  0  0  0  0  0  0  0  0  0  0  0
   -0.2835   -1.5112   -0.2725 N   0  0  0  0  0  0  0  0  0  0  0  0
    0.0769   -0.7658    0.9424 C   0  0  0  0  0  0  0  0  0  0  0  0
   -1.0880   -0.7645    1.8992 C   0  0  0  0  0  0  0  0  0  0  0  0
   -2.1601   -1.3135    1.6593 O   0  0  0  0  0  0  0  0  0  0  0  0
    0.4587   -2.0097   -0.7289 H   0  0  0  0  0  0  0  0  0  0  0  0
    0.3321    0.2629    0.6714 H   0  0  0  0  0  0  0  0  0  0  0  0
    0.9424   -1.2419    1.4125 H   0  0  0  0  0  0  0  0  0  0  0  0
   -0.7913   -0.0685    3.0662 N   0  0  0  0  0  0  0  0  0  0  0  0
   -1.7222    0.0946    4.1516 C   0  0  2  0  0  0  0  0  0  0  0  0
   -1.0849   -0.4830    5.4085 C   0  0  0  0  0  0  0  0  0  0  0  0
   -0.1844   -1.3193    5.3805 O   0  0  0  0  0  0  0  0  0  0  0  0
   -3.0475   -0.5881    3.8513 C   0  0  0  0  0  0  0  0  0  0  0  0
    0.1339    0.3480    3.1575 H   0  0  0  0  0  0  0  0  0  0  0  0
   -1.8728    1.1721    4.2799 H   0  0  0  0  0  0  0  0  0  0  0  0
   -2.9165   -1.6683    3.7196 H   0  0  0  0  0  0  0  0  0  0  0  0
   -3.7642   -0.4389    4.6656 H   0  0  0  0  0  0  0  0  0  0  0  0
   -3.4900   -0.1923    2.9308 H   0  0  0  0  0  0  0  0  0  0  0  0
   -1.6695    0.0133    6.5653 N   0  0  0  0  0  0  0  0  0  0  0  0
   -1.2490   -0.3911    7.8866 C   0  0  0  0  0  0  0  0  0  0  0  0
   -2.3975    0.7181    6.4946 H   0  0  0  0  0  0  0  0  0  0  0  0
   -1.8635   -1.2388    8.2241 H   0  0  0  0  0  0  0  0  0  0  0  0
   -0.1917   -0.6931    7.8584 H   0  0  0  0  0  0  0  0  0  0  0  0
   -1.3715    0.4509    8.5839 H   0  0  0  0  0  0  0  0  0  0  0  0
  1  3  1  0  0  0  0
  1  7  1  0  0  0  0
  1  2  2  0  0  0  0
 18 19  1  0  0  0  0
 19 24  1  0  0  0  0
 19 20  2  0  0  0  0
 25 26  1  0  0  0  0
 26 34  1  0  0  0  0
 26 27  2  0  0  0  0
  8  9  1  0  0  0  0
  9 17  1  0  0  0  0
  9 10  2  0  0  0  0
 25 28  1  0  0  0  0
  8 11  1  0  0  0  0
 34 35  1  0  0  0  0
 17 18  1  0  0  0  0
 24 25  1  0  0  0  0
  7  8  1  0  0  0  0
  3  4  1  0  0  0  0
  3  5  1  0  0  0  0
  3  6  1  0  0  0  0
 28 31  1  0  0  0  0
 28 32  1  0  0  0  0
 28 33  1  0  0  0  0
 11 14  1  0  0  0  0
 11 15  1  0  0  0  0
 11 16  1  0  0  0  0
 35 37  1  0  0  0  0
 35 38  1  0  0  0  0
 35 39  1  0  0  0  0
 18 22  1  0  0  0  0
 18 23  1  0  0  0  0
 25 30  1  0  0  0  0
  8 13  1  0  0  0  0
 34 36  1  0  0  0  0
 17 21  1  0  0  0  0
  7 12  1  0  0  0  0
 24 29  1  0  0  0  0
M  END
$$$$

  -OEChem-05262214473D

 39 38  0     1  0  0  0  0  0999 V2000
   -3.5200   -4.0268   -1.6943 C   0  0  0  0  0  0  0  0  0  0  0  0
   -2.8702   -4.8827   -1.1054 O   0  0  0  0  0  0  0  0  0  0  0  0
   -4.9704   -4.2579   -1.9614 C   0  0  0  0  0  0  0  0  0  0  0  0
   -5.1456   -4.7573   -2.9278 H   0  0  0  0  0  0  0  0  0  0  0  0
   -5.4379   -4.9112   -1.2072 H   0  0  0  0  0  0  0  0  0  0  0  0
   -5.5954   -3.3510   -1.9864 H   0  0  0  0  0  0  0  0  0  0  0  0
   -3.0424   -2.8131   -2.1606 N   0  0  0  0  0  0  0  0  0  0  0  0
   -1.6755   -2.3891   -2.0077 C   0  0  2  0  0  0  0  0  0  0  0  0
   -1.5782   -1.5673   -0.7292 C   0  0  0  0  0  0  0  0  0  0  0  0
   -2.5448   -1.0064   -0.2171 O   0  0  0  0  0  0  0  0  0  0  0  0
   -1.2087   -1.5823   -3.2094 C   0  0  0  0  0  0  0  0  0  0  0  0
   -3.6915   -2.1888   -2.6360 H   0  0  0  0  0  0  0  0  0  0  0  0
   -1.0721   -3.2977   -1.9053 H   0  0  0  0  0  0  0  0  0  0  0  0
   -1.8017   -0.6681   -3.3281 H   0  0  0  0  0  0  0  0  0  0  0  0
   -0.1601   -1.2849   -3.1045 H   0  0  0  0  0  0  0  0  0  0  0  0
   -1.3074   -2.1646   -4.1319 H   0  0  0  0  0  0  0  0  0  0  0  0
   -0.2835   -1.5112   -0.2725 N   0  0  0  0  0  0  0  0  0  0  0  0
    0.0769   -0.7658    0.9424 C   0  0  0  0  0  0  0  0  0  0  0  0
   -1.0880   -0.7645    1.8992 C   0  0  0  0  0  0  0  0  0  0  0  0
   -2.0512   -1.5189    1.7922 O   0  0  0  0  0  0  0  0  0  0  0  0
    0.4587   -2.0097   -0.7289 H   0  0  0  0  0  0  0  0  0  0  0  0
    0.3321    0.2629    0.6714 H   0  0  0  0  0  0  0  0  0  0  0  0
    0.9424   -1.2419    1.4125 H   0  0  0  0  0  0  0  0  0  0  0  0
   -0.9290    0.1900    2.8982 N   0  0  0  0  0  0  0  0  0  0  0  0
   -1.8918    0.4117    3.9447 C   0  0  2  0  0  0  0  0  0  0  0  0
   -1.1891    0.2099    5.2808 C   0  0  0  0  0  0  0  0  0  0  0  0
   -0.1631   -0.4556    5.4053 O   0  0  0  0  0  0  0  0  0  0  0  0
   -3.0818   -0.5255    3.8094 C   0  0  0  0  0  0  0  0  0  0  0  0
   -0.0864    0.7624    2.8887 H   0  0  0  0  0  0  0  0  0  0  0  0
   -2.2195    1.4533    3.8575 H   0  0  0  0  0  0  0  0  0  0  0  0
   -2.7730   -1.5738    3.8942 H   0  0  0  0  0  0  0  0  0  0  0  0
   -3.8266   -0.3362    4.5895 H   0  0  0  0  0  0  0  0  0  0  0  0
   -3.5680   -0.4000    2.8360 H   0  0  0  0  0  0  0  0  0  0  0  0
   -1.8663    0.8246    6.3247 N   0  0  0  0  0  0  0  0  0  0  0  0
   -1.4070    0.7674    7.6928 C   0  0  0  0  0  0  0  0  0  0  0  0
   -2.6989    1.3716    6.1268 H   0  0  0  0  0  0  0  0  0  0  0  0
   -1.8792   -0.0849    8.2034 H   0  0  0  0  0  0  0  0  0  0  0  0
   -0.3140    0.6437    7.7077 H   0  0  0  0  0  0  0  0  0  0  0  0
   -1.6775    1.7000    8.2096 H   0  0  0  0  0  0  0  0  0  0  0  0
  1  3  1  0  0  0  0
  1  7  1  0  0  0  0
  1  2  2  0  0  0  0
 18 19  1  0  0  0  0
 19 24  1  0  0  0  0
 19 20  2  0  0  0  0
 25 26  1  0  0  0  0
 26 34  1  0  0  0  0
 26 27  2  0  0  0  0
  8  9  1  0  0  0  0
  9 17  1  0  0  0  0
  9 10  2  0  0  0  0
 25 28  1  0  0  0  0
  8 11  1  0  0  0  0
 34 35  1  0  0  0  0
 17 18  1  0  0  0  0
 24 25  1  0  0  0  0
  7  8  1  0  0  0  0
  3  4  1  0  0  0  0
  3  5  1  0  0  0  0
  3  6  1  0  0  0  0
 28 31  1  0  0  0  0
 28 32  1  0  0  0  0
 28 33  1  0  0  0  0
 11 14  1  0  0  0  0
 11 15  1  0  0  0  0
 11 16  1  0  0  0  0
 35 37  1  0  0  0  0
 35 38  1  0  0  0  0
 35 39  1  0  0  0  0
 18 22  1  0  0  0  0
 18 23  1  0  0  0  0
 25 30  1  0  0  0  0
  8 13  1  0  0  0  0
 34 36  1  0  0  0  0
 17 21  1  0  0  0  0
  7 12  1  0  0  0  0
 24 29  1  0  0  0  0
M  END
$$$$

  -OEChem-05262214473D

 39 38  0     1  0  0  0  0  0999 V2000
   -3.5200   -4.0268   -1.6943 C   0  0  0  0  0  0  0  0  0  0  0  0
   -2.8702   -4.8827   -1.1054 O   0  0  0  0  0  0  0  0  0  0  0  0
   -4.9704   -4.2579   -1.9614 C   0  0  0  0  0  0  0  0  0  0  0  0
   -5.1456   -4.7573   -2.9278 H   0  0  0  0  0  0  0  0  0  0  0  0
   -5.4379   -4.9112   -1.2072 H   0  0  0  0  0  0  0  0  0  0  0  0
   -5.5954   -3.3510   -1.9864 H   0  0  0  0  0  0  0  0  0  0  0  0
   -3.0424   -2.8131   -2.1606 N   0  0  0  0  0  0  0  0  0  0  0  0
   -1.6755   -2.3891   -2.0077 C   0  0  2  0  0  0  0  0  0  0  0  0
   -1.5782   -1.5673   -0.7292 C   0  0  0  0  0  0  0  0  0  0  0  0
   -2.5448   -1.0064   -0.2171 O   0  0  0  0  0  0  0  0  0  0  0  0
   -1.2087   -1.5823   -3.2094 C   0  0  0  0  0  0  0  0  0  0  0  0
   -3.6915   -2.1888   -2.6360 H   0  0  0  0  0  0  0  0  0  0  0  0
   -1.0721   -3.2977   -1.9053 H   0  0  0  0  0  0  0  0  0  0  0  0
   -1.8017   -0.6681   -3.3281 H   0  0  0  0  0  0  0  0  0  0  0  0
   -0.1601   -1.2849   -3.1045 H   0  0  0  0  0  0  0  0  0  0  0  0
   -1.3074   -2.1646   -4.1319 H   0  0  0  0  0  0  0  0  0  0  0  0
   -0.2835   -1.5112   -0.2725 N   0  0  0  0  0  0  0  0  0  0  0  0
    0.0769   -0.7658    0.9424 C   0  0  0  0  0  0  0  0  0  0  0  0
   -1.0880   -0.7645    1.8992 C   0  0  0  0  0  0  0  0  0  0  0  0
   -1.9123   -1.6728    1.9615 O   0  0  0  0  0  0  0  0  0  0  0  0
    0.4587   -2.0097   -0.7289 H   0  0  0  0  0  0  0  0  0  0  0  0
    0.3321    0.2629    0.6714 H   0  0  0  0  0  0  0  0  0  0  0  0
    0.9424   -1.2419    1.4125 H   0  0  0  0  0  0  0  0  0  0  0  0
   -1.1044    0.3834    2.6843 N   0  0  0  0  0  0  0  0  0  0  0  0
   -2.1077    0.6488    3.6815 C   0  0  2  0  0  0  0  0  0  0  0  0
   -1.4036    0.8365    5.0188 C   0  0  0  0  0  0  0  0  0  0  0  0
   -0.2844    0.3870    5.2565 O   0  0  0  0  0  0  0  0  0  0  0  0
   -3.1252   -0.4790    3.7565 C   0  0  0  0  0  0  0  0  0  0  0  0
   -0.3674    1.0729    2.5463 H   0  0  0  0  0  0  0  0  0  0  0  0
   -2.6007    1.5836    3.3933 H   0  0  0  0  0  0  0  0  0  0  0  0
   -2.6498   -1.4239    4.0440 H   0  0  0  0  0  0  0  0  0  0  0  0
   -3.9037   -0.2625    4.4955 H   0  0  0  0  0  0  0  0  0  0  0  0
   -3.6093   -0.6323    2.7860 H   0  0  0  0  0  0  0  0  0  0  0  0
   -2.1896    1.5278    5.9300 N   0  0  0  0  0  0  0  0  0  0  0  0
   -1.7498    1.8216    7.2740 C   0  0  0  0  0  0  0  0  0  0  0  0
   -3.0975    1.8798    5.6408 H   0  0  0  0  0  0  0  0  0  0  0  0
   -2.0840    1.0230    7.9526 H   0  0  0  0  0  0  0  0  0  0  0  0
   -0.6518    1.8847    7.2948 H   0  0  0  0  0  0  0  0  0  0  0  0
   -2.1784    2.7814    7.5983 H   0  0  0  0  0  0  0  0  0  0  0  0
  1  3  1  0  0  0  0
  1  7  1  0  0  0  0
  1  2  2  0  0  0  0
 18 19  1  0  0  0  0
 19 24  1  0  0  0  0
 19 20  2  0  0  0  0
 25 26  1  0  0  0  0
 26 34  1  0  0  0  0
 26 27  2  0  0  0  0
  8  9  1  0  0  0  0
  9 17  1  0  0  0  0
  9 10  2  0  0  0  0
 25 28  1  0  0  0  0
  8 11  1  0  0  0  0
 34 35  1  0  0  0  0
 17 18  1  0  0  0  0
 24 25  1  0  0  0  0
  7  8  1  0  0  0  0
  3  4  1  0  0  0  0
  3  5  1  0  0  0  0
  3  6  1  0  0  0  0
 28 31  1  0  0  0  0
 28 32  1  0  0  0  0
 28 33  1  0  0  0  0
 11 14  1  0  0  0  0
 11 15  1  0  0  0  0
 11 16  1  0  0  0  0
 35 37  1  0  0  0  0
 35 38  1  0  0  0  0
 35 39  1  0  0  0  0
 18 22  1  0  0  0  0
 18 23  1  0  0  0  0
 25 30  1  0  0  0  0
  8 13  1  0  0  0  0
 34 36  1  0  0  0  0
 17 21  1  0  0  0  0
  7 12  1  0  0  0  0
 24 29  1  0  0  0  0
M  END
$$$$

  -OEChem-05262214473D

 39 38  0     1  0  0  0  0  0999 V2000
   -3.5200   -4.0268   -1.6943 C   0  0  0  0  0  0  0  0  0  0  0  0
   -2.8702   -4.8827   -1.1054 O   0  0  0  0  0  0  0  0  0  0  0  0
   -4.9704   -4.2579   -1.9614 C   0  0  0  0  0  0  0  0  0  0  0  0
   -5.1456   -4.7573   -2.9278 H   0  0  0  0  0  0  0  0  0  0  0  0
   -5.4379   -4.9112   -1.2072 H   0  0  0  0  0  0  0  0  0  0  0  0
   -5.5954   -3.3510   -1.9864 H   0  0  0  0  0  0  0  0  0  0  0  0
   -3.0424   -2.8131   -2.1606 N   0  0  0  0  0  0  0  0  0  0  0  0
   -1.6755   -2.3891   -2.0077 C   0  0  2  0  0  0  0  0  0  0  0  0
   -1.5782   -1.5673   -0.7292 C   0  0  0  0  0  0  0  0  0  0  0  0
   -2.5448   -1.0064   -0.2171 O   0  0  0  0  0  0  0  0  0  0  0  0
   -1.2087   -1.5823   -3.2094 C   0  0  0  0  0  0  0  0  0  0  0  0
   -3.6915   -2.1888   -2.6360 H   0  0  0  0  0  0  0  0  0  0  0  0
   -1.0721   -3.2977   -1.9053 H   0  0  0  0  0  0  0  0  0  0  0  0
   -1.8017   -0.6681   -3.3281 H   0  0  0  0  0  0  0  0  0  0  0  0
   -0.1601   -1.2849   -3.1045 H   0  0  0  0  0  0  0  0  0  0  0  0
   -1.3074   -2.1646   -4.1319 H   0  0  0  0  0  0  0  0  0  0  0  0
   -0.2835   -1.5112   -0.2725 N   0  0  0  0  0  0  0  0  0  0  0  0
    0.0769   -0.7658    0.9424 C   0  0  0  0  0  0  0  0  0  0  0  0
   -1.0880   -0.7645    1.8992 C   0  0  0  0  0  0  0  0  0  0  0  0
   -1.7527   -1.7648    2.1559 O   0  0  0  0  0  0  0  0  0  0  0  0
    0.4587   -2.0097   -0.7289 H   0  0  0  0  0  0  0  0  0  0  0  0
    0.3321    0.2629    0.6714 H   0  0  0  0  0  0  0  0  0  0  0  0
    0.9424   -1.2419    1.4125 H   0  0  0  0  0  0  0  0  0  0  0  0
   -1.3058    0.4986    2.4391 N   0  0  0  0  0  0  0  0  0  0  0  0
   -2.3553    0.7896    3.3799 C   0  0  2  0  0  0  0  0  0  0  0  0
   -1.7137    1.3541    4.6405 C   0  0  0  0  0  0  0  0  0  0  0  0
   -0.5400    1.1513    4.9443 O   0  0  0  0  0  0  0  0  0  0  0  0
   -3.1748   -0.4519    3.6961 C   0  0  0  0  0  0  0  0  0  0  0  0
   -0.6898    1.2580    2.1535 H   0  0  0  0  0  0  0  0  0  0  0  0
   -2.9903    1.5540    2.9189 H   0  0  0  0  0  0  0  0  0  0  0  0
   -2.5554   -1.2290    4.1587 H   0  0  0  0  0  0  0  0  0  0  0  0
   -3.9904   -0.2228    4.3899 H   0  0  0  0  0  0  0  0  0  0  0  0
   -3.6110   -0.8736    2.7842 H   0  0  0  0  0  0  0  0  0  0  0  0
   -2.6176    2.0750    5.4082 N   0  0  0  0  0  0  0  0  0  0  0  0
   -2.2543    2.6999    6.6586 C   0  0  0  0  0  0  0  0  0  0  0  0
   -3.5661    2.2081    5.0699 H   0  0  0  0  0  0  0  0  0  0  0  0
   -2.4639    2.0092    7.4888 H   0  0  0  0  0  0  0  0  0  0  0  0
   -1.1821    2.9453    6.6478 H   0  0  0  0  0  0  0  0  0  0  0  0
   -2.8400    3.6214    6.7917 H   0  0  0  0  0  0  0  0  0  0  0  0
  1  3  1  0  0  0  0
  1  7  1  0  0  0  0
  1  2  2  0  0  0  0
 18 19  1  0  0  0  0
 19 24  1  0  0  0  0
 19 20  2  0  0  0  0
 25 26  1  0  0  0  0
 26 34  1  0  0  0  0
 26 27  2  0  0  0  0
  8  9  1  0  0  0  0
  9 17  1  0  0  0  0
  9 10  2  0  0  0  0
 25 28  1  0  0  0  0
  8 11  1  0  0  0  0
 34 35  1  0  0  0  0
 17 18  1  0  0  0  0
 24 25  1  0  0  0  0
  7  8  1  0  0  0  0
  3  4  1  0  0  0  0
  3  5  1  0  0  0  0
  3  6  1  0  0  0  0
 28 31  1  0  0  0  0
 28 32  1  0  0  0  0
 28 33  1  0  0  0  0
 11 14  1  0  0  0  0
 11 15  1  0  0  0  0
 11 16  1  0  0  0  0
 35 37  1  0  0  0  0
 35 38  1  0  0  0  0
 35 39  1  0  0  0  0
 18 22  1  0  0  0  0
 18 23  1  0  0  0  0
 25 30  1  0  0  0  0
  8 13  1  0  0  0  0
 34 36  1  0  0  0  0
 17 21  1  0  0  0  0
  7 12  1  0  0  0  0
 24 29  1  0  0  0  0
M  END
$$$$

  -OEChem-05262214473D

 39 38  0     1  0  0  0  0  0999 V2000
   -3.5200   -4.0268   -1.6943 C   0  0  0  0  0  0  0  0  0  0  0  0
   -2.8702   -4.8827   -1.1054 O   0  0  0  0  0  0  0  0  0  0  0  0
   -4.9704   -4.2579   -1.9614 C   0  0  0  0  0  0  0  0  0  0  0  0
   -5.1456   -4.7573   -2.9278 H   0  0  0  0  0  0  0  0  0  0  0  0
   -5.4379   -4.9112   -1.2072 H   0  0  0  0  0  0  0  0  0  0  0  0
   -5.5954   -3.3510   -1.9864 H   0  0  0  0  0  0  0  0  0  0  0  0
   -3.0424   -2.8131   -2.1606 N   0  0  0  0  0  0  0  0  0  0  0  0
   -1.6755   -2.3891   -2.0077 C   0  0  2  0  0  0  0  0  0  0  0  0
   -1.5782   -1.5673   -0.7292 C   0  0  0  0  0  0  0  0  0  0  0  0
   -2.5448   -1.0064   -0.2171 O   0  0  0  0  0  0  0  0  0  0  0  0
   -1.2087   -1.5823   -3.2094 C   0  0  0  0  0  0  0  0  0  0  0  0
   -3.6915   -2.1888   -2.6360 H   0  0  0  0  0  0  0  0  0  0  0  0
   -1.0721   -3.2977   -1.9053 H   0  0  0  0  0  0  0  0  0  0  0  0
   -1.8017   -0.6681   -3.3281 H   0  0  0  0  0  0  0  0  0  0  0  0
   -0.1601   -1.2849   -3.1045 H   0  0  0  0  0  0  0  0  0  0  0  0
   -1.3074   -2.1646   -4.1319 H   0  0  0  0  0  0  0  0  0  0  0  0
   -0.2835   -1.5112   -0.2725 N   0  0  0  0  0  0  0  0  0  0  0  0
    0.0769   -0.7658    0.9424 C   0  0  0  0  0  0  0  0  0  0  0  0
   -1.0880   -0.7645    1.8992 C   0  0  0  0  0  0  0  0  0  0  0  0
   -1.5835   -1.7886    2.3619 O   0  0  0  0  0  0  0  0  0  0  0  0
    0.4587   -2.0097   -0.7289 H   0  0  0  0  0  0  0  0  0  0  0  0
    0.3321    0.2629    0.6714 H   0  0  0  0  0  0  0  0  0  0  0  0
    0.9424   -1.2419    1.4125 H   0  0  0  0  0  0  0  0  0  0  0  0
   -1.5192    0.5278    2.1792 N   0  0  0  0  0  0  0  0  0  0  0  0
   -2.6177    0.8247    3.0604 C   0  0  2  0  0  0  0  0  0  0  0  0
   -2.0984    1.7274    4.1716 C   0  0  0  0  0  0  0  0  0  0  0  0
   -0.9125    1.7851    4.4899 O   0  0  0  0  0  0  0  0  0  0  0  0
   -3.2271   -0.4458    3.6324 C   0  0  0  0  0  0  0  0  0  0  0  0
   -1.0317    1.3054    1.7371 H   0  0  0  0  0  0  0  0  0  0  0  0
   -3.3620    1.3665    2.4667 H   0  0  0  0  0  0  0  0  0  0  0  0
   -2.4962   -1.0022    4.2304 H   0  0  0  0  0  0  0  0  0  0  0  0
   -4.0806   -0.2198    4.2800 H   0  0  0  0  0  0  0  0  0  0  0  0
   -3.5731   -1.1073    2.8308 H   0  0  0  0  0  0  0  0  0  0  0  0
   -3.1210    2.4289    4.7949 N   0  0  0  0  0  0  0  0  0  0  0  0
   -2.8860    3.3422    5.8887 C   0  0  0  0  0  0  0  0  0  0  0  0
   -4.0728    2.3340    4.4529 H   0  0  0  0  0  0  0  0  0  0  0  0
   -2.9929    2.8068    6.8436 H   0  0  0  0  0  0  0  0  0  0  0  0
   -1.8686    3.7532    5.8109 H   0  0  0  0  0  0  0  0  0  0  0  0
   -3.6173    4.1628    5.8447 H   0  0  0  0  0  0  0  0  0  0  0  0
  1  3  1  0  0  0  0
  1  7  1  0  0  0  0
  1  2  2  0  0  0  0
 18 19  1  0  0  0  0
 19 24  1  0  0  0  0
 19 20  2  0  0  0  0
 25 26  1  0  0  0  0
 26 34  1  0  0  0  0
 26 27  2  0  0  0  0
  8  9  1  0  0  0  0
  9 17  1  0  0  0  0
  9 10  2  0  0  0  0
 25 28  1  0  0  0  0
  8 11  1  0  0  0  0
 34 35  1  0  0  0  0
 17 18  1  0  0  0  0
 24 25  1  0  0  0  0
  7  8  1  0  0  0  0
  3  4  1  0  0  0  0
  3  5  1  0  0  0  0
  3  6  1  0  0  0  0
 28 31  1  0  0  0  0
 28 32  1  0  0  0  0
 28 33  1  0  0  0  0
 11 14  1  0  0  0  0
 11 15  1  0  0  0  0
 11 16  1  0  0  0  0
 35 37  1  0  0  0  0
 35 38  1  0  0  0  0
 35 39  1  0  0  0  0
 18 22  1  0  0  0  0
 18 23  1  0  0  0  0
 25 30  1  0  0  0  0
  8 13  1  0  0  0  0
 34 36  1  0  0  0  0
 17 21  1  0  0  0  0
  7 12  1  0  0  0  0
 24 29  1  0  0  0  0
M  END
$$$$

  -OEChem-05262214473D

 39 38  0     1  0  0  0  0  0999 V2000
   -3.5200   -4.0268   -1.6943 C   0  0  0  0  0  0  0  0  0  0  0  0
   -2.8702   -4.8827   -1.1054 O   0  0  0  0  0  0  0  0  0  0  0  0
   -4.9704   -4.2579   -1.9614 C   0  0  0  0  0  0  0  0  0  0  0  0
   -5.1456   -4.7573   -2.9278 H   0  0  0  0  0  0  0  0  0  0  0  0
   -5.4379   -4.9112   -1.2072 H   0  0  0  0  0  0  0  0  0  0  0  0
   -5.5954   -3.3510   -1.9864 H   0  0  0  0  0  0  0  0  0  0  0  0
   -3.0424   -2.8131   -2.1606 N   0  0  0  0  0  0  0  0  0  0  0  0
   -1.6755   -2.3891   -2.0077 C   0  0  2  0  0  0  0  0  0  0  0  0
   -1.5782   -1.5673   -0.7292 C   0  0  0  0  0  0  0  0  0  0  0  0
   -2.5448   -1.0064   -0.2171 O   0  0  0  0  0  0  0  0  0  0  0  0
   -1.2087   -1.5823   -3.2094 C   0  0  0  0  0  0  0  0  0  0  0  0
   -3.6915   -2.1888   -2.6360 H   0  0  0  0  0  0  0  0  0  0  0  0
   -1.0721   -3.2977   -1.9053 H   0  0  0  0  0  0  0  0  0  0  0  0
   -1.8017   -0.6681   -3.3281 H   0  0  0  0  0  0  0  0  0  0  0  0
   -0.1601   -1.2849   -3.1045 H   0  0  0  0  0  0  0  0  0  0  0  0
   -1.3074   -2.1646   -4.1319 H   0  0  0  0  0  0  0  0  0  0  0  0
   -0.2835   -1.5112   -0.2725 N   0  0  0  0  0  0  0  0  0  0  0  0
    0.0769   -0.7658    0.9424 C   0  0  0  0  0  0  0  0  0  0  0  0
   -1.0880   -0.7645    1.8992 C   0  0  0  0  0  0  0  0  0  0  0  0
   -1.4161   -1.7425    2.5657 O   0  0  0  0  0  0  0  0  0  0  0  0
    0.4587   -2.0097   -0.7289 H   0  0  0  0  0  0  0  0  0  0  0  0
    0.3321    0.2629    0.6714 H   0  0  0  0  0  0  0  0  0  0  0  0
    0.9424   -1.2419    1.4125 H   0  0  0  0  0  0  0  0  0  0  0  0
   -1.7302    0.4689    1.9223 N   0  0  0  0  0  0  0  0  0  0  0  0
   -2.8769    0.7515    2.7449 C   0  0  2  0  0  0  0  0  0  0  0  0
   -2.5315    1.9311    3.6442 C   0  0  0  0  0  0  0  0  0  0  0  0
   -1.3765    2.2453    3.9244 O   0  0  0  0  0  0  0  0  0  0  0  0
   -3.2787   -0.4614    3.5696 C   0  0  0  0  0  0  0  0  0  0  0  0
   -1.3699    1.2117    1.3255 H   0  0  0  0  0  0  0  0  0  0  0  0
   -3.6902    1.0339    2.0675 H   0  0  0  0  0  0  0  0  0  0  0  0
   -2.4763   -0.7591    4.2544 H   0  0  0  0  0  0  0  0  0  0  0  0
   -4.1683   -0.2537    4.1733 H   0  0  0  0  0  0  0  0  0  0  0  0
   -3.4980   -1.3175    2.9224 H   0  0  0  0  0  0  0  0  0  0  0  0
   -3.6656    2.5653    4.1318 N   0  0  0  0  0  0  0  0  0  0  0  0
   -3.6018    3.7050    5.0167 C   0  0  0  0  0  0  0  0  0  0  0  0
   -4.5830    2.2489    3.8318 H   0  0  0  0  0  0  0  0  0  0  0  0
   -3.6351    3.3612    6.0611 H   0  0  0  0  0  0  0  0  0  0  0  0
   -2.6647    4.2535    4.8410 H   0  0  0  0  0  0  0  0  0  0  0  0
   -4.4572    4.3686    4.8219 H   0  0  0  0  0  0  0  0  0  0  0  0
  1  3  1  0  0  0  0
  1  7  1  0  0  0  0
  1  2  2  0  0  0  0
 18 19  1  0  0  0  0
 19 24  1  0  0  0  0
 19 20  2  0  0  0  0
 25 26  1  0  0  0  0
 26 34  1  0  0  0  0
 26 27  2  0  0  0  0
  8  9  1  0  0  0  0
  9 17  1  0  0  0  0
  9 10  2  0  0  0  0
 25 28  1  0  0  0  0
  8 11  1  0  0  0  0
 34 35  1  0  0  0  0
 17 18  1  0  0  0  0
 24 25  1  0  0  0  0
  7  8  1  0  0  0  0
  3  4  1  0  0  0  0
  3  5  1  0  0  0  0
  3  6  1  0  0  0  0
 28 31  1  0  0  0  0
 28 32  1  0  0  0  0
 28 33  1  0  0  0  0
 11 14  1  0  0  0  0
 11 15  1  0  0  0  0
 11 16  1  0  0  0  0
 35 37  1  0  0  0  0
 35 38  1  0  0  0  0
 35 39  1  0  0  0  0
 18 22  1  0  0  0  0
 18 23  1  0  0  0  0
 25 30  1  0  0  0  0
  8 13  1  0  0  0  0
 34 36  1  0  0  0  0
 17 21  1  0  0  0  0
  7 12  1  0  0  0  0
 24 29  1  0  0  0  0
M  END
$$$$

  -OEChem-05262214473D

 39 38  0     1  0  0  0  0  0999 V2000
   -3.5200   -4.0268   -1.6943 C   0  0  0  0  0  0  0  0  0  0  0  0
   -2.8702   -4.8827   -1.1054 O   0  0  0  0  0  0  0  0  0  0  0  0
   -4.9704   -4.2579   -1.9614 C   0  0  0  0  0  0  0  0  0  0  0  0
   -5.1456   -4.7573   -2.9278 H   0  0  0  0  0  0  0  0  0  0  0  0
   -5.4379   -4.9112   -1.2072 H   0  0  0  0  0  0  0  0  0  0  0  0
   -5.5954   -3.3510   -1.9864 H   0  0  0  0  0  0  0  0  0  0  0  0
   -3.0424   -2.8131   -2.1606 N   0  0  0  0  0  0  0  0  0  0  0  0
   -1.6755   -2.3891   -2.0077 C   0  0  2  0  0  0  0  0  0  0  0  0
   -1.5782   -1.5673   -0.7292 C   0  0  0  0  0  0  0  0  0  0  0  0
   -2.5448   -1.0064   -0.2171 O   0  0  0  0  0  0  0  0  0  0  0  0
   -1.2087   -1.5823   -3.2094 C   0  0  0  0  0  0  0  0  0  0  0  0
   -3.6915   -2.1888   -2.6360 H   0  0  0  0  0  0  0  0  0  0  0  0
   -1.0721   -3.2977   -1.9053 H   0  0  0  0  0  0  0  0  0  0  0  0
   -1.8017   -0.6681   -3.3281 H   0  0  0  0  0  0  0  0  0  0  0  0
   -0.1601   -1.2849   -3.1045 H   0  0  0  0  0  0  0  0  0  0  0  0
   -1.3074   -2.1646   -4.1319 H   0  0  0  0  0  0  0  0  0  0  0  0
   -0.2835   -1.5112   -0.2725 N   0  0  0  0  0  0  0  0  0  0  0  0
    0.0769   -0.7658    0.9424 C   0  0  0  0  0  0  0  0  0  0  0  0
   -1.0880   -0.7645    1.8992 C   0  0  0  0  0  0  0  0  0  0  0  0
   -1.2619   -1.6298    2.7533 O   0  0  0  0  0  0  0  0  0  0  0  0
    0.4587   -2.0097   -0.7289 H   0  0  0  0  0  0  0  0  0  0  0  0
    0.3321    0.2629    0.6714 H   0  0  0  0  0  0  0  0  0  0  0  0
    0.9424   -1.2419    1.4125 H   0  0  0  0  0  0  0  0  0  0  0  0
   -1.9244    0.3260    1.6861 N   0  0  0  0  0  0  0  0  0  0  0  0
   -3.1154    0.5752    2.4548 C   0  0  2  0  0  0  0  0  0  0  0  0
   -2.9833    1.9512    3.0940 C   0  0  0  0  0  0  0  0  0  0  0  0
   -1.9005    2.5004    3.2861 O   0  0  0  0  0  0  0  0  0  0  0  0
   -3.3260   -0.4974    3.5121 C   0  0  0  0  0  0  0  0  0  0  0  0
   -1.6813    0.9833    0.9467 H   0  0  0  0  0  0  0  0  0  0  0  0
   -3.9527    0.5788    1.7484 H   0  0  0  0  0  0  0  0  0  0  0  0
   -2.4969   -0.5163    4.2289 H   0  0  0  0  0  0  0  0  0  0  0  0
   -4.2475   -0.3222    4.0771 H   0  0  0  0  0  0  0  0  0  0  0  0
   -3.3910   -1.4898    3.0530 H   0  0  0  0  0  0  0  0  0  0  0  0
   -4.2141    2.4750    3.4641 N   0  0  0  0  0  0  0  0  0  0  0  0
   -4.3531    3.7633    4.1020 C   0  0  0  0  0  0  0  0  0  0  0  0
   -5.0620    1.9587    3.2490 H   0  0  0  0  0  0  0  0  0  0  0  0
   -4.3466    3.6347    5.1945 H   0  0  0  0  0  0  0  0  0  0  0  0
   -3.5160    4.4120    3.8044 H   0  0  0  0  0  0  0  0  0  0  0  0
   -5.3025    4.2249    3.7929 H   0  0  0  0  0  0  0  0  0  0  0  0
  1  3  1  0  0  0  0
  1  7  1  0  0  0  0
  1  2  2  0  0  0  0
 18 19  1  0  0  0  0
 19 24  1  0  0  0  0
 19 20  2  0  0  0  0
 25 26  1  0  0  0  0
 26 34  1  0  0  0  0
 26 27  2  0  0  0  0
  8  9  1  0  0  0  0
  9 17  1  0  0  0  0
  9 10  2  0  0  0  0
 25 28  1  0  0  0  0
  8 11  1  0  0  0  0
 34 35  1  0  0  0  0
 17 18  1  0  0  0  0
 24 25  1  0  0  0  0
  7  8  1  0  0  0  0
  3  4  1  0  0  0  0
  3  5  1  0  0  0  0
  3  6  1  0  0  0  0
 28 31  1  0  0  0  0
 28 32  1  0  0  0  0
 28 33  1  0  0  0  0
 11 14  1  0  0  0  0
 11 15  1  0  0  0  0
 11 16  1  0  0  0  0
 35 37  1  0  0  0  0
 35 38  1  0  0  0  0
 35 39  1  0  0  0  0
 18 22  1  0  0  0  0
 18 23  1  0  0  0  0
 25 30  1  0  0  0  0
  8 13  1  0  0  0  0
 34 36  1  0  0  0  0
 17 21  1  0  0  0  0
  7 12  1  0  0  0  0
 24 29  1  0  0  0  0
M  END
$$$$

  -OEChem-05262214473D

 39 38  0     1  0  0  0  0  0999 V2000
   -3.5200   -4.0268   -1.6943 C   0  0  0  0  0  0  0  0  0  0  0  0
   -2.8702   -4.8827   -1.1054 O   0  0  0  0  0  0  0  0  0  0  0  0
   -4.9704   -4.2579   -1.9614 C   0  0  0  0  0  0  0  0  0  0  0  0
   -5.1456   -4.7573   -2.9278 H   0  0  0  0  0  0  0  0  0  0  0  0
   -5.4379   -4.9112   -1.2072 H   0  0  0  0  0  0  0  0  0  0  0  0
   -5.5954   -3.3510   -1.9864 H   0  0  0  0  0  0  0  0  0  0  0  0
   -3.0424   -2.8131   -2.1606 N   0  0  0  0  0  0  0  0  0  0  0  0
   -1.6755   -2.3891   -2.0077 C   0  0  2  0  0  0  0  0  0  0  0  0
   -1.5782   -1.5673   -0.7292 C   0  0  0  0  0  0  0  0  0  0  0  0
   -2.5448   -1.0064   -0.2171 O   0  0  0  0  0  0  0  0  0  0  0  0
   -1.2087   -1.5823   -3.2094 C   0  0  0  0  0  0  0  0  0  0  0  0
   -3.6915   -2.1888   -2.6360 H   0  0  0  0  0  0  0  0  0  0  0  0
   -1.0721   -3.2977   -1.9053 H   0  0  0  0  0  0  0  0  0  0  0  0
   -1.8017   -0.6681   -3.3281 H   0  0  0  0  0  0  0  0  0  0  0  0
   -0.1601   -1.2849   -3.1045 H   0  0  0  0  0  0  0  0  0  0  0  0
   -1.3074   -2.1646   -4.1319 H   0  0  0  0  0  0  0  0  0  0  0  0
   -0.2835   -1.5112   -0.2725 N   0  0  0  0  0  0  0  0  0  0  0  0
    0.0769   -0.7658    0.9424 C   0  0  0  0  0  0  0  0  0  0  0  0
   -1.0880   -0.7645    1.8992 C   0  0  0  0  0  0  0  0  0  0  0  0
   -1.1314   -1.4580    2.9119 O   0  0  0  0  0  0  0  0  0  0  0  0
    0.4587   -2.0097   -0.7289 H   0  0  0  0  0  0  0  0  0  0  0  0
    0.3321    0.2629    0.6714 H   0  0  0  0  0  0  0  0  0  0  0  0
    0.9424   -1.2419    1.4125 H   0  0  0  0  0  0  0  0  0  0  0  0
   -2.0886    0.1089    1.4865 N   0  0  0  0  0  0  0  0  0  0  0  0
   -3.3168    0.3076    2.2099 C   0  0  2  0  0  0  0  0  0  0  0  0
   -3.4232    1.7863    2.5587 C   0  0  0  0  0  0  0  0  0  0  0  0
   -2.4486    2.5331    2.6187 O   0  0  0  0  0  0  0  0  0  0  0  0
   -3.3657   -0.5515    3.4637 C   0  0  0  0  0  0  0  0  0  0  0  0
   -1.9446    0.6357    0.6266 H   0  0  0  0  0  0  0  0  0  0  0  0
   -4.1316    0.0323    1.5314 H   0  0  0  0  0  0  0  0  0  0  0  0
   -2.5568   -0.2902    4.1557 H   0  0  0  0  0  0  0  0  0  0  0  0
   -4.3127   -0.4206    3.9978 H   0  0  0  0  0  0  0  0  0  0  0  0
   -3.2592   -1.6126    3.2135 H   0  0  0  0  0  0  0  0  0  0  0  0
   -4.7292    2.1642    2.8373 N   0  0  0  0  0  0  0  0  0  0  0  0
   -5.0885    3.5134    3.2070 C   0  0  0  0  0  0  0  0  0  0  0  0
   -5.4771    1.4832    2.7442 H   0  0  0  0  0  0  0  0  0  0  0  0
   -5.0790    3.6087    4.3028 H   0  0  0  0  0  0  0  0  0  0  0  0
   -4.3646    4.2178    2.7715 H   0  0  0  0  0  0  0  0  0  0  0  0
   -6.0956    3.7414    2.8279 H   0  0  0  0  0  0  0  0  0  0  0  0
  1  3  1  0  0  0  0
  1  7  1  0  0  0  0
  1  2  2  0  0  0  0
 18 19  1  0  0  0  0
 19 24  1  0  0  0  0
 19 20  2  0  0  0  0
 25 26  1  0  0  0  0
 26 34  1  0  0  0  0
 26 27  2  0  0  0  0
  8  9  1  0  0  0  0
  9 17  1  0  0  0  0
  9 10  2  0  0  0  0
 25 28  1  0  0  0  0
  8 11  1  0  0  0  0
 34 35  1  0  0  0  0
 17 18  1  0  0  0  0
 24 25  1  0  0  0  0
  7  8  1  0  0  0  0
  3  4  1  0  0  0  0
  3  5  1  0  0  0  0
  3  6  1  0  0  0  0
 28 31  1  0  0  0  0
 28 32  1  0  0  0  0
 28 33  1  0  0  0  0
 11 14  1  0  0  0  0
 11 15  1  0  0  0  0
 11 16  1  0  0  0  0
 35 37  1  0  0  0  0
 35 38  1  0  0  0  0
 35 39  1  0  0  0  0
 18 22  1  0  0  0  0
 18 23  1  0  0  0  0
 25 30  1  0  0  0  0
  8 13  1  0  0  0  0
 34 36  1  0  0  0  0
 17 21  1  0  0  0  0
  7 12  1  0  0  0  0
 24 29  1  0  0  0  0
M  END
$$$$

  -OEChem-05262214473D

 39 38  0     1  0  0  0  0  0999 V2000
   -3.5200   -4.0268   -1.6943 C   0  0  0  0  0  0  0  0  0  0  0  0
   -2.8702   -4.8827   -1.1054 O   0  0  0  0  0  0  0  0  0  0  0  0
   -4.9704   -4.2579   -1.9614 C   0  0  0  0  0  0  0  0  0  0  0  0
   -5.1456   -4.7573   -2.9278 H   0  0  0  0  0  0  0  0  0  0  0  0
   -5.4379   -4.9112   -1.2072 H   0  0  0  0  0  0  0  0  0  0  0  0
   -5.5954   -3.3510   -1.9864 H   0  0  0  0  0  0  0  0  0  0  0  0
   -3.0424   -2.8131   -2.1606 N   0  0  0  0  0  0  0  0  0  0  0  0
   -1.6755   -2.3891   -2.0077 C   0  0  2  0  0  0  0  0  0  0  0  0
   -1.5782   -1.5673   -0.7292 C   0  0  0  0  0  0  0  0  0  0  0  0
   -2.5448   -1.0064   -0.2171 O   0  0  0  0  0  0  0  0  0  0  0  0
   -1.2087   -1.5823   -3.2094 C   0  0  0  0  0  0  0  0  0  0  0  0
   -3.6915   -2.1888   -2.6360 H   0  0  0  0  0  0  0  0  0  0  0  0
   -1.0721   -3.2977   -1.9053 H   0  0  0  0  0  0  0  0  0  0  0  0
   -1.8017   -0.6681   -3.3281 H   0  0  0  0  0  0  0  0  0  0  0  0
   -0.1601   -1.2849   -3.1045 H   0  0  0  0  0  0  0  0  0  0  0  0
   -1.3074   -2.1646   -4.1319 H   0  0  0  0  0  0  0  0  0  0  0  0
   -0.2835   -1.5112   -0.2725 N   0  0  0  0  0  0  0  0  0  0  0  0
    0.0769   -0.7658    0.9424 C   0  0  0  0  0  0  0  0  0  0  0  0
   -1.0880   -0.7645    1.8992 C   0  0  0  0  0  0  0  0  0  0  0  0
   -1.0336   -1.2390    3.0307 O   0  0  0  0  0  0  0  0  0  0  0  0
    0.4587   -2.0097   -0.7289 H   0  0  0  0  0  0  0  0  0  0  0  0
    0.3321    0.2629    0.6714 H   0  0  0  0  0  0  0  0  0  0  0  0
    0.9424   -1.2419    1.4125 H   0  0  0  0  0  0  0  0  0  0  0  0
   -2.2116   -0.1678    1.3371 N   0  0  0  0  0  0  0  0  0  0  0  0
   -3.4675   -0.0329    2.0269 C   0  0  2  0  0  0  0  0  0  0  0  0
   -3.8211    1.4477    2.0747 C   0  0  0  0  0  0  0  0  0  0  0  0
   -2.9836    2.3412    1.9676 O   0  0  0  0  0  0  0  0  0  0  0  0
   -3.3953   -0.6200    3.4279 C   0  0  0  0  0  0  0  0  0  0  0  0
   -2.1419    0.1928    0.3870 H   0  0  0  0  0  0  0  0  0  0  0  0
   -4.2147   -0.5683    1.4310 H   0  0  0  0  0  0  0  0  0  0  0  0
   -2.6518   -0.0962    4.0398 H   0  0  0  0  0  0  0  0  0  0  0  0
   -4.3595   -0.5422    3.9409 H   0  0  0  0  0  0  0  0  0  0  0  0
   -3.1118   -1.6774    3.3932 H   0  0  0  0  0  0  0  0  0  0  0  0
   -5.1759    1.6540    2.2941 N   0  0  0  0  0  0  0  0  0  0  0  0
   -5.7580    2.9721    2.3926 C   0  0  0  0  0  0  0  0  0  0  0  0
   -5.8001    0.8547    2.3518 H   0  0  0  0  0  0  0  0  0  0  0  0
   -5.7824    3.2849    3.4469 H   0  0  0  0  0  0  0  0  0  0  0  0
   -5.1526    3.6844    1.8128 H   0  0  0  0  0  0  0  0  0  0  0  0
   -6.7825    2.9511    1.9927 H   0  0  0  0  0  0  0  0  0  0  0  0
  1  3  1  0  0  0  0
  1  7  1  0  0  0  0
  1  2  2  0  0  0  0
 18 19  1  0  0  0  0
 19 24  1  0  0  0  0
 19 20  2  0  0  0  0
 25 26  1  0  0  0  0
 26 34  1  0  0  0  0
 26 27  2  0  0  0  0
  8  9  1  0  0  0  0
  9 17  1  0  0  0  0
  9 10  2  0  0  0  0
 25 28  1  0  0  0  0
  8 11  1  0  0  0  0
 34 35  1  0  0  0  0
 17 18  1  0  0  0  0
 24 25  1  0  0  0  0
  7  8  1  0  0  0  0
  3  4  1  0  0  0  0
  3  5  1  0  0  0  0
  3  6  1  0  0  0  0
 28 31  1  0  0  0  0
 28 32  1  0  0  0  0
 28 33  1  0  0  0  0
 11 14  1  0  0  0  0
 11 15  1  0  0  0  0
 11 16  1  0  0  0  0
 35 37  1  0  0  0  0
 35 38  1  0  0  0  0
 35 39  1  0  0  0  0
 18 22  1  0  0  0  0
 18 23  1  0  0  0  0
 25 30  1  0  0  0  0
  8 13  1  0  0  0  0
 34 36  1  0  0  0  0
 17 21  1  0  0  0  0
  7 12  1  0  0  0  0
 24 29  1  0  0  0  0
M  END
$$$$

  -OEChem-05262214473D

 39 38  0     1  0  0  0  0  0999 V2000
   -3.5200   -4.0268   -1.6943 C   0  0  0  0  0  0  0  0  0  0  0  0
   -2.8702   -4.8827   -1.1054 O   0  0  0  0  0  0  0  0  0  0  0  0
   -4.9704   -4.2579   -1.9614 C   0  0  0  0  0  0  0  0  0  0  0  0
   -5.1456   -4.7573   -2.9278 H   0  0  0  0  0  0  0  0  0  0  0  0
   -5.4379   -4.9112   -1.2072 H   0  0  0  0  0  0  0  0  0  0  0  0
   -5.5954   -3.3510   -1.9864 H   0  0  0  0  0  0  0  0  0  0  0  0
   -3.0424   -2.8131   -2.1606 N   0  0  0  0  0  0  0  0  0  0  0  0
   -1.6755   -2.3891   -2.0077 C   0  0  2  0  0  0  0  0  0  0  0  0
   -1.5782   -1.5673   -0.7292 C   0  0  0  0  0  0  0  0  0  0  0  0
   -2.5448   -1.0064   -0.2171 O   0  0  0  0  0  0  0  0  0  0  0  0
   -1.2087   -1.5823   -3.2094 C   0  0  0  0  0  0  0  0  0  0  0  0
   -3.6915   -2.1888   -2.6360 H   0  0  0  0  0  0  0  0  0  0  0  0
   -1.0721   -3.2977   -1.9053 H   0  0  0  0  0  0  0  0  0  0  0  0
   -1.8017   -0.6681   -3.3281 H   0  0  0  0  0  0  0  0  0  0  0  0
   -0.1601   -1.2849   -3.1045 H   0  0  0  0  0  0  0  0  0  0  0  0
   -1.3074   -2.1646   -4.1319 H   0  0  0  0  0  0  0  0  0  0  0  0
   -0.2835   -1.5112   -0.2725 N   0  0  0  0  0  0  0  0  0  0  0  0
    0.0769   -0.7658    0.9424 C   0  0  0  0  0  0  0  0  0  0  0  0
   -1.0880   -0.7645    1.8992 C   0  0  0  0  0  0  0  0  0  0  0  0
   -0.9751   -0.9875    3.1016 O   0  0  0  0  0  0  0  0  0  0  0  0
    0.4587   -2.0097   -0.7289 H   0  0  0  0  0  0  0  0  0  0  0  0
    0.3321    0.2629    0.6714 H   0  0  0  0  0  0  0  0  0  0  0  0
    0.9424   -1.2419    1.4125 H   0  0  0  0  0  0  0  0  0  0  0  0
   -2.2849   -0.4851    1.2483 N   0  0  0  0  0  0  0  0  0  0  0  0
   -3.5572   -0.4231    1.9182 C   0  0  2  0  0  0  0  0  0  0  0  0
   -4.1499    0.9585    1.6750 C   0  0  0  0  0  0  0  0  0  0  0  0
   -3.4690    1.9377    1.3773 O   0  0  0  0  0  0  0  0  0  0  0  0
   -3.4126   -0.6981    3.4069 C   0  0  0  0  0  0  0  0  0  0  0  0
   -2.2597   -0.3154    0.2442 H   0  0  0  0  0  0  0  0  0  0  0  0
   -4.1963   -1.1822    1.4542 H   0  0  0  0  0  0  0  0  0  0  0  0
   -2.7755    0.0523    3.8891 H   0  0  0  0  0  0  0  0  0  0  0  0
   -4.3848   -0.6788    3.9103 H   0  0  0  0  0  0  0  0  0  0  0  0
   -2.9586   -1.6799    3.5796 H   0  0  0  0  0  0  0  0  0  0  0  0
   -5.5236    0.9791    1.8717 N   0  0  0  0  0  0  0  0  0  0  0  0
   -6.3159    2.1764    1.7143 C   0  0  0  0  0  0  0  0  0  0  0  0
   -6.0089    0.1161    2.0985 H   0  0  0  0  0  0  0  0  0  0  0  0
   -6.4088    2.6854    2.6850 H   0  0  0  0  0  0  0  0  0  0  0  0
   -5.8263    2.8479    0.9937 H   0  0  0  0  0  0  0  0  0  0  0  0
   -7.3163    1.9079    1.3441 H   0  0  0  0  0  0  0  0  0  0  0  0
  1  3  1  0  0  0  0
  1  7  1  0  0  0  0
  1  2  2  0  0  0  0
 18 19  1  0  0  0  0
 19 24  1  0  0  0  0
 19 20  2  0  0  0  0
 25 26  1  0  0  0  0
 26 34  1  0  0  0  0
 26 27  2  0  0  0  0
  8  9  1  0  0  0  0
  9 17  1  0  0  0  0
  9 10  2  0  0  0  0
 25 28  1  0  0  0  0
  8 11  1  0  0  0  0
 34 35  1  0  0  0  0
 17 18  1  0  0  0  0
 24 25  1  0  0  0  0
  7  8  1  0  0  0  0
  3  4  1  0  0  0  0
  3  5  1  0  0  0  0
  3  6  1  0  0  0  0
 28 31  1  0  0  0  0
 28 32  1  0  0  0  0
 28 33  1  0  0  0  0
 11 14  1  0  0  0  0
 11 15  1  0  0  0  0
 11 16  1  0  0  0  0
 35 37  1  0  0  0  0
 35 38  1  0  0  0  0
 35 39  1  0  0  0  0
 18 22  1  0  0  0  0
 18 23  1  0  0  0  0
 25 30  1  0  0  0  0
  8 13  1  0  0  0  0
 34 36  1  0  0  0  0
 17 21  1  0  0  0  0
  7 12  1  0  0  0  0
 24 29  1  0  0  0  0
M  END
$$$$

  -OEChem-05262214473D

 39 38  0     1  0  0  0  0  0999 V2000
   -3.5200   -4.0268   -1.6943 C   0  0  0  0  0  0  0  0  0  0  0  0
   -2.8702   -4.8827   -1.1054 O   0  0  0  0  0  0  0  0  0  0  0  0
   -4.9704   -4.2579   -1.9614 C   0  0  0  0  0  0  0  0  0  0  0  0
   -5.1456   -4.7573   -2.9278 H   0  0  0  0  0  0  0  0  0  0  0  0
   -5.4379   -4.9112   -1.2072 H   0  0  0  0  0  0  0  0  0  0  0  0
   -5.5954   -3.3510   -1.9864 H   0  0  0  0  0  0  0  0  0  0  0  0
   -3.0424   -2.8131   -2.1606 N   0  0  0  0  0  0  0  0  0  0  0  0
   -1.6755   -2.3891   -2.0077 C   0  0  2  0  0  0  0  0  0  0  0  0
   -1.5782   -1.5673   -0.7292 C   0  0  0  0  0  0  0  0  0  0  0  0
   -2.5448   -1.0064   -0.2171 O   0  0  0  0  0  0  0  0  0  0  0  0
   -1.2087   -1.5823   -3.2094 C   0  0  0  0  0  0  0  0  0  0  0  0
   -3.6915   -2.1888   -2.6360 H   0  0  0  0  0  0  0  0  0  0  0  0
   -1.0721   -3.2977   -1.9053 H   0  0  0  0  0  0  0  0  0  0  0  0
   -1.8017   -0.6681   -3.3281 H   0  0  0  0  0  0  0  0  0  0  0  0
   -0.1601   -1.2849   -3.1045 H   0  0  0  0  0  0  0  0  0  0  0  0
   -1.3074   -2.1646   -4.1319 H   0  0  0  0  0  0  0  0  0  0  0  0
   -0.2835   -1.5112   -0.2725 N   0  0  0  0  0  0  0  0  0  0  0  0
    0.0769   -0.7658    0.9424 C   0  0  0  0  0  0  0  0  0  0  0  0
   -1.0880   -0.7645    1.8992 C   0  0  0  0  0  0  0  0  0  0  0  0
   -0.9598   -0.7209    3.1199 O   0  0  0  0  0  0  0  0  0  0  0  0
    0.4587   -2.0097   -0.7289 H   0  0  0  0  0  0  0  0  0  0  0  0
    0.3321    0.2629    0.6714 H   0  0  0  0  0  0  0  0  0  0  0  0
    0.9424   -1.2419    1.4125 H   0  0  0  0  0  0  0  0  0  0  0  0
   -2.3036   -0.8214    1.2259 N   0  0  0  0  0  0  0  0  0  0  0  0
   -3.5797   -0.8365    1.8914 C   0  0  2  0  0  0  0  0  0  0  0  0
   -4.3873    0.3521    1.3868 C   0  0  0  0  0  0  0  0  0  0  0  0
   -3.8716    1.3501    0.8878 O   0  0  0  0  0  0  0  0  0  0  0  0
   -3.4164   -0.7806    3.4023 C   0  0  0  0  0  0  0  0  0  0  0  0
   -2.2901   -0.8542    0.2079 H   0  0  0  0  0  0  0  0  0  0  0  0
   -4.0777   -1.7675    1.5994 H   0  0  0  0  0  0  0  0  0  0  0  0
   -2.9193    0.1453    3.7138 H   0  0  0  0  0  0  0  0  0  0  0  0
   -4.3868   -0.8209    3.9080 H   0  0  0  0  0  0  0  0  0  0  0  0
   -2.8103   -1.6199    3.7601 H   0  0  0  0  0  0  0  0  0  0  0  0
   -5.7488    0.1856    1.5986 N   0  0  0  0  0  0  0  0  0  0  0  0
   -6.7243    1.1805    1.2185 C   0  0  0  0  0  0  0  0  0  0  0  0
   -6.0893   -0.6823    2.0017 H   0  0  0  0  0  0  0  0  0  0  0  0
   -6.9155    1.8511    2.0692 H   0  0  0  0  0  0  0  0  0  0  0  0
   -6.3398    1.7654    0.3699 H   0  0  0  0  0  0  0  0  0  0  0  0
   -7.6607    0.6828    0.9264 H   0  0  0  0  0  0  0  0  0  0  0  0
  1  3  1  0  0  0  0
  1  7  1  0  0  0  0
  1  2  2  0  0  0  0
 18 19  1  0  0  0  0
 19 24  1  0  0  0  0
 19 20  2  0  0  0  0
 25 26  1  0  0  0  0
 26 34  1  0  0  0  0
 26 27  2  0  0  0  0
  8  9  1  0  0  0  0
  9 17  1  0  0  0  0
  9 10  2  0  0  0  0
 25 28  1  0  0  0  0
  8 11  1  0  0  0  0
 34 35  1  0  0  0  0
 17 18  1  0  0  0  0
 24 25  1  0  0  0  0
  7  8  1  0  0  0  0
  3  4  1  0  0  0  0
  3  5  1  0  0  0  0
  3  6  1  0  0  0  0
 28 31  1  0  0  0  0
 28 32  1  0  0  0  0
 28 33  1  0  0  0  0
 11 14  1  0  0  0  0
 11 15  1  0  0  0  0
 11 16  1  0  0  0  0
 35 37  1  0  0  0  0
 35 38  1  0  0  0  0
 35 39  1  0  0  0  0
 18 22  1  0  0  0  0
 18 23  1  0  0  0  0
 25 30  1  0  0  0  0
  8 13  1  0  0  0  0
 34 36  1  0  0  0  0
 17 21  1  0  0  0  0
  7 12  1  0  0  0  0
 24 29  1  0  0  0  0
M  END
$$$$

  -OEChem-05262214473D

 39 38  0     1  0  0  0  0  0999 V2000
   -3.5200   -4.0268   -1.6943 C   0  0  0  0  0  0  0  0  0  0  0  0
   -2.8702   -4.8827   -1.1054 O   0  0  0  0  0  0  0  0  0  0  0  0
   -4.9704   -4.2579   -1.9614 C   0  0  0  0  0  0  0  0  0  0  0  0
   -5.1456   -4.7573   -2.9278 H   0  0  0  0  0  0  0  0  0  0  0  0
   -5.4379   -4.9112   -1.2072 H   0  0  0  0  0  0  0  0  0  0  0  0
   -5.5954   -3.3510   -1.9864 H   0  0  0  0  0  0  0  0  0  0  0  0
   -3.0424   -2.8131   -2.1606 N   0  0  0  0  0  0  0  0  0  0  0  0
   -1.6755   -2.3891   -2.0077 C   0  0  2  0  0  0  0  0  0  0  0  0
   -1.5782   -1.5673   -0.7292 C   0  0  0  0  0  0  0  0  0  0  0  0
   -2.5448   -1.0064   -0.2171 O   0  0  0  0  0  0  0  0  0  0  0  0
   -1.2087   -1.5823   -3.2094 C   0  0  0  0  0  0  0  0  0  0  0  0
   -3.6915   -2.1888   -2.6360 H   0  0  0  0  0  0  0  0  0  0  0  0
   -1.0721   -3.2977   -1.9053 H   0  0  0  0  0  0  0  0  0  0  0  0
   -1.8017   -0.6681   -3.3281 H   0  0  0  0  0  0  0  0  0  0  0  0
   -0.1601   -1.2849   -3.1045 H   0  0  0  0  0  0  0  0  0  0  0  0
   -1.3074   -2.1646   -4.1319 H   0  0  0  0  0  0  0  0  0  0  0  0
   -0.2835   -1.5112   -0.2725 N   0  0  0  0  0  0  0  0  0  0  0  0
    0.0769   -0.7658    0.9424 C   0  0  0  0  0  0  0  0  0  0  0  0
   -1.0880   -0.7645    1.8992 C   0  0  0  0  0  0  0  0  0  0  0  0
   -0.9889   -0.4571    3.0841 O   0  0  0  0  0  0  0  0  0  0  0  0
    0.4587   -2.0097   -0.7289 H   0  0  0  0  0  0  0  0  0  0  0  0
    0.3321    0.2629    0.6714 H   0  0  0  0  0  0  0  0  0  0  0  0
    0.9424   -1.2419    1.4125 H   0  0  0  0  0  0  0  0  0  0  0  0
   -2.2665   -1.1538    1.2716 N   0  0  0  0  0  0  0  0  0  0  0  0
   -3.5335   -1.2449    1.9481 C   0  0  2  0  0  0  0  0  0  0  0  0
   -4.5170   -0.3304    1.2298 C   0  0  0  0  0  0  0  0  0  0  0  0
   -4.1642    0.6186    0.5326 O   0  0  0  0  0  0  0  0  0  0  0  0
   -3.4066   -0.8619    3.4144 C   0  0  0  0  0  0  0  0  0  0  0  0
   -2.2310   -1.3869    0.2806 H   0  0  0  0  0  0  0  0  0  0  0  0
   -3.8669   -2.2844    1.8567 H   0  0  0  0  0  0  0  0  0  0  0  0
   -3.0736    0.1765    3.5259 H   0  0  0  0  0  0  0  0  0  0  0  0
   -4.3654   -0.9591    3.9343 H   0  0  0  0  0  0  0  0  0  0  0  0
   -2.6768   -1.5014    3.9225 H   0  0  0  0  0  0  0  0  0  0  0  0
   -5.8359   -0.6724    1.4936 N   0  0  0  0  0  0  0  0  0  0  0  0
   -6.9552    0.0523    0.9388 C   0  0  0  0  0  0  0  0  0  0  0  0
   -6.0358   -1.4861    2.0678 H   0  0  0  0  0  0  0  0  0  0  0  0
   -7.2680    0.8388    1.6413 H   0  0  0  0  0  0  0  0  0  0  0  0
   -6.6581    0.5107   -0.0160 H   0  0  0  0  0  0  0  0  0  0  0  0
   -7.7923   -0.6407    0.7680 H   0  0  0  0  0  0  0  0  0  0  0  0
  1  3  1  0  0  0  0
  1  7  1  0  0  0  0
  1  2  2  0  0  0  0
 18 19  1  0  0  0  0
 19 24  1  0  0  0  0
 19 20  2  0  0  0  0
 25 26  1  0  0  0  0
 26 34  1  0  0  0  0
 26 27  2  0  0  0  0
  8  9  1  0  0  0  0
  9 17  1  0  0  0  0
  9 10  2  0  0  0  0
 25 28  1  0  0  0  0
  8 11  1  0  0  0  0
 34 35  1  0  0  0  0
 17 18  1  0  0  0  0
 24 25  1  0  0  0  0
  7  8  1  0  0  0  0
  3  4  1  0  0  0  0
  3  5  1  0  0  0  0
  3  6  1  0  0  0  0
 28 31  1  0  0  0  0
 28 32  1  0  0  0  0
 28 33  1  0  0  0  0
 11 14  1  0  0  0  0
 11 15  1  0  0  0  0
 11 16  1  0  0  0  0
 35 37  1  0  0  0  0
 35 38  1  0  0  0  0
 35 39  1  0  0  0  0
 18 22  1  0  0  0  0
 18 23  1  0  0  0  0
 25 30  1  0  0  0  0
  8 13  1  0  0  0  0
 34 36  1  0  0  0  0
 17 21  1  0  0  0  0
  7 12  1  0  0  0  0
 24 29  1  0  0  0  0
M  END
$$$$

  -OEChem-05262214473D

 39 38  0     1  0  0  0  0  0999 V2000
   -3.5200   -4.0268   -1.6943 C   0  0  0  0  0  0  0  0  0  0  0  0
   -2.8702   -4.8827   -1.1054 O   0  0  0  0  0  0  0  0  0  0  0  0
   -4.9704   -4.2579   -1.9614 C   0  0  0  0  0  0  0  0  0  0  0  0
   -5.1456   -4.7573   -2.9278 H   0  0  0  0  0  0  0  0  0  0  0  0
   -5.4379   -4.9112   -1.2072 H   0  0  0  0  0  0  0  0  0  0  0  0
   -5.5954   -3.3510   -1.9864 H   0  0  0  0  0  0  0  0  0  0  0  0
   -3.0424   -2.8131   -2.1606 N   0  0  0  0  0  0  0  0  0  0  0  0
   -1.6755   -2.3891   -2.0077 C   0  0  2  0  0  0  0  0  0  0  0  0
   -1.5782   -1.5673   -0.7292 C   0  0  0  0  0  0  0  0  0  0  0  0
   -2.5448   -1.0064   -0.2171 O   0  0  0  0  0  0  0  0  0  0  0  0
   -1.2087   -1.5823   -3.2094 C   0  0  0  0  0  0  0  0  0  0  0  0
   -3.6915   -2.1888   -2.6360 H   0  0  0  0  0  0  0  0  0  0  0  0
   -1.0721   -3.2977   -1.9053 H   0  0  0  0  0  0  0  0  0  0  0  0
   -1.8017   -0.6681   -3.3281 H   0  0  0  0  0  0  0  0  0  0  0  0
   -0.1601   -1.2849   -3.1045 H   0  0  0  0  0  0  0  0  0  0  0  0
   -1.3074   -2.1646   -4.1319 H   0  0  0  0  0  0  0  0  0  0  0  0
   -0.2835   -1.5112   -0.2725 N   0  0  0  0  0  0  0  0  0  0  0  0
    0.0769   -0.7658    0.9424 C   0  0  0  0  0  0  0  0  0  0  0  0
   -1.0880   -0.7645    1.8992 C   0  0  0  0  0  0  0  0  0  0  0  0
   -1.0603   -0.2143    2.9969 O   0  0  0  0  0  0  0  0  0  0  0  0
    0.4587   -2.0097   -0.7289 H   0  0  0  0  0  0  0  0  0  0  0  0
    0.3321    0.2629    0.6714 H   0  0  0  0  0  0  0  0  0  0  0  0
    0.9424   -1.2419    1.4125 H   0  0  0  0  0  0  0  0  0  0  0  0
   -2.1760   -1.4597    1.3821 N   0  0  0  0  0  0  0  0  0  0  0  0
   -3.4218   -1.6204    2.0846 C   0  0  2  0  0  0  0  0  0  0  0  0
   -4.5302   -1.0423    1.2146 C   0  0  0  0  0  0  0  0  0  0  0  0
   -4.3266   -0.2072    0.3359 O   0  0  0  0  0  0  0  0  0  0  0  0
   -3.3838   -0.9363    3.4423 C   0  0  0  0  0  0  0  0  0  0  0  0
   -2.0863   -1.8772    0.4573 H   0  0  0  0  0  0  0  0  0  0  0  0
   -3.5783   -2.6975    2.2086 H   0  0  0  0  0  0  0  0  0  0  0  0
   -3.2278    0.1436    3.3383 H   0  0  0  0  0  0  0  0  0  0  0  0
   -4.3220   -1.0837    3.9872 H   0  0  0  0  0  0  0  0  0  0  0  0
   -2.5673   -1.3325    4.0556 H   0  0  0  0  0  0  0  0  0  0  0  0
   -5.7792   -1.5366    1.5638 N   0  0  0  0  0  0  0  0  0  0  0  0
   -6.9931   -1.1314    0.8943 C   0  0  0  0  0  0  0  0  0  0  0  0
   -5.8521   -2.2405    2.2925 H   0  0  0  0  0  0  0  0  0  0  0  0
   -7.4424   -0.2825    1.4305 H   0  0  0  0  0  0  0  0  0  0  0  0
   -6.7596   -0.8308   -0.1378 H   0  0  0  0  0  0  0  0  0  0  0  0
   -7.7019   -1.9724    0.8798 H   0  0  0  0  0  0  0  0  0  0  0  0
  1  3  1  0  0  0  0
  1  7  1  0  0  0  0
  1  2  2  0  0  0  0
 18 19  1  0  0  0  0
 19 24  1  0  0  0  0
 19 20  2  0  0  0  0
 25 26  1  0  0  0  0
 26 34  1  0  0  0  0
 26 27  2  0  0  0  0
  8  9  1  0  0  0  0
  9 17  1  0  0  0  0
  9 10  2  0  0  0  0
 25 28  1  0  0  0  0
  8 11  1  0  0  0  0
 34 35  1  0  0  0  0
 17 18  1  0  0  0  0
 24 25  1  0  0  0  0
  7  8  1  0  0  0  0
  3  4  1  0  0  0  0
  3  5  1  0  0  0  0
  3  6  1  0  0  0  0
 28 31  1  0  0  0  0
 28 32  1  0  0  0  0
 28 33  1  0  0  0  0
 11 14  1  0  0  0  0
 11 15  1  0  0  0  0
 11 16  1  0  0  0  0
 35 37  1  0  0  0  0
 35 38  1  0  0  0  0
 35 39  1  0  0  0  0
 18 22  1  0  0  0  0
 18 23  1  0  0  0  0
 25 30  1  0  0  0  0
  8 13  1  0  0  0  0
 34 36  1  0  0  0  0
 17 21  1  0  0  0  0
  7 12  1  0  0  0  0
 24 29  1  0  0  0  0
M  END
$$$$

  -OEChem-05262214473D

 39 38  0     1  0  0  0  0  0999 V2000
   -3.5200   -4.0268   -1.6943 C   0  0  0  0  0  0  0  0  0  0  0  0
   -2.8702   -4.8827   -1.1054 O   0  0  0  0  0  0  0  0  0  0  0  0
   -4.9704   -4.2579   -1.9614 C   0  0  0  0  0  0  0  0  0  0  0  0
   -5.1456   -4.7573   -2.9278 H   0  0  0  0  0  0  0  0  0  0  0  0
   -5.4379   -4.9112   -1.2072 H   0  0  0  0  0  0  0  0  0  0  0  0
   -5.5954   -3.3510   -1.9864 H   0  0  0  0  0  0  0  0  0  0  0  0
   -3.0424   -2.8131   -2.1606 N   0  0  0  0  0  0  0  0  0  0  0  0
   -1.6755   -2.3891   -2.0077 C   0  0  2  0  0  0  0  0  0  0  0  0
   -1.5782   -1.5673   -0.7292 C   0  0  0  0  0  0  0  0  0  0  0  0
   -2.5448   -1.0064   -0.2171 O   0  0  0  0  0  0  0  0  0  0  0  0
   -1.2087   -1.5823   -3.2094 C   0  0  0  0  0  0  0  0  0  0  0  0
   -3.6915   -2.1888   -2.6360 H   0  0  0  0  0  0  0  0  0  0  0  0
   -1.0721   -3.2977   -1.9053 H   0  0  0  0  0  0  0  0  0  0  0  0
   -1.8017   -0.6681   -3.3281 H   0  0  0  0  0  0  0  0  0  0  0  0
   -0.1601   -1.2849   -3.1045 H   0  0  0  0  0  0  0  0  0  0  0  0
   -1.3074   -2.1646   -4.1319 H   0  0  0  0  0  0  0  0  0  0  0  0
   -0.2835   -1.5112   -0.2725 N   0  0  0  0  0  0  0  0  0  0  0  0
    0.0769   -0.7658    0.9424 C   0  0  0  0  0  0  0  0  0  0  0  0
   -1.0880   -0.7645    1.8992 C   0  0  0  0  0  0  0  0  0  0  0  0
   -1.1692   -0.0090    2.8641 O   0  0  0  0  0  0  0  0  0  0  0  0
    0.4587   -2.0097   -0.7289 H   0  0  0  0  0  0  0  0  0  0  0  0
    0.3321    0.2629    0.6714 H   0  0  0  0  0  0  0  0  0  0  0  0
    0.9424   -1.2419    1.4125 H   0  0  0  0  0  0  0  0  0  0  0  0
   -2.0383   -1.7181    1.5501 N   0  0  0  0  0  0  0  0  0  0  0  0
   -3.2522   -1.9375    2.2915 C   0  0  2  0  0  0  0  0  0  0  0  0
   -4.4260   -1.7352    1.3424 C   0  0  0  0  0  0  0  0  0  0  0  0
   -4.3479   -1.0708    0.3111 O   0  0  0  0  0  0  0  0  0  0  0  0
   -3.3495   -0.9989    3.4841 C   0  0  0  0  0  0  0  0  0  0  0  0
   -1.8660   -2.2917    0.7261 H   0  0  0  0  0  0  0  0  0  0  0  0
   -3.2317   -2.9788    2.6310 H   0  0  0  0  0  0  0  0  0  0  0  0
   -3.3713    0.0491    3.1636 H   0  0  0  0  0  0  0  0  0  0  0  0
   -4.2597   -1.1864    4.0633 H   0  0  0  0  0  0  0  0  0  0  0  0
   -2.4892   -1.1248    4.1503 H   0  0  0  0  0  0  0  0  0  0  0  0
   -5.5824   -2.3479    1.8045 N   0  0  0  0  0  0  0  0  0  0  0  0
   -6.8351   -2.2898    1.0881 C   0  0  0  0  0  0  0  0  0  0  0  0
   -5.5507   -2.8941    2.6603 H   0  0  0  0  0  0  0  0  0  0  0  0
   -7.4266   -1.4364    1.4512 H   0  0  0  0  0  0  0  0  0  0  0  0
   -6.6372   -2.1675    0.0130 H   0  0  0  0  0  0  0  0  0  0  0  0
   -7.3958   -3.2215    1.2541 H   0  0  0  0  0  0  0  0  0  0  0  0
  1  3  1  0  0  0  0
  1  7  1  0  0  0  0
  1  2  2  0  0  0  0
 18 19  1  0  0  0  0
 19 24  1  0  0  0  0
 19 20  2  0  0  0  0
 25 26  1  0  0  0  0
 26 34  1  0  0  0  0
 26 27  2  0  0  0  0
  8  9  1  0  0  0  0
  9 17  1  0  0  0  0
  9 10  2  0  0  0  0
 25 28  1  0  0  0  0
  8 11  1  0  0  0  0
 34 35  1  0  0  0  0
 17 18  1  0  0  0  0
 24 25  1  0  0  0  0
  7  8  1  0  0  0  0
  3  4  1  0  0  0  0
  3  5  1  0  0  0  0
  3  6  1  0  0  0  0
 28 31  1  0  0  0  0
 28 32  1  0  0  0  0
 28 33  1  0  0  0  0
 11 14  1  0  0  0  0
 11 15  1  0  0  0  0
 11 16  1  0  0  0  0
 35 37  1  0  0  0  0
 35 38  1  0  0  0  0
 35 39  1  0  0  0  0
 18 22  1  0  0  0  0
 18 23  1  0  0  0  0
 25 30  1  0  0  0  0
  8 13  1  0  0  0  0
 34 36  1  0  0  0  0
 17 21  1  0  0  0  0
  7 12  1  0  0  0  0
 24 29  1  0  0  0  0
M  END
$$$$

  -OEChem-05262214473D

 39 38  0     1  0  0  0  0  0999 V2000
   -3.5200   -4.0268   -1.6943 C   0  0  0  0  0  0  0  0  0  0  0  0
   -2.8702   -4.8827   -1.1054 O   0  0  0  0  0  0  0  0  0  0  0  0
   -4.9704   -4.2579   -1.9614 C   0  0  0  0  0  0  0  0  0  0  0  0
   -5.1456   -4.7573   -2.9278 H   0  0  0  0  0  0  0  0  0  0  0  0
   -5.4379   -4.9112   -1.2072 H   0  0  0  0  0  0  0  0  0  0  0  0
   -5.5954   -3.3510   -1.9864 H   0  0  0  0  0  0  0  0  0  0  0  0
   -3.0424   -2.8131   -2.1606 N   0  0  0  0  0  0  0  0  0  0  0  0
   -1.6755   -2.3891   -2.0077 C   0  0  2  0  0  0  0  0  0  0  0  0
   -1.5782   -1.5673   -0.7292 C   0  0  0  0  0  0  0  0  0  0  0  0
   -2.5448   -1.0064   -0.2171 O   0  0  0  0  0  0  0  0  0  0  0  0
   -1.2087   -1.5823   -3.2094 C   0  0  0  0  0  0  0  0  0  0  0  0
   -3.6915   -2.1888   -2.6360 H   0  0  0  0  0  0  0  0  0  0  0  0
   -1.0721   -3.2977   -1.9053 H   0  0  0  0  0  0  0  0  0  0  0  0
   -1.8017   -0.6681   -3.3281 H   0  0  0  0  0  0  0  0  0  0  0  0
   -0.1601   -1.2849   -3.1045 H   0  0  0  0  0  0  0  0  0  0  0  0
   -1.3074   -2.1646   -4.1319 H   0  0  0  0  0  0  0  0  0  0  0  0
   -0.2835   -1.5112   -0.2725 N   0  0  0  0  0  0  0  0  0  0  0  0
    0.0769   -0.7658    0.9424 C   0  0  0  0  0  0  0  0  0  0  0  0
   -1.0880   -0.7645    1.8992 C   0  0  0  0  0  0  0  0  0  0  0  0
   -1.3081    0.1449    2.6947 O   0  0  0  0  0  0  0  0  0  0  0  0
    0.4587   -2.0097   -0.7289 H   0  0  0  0  0  0  0  0  0  0  0  0
    0.3321    0.2629    0.6714 H   0  0  0  0  0  0  0  0  0  0  0  0
    0.9424   -1.2419    1.4125 H   0  0  0  0  0  0  0  0  0  0  0  0
   -1.8628   -1.9115    1.7640 N   0  0  0  0  0  0  0  0  0  0  0  0
   -3.0363   -2.1745    2.5547 C   0  0  2  0  0  0  0  0  0  0  0  0
   -4.2115   -2.3618    1.6044 C   0  0  0  0  0  0  0  0  0  0  0  0
   -4.2267   -1.9135    0.4598 O   0  0  0  0  0  0  0  0  0  0  0  0
   -3.3061   -1.0454    3.5370 C   0  0  0  0  0  0  0  0  0  0  0  0
   -1.5851   -2.6021    1.0685 H   0  0  0  0  0  0  0  0  0  0  0  0
   -2.8505   -3.1091    3.0953 H   0  0  0  0  0  0  0  0  0  0  0  0
   -3.4945   -0.1008    3.0138 H   0  0  0  0  0  0  0  0  0  0  0  0
   -4.1825   -1.2601    4.1574 H   0  0  0  0  0  0  0  0  0  0  0  0
   -2.4479   -0.8924    4.2003 H   0  0  0  0  0  0  0  0  0  0  0  0
   -5.2590   -3.0511    2.1991 N   0  0  0  0  0  0  0  0  0  0  0  0
   -6.4923   -3.3440    1.5069 C   0  0  0  0  0  0  0  0  0  0  0  0
   -5.1522   -3.4023    3.1462 H   0  0  0  0  0  0  0  0  0  0  0  0
   -7.2218   -2.5442    1.7020 H   0  0  0  0  0  0  0  0  0  0  0  0
   -6.2994   -3.4085    0.4259 H   0  0  0  0  0  0  0  0  0  0  0  0
   -6.8949   -4.3029    1.8653 H   0  0  0  0  0  0  0  0  0  0  0  0
  1  3  1  0  0  0  0
  1  7  1  0  0  0  0
  1  2  2  0  0  0  0
 18 19  1  0  0  0  0
 19 24  1  0  0  0  0
 19 20  2  0  0  0  0
 25 26  1  0  0  0  0
 26 34  1  0  0  0  0
 26 27  2  0  0  0  0
  8  9  1  0  0  0  0
  9 17  1  0  0  0  0
  9 10  2  0  0  0  0
 25 28  1  0  0  0  0
  8 11  1  0  0  0  0
 34 35  1  0  0  0  0
 17 18  1  0  0  0  0
 24 25  1  0  0  0  0
  7  8  1  0  0  0  0
  3  4  1  0  0  0  0
  3  5  1  0  0  0  0
  3  6  1  0  0  0  0
 28 31  1  0  0  0  0
 28 32  1  0  0  0  0
 28 33  1  0  0  0  0
 11 14  1  0  0  0  0
 11 15  1  0  0  0  0
 11 16  1  0  0  0  0
 35 37  1  0  0  0  0
 35 38  1  0  0  0  0
 35 39  1  0  0  0  0
 18 22  1  0  0  0  0
 18 23  1  0  0  0  0
 25 30  1  0  0  0  0
  8 13  1  0  0  0  0
 34 36  1  0  0  0  0
 17 21  1  0  0  0  0
  7 12  1  0  0  0  0
 24 29  1  0  0  0  0
M  END
$$$$

  -OEChem-05262214473D

 39 38  0     1  0  0  0  0  0999 V2000
   -3.5200   -4.0268   -1.6943 C   0  0  0  0  0  0  0  0  0  0  0  0
   -2.8702   -4.8827   -1.1054 O   0  0  0  0  0  0  0  0  0  0  0  0
   -4.9704   -4.2579   -1.9614 C   0  0  0  0  0  0  0  0  0  0  0  0
   -5.1456   -4.7573   -2.9278 H   0  0  0  0  0  0  0  0  0  0  0  0
   -5.4379   -4.9112   -1.2072 H   0  0  0  0  0  0  0  0  0  0  0  0
   -5.5954   -3.3510   -1.9864 H   0  0  0  0  0  0  0  0  0  0  0  0
   -3.0424   -2.8131   -2.1606 N   0  0  0  0  0  0  0  0  0  0  0  0
   -1.6755   -2.3891   -2.0077 C   0  0  2  0  0  0  0  0  0  0  0  0
   -1.5782   -1.5673   -0.7292 C   0  0  0  0  0  0  0  0  0  0  0  0
   -2.5448   -1.0064   -0.2171 O   0  0  0  0  0  0  0  0  0  0  0  0
   -1.2087   -1.5823   -3.2094 C   0  0  0  0  0  0  0  0  0  0  0  0
   -3.6915   -2.1888   -2.6360 H   0  0  0  0  0  0  0  0  0  0  0  0
   -1.0721   -3.2977   -1.9053 H   0  0  0  0  0  0  0  0  0  0  0  0
   -1.8017   -0.6681   -3.3281 H   0  0  0  0  0  0  0  0  0  0  0  0
   -0.1601   -1.2849   -3.1045 H   0  0  0  0  0  0  0  0  0  0  0  0
   -1.3074   -2.1646   -4.1319 H   0  0  0  0  0  0  0  0  0  0  0  0
   -0.2835   -1.5112   -0.2725 N   0  0  0  0  0  0  0  0  0  0  0  0
    0.0769   -0.7658    0.9424 C   0  0  0  0  0  0  0  0  0  0  0  0
   -1.0880   -0.7645    1.8992 C   0  0  0  0  0  0  0  0  0  0  0  0
   -1.4676    0.2369    2.5004 O   0  0  0  0  0  0  0  0  0  0  0  0
    0.4587   -2.0097   -0.7289 H   0  0  0  0  0  0  0  0  0  0  0  0
    0.3321    0.2629    0.6714 H   0  0  0  0  0  0  0  0  0  0  0  0
    0.9424   -1.2419    1.4125 H   0  0  0  0  0  0  0  0  0  0  0  0
   -1.6615   -2.0268    2.0093 N   0  0  0  0  0  0  0  0  0  0  0  0
   -2.7887   -2.3154    2.8564 C   0  0  2  0  0  0  0  0  0  0  0  0
   -3.9014   -2.8794    1.9827 C   0  0  0  0  0  0  0  0  0  0  0  0
   -3.9711   -2.6778    0.7720 O   0  0  0  0  0  0  0  0  0  0  0  0
   -3.2565   -1.0725    3.5974 C   0  0  0  0  0  0  0  0  0  0  0  0
   -1.2627   -2.7873    1.4613 H   0  0  0  0  0  0  0  0  0  0  0  0
   -2.4608   -3.0794    3.5696 H   0  0  0  0  0  0  0  0  0  0  0  0
   -3.5889   -0.2957    2.8991 H   0  0  0  0  0  0  0  0  0  0  0  0
   -4.0958   -1.2998    4.2629 H   0  0  0  0  0  0  0  0  0  0  0  0
   -2.4462   -0.6512    4.2021 H   0  0  0  0  0  0  0  0  0  0  0  0
   -4.8310   -3.5983    2.7209 N   0  0  0  0  0  0  0  0  0  0  0  0
   -5.9878   -4.2223    2.1222 C   0  0  0  0  0  0  0  0  0  0  0  0
   -4.6836   -3.7305    3.7172 H   0  0  0  0  0  0  0  0  0  0  0  0
   -6.8420   -3.5305    2.1658 H   0  0  0  0  0  0  0  0  0  0  0  0
   -5.7692   -4.4691    1.0728 H   0  0  0  0  0  0  0  0  0  0  0  0
   -6.2333   -5.1429    2.6719 H   0  0  0  0  0  0  0  0  0  0  0  0
  1  3  1  0  0  0  0
  1  7  1  0  0  0  0
  1  2  2  0  0  0  0
 18 19  1  0  0  0  0
 19 24  1  0  0  0  0
 19 20  2  0  0  0  0
 25 26  1  0  0  0  0
 26 34  1  0  0  0  0
 26 27  2  0  0  0  0
  8  9  1  0  0  0  0
  9 17  1  0  0  0  0
  9 10  2  0  0  0  0
 25 28  1  0  0  0  0
  8 11  1  0  0  0  0
 34 35  1  0  0  0  0
 17 18  1  0  0  0  0
 24 25  1  0  0  0  0
  7  8  1  0  0  0  0
  3  4  1  0  0  0  0
  3  5  1  0  0  0  0
  3  6  1  0  0  0  0
 28 31  1  0  0  0  0
 28 32  1  0  0  0  0
 28 33  1  0  0  0  0
 11 14  1  0  0  0  0
 11 15  1  0  0  0  0
 11 16  1  0  0  0  0
 35 37  1  0  0  0  0
 35 38  1  0  0  0  0
 35 39  1  0  0  0  0
 18 22  1  0  0  0  0
 18 23  1  0  0  0  0
 25 30  1  0  0  0  0
  8 13  1  0  0  0  0
 34 36  1  0  0  0  0
 17 21  1  0  0  0  0
  7 12  1  0  0  0  0
 24 29  1  0  0  0  0
M  END
$$$$

  -OEChem-05262214473D

 39 38  0     1  0  0  0  0  0999 V2000
   -3.5200   -4.0268   -1.6943 C   0  0  0  0  0  0  0  0  0  0  0  0
   -2.8702   -4.8827   -1.1054 O   0  0  0  0  0  0  0  0  0  0  0  0
   -4.9704   -4.2579   -1.9614 C   0  0  0  0  0  0  0  0  0  0  0  0
   -5.1456   -4.7573   -2.9278 H   0  0  0  0  0  0  0  0  0  0  0  0
   -5.4379   -4.9112   -1.2072 H   0  0  0  0  0  0  0  0  0  0  0  0
   -5.5954   -3.3510   -1.9864 H   0  0  0  0  0  0  0  0  0  0  0  0
   -3.0424   -2.8131   -2.1606 N   0  0  0  0  0  0  0  0  0  0  0  0
   -1.6755   -2.3891   -2.0077 C   0  0  2  0  0  0  0  0  0  0  0  0
   -1.5782   -1.5673   -0.7292 C   0  0  0  0  0  0  0  0  0  0  0  0
   -2.5448   -1.0064   -0.2171 O   0  0  0  0  0  0  0  0  0  0  0  0
   -1.2087   -1.5823   -3.2094 C   0  0  0  0  0  0  0  0  0  0  0  0
   -3.6915   -2.1888   -2.6360 H   0  0  0  0  0  0  0  0  0  0  0  0
   -1.0721   -3.2977   -1.9053 H   0  0  0  0  0  0  0  0  0  0  0  0
   -1.8017   -0.6681   -3.3281 H   0  0  0  0  0  0  0  0  0  0  0  0
   -0.1601   -1.2849   -3.1045 H   0  0  0  0  0  0  0  0  0  0  0  0
   -1.3074   -2.1646   -4.1319 H   0  0  0  0  0  0  0  0  0  0  0  0
   -0.2835   -1.5112   -0.2725 N   0  0  0  0  0  0  0  0  0  0  0  0
    0.0769   -0.7658    0.9424 C   0  0  0  0  0  0  0  0  0  0  0  0
   -1.0880   -0.7645    1.8992 C   0  0  0  0  0  0  0  0  0  0  0  0
   -1.6368    0.2607    2.2943 O   0  0  0  0  0  0  0  0  0  0  0  0
    0.4587   -2.0097   -0.7289 H   0  0  0  0  0  0  0  0  0  0  0  0
    0.3321    0.2629    0.6714 H   0  0  0  0  0  0  0  0  0  0  0  0
    0.9424   -1.2419    1.4125 H   0  0  0  0  0  0  0  0  0  0  0  0
   -1.4481   -2.0559    2.2692 N   0  0  0  0  0  0  0  0  0  0  0  0
   -2.5263   -2.3504    3.1758 C   0  0  2  0  0  0  0  0  0  0  0  0
   -3.5167   -3.2527    2.4515 C   0  0  0  0  0  0  0  0  0  0  0  0
   -3.5985   -3.3116    1.2264 O   0  0  0  0  0  0  0  0  0  0  0  0
   -3.2042   -1.0785    3.6612 C   0  0  0  0  0  0  0  0  0  0  0  0
   -0.9207   -2.8346    1.8777 H   0  0  0  0  0  0  0  0  0  0  0  0
   -2.0892   -2.8919    4.0218 H   0  0  0  0  0  0  0  0  0  0  0  0
   -3.6481   -0.5225    2.8274 H   0  0  0  0  0  0  0  0  0  0  0  0
   -4.0056   -1.3028    4.3728 H   0  0  0  0  0  0  0  0  0  0  0  0
   -2.4842   -0.4175    4.1556 H   0  0  0  0  0  0  0  0  0  0  0  0
   -4.3276   -3.9521    3.3343 N   0  0  0  0  0  0  0  0  0  0  0  0
   -5.3561   -4.8647    2.8922 C   0  0  0  0  0  0  0  0  0  0  0  0
   -4.1769   -3.8564    4.3342 H   0  0  0  0  0  0  0  0  0  0  0  0
   -6.3129   -4.3281    2.8110 H   0  0  0  0  0  0  0  0  0  0  0  0
   -5.0826   -5.2770    1.9097 H   0  0  0  0  0  0  0  0  0  0  0  0
   -5.4561   -5.6843    3.6189 H   0  0  0  0  0  0  0  0  0  0  0  0
  1  3  1  0  0  0  0
  1  7  1  0  0  0  0
  1  2  2  0  0  0  0
 18 19  1  0  0  0  0
 19 24  1  0  0  0  0
 19 20  2  0  0  0  0
 25 26  1  0  0  0  0
 26 34  1  0  0  0  0
 26 27  2  0  0  0  0
  8  9  1  0  0  0  0
  9 17  1  0  0  0  0
  9 10  2  0  0  0  0
 25 28  1  0  0  0  0
  8 11  1  0  0  0  0
 34 35  1  0  0  0  0
 17 18  1  0  0  0  0
 24 25  1  0  0  0  0
  7  8  1  0  0  0  0
  3  4  1  0  0  0  0
  3  5  1  0  0  0  0
  3  6  1  0  0  0  0
 28 31  1  0  0  0  0
 28 32  1  0  0  0  0
 28 33  1  0  0  0  0
 11 14  1  0  0  0  0
 11 15  1  0  0  0  0
 11 16  1  0  0  0  0
 35 37  1  0  0  0  0
 35 38  1  0  0  0  0
 35 39  1  0  0  0  0
 18 22  1  0  0  0  0
 18 23  1  0  0  0  0
 25 30  1  0  0  0  0
  8 13  1  0  0  0  0
 34 36  1  0  0  0  0
 17 21  1  0  0  0  0
  7 12  1  0  0  0  0
 24 29  1  0  0  0  0
M  END
$$$$

  -OEChem-05262214473D

 39 38  0     1  0  0  0  0  0999 V2000
   -3.5200   -4.0268   -1.6943 C   0  0  0  0  0  0  0  0  0  0  0  0
   -2.8702   -4.8827   -1.1054 O   0  0  0  0  0  0  0  0  0  0  0  0
   -4.9704   -4.2579   -1.9614 C   0  0  0  0  0  0  0  0  0  0  0  0
   -5.1456   -4.7573   -2.9278 H   0  0  0  0  0  0  0  0  0  0  0  0
   -5.4379   -4.9112   -1.2072 H   0  0  0  0  0  0  0  0  0  0  0  0
   -5.5954   -3.3510   -1.9864 H   0  0  0  0  0  0  0  0  0  0  0  0
   -3.0424   -2.8131   -2.1606 N   0  0  0  0  0  0  0  0  0  0  0  0
   -1.6755   -2.3891   -2.0077 C   0  0  2  0  0  0  0  0  0  0  0  0
   -1.5782   -1.5673   -0.7292 C   0  0  0  0  0  0  0  0  0  0  0  0
   -2.5448   -1.0064   -0.2171 O   0  0  0  0  0  0  0  0  0  0  0  0
   -1.2087   -1.5823   -3.2094 C   0  0  0  0  0  0  0  0  0  0  0  0
   -3.6915   -2.1888   -2.6360 H   0  0  0  0  0  0  0  0  0  0  0  0
   -1.0721   -3.2977   -1.9053 H   0  0  0  0  0  0  0  0  0  0  0  0
   -1.8017   -0.6681   -3.3281 H   0  0  0  0  0  0  0  0  0  0  0  0
   -0.1601   -1.2849   -3.1045 H   0  0  0  0  0  0  0  0  0  0  0  0
   -1.3074   -2.1646   -4.1319 H   0  0  0  0  0  0  0  0  0  0  0  0
   -0.2835   -1.5112   -0.2725 N   0  0  0  0  0  0  0  0  0  0  0  0
    0.0769   -0.7658    0.9424 C   0  0  0  0  0  0  0  0  0  0  0  0
   -1.0880   -0.7645    1.8992 C   0  0  0  0  0  0  0  0  0  0  0  0
   -1.8043    0.2146    2.0905 O   0  0  0  0  0  0  0  0  0  0  0  0
    0.4587   -2.0097   -0.7289 H   0  0  0  0  0  0  0  0  0  0  0  0
    0.3321    0.2629    0.6714 H   0  0  0  0  0  0  0  0  0  0  0  0
    0.9424   -1.2419    1.4125 H   0  0  0  0  0  0  0  0  0  0  0  0
   -1.2370   -1.9971    2.5260 N   0  0  0  0  0  0  0  0  0  0  0  0
   -2.2671   -2.2773    3.4914 C   0  0  2  0  0  0  0  0  0  0  0  0
   -3.0836   -3.4564    2.9790 C   0  0  0  0  0  0  0  0  0  0  0  0
   -3.1345   -3.7718    1.7920 O   0  0  0  0  0  0  0  0  0  0  0  0
   -3.1526   -1.0630    3.7239 C   0  0  0  0  0  0  0  0  0  0  0  0
   -0.5825   -2.7409    2.2893 H   0  0  0  0  0  0  0  0  0  0  0  0
   -1.7609   -2.5593    4.4211 H   0  0  0  0  0  0  0  0  0  0  0  0
   -3.6680   -0.7656    2.8034 H   0  0  0  0  0  0  0  0  0  0  0  0
   -3.9179   -1.2689    4.4795 H   0  0  0  0  0  0  0  0  0  0  0  0
   -2.5592   -0.2073    4.0639 H   0  0  0  0  0  0  0  0  0  0  0  0
   -3.7831   -4.0886    3.9974 N   0  0  0  0  0  0  0  0  0  0  0  0
   -4.6403   -5.2274    3.7642 C   0  0  0  0  0  0  0  0  0  0  0  0
   -3.6667   -3.7713    4.9553 H   0  0  0  0  0  0  0  0  0  0  0  0
   -5.6708   -4.8825    3.5935 H   0  0  0  0  0  0  0  0  0  0  0  0
   -4.2866   -5.7773    2.8796 H   0  0  0  0  0  0  0  0  0  0  0  0
   -4.6162   -5.8901    4.6418 H   0  0  0  0  0  0  0  0  0  0  0  0
  1  3  1  0  0  0  0
  1  7  1  0  0  0  0
  1  2  2  0  0  0  0
 18 19  1  0  0  0  0
 19 24  1  0  0  0  0
 19 20  2  0  0  0  0
 25 26  1  0  0  0  0
 26 34  1  0  0  0  0
 26 27  2  0  0  0  0
  8  9  1  0  0  0  0
  9 17  1  0  0  0  0
  9 10  2  0  0  0  0
 25 28  1  0  0  0  0
  8 11  1  0  0  0  0
 34 35  1  0  0  0  0
 17 18  1  0  0  0  0
 24 25  1  0  0  0  0
  7  8  1  0  0  0  0
  3  4  1  0  0  0  0
  3  5  1  0  0  0  0
  3  6  1  0  0  0  0
 28 31  1  0  0  0  0
 28 32  1  0  0  0  0
 28 33  1  0  0  0  0
 11 14  1  0  0  0  0
 11 15  1  0  0  0  0
 11 16  1  0  0  0  0
 35 37  1  0  0  0  0
 35 38  1  0  0  0  0
 35 39  1  0  0  0  0
 18 22  1  0  0  0  0
 18 23  1  0  0  0  0
 25 30  1  0  0  0  0
  8 13  1  0  0  0  0
 34 36  1  0  0  0  0
 17 21  1  0  0  0  0
  7 12  1  0  0  0  0
 24 29  1  0  0  0  0
M  END
$$$$

  -OEChem-05262214473D

 39 38  0     1  0  0  0  0  0999 V2000
   -3.5200   -4.0268   -1.6943 C   0  0  0  0  0  0  0  0  0  0  0  0
   -2.8702   -4.8827   -1.1054 O   0  0  0  0  0  0  0  0  0  0  0  0
   -4.9704   -4.2579   -1.9614 C   0  0  0  0  0  0  0  0  0  0  0  0
   -5.1456   -4.7573   -2.9278 H   0  0  0  0  0  0  0  0  0  0  0  0
   -5.4379   -4.9112   -1.2072 H   0  0  0  0  0  0  0  0  0  0  0  0
   -5.5954   -3.3510   -1.9864 H   0  0  0  0  0  0  0  0  0  0  0  0
   -3.0424   -2.8131   -2.1606 N   0  0  0  0  0  0  0  0  0  0  0  0
   -1.6755   -2.3891   -2.0077 C   0  0  2  0  0  0  0  0  0  0  0  0
   -1.5782   -1.5673   -0.7292 C   0  0  0  0  0  0  0  0  0  0  0  0
   -2.5448   -1.0064   -0.2171 O   0  0  0  0  0  0  0  0  0  0  0  0
   -1.2087   -1.5823   -3.2094 C   0  0  0  0  0  0  0  0  0  0  0  0
   -3.6915   -2.1888   -2.6360 H   0  0  0  0  0  0  0  0  0  0  0  0
   -1.0721   -3.2977   -1.9053 H   0  0  0  0  0  0  0  0  0  0  0  0
   -1.8017   -0.6681   -3.3281 H   0  0  0  0  0  0  0  0  0  0  0  0
   -0.1601   -1.2849   -3.1045 H   0  0  0  0  0  0  0  0  0  0  0  0
   -1.3074   -2.1646   -4.1319 H   0  0  0  0  0  0  0  0  0  0  0  0
   -0.2835   -1.5112   -0.2725 N   0  0  0  0  0  0  0  0  0  0  0  0
    0.0769   -0.7658    0.9424 C   0  0  0  0  0  0  0  0  0  0  0  0
   -1.0880   -0.7645    1.8992 C   0  0  0  0  0  0  0  0  0  0  0  0
   -1.9584    0.1019    1.9029 O   0  0  0  0  0  0  0  0  0  0  0  0
    0.4587   -2.0097   -0.7289 H   0  0  0  0  0  0  0  0  0  0  0  0
    0.3321    0.2629    0.6714 H   0  0  0  0  0  0  0  0  0  0  0  0
    0.9424   -1.2419    1.4125 H   0  0  0  0  0  0  0  0  0  0  0  0
   -1.0428   -1.8542    2.7623 N   0  0  0  0  0  0  0  0  0  0  0  0
   -2.0286   -2.1009    3.7815 C   0  0  2  0  0  0  0  0  0  0  0  0
   -2.6318   -3.4764    3.5292 C   0  0  0  0  0  0  0  0  0  0  0  0
   -2.6106   -4.0269    2.4302 O   0  0  0  0  0  0  0  0  0  0  0  0
   -3.1053   -1.0270    3.7815 C   0  0  0  0  0  0  0  0  0  0  0  0
   -0.2712   -2.5125    2.6681 H   0  0  0  0  0  0  0  0  0  0  0  0
   -1.4984   -2.1043    4.7401 H   0  0  0  0  0  0  0  0  0  0  0  0
   -3.6474   -1.0084    2.8289 H   0  0  0  0  0  0  0  0  0  0  0  0
   -3.8388   -1.2004    4.5758 H   0  0  0  0  0  0  0  0  0  0  0  0
   -2.6663   -0.0350    3.9334 H   0  0  0  0  0  0  0  0  0  0  0  0
   -3.2346   -3.9983    4.6651 N   0  0  0  0  0  0  0  0  0  0  0  0
   -3.8890   -5.2858    4.6789 C   0  0  0  0  0  0  0  0  0  0  0  0
   -3.1877   -3.4812    5.5381 H   0  0  0  0  0  0  0  0  0  0  0  0
   -4.9592   -5.1560    4.4601 H   0  0  0  0  0  0  0  0  0  0  0  0
   -3.4353   -5.9358    3.9163 H   0  0  0  0  0  0  0  0  0  0  0  0
   -3.7709   -5.7464    5.6708 H   0  0  0  0  0  0  0  0  0  0  0  0
  1  3  1  0  0  0  0
  1  7  1  0  0  0  0
  1  2  2  0  0  0  0
 18 19  1  0  0  0  0
 19 24  1  0  0  0  0
 19 20  2  0  0  0  0
 25 26  1  0  0  0  0
 26 34  1  0  0  0  0
 26 27  2  0  0  0  0
  8  9  1  0  0  0  0
  9 17  1  0  0  0  0
  9 10  2  0  0  0  0
 25 28  1  0  0  0  0
  8 11  1  0  0  0  0
 34 35  1  0  0  0  0
 17 18  1  0  0  0  0
 24 25  1  0  0  0  0
  7  8  1  0  0  0  0
  3  4  1  0  0  0  0
  3  5  1  0  0  0  0
  3  6  1  0  0  0  0
 28 31  1  0  0  0  0
 28 32  1  0  0  0  0
 28 33  1  0  0  0  0
 11 14  1  0  0  0  0
 11 15  1  0  0  0  0
 11 16  1  0  0  0  0
 35 37  1  0  0  0  0
 35 38  1  0  0  0  0
 35 39  1  0  0  0  0
 18 22  1  0  0  0  0
 18 23  1  0  0  0  0
 25 30  1  0  0  0  0
  8 13  1  0  0  0  0
 34 36  1  0  0  0  0
 17 21  1  0  0  0  0
  7 12  1  0  0  0  0
 24 29  1  0  0  0  0
M  END
$$$$

  -OEChem-05262214473D

 39 38  0     1  0  0  0  0  0999 V2000
   -3.5200   -4.0268   -1.6943 C   0  0  0  0  0  0  0  0  0  0  0  0
   -2.8702   -4.8827   -1.1054 O   0  0  0  0  0  0  0  0  0  0  0  0
   -4.9704   -4.2579   -1.9614 C   0  0  0  0  0  0  0  0  0  0  0  0
   -5.1456   -4.7573   -2.9278 H   0  0  0  0  0  0  0  0  0  0  0  0
   -5.4379   -4.9112   -1.2072 H   0  0  0  0  0  0  0  0  0  0  0  0
   -5.5954   -3.3510   -1.9864 H   0  0  0  0  0  0  0  0  0  0  0  0
   -3.0424   -2.8131   -2.1606 N   0  0  0  0  0  0  0  0  0  0  0  0
   -1.6755   -2.3891   -2.0077 C   0  0  2  0  0  0  0  0  0  0  0  0
   -1.5782   -1.5673   -0.7292 C   0  0  0  0  0  0  0  0  0  0  0  0
   -2.5448   -1.0064   -0.2171 O   0  0  0  0  0  0  0  0  0  0  0  0
   -1.2087   -1.5823   -3.2094 C   0  0  0  0  0  0  0  0  0  0  0  0
   -3.6915   -2.1888   -2.6360 H   0  0  0  0  0  0  0  0  0  0  0  0
   -1.0721   -3.2977   -1.9053 H   0  0  0  0  0  0  0  0  0  0  0  0
   -1.8017   -0.6681   -3.3281 H   0  0  0  0  0  0  0  0  0  0  0  0
   -0.1601   -1.2849   -3.1045 H   0  0  0  0  0  0  0  0  0  0  0  0
   -1.3074   -2.1646   -4.1319 H   0  0  0  0  0  0  0  0  0  0  0  0
   -0.2835   -1.5112   -0.2725 N   0  0  0  0  0  0  0  0  0  0  0  0
    0.0769   -0.7658    0.9424 C   0  0  0  0  0  0  0  0  0  0  0  0
   -1.0880   -0.7645    1.8992 C   0  0  0  0  0  0  0  0  0  0  0  0
   -2.0889   -0.0699    1.7443 O   0  0  0  0  0  0  0  0  0  0  0  0
    0.4587   -2.0097   -0.7289 H   0  0  0  0  0  0  0  0  0  0  0  0
    0.3321    0.2629    0.6714 H   0  0  0  0  0  0  0  0  0  0  0  0
    0.9424   -1.2419    1.4125 H   0  0  0  0  0  0  0  0  0  0  0  0
   -0.8786   -1.6370    2.9619 N   0  0  0  0  0  0  0  0  0  0  0  0
   -1.8272   -1.8334    4.0264 C   0  0  2  0  0  0  0  0  0  0  0  0
   -2.1919   -3.3116    4.0645 C   0  0  0  0  0  0  0  0  0  0  0  0
   -2.0624   -4.0596    3.0976 O   0  0  0  0  0  0  0  0  0  0  0  0
   -3.0655   -0.9729    3.8298 C   0  0  0  0  0  0  0  0  0  0  0  0
   -0.0079   -2.1650    2.9882 H   0  0  0  0  0  0  0  0  0  0  0  0
   -1.3195   -1.5578    4.9572 H   0  0  0  0  0  0  0  0  0  0  0  0
   -3.5875   -1.2345    2.9021 H   0  0  0  0  0  0  0  0  0  0  0  0
   -3.7735   -1.1020    4.6551 H   0  0  0  0  0  0  0  0  0  0  0  0
   -2.7980    0.0878    3.7728 H   0  0  0  0  0  0  0  0  0  0  0  0
   -2.7194   -3.6875    5.2919 N   0  0  0  0  0  0  0  0  0  0  0  0
   -3.1536   -5.0358    5.5739 C   0  0  0  0  0  0  0  0  0  0  0  0
   -2.7725   -3.0056    6.0429 H   0  0  0  0  0  0  0  0  0  0  0  0
   -4.2268   -5.1300    5.3518 H   0  0  0  0  0  0  0  0  0  0  0  0
   -2.5867   -5.7417    4.9491 H   0  0  0  0  0  0  0  0  0  0  0  0
   -2.9778   -5.2630    6.6357 H   0  0  0  0  0  0  0  0  0  0  0  0
  1  3  1  0  0  0  0
  1  7  1  0  0  0  0
  1  2  2  0  0  0  0
 18 19  1  0  0  0  0
 19 24  1  0  0  0  0
 19 20  2  0  0  0  0
 25 26  1  0  0  0  0
 26 34  1  0  0  0  0
 26 27  2  0  0  0  0
  8  9  1  0  0  0  0
  9 17  1  0  0  0  0
  9 10  2  0  0  0  0
 25 28  1  0  0  0  0
  8 11  1  0  0  0  0
 34 35  1  0  0  0  0
 17 18  1  0  0  0  0
 24 25  1  0  0  0  0
  7  8  1  0  0  0  0
  3  4  1  0  0  0  0
  3  5  1  0  0  0  0
  3  6  1  0  0  0  0
 28 31  1  0  0  0  0
 28 32  1  0  0  0  0
 28 33  1  0  0  0  0
 11 14  1  0  0  0  0
 11 15  1  0  0  0  0
 11 16  1  0  0  0  0
 35 37  1  0  0  0  0
 35 38  1  0  0  0  0
 35 39  1  0  0  0  0
 18 22  1  0  0  0  0
 18 23  1  0  0  0  0
 25 30  1  0  0  0  0
  8 13  1  0  0  0  0
 34 36  1  0  0  0  0
 17 21  1  0  0  0  0
  7 12  1  0  0  0  0
 24 29  1  0  0  0  0
M  END
$$$$

  -OEChem-05262214473D

 39 38  0     1  0  0  0  0  0999 V2000
   -3.5200   -4.0268   -1.6943 C   0  0  0  0  0  0  0  0  0  0  0  0
   -2.8702   -4.8827   -1.1054 O   0  0  0  0  0  0  0  0  0  0  0  0
   -4.9704   -4.2579   -1.9614 C   0  0  0  0  0  0  0  0  0  0  0  0
   -5.1456   -4.7573   -2.9278 H   0  0  0  0  0  0  0  0  0  0  0  0
   -5.4379   -4.9112   -1.2072 H   0  0  0  0  0  0  0  0  0  0  0  0
   -5.5954   -3.3510   -1.9864 H   0  0  0  0  0  0  0  0  0  0  0  0
   -3.0424   -2.8131   -2.1606 N   0  0  0  0  0  0  0  0  0  0  0  0
   -1.6755   -2.3891   -2.0077 C   0  0  2  0  0  0  0  0  0  0  0  0
   -1.5782   -1.5673   -0.7292 C   0  0  0  0  0  0  0  0  0  0  0  0
   -2.5448   -1.0064   -0.2171 O   0  0  0  0  0  0  0  0  0  0  0  0
   -1.2087   -1.5823   -3.2094 C   0  0  0  0  0  0  0  0  0  0  0  0
   -3.6915   -2.1888   -2.6360 H   0  0  0  0  0  0  0  0  0  0  0  0
   -1.0721   -3.2977   -1.9053 H   0  0  0  0  0  0  0  0  0  0  0  0
   -1.8017   -0.6681   -3.3281 H   0  0  0  0  0  0  0  0  0  0  0  0
   -0.1601   -1.2849   -3.1045 H   0  0  0  0  0  0  0  0  0  0  0  0
   -1.3074   -2.1646   -4.1319 H   0  0  0  0  0  0  0  0  0  0  0  0
   -0.2835   -1.5112   -0.2725 N   0  0  0  0  0  0  0  0  0  0  0  0
    0.0769   -0.7658    0.9424 C   0  0  0  0  0  0  0  0  0  0  0  0
   -1.0880   -0.7645    1.8992 C   0  0  0  0  0  0  0  0  0  0  0  0
   -2.1867   -0.2889    1.6255 O   0  0  0  0  0  0  0  0  0  0  0  0
    0.4587   -2.0097   -0.7289 H   0  0  0  0  0  0  0  0  0  0  0  0
    0.3321    0.2629    0.6714 H   0  0  0  0  0  0  0  0  0  0  0  0
    0.9424   -1.2419    1.4125 H   0  0  0  0  0  0  0  0  0  0  0  0
   -0.7557   -1.3603    3.1112 N   0  0  0  0  0  0  0  0  0  0  0  0
   -1.6765   -1.4929    4.2094 C   0  0  2  0  0  0  0  0  0  0  0  0
   -1.7940   -2.9730    4.5485 C   0  0  0  0  0  0  0  0  0  0  0  0
   -1.5274   -3.8677    3.7487 O   0  0  0  0  0  0  0  0  0  0  0  0
   -3.0360   -0.9044    3.8657 C   0  0  0  0  0  0  0  0  0  0  0  0
    0.1894   -1.7220    3.2278 H   0  0  0  0  0  0  0  0  0  0  0  0
   -1.2365   -0.9571    5.0575 H   0  0  0  0  0  0  0  0  0  0  0  0
   -3.4925   -1.4285    3.0180 H   0  0  0  0  0  0  0  0  0  0  0  0
   -3.7267   -0.9804    4.7120 H   0  0  0  0  0  0  0  0  0  0  0  0
   -2.9455    0.1526    3.5932 H   0  0  0  0  0  0  0  0  0  0  0  0
   -2.2728   -3.1772    5.8350 N   0  0  0  0  0  0  0  0  0  0  0  0
   -2.4841   -4.4945    6.3883 C   0  0  0  0  0  0  0  0  0  0  0  0
   -2.4496   -2.3771    6.4353 H   0  0  0  0  0  0  0  0  0  0  0  0
   -3.5235   -4.8062    6.2077 H   0  0  0  0  0  0  0  0  0  0  0  0
   -1.7987   -5.2082    5.9078 H   0  0  0  0  0  0  0  0  0  0  0  0
   -2.2909   -4.4727    7.4710 H   0  0  0  0  0  0  0  0  0  0  0  0
  1  3  1  0  0  0  0
  1  7  1  0  0  0  0
  1  2  2  0  0  0  0
 18 19  1  0  0  0  0
 19 24  1  0  0  0  0
 19 20  2  0  0  0  0
 25 26  1  0  0  0  0
 26 34  1  0  0  0  0
 26 27  2  0  0  0  0
  8  9  1  0  0  0  0
  9 17  1  0  0  0  0
  9 10  2  0  0  0  0
 25 28  1  0  0  0  0
  8 11  1  0  0  0  0
 34 35  1  0  0  0  0
 17 18  1  0  0  0  0
 24 25  1  0  0  0  0
  7  8  1  0  0  0  0
  3  4  1  0  0  0  0
  3  5  1  0  0  0  0
  3  6  1  0  0  0  0
 28 31  1  0  0  0  0
 28 32  1  0  0  0  0
 28 33  1  0  0  0  0
 11 14  1  0  0  0  0
 11 15  1  0  0  0  0
 11 16  1  0  0  0  0
 35 37  1  0  0  0  0
 35 38  1  0  0  0  0
 35 39  1  0  0  0  0
 18 22  1  0  0  0  0
 18 23  1  0  0  0  0
 25 30  1  0  0  0  0
  8 13  1  0  0  0  0
 34 36  1  0  0  0  0
 17 21  1  0  0  0  0
  7 12  1  0  0  0  0
 24 29  1  0  0  0  0
M  END
$$$$

  -OEChem-05262214473D

 39 38  0     1  0  0  0  0  0999 V2000
   -3.5200   -4.0268   -1.6943 C   0  0  0  0  0  0  0  0  0  0  0  0
   -2.8702   -4.8827   -1.1054 O   0  0  0  0  0  0  0  0  0  0  0  0
   -4.9704   -4.2579   -1.9614 C   0  0  0  0  0  0  0  0  0  0  0  0
   -5.1456   -4.7573   -2.9278 H   0  0  0  0  0  0  0  0  0  0  0  0
   -5.4379   -4.9112   -1.2072 H   0  0  0  0  0  0  0  0  0  0  0  0
   -5.5954   -3.3510   -1.9864 H   0  0  0  0  0  0  0  0  0  0  0  0
   -3.0424   -2.8131   -2.1606 N   0  0  0  0  0  0  0  0  0  0  0  0
   -1.6755   -2.3891   -2.0077 C   0  0  2  0  0  0  0  0  0  0  0  0
   -1.5782   -1.5673   -0.7292 C   0  0  0  0  0  0  0  0  0  0  0  0
   -2.5448   -1.0064   -0.2171 O   0  0  0  0  0  0  0  0  0  0  0  0
   -1.2087   -1.5823   -3.2094 C   0  0  0  0  0  0  0  0  0  0  0  0
   -3.6915   -2.1888   -2.6360 H   0  0  0  0  0  0  0  0  0  0  0  0
   -1.0721   -3.2977   -1.9053 H   0  0  0  0  0  0  0  0  0  0  0  0
   -1.8017   -0.6681   -3.3281 H   0  0  0  0  0  0  0  0  0  0  0  0
   -0.1601   -1.2849   -3.1045 H   0  0  0  0  0  0  0  0  0  0  0  0
   -1.3074   -2.1646   -4.1319 H   0  0  0  0  0  0  0  0  0  0  0  0
   -0.2835   -1.5112   -0.2725 N   0  0  0  0  0  0  0  0  0  0  0  0
    0.0769   -0.7658    0.9424 C   0  0  0  0  0  0  0  0  0  0  0  0
   -1.0880   -0.7645    1.8992 C   0  0  0  0  0  0  0  0  0  0  0  0
   -2.2453   -0.5403    1.5546 O   0  0  0  0  0  0  0  0  0  0  0  0
    0.4587   -2.0097   -0.7289 H   0  0  0  0  0  0  0  0  0  0  0  0
    0.3321    0.2629    0.6714 H   0  0  0  0  0  0  0  0  0  0  0  0
    0.9424   -1.2419    1.4125 H   0  0  0  0  0  0  0  0  0  0  0  0
   -0.6824   -1.0430    3.2001 N   0  0  0  0  0  0  0  0  0  0  0  0
   -1.5868   -1.1027    4.3180 C   0  0  2  0  0  0  0  0  0  0  0  0
   -1.4652   -2.4838    4.9482 C   0  0  0  0  0  0  0  0  0  0  0  0
   -1.0421   -3.4642    4.3391 O   0  0  0  0  0  0  0  0  0  0  0  0
   -3.0187   -0.8263    3.8866 C   0  0  0  0  0  0  0  0  0  0  0  0
    0.3073   -1.2138    3.3707 H   0  0  0  0  0  0  0  0  0  0  0  0
   -1.2549   -0.3432    5.0343 H   0  0  0  0  0  0  0  0  0  0  0  0
   -3.3688   -1.5770    3.1688 H   0  0  0  0  0  0  0  0  0  0  0  0
   -3.7014   -0.8438    4.7426 H   0  0  0  0  0  0  0  0  0  0  0  0
   -3.0986    0.1551    3.4068 H   0  0  0  0  0  0  0  0  0  0  0  0
   -1.9250   -2.5024    6.2575 N   0  0  0  0  0  0  0  0  0  0  0  0
   -1.9262   -3.6988    7.0666 C   0  0  0  0  0  0  0  0  0  0  0  0
   -2.2408   -1.6385    6.6885 H   0  0  0  0  0  0  0  0  0  0  0  0
   -2.8971   -4.2067    6.9696 H   0  0  0  0  0  0  0  0  0  0  0  0
   -1.1250   -4.3717    6.7270 H   0  0  0  0  0  0  0  0  0  0  0  0
   -1.7570   -3.4294    8.1196 H   0  0  0  0  0  0  0  0  0  0  0  0
  1  3  1  0  0  0  0
  1  7  1  0  0  0  0
  1  2  2  0  0  0  0
 18 19  1  0  0  0  0
 19 24  1  0  0  0  0
 19 20  2  0  0  0  0
 25 26  1  0  0  0  0
 26 34  1  0  0  0  0
 26 27  2  0  0  0  0
  8  9  1  0  0  0  0
  9 17  1  0  0  0  0
  9 10  2  0  0  0  0
 25 28  1  0  0  0  0
  8 11  1  0  0  0  0
 34 35  1  0  0  0  0
 17 18  1  0  0  0  0
 24 25  1  0  0  0  0
  7  8  1  0  0  0  0
  3  4  1  0  0  0  0
  3  5  1  0  0  0  0
  3  6  1  0  0  0  0
 28 31  1  0  0  0  0
 28 32  1  0  0  0  0
 28 33  1  0  0  0  0
 11 14  1  0  0  0  0
 11 15  1  0  0  0  0
 11 16  1  0  0  0  0
 35 37  1  0  0  0  0
 35 38  1  0  0  0  0
 35 39  1  0  0  0  0
 18 22  1  0  0  0  0
 18 23  1  0  0  0  0
 25 30  1  0  0  0  0
  8 13  1  0  0  0  0
 34 36  1  0  0  0  0
 17 21  1  0  0  0  0
  7 12  1  0  0  0  0
 24 29  1  0  0  0  0
M  END
$$$$

  -OEChem-05262214473D

 39 38  0     1  0  0  0  0  0999 V2000
   -3.5200   -4.0268   -1.6943 C   0  0  0  0  0  0  0  0  0  0  0  0
   -2.8702   -4.8827   -1.1054 O   0  0  0  0  0  0  0  0  0  0  0  0
   -4.9704   -4.2579   -1.9614 C   0  0  0  0  0  0  0  0  0  0  0  0
   -5.1456   -4.7573   -2.9278 H   0  0  0  0  0  0  0  0  0  0  0  0
   -5.4379   -4.9112   -1.2072 H   0  0  0  0  0  0  0  0  0  0  0  0
   -5.5954   -3.3510   -1.9864 H   0  0  0  0  0  0  0  0  0  0  0  0
   -3.0424   -2.8131   -2.1606 N   0  0  0  0  0  0  0  0  0  0  0  0
   -1.6755   -2.3891   -2.0077 C   0  0  2  0  0  0  0  0  0  0  0  0
   -1.5782   -1.5673   -0.7292 C   0  0  0  0  0  0  0  0  0  0  0  0
   -2.5448   -1.0064   -0.2171 O   0  0  0  0  0  0  0  0  0  0  0  0
   -1.2087   -1.5823   -3.2094 C   0  0  0  0  0  0  0  0  0  0  0  0
   -3.6915   -2.1888   -2.6360 H   0  0  0  0  0  0  0  0  0  0  0  0
   -1.0721   -3.2977   -1.9053 H   0  0  0  0  0  0  0  0  0  0  0  0
   -1.8017   -0.6681   -3.3281 H   0  0  0  0  0  0  0  0  0  0  0  0
   -0.1601   -1.2849   -3.1045 H   0  0  0  0  0  0  0  0  0  0  0  0
   -1.3074   -2.1646   -4.1319 H   0  0  0  0  0  0  0  0  0  0  0  0
   -0.2835   -1.5112   -0.2725 N   0  0  0  0  0  0  0  0  0  0  0  0
    0.0769   -0.7658    0.9424 C   0  0  0  0  0  0  0  0  0  0  0  0
   -1.0880   -0.7645    1.8992 C   0  0  0  0  0  0  0  0  0  0  0  0
   -2.2605   -0.8070    1.5363 O   0  0  0  0  0  0  0  0  0  0  0  0
    0.4587   -2.0097   -0.7289 H   0  0  0  0  0  0  0  0  0  0  0  0
    0.3321    0.2629    0.6714 H   0  0  0  0  0  0  0  0  0  0  0  0
    0.9424   -1.2419    1.4125 H   0  0  0  0  0  0  0  0  0  0  0  0
   -0.6636   -0.7067    3.2224 N   0  0  0  0  0  0  0  0  0  0  0  0
   -1.5643   -0.6893    4.3449 C   0  0  2  0  0  0  0  0  0  0  0  0
   -1.2278   -1.8773    5.2364 C   0  0  0  0  0  0  0  0  0  0  0  0
   -0.6394   -2.8766    4.8286 O   0  0  0  0  0  0  0  0  0  0  0  0
   -3.0148   -0.7438    3.8912 C   0  0  0  0  0  0  0  0  0  0  0  0
    0.3377   -0.6750    3.4070 H   0  0  0  0  0  0  0  0  0  0  0  0
   -1.3735    0.2421    4.8891 H   0  0  0  0  0  0  0  0  0  0  0  0
   -3.2250   -1.6700    3.3440 H   0  0  0  0  0  0  0  0  0  0  0  0
   -3.6994   -0.7017    4.7448 H   0  0  0  0  0  0  0  0  0  0  0  0
   -3.2470    0.0951    3.2262 H   0  0  0  0  0  0  0  0  0  0  0  0
   -1.6999   -1.7089    6.5306 N   0  0  0  0  0  0  0  0  0  0  0  0
   -1.5178   -2.7029    7.5624 C   0  0  0  0  0  0  0  0  0  0  0  0
   -2.1603   -0.8401    6.7854 H   0  0  0  0  0  0  0  0  0  0  0  0
   -2.3903   -3.3724    7.5854 H   0  0  0  0  0  0  0  0  0  0  0  0
   -0.6115   -3.2892    7.3507 H   0  0  0  0  0  0  0  0  0  0  0  0
   -1.4126   -2.2043    8.5373 H   0  0  0  0  0  0  0  0  0  0  0  0
  1  3  1  0  0  0  0
  1  7  1  0  0  0  0
  1  2  2  0  0  0  0
 18 19  1  0  0  0  0
 19 24  1  0  0  0  0
 19 20  2  0  0  0  0
 25 26  1  0  0  0  0
 26 34  1  0  0  0  0
 26 27  2  0  0  0  0
  8  9  1  0  0  0  0
  9 17  1  0  0  0  0
  9 10  2  0  0  0  0
 25 28  1  0  0  0  0
  8 11  1  0  0  0  0
 34 35  1  0  0  0  0
 17 18  1  0  0  0  0
 24 25  1  0  0  0  0
  7  8  1  0  0  0  0
  3  4  1  0  0  0  0
  3  5  1  0  0  0  0
  3  6  1  0  0  0  0
 28 31  1  0  0  0  0
 28 32  1  0  0  0  0
 28 33  1  0  0  0  0
 11 14  1  0  0  0  0
 11 15  1  0  0  0  0
 11 16  1  0  0  0  0
 35 37  1  0  0  0  0
 35 38  1  0  0  0  0
 35 39  1  0  0  0  0
 18 22  1  0  0  0  0
 18 23  1  0  0  0  0
 25 30  1  0  0  0  0
  8 13  1  0  0  0  0
 34 36  1  0  0  0  0
 17 21  1  0  0  0  0
  7 12  1  0  0  0  0
 24 29  1  0  0  0  0
M  END
$$$$

  -OEChem-05262214473D

 39 38  0     1  0  0  0  0  0999 V2000
   -3.5200   -4.0268   -1.6943 C   0  0  0  0  0  0  0  0  0  0  0  0
   -2.8702   -4.8827   -1.1054 O   0  0  0  0  0  0  0  0  0  0  0  0
   -4.9704   -4.2579   -1.9614 C   0  0  0  0  0  0  0  0  0  0  0  0
   -5.1456   -4.7573   -2.9278 H   0  0  0  0  0  0  0  0  0  0  0  0
   -5.4379   -4.9112   -1.2072 H   0  0  0  0  0  0  0  0  0  0  0  0
   -5.5954   -3.3510   -1.9864 H   0  0  0  0  0  0  0  0  0  0  0  0
   -3.0424   -2.8131   -2.1606 N   0  0  0  0  0  0  0  0  0  0  0  0
   -1.6755   -2.3891   -2.0077 C   0  0  2  0  0  0  0  0  0  0  0  0
   -1.5782   -1.5673   -0.7292 C   0  0  0  0  0  0  0  0  0  0  0  0
   -2.5448   -1.0064   -0.2171 O   0  0  0  0  0  0  0  0  0  0  0  0
   -1.2087   -1.5823   -3.2094 C   0  0  0  0  0  0  0  0  0  0  0  0
   -3.6915   -2.1888   -2.6360 H   0  0  0  0  0  0  0  0  0  0  0  0
   -1.0721   -3.2977   -1.9053 H   0  0  0  0  0  0  0  0  0  0  0  0
   -1.8017   -0.6681   -3.3281 H   0  0  0  0  0  0  0  0  0  0  0  0
   -0.1601   -1.2849   -3.1045 H   0  0  0  0  0  0  0  0  0  0  0  0
   -1.3074   -2.1646   -4.1319 H   0  0  0  0  0  0  0  0  0  0  0  0
   -0.2835   -1.5112   -0.2725 N   0  0  0  0  0  0  0  0  0  0  0  0
    0.0769   -0.7658    0.9424 C   0  0  0  0  0  0  0  0  0  0  0  0
   -1.0880   -0.7645    1.8992 C   0  0  0  0  0  0  0  0  0  0  0  0
   -2.2315   -1.0707    1.5721 O   0  0  0  0  0  0  0  0  0  0  0  0
    0.4587   -2.0097   -0.7289 H   0  0  0  0  0  0  0  0  0  0  0  0
    0.3321    0.2629    0.6714 H   0  0  0  0  0  0  0  0  0  0  0  0
    0.9424   -1.2419    1.4125 H   0  0  0  0  0  0  0  0  0  0  0  0
   -0.7008   -0.3743    3.1768 N   0  0  0  0  0  0  0  0  0  0  0  0
   -1.6105   -0.2809    4.2881 C   0  0  2  0  0  0  0  0  0  0  0  0
   -1.0981   -1.1949    5.3934 C   0  0  0  0  0  0  0  0  0  0  0  0
   -0.3469   -2.1450    5.1837 O   0  0  0  0  0  0  0  0  0  0  0  0
   -3.0246   -0.6625    3.8792 C   0  0  0  0  0  0  0  0  0  0  0  0
    0.2785   -0.1423    3.3343 H   0  0  0  0  0  0  0  0  0  0  0  0
   -1.5843    0.7589    4.6318 H   0  0  0  0  0  0  0  0  0  0  0  0
   -3.0707   -1.7012    3.5319 H   0  0  0  0  0  0  0  0  0  0  0  0
   -3.7208   -0.5635    4.7186 H   0  0  0  0  0  0  0  0  0  0  0  0
   -3.3805   -0.0234    3.0639 H   0  0  0  0  0  0  0  0  0  0  0  0
   -1.6127   -0.8509    6.6356 N   0  0  0  0  0  0  0  0  0  0  0  0
   -1.2869   -1.5747    7.8421 C   0  0  0  0  0  0  0  0  0  0  0  0
   -2.2138   -0.0363    6.7192 H   0  0  0  0  0  0  0  0  0  0  0  0
   -2.0378   -2.3601    8.0133 H   0  0  0  0  0  0  0  0  0  0  0  0
   -0.2931   -2.0345    7.7367 H   0  0  0  0  0  0  0  0  0  0  0  0
   -1.2811   -0.8808    8.6956 H   0  0  0  0  0  0  0  0  0  0  0  0
  1  3  1  0  0  0  0
  1  7  1  0  0  0  0
  1  2  2  0  0  0  0
 18 19  1  0  0  0  0
 19 24  1  0  0  0  0
 19 20  2  0  0  0  0
 25 26  1  0  0  0  0
 26 34  1  0  0  0  0
 26 27  2  0  0  0  0
  8  9  1  0  0  0  0
  9 17  1  0  0  0  0
  9 10  2  0  0  0  0
 25 28  1  0  0  0  0
  8 11  1  0  0  0  0
 34 35  1  0  0  0  0
 17 18  1  0  0  0  0
 24 25  1  0  0  0  0
  7  8  1  0  0  0  0
  3  4  1  0  0  0  0
  3  5  1  0  0  0  0
  3  6  1  0  0  0  0
 28 31  1  0  0  0  0
 28 32  1  0  0  0  0
 28 33  1  0  0  0  0
 11 14  1  0  0  0  0
 11 15  1  0  0  0  0
 11 16  1  0  0  0  0
 35 37  1  0  0  0  0
 35 38  1  0  0  0  0
 35 39  1  0  0  0  0
 18 22  1  0  0  0  0
 18 23  1  0  0  0  0
 25 30  1  0  0  0  0
  8 13  1  0  0  0  0
 34 36  1  0  0  0  0
 17 21  1  0  0  0  0
  7 12  1  0  0  0  0
 24 29  1  0  0  0  0
M  END
$$$$

  -OEChem-05262214473D

 39 38  0     1  0  0  0  0  0999 V2000
   -3.5200   -4.0268   -1.6943 C   0  0  0  0  0  0  0  0  0  0  0  0
   -2.8702   -4.8827   -1.1054 O   0  0  0  0  0  0  0  0  0  0  0  0
   -4.9704   -4.2579   -1.9614 C   0  0  0  0  0  0  0  0  0  0  0  0
   -5.1456   -4.7573   -2.9278 H   0  0  0  0  0  0  0  0  0  0  0  0
   -5.4379   -4.9112   -1.2072 H   0  0  0  0  0  0  0  0  0  0  0  0
   -5.5954   -3.3510   -1.9864 H   0  0  0  0  0  0  0  0  0  0  0  0
   -3.0424   -2.8131   -2.1606 N   0  0  0  0  0  0  0  0  0  0  0  0
   -1.6755   -2.3891   -2.0077 C   0  0  2  0  0  0  0  0  0  0  0  0
   -1.5782   -1.5673   -0.7292 C   0  0  0  0  0  0  0  0  0  0  0  0
   -2.5448   -1.0064   -0.2171 O   0  0  0  0  0  0  0  0  0  0  0  0
   -1.2087   -1.5823   -3.2094 C   0  0  0  0  0  0  0  0  0  0  0  0
   -3.6915   -2.1888   -2.6360 H   0  0  0  0  0  0  0  0  0  0  0  0
   -1.0721   -3.2977   -1.9053 H   0  0  0  0  0  0  0  0  0  0  0  0
   -1.8017   -0.6681   -3.3281 H   0  0  0  0  0  0  0  0  0  0  0  0
   -0.1601   -1.2849   -3.1045 H   0  0  0  0  0  0  0  0  0  0  0  0
   -1.3074   -2.1646   -4.1319 H   0  0  0  0  0  0  0  0  0  0  0  0
   -0.2835   -1.5112   -0.2725 N   0  0  0  0  0  0  0  0  0  0  0  0
    0.0769   -0.7658    0.9424 C   0  0  0  0  0  0  0  0  0  0  0  0
   -0.9188   -1.0656    2.0338 C   0  0  0  0  0  0  0  0  0  0  0  0
   -1.8746   -1.8228    1.8871 O   0  0  0  0  0  0  0  0  0  0  0  0
    0.4587   -2.0097   -0.7289 H   0  0  0  0  0  0  0  0  0  0  0  0
    0.0709    0.3059    0.7225 H   0  0  0  0  0  0  0  0  0  0  0  0
    1.0794   -1.0642    1.2628 H   0  0  0  0  0  0  0  0  0  0  0  0
   -0.6163   -0.3799    3.2054 N   0  0  0  0  0  0  0  0  0  0  0  0
   -1.4016   -0.4773    4.4075 C   0  0  2  0  0  0  0  0  0  0  0  0
   -0.4901   -0.9631    5.5267 C   0  0  0  0  0  0  0  0  0  0  0  0
    0.5530   -1.5805    5.3220 O   0  0  0  0  0  0  0  0  0  0  0  0
   -2.5829   -1.4170    4.2221 C   0  0  0  0  0  0  0  0  0  0  0  0
    0.2046    0.2233    3.2130 H   0  0  0  0  0  0  0  0  0  0  0  0
   -1.7556    0.5337    4.6369 H   0  0  0  0  0  0  0  0  0  0  0  0
   -2.2478   -2.4349    3.9916 H   0  0  0  0  0  0  0  0  0  0  0  0
   -3.1954   -1.4680    5.1283 H   0  0  0  0  0  0  0  0  0  0  0  0
   -3.2213   -1.0825    3.3973 H   0  0  0  0  0  0  0  0  0  0  0  0
   -1.0002   -0.6638    6.7822 N   0  0  0  0  0  0  0  0  0  0  0  0
   -0.3259   -1.0312    8.0055 C   0  0  0  0  0  0  0  0  0  0  0  0
   -1.8624   -0.1322    6.8575 H   0  0  0  0  0  0  0  0  0  0  0  0
   -0.6963   -2.0080    8.3498 H   0  0  0  0  0  0  0  0  0  0  0  0
    0.7570   -1.0935    7.8227 H   0  0  0  0  0  0  0  0  0  0  0  0
   -0.5246   -0.2716    8.7759 H   0  0  0  0  0  0  0  0  0  0  0  0
  1  3  1  0  0  0  0
  1  7  1  0  0  0  0
  1  2  2  0  0  0  0
 18 19  1  0  0  0  0
 19 24  1  0  0  0  0
 19 20  2  0  0  0  0
 25 26  1  0  0  0  0
 26 34  1  0  0  0  0
 26 27  2  0  0  0  0
  8  9  1  0  0  0  0
  9 17  1  0  0  0  0
  9 10  2  0  0  0  0
 25 28  1  0  0  0  0
  8 11  1  0  0  0  0
 34 35  1  0  0  0  0
 17 18  1  0  0  0  0
 24 25  1  0  0  0  0
  7  8  1  0  0  0  0
  3  4  1  0  0  0  0
  3  5  1  0  0  0  0
  3  6  1  0  0  0  0
 28 31  1  0  0  0  0
 28 32  1  0  0  0  0
 28 33  1  0  0  0  0
 11 14  1  0  0  0  0
 11 15  1  0  0  0  0
 11 16  1  0  0  0  0
 35 37  1  0  0  0  0
 35 38  1  0  0  0  0
 35 39  1  0  0  0  0
 18 22  1  0  0  0  0
 18 23  1  0  0  0  0
 25 30  1  0  0  0  0
  8 13  1  0  0  0  0
 34 36  1  0  0  0  0
 17 21  1  0  0  0  0
  7 12  1  0  0  0  0
 24 29  1  0  0  0  0
M  END
$$$$

  -OEChem-05262214473D

 39 38  0     1  0  0  0  0  0999 V2000
   -3.5200   -4.0268   -1.6943 C   0  0  0  0  0  0  0  0  0  0  0  0
   -2.8702   -4.8827   -1.1054 O   0  0  0  0  0  0  0  0  0  0  0  0
   -4.9704   -4.2579   -1.9614 C   0  0  0  0  0  0  0  0  0  0  0  0
   -5.1456   -4.7573   -2.9278 H   0  0  0  0  0  0  0  0  0  0  0  0
   -5.4379   -4.9112   -1.2072 H   0  0  0  0  0  0  0  0  0  0  0  0
   -5.5954   -3.3510   -1.9864 H   0  0  0  0  0  0  0  0  0  0  0  0
   -3.0424   -2.8131   -2.1606 N   0  0  0  0  0  0  0  0  0  0  0  0
   -1.6755   -2.3891   -2.0077 C   0  0  2  0  0  0  0  0  0  0  0  0
   -1.5782   -1.5673   -0.7292 C   0  0  0  0  0  0  0  0  0  0  0  0
   -2.5448   -1.0064   -0.2171 O   0  0  0  0  0  0  0  0  0  0  0  0
   -1.2087   -1.5823   -3.2094 C   0  0  0  0  0  0  0  0  0  0  0  0
   -3.6915   -2.1888   -2.6360 H   0  0  0  0  0  0  0  0  0  0  0  0
   -1.0721   -3.2977   -1.9053 H   0  0  0  0  0  0  0  0  0  0  0  0
   -1.8017   -0.6681   -3.3281 H   0  0  0  0  0  0  0  0  0  0  0  0
   -0.1601   -1.2849   -3.1045 H   0  0  0  0  0  0  0  0  0  0  0  0
   -1.3074   -2.1646   -4.1319 H   0  0  0  0  0  0  0  0  0  0  0  0
   -0.2835   -1.5112   -0.2725 N   0  0  0  0  0  0  0  0  0  0  0  0
    0.0769   -0.7658    0.9424 C   0  0  0  0  0  0  0  0  0  0  0  0
   -0.9188   -1.0656    2.0338 C   0  0  0  0  0  0  0  0  0  0  0  0
   -1.7078   -2.0058    1.9890 O   0  0  0  0  0  0  0  0  0  0  0  0
    0.4587   -2.0097   -0.7289 H   0  0  0  0  0  0  0  0  0  0  0  0
    0.0709    0.3059    0.7225 H   0  0  0  0  0  0  0  0  0  0  0  0
    1.0794   -1.0642    1.2628 H   0  0  0  0  0  0  0  0  0  0  0  0
   -0.8269   -0.1498    3.0764 N   0  0  0  0  0  0  0  0  0  0  0  0
   -1.6609   -0.1951    4.2486 C   0  0  2  0  0  0  0  0  0  0  0  0
   -0.7538   -0.3042    5.4671 C   0  0  0  0  0  0  0  0  0  0  0  0
    0.3960   -0.7353    5.4110 O   0  0  0  0  0  0  0  0  0  0  0  0
   -2.6350   -1.3615    4.1898 C   0  0  0  0  0  0  0  0  0  0  0  0
   -0.1327    0.5924    3.0068 H   0  0  0  0  0  0  0  0  0  0  0  0
   -2.2085    0.7530    4.2839 H   0  0  0  0  0  0  0  0  0  0  0  0
   -2.1046   -2.3200    4.1539 H   0  0  0  0  0  0  0  0  0  0  0  0
   -3.2878   -1.3778    5.0688 H   0  0  0  0  0  0  0  0  0  0  0  0
   -3.2664   -1.2973    3.2971 H   0  0  0  0  0  0  0  0  0  0  0  0
   -1.3940    0.0959    6.6317 N   0  0  0  0  0  0  0  0  0  0  0  0
   -0.7484    0.0730    7.9235 C   0  0  0  0  0  0  0  0  0  0  0  0
   -2.3420    0.4572    6.5820 H   0  0  0  0  0  0  0  0  0  0  0  0
   -0.9564   -0.8858    8.4210 H   0  0  0  0  0  0  0  0  0  0  0  0
    0.3375    0.1901    7.7927 H   0  0  0  0  0  0  0  0  0  0  0  0
   -1.1344    0.8976    8.5408 H   0  0  0  0  0  0  0  0  0  0  0  0
  1  3  1  0  0  0  0
  1  7  1  0  0  0  0
  1  2  2  0  0  0  0
 18 19  1  0  0  0  0
 19 24  1  0  0  0  0
 19 20  2  0  0  0  0
 25 26  1  0  0  0  0
 26 34  1  0  0  0  0
 26 27  2  0  0  0  0
  8  9  1  0  0  0  0
  9 17  1  0  0  0  0
  9 10  2  0  0  0  0
 25 28  1  0  0  0  0
  8 11  1  0  0  0  0
 34 35  1  0  0  0  0
 17 18  1  0  0  0  0
 24 25  1  0  0  0  0
  7  8  1  0  0  0  0
  3  4  1  0  0  0  0
  3  5  1  0  0  0  0
  3  6  1  0  0  0  0
 28 31  1  0  0  0  0
 28 32  1  0  0  0  0
 28 33  1  0  0  0  0
 11 14  1  0  0  0  0
 11 15  1  0  0  0  0
 11 16  1  0  0  0  0
 35 37  1  0  0  0  0
 35 38  1  0  0  0  0
 35 39  1  0  0  0  0
 18 22  1  0  0  0  0
 18 23  1  0  0  0  0
 25 30  1  0  0  0  0
  8 13  1  0  0  0  0
 34 36  1  0  0  0  0
 17 21  1  0  0  0  0
  7 12  1  0  0  0  0
 24 29  1  0  0  0  0
M  END
$$$$

  -OEChem-05262214473D

 39 38  0     1  0  0  0  0  0999 V2000
   -3.5200   -4.0268   -1.6943 C   0  0  0  0  0  0  0  0  0  0  0  0
   -2.8702   -4.8827   -1.1054 O   0  0  0  0  0  0  0  0  0  0  0  0
   -4.9704   -4.2579   -1.9614 C   0  0  0  0  0  0  0  0  0  0  0  0
   -5.1456   -4.7573   -2.9278 H   0  0  0  0  0  0  0  0  0  0  0  0
   -5.4379   -4.9112   -1.2072 H   0  0  0  0  0  0  0  0  0  0  0  0
   -5.5954   -3.3510   -1.9864 H   0  0  0  0  0  0  0  0  0  0  0  0
   -3.0424   -2.8131   -2.1606 N   0  0  0  0  0  0  0  0  0  0  0  0
   -1.6755   -2.3891   -2.0077 C   0  0  2  0  0  0  0  0  0  0  0  0
   -1.5782   -1.5673   -0.7292 C   0  0  0  0  0  0  0  0  0  0  0  0
   -2.5448   -1.0064   -0.2171 O   0  0  0  0  0  0  0  0  0  0  0  0
   -1.2087   -1.5823   -3.2094 C   0  0  0  0  0  0  0  0  0  0  0  0
   -3.6915   -2.1888   -2.6360 H   0  0  0  0  0  0  0  0  0  0  0  0
   -1.0721   -3.2977   -1.9053 H   0  0  0  0  0  0  0  0  0  0  0  0
   -1.8017   -0.6681   -3.3281 H   0  0  0  0  0  0  0  0  0  0  0  0
   -0.1601   -1.2849   -3.1045 H   0  0  0  0  0  0  0  0  0  0  0  0
   -1.3074   -2.1646   -4.1319 H   0  0  0  0  0  0  0  0  0  0  0  0
   -0.2835   -1.5112   -0.2725 N   0  0  0  0  0  0  0  0  0  0  0  0
    0.0769   -0.7658    0.9424 C   0  0  0  0  0  0  0  0  0  0  0  0
   -0.9188   -1.0656    2.0338 C   0  0  0  0  0  0  0  0  0  0  0  0
   -1.5176   -2.1338    2.1273 O   0  0  0  0  0  0  0  0  0  0  0  0
    0.4587   -2.0097   -0.7289 H   0  0  0  0  0  0  0  0  0  0  0  0
    0.0709    0.3059    0.7225 H   0  0  0  0  0  0  0  0  0  0  0  0
    1.0794   -1.0642    1.2628 H   0  0  0  0  0  0  0  0  0  0  0  0
   -1.0669    0.0110    2.9017 N   0  0  0  0  0  0  0  0  0  0  0  0
   -1.9560    0.0018    4.0334 C   0  0  2  0  0  0  0  0  0  0  0  0
   -1.1290    0.2726    5.2833 C   0  0  0  0  0  0  0  0  0  0  0  0
    0.0814    0.0669    5.3444 O   0  0  0  0  0  0  0  0  0  0  0  0
   -2.6940   -1.3230    4.1465 C   0  0  0  0  0  0  0  0  0  0  0  0
   -0.5170    0.8506    2.7271 H   0  0  0  0  0  0  0  0  0  0  0  0
   -2.6689    0.8197    3.8823 H   0  0  0  0  0  0  0  0  0  0  0  0
   -1.9961   -2.1545    4.2983 H   0  0  0  0  0  0  0  0  0  0  0  0
   -3.3909   -1.3181    4.9911 H   0  0  0  0  0  0  0  0  0  0  0  0
   -3.2646   -1.5304    3.2348 H   0  0  0  0  0  0  0  0  0  0  0  0
   -1.9089    0.7301    6.3362 N   0  0  0  0  0  0  0  0  0  0  0  0
   -1.3591    1.0464    7.6338 C   0  0  0  0  0  0  0  0  0  0  0  0
   -2.9014    0.8895    6.1903 H   0  0  0  0  0  0  0  0  0  0  0  0
   -1.4215    0.1617    8.2845 H   0  0  0  0  0  0  0  0  0  0  0  0
   -0.3067    1.3463    7.5227 H   0  0  0  0  0  0  0  0  0  0  0  0
   -1.9304    1.8724    8.0825 H   0  0  0  0  0  0  0  0  0  0  0  0
  1  3  1  0  0  0  0
  1  7  1  0  0  0  0
  1  2  2  0  0  0  0
 18 19  1  0  0  0  0
 19 24  1  0  0  0  0
 19 20  2  0  0  0  0
 25 26  1  0  0  0  0
 26 34  1  0  0  0  0
 26 27  2  0  0  0  0
  8  9  1  0  0  0  0
  9 17  1  0  0  0  0
  9 10  2  0  0  0  0
 25 28  1  0  0  0  0
  8 11  1  0  0  0  0
 34 35  1  0  0  0  0
 17 18  1  0  0  0  0
 24 25  1  0  0  0  0
  7  8  1  0  0  0  0
  3  4  1  0  0  0  0
  3  5  1  0  0  0  0
  3  6  1  0  0  0  0
 28 31  1  0  0  0  0
 28 32  1  0  0  0  0
 28 33  1  0  0  0  0
 11 14  1  0  0  0  0
 11 15  1  0  0  0  0
 11 16  1  0  0  0  0
 35 37  1  0  0  0  0
 35 38  1  0  0  0  0
 35 39  1  0  0  0  0
 18 22  1  0  0  0  0
 18 23  1  0  0  0  0
 25 30  1  0  0  0  0
  8 13  1  0  0  0  0
 34 36  1  0  0  0  0
 17 21  1  0  0  0  0
  7 12  1  0  0  0  0
 24 29  1  0  0  0  0
M  END
$$$$

  -OEChem-05262214473D

 39 38  0     1  0  0  0  0  0999 V2000
   -3.5200   -4.0268   -1.6943 C   0  0  0  0  0  0  0  0  0  0  0  0
   -2.8702   -4.8827   -1.1054 O   0  0  0  0  0  0  0  0  0  0  0  0
   -4.9704   -4.2579   -1.9614 C   0  0  0  0  0  0  0  0  0  0  0  0
   -5.1456   -4.7573   -2.9278 H   0  0  0  0  0  0  0  0  0  0  0  0
   -5.4379   -4.9112   -1.2072 H   0  0  0  0  0  0  0  0  0  0  0  0
   -5.5954   -3.3510   -1.9864 H   0  0  0  0  0  0  0  0  0  0  0  0
   -3.0424   -2.8131   -2.1606 N   0  0  0  0  0  0  0  0  0  0  0  0
   -1.6755   -2.3891   -2.0077 C   0  0  2  0  0  0  0  0  0  0  0  0
   -1.5782   -1.5673   -0.7292 C   0  0  0  0  0  0  0  0  0  0  0  0
   -2.5448   -1.0064   -0.2171 O   0  0  0  0  0  0  0  0  0  0  0  0
   -1.2087   -1.5823   -3.2094 C   0  0  0  0  0  0  0  0  0  0  0  0
   -3.6915   -2.1888   -2.6360 H   0  0  0  0  0  0  0  0  0  0  0  0
   -1.0721   -3.2977   -1.9053 H   0  0  0  0  0  0  0  0  0  0  0  0
   -1.8017   -0.6681   -3.3281 H   0  0  0  0  0  0  0  0  0  0  0  0
   -0.1601   -1.2849   -3.1045 H   0  0  0  0  0  0  0  0  0  0  0  0
   -1.3074   -2.1646   -4.1319 H   0  0  0  0  0  0  0  0  0  0  0  0
   -0.2835   -1.5112   -0.2725 N   0  0  0  0  0  0  0  0  0  0  0  0
    0.0769   -0.7658    0.9424 C   0  0  0  0  0  0  0  0  0  0  0  0
   -0.9188   -1.0656    2.0338 C   0  0  0  0  0  0  0  0  0  0  0  0
   -1.3171   -2.1982    2.2926 O   0  0  0  0  0  0  0  0  0  0  0  0
    0.4587   -2.0097   -0.7289 H   0  0  0  0  0  0  0  0  0  0  0  0
    0.0709    0.3059    0.7225 H   0  0  0  0  0  0  0  0  0  0  0  0
    1.0794   -1.0642    1.2628 H   0  0  0  0  0  0  0  0  0  0  0  0
   -1.3198    0.0915    2.6931 N   0  0  0  0  0  0  0  0  0  0  0  0
   -2.2668    0.0999    3.7768 C   0  0  2  0  0  0  0  0  0  0  0  0
   -1.5900    0.7280    4.9879 C   0  0  0  0  0  0  0  0  0  0  0  0
   -0.3693    0.7715    5.1267 O   0  0  0  0  0  0  0  0  0  0  0  0
   -2.7560   -1.3044    4.0950 C   0  0  0  0  0  0  0  0  0  0  0  0
   -0.9222    0.9800    2.3930 H   0  0  0  0  0  0  0  0  0  0  0  0
   -3.1054    0.7291    3.4591 H   0  0  0  0  0  0  0  0  0  0  0  0
   -1.9297   -1.9495    4.4152 H   0  0  0  0  0  0  0  0  0  0  0  0
   -3.4977   -1.2931    4.9005 H   0  0  0  0  0  0  0  0  0  0  0  0
   -3.2159   -1.7658    3.2145 H   0  0  0  0  0  0  0  0  0  0  0  0
   -2.5100    1.1958    5.9158 N   0  0  0  0  0  0  0  0  0  0  0  0
   -2.1166    1.8226    7.1561 C   0  0  0  0  0  0  0  0  0  0  0  0
   -3.5027    1.1353    5.7093 H   0  0  0  0  0  0  0  0  0  0  0  0
   -2.0600    1.0630    7.9496 H   0  0  0  0  0  0  0  0  0  0  0  0
   -1.1316    2.2962    7.0311 H   0  0  0  0  0  0  0  0  0  0  0  0
   -2.8583    2.5865    7.4321 H   0  0  0  0  0  0  0  0  0  0  0  0
  1  3  1  0  0  0  0
  1  7  1  0  0  0  0
  1  2  2  0  0  0  0
 18 19  1  0  0  0  0
 19 24  1  0  0  0  0
 19 20  2  0  0  0  0
 25 26  1  0  0  0  0
 26 34  1  0  0  0  0
 26 27  2  0  0  0  0
  8  9  1  0  0  0  0
  9 17  1  0  0  0  0
  9 10  2  0  0  0  0
 25 28  1  0  0  0  0
  8 11  1  0  0  0  0
 34 35  1  0  0  0  0
 17 18  1  0  0  0  0
 24 25  1  0  0  0  0
  7  8  1  0  0  0  0
  3  4  1  0  0  0  0
  3  5  1  0  0  0  0
  3  6  1  0  0  0  0
 28 31  1  0  0  0  0
 28 32  1  0  0  0  0
 28 33  1  0  0  0  0
 11 14  1  0  0  0  0
 11 15  1  0  0  0  0
 11 16  1  0  0  0  0
 35 37  1  0  0  0  0
 35 38  1  0  0  0  0
 35 39  1  0  0  0  0
 18 22  1  0  0  0  0
 18 23  1  0  0  0  0
 25 30  1  0  0  0  0
  8 13  1  0  0  0  0
 34 36  1  0  0  0  0
 17 21  1  0  0  0  0
  7 12  1  0  0  0  0
 24 29  1  0  0  0  0
M  END
$$$$

  -OEChem-05262214473D

 39 38  0     1  0  0  0  0  0999 V2000
   -3.5200   -4.0268   -1.6943 C   0  0  0  0  0  0  0  0  0  0  0  0
   -2.8702   -4.8827   -1.1054 O   0  0  0  0  0  0  0  0  0  0  0  0
   -4.9704   -4.2579   -1.9614 C   0  0  0  0  0  0  0  0  0  0  0  0
   -5.1456   -4.7573   -2.9278 H   0  0  0  0  0  0  0  0  0  0  0  0
   -5.4379   -4.9112   -1.2072 H   0  0  0  0  0  0  0  0  0  0  0  0
   -5.5954   -3.3510   -1.9864 H   0  0  0  0  0  0  0  0  0  0  0  0
   -3.0424   -2.8131   -2.1606 N   0  0  0  0  0  0  0  0  0  0  0  0
   -1.6755   -2.3891   -2.0077 C   0  0  2  0  0  0  0  0  0  0  0  0
   -1.5782   -1.5673   -0.7292 C   0  0  0  0  0  0  0  0  0  0  0  0
   -2.5448   -1.0064   -0.2171 O   0  0  0  0  0  0  0  0  0  0  0  0
   -1.2087   -1.5823   -3.2094 C   0  0  0  0  0  0  0  0  0  0  0  0
   -3.6915   -2.1888   -2.6360 H   0  0  0  0  0  0  0  0  0  0  0  0
   -1.0721   -3.2977   -1.9053 H   0  0  0  0  0  0  0  0  0  0  0  0
   -1.8017   -0.6681   -3.3281 H   0  0  0  0  0  0  0  0  0  0  0  0
   -0.1601   -1.2849   -3.1045 H   0  0  0  0  0  0  0  0  0  0  0  0
   -1.3074   -2.1646   -4.1319 H   0  0  0  0  0  0  0  0  0  0  0  0
   -0.2835   -1.5112   -0.2725 N   0  0  0  0  0  0  0  0  0  0  0  0
    0.0769   -0.7658    0.9424 C   0  0  0  0  0  0  0  0  0  0  0  0
   -0.9188   -1.0656    2.0338 C   0  0  0  0  0  0  0  0  0  0  0  0
   -1.1198   -2.1946    2.4735 O   0  0  0  0  0  0  0  0  0  0  0  0
    0.4587   -2.0097   -0.7289 H   0  0  0  0  0  0  0  0  0  0  0  0
    0.0709    0.3059    0.7225 H   0  0  0  0  0  0  0  0  0  0  0  0
    1.0794   -1.0642    1.2628 H   0  0  0  0  0  0  0  0  0  0  0  0
   -1.5684    0.0861    2.4648 N   0  0  0  0  0  0  0  0  0  0  0  0
   -2.5722    0.0926    3.4961 C   0  0  2  0  0  0  0  0  0  0  0  0
   -2.1054    1.0311    4.6010 C   0  0  0  0  0  0  0  0  0  0  0  0
   -0.9256    1.3304    4.7729 O   0  0  0  0  0  0  0  0  0  0  0  0
   -2.8168   -1.3068    4.0389 C   0  0  0  0  0  0  0  0  0  0  0  0
   -1.3207    0.9721    2.0273 H   0  0  0  0  0  0  0  0  0  0  0  0
   -3.4883    0.4875    3.0435 H   0  0  0  0  0  0  0  0  0  0  0  0
   -1.9100   -1.7191    4.4964 H   0  0  0  0  0  0  0  0  0  0  0  0
   -3.6009   -1.3045    4.8033 H   0  0  0  0  0  0  0  0  0  0  0  0
   -3.1238   -1.9876    3.2376 H   0  0  0  0  0  0  0  0  0  0  0  0
   -3.1562    1.4611    5.3991 N   0  0  0  0  0  0  0  0  0  0  0  0
   -2.9690    2.3488    6.5229 C   0  0  0  0  0  0  0  0  0  0  0  0
   -4.1048    1.1778    5.1717 H   0  0  0  0  0  0  0  0  0  0  0  0
   -2.8284    1.7566    7.4392 H   0  0  0  0  0  0  0  0  0  0  0  0
   -2.0812    2.9751    6.3514 H   0  0  0  0  0  0  0  0  0  0  0  0
   -3.8550    2.9912    6.6341 H   0  0  0  0  0  0  0  0  0  0  0  0
  1  3  1  0  0  0  0
  1  7  1  0  0  0  0
  1  2  2  0  0  0  0
 18 19  1  0  0  0  0
 19 24  1  0  0  0  0
 19 20  2  0  0  0  0
 25 26  1  0  0  0  0
 26 34  1  0  0  0  0
 26 27  2  0  0  0  0
  8  9  1  0  0  0  0
  9 17  1  0  0  0  0
  9 10  2  0  0  0  0
 25 28  1  0  0  0  0
  8 11  1  0  0  0  0
 34 35  1  0  0  0  0
 17 18  1  0  0  0  0
 24 25  1  0  0  0  0
  7  8  1  0  0  0  0
  3  4  1  0  0  0  0
  3  5  1  0  0  0  0
  3  6  1  0  0  0  0
 28 31  1  0  0  0  0
 28 32  1  0  0  0  0
 28 33  1  0  0  0  0
 11 14  1  0  0  0  0
 11 15  1  0  0  0  0
 11 16  1  0  0  0  0
 35 37  1  0  0  0  0
 35 38  1  0  0  0  0
 35 39  1  0  0  0  0
 18 22  1  0  0  0  0
 18 23  1  0  0  0  0
 25 30  1  0  0  0  0
  8 13  1  0  0  0  0
 34 36  1  0  0  0  0
 17 21  1  0  0  0  0
  7 12  1  0  0  0  0
 24 29  1  0  0  0  0
M  END
$$$$

  -OEChem-05262214473D

 39 38  0     1  0  0  0  0  0999 V2000
   -3.5200   -4.0268   -1.6943 C   0  0  0  0  0  0  0  0  0  0  0  0
   -2.8702   -4.8827   -1.1054 O   0  0  0  0  0  0  0  0  0  0  0  0
   -4.9704   -4.2579   -1.9614 C   0  0  0  0  0  0  0  0  0  0  0  0
   -5.1456   -4.7573   -2.9278 H   0  0  0  0  0  0  0  0  0  0  0  0
   -5.4379   -4.9112   -1.2072 H   0  0  0  0  0  0  0  0  0  0  0  0
   -5.5954   -3.3510   -1.9864 H   0  0  0  0  0  0  0  0  0  0  0  0
   -3.0424   -2.8131   -2.1606 N   0  0  0  0  0  0  0  0  0  0  0  0
   -1.6755   -2.3891   -2.0077 C   0  0  2  0  0  0  0  0  0  0  0  0
   -1.5782   -1.5673   -0.7292 C   0  0  0  0  0  0  0  0  0  0  0  0
   -2.5448   -1.0064   -0.2171 O   0  0  0  0  0  0  0  0  0  0  0  0
   -1.2087   -1.5823   -3.2094 C   0  0  0  0  0  0  0  0  0  0  0  0
   -3.6915   -2.1888   -2.6360 H   0  0  0  0  0  0  0  0  0  0  0  0
   -1.0721   -3.2977   -1.9053 H   0  0  0  0  0  0  0  0  0  0  0  0
   -1.8017   -0.6681   -3.3281 H   0  0  0  0  0  0  0  0  0  0  0  0
   -0.1601   -1.2849   -3.1045 H   0  0  0  0  0  0  0  0  0  0  0  0
   -1.3074   -2.1646   -4.1319 H   0  0  0  0  0  0  0  0  0  0  0  0
   -0.2835   -1.5112   -0.2725 N   0  0  0  0  0  0  0  0  0  0  0  0
    0.0769   -0.7658    0.9424 C   0  0  0  0  0  0  0  0  0  0  0  0
   -0.9188   -1.0656    2.0338 C   0  0  0  0  0  0  0  0  0  0  0  0
   -0.9393   -2.1232    2.6579 O   0  0  0  0  0  0  0  0  0  0  0  0
    0.4587   -2.0097   -0.7289 H   0  0  0  0  0  0  0  0  0  0  0  0
    0.0709    0.3059    0.7225 H   0  0  0  0  0  0  0  0  0  0  0  0
    1.0794   -1.0642    1.2628 H   0  0  0  0  0  0  0  0  0  0  0  0
   -1.7958   -0.0046    2.2324 N   0  0  0  0  0  0  0  0  0  0  0  0
   -2.8514   -0.0198    3.2106 C   0  0  2  0  0  0  0  0  0  0  0  0
   -2.6401    1.1611    4.1489 C   0  0  0  0  0  0  0  0  0  0  0  0
   -1.5493    1.7054    4.3069 O   0  0  0  0  0  0  0  0  0  0  0  0
   -2.8721   -1.3301    3.9821 C   0  0  0  0  0  0  0  0  0  0  0  0
   -1.6852    0.8272    1.6549 H   0  0  0  0  0  0  0  0  0  0  0  0
   -3.7914    0.1114    2.6635 H   0  0  0  0  0  0  0  0  0  0  0  0
   -1.9384   -1.4790    4.5365 H   0  0  0  0  0  0  0  0  0  0  0  0
   -3.6934   -1.3514    4.7060 H   0  0  0  0  0  0  0  0  0  0  0  0
   -2.9944   -2.1806    3.3026 H   0  0  0  0  0  0  0  0  0  0  0  0
   -3.8035    1.5079    4.8215 N   0  0  0  0  0  0  0  0  0  0  0  0
   -3.8584    2.5891    5.7775 C   0  0  0  0  0  0  0  0  0  0  0  0
   -4.6666    1.0142    4.6142 H   0  0  0  0  0  0  0  0  0  0  0  0
   -3.6743    2.1954    6.7880 H   0  0  0  0  0  0  0  0  0  0  0  0
   -3.0906    3.3368    5.5299 H   0  0  0  0  0  0  0  0  0  0  0  0
   -4.8524    3.0590    5.7427 H   0  0  0  0  0  0  0  0  0  0  0  0
  1  3  1  0  0  0  0
  1  7  1  0  0  0  0
  1  2  2  0  0  0  0
 18 19  1  0  0  0  0
 19 24  1  0  0  0  0
 19 20  2  0  0  0  0
 25 26  1  0  0  0  0
 26 34  1  0  0  0  0
 26 27  2  0  0  0  0
  8  9  1  0  0  0  0
  9 17  1  0  0  0  0
  9 10  2  0  0  0  0
 25 28  1  0  0  0  0
  8 11  1  0  0  0  0
 34 35  1  0  0  0  0
 17 18  1  0  0  0  0
 24 25  1  0  0  0  0
  7  8  1  0  0  0  0
  3  4  1  0  0  0  0
  3  5  1  0  0  0  0
  3  6  1  0  0  0  0
 28 31  1  0  0  0  0
 28 32  1  0  0  0  0
 28 33  1  0  0  0  0
 11 14  1  0  0  0  0
 11 15  1  0  0  0  0
 11 16  1  0  0  0  0
 35 37  1  0  0  0  0
 35 38  1  0  0  0  0
 35 39  1  0  0  0  0
 18 22  1  0  0  0  0
 18 23  1  0  0  0  0
 25 30  1  0  0  0  0
  8 13  1  0  0  0  0
 34 36  1  0  0  0  0
 17 21  1  0  0  0  0
  7 12  1  0  0  0  0
 24 29  1  0  0  0  0
M  END
$$$$

  -OEChem-05262214473D

 39 38  0     1  0  0  0  0  0999 V2000
   -3.5200   -4.0268   -1.6943 C   0  0  0  0  0  0  0  0  0  0  0  0
   -2.8702   -4.8827   -1.1054 O   0  0  0  0  0  0  0  0  0  0  0  0
   -4.9704   -4.2579   -1.9614 C   0  0  0  0  0  0  0  0  0  0  0  0
   -5.1456   -4.7573   -2.9278 H   0  0  0  0  0  0  0  0  0  0  0  0
   -5.4379   -4.9112   -1.2072 H   0  0  0  0  0  0  0  0  0  0  0  0
   -5.5954   -3.3510   -1.9864 H   0  0  0  0  0  0  0  0  0  0  0  0
   -3.0424   -2.8131   -2.1606 N   0  0  0  0  0  0  0  0  0  0  0  0
   -1.6755   -2.3891   -2.0077 C   0  0  2  0  0  0  0  0  0  0  0  0
   -1.5782   -1.5673   -0.7292 C   0  0  0  0  0  0  0  0  0  0  0  0
   -2.5448   -1.0064   -0.2171 O   0  0  0  0  0  0  0  0  0  0  0  0
   -1.2087   -1.5823   -3.2094 C   0  0  0  0  0  0  0  0  0  0  0  0
   -3.6915   -2.1888   -2.6360 H   0  0  0  0  0  0  0  0  0  0  0  0
   -1.0721   -3.2977   -1.9053 H   0  0  0  0  0  0  0  0  0  0  0  0
   -1.8017   -0.6681   -3.3281 H   0  0  0  0  0  0  0  0  0  0  0  0
   -0.1601   -1.2849   -3.1045 H   0  0  0  0  0  0  0  0  0  0  0  0
   -1.3074   -2.1646   -4.1319 H   0  0  0  0  0  0  0  0  0  0  0  0
   -0.2835   -1.5112   -0.2725 N   0  0  0  0  0  0  0  0  0  0  0  0
    0.0769   -0.7658    0.9424 C   0  0  0  0  0  0  0  0  0  0  0  0
   -0.9188   -1.0656    2.0338 C   0  0  0  0  0  0  0  0  0  0  0  0
   -0.7878   -1.9889    2.8330 O   0  0  0  0  0  0  0  0  0  0  0  0
    0.4587   -2.0097   -0.7289 H   0  0  0  0  0  0  0  0  0  0  0  0
    0.0709    0.3059    0.7225 H   0  0  0  0  0  0  0  0  0  0  0  0
    1.0794   -1.0642    1.2628 H   0  0  0  0  0  0  0  0  0  0  0  0
   -1.9865   -0.1747    2.0117 N   0  0  0  0  0  0  0  0  0  0  0  0
   -3.0854   -0.2294    2.9395 C   0  0  2  0  0  0  0  0  0  0  0  0
   -3.1577    1.1092    3.6624 C   0  0  0  0  0  0  0  0  0  0  0  0
   -2.1981    1.8712    3.7605 O   0  0  0  0  0  0  0  0  0  0  0  0
   -2.9183   -1.3728    3.9282 C   0  0  0  0  0  0  0  0  0  0  0  0
   -1.9910    0.5553    1.3012 H   0  0  0  0  0  0  0  0  0  0  0  0
   -3.9942   -0.3737    2.3452 H   0  0  0  0  0  0  0  0  0  0  0  0
   -2.0129   -1.2455    4.5328 H   0  0  0  0  0  0  0  0  0  0  0  0
   -3.7690   -1.4307    4.6153 H   0  0  0  0  0  0  0  0  0  0  0  0
   -2.8366   -2.3316    3.4050 H   0  0  0  0  0  0  0  0  0  0  0  0
   -4.4077    1.3331    4.2222 N   0  0  0  0  0  0  0  0  0  0  0  0
   -4.7242    2.5271    4.9706 C   0  0  0  0  0  0  0  0  0  0  0  0
   -5.1499    0.6555    4.0747 H   0  0  0  0  0  0  0  0  0  0  0  0
   -4.5401    2.3495    6.0405 H   0  0  0  0  0  0  0  0  0  0  0  0
   -4.0910    3.3565    4.6225 H   0  0  0  0  0  0  0  0  0  0  0  0
   -5.7827    2.7851    4.8188 H   0  0  0  0  0  0  0  0  0  0  0  0
  1  3  1  0  0  0  0
  1  7  1  0  0  0  0
  1  2  2  0  0  0  0
 18 19  1  0  0  0  0
 19 24  1  0  0  0  0
 19 20  2  0  0  0  0
 25 26  1  0  0  0  0
 26 34  1  0  0  0  0
 26 27  2  0  0  0  0
  8  9  1  0  0  0  0
  9 17  1  0  0  0  0
  9 10  2  0  0  0  0
 25 28  1  0  0  0  0
  8 11  1  0  0  0  0
 34 35  1  0  0  0  0
 17 18  1  0  0  0  0
 24 25  1  0  0  0  0
  7  8  1  0  0  0  0
  3  4  1  0  0  0  0
  3  5  1  0  0  0  0
  3  6  1  0  0  0  0
 28 31  1  0  0  0  0
 28 32  1  0  0  0  0
 28 33  1  0  0  0  0
 11 14  1  0  0  0  0
 11 15  1  0  0  0  0
 11 16  1  0  0  0  0
 35 37  1  0  0  0  0
 35 38  1  0  0  0  0
 35 39  1  0  0  0  0
 18 22  1  0  0  0  0
 18 23  1  0  0  0  0
 25 30  1  0  0  0  0
  8 13  1  0  0  0  0
 34 36  1  0  0  0  0
 17 21  1  0  0  0  0
  7 12  1  0  0  0  0
 24 29  1  0  0  0  0
M  END
$$$$

  -OEChem-05262214473D

 39 38  0     1  0  0  0  0  0999 V2000
   -3.5200   -4.0268   -1.6943 C   0  0  0  0  0  0  0  0  0  0  0  0
   -2.8702   -4.8827   -1.1054 O   0  0  0  0  0  0  0  0  0  0  0  0
   -4.9704   -4.2579   -1.9614 C   0  0  0  0  0  0  0  0  0  0  0  0
   -5.1456   -4.7573   -2.9278 H   0  0  0  0  0  0  0  0  0  0  0  0
   -5.4379   -4.9112   -1.2072 H   0  0  0  0  0  0  0  0  0  0  0  0
   -5.5954   -3.3510   -1.9864 H   0  0  0  0  0  0  0  0  0  0  0  0
   -3.0424   -2.8131   -2.1606 N   0  0  0  0  0  0  0  0  0  0  0  0
   -1.6755   -2.3891   -2.0077 C   0  0  2  0  0  0  0  0  0  0  0  0
   -1.5782   -1.5673   -0.7292 C   0  0  0  0  0  0  0  0  0  0  0  0
   -2.5448   -1.0064   -0.2171 O   0  0  0  0  0  0  0  0  0  0  0  0
   -1.2087   -1.5823   -3.2094 C   0  0  0  0  0  0  0  0  0  0  0  0
   -3.6915   -2.1888   -2.6360 H   0  0  0  0  0  0  0  0  0  0  0  0
   -1.0721   -3.2977   -1.9053 H   0  0  0  0  0  0  0  0  0  0  0  0
   -1.8017   -0.6681   -3.3281 H   0  0  0  0  0  0  0  0  0  0  0  0
   -0.1601   -1.2849   -3.1045 H   0  0  0  0  0  0  0  0  0  0  0  0
   -1.3074   -2.1646   -4.1319 H   0  0  0  0  0  0  0  0  0  0  0  0
   -0.2835   -1.5112   -0.2725 N   0  0  0  0  0  0  0  0  0  0  0  0
    0.0769   -0.7658    0.9424 C   0  0  0  0  0  0  0  0  0  0  0  0
   -0.9188   -1.0656    2.0338 C   0  0  0  0  0  0  0  0  0  0  0  0
   -0.6756   -1.8009    2.9870 O   0  0  0  0  0  0  0  0  0  0  0  0
    0.4587   -2.0097   -0.7289 H   0  0  0  0  0  0  0  0  0  0  0  0
    0.0709    0.3059    0.7225 H   0  0  0  0  0  0  0  0  0  0  0  0
    1.0794   -1.0642    1.2628 H   0  0  0  0  0  0  0  0  0  0  0  0
   -2.1275   -0.4123    1.8178 N   0  0  0  0  0  0  0  0  0  0  0  0
   -3.2581   -0.5221    2.7015 C   0  0  2  0  0  0  0  0  0  0  0  0
   -3.6228    0.8789    3.1747 C   0  0  0  0  0  0  0  0  0  0  0  0
   -2.8278    1.8164    3.1710 O   0  0  0  0  0  0  0  0  0  0  0  0
   -2.9521   -1.4318    3.8812 C   0  0  0  0  0  0  0  0  0  0  0  0
   -2.2172    0.1749    0.9903 H   0  0  0  0  0  0  0  0  0  0  0  0
   -4.0828   -0.9347    2.1103 H   0  0  0  0  0  0  0  0  0  0  0  0
   -2.1283   -1.0346    4.4854 H   0  0  0  0  0  0  0  0  0  0  0  0
   -3.8224   -1.5369    4.5373 H   0  0  0  0  0  0  0  0  0  0  0  0
   -2.6611   -2.4304    3.5380 H   0  0  0  0  0  0  0  0  0  0  0  0
   -4.9278    0.9486    3.6421 N   0  0  0  0  0  0  0  0  0  0  0  0
   -5.5073    2.1671    4.1573 C   0  0  0  0  0  0  0  0  0  0  0  0
   -5.5218    0.1263    3.5900 H   0  0  0  0  0  0  0  0  0  0  0  0
   -5.3667    2.2082    5.2475 H   0  0  0  0  0  0  0  0  0  0  0  0
   -5.0144    3.0330    3.6912 H   0  0  0  0  0  0  0  0  0  0  0  0
   -6.5824    2.1884    3.9252 H   0  0  0  0  0  0  0  0  0  0  0  0
  1  3  1  0  0  0  0
  1  7  1  0  0  0  0
  1  2  2  0  0  0  0
 18 19  1  0  0  0  0
 19 24  1  0  0  0  0
 19 20  2  0  0  0  0
 25 26  1  0  0  0  0
 26 34  1  0  0  0  0
 26 27  2  0  0  0  0
  8  9  1  0  0  0  0
  9 17  1  0  0  0  0
  9 10  2  0  0  0  0
 25 28  1  0  0  0  0
  8 11  1  0  0  0  0
 34 35  1  0  0  0  0
 17 18  1  0  0  0  0
 24 25  1  0  0  0  0
  7  8  1  0  0  0  0
  3  4  1  0  0  0  0
  3  5  1  0  0  0  0
  3  6  1  0  0  0  0
 28 31  1  0  0  0  0
 28 32  1  0  0  0  0
 28 33  1  0  0  0  0
 11 14  1  0  0  0  0
 11 15  1  0  0  0  0
 11 16  1  0  0  0  0
 35 37  1  0  0  0  0
 35 38  1  0  0  0  0
 35 39  1  0  0  0  0
 18 22  1  0  0  0  0
 18 23  1  0  0  0  0
 25 30  1  0  0  0  0
  8 13  1  0  0  0  0
 34 36  1  0  0  0  0
 17 21  1  0  0  0  0
  7 12  1  0  0  0  0
 24 29  1  0  0  0  0
M  END
$$$$

  -OEChem-05262214473D

 39 38  0     1  0  0  0  0  0999 V2000
   -3.5200   -4.0268   -1.6943 C   0  0  0  0  0  0  0  0  0  0  0  0
   -2.8702   -4.8827   -1.1054 O   0  0  0  0  0  0  0  0  0  0  0  0
   -4.9704   -4.2579   -1.9614 C   0  0  0  0  0  0  0  0  0  0  0  0
   -5.1456   -4.7573   -2.9278 H   0  0  0  0  0  0  0  0  0  0  0  0
   -5.4379   -4.9112   -1.2072 H   0  0  0  0  0  0  0  0  0  0  0  0
   -5.5954   -3.3510   -1.9864 H   0  0  0  0  0  0  0  0  0  0  0  0
   -3.0424   -2.8131   -2.1606 N   0  0  0  0  0  0  0  0  0  0  0  0
   -1.6755   -2.3891   -2.0077 C   0  0  2  0  0  0  0  0  0  0  0  0
   -1.5782   -1.5673   -0.7292 C   0  0  0  0  0  0  0  0  0  0  0  0
   -2.5448   -1.0064   -0.2171 O   0  0  0  0  0  0  0  0  0  0  0  0
   -1.2087   -1.5823   -3.2094 C   0  0  0  0  0  0  0  0  0  0  0  0
   -3.6915   -2.1888   -2.6360 H   0  0  0  0  0  0  0  0  0  0  0  0
   -1.0721   -3.2977   -1.9053 H   0  0  0  0  0  0  0  0  0  0  0  0
   -1.8017   -0.6681   -3.3281 H   0  0  0  0  0  0  0  0  0  0  0  0
   -0.1601   -1.2849   -3.1045 H   0  0  0  0  0  0  0  0  0  0  0  0
   -1.3074   -2.1646   -4.1319 H   0  0  0  0  0  0  0  0  0  0  0  0
   -0.2835   -1.5112   -0.2725 N   0  0  0  0  0  0  0  0  0  0  0  0
    0.0769   -0.7658    0.9424 C   0  0  0  0  0  0  0  0  0  0  0  0
   -0.9188   -1.0656    2.0338 C   0  0  0  0  0  0  0  0  0  0  0  0
   -0.6104   -1.5719    3.1094 O   0  0  0  0  0  0  0  0  0  0  0  0
    0.4587   -2.0097   -0.7289 H   0  0  0  0  0  0  0  0  0  0  0  0
    0.0709    0.3059    0.7225 H   0  0  0  0  0  0  0  0  0  0  0  0
    1.0794   -1.0642    1.2628 H   0  0  0  0  0  0  0  0  0  0  0  0
   -2.2091   -0.7015    1.6639 N   0  0  0  0  0  0  0  0  0  0  0  0
   -3.3579   -0.8778    2.5128 C   0  0  2  0  0  0  0  0  0  0  0  0
   -4.0039    0.4859    2.7191 C   0  0  0  0  0  0  0  0  0  0  0  0
   -3.3953    1.5446    2.5785 O   0  0  0  0  0  0  0  0  0  0  0  0
   -2.9713   -1.5032    3.8440 C   0  0  0  0  0  0  0  0  0  0  0  0
   -2.3485   -0.2881    0.7433 H   0  0  0  0  0  0  0  0  0  0  0  0
   -4.0512   -1.5333    1.9746 H   0  0  0  0  0  0  0  0  0  0  0  0
   -2.2769   -0.8606    4.3976 H   0  0  0  0  0  0  0  0  0  0  0  0
   -3.8502   -1.6629    4.4774 H   0  0  0  0  0  0  0  0  0  0  0  0
   -2.4800   -2.4703    3.6923 H   0  0  0  0  0  0  0  0  0  0  0  0
   -5.3282    0.3806    3.1207 N   0  0  0  0  0  0  0  0  0  0  0  0
   -6.1544    1.5335    3.3929 C   0  0  0  0  0  0  0  0  0  0  0  0
   -5.7569   -0.5374    3.1932 H   0  0  0  0  0  0  0  0  0  0  0  0
   -6.0979    1.7813    4.4631 H   0  0  0  0  0  0  0  0  0  0  0  0
   -5.7977    2.3883    2.7994 H   0  0  0  0  0  0  0  0  0  0  0  0
   -7.1969    1.3093    3.1230 H   0  0  0  0  0  0  0  0  0  0  0  0
  1  3  1  0  0  0  0
  1  7  1  0  0  0  0
  1  2  2  0  0  0  0
 18 19  1  0  0  0  0
 19 24  1  0  0  0  0
 19 20  2  0  0  0  0
 25 26  1  0  0  0  0
 26 34  1  0  0  0  0
 26 27  2  0  0  0  0
  8  9  1  0  0  0  0
  9 17  1  0  0  0  0
  9 10  2  0  0  0  0
 25 28  1  0  0  0  0
  8 11  1  0  0  0  0
 34 35  1  0  0  0  0
 17 18  1  0  0  0  0
 24 25  1  0  0  0  0
  7  8  1  0  0  0  0
  3  4  1  0  0  0  0
  3  5  1  0  0  0  0
  3  6  1  0  0  0  0
 28 31  1  0  0  0  0
 28 32  1  0  0  0  0
 28 33  1  0  0  0  0
 11 14  1  0  0  0  0
 11 15  1  0  0  0  0
 11 16  1  0  0  0  0
 35 37  1  0  0  0  0
 35 38  1  0  0  0  0
 35 39  1  0  0  0  0
 18 22  1  0  0  0  0
 18 23  1  0  0  0  0
 25 30  1  0  0  0  0
  8 13  1  0  0  0  0
 34 36  1  0  0  0  0
 17 21  1  0  0  0  0
  7 12  1  0  0  0  0
 24 29  1  0  0  0  0
M  END
$$$$

  -OEChem-05262214473D

 39 38  0     1  0  0  0  0  0999 V2000
   -3.5200   -4.0268   -1.6943 C   0  0  0  0  0  0  0  0  0  0  0  0
   -2.8702   -4.8827   -1.1054 O   0  0  0  0  0  0  0  0  0  0  0  0
   -4.9704   -4.2579   -1.9614 C   0  0  0  0  0  0  0  0  0  0  0  0
   -5.1456   -4.7573   -2.9278 H   0  0  0  0  0  0  0  0  0  0  0  0
   -5.4379   -4.9112   -1.2072 H   0  0  0  0  0  0  0  0  0  0  0  0
   -5.5954   -3.3510   -1.9864 H   0  0  0  0  0  0  0  0  0  0  0  0
   -3.0424   -2.8131   -2.1606 N   0  0  0  0  0  0  0  0  0  0  0  0
   -1.6755   -2.3891   -2.0077 C   0  0  2  0  0  0  0  0  0  0  0  0
   -1.5782   -1.5673   -0.7292 C   0  0  0  0  0  0  0  0  0  0  0  0
   -2.5448   -1.0064   -0.2171 O   0  0  0  0  0  0  0  0  0  0  0  0
   -1.2087   -1.5823   -3.2094 C   0  0  0  0  0  0  0  0  0  0  0  0
   -3.6915   -2.1888   -2.6360 H   0  0  0  0  0  0  0  0  0  0  0  0
   -1.0721   -3.2977   -1.9053 H   0  0  0  0  0  0  0  0  0  0  0  0
   -1.8017   -0.6681   -3.3281 H   0  0  0  0  0  0  0  0  0  0  0  0
   -0.1601   -1.2849   -3.1045 H   0  0  0  0  0  0  0  0  0  0  0  0
   -1.3074   -2.1646   -4.1319 H   0  0  0  0  0  0  0  0  0  0  0  0
   -0.2835   -1.5112   -0.2725 N   0  0  0  0  0  0  0  0  0  0  0  0
    0.0769   -0.7658    0.9424 C   0  0  0  0  0  0  0  0  0  0  0  0
   -0.9188   -1.0656    2.0338 C   0  0  0  0  0  0  0  0  0  0  0  0
   -0.5966   -1.3175    3.1919 O   0  0  0  0  0  0  0  0  0  0  0  0
    0.4587   -2.0097   -0.7289 H   0  0  0  0  0  0  0  0  0  0  0  0
    0.0709    0.3059    0.7225 H   0  0  0  0  0  0  0  0  0  0  0  0
    1.0794   -1.0642    1.2628 H   0  0  0  0  0  0  0  0  0  0  0  0
   -2.2258   -1.0224    1.5604 N   0  0  0  0  0  0  0  0  0  0  0  0
   -3.3778   -1.2724    2.3861 C   0  0  2  0  0  0  0  0  0  0  0  0
   -4.2749   -0.0430    2.3266 C   0  0  0  0  0  0  0  0  0  0  0  0
   -3.8621    1.0745    2.0235 O   0  0  0  0  0  0  0  0  0  0  0  0
   -2.9746   -1.5821    3.8194 C   0  0  0  0  0  0  0  0  0  0  0  0
   -2.3758   -0.8021    0.5772 H   0  0  0  0  0  0  0  0  0  0  0  0
   -3.9014   -2.1288    1.9476 H   0  0  0  0  0  0  0  0  0  0  0  0
   -2.4486   -0.7354    4.2754 H   0  0  0  0  0  0  0  0  0  0  0  0
   -3.8502   -1.8000    4.4397 H   0  0  0  0  0  0  0  0  0  0  0  0
   -2.3055   -2.4485    3.8574 H   0  0  0  0  0  0  0  0  0  0  0  0
   -5.5817   -0.3323    2.6935 N   0  0  0  0  0  0  0  0  0  0  0  0
   -6.6213    0.6697    2.7295 C   0  0  0  0  0  0  0  0  0  0  0  0
   -5.8392   -1.2904    2.9112 H   0  0  0  0  0  0  0  0  0  0  0  0
   -6.6838    1.0978    3.7408 H   0  0  0  0  0  0  0  0  0  0  0  0
   -6.3877    1.4664    2.0079 H   0  0  0  0  0  0  0  0  0  0  0  0
   -7.5846    0.2080    2.4667 H   0  0  0  0  0  0  0  0  0  0  0  0
  1  3  1  0  0  0  0
  1  7  1  0  0  0  0
  1  2  2  0  0  0  0
 18 19  1  0  0  0  0
 19 24  1  0  0  0  0
 19 20  2  0  0  0  0
 25 26  1  0  0  0  0
 26 34  1  0  0  0  0
 26 27  2  0  0  0  0
  8  9  1  0  0  0  0
  9 17  1  0  0  0  0
  9 10  2  0  0  0  0
 25 28  1  0  0  0  0
  8 11  1  0  0  0  0
 34 35  1  0  0  0  0
 17 18  1  0  0  0  0
 24 25  1  0  0  0  0
  7  8  1  0  0  0  0
  3  4  1  0  0  0  0
  3  5  1  0  0  0  0
  3  6  1  0  0  0  0
 28 31  1  0  0  0  0
 28 32  1  0  0  0  0
 28 33  1  0  0  0  0
 11 14  1  0  0  0  0
 11 15  1  0  0  0  0
 11 16  1  0  0  0  0
 35 37  1  0  0  0  0
 35 38  1  0  0  0  0
 35 39  1  0  0  0  0
 18 22  1  0  0  0  0
 18 23  1  0  0  0  0
 25 30  1  0  0  0  0
  8 13  1  0  0  0  0
 34 36  1  0  0  0  0
 17 21  1  0  0  0  0
  7 12  1  0  0  0  0
 24 29  1  0  0  0  0
M  END
$$$$

  -OEChem-05262214473D

 39 38  0     1  0  0  0  0  0999 V2000
   -3.5200   -4.0268   -1.6943 C   0  0  0  0  0  0  0  0  0  0  0  0
   -2.8702   -4.8827   -1.1054 O   0  0  0  0  0  0  0  0  0  0  0  0
   -4.9704   -4.2579   -1.9614 C   0  0  0  0  0  0  0  0  0  0  0  0
   -5.1456   -4.7573   -2.9278 H   0  0  0  0  0  0  0  0  0  0  0  0
   -5.4379   -4.9112   -1.2072 H   0  0  0  0  0  0  0  0  0  0  0  0
   -5.5954   -3.3510   -1.9864 H   0  0  0  0  0  0  0  0  0  0  0  0
   -3.0424   -2.8131   -2.1606 N   0  0  0  0  0  0  0  0  0  0  0  0
   -1.6755   -2.3891   -2.0077 C   0  0  2  0  0  0  0  0  0  0  0  0
   -1.5782   -1.5673   -0.7292 C   0  0  0  0  0  0  0  0  0  0  0  0
   -2.5448   -1.0064   -0.2171 O   0  0  0  0  0  0  0  0  0  0  0  0
   -1.2087   -1.5823   -3.2094 C   0  0  0  0  0  0  0  0  0  0  0  0
   -3.6915   -2.1888   -2.6360 H   0  0  0  0  0  0  0  0  0  0  0  0
   -1.0721   -3.2977   -1.9053 H   0  0  0  0  0  0  0  0  0  0  0  0
   -1.8017   -0.6681   -3.3281 H   0  0  0  0  0  0  0  0  0  0  0  0
   -0.1601   -1.2849   -3.1045 H   0  0  0  0  0  0  0  0  0  0  0  0
   -1.3074   -2.1646   -4.1319 H   0  0  0  0  0  0  0  0  0  0  0  0
   -0.2835   -1.5112   -0.2725 N   0  0  0  0  0  0  0  0  0  0  0  0
    0.0769   -0.7658    0.9424 C   0  0  0  0  0  0  0  0  0  0  0  0
   -0.9188   -1.0656    2.0338 C   0  0  0  0  0  0  0  0  0  0  0  0
   -0.6352   -1.0552    3.2287 O   0  0  0  0  0  0  0  0  0  0  0  0
    0.4587   -2.0097   -0.7289 H   0  0  0  0  0  0  0  0  0  0  0  0
    0.0709    0.3059    0.7225 H   0  0  0  0  0  0  0  0  0  0  0  0
    1.0794   -1.0642    1.2628 H   0  0  0  0  0  0  0  0  0  0  0  0
   -2.1766   -1.3532    1.5145 N   0  0  0  0  0  0  0  0  0  0  0  0
   -3.3167   -1.6789    2.3302 C   0  0  2  0  0  0  0  0  0  0  0  0
   -4.4173   -0.6718    2.0239 C   0  0  0  0  0  0  0  0  0  0  0  0
   -4.1963    0.4381    1.5437 O   0  0  0  0  0  0  0  0  0  0  0  0
   -2.9617   -1.6631    3.8089 C   0  0  0  0  0  0  0  0  0  0  0  0
   -2.2972   -1.3321    0.5032 H   0  0  0  0  0  0  0  0  0  0  0  0
   -3.6438   -2.6806    2.0310 H   0  0  0  0  0  0  0  0  0  0  0  0
   -2.6315   -0.6675    4.1272 H   0  0  0  0  0  0  0  0  0  0  0  0
   -3.8227   -1.9389    4.4266 H   0  0  0  0  0  0  0  0  0  0  0  0
   -2.1496   -2.3665    4.0223 H   0  0  0  0  0  0  0  0  0  0  0  0
   -5.6710   -1.1413    2.3898 N   0  0  0  0  0  0  0  0  0  0  0  0
   -6.8763   -0.3657    2.2123 C   0  0  0  0  0  0  0  0  0  0  0  0
   -5.7630   -2.0814    2.7634 H   0  0  0  0  0  0  0  0  0  0  0  0
   -7.0845    0.2044    3.1297 H   0  0  0  0  0  0  0  0  0  0  0  0
   -6.7440    0.3300    1.3706 H   0  0  0  0  0  0  0  0  0  0  0  0
   -7.7188   -1.0407    2.0011 H   0  0  0  0  0  0  0  0  0  0  0  0
  1  3  1  0  0  0  0
  1  7  1  0  0  0  0
  1  2  2  0  0  0  0
 18 19  1  0  0  0  0
 19 24  1  0  0  0  0
 19 20  2  0  0  0  0
 25 26  1  0  0  0  0
 26 34  1  0  0  0  0
 26 27  2  0  0  0  0
  8  9  1  0  0  0  0
  9 17  1  0  0  0  0
  9 10  2  0  0  0  0
 25 28  1  0  0  0  0
  8 11  1  0  0  0  0
 34 35  1  0  0  0  0
 17 18  1  0  0  0  0
 24 25  1  0  0  0  0
  7  8  1  0  0  0  0
  3  4  1  0  0  0  0
  3  5  1  0  0  0  0
  3  6  1  0  0  0  0
 28 31  1  0  0  0  0
 28 32  1  0  0  0  0
 28 33  1  0  0  0  0
 11 14  1  0  0  0  0
 11 15  1  0  0  0  0
 11 16  1  0  0  0  0
 35 37  1  0  0  0  0
 35 38  1  0  0  0  0
 35 39  1  0  0  0  0
 18 22  1  0  0  0  0
 18 23  1  0  0  0  0
 25 30  1  0  0  0  0
  8 13  1  0  0  0  0
 34 36  1  0  0  0  0
 17 21  1  0  0  0  0
  7 12  1  0  0  0  0
 24 29  1  0  0  0  0
M  END
$$$$

  -OEChem-05262214473D

 39 38  0     1  0  0  0  0  0999 V2000
   -3.5200   -4.0268   -1.6943 C   0  0  0  0  0  0  0  0  0  0  0  0
   -2.8702   -4.8827   -1.1054 O   0  0  0  0  0  0  0  0  0  0  0  0
   -4.9704   -4.2579   -1.9614 C   0  0  0  0  0  0  0  0  0  0  0  0
   -5.1456   -4.7573   -2.9278 H   0  0  0  0  0  0  0  0  0  0  0  0
   -5.4379   -4.9112   -1.2072 H   0  0  0  0  0  0  0  0  0  0  0  0
   -5.5954   -3.3510   -1.9864 H   0  0  0  0  0  0  0  0  0  0  0  0
   -3.0424   -2.8131   -2.1606 N   0  0  0  0  0  0  0  0  0  0  0  0
   -1.6755   -2.3891   -2.0077 C   0  0  2  0  0  0  0  0  0  0  0  0
   -1.5782   -1.5673   -0.7292 C   0  0  0  0  0  0  0  0  0  0  0  0
   -2.5448   -1.0064   -0.2171 O   0  0  0  0  0  0  0  0  0  0  0  0
   -1.2087   -1.5823   -3.2094 C   0  0  0  0  0  0  0  0  0  0  0  0
   -3.6915   -2.1888   -2.6360 H   0  0  0  0  0  0  0  0  0  0  0  0
   -1.0721   -3.2977   -1.9053 H   0  0  0  0  0  0  0  0  0  0  0  0
   -1.8017   -0.6681   -3.3281 H   0  0  0  0  0  0  0  0  0  0  0  0
   -0.1601   -1.2849   -3.1045 H   0  0  0  0  0  0  0  0  0  0  0  0
   -1.3074   -2.1646   -4.1319 H   0  0  0  0  0  0  0  0  0  0  0  0
   -0.2835   -1.5112   -0.2725 N   0  0  0  0  0  0  0  0  0  0  0  0
    0.0769   -0.7658    0.9424 C   0  0  0  0  0  0  0  0  0  0  0  0
   -0.9188   -1.0656    2.0338 C   0  0  0  0  0  0  0  0  0  0  0  0
   -0.7236   -0.8027    3.2175 O   0  0  0  0  0  0  0  0  0  0  0  0
    0.4587   -2.0097   -0.7289 H   0  0  0  0  0  0  0  0  0  0  0  0
    0.0709    0.3059    0.7225 H   0  0  0  0  0  0  0  0  0  0  0  0
    1.0794   -1.0642    1.2628 H   0  0  0  0  0  0  0  0  0  0  0  0
   -2.0646   -1.6713    1.5292 N   0  0  0  0  0  0  0  0  0  0  0  0
   -3.1785   -2.0696    2.3489 C   0  0  2  0  0  0  0  0  0  0  0  0
   -4.4214   -1.3575    1.8316 C   0  0  0  0  0  0  0  0  0  0  0  0
   -4.3751   -0.3213    1.1719 O   0  0  0  0  0  0  0  0  0  0  0  0
   -2.9335   -1.7407    3.8133 C   0  0  0  0  0  0  0  0  0  0  0  0
   -2.1183   -1.8420    0.5264 H   0  0  0  0  0  0  0  0  0  0  0  0
   -3.2959   -3.1510    2.2191 H   0  0  0  0  0  0  0  0  0  0  0  0
   -2.8134   -0.6615    3.9629 H   0  0  0  0  0  0  0  0  0  0  0  0
   -3.7694   -2.0702    4.4392 H   0  0  0  0  0  0  0  0  0  0  0  0
   -2.0228   -2.2299    4.1755 H   0  0  0  0  0  0  0  0  0  0  0  0
   -5.5900   -1.9915    2.2300 N   0  0  0  0  0  0  0  0  0  0  0  0
   -6.9020   -1.5020    1.8767 C   0  0  0  0  0  0  0  0  0  0  0  0
   -5.5336   -2.8564    2.7597 H   0  0  0  0  0  0  0  0  0  0  0  0
   -7.2727   -0.8381    2.6716 H   0  0  0  0  0  0  0  0  0  0  0  0
   -6.8424   -0.9435    0.9309 H   0  0  0  0  0  0  0  0  0  0  0  0
   -7.5905   -2.3516    1.7580 H   0  0  0  0  0  0  0  0  0  0  0  0
  1  3  1  0  0  0  0
  1  7  1  0  0  0  0
  1  2  2  0  0  0  0
 18 19  1  0  0  0  0
 19 24  1  0  0  0  0
 19 20  2  0  0  0  0
 25 26  1  0  0  0  0
 26 34  1  0  0  0  0
 26 27  2  0  0  0  0
  8  9  1  0  0  0  0
  9 17  1  0  0  0  0
  9 10  2  0  0  0  0
 25 28  1  0  0  0  0
  8 11  1  0  0  0  0
 34 35  1  0  0  0  0
 17 18  1  0  0  0  0
 24 25  1  0  0  0  0
  7  8  1  0  0  0  0
  3  4  1  0  0  0  0
  3  5  1  0  0  0  0
  3  6  1  0  0  0  0
 28 31  1  0  0  0  0
 28 32  1  0  0  0  0
 28 33  1  0  0  0  0
 11 14  1  0  0  0  0
 11 15  1  0  0  0  0
 11 16  1  0  0  0  0
 35 37  1  0  0  0  0
 35 38  1  0  0  0  0
 35 39  1  0  0  0  0
 18 22  1  0  0  0  0
 18 23  1  0  0  0  0
 25 30  1  0  0  0  0
  8 13  1  0  0  0  0
 34 36  1  0  0  0  0
 17 21  1  0  0  0  0
  7 12  1  0  0  0  0
 24 29  1  0  0  0  0
M  END
$$$$

  -OEChem-05262214473D

 39 38  0     1  0  0  0  0  0999 V2000
   -3.5200   -4.0268   -1.6943 C   0  0  0  0  0  0  0  0  0  0  0  0
   -2.8702   -4.8827   -1.1054 O   0  0  0  0  0  0  0  0  0  0  0  0
   -4.9704   -4.2579   -1.9614 C   0  0  0  0  0  0  0  0  0  0  0  0
   -5.1456   -4.7573   -2.9278 H   0  0  0  0  0  0  0  0  0  0  0  0
   -5.4379   -4.9112   -1.2072 H   0  0  0  0  0  0  0  0  0  0  0  0
   -5.5954   -3.3510   -1.9864 H   0  0  0  0  0  0  0  0  0  0  0  0
   -3.0424   -2.8131   -2.1606 N   0  0  0  0  0  0  0  0  0  0  0  0
   -1.6755   -2.3891   -2.0077 C   0  0  2  0  0  0  0  0  0  0  0  0
   -1.5782   -1.5673   -0.7292 C   0  0  0  0  0  0  0  0  0  0  0  0
   -2.5448   -1.0064   -0.2171 O   0  0  0  0  0  0  0  0  0  0  0  0
   -1.2087   -1.5823   -3.2094 C   0  0  0  0  0  0  0  0  0  0  0  0
   -3.6915   -2.1888   -2.6360 H   0  0  0  0  0  0  0  0  0  0  0  0
   -1.0721   -3.2977   -1.9053 H   0  0  0  0  0  0  0  0  0  0  0  0
   -1.8017   -0.6681   -3.3281 H   0  0  0  0  0  0  0  0  0  0  0  0
   -0.1601   -1.2849   -3.1045 H   0  0  0  0  0  0  0  0  0  0  0  0
   -1.3074   -2.1646   -4.1319 H   0  0  0  0  0  0  0  0  0  0  0  0
   -0.2835   -1.5112   -0.2725 N   0  0  0  0  0  0  0  0  0  0  0  0
    0.0769   -0.7658    0.9424 C   0  0  0  0  0  0  0  0  0  0  0  0
   -0.9188   -1.0656    2.0338 C   0  0  0  0  0  0  0  0  0  0  0  0
   -0.8557   -0.5773    3.1589 O   0  0  0  0  0  0  0  0  0  0  0  0
    0.4587   -2.0097   -0.7289 H   0  0  0  0  0  0  0  0  0  0  0  0
    0.0709    0.3059    0.7225 H   0  0  0  0  0  0  0  0  0  0  0  0
    1.0794   -1.0642    1.2628 H   0  0  0  0  0  0  0  0  0  0  0  0
   -1.8976   -1.9551    1.6036 N   0  0  0  0  0  0  0  0  0  0  0  0
   -2.9729   -2.4180    2.4408 C   0  0  2  0  0  0  0  0  0  0  0  0
   -4.2871   -2.0535    1.7630 C   0  0  0  0  0  0  0  0  0  0  0  0
   -4.3865   -1.1519    0.9333 O   0  0  0  0  0  0  0  0  0  0  0  0
   -2.8919   -1.8097    3.8322 C   0  0  0  0  0  0  0  0  0  0  0  0
   -1.8511   -2.2970    0.6451 H   0  0  0  0  0  0  0  0  0  0  0  0
   -2.8814   -3.5081    2.4992 H   0  0  0  0  0  0  0  0  0  0  0  0
   -2.9816   -0.7179    3.7939 H   0  0  0  0  0  0  0  0  0  0  0  0
   -3.6939   -2.1848    4.4765 H   0  0  0  0  0  0  0  0  0  0  0  0
   -1.9338   -2.0480    4.3066 H   0  0  0  0  0  0  0  0  0  0  0  0
   -5.3442   -2.8248    2.2253 N   0  0  0  0  0  0  0  0  0  0  0  0
   -6.6966   -2.6617    1.7454 C   0  0  0  0  0  0  0  0  0  0  0  0
   -5.1666   -3.5627    2.9004 H   0  0  0  0  0  0  0  0  0  0  0  0
   -7.2354   -1.9587    2.3977 H   0  0  0  0  0  0  0  0  0  0  0  0
   -6.6762   -2.2671    0.7188 H   0  0  0  0  0  0  0  0  0  0  0  0
   -7.2085   -3.6354    1.7538 H   0  0  0  0  0  0  0  0  0  0  0  0
  1  3  1  0  0  0  0
  1  7  1  0  0  0  0
  1  2  2  0  0  0  0
 18 19  1  0  0  0  0
 19 24  1  0  0  0  0
 19 20  2  0  0  0  0
 25 26  1  0  0  0  0
 26 34  1  0  0  0  0
 26 27  2  0  0  0  0
  8  9  1  0  0  0  0
  9 17  1  0  0  0  0
  9 10  2  0  0  0  0
 25 28  1  0  0  0  0
  8 11  1  0  0  0  0
 34 35  1  0  0  0  0
 17 18  1  0  0  0  0
 24 25  1  0  0  0  0
  7  8  1  0  0  0  0
  3  4  1  0  0  0  0
  3  5  1  0  0  0  0
  3  6  1  0  0  0  0
 28 31  1  0  0  0  0
 28 32  1  0  0  0  0
 28 33  1  0  0  0  0
 11 14  1  0  0  0  0
 11 15  1  0  0  0  0
 11 16  1  0  0  0  0
 35 37  1  0  0  0  0
 35 38  1  0  0  0  0
 35 39  1  0  0  0  0
 18 22  1  0  0  0  0
 18 23  1  0  0  0  0
 25 30  1  0  0  0  0
  8 13  1  0  0  0  0
 34 36  1  0  0  0  0
 17 21  1  0  0  0  0
  7 12  1  0  0  0  0
 24 29  1  0  0  0  0
M  END
$$$$

  -OEChem-05262214473D

 39 38  0     1  0  0  0  0  0999 V2000
   -3.5200   -4.0268   -1.6943 C   0  0  0  0  0  0  0  0  0  0  0  0
   -2.8702   -4.8827   -1.1054 O   0  0  0  0  0  0  0  0  0  0  0  0
   -4.9704   -4.2579   -1.9614 C   0  0  0  0  0  0  0  0  0  0  0  0
   -5.1456   -4.7573   -2.9278 H   0  0  0  0  0  0  0  0  0  0  0  0
   -5.4379   -4.9112   -1.2072 H   0  0  0  0  0  0  0  0  0  0  0  0
   -5.5954   -3.3510   -1.9864 H   0  0  0  0  0  0  0  0  0  0  0  0
   -3.0424   -2.8131   -2.1606 N   0  0  0  0  0  0  0  0  0  0  0  0
   -1.6755   -2.3891   -2.0077 C   0  0  2  0  0  0  0  0  0  0  0  0
   -1.5782   -1.5673   -0.7292 C   0  0  0  0  0  0  0  0  0  0  0  0
   -2.5448   -1.0064   -0.2171 O   0  0  0  0  0  0  0  0  0  0  0  0
   -1.2087   -1.5823   -3.2094 C   0  0  0  0  0  0  0  0  0  0  0  0
   -3.6915   -2.1888   -2.6360 H   0  0  0  0  0  0  0  0  0  0  0  0
   -1.0721   -3.2977   -1.9053 H   0  0  0  0  0  0  0  0  0  0  0  0
   -1.8017   -0.6681   -3.3281 H   0  0  0  0  0  0  0  0  0  0  0  0
   -0.1601   -1.2849   -3.1045 H   0  0  0  0  0  0  0  0  0  0  0  0
   -1.3074   -2.1646   -4.1319 H   0  0  0  0  0  0  0  0  0  0  0  0
   -0.2835   -1.5112   -0.2725 N   0  0  0  0  0  0  0  0  0  0  0  0
    0.0769   -0.7658    0.9424 C   0  0  0  0  0  0  0  0  0  0  0  0
   -0.9188   -1.0656    2.0338 C   0  0  0  0  0  0  0  0  0  0  0  0
   -1.0225   -0.3944    3.0570 O   0  0  0  0  0  0  0  0  0  0  0  0
    0.4587   -2.0097   -0.7289 H   0  0  0  0  0  0  0  0  0  0  0  0
    0.0709    0.3059    0.7225 H   0  0  0  0  0  0  0  0  0  0  0  0
    1.0794   -1.0642    1.2628 H   0  0  0  0  0  0  0  0  0  0  0  0
   -1.6870   -2.1852    1.7325 N   0  0  0  0  0  0  0  0  0  0  0  0
   -2.7136   -2.7003    2.5997 C   0  0  2  0  0  0  0  0  0  0  0  0
   -4.0233   -2.7124    1.8226 C   0  0  0  0  0  0  0  0  0  0  0  0
   -4.2295   -1.9971    0.8443 O   0  0  0  0  0  0  0  0  0  0  0  0
   -2.8398   -1.8653    3.8645 C   0  0  0  0  0  0  0  0  0  0  0  0
   -1.5138   -2.6662    0.8514 H   0  0  0  0  0  0  0  0  0  0  0  0
   -2.4285   -3.7274    2.8521 H   0  0  0  0  0  0  0  0  0  0  0  0
   -3.1249   -0.8328    3.6316 H   0  0  0  0  0  0  0  0  0  0  0  0
   -3.6015   -2.2750    4.5361 H   0  0  0  0  0  0  0  0  0  0  0  0
   -1.8887   -1.8332    4.4068 H   0  0  0  0  0  0  0  0  0  0  0  0
   -4.9504   -3.5845    2.3758 N   0  0  0  0  0  0  0  0  0  0  0  0
   -6.2742   -3.7659    1.8274 C   0  0  0  0  0  0  0  0  0  0  0  0
   -4.6870   -4.1521    3.1760 H   0  0  0  0  0  0  0  0  0  0  0  0
   -6.9754   -3.0810    2.3265 H   0  0  0  0  0  0  0  0  0  0  0  0
   -6.2567   -3.5507    0.7488 H   0  0  0  0  0  0  0  0  0  0  0  0
   -6.5987   -4.8045    1.9889 H   0  0  0  0  0  0  0  0  0  0  0  0
  1  3  1  0  0  0  0
  1  7  1  0  0  0  0
  1  2  2  0  0  0  0
 18 19  1  0  0  0  0
 19 24  1  0  0  0  0
 19 20  2  0  0  0  0
 25 26  1  0  0  0  0
 26 34  1  0  0  0  0
 26 27  2  0  0  0  0
  8  9  1  0  0  0  0
  9 17  1  0  0  0  0
  9 10  2  0  0  0  0
 25 28  1  0  0  0  0
  8 11  1  0  0  0  0
 34 35  1  0  0  0  0
 17 18  1  0  0  0  0
 24 25  1  0  0  0  0
  7  8  1  0  0  0  0
  3  4  1  0  0  0  0
  3  5  1  0  0  0  0
  3  6  1  0  0  0  0
 28 31  1  0  0  0  0
 28 32  1  0  0  0  0
 28 33  1  0  0  0  0
 11 14  1  0  0  0  0
 11 15  1  0  0  0  0
 11 16  1  0  0  0  0
 35 37  1  0  0  0  0
 35 38  1  0  0  0  0
 35 39  1  0  0  0  0
 18 22  1  0  0  0  0
 18 23  1  0  0  0  0
 25 30  1  0  0  0  0
  8 13  1  0  0  0  0
 34 36  1  0  0  0  0
 17 21  1  0  0  0  0
  7 12  1  0  0  0  0
 24 29  1  0  0  0  0
M  END
$$$$

  -OEChem-05262214473D

 39 38  0     1  0  0  0  0  0999 V2000
   -3.5200   -4.0268   -1.6943 C   0  0  0  0  0  0  0  0  0  0  0  0
   -2.8702   -4.8827   -1.1054 O   0  0  0  0  0  0  0  0  0  0  0  0
   -4.9704   -4.2579   -1.9614 C   0  0  0  0  0  0  0  0  0  0  0  0
   -5.1456   -4.7573   -2.9278 H   0  0  0  0  0  0  0  0  0  0  0  0
   -5.4379   -4.9112   -1.2072 H   0  0  0  0  0  0  0  0  0  0  0  0
   -5.5954   -3.3510   -1.9864 H   0  0  0  0  0  0  0  0  0  0  0  0
   -3.0424   -2.8131   -2.1606 N   0  0  0  0  0  0  0  0  0  0  0  0
   -1.6755   -2.3891   -2.0077 C   0  0  2  0  0  0  0  0  0  0  0  0
   -1.5782   -1.5673   -0.7292 C   0  0  0  0  0  0  0  0  0  0  0  0
   -2.5448   -1.0064   -0.2171 O   0  0  0  0  0  0  0  0  0  0  0  0
   -1.2087   -1.5823   -3.2094 C   0  0  0  0  0  0  0  0  0  0  0  0
   -3.6915   -2.1888   -2.6360 H   0  0  0  0  0  0  0  0  0  0  0  0
   -1.0721   -3.2977   -1.9053 H   0  0  0  0  0  0  0  0  0  0  0  0
   -1.8017   -0.6681   -3.3281 H   0  0  0  0  0  0  0  0  0  0  0  0
   -0.1601   -1.2849   -3.1045 H   0  0  0  0  0  0  0  0  0  0  0  0
   -1.3074   -2.1646   -4.1319 H   0  0  0  0  0  0  0  0  0  0  0  0
   -0.2835   -1.5112   -0.2725 N   0  0  0  0  0  0  0  0  0  0  0  0
    0.0769   -0.7658    0.9424 C   0  0  0  0  0  0  0  0  0  0  0  0
   -0.9188   -1.0656    2.0338 C   0  0  0  0  0  0  0  0  0  0  0  0
   -1.2126   -0.2663    2.9187 O   0  0  0  0  0  0  0  0  0  0  0  0
    0.4587   -2.0097   -0.7289 H   0  0  0  0  0  0  0  0  0  0  0  0
    0.0709    0.3059    0.7225 H   0  0  0  0  0  0  0  0  0  0  0  0
    1.0794   -1.0642    1.2628 H   0  0  0  0  0  0  0  0  0  0  0  0
   -1.4470   -2.3460    1.9072 N   0  0  0  0  0  0  0  0  0  0  0  0
   -2.4185   -2.8972    2.8149 C   0  0  2  0  0  0  0  0  0  0  0  0
   -3.6482   -3.2892    2.0063 C   0  0  0  0  0  0  0  0  0  0  0  0
   -3.9149   -2.7994    0.9109 O   0  0  0  0  0  0  0  0  0  0  0  0
   -2.7807   -1.9037    3.9078 C   0  0  0  0  0  0  0  0  0  0  0  0
   -1.1295   -2.9243    1.1311 H   0  0  0  0  0  0  0  0  0  0  0  0
   -1.9681   -3.7941    3.2538 H   0  0  0  0  0  0  0  0  0  0  0  0
   -3.2334   -0.9984    3.4871 H   0  0  0  0  0  0  0  0  0  0  0  0
   -3.4984   -2.3346    4.6138 H   0  0  0  0  0  0  0  0  0  0  0  0
   -1.8905   -1.6001    4.4692 H   0  0  0  0  0  0  0  0  0  0  0  0
   -4.4354   -4.2188    2.6713 N   0  0  0  0  0  0  0  0  0  0  0  0
   -5.6634   -4.7393    2.1171 C   0  0  0  0  0  0  0  0  0  0  0  0
   -4.1276   -4.5844    3.5676 H   0  0  0  0  0  0  0  0  0  0  0  0
   -6.5103   -4.1284    2.4630 H   0  0  0  0  0  0  0  0  0  0  0  0
   -5.6126   -4.7069    1.0188 H   0  0  0  0  0  0  0  0  0  0  0  0
   -5.8027   -5.7793    2.4472 H   0  0  0  0  0  0  0  0  0  0  0  0
  1  3  1  0  0  0  0
  1  7  1  0  0  0  0
  1  2  2  0  0  0  0
 18 19  1  0  0  0  0
 19 24  1  0  0  0  0
 19 20  2  0  0  0  0
 25 26  1  0  0  0  0
 26 34  1  0  0  0  0
 26 27  2  0  0  0  0
  8  9  1  0  0  0  0
  9 17  1  0  0  0  0
  9 10  2  0  0  0  0
 25 28  1  0  0  0  0
  8 11  1  0  0  0  0
 34 35  1  0  0  0  0
 17 18  1  0  0  0  0
 24 25  1  0  0  0  0
  7  8  1  0  0  0  0
  3  4  1  0  0  0  0
  3  5  1  0  0  0  0
  3  6  1  0  0  0  0
 28 31  1  0  0  0  0
 28 32  1  0  0  0  0
 28 33  1  0  0  0  0
 11 14  1  0  0  0  0
 11 15  1  0  0  0  0
 11 16  1  0  0  0  0
 35 37  1  0  0  0  0
 35 38  1  0  0  0  0
 35 39  1  0  0  0  0
 18 22  1  0  0  0  0
 18 23  1  0  0  0  0
 25 30  1  0  0  0  0
  8 13  1  0  0  0  0
 34 36  1  0  0  0  0
 17 21  1  0  0  0  0
  7 12  1  0  0  0  0
 24 29  1  0  0  0  0
M  END
$$$$

  -OEChem-05262214473D

 39 38  0     1  0  0  0  0  0999 V2000
   -3.5200   -4.0268   -1.6943 C   0  0  0  0  0  0  0  0  0  0  0  0
   -2.8702   -4.8827   -1.1054 O   0  0  0  0  0  0  0  0  0  0  0  0
   -4.9704   -4.2579   -1.9614 C   0  0  0  0  0  0  0  0  0  0  0  0
   -5.1456   -4.7573   -2.9278 H   0  0  0  0  0  0  0  0  0  0  0  0
   -5.4379   -4.9112   -1.2072 H   0  0  0  0  0  0  0  0  0  0  0  0
   -5.5954   -3.3510   -1.9864 H   0  0  0  0  0  0  0  0  0  0  0  0
   -3.0424   -2.8131   -2.1606 N   0  0  0  0  0  0  0  0  0  0  0  0
   -1.6755   -2.3891   -2.0077 C   0  0  2  0  0  0  0  0  0  0  0  0
   -1.5782   -1.5673   -0.7292 C   0  0  0  0  0  0  0  0  0  0  0  0
   -2.5448   -1.0064   -0.2171 O   0  0  0  0  0  0  0  0  0  0  0  0
   -1.2087   -1.5823   -3.2094 C   0  0  0  0  0  0  0  0  0  0  0  0
   -3.6915   -2.1888   -2.6360 H   0  0  0  0  0  0  0  0  0  0  0  0
   -1.0721   -3.2977   -1.9053 H   0  0  0  0  0  0  0  0  0  0  0  0
   -1.8017   -0.6681   -3.3281 H   0  0  0  0  0  0  0  0  0  0  0  0
   -0.1601   -1.2849   -3.1045 H   0  0  0  0  0  0  0  0  0  0  0  0
   -1.3074   -2.1646   -4.1319 H   0  0  0  0  0  0  0  0  0  0  0  0
   -0.2835   -1.5112   -0.2725 N   0  0  0  0  0  0  0  0  0  0  0  0
    0.0769   -0.7658    0.9424 C   0  0  0  0  0  0  0  0  0  0  0  0
   -0.9188   -1.0656    2.0338 C   0  0  0  0  0  0  0  0  0  0  0  0
   -1.4131   -0.2019    2.7535 O   0  0  0  0  0  0  0  0  0  0  0  0
    0.4587   -2.0097   -0.7289 H   0  0  0  0  0  0  0  0  0  0  0  0
    0.0709    0.3059    0.7225 H   0  0  0  0  0  0  0  0  0  0  0  0
    1.0794   -1.0642    1.2628 H   0  0  0  0  0  0  0  0  0  0  0  0
   -1.1941   -2.4265    2.1159 N   0  0  0  0  0  0  0  0  0  0  0  0
   -2.1077   -2.9953    3.0715 C   0  0  2  0  0  0  0  0  0  0  0  0
   -3.1872   -3.7447    2.3017 C   0  0  0  0  0  0  0  0  0  0  0  0
   -3.4641   -3.5039    1.1285 O   0  0  0  0  0  0  0  0  0  0  0  0
   -2.7187   -1.9223    3.9593 C   0  0  0  0  0  0  0  0  0  0  0  0
   -0.7243   -3.0538    1.4652 H   0  0  0  0  0  0  0  0  0  0  0  0
   -1.5316   -3.7035    3.6769 H   0  0  0  0  0  0  0  0  0  0  0  0
   -3.2998   -1.2034    3.3703 H   0  0  0  0  0  0  0  0  0  0  0  0
   -3.3916   -2.3596    4.7043 H   0  0  0  0  0  0  0  0  0  0  0  0
   -1.9392   -1.3647    4.4895 H   0  0  0  0  0  0  0  0  0  0  0  0
   -3.8344   -4.6845    3.0918 N   0  0  0  0  0  0  0  0  0  0  0  0
   -4.9060   -5.5155    2.5948 C   0  0  0  0  0  0  0  0  0  0  0  0
   -3.5263   -4.8302    4.0486 H   0  0  0  0  0  0  0  0  0  0  0  0
   -5.8718   -5.0297    2.7979 H   0  0  0  0  0  0  0  0  0  0  0  0
   -4.7876   -5.6568    1.5104 H   0  0  0  0  0  0  0  0  0  0  0  0
   -4.8747   -6.4934    3.0976 H   0  0  0  0  0  0  0  0  0  0  0  0
  1  3  1  0  0  0  0
  1  7  1  0  0  0  0
  1  2  2  0  0  0  0
 18 19  1  0  0  0  0
 19 24  1  0  0  0  0
 19 20  2  0  0  0  0
 25 26  1  0  0  0  0
 26 34  1  0  0  0  0
 26 27  2  0  0  0  0
  8  9  1  0  0  0  0
  9 17  1  0  0  0  0
  9 10  2  0  0  0  0
 25 28  1  0  0  0  0
  8 11  1  0  0  0  0
 34 35  1  0  0  0  0
 17 18  1  0  0  0  0
 24 25  1  0  0  0  0
  7  8  1  0  0  0  0
  3  4  1  0  0  0  0
  3  5  1  0  0  0  0
  3  6  1  0  0  0  0
 28 31  1  0  0  0  0
 28 32  1  0  0  0  0
 28 33  1  0  0  0  0
 11 14  1  0  0  0  0
 11 15  1  0  0  0  0
 11 16  1  0  0  0  0
 35 37  1  0  0  0  0
 35 38  1  0  0  0  0
 35 39  1  0  0  0  0
 18 22  1  0  0  0  0
 18 23  1  0  0  0  0
 25 30  1  0  0  0  0
  8 13  1  0  0  0  0
 34 36  1  0  0  0  0
 17 21  1  0  0  0  0
  7 12  1  0  0  0  0
 24 29  1  0  0  0  0
M  END
$$$$

  -OEChem-05262214473D

 39 38  0     1  0  0  0  0  0999 V2000
   -3.5200   -4.0268   -1.6943 C   0  0  0  0  0  0  0  0  0  0  0  0
   -2.8702   -4.8827   -1.1054 O   0  0  0  0  0  0  0  0  0  0  0  0
   -4.9704   -4.2579   -1.9614 C   0  0  0  0  0  0  0  0  0  0  0  0
   -5.1456   -4.7573   -2.9278 H   0  0  0  0  0  0  0  0  0  0  0  0
   -5.4379   -4.9112   -1.2072 H   0  0  0  0  0  0  0  0  0  0  0  0
   -5.5954   -3.3510   -1.9864 H   0  0  0  0  0  0  0  0  0  0  0  0
   -3.0424   -2.8131   -2.1606 N   0  0  0  0  0  0  0  0  0  0  0  0
   -1.6755   -2.3891   -2.0077 C   0  0  2  0  0  0  0  0  0  0  0  0
   -1.5782   -1.5673   -0.7292 C   0  0  0  0  0  0  0  0  0  0  0  0
   -2.5448   -1.0064   -0.2171 O   0  0  0  0  0  0  0  0  0  0  0  0
   -1.2087   -1.5823   -3.2094 C   0  0  0  0  0  0  0  0  0  0  0  0
   -3.6915   -2.1888   -2.6360 H   0  0  0  0  0  0  0  0  0  0  0  0
   -1.0721   -3.2977   -1.9053 H   0  0  0  0  0  0  0  0  0  0  0  0
   -1.8017   -0.6681   -3.3281 H   0  0  0  0  0  0  0  0  0  0  0  0
   -0.1601   -1.2849   -3.1045 H   0  0  0  0  0  0  0  0  0  0  0  0
   -1.3074   -2.1646   -4.1319 H   0  0  0  0  0  0  0  0  0  0  0  0
   -0.2835   -1.5112   -0.2725 N   0  0  0  0  0  0  0  0  0  0  0  0
    0.0769   -0.7658    0.9424 C   0  0  0  0  0  0  0  0  0  0  0  0
   -0.9188   -1.0656    2.0338 C   0  0  0  0  0  0  0  0  0  0  0  0
   -1.6104   -0.2055    2.5725 O   0  0  0  0  0  0  0  0  0  0  0  0
    0.4587   -2.0097   -0.7289 H   0  0  0  0  0  0  0  0  0  0  0  0
    0.0709    0.3059    0.7225 H   0  0  0  0  0  0  0  0  0  0  0  0
    1.0794   -1.0642    1.2628 H   0  0  0  0  0  0  0  0  0  0  0  0
   -0.9455   -2.4211    2.3442 N   0  0  0  0  0  0  0  0  0  0  0  0
   -1.8022   -2.9879    3.3522 C   0  0  2  0  0  0  0  0  0  0  0  0
   -2.6718   -4.0477    2.6887 C   0  0  0  0  0  0  0  0  0  0  0  0
   -2.9079   -4.0628    1.4824 O   0  0  0  0  0  0  0  0  0  0  0  0
   -2.6580   -1.9199    4.0154 C   0  0  0  0  0  0  0  0  0  0  0  0
   -0.3258   -3.0458    1.8309 H   0  0  0  0  0  0  0  0  0  0  0  0
   -1.1487   -3.4620    4.0926 H   0  0  0  0  0  0  0  0  0  0  0  0
   -3.3194   -1.4338    3.2890 H   0  0  0  0  0  0  0  0  0  0  0  0
   -3.2884   -2.3483    4.8015 H   0  0  0  0  0  0  0  0  0  0  0  0
   -2.0313   -1.1429    4.4663 H   0  0  0  0  0  0  0  0  0  0  0  0
   -3.1882   -4.9497    3.6084 N   0  0  0  0  0  0  0  0  0  0  0  0
   -4.0535   -6.0417    3.2280 C   0  0  0  0  0  0  0  0  0  0  0  0
   -2.9242   -4.8727    4.5862 H   0  0  0  0  0  0  0  0  0  0  0  0
   -5.1034   -5.7234    3.3083 H   0  0  0  0  0  0  0  0  0  0  0  0
   -3.8381   -6.3357    2.1901 H   0  0  0  0  0  0  0  0  0  0  0  0
   -3.8781   -6.8982    3.8956 H   0  0  0  0  0  0  0  0  0  0  0  0
  1  3  1  0  0  0  0
  1  7  1  0  0  0  0
  1  2  2  0  0  0  0
 18 19  1  0  0  0  0
 19 24  1  0  0  0  0
 19 20  2  0  0  0  0
 25 26  1  0  0  0  0
 26 34  1  0  0  0  0
 26 27  2  0  0  0  0
  8  9  1  0  0  0  0
  9 17  1  0  0  0  0
  9 10  2  0  0  0  0
 25 28  1  0  0  0  0
  8 11  1  0  0  0  0
 34 35  1  0  0  0  0
 17 18  1  0  0  0  0
 24 25  1  0  0  0  0
  7  8  1  0  0  0  0
  3  4  1  0  0  0  0
  3  5  1  0  0  0  0
  3  6  1  0  0  0  0
 28 31  1  0  0  0  0
 28 32  1  0  0  0  0
 28 33  1  0  0  0  0
 11 14  1  0  0  0  0
 11 15  1  0  0  0  0
 11 16  1  0  0  0  0
 35 37  1  0  0  0  0
 35 38  1  0  0  0  0
 35 39  1  0  0  0  0
 18 22  1  0  0  0  0
 18 23  1  0  0  0  0
 25 30  1  0  0  0  0
  8 13  1  0  0  0  0
 34 36  1  0  0  0  0
 17 21  1  0  0  0  0
  7 12  1  0  0  0  0
 24 29  1  0  0  0  0
M  END
$$$$

  -OEChem-05262214473D

 39 38  0     1  0  0  0  0  0999 V2000
   -3.5200   -4.0268   -1.6943 C   0  0  0  0  0  0  0  0  0  0  0  0
   -2.8702   -4.8827   -1.1054 O   0  0  0  0  0  0  0  0  0  0  0  0
   -4.9704   -4.2579   -1.9614 C   0  0  0  0  0  0  0  0  0  0  0  0
   -5.1456   -4.7573   -2.9278 H   0  0  0  0  0  0  0  0  0  0  0  0
   -5.4379   -4.9112   -1.2072 H   0  0  0  0  0  0  0  0  0  0  0  0
   -5.5954   -3.3510   -1.9864 H   0  0  0  0  0  0  0  0  0  0  0  0
   -3.0424   -2.8131   -2.1606 N   0  0  0  0  0  0  0  0  0  0  0  0
   -1.6755   -2.3891   -2.0077 C   0  0  2  0  0  0  0  0  0  0  0  0
   -1.5782   -1.5673   -0.7292 C   0  0  0  0  0  0  0  0  0  0  0  0
   -2.5448   -1.0064   -0.2171 O   0  0  0  0  0  0  0  0  0  0  0  0
   -1.2087   -1.5823   -3.2094 C   0  0  0  0  0  0  0  0  0  0  0  0
   -3.6915   -2.1888   -2.6360 H   0  0  0  0  0  0  0  0  0  0  0  0
   -1.0721   -3.2977   -1.9053 H   0  0  0  0  0  0  0  0  0  0  0  0
   -1.8017   -0.6681   -3.3281 H   0  0  0  0  0  0  0  0  0  0  0  0
   -0.1601   -1.2849   -3.1045 H   0  0  0  0  0  0  0  0  0  0  0  0
   -1.3074   -2.1646   -4.1319 H   0  0  0  0  0  0  0  0  0  0  0  0
   -0.2835   -1.5112   -0.2725 N   0  0  0  0  0  0  0  0  0  0  0  0
    0.0769   -0.7658    0.9424 C   0  0  0  0  0  0  0  0  0  0  0  0
   -0.9188   -1.0656    2.0338 C   0  0  0  0  0  0  0  0  0  0  0  0
   -1.7910   -0.2769    2.3882 O   0  0  0  0  0  0  0  0  0  0  0  0
    0.4587   -2.0097   -0.7289 H   0  0  0  0  0  0  0  0  0  0  0  0
    0.0709    0.3059    0.7225 H   0  0  0  0  0  0  0  0  0  0  0  0
    1.0794   -1.0642    1.2628 H   0  0  0  0  0  0  0  0  0  0  0  0
   -0.7181   -2.3303    2.5766 N   0  0  0  0  0  0  0  0  0  0  0  0
   -1.5230   -2.8756    3.6378 C   0  0  2  0  0  0  0  0  0  0  0  0
   -2.1370   -4.1777    3.1408 C   0  0  0  0  0  0  0  0  0  0  0  0
   -2.2841   -4.4379    1.9484 O   0  0  0  0  0  0  0  0  0  0  0  0
   -2.6026   -1.8966    4.0723 C   0  0  0  0  0  0  0  0  0  0  0  0
    0.0387   -2.9009    2.2032 H   0  0  0  0  0  0  0  0  0  0  0  0
   -0.8456   -3.0858    4.4726 H   0  0  0  0  0  0  0  0  0  0  0  0
   -3.2911   -1.6739    3.2489 H   0  0  0  0  0  0  0  0  0  0  0  0
   -3.1959   -2.3014    4.8988 H   0  0  0  0  0  0  0  0  0  0  0  0
   -2.1607   -0.9499    4.4013 H   0  0  0  0  0  0  0  0  0  0  0  0
   -2.5409   -4.9966    4.1860 N   0  0  0  0  0  0  0  0  0  0  0  0
   -3.1641   -6.2820    3.9734 C   0  0  0  0  0  0  0  0  0  0  0  0
   -2.3624   -4.7091    5.1438 H   0  0  0  0  0  0  0  0  0  0  0  0
   -4.2575   -6.1622    3.9595 H   0  0  0  0  0  0  0  0  0  0  0  0
   -2.8287   -6.6974    3.0116 H   0  0  0  0  0  0  0  0  0  0  0  0
   -2.8806   -6.9659    4.7870 H   0  0  0  0  0  0  0  0  0  0  0  0
  1  3  1  0  0  0  0
  1  7  1  0  0  0  0
  1  2  2  0  0  0  0
 18 19  1  0  0  0  0
 19 24  1  0  0  0  0
 19 20  2  0  0  0  0
 25 26  1  0  0  0  0
 26 34  1  0  0  0  0
 26 27  2  0  0  0  0
  8  9  1  0  0  0  0
  9 17  1  0  0  0  0
  9 10  2  0  0  0  0
 25 28  1  0  0  0  0
  8 11  1  0  0  0  0
 34 35  1  0  0  0  0
 17 18  1  0  0  0  0
 24 25  1  0  0  0  0
  7  8  1  0  0  0  0
  3  4  1  0  0  0  0
  3  5  1  0  0  0  0
  3  6  1  0  0  0  0
 28 31  1  0  0  0  0
 28 32  1  0  0  0  0
 28 33  1  0  0  0  0
 11 14  1  0  0  0  0
 11 15  1  0  0  0  0
 11 16  1  0  0  0  0
 35 37  1  0  0  0  0
 35 38  1  0  0  0  0
 35 39  1  0  0  0  0
 18 22  1  0  0  0  0
 18 23  1  0  0  0  0
 25 30  1  0  0  0  0
  8 13  1  0  0  0  0
 34 36  1  0  0  0  0
 17 21  1  0  0  0  0
  7 12  1  0  0  0  0
 24 29  1  0  0  0  0
M  END
$$$$

  -OEChem-05262214473D

 39 38  0     1  0  0  0  0  0999 V2000
   -3.5200   -4.0268   -1.6943 C   0  0  0  0  0  0  0  0  0  0  0  0
   -2.8702   -4.8827   -1.1054 O   0  0  0  0  0  0  0  0  0  0  0  0
   -4.9704   -4.2579   -1.9614 C   0  0  0  0  0  0  0  0  0  0  0  0
   -5.1456   -4.7573   -2.9278 H   0  0  0  0  0  0  0  0  0  0  0  0
   -5.4379   -4.9112   -1.2072 H   0  0  0  0  0  0  0  0  0  0  0  0
   -5.5954   -3.3510   -1.9864 H   0  0  0  0  0  0  0  0  0  0  0  0
   -3.0424   -2.8131   -2.1606 N   0  0  0  0  0  0  0  0  0  0  0  0
   -1.6755   -2.3891   -2.0077 C   0  0  2  0  0  0  0  0  0  0  0  0
   -1.5782   -1.5673   -0.7292 C   0  0  0  0  0  0  0  0  0  0  0  0
   -2.5448   -1.0064   -0.2171 O   0  0  0  0  0  0  0  0  0  0  0  0
   -1.2087   -1.5823   -3.2094 C   0  0  0  0  0  0  0  0  0  0  0  0
   -3.6915   -2.1888   -2.6360 H   0  0  0  0  0  0  0  0  0  0  0  0
   -1.0721   -3.2977   -1.9053 H   0  0  0  0  0  0  0  0  0  0  0  0
   -1.8017   -0.6681   -3.3281 H   0  0  0  0  0  0  0  0  0  0  0  0
   -0.1601   -1.2849   -3.1045 H   0  0  0  0  0  0  0  0  0  0  0  0
   -1.3074   -2.1646   -4.1319 H   0  0  0  0  0  0  0  0  0  0  0  0
   -0.2835   -1.5112   -0.2725 N   0  0  0  0  0  0  0  0  0  0  0  0
    0.0769   -0.7658    0.9424 C   0  0  0  0  0  0  0  0  0  0  0  0
   -0.9188   -1.0656    2.0338 C   0  0  0  0  0  0  0  0  0  0  0  0
   -1.9425   -0.4112    2.2130 O   0  0  0  0  0  0  0  0  0  0  0  0
    0.4587   -2.0097   -0.7289 H   0  0  0  0  0  0  0  0  0  0  0  0
    0.0709    0.3059    0.7225 H   0  0  0  0  0  0  0  0  0  0  0  0
    1.0794   -1.0642    1.2628 H   0  0  0  0  0  0  0  0  0  0  0  0
   -0.5274   -2.1603    2.7972 N   0  0  0  0  0  0  0  0  0  0  0  0
   -1.2891   -2.6660    3.9088 C   0  0  2  0  0  0  0  0  0  0  0  0
   -1.6195   -4.1258    3.6273 C   0  0  0  0  0  0  0  0  0  0  0  0
   -1.6353   -4.6036    2.4948 O   0  0  0  0  0  0  0  0  0  0  0  0
   -2.5565   -1.8540    4.1261 C   0  0  0  0  0  0  0  0  0  0  0  0
    0.3445   -2.6290    2.5570 H   0  0  0  0  0  0  0  0  0  0  0  0
   -0.6428   -2.6007    4.7909 H   0  0  0  0  0  0  0  0  0  0  0  0
   -3.2166   -1.9073    3.2527 H   0  0  0  0  0  0  0  0  0  0  0  0
   -3.1203   -2.2221    4.9896 H   0  0  0  0  0  0  0  0  0  0  0  0
   -2.3185   -0.7989    4.2989 H   0  0  0  0  0  0  0  0  0  0  0  0
   -1.9366   -4.8218    4.7853 N   0  0  0  0  0  0  0  0  0  0  0  0
   -2.2984   -6.2200    4.7803 C   0  0  0  0  0  0  0  0  0  0  0  0
   -1.8791   -4.3504    5.6833 H   0  0  0  0  0  0  0  0  0  0  0  0
   -3.3917   -6.3162    4.7070 H   0  0  0  0  0  0  0  0  0  0  0  0
   -1.8282   -6.7171    3.9190 H   0  0  0  0  0  0  0  0  0  0  0  0
   -1.9504   -6.6921    5.7109 H   0  0  0  0  0  0  0  0  0  0  0  0
  1  3  1  0  0  0  0
  1  7  1  0  0  0  0
  1  2  2  0  0  0  0
 18 19  1  0  0  0  0
 19 24  1  0  0  0  0
 19 20  2  0  0  0  0
 25 26  1  0  0  0  0
 26 34  1  0  0  0  0
 26 27  2  0  0  0  0
  8  9  1  0  0  0  0
  9 17  1  0  0  0  0
  9 10  2  0  0  0  0
 25 28  1  0  0  0  0
  8 11  1  0  0  0  0
 34 35  1  0  0  0  0
 17 18  1  0  0  0  0
 24 25  1  0  0  0  0
  7  8  1  0  0  0  0
  3  4  1  0  0  0  0
  3  5  1  0  0  0  0
  3  6  1  0  0  0  0
 28 31  1  0  0  0  0
 28 32  1  0  0  0  0
 28 33  1  0  0  0  0
 11 14  1  0  0  0  0
 11 15  1  0  0  0  0
 11 16  1  0  0  0  0
 35 37  1  0  0  0  0
 35 38  1  0  0  0  0
 35 39  1  0  0  0  0
 18 22  1  0  0  0  0
 18 23  1  0  0  0  0
 25 30  1  0  0  0  0
  8 13  1  0  0  0  0
 34 36  1  0  0  0  0
 17 21  1  0  0  0  0
  7 12  1  0  0  0  0
 24 29  1  0  0  0  0
M  END
$$$$

  -OEChem-05262214473D

 39 38  0     1  0  0  0  0  0999 V2000
   -3.5200   -4.0268   -1.6943 C   0  0  0  0  0  0  0  0  0  0  0  0
   -2.8702   -4.8827   -1.1054 O   0  0  0  0  0  0  0  0  0  0  0  0
   -4.9704   -4.2579   -1.9614 C   0  0  0  0  0  0  0  0  0  0  0  0
   -5.1456   -4.7573   -2.9278 H   0  0  0  0  0  0  0  0  0  0  0  0
   -5.4379   -4.9112   -1.2072 H   0  0  0  0  0  0  0  0  0  0  0  0
   -5.5954   -3.3510   -1.9864 H   0  0  0  0  0  0  0  0  0  0  0  0
   -3.0424   -2.8131   -2.1606 N   0  0  0  0  0  0  0  0  0  0  0  0
   -1.6755   -2.3891   -2.0077 C   0  0  2  0  0  0  0  0  0  0  0  0
   -1.5782   -1.5673   -0.7292 C   0  0  0  0  0  0  0  0  0  0  0  0
   -2.5448   -1.0064   -0.2171 O   0  0  0  0  0  0  0  0  0  0  0  0
   -1.2087   -1.5823   -3.2094 C   0  0  0  0  0  0  0  0  0  0  0  0
   -3.6915   -2.1888   -2.6360 H   0  0  0  0  0  0  0  0  0  0  0  0
   -1.0721   -3.2977   -1.9053 H   0  0  0  0  0  0  0  0  0  0  0  0
   -1.8017   -0.6681   -3.3281 H   0  0  0  0  0  0  0  0  0  0  0  0
   -0.1601   -1.2849   -3.1045 H   0  0  0  0  0  0  0  0  0  0  0  0
   -1.3074   -2.1646   -4.1319 H   0  0  0  0  0  0  0  0  0  0  0  0
   -0.2835   -1.5112   -0.2725 N   0  0  0  0  0  0  0  0  0  0  0  0
    0.0769   -0.7658    0.9424 C   0  0  0  0  0  0  0  0  0  0  0  0
   -0.9188   -1.0656    2.0338 C   0  0  0  0  0  0  0  0  0  0  0  0
   -2.0547   -0.5993    2.0590 O   0  0  0  0  0  0  0  0  0  0  0  0
    0.4587   -2.0097   -0.7289 H   0  0  0  0  0  0  0  0  0  0  0  0
    0.0709    0.3059    0.7225 H   0  0  0  0  0  0  0  0  0  0  0  0
    1.0794   -1.0642    1.2628 H   0  0  0  0  0  0  0  0  0  0  0  0
   -0.3865   -1.9226    2.9911 N   0  0  0  0  0  0  0  0  0  0  0  0
   -1.1164   -2.3733    4.1468 C   0  0  2  0  0  0  0  0  0  0  0  0
   -1.1543   -3.8955    4.1149 C   0  0  0  0  0  0  0  0  0  0  0  0
   -1.0057   -4.5488    3.0843 O   0  0  0  0  0  0  0  0  0  0  0  0
   -2.5226   -1.7950    4.1732 C   0  0  0  0  0  0  0  0  0  0  0  0
    0.5707   -2.2486    2.8679 H   0  0  0  0  0  0  0  0  0  0  0  0
   -0.5542   -2.0397    5.0258 H   0  0  0  0  0  0  0  0  0  0  0  0
   -3.1012   -2.1183    3.3001 H   0  0  0  0  0  0  0  0  0  0  0  0
   -3.0669   -2.1159    5.0675 H   0  0  0  0  0  0  0  0  0  0  0  0
   -2.4939   -0.7000    4.1660 H   0  0  0  0  0  0  0  0  0  0  0  0
   -1.4166   -4.4373    5.3655 N   0  0  0  0  0  0  0  0  0  0  0  0
   -1.5153   -5.8600    5.5936 C   0  0  0  0  0  0  0  0  0  0  0  0
   -1.5072   -3.8212    6.1679 H   0  0  0  0  0  0  0  0  0  0  0  0
   -2.5650   -6.1750    5.5000 H   0  0  0  0  0  0  0  0  0  0  0  0
   -0.9048   -6.3936    4.8503 H   0  0  0  0  0  0  0  0  0  0  0  0
   -1.1507   -6.0953    6.6045 H   0  0  0  0  0  0  0  0  0  0  0  0
  1  3  1  0  0  0  0
  1  7  1  0  0  0  0
  1  2  2  0  0  0  0
 18 19  1  0  0  0  0
 19 24  1  0  0  0  0
 19 20  2  0  0  0  0
 25 26  1  0  0  0  0
 26 34  1  0  0  0  0
 26 27  2  0  0  0  0
  8  9  1  0  0  0  0
  9 17  1  0  0  0  0
  9 10  2  0  0  0  0
 25 28  1  0  0  0  0
  8 11  1  0  0  0  0
 34 35  1  0  0  0  0
 17 18  1  0  0  0  0
 24 25  1  0  0  0  0
  7  8  1  0  0  0  0
  3  4  1  0  0  0  0
  3  5  1  0  0  0  0
  3  6  1  0  0  0  0
 28 31  1  0  0  0  0
 28 32  1  0  0  0  0
 28 33  1  0  0  0  0
 11 14  1  0  0  0  0
 11 15  1  0  0  0  0
 11 16  1  0  0  0  0
 35 37  1  0  0  0  0
 35 38  1  0  0  0  0
 35 39  1  0  0  0  0
 18 22  1  0  0  0  0
 18 23  1  0  0  0  0
 25 30  1  0  0  0  0
  8 13  1  0  0  0  0
 34 36  1  0  0  0  0
 17 21  1  0  0  0  0
  7 12  1  0  0  0  0
 24 29  1  0  0  0  0
M  END
$$$$

  -OEChem-05262214473D

 39 38  0     1  0  0  0  0  0999 V2000
   -3.5200   -4.0268   -1.6943 C   0  0  0  0  0  0  0  0  0  0  0  0
   -2.8702   -4.8827   -1.1054 O   0  0  0  0  0  0  0  0  0  0  0  0
   -4.9704   -4.2579   -1.9614 C   0  0  0  0  0  0  0  0  0  0  0  0
   -5.1456   -4.7573   -2.9278 H   0  0  0  0  0  0  0  0  0  0  0  0
   -5.4379   -4.9112   -1.2072 H   0  0  0  0  0  0  0  0  0  0  0  0
   -5.5954   -3.3510   -1.9864 H   0  0  0  0  0  0  0  0  0  0  0  0
   -3.0424   -2.8131   -2.1606 N   0  0  0  0  0  0  0  0  0  0  0  0
   -1.6755   -2.3891   -2.0077 C   0  0  2  0  0  0  0  0  0  0  0  0
   -1.5782   -1.5673   -0.7292 C   0  0  0  0  0  0  0  0  0  0  0  0
   -2.5448   -1.0064   -0.2171 O   0  0  0  0  0  0  0  0  0  0  0  0
   -1.2087   -1.5823   -3.2094 C   0  0  0  0  0  0  0  0  0  0  0  0
   -3.6915   -2.1888   -2.6360 H   0  0  0  0  0  0  0  0  0  0  0  0
   -1.0721   -3.2977   -1.9053 H   0  0  0  0  0  0  0  0  0  0  0  0
   -1.8017   -0.6681   -3.3281 H   0  0  0  0  0  0  0  0  0  0  0  0
   -0.1601   -1.2849   -3.1045 H   0  0  0  0  0  0  0  0  0  0  0  0
   -1.3074   -2.1646   -4.1319 H   0  0  0  0  0  0  0  0  0  0  0  0
   -0.2835   -1.5112   -0.2725 N   0  0  0  0  0  0  0  0  0  0  0  0
    0.0769   -0.7658    0.9424 C   0  0  0  0  0  0  0  0  0  0  0  0
   -0.9188   -1.0656    2.0338 C   0  0  0  0  0  0  0  0  0  0  0  0
   -2.1199   -0.8283    1.9366 O   0  0  0  0  0  0  0  0  0  0  0  0
    0.4587   -2.0097   -0.7289 H   0  0  0  0  0  0  0  0  0  0  0  0
    0.0709    0.3059    0.7225 H   0  0  0  0  0  0  0  0  0  0  0  0
    1.0794   -1.0642    1.2628 H   0  0  0  0  0  0  0  0  0  0  0  0
   -0.3048   -1.6335    3.1451 N   0  0  0  0  0  0  0  0  0  0  0  0
   -1.0166   -2.0176    4.3355 C   0  0  2  0  0  0  0  0  0  0  0  0
   -0.7733   -3.5025    4.5706 C   0  0  0  0  0  0  0  0  0  0  0  0
   -0.4382   -4.2770    3.6767 O   0  0  0  0  0  0  0  0  0  0  0  0
   -2.5034   -1.7236    4.2103 C   0  0  0  0  0  0  0  0  0  0  0  0
    0.7020   -1.7857    3.1148 H   0  0  0  0  0  0  0  0  0  0  0  0
   -0.5859   -1.4411    5.1614 H   0  0  0  0  0  0  0  0  0  0  0  0
   -2.9525   -2.2923    3.3879 H   0  0  0  0  0  0  0  0  0  0  0  0
   -3.0392   -1.9899    5.1274 H   0  0  0  0  0  0  0  0  0  0  0  0
   -2.6751   -0.6602    4.0117 H   0  0  0  0  0  0  0  0  0  0  0  0
   -1.0162   -3.8692    5.8869 N   0  0  0  0  0  0  0  0  0  0  0  0
   -0.8682   -5.2265    6.3580 C   0  0  0  0  0  0  0  0  0  0  0  0
   -1.2721   -3.1574    6.5648 H   0  0  0  0  0  0  0  0  0  0  0  0
   -1.8338   -5.7481    6.2844 H   0  0  0  0  0  0  0  0  0  0  0  0
   -0.1215   -5.7489    5.7421 H   0  0  0  0  0  0  0  0  0  0  0  0
   -0.5361   -5.2163    7.4067 H   0  0  0  0  0  0  0  0  0  0  0  0
  1  3  1  0  0  0  0
  1  7  1  0  0  0  0
  1  2  2  0  0  0  0
 18 19  1  0  0  0  0
 19 24  1  0  0  0  0
 19 20  2  0  0  0  0
 25 26  1  0  0  0  0
 26 34  1  0  0  0  0
 26 27  2  0  0  0  0
  8  9  1  0  0  0  0
  9 17  1  0  0  0  0
  9 10  2  0  0  0  0
 25 28  1  0  0  0  0
  8 11  1  0  0  0  0
 34 35  1  0  0  0  0
 17 18  1  0  0  0  0
 24 25  1  0  0  0  0
  7  8  1  0  0  0  0
  3  4  1  0  0  0  0
  3  5  1  0  0  0  0
  3  6  1  0  0  0  0
 28 31  1  0  0  0  0
 28 32  1  0  0  0  0
 28 33  1  0  0  0  0
 11 14  1  0  0  0  0
 11 15  1  0  0  0  0
 11 16  1  0  0  0  0
 35 37  1  0  0  0  0
 35 38  1  0  0  0  0
 35 39  1  0  0  0  0
 18 22  1  0  0  0  0
 18 23  1  0  0  0  0
 25 30  1  0  0  0  0
  8 13  1  0  0  0  0
 34 36  1  0  0  0  0
 17 21  1  0  0  0  0
  7 12  1  0  0  0  0
 24 29  1  0  0  0  0
M  END
$$$$

  -OEChem-05262214473D

 39 38  0     1  0  0  0  0  0999 V2000
   -3.5200   -4.0268   -1.6943 C   0  0  0  0  0  0  0  0  0  0  0  0
   -2.8702   -4.8827   -1.1054 O   0  0  0  0  0  0  0  0  0  0  0  0
   -4.9704   -4.2579   -1.9614 C   0  0  0  0  0  0  0  0  0  0  0  0
   -5.1456   -4.7573   -2.9278 H   0  0  0  0  0  0  0  0  0  0  0  0
   -5.4379   -4.9112   -1.2072 H   0  0  0  0  0  0  0  0  0  0  0  0
   -5.5954   -3.3510   -1.9864 H   0  0  0  0  0  0  0  0  0  0  0  0
   -3.0424   -2.8131   -2.1606 N   0  0  0  0  0  0  0  0  0  0  0  0
   -1.6755   -2.3891   -2.0077 C   0  0  2  0  0  0  0  0  0  0  0  0
   -1.5782   -1.5673   -0.7292 C   0  0  0  0  0  0  0  0  0  0  0  0
   -2.5448   -1.0064   -0.2171 O   0  0  0  0  0  0  0  0  0  0  0  0
   -1.2087   -1.5823   -3.2094 C   0  0  0  0  0  0  0  0  0  0  0  0
   -3.6915   -2.1888   -2.6360 H   0  0  0  0  0  0  0  0  0  0  0  0
   -1.0721   -3.2977   -1.9053 H   0  0  0  0  0  0  0  0  0  0  0  0
   -1.8017   -0.6681   -3.3281 H   0  0  0  0  0  0  0  0  0  0  0  0
   -0.1601   -1.2849   -3.1045 H   0  0  0  0  0  0  0  0  0  0  0  0
   -1.3074   -2.1646   -4.1319 H   0  0  0  0  0  0  0  0  0  0  0  0
   -0.2835   -1.5112   -0.2725 N   0  0  0  0  0  0  0  0  0  0  0  0
    0.0769   -0.7658    0.9424 C   0  0  0  0  0  0  0  0  0  0  0  0
   -0.9188   -1.0656    2.0338 C   0  0  0  0  0  0  0  0  0  0  0  0
   -2.1336   -1.0826    1.8542 O   0  0  0  0  0  0  0  0  0  0  0  0
    0.4587   -2.0097   -0.7289 H   0  0  0  0  0  0  0  0  0  0  0  0
    0.0709    0.3059    0.7225 H   0  0  0  0  0  0  0  0  0  0  0  0
    1.0794   -1.0642    1.2628 H   0  0  0  0  0  0  0  0  0  0  0  0
   -0.2881   -1.3126    3.2485 N   0  0  0  0  0  0  0  0  0  0  0  0
   -0.9967   -1.6230    4.4622 C   0  0  2  0  0  0  0  0  0  0  0  0
   -0.5023   -2.9736    4.9631 C   0  0  0  0  0  0  0  0  0  0  0  0
    0.0286   -3.8069    4.2318 O   0  0  0  0  0  0  0  0  0  0  0  0
   -2.5002   -1.6447    4.2350 C   0  0  0  0  0  0  0  0  0  0  0  0
    0.7293   -1.2716    3.2809 H   0  0  0  0  0  0  0  0  0  0  0  0
   -0.7356   -0.8456    5.1885 H   0  0  0  0  0  0  0  0  0  0  0  0
   -2.7809   -2.4175    3.5101 H   0  0  0  0  0  0  0  0  0  0  0  0
   -3.0391   -1.8528    5.1652 H   0  0  0  0  0  0  0  0  0  0  0  0
   -2.8496   -0.6820    3.8465 H   0  0  0  0  0  0  0  0  0  0  0  0
   -0.7627   -3.1564    6.3140 N   0  0  0  0  0  0  0  0  0  0  0  0
   -0.4012   -4.3626    7.0214 C   0  0  0  0  0  0  0  0  0  0  0  0
   -1.1899   -2.4044    6.8467 H   0  0  0  0  0  0  0  0  0  0  0  0
   -1.2480   -5.0646    7.0067 H   0  0  0  0  0  0  0  0  0  0  0  0
    0.4685   -4.8270    6.5336 H   0  0  0  0  0  0  0  0  0  0  0  0
   -0.1485   -4.1149    8.0630 H   0  0  0  0  0  0  0  0  0  0  0  0
  1  3  1  0  0  0  0
  1  7  1  0  0  0  0
  1  2  2  0  0  0  0
 18 19  1  0  0  0  0
 19 24  1  0  0  0  0
 19 20  2  0  0  0  0
 25 26  1  0  0  0  0
 26 34  1  0  0  0  0
 26 27  2  0  0  0  0
  8  9  1  0  0  0  0
  9 17  1  0  0  0  0
  9 10  2  0  0  0  0
 25 28  1  0  0  0  0
  8 11  1  0  0  0  0
 34 35  1  0  0  0  0
 17 18  1  0  0  0  0
 24 25  1  0  0  0  0
  7  8  1  0  0  0  0
  3  4  1  0  0  0  0
  3  5  1  0  0  0  0
  3  6  1  0  0  0  0
 28 31  1  0  0  0  0
 28 32  1  0  0  0  0
 28 33  1  0  0  0  0
 11 14  1  0  0  0  0
 11 15  1  0  0  0  0
 11 16  1  0  0  0  0
 35 37  1  0  0  0  0
 35 38  1  0  0  0  0
 35 39  1  0  0  0  0
 18 22  1  0  0  0  0
 18 23  1  0  0  0  0
 25 30  1  0  0  0  0
  8 13  1  0  0  0  0
 34 36  1  0  0  0  0
 17 21  1  0  0  0  0
  7 12  1  0  0  0  0
 24 29  1  0  0  0  0
M  END
$$$$

  -OEChem-05262214473D

 39 38  0     1  0  0  0  0  0999 V2000
   -3.5200   -4.0268   -1.6943 C   0  0  0  0  0  0  0  0  0  0  0  0
   -2.8702   -4.8827   -1.1054 O   0  0  0  0  0  0  0  0  0  0  0  0
   -4.9704   -4.2579   -1.9614 C   0  0  0  0  0  0  0  0  0  0  0  0
   -5.1456   -4.7573   -2.9278 H   0  0  0  0  0  0  0  0  0  0  0  0
   -5.4379   -4.9112   -1.2072 H   0  0  0  0  0  0  0  0  0  0  0  0
   -5.5954   -3.3510   -1.9864 H   0  0  0  0  0  0  0  0  0  0  0  0
   -3.0424   -2.8131   -2.1606 N   0  0  0  0  0  0  0  0  0  0  0  0
   -1.6755   -2.3891   -2.0077 C   0  0  2  0  0  0  0  0  0  0  0  0
   -1.5782   -1.5673   -0.7292 C   0  0  0  0  0  0  0  0  0  0  0  0
   -2.5448   -1.0064   -0.2171 O   0  0  0  0  0  0  0  0  0  0  0  0
   -1.2087   -1.5823   -3.2094 C   0  0  0  0  0  0  0  0  0  0  0  0
   -3.6915   -2.1888   -2.6360 H   0  0  0  0  0  0  0  0  0  0  0  0
   -1.0721   -3.2977   -1.9053 H   0  0  0  0  0  0  0  0  0  0  0  0
   -1.8017   -0.6681   -3.3281 H   0  0  0  0  0  0  0  0  0  0  0  0
   -0.1601   -1.2849   -3.1045 H   0  0  0  0  0  0  0  0  0  0  0  0
   -1.3074   -2.1646   -4.1319 H   0  0  0  0  0  0  0  0  0  0  0  0
   -0.2835   -1.5112   -0.2725 N   0  0  0  0  0  0  0  0  0  0  0  0
    0.0769   -0.7658    0.9424 C   0  0  0  0  0  0  0  0  0  0  0  0
   -0.9188   -1.0656    2.0338 C   0  0  0  0  0  0  0  0  0  0  0  0
   -2.0950   -1.3450    1.8173 O   0  0  0  0  0  0  0  0  0  0  0  0
    0.4587   -2.0097   -0.7289 H   0  0  0  0  0  0  0  0  0  0  0  0
    0.0709    0.3059    0.7225 H   0  0  0  0  0  0  0  0  0  0  0  0
    1.0794   -1.0642    1.2628 H   0  0  0  0  0  0  0  0  0  0  0  0
   -0.3373   -0.9818    3.2945 N   0  0  0  0  0  0  0  0  0  0  0  0
   -1.0578   -1.2165    4.5181 C   0  0  2  0  0  0  0  0  0  0  0  0
   -0.3599   -2.3449    5.2658 C   0  0  0  0  0  0  0  0  0  0  0  0
    0.3628   -3.1705    4.7116 O   0  0  0  0  0  0  0  0  0  0  0  0
   -2.5131   -1.5637    4.2454 C   0  0  0  0  0  0  0  0  0  0  0  0
    0.6507   -0.7416    3.3549 H   0  0  0  0  0  0  0  0  0  0  0  0
   -0.9932   -0.2938    5.1051 H   0  0  0  0  0  0  0  0  0  0  0  0
   -2.5979   -2.4854    3.6583 H   0  0  0  0  0  0  0  0  0  0  0  0
   -3.0666   -1.7139    5.1782 H   0  0  0  0  0  0  0  0  0  0  0  0
   -3.0055   -0.7640    3.6817 H   0  0  0  0  0  0  0  0  0  0  0  0
   -0.6734   -2.3473    6.6178 N   0  0  0  0  0  0  0  0  0  0  0  0
   -0.1462   -3.3272    7.5386 C   0  0  0  0  0  0  0  0  0  0  0  0
   -1.2660   -1.6135    6.9946 H   0  0  0  0  0  0  0  0  0  0  0  0
   -0.8473   -4.1712    7.6178 H   0  0  0  0  0  0  0  0  0  0  0  0
    0.8248   -3.6906    7.1709 H   0  0  0  0  0  0  0  0  0  0  0  0
   -0.0143   -2.8662    8.5286 H   0  0  0  0  0  0  0  0  0  0  0  0
  1  3  1  0  0  0  0
  1  7  1  0  0  0  0
  1  2  2  0  0  0  0
 18 19  1  0  0  0  0
 19 24  1  0  0  0  0
 19 20  2  0  0  0  0
 25 26  1  0  0  0  0
 26 34  1  0  0  0  0
 26 27  2  0  0  0  0
  8  9  1  0  0  0  0
  9 17  1  0  0  0  0
  9 10  2  0  0  0  0
 25 28  1  0  0  0  0
  8 11  1  0  0  0  0
 34 35  1  0  0  0  0
 17 18  1  0  0  0  0
 24 25  1  0  0  0  0
  7  8  1  0  0  0  0
  3  4  1  0  0  0  0
  3  5  1  0  0  0  0
  3  6  1  0  0  0  0
 28 31  1  0  0  0  0
 28 32  1  0  0  0  0
 28 33  1  0  0  0  0
 11 14  1  0  0  0  0
 11 15  1  0  0  0  0
 11 16  1  0  0  0  0
 35 37  1  0  0  0  0
 35 38  1  0  0  0  0
 35 39  1  0  0  0  0
 18 22  1  0  0  0  0
 18 23  1  0  0  0  0
 25 30  1  0  0  0  0
  8 13  1  0  0  0  0
 34 36  1  0  0  0  0
 17 21  1  0  0  0  0
  7 12  1  0  0  0  0
 24 29  1  0  0  0  0
M  END
$$$$

  -OEChem-05262214473D

 39 38  0     1  0  0  0  0  0999 V2000
   -3.5200   -4.0268   -1.6943 C   0  0  0  0  0  0  0  0  0  0  0  0
   -2.8702   -4.8827   -1.1054 O   0  0  0  0  0  0  0  0  0  0  0  0
   -4.9704   -4.2579   -1.9614 C   0  0  0  0  0  0  0  0  0  0  0  0
   -5.1456   -4.7573   -2.9278 H   0  0  0  0  0  0  0  0  0  0  0  0
   -5.4379   -4.9112   -1.2072 H   0  0  0  0  0  0  0  0  0  0  0  0
   -5.5954   -3.3510   -1.9864 H   0  0  0  0  0  0  0  0  0  0  0  0
   -3.0424   -2.8131   -2.1606 N   0  0  0  0  0  0  0  0  0  0  0  0
   -1.6755   -2.3891   -2.0077 C   0  0  2  0  0  0  0  0  0  0  0  0
   -1.5782   -1.5673   -0.7292 C   0  0  0  0  0  0  0  0  0  0  0  0
   -2.5448   -1.0064   -0.2171 O   0  0  0  0  0  0  0  0  0  0  0  0
   -1.2087   -1.5823   -3.2094 C   0  0  0  0  0  0  0  0  0  0  0  0
   -3.6915   -2.1888   -2.6360 H   0  0  0  0  0  0  0  0  0  0  0  0
   -1.0721   -3.2977   -1.9053 H   0  0  0  0  0  0  0  0  0  0  0  0
   -1.8017   -0.6681   -3.3281 H   0  0  0  0  0  0  0  0  0  0  0  0
   -0.1601   -1.2849   -3.1045 H   0  0  0  0  0  0  0  0  0  0  0  0
   -1.3074   -2.1646   -4.1319 H   0  0  0  0  0  0  0  0  0  0  0  0
   -0.2835   -1.5112   -0.2725 N   0  0  0  0  0  0  0  0  0  0  0  0
    0.0769   -0.7658    0.9424 C   0  0  0  0  0  0  0  0  0  0  0  0
   -0.9188   -1.0656    2.0338 C   0  0  0  0  0  0  0  0  0  0  0  0
   -2.0066   -1.5974    1.8286 O   0  0  0  0  0  0  0  0  0  0  0  0
    0.4587   -2.0097   -0.7289 H   0  0  0  0  0  0  0  0  0  0  0  0
    0.0709    0.3059    0.7225 H   0  0  0  0  0  0  0  0  0  0  0  0
    1.0794   -1.0642    1.2628 H   0  0  0  0  0  0  0  0  0  0  0  0
   -0.4493   -0.6637    3.2797 N   0  0  0  0  0  0  0  0  0  0  0  0
   -1.1959   -0.8257    4.4994 C   0  0  2  0  0  0  0  0  0  0  0  0
   -0.3557   -1.6591    5.4580 C   0  0  0  0  0  0  0  0  0  0  0  0
    0.5417   -2.4111    5.0834 O   0  0  0  0  0  0  0  0  0  0  0  0
   -2.5413   -1.4860    4.2411 C   0  0  0  0  0  0  0  0  0  0  0  0
    0.4718   -0.2317    3.3318 H   0  0  0  0  0  0  0  0  0  0  0  0
   -1.3411    0.1766    4.9169 H   0  0  0  0  0  0  0  0  0  0  0  0
   -2.4161   -2.4913    3.8225 H   0  0  0  0  0  0  0  0  0  0  0  0
   -3.1199   -1.5826    5.1656 H   0  0  0  0  0  0  0  0  0  0  0  0
   -3.1323   -0.9006    3.5285 H   0  0  0  0  0  0  0  0  0  0  0  0
   -0.7544   -1.4971    6.7775 N   0  0  0  0  0  0  0  0  0  0  0  0
   -0.1205   -2.1909    7.8742 C   0  0  0  0  0  0  0  0  0  0  0  0
   -1.4954   -0.8384    6.9983 H   0  0  0  0  0  0  0  0  0  0  0  0
   -0.6591   -3.1286    8.0759 H   0  0  0  0  0  0  0  0  0  0  0  0
    0.9232   -2.4171    7.6106 H   0  0  0  0  0  0  0  0  0  0  0  0
   -0.1425   -1.5553    8.7717 H   0  0  0  0  0  0  0  0  0  0  0  0
  1  3  1  0  0  0  0
  1  7  1  0  0  0  0
  1  2  2  0  0  0  0
 18 19  1  0  0  0  0
 19 24  1  0  0  0  0
 19 20  2  0  0  0  0
 25 26  1  0  0  0  0
 26 34  1  0  0  0  0
 26 27  2  0  0  0  0
  8  9  1  0  0  0  0
  9 17  1  0  0  0  0
  9 10  2  0  0  0  0
 25 28  1  0  0  0  0
  8 11  1  0  0  0  0
 34 35  1  0  0  0  0
 17 18  1  0  0  0  0
 24 25  1  0  0  0  0
  7  8  1  0  0  0  0
  3  4  1  0  0  0  0
  3  5  1  0  0  0  0
  3  6  1  0  0  0  0
 28 31  1  0  0  0  0
 28 32  1  0  0  0  0
 28 33  1  0  0  0  0
 11 14  1  0  0  0  0
 11 15  1  0  0  0  0
 11 16  1  0  0  0  0
 35 37  1  0  0  0  0
 35 38  1  0  0  0  0
 35 39  1  0  0  0  0
 18 22  1  0  0  0  0
 18 23  1  0  0  0  0
 25 30  1  0  0  0  0
  8 13  1  0  0  0  0
 34 36  1  0  0  0  0
 17 21  1  0  0  0  0
  7 12  1  0  0  0  0
 24 29  1  0  0  0  0
M  END
$$$$

  -OEChem-05262214473D

 39 38  0     1  0  0  0  0  0999 V2000
   -3.5200   -4.0268   -1.6943 C   0  0  0  0  0  0  0  0  0  0  0  0
   -2.8702   -4.8827   -1.1054 O   0  0  0  0  0  0  0  0  0  0  0  0
   -4.9704   -4.2579   -1.9614 C   0  0  0  0  0  0  0  0  0  0  0  0
   -5.1456   -4.7573   -2.9278 H   0  0  0  0  0  0  0  0  0  0  0  0
   -5.4379   -4.9112   -1.2072 H   0  0  0  0  0  0  0  0  0  0  0  0
   -5.5954   -3.3510   -1.9864 H   0  0  0  0  0  0  0  0  0  0  0  0
   -3.0424   -2.8131   -2.1606 N   0  0  0  0  0  0  0  0  0  0  0  0
   -1.6755   -2.3891   -2.0077 C   0  0  2  0  0  0  0  0  0  0  0  0
   -1.5782   -1.5673   -0.7292 C   0  0  0  0  0  0  0  0  0  0  0  0
   -2.5448   -1.0064   -0.2171 O   0  0  0  0  0  0  0  0  0  0  0  0
   -1.2087   -1.5823   -3.2094 C   0  0  0  0  0  0  0  0  0  0  0  0
   -3.6915   -2.1888   -2.6360 H   0  0  0  0  0  0  0  0  0  0  0  0
   -1.0721   -3.2977   -1.9053 H   0  0  0  0  0  0  0  0  0  0  0  0
   -1.8017   -0.6681   -3.3281 H   0  0  0  0  0  0  0  0  0  0  0  0
   -0.1601   -1.2849   -3.1045 H   0  0  0  0  0  0  0  0  0  0  0  0
   -1.3074   -2.1646   -4.1319 H   0  0  0  0  0  0  0  0  0  0  0  0
   -0.2835   -1.5112   -0.2725 N   0  0  0  0  0  0  0  0  0  0  0  0
    0.0769   -0.7658    0.9424 C   0  0  0  0  0  0  0  0  0  0  0  0
   -0.6733   -1.3289    2.1224 C   0  0  0  0  0  0  0  0  0  0  0  0
   -1.4600   -2.2681    2.0374 O   0  0  0  0  0  0  0  0  0  0  0  0
    0.4587   -2.0097   -0.7289 H   0  0  0  0  0  0  0  0  0  0  0  0
   -0.1840    0.2883    0.8089 H   0  0  0  0  0  0  0  0  0  0  0  0
    1.1541   -0.8537    1.1115 H   0  0  0  0  0  0  0  0  0  0  0  0
   -0.3624   -0.6521    3.2971 N   0  0  0  0  0  0  0  0  0  0  0  0
   -0.9361   -0.9775    4.5763 C   0  0  2  0  0  0  0  0  0  0  0  0
    0.2027   -1.3072    5.5323 C   0  0  0  0  0  0  0  0  0  0  0  0
    1.3135   -1.6713    5.1521 O   0  0  0  0  0  0  0  0  0  0  0  0
   -1.9081   -2.1419    4.4667 C   0  0  0  0  0  0  0  0  0  0  0  0
    0.3068    0.1145    3.2495 H   0  0  0  0  0  0  0  0  0  0  0  0
   -1.4590   -0.0806    4.9258 H   0  0  0  0  0  0  0  0  0  0  0  0
   -1.4023   -3.0496    4.1179 H   0  0  0  0  0  0  0  0  0  0  0  0
   -2.3652   -2.3697    5.4353 H   0  0  0  0  0  0  0  0  0  0  0  0
   -2.7102   -1.9145    3.7562 H   0  0  0  0  0  0  0  0  0  0  0  0
   -0.1804   -1.1885    6.8609 N   0  0  0  0  0  0  0  0  0  0  0  0
    0.7183   -1.4596    7.9586 C   0  0  0  0  0  0  0  0  0  0  0  0
   -1.1160   -0.8620    7.0840 H   0  0  0  0  0  0  0  0  0  0  0  0
    0.6120   -2.5095    8.2694 H   0  0  0  0  0  0  0  0  0  0  0  0
    1.7543   -1.2752    7.6383 H   0  0  0  0  0  0  0  0  0  0  0  0
    0.4731   -0.8004    8.8044 H   0  0  0  0  0  0  0  0  0  0  0  0
  1  3  1  0  0  0  0
  1  7  1  0  0  0  0
  1  2  2  0  0  0  0
 18 19  1  0  0  0  0
 19 24  1  0  0  0  0
 19 20  2  0  0  0  0
 25 26  1  0  0  0  0
 26 34  1  0  0  0  0
 26 27  2  0  0  0  0
  8  9  1  0  0  0  0
  9 17  1  0  0  0  0
  9 10  2  0  0  0  0
 25 28  1  0  0  0  0
  8 11  1  0  0  0  0
 34 35  1  0  0  0  0
 17 18  1  0  0  0  0
 24 25  1  0  0  0  0
  7  8  1  0  0  0  0
  3  4  1  0  0  0  0
  3  5  1  0  0  0  0
  3  6  1  0  0  0  0
 28 31  1  0  0  0  0
 28 32  1  0  0  0  0
 28 33  1  0  0  0  0
 11 14  1  0  0  0  0
 11 15  1  0  0  0  0
 11 16  1  0  0  0  0
 35 37  1  0  0  0  0
 35 38  1  0  0  0  0
 35 39  1  0  0  0  0
 18 22  1  0  0  0  0
 18 23  1  0  0  0  0
 25 30  1  0  0  0  0
  8 13  1  0  0  0  0
 34 36  1  0  0  0  0
 17 21  1  0  0  0  0
  7 12  1  0  0  0  0
 24 29  1  0  0  0  0
M  END
$$$$

  -OEChem-05262214473D

 39 38  0     1  0  0  0  0  0999 V2000
   -3.5200   -4.0268   -1.6943 C   0  0  0  0  0  0  0  0  0  0  0  0
   -2.8702   -4.8827   -1.1054 O   0  0  0  0  0  0  0  0  0  0  0  0
   -4.9704   -4.2579   -1.9614 C   0  0  0  0  0  0  0  0  0  0  0  0
   -5.1456   -4.7573   -2.9278 H   0  0  0  0  0  0  0  0  0  0  0  0
   -5.4379   -4.9112   -1.2072 H   0  0  0  0  0  0  0  0  0  0  0  0
   -5.5954   -3.3510   -1.9864 H   0  0  0  0  0  0  0  0  0  0  0  0
   -3.0424   -2.8131   -2.1606 N   0  0  0  0  0  0  0  0  0  0  0  0
   -1.6755   -2.3891   -2.0077 C   0  0  2  0  0  0  0  0  0  0  0  0
   -1.5782   -1.5673   -0.7292 C   0  0  0  0  0  0  0  0  0  0  0  0
   -2.5448   -1.0064   -0.2171 O   0  0  0  0  0  0  0  0  0  0  0  0
   -1.2087   -1.5823   -3.2094 C   0  0  0  0  0  0  0  0  0  0  0  0
   -3.6915   -2.1888   -2.6360 H   0  0  0  0  0  0  0  0  0  0  0  0
   -1.0721   -3.2977   -1.9053 H   0  0  0  0  0  0  0  0  0  0  0  0
   -1.8017   -0.6681   -3.3281 H   0  0  0  0  0  0  0  0  0  0  0  0
   -0.1601   -1.2849   -3.1045 H   0  0  0  0  0  0  0  0  0  0  0  0
   -1.3074   -2.1646   -4.1319 H   0  0  0  0  0  0  0  0  0  0  0  0
   -0.2835   -1.5112   -0.2725 N   0  0  0  0  0  0  0  0  0  0  0  0
    0.0769   -0.7658    0.9424 C   0  0  0  0  0  0  0  0  0  0  0  0
   -0.6733   -1.3289    2.1224 C   0  0  0  0  0  0  0  0  0  0  0  0
   -1.2461   -2.4151    2.1032 O   0  0  0  0  0  0  0  0  0  0  0  0
    0.4587   -2.0097   -0.7289 H   0  0  0  0  0  0  0  0  0  0  0  0
   -0.1840    0.2883    0.8089 H   0  0  0  0  0  0  0  0  0  0  0  0
    1.1541   -0.8537    1.1115 H   0  0  0  0  0  0  0  0  0  0  0  0
   -0.6324   -0.4674    3.2136 N   0  0  0  0  0  0  0  0  0  0  0  0
   -1.2682   -0.7511    4.4732 C   0  0  2  0  0  0  0  0  0  0  0  0
   -0.1990   -0.7196    5.5574 C   0  0  0  0  0  0  0  0  0  0  0  0
    0.9967   -0.8861    5.3254 O   0  0  0  0  0  0  0  0  0  0  0  0
   -1.9747   -2.0975    4.4456 C   0  0  0  0  0  0  0  0  0  0  0  0
   -0.1256    0.4108    3.1161 H   0  0  0  0  0  0  0  0  0  0  0  0
   -1.9921    0.0518    4.6500 H   0  0  0  0  0  0  0  0  0  0  0  0
   -1.2653   -2.9144    4.2696 H   0  0  0  0  0  0  0  0  0  0  0  0
   -2.4818   -2.2990    5.3949 H   0  0  0  0  0  0  0  0  0  0  0  0
   -2.7226   -2.1288    3.6460 H   0  0  0  0  0  0  0  0  0  0  0  0
   -0.7416   -0.5265    6.8201 N   0  0  0  0  0  0  0  0  0  0  0  0
    0.0665   -0.4715    8.0158 C   0  0  0  0  0  0  0  0  0  0  0  0
   -1.7419   -0.3786    6.9168 H   0  0  0  0  0  0  0  0  0  0  0  0
    0.1349   -1.4758    8.4593 H   0  0  0  0  0  0  0  0  0  0  0  0
    1.0750   -0.1141    7.7606 H   0  0  0  0  0  0  0  0  0  0  0  0
   -0.3947    0.2177    8.7386 H   0  0  0  0  0  0  0  0  0  0  0  0
  1  3  1  0  0  0  0
  1  7  1  0  0  0  0
  1  2  2  0  0  0  0
 18 19  1  0  0  0  0
 19 24  1  0  0  0  0
 19 20  2  0  0  0  0
 25 26  1  0  0  0  0
 26 34  1  0  0  0  0
 26 27  2  0  0  0  0
  8  9  1  0  0  0  0
  9 17  1  0  0  0  0
  9 10  2  0  0  0  0
 25 28  1  0  0  0  0
  8 11  1  0  0  0  0
 34 35  1  0  0  0  0
 17 18  1  0  0  0  0
 24 25  1  0  0  0  0
  7  8  1  0  0  0  0
  3  4  1  0  0  0  0
  3  5  1  0  0  0  0
  3  6  1  0  0  0  0
 28 31  1  0  0  0  0
 28 32  1  0  0  0  0
 28 33  1  0  0  0  0
 11 14  1  0  0  0  0
 11 15  1  0  0  0  0
 11 16  1  0  0  0  0
 35 37  1  0  0  0  0
 35 38  1  0  0  0  0
 35 39  1  0  0  0  0
 18 22  1  0  0  0  0
 18 23  1  0  0  0  0
 25 30  1  0  0  0  0
  8 13  1  0  0  0  0
 34 36  1  0  0  0  0
 17 21  1  0  0  0  0
  7 12  1  0  0  0  0
 24 29  1  0  0  0  0
M  END
$$$$

  -OEChem-05262214473D

 39 38  0     1  0  0  0  0  0999 V2000
   -3.5200   -4.0268   -1.6943 C   0  0  0  0  0  0  0  0  0  0  0  0
   -2.8702   -4.8827   -1.1054 O   0  0  0  0  0  0  0  0  0  0  0  0
   -4.9704   -4.2579   -1.9614 C   0  0  0  0  0  0  0  0  0  0  0  0
   -5.1456   -4.7573   -2.9278 H   0  0  0  0  0  0  0  0  0  0  0  0
   -5.4379   -4.9112   -1.2072 H   0  0  0  0  0  0  0  0  0  0  0  0
   -5.5954   -3.3510   -1.9864 H   0  0  0  0  0  0  0  0  0  0  0  0
   -3.0424   -2.8131   -2.1606 N   0  0  0  0  0  0  0  0  0  0  0  0
   -1.6755   -2.3891   -2.0077 C   0  0  2  0  0  0  0  0  0  0  0  0
   -1.5782   -1.5673   -0.7292 C   0  0  0  0  0  0  0  0  0  0  0  0
   -2.5448   -1.0064   -0.2171 O   0  0  0  0  0  0  0  0  0  0  0  0
   -1.2087   -1.5823   -3.2094 C   0  0  0  0  0  0  0  0  0  0  0  0
   -3.6915   -2.1888   -2.6360 H   0  0  0  0  0  0  0  0  0  0  0  0
   -1.0721   -3.2977   -1.9053 H   0  0  0  0  0  0  0  0  0  0  0  0
   -1.8017   -0.6681   -3.3281 H   0  0  0  0  0  0  0  0  0  0  0  0
   -0.1601   -1.2849   -3.1045 H   0  0  0  0  0  0  0  0  0  0  0  0
   -1.3074   -2.1646   -4.1319 H   0  0  0  0  0  0  0  0  0  0  0  0
   -0.2835   -1.5112   -0.2725 N   0  0  0  0  0  0  0  0  0  0  0  0
    0.0769   -0.7658    0.9424 C   0  0  0  0  0  0  0  0  0  0  0  0
   -0.6733   -1.3289    2.1224 C   0  0  0  0  0  0  0  0  0  0  0  0
   -1.0161   -2.5052    2.2064 O   0  0  0  0  0  0  0  0  0  0  0  0
    0.4587   -2.0097   -0.7289 H   0  0  0  0  0  0  0  0  0  0  0  0
   -0.1840    0.2883    0.8089 H   0  0  0  0  0  0  0  0  0  0  0  0
    1.1541   -0.8537    1.1115 H   0  0  0  0  0  0  0  0  0  0  0  0
   -0.9225   -0.3544    3.0831 N   0  0  0  0  0  0  0  0  0  0  0  0
   -1.6248   -0.6130    4.3124 C   0  0  2  0  0  0  0  0  0  0  0  0
   -0.7084   -0.2301    5.4671 C   0  0  0  0  0  0  0  0  0  0  0  0
    0.5148   -0.1696    5.3610 O   0  0  0  0  0  0  0  0  0  0  0  0
   -2.0459   -2.0708    4.4131 C   0  0  0  0  0  0  0  0  0  0  0  0
   -0.5903    0.5924    2.9072 H   0  0  0  0  0  0  0  0  0  0  0  0
   -2.5072    0.0361    4.3151 H   0  0  0  0  0  0  0  0  0  0  0  0
   -1.1750   -2.7364    4.4119 H   0  0  0  0  0  0  0  0  0  0  0  0
   -2.6048   -2.2596    5.3355 H   0  0  0  0  0  0  0  0  0  0  0  0
   -2.6806   -2.3525    3.5660 H   0  0  0  0  0  0  0  0  0  0  0  0
   -1.4139   -0.0060    6.6410 N   0  0  0  0  0  0  0  0  0  0  0  0
   -0.7688    0.3583    7.8808 C   0  0  0  0  0  0  0  0  0  0  0  0
   -2.4282   -0.0600    6.6326 H   0  0  0  0  0  0  0  0  0  0  0  0
   -0.5537   -0.5496    8.4635 H   0  0  0  0  0  0  0  0  0  0  0  0
    0.1718    0.8856    7.6634 H   0  0  0  0  0  0  0  0  0  0  0  0
   -1.4329    1.0167    8.4599 H   0  0  0  0  0  0  0  0  0  0  0  0
  1  3  1  0  0  0  0
  1  7  1  0  0  0  0
  1  2  2  0  0  0  0
 18 19  1  0  0  0  0
 19 24  1  0  0  0  0
 19 20  2  0  0  0  0
 25 26  1  0  0  0  0
 26 34  1  0  0  0  0
 26 27  2  0  0  0  0
  8  9  1  0  0  0  0
  9 17  1  0  0  0  0
  9 10  2  0  0  0  0
 25 28  1  0  0  0  0
  8 11  1  0  0  0  0
 34 35  1  0  0  0  0
 17 18  1  0  0  0  0
 24 25  1  0  0  0  0
  7  8  1  0  0  0  0
  3  4  1  0  0  0  0
  3  5  1  0  0  0  0
  3  6  1  0  0  0  0
 28 31  1  0  0  0  0
 28 32  1  0  0  0  0
 28 33  1  0  0  0  0
 11 14  1  0  0  0  0
 11 15  1  0  0  0  0
 11 16  1  0  0  0  0
 35 37  1  0  0  0  0
 35 38  1  0  0  0  0
 35 39  1  0  0  0  0
 18 22  1  0  0  0  0
 18 23  1  0  0  0  0
 25 30  1  0  0  0  0
  8 13  1  0  0  0  0
 34 36  1  0  0  0  0
 17 21  1  0  0  0  0
  7 12  1  0  0  0  0
 24 29  1  0  0  0  0
M  END
$$$$

  -OEChem-05262214473D

 39 38  0     1  0  0  0  0  0999 V2000
   -3.5200   -4.0268   -1.6943 C   0  0  0  0  0  0  0  0  0  0  0  0
   -2.8702   -4.8827   -1.1054 O   0  0  0  0  0  0  0  0  0  0  0  0
   -4.9704   -4.2579   -1.9614 C   0  0  0  0  0  0  0  0  0  0  0  0
   -5.1456   -4.7573   -2.9278 H   0  0  0  0  0  0  0  0  0  0  0  0
   -5.4379   -4.9112   -1.2072 H   0  0  0  0  0  0  0  0  0  0  0  0
   -5.5954   -3.3510   -1.9864 H   0  0  0  0  0  0  0  0  0  0  0  0
   -3.0424   -2.8131   -2.1606 N   0  0  0  0  0  0  0  0  0  0  0  0
   -1.6755   -2.3891   -2.0077 C   0  0  2  0  0  0  0  0  0  0  0  0
   -1.5782   -1.5673   -0.7292 C   0  0  0  0  0  0  0  0  0  0  0  0
   -2.5448   -1.0064   -0.2171 O   0  0  0  0  0  0  0  0  0  0  0  0
   -1.2087   -1.5823   -3.2094 C   0  0  0  0  0  0  0  0  0  0  0  0
   -3.6915   -2.1888   -2.6360 H   0  0  0  0  0  0  0  0  0  0  0  0
   -1.0721   -3.2977   -1.9053 H   0  0  0  0  0  0  0  0  0  0  0  0
   -1.8017   -0.6681   -3.3281 H   0  0  0  0  0  0  0  0  0  0  0  0
   -0.1601   -1.2849   -3.1045 H   0  0  0  0  0  0  0  0  0  0  0  0
   -1.3074   -2.1646   -4.1319 H   0  0  0  0  0  0  0  0  0  0  0  0
   -0.2835   -1.5112   -0.2725 N   0  0  0  0  0  0  0  0  0  0  0  0
    0.0769   -0.7658    0.9424 C   0  0  0  0  0  0  0  0  0  0  0  0
   -0.6733   -1.3289    2.1224 C   0  0  0  0  0  0  0  0  0  0  0  0
   -0.7857   -2.5324    2.3399 O   0  0  0  0  0  0  0  0  0  0  0  0
    0.4587   -2.0097   -0.7289 H   0  0  0  0  0  0  0  0  0  0  0  0
   -0.1840    0.2883    0.8089 H   0  0  0  0  0  0  0  0  0  0  0  0
    1.1541   -0.8537    1.1115 H   0  0  0  0  0  0  0  0  0  0  0  0
   -1.2130   -0.3209    2.9144 N   0  0  0  0  0  0  0  0  0  0  0  0
   -1.9817   -0.5725    4.1048 C   0  0  2  0  0  0  0  0  0  0  0  0
   -1.2909    0.1278    5.2675 C   0  0  0  0  0  0  0  0  0  0  0  0
   -0.0993    0.4295    5.2565 O   0  0  0  0  0  0  0  0  0  0  0  0
   -2.1169   -2.0637    4.3713 C   0  0  0  0  0  0  0  0  0  0  0  0
   -1.0558    0.6466    2.6372 H   0  0  0  0  0  0  0  0  0  0  0  0
   -2.9692   -0.1266    3.9438 H   0  0  0  0  0  0  0  0  0  0  0  0
   -1.1376   -2.5279    4.5351 H   0  0  0  0  0  0  0  0  0  0  0  0
   -2.7259   -2.2541    5.2612 H   0  0  0  0  0  0  0  0  0  0  0  0
   -2.5870   -2.5704    3.5216 H   0  0  0  0  0  0  0  0  0  0  0  0
   -2.1514    0.3374    6.3361 N   0  0  0  0  0  0  0  0  0  0  0  0
   -1.7306    0.9732    7.5628 C   0  0  0  0  0  0  0  0  0  0  0  0
   -3.1281    0.0721    6.2506 H   0  0  0  0  0  0  0  0  0  0  0  0
   -1.4070    0.2061    8.2817 H   0  0  0  0  0  0  0  0  0  0  0  0
   -0.8938    1.6557    7.3535 H   0  0  0  0  0  0  0  0  0  0  0  0
   -2.5707    1.5424    7.9875 H   0  0  0  0  0  0  0  0  0  0  0  0
  1  3  1  0  0  0  0
  1  7  1  0  0  0  0
  1  2  2  0  0  0  0
 18 19  1  0  0  0  0
 19 24  1  0  0  0  0
 19 20  2  0  0  0  0
 25 26  1  0  0  0  0
 26 34  1  0  0  0  0
 26 27  2  0  0  0  0
  8  9  1  0  0  0  0
  9 17  1  0  0  0  0
  9 10  2  0  0  0  0
 25 28  1  0  0  0  0
  8 11  1  0  0  0  0
 34 35  1  0  0  0  0
 17 18  1  0  0  0  0
 24 25  1  0  0  0  0
  7  8  1  0  0  0  0
  3  4  1  0  0  0  0
  3  5  1  0  0  0  0
  3  6  1  0  0  0  0
 28 31  1  0  0  0  0
 28 32  1  0  0  0  0
 28 33  1  0  0  0  0
 11 14  1  0  0  0  0
 11 15  1  0  0  0  0
 11 16  1  0  0  0  0
 35 37  1  0  0  0  0
 35 38  1  0  0  0  0
 35 39  1  0  0  0  0
 18 22  1  0  0  0  0
 18 23  1  0  0  0  0
 25 30  1  0  0  0  0
  8 13  1  0  0  0  0
 34 36  1  0  0  0  0
 17 21  1  0  0  0  0
  7 12  1  0  0  0  0
 24 29  1  0  0  0  0
M  END
$$$$

  -OEChem-05262214473D

 39 38  0     1  0  0  0  0  0999 V2000
   -3.5200   -4.0268   -1.6943 C   0  0  0  0  0  0  0  0  0  0  0  0
   -2.8702   -4.8827   -1.1054 O   0  0  0  0  0  0  0  0  0  0  0  0
   -4.9704   -4.2579   -1.9614 C   0  0  0  0  0  0  0  0  0  0  0  0
   -5.1456   -4.7573   -2.9278 H   0  0  0  0  0  0  0  0  0  0  0  0
   -5.4379   -4.9112   -1.2072 H   0  0  0  0  0  0  0  0  0  0  0  0
   -5.5954   -3.3510   -1.9864 H   0  0  0  0  0  0  0  0  0  0  0  0
   -3.0424   -2.8131   -2.1606 N   0  0  0  0  0  0  0  0  0  0  0  0
   -1.6755   -2.3891   -2.0077 C   0  0  2  0  0  0  0  0  0  0  0  0
   -1.5782   -1.5673   -0.7292 C   0  0  0  0  0  0  0  0  0  0  0  0
   -2.5448   -1.0064   -0.2171 O   0  0  0  0  0  0  0  0  0  0  0  0
   -1.2087   -1.5823   -3.2094 C   0  0  0  0  0  0  0  0  0  0  0  0
   -3.6915   -2.1888   -2.6360 H   0  0  0  0  0  0  0  0  0  0  0  0
   -1.0721   -3.2977   -1.9053 H   0  0  0  0  0  0  0  0  0  0  0  0
   -1.8017   -0.6681   -3.3281 H   0  0  0  0  0  0  0  0  0  0  0  0
   -0.1601   -1.2849   -3.1045 H   0  0  0  0  0  0  0  0  0  0  0  0
   -1.3074   -2.1646   -4.1319 H   0  0  0  0  0  0  0  0  0  0  0  0
   -0.2835   -1.5112   -0.2725 N   0  0  0  0  0  0  0  0  0  0  0  0
    0.0769   -0.7658    0.9424 C   0  0  0  0  0  0  0  0  0  0  0  0
   -0.6733   -1.3289    2.1224 C   0  0  0  0  0  0  0  0  0  0  0  0
   -0.5705   -2.4947    2.4947 O   0  0  0  0  0  0  0  0  0  0  0  0
    0.4587   -2.0097   -0.7289 H   0  0  0  0  0  0  0  0  0  0  0  0
   -0.1840    0.2883    0.8089 H   0  0  0  0  0  0  0  0  0  0  0  0
    1.1541   -0.8537    1.1115 H   0  0  0  0  0  0  0  0  0  0  0  0
   -1.4840   -0.3691    2.7191 N   0  0  0  0  0  0  0  0  0  0  0  0
   -2.3146   -0.6325    3.8646 C   0  0  2  0  0  0  0  0  0  0  0  0
   -1.9068    0.3298    4.9724 C   0  0  0  0  0  0  0  0  0  0  0  0
   -0.8038    0.8703    5.0190 O   0  0  0  0  0  0  0  0  0  0  0  0
   -2.1830   -2.0765    4.3232 C   0  0  0  0  0  0  0  0  0  0  0  0
   -1.4904    0.5699    2.3244 H   0  0  0  0  0  0  0  0  0  0  0  0
   -3.3466   -0.4251    3.5614 H   0  0  0  0  0  0  0  0  0  0  0  0
   -1.1556   -2.3031    4.6310 H   0  0  0  0  0  0  0  0  0  0  0  0
   -2.8369   -2.2828    5.1769 H   0  0  0  0  0  0  0  0  0  0  0  0
   -2.4481   -2.7676    3.5158 H   0  0  0  0  0  0  0  0  0  0  0  0
   -2.9039    0.4804    5.9260 N   0  0  0  0  0  0  0  0  0  0  0  0
   -2.7536    1.3312    7.0834 C   0  0  0  0  0  0  0  0  0  0  0  0
   -3.7941    0.0086    5.7970 H   0  0  0  0  0  0  0  0  0  0  0  0
   -2.3667    0.7397    7.9262 H   0  0  0  0  0  0  0  0  0  0  0  0
   -2.0491    2.1438    6.8520 H   0  0  0  0  0  0  0  0  0  0  0  0
   -3.7305    1.7587    7.3534 H   0  0  0  0  0  0  0  0  0  0  0  0
  1  3  1  0  0  0  0
  1  7  1  0  0  0  0
  1  2  2  0  0  0  0
 18 19  1  0  0  0  0
 19 24  1  0  0  0  0
 19 20  2  0  0  0  0
 25 26  1  0  0  0  0
 26 34  1  0  0  0  0
 26 27  2  0  0  0  0
  8  9  1  0  0  0  0
  9 17  1  0  0  0  0
  9 10  2  0  0  0  0
 25 28  1  0  0  0  0
  8 11  1  0  0  0  0
 34 35  1  0  0  0  0
 17 18  1  0  0  0  0
 24 25  1  0  0  0  0
  7  8  1  0  0  0  0
  3  4  1  0  0  0  0
  3  5  1  0  0  0  0
  3  6  1  0  0  0  0
 28 31  1  0  0  0  0
 28 32  1  0  0  0  0
 28 33  1  0  0  0  0
 11 14  1  0  0  0  0
 11 15  1  0  0  0  0
 11 16  1  0  0  0  0
 35 37  1  0  0  0  0
 35 38  1  0  0  0  0
 35 39  1  0  0  0  0
 18 22  1  0  0  0  0
 18 23  1  0  0  0  0
 25 30  1  0  0  0  0
  8 13  1  0  0  0  0
 34 36  1  0  0  0  0
 17 21  1  0  0  0  0
  7 12  1  0  0  0  0
 24 29  1  0  0  0  0
M  END
$$$$

  -OEChem-05262214473D

 39 38  0     1  0  0  0  0  0999 V2000
   -3.5200   -4.0268   -1.6943 C   0  0  0  0  0  0  0  0  0  0  0  0
   -2.8702   -4.8827   -1.1054 O   0  0  0  0  0  0  0  0  0  0  0  0
   -4.9704   -4.2579   -1.9614 C   0  0  0  0  0  0  0  0  0  0  0  0
   -5.1456   -4.7573   -2.9278 H   0  0  0  0  0  0  0  0  0  0  0  0
   -5.4379   -4.9112   -1.2072 H   0  0  0  0  0  0  0  0  0  0  0  0
   -5.5954   -3.3510   -1.9864 H   0  0  0  0  0  0  0  0  0  0  0  0
   -3.0424   -2.8131   -2.1606 N   0  0  0  0  0  0  0  0  0  0  0  0
   -1.6755   -2.3891   -2.0077 C   0  0  2  0  0  0  0  0  0  0  0  0
   -1.5782   -1.5673   -0.7292 C   0  0  0  0  0  0  0  0  0  0  0  0
   -2.5448   -1.0064   -0.2171 O   0  0  0  0  0  0  0  0  0  0  0  0
   -1.2087   -1.5823   -3.2094 C   0  0  0  0  0  0  0  0  0  0  0  0
   -3.6915   -2.1888   -2.6360 H   0  0  0  0  0  0  0  0  0  0  0  0
   -1.0721   -3.2977   -1.9053 H   0  0  0  0  0  0  0  0  0  0  0  0
   -1.8017   -0.6681   -3.3281 H   0  0  0  0  0  0  0  0  0  0  0  0
   -0.1601   -1.2849   -3.1045 H   0  0  0  0  0  0  0  0  0  0  0  0
   -1.3074   -2.1646   -4.1319 H   0  0  0  0  0  0  0  0  0  0  0  0
   -0.2835   -1.5112   -0.2725 N   0  0  0  0  0  0  0  0  0  0  0  0
    0.0769   -0.7658    0.9424 C   0  0  0  0  0  0  0  0  0  0  0  0
   -0.6733   -1.3289    2.1224 C   0  0  0  0  0  0  0  0  0  0  0  0
   -0.3852   -2.3948    2.6601 O   0  0  0  0  0  0  0  0  0  0  0  0
    0.4587   -2.0097   -0.7289 H   0  0  0  0  0  0  0  0  0  0  0  0
   -0.1840    0.2883    0.8089 H   0  0  0  0  0  0  0  0  0  0  0  0
    1.1541   -0.8537    1.1115 H   0  0  0  0  0  0  0  0  0  0  0  0
   -1.7172   -0.4958    2.5104 N   0  0  0  0  0  0  0  0  0  0  0  0
   -2.6007   -0.7889    3.6081 C   0  0  2  0  0  0  0  0  0  0  0  0
   -2.5141    0.3621    4.6018 C   0  0  0  0  0  0  0  0  0  0  0  0
   -1.5506    1.1228    4.6647 O   0  0  0  0  0  0  0  0  0  0  0  0
   -2.2395   -2.1085    4.2720 C   0  0  0  0  0  0  0  0  0  0  0  0
   -1.8643    0.3675    1.9901 H   0  0  0  0  0  0  0  0  0  0  0  0
   -3.6137   -0.8392    3.1940 H   0  0  0  0  0  0  0  0  0  0  0  0
   -1.2279   -2.0772    4.6928 H   0  0  0  0  0  0  0  0  0  0  0  0
   -2.9300   -2.3439    5.0886 H   0  0  0  0  0  0  0  0  0  0  0  0
   -2.2734   -2.9306    3.5490 H   0  0  0  0  0  0  0  0  0  0  0  0
   -3.6200    0.4133    5.4387 N   0  0  0  0  0  0  0  0  0  0  0  0
   -3.7678    1.4081    6.4753 C   0  0  0  0  0  0  0  0  0  0  0  0
   -4.3806   -0.2460    5.3026 H   0  0  0  0  0  0  0  0  0  0  0  0
   -3.3675    1.0149    7.4214 H   0  0  0  0  0  0  0  0  0  0  0  0
   -3.2155    2.3165    6.1929 H   0  0  0  0  0  0  0  0  0  0  0  0
   -4.8333    1.6510    6.6009 H   0  0  0  0  0  0  0  0  0  0  0  0
  1  3  1  0  0  0  0
  1  7  1  0  0  0  0
  1  2  2  0  0  0  0
 18 19  1  0  0  0  0
 19 24  1  0  0  0  0
 19 20  2  0  0  0  0
 25 26  1  0  0  0  0
 26 34  1  0  0  0  0
 26 27  2  0  0  0  0
  8  9  1  0  0  0  0
  9 17  1  0  0  0  0
  9 10  2  0  0  0  0
 25 28  1  0  0  0  0
  8 11  1  0  0  0  0
 34 35  1  0  0  0  0
 17 18  1  0  0  0  0
 24 25  1  0  0  0  0
  7  8  1  0  0  0  0
  3  4  1  0  0  0  0
  3  5  1  0  0  0  0
  3  6  1  0  0  0  0
 28 31  1  0  0  0  0
 28 32  1  0  0  0  0
 28 33  1  0  0  0  0
 11 14  1  0  0  0  0
 11 15  1  0  0  0  0
 11 16  1  0  0  0  0
 35 37  1  0  0  0  0
 35 38  1  0  0  0  0
 35 39  1  0  0  0  0
 18 22  1  0  0  0  0
 18 23  1  0  0  0  0
 25 30  1  0  0  0  0
  8 13  1  0  0  0  0
 34 36  1  0  0  0  0
 17 21  1  0  0  0  0
  7 12  1  0  0  0  0
 24 29  1  0  0  0  0
M  END
$$$$

  -OEChem-05262214473D

 39 38  0     1  0  0  0  0  0999 V2000
   -3.5200   -4.0268   -1.6943 C   0  0  0  0  0  0  0  0  0  0  0  0
   -2.8702   -4.8827   -1.1054 O   0  0  0  0  0  0  0  0  0  0  0  0
   -4.9704   -4.2579   -1.9614 C   0  0  0  0  0  0  0  0  0  0  0  0
   -5.1456   -4.7573   -2.9278 H   0  0  0  0  0  0  0  0  0  0  0  0
   -5.4379   -4.9112   -1.2072 H   0  0  0  0  0  0  0  0  0  0  0  0
   -5.5954   -3.3510   -1.9864 H   0  0  0  0  0  0  0  0  0  0  0  0
   -3.0424   -2.8131   -2.1606 N   0  0  0  0  0  0  0  0  0  0  0  0
   -1.6755   -2.3891   -2.0077 C   0  0  2  0  0  0  0  0  0  0  0  0
   -1.5782   -1.5673   -0.7292 C   0  0  0  0  0  0  0  0  0  0  0  0
   -2.5448   -1.0064   -0.2171 O   0  0  0  0  0  0  0  0  0  0  0  0
   -1.2087   -1.5823   -3.2094 C   0  0  0  0  0  0  0  0  0  0  0  0
   -3.6915   -2.1888   -2.6360 H   0  0  0  0  0  0  0  0  0  0  0  0
   -1.0721   -3.2977   -1.9053 H   0  0  0  0  0  0  0  0  0  0  0  0
   -1.8017   -0.6681   -3.3281 H   0  0  0  0  0  0  0  0  0  0  0  0
   -0.1601   -1.2849   -3.1045 H   0  0  0  0  0  0  0  0  0  0  0  0
   -1.3074   -2.1646   -4.1319 H   0  0  0  0  0  0  0  0  0  0  0  0
   -0.2835   -1.5112   -0.2725 N   0  0  0  0  0  0  0  0  0  0  0  0
    0.0769   -0.7658    0.9424 C   0  0  0  0  0  0  0  0  0  0  0  0
   -0.6733   -1.3289    2.1224 C   0  0  0  0  0  0  0  0  0  0  0  0
   -0.2425   -2.2395    2.8250 O   0  0  0  0  0  0  0  0  0  0  0  0
    0.4587   -2.0097   -0.7289 H   0  0  0  0  0  0  0  0  0  0  0  0
   -0.1840    0.2883    0.8089 H   0  0  0  0  0  0  0  0  0  0  0  0
    1.1541   -0.8537    1.1115 H   0  0  0  0  0  0  0  0  0  0  0  0
   -1.8966   -0.6922    2.3026 N   0  0  0  0  0  0  0  0  0  0  0  0
   -2.8207   -1.0309    3.3528 C   0  0  2  0  0  0  0  0  0  0  0  0
   -3.0714    0.2225    4.1809 C   0  0  0  0  0  0  0  0  0  0  0  0
   -2.2888    1.1697    4.2178 O   0  0  0  0  0  0  0  0  0  0  0  0
   -2.2827   -2.1575    4.2212 C   0  0  0  0  0  0  0  0  0  0  0  0
   -2.1522    0.0532    1.6571 H   0  0  0  0  0  0  0  0  0  0  0  0
   -3.7522   -1.3406    2.8667 H   0  0  0  0  0  0  0  0  0  0  0  0
   -1.3494   -1.8657    4.7165 H   0  0  0  0  0  0  0  0  0  0  0  0
   -2.9991   -2.4332    5.0021 H   0  0  0  0  0  0  0  0  0  0  0  0
   -2.0749   -3.0485    3.6190 H   0  0  0  0  0  0  0  0  0  0  0  0
   -4.2511    0.1406    4.9074 N   0  0  0  0  0  0  0  0  0  0  0  0
   -4.7043    1.1986    5.7799 C   0  0  0  0  0  0  0  0  0  0  0  0
   -4.8478   -0.6745    4.8012 H   0  0  0  0  0  0  0  0  0  0  0  0
   -4.3411    1.0129    6.8015 H   0  0  0  0  0  0  0  0  0  0  0  0
   -4.3134    2.1622    5.4214 H   0  0  0  0  0  0  0  0  0  0  0  0
   -5.8040    1.2266    5.7814 H   0  0  0  0  0  0  0  0  0  0  0  0
  1  3  1  0  0  0  0
  1  7  1  0  0  0  0
  1  2  2  0  0  0  0
 18 19  1  0  0  0  0
 19 24  1  0  0  0  0
 19 20  2  0  0  0  0
 25 26  1  0  0  0  0
 26 34  1  0  0  0  0
 26 27  2  0  0  0  0
  8  9  1  0  0  0  0
  9 17  1  0  0  0  0
  9 10  2  0  0  0  0
 25 28  1  0  0  0  0
  8 11  1  0  0  0  0
 34 35  1  0  0  0  0
 17 18  1  0  0  0  0
 24 25  1  0  0  0  0
  7  8  1  0  0  0  0
  3  4  1  0  0  0  0
  3  5  1  0  0  0  0
  3  6  1  0  0  0  0
 28 31  1  0  0  0  0
 28 32  1  0  0  0  0
 28 33  1  0  0  0  0
 11 14  1  0  0  0  0
 11 15  1  0  0  0  0
 11 16  1  0  0  0  0
 35 37  1  0  0  0  0
 35 38  1  0  0  0  0
 35 39  1  0  0  0  0
 18 22  1  0  0  0  0
 18 23  1  0  0  0  0
 25 30  1  0  0  0  0
  8 13  1  0  0  0  0
 34 36  1  0  0  0  0
 17 21  1  0  0  0  0
  7 12  1  0  0  0  0
 24 29  1  0  0  0  0
M  END
$$$$

  -OEChem-05262214473D

 39 38  0     1  0  0  0  0  0999 V2000
   -3.5200   -4.0268   -1.6943 C   0  0  0  0  0  0  0  0  0  0  0  0
   -2.8702   -4.8827   -1.1054 O   0  0  0  0  0  0  0  0  0  0  0  0
   -4.9704   -4.2579   -1.9614 C   0  0  0  0  0  0  0  0  0  0  0  0
   -5.1456   -4.7573   -2.9278 H   0  0  0  0  0  0  0  0  0  0  0  0
   -5.4379   -4.9112   -1.2072 H   0  0  0  0  0  0  0  0  0  0  0  0
   -5.5954   -3.3510   -1.9864 H   0  0  0  0  0  0  0  0  0  0  0  0
   -3.0424   -2.8131   -2.1606 N   0  0  0  0  0  0  0  0  0  0  0  0
   -1.6755   -2.3891   -2.0077 C   0  0  2  0  0  0  0  0  0  0  0  0
   -1.5782   -1.5673   -0.7292 C   0  0  0  0  0  0  0  0  0  0  0  0
   -2.5448   -1.0064   -0.2171 O   0  0  0  0  0  0  0  0  0  0  0  0
   -1.2087   -1.5823   -3.2094 C   0  0  0  0  0  0  0  0  0  0  0  0
   -3.6915   -2.1888   -2.6360 H   0  0  0  0  0  0  0  0  0  0  0  0
   -1.0721   -3.2977   -1.9053 H   0  0  0  0  0  0  0  0  0  0  0  0
   -1.8017   -0.6681   -3.3281 H   0  0  0  0  0  0  0  0  0  0  0  0
   -0.1601   -1.2849   -3.1045 H   0  0  0  0  0  0  0  0  0  0  0  0
   -1.3074   -2.1646   -4.1319 H   0  0  0  0  0  0  0  0  0  0  0  0
   -0.2835   -1.5112   -0.2725 N   0  0  0  0  0  0  0  0  0  0  0  0
    0.0769   -0.7658    0.9424 C   0  0  0  0  0  0  0  0  0  0  0  0
   -0.6733   -1.3289    2.1224 C   0  0  0  0  0  0  0  0  0  0  0  0
   -0.1521   -2.0393    2.9780 O   0  0  0  0  0  0  0  0  0  0  0  0
    0.4587   -2.0097   -0.7289 H   0  0  0  0  0  0  0  0  0  0  0  0
   -0.1840    0.2883    0.8089 H   0  0  0  0  0  0  0  0  0  0  0  0
    1.1541   -0.8537    1.1115 H   0  0  0  0  0  0  0  0  0  0  0  0
   -2.0100   -0.9451    2.1099 N   0  0  0  0  0  0  0  0  0  0  0  0
   -2.9594   -1.3421    3.1161 C   0  0  2  0  0  0  0  0  0  0  0  0
   -3.5408   -0.0795    3.7384 C   0  0  0  0  0  0  0  0  0  0  0  0
   -2.9682    1.0079    3.7087 O   0  0  0  0  0  0  0  0  0  0  0  0
   -2.3096   -2.2200    4.1742 C   0  0  0  0  0  0  0  0  0  0  0  0
   -2.3344   -0.3516    1.3481 H   0  0  0  0  0  0  0  0  0  0  0  0
   -3.7529   -1.8951    2.6017 H   0  0  0  0  0  0  0  0  0  0  0  0
   -1.5119   -1.6830    4.7004 H   0  0  0  0  0  0  0  0  0  0  0  0
   -3.0393   -2.5446    4.9233 H   0  0  0  0  0  0  0  0  0  0  0  0
   -1.8660   -3.1131    3.7209 H   0  0  0  0  0  0  0  0  0  0  0  0
   -4.7540   -0.3191    4.3683 N   0  0  0  0  0  0  0  0  0  0  0  0
   -5.4992    0.7168    5.0447 C   0  0  0  0  0  0  0  0  0  0  0  0
   -5.1638   -1.2476    4.3268 H   0  0  0  0  0  0  0  0  0  0  0  0
   -5.2212    0.7340    6.1089 H   0  0  0  0  0  0  0  0  0  0  0  0
   -5.2680    1.6913    4.5898 H   0  0  0  0  0  0  0  0  0  0  0  0
   -6.5763    0.5145    4.9505 H   0  0  0  0  0  0  0  0  0  0  0  0
  1  3  1  0  0  0  0
  1  7  1  0  0  0  0
  1  2  2  0  0  0  0
 18 19  1  0  0  0  0
 19 24  1  0  0  0  0
 19 20  2  0  0  0  0
 25 26  1  0  0  0  0
 26 34  1  0  0  0  0
 26 27  2  0  0  0  0
  8  9  1  0  0  0  0
  9 17  1  0  0  0  0
  9 10  2  0  0  0  0
 25 28  1  0  0  0  0
  8 11  1  0  0  0  0
 34 35  1  0  0  0  0
 17 18  1  0  0  0  0
 24 25  1  0  0  0  0
  7  8  1  0  0  0  0
  3  4  1  0  0  0  0
  3  5  1  0  0  0  0
  3  6  1  0  0  0  0
 28 31  1  0  0  0  0
 28 32  1  0  0  0  0
 28 33  1  0  0  0  0
 11 14  1  0  0  0  0
 11 15  1  0  0  0  0
 11 16  1  0  0  0  0
 35 37  1  0  0  0  0
 35 38  1  0  0  0  0
 35 39  1  0  0  0  0
 18 22  1  0  0  0  0
 18 23  1  0  0  0  0
 25 30  1  0  0  0  0
  8 13  1  0  0  0  0
 34 36  1  0  0  0  0
 17 21  1  0  0  0  0
  7 12  1  0  0  0  0
 24 29  1  0  0  0  0
M  END
$$$$

  -OEChem-05262214473D

 39 38  0     1  0  0  0  0  0999 V2000
   -3.5200   -4.0268   -1.6943 C   0  0  0  0  0  0  0  0  0  0  0  0
   -2.8702   -4.8827   -1.1054 O   0  0  0  0  0  0  0  0  0  0  0  0
   -4.9704   -4.2579   -1.9614 C   0  0  0  0  0  0  0  0  0  0  0  0
   -5.1456   -4.7573   -2.9278 H   0  0  0  0  0  0  0  0  0  0  0  0
   -5.4379   -4.9112   -1.2072 H   0  0  0  0  0  0  0  0  0  0  0  0
   -5.5954   -3.3510   -1.9864 H   0  0  0  0  0  0  0  0  0  0  0  0
   -3.0424   -2.8131   -2.1606 N   0  0  0  0  0  0  0  0  0  0  0  0
   -1.6755   -2.3891   -2.0077 C   0  0  2  0  0  0  0  0  0  0  0  0
   -1.5782   -1.5673   -0.7292 C   0  0  0  0  0  0  0  0  0  0  0  0
   -2.5448   -1.0064   -0.2171 O   0  0  0  0  0  0  0  0  0  0  0  0
   -1.2087   -1.5823   -3.2094 C   0  0  0  0  0  0  0  0  0  0  0  0
   -3.6915   -2.1888   -2.6360 H   0  0  0  0  0  0  0  0  0  0  0  0
   -1.0721   -3.2977   -1.9053 H   0  0  0  0  0  0  0  0  0  0  0  0
   -1.8017   -0.6681   -3.3281 H   0  0  0  0  0  0  0  0  0  0  0  0
   -0.1601   -1.2849   -3.1045 H   0  0  0  0  0  0  0  0  0  0  0  0
   -1.3074   -2.1646   -4.1319 H   0  0  0  0  0  0  0  0  0  0  0  0
   -0.2835   -1.5112   -0.2725 N   0  0  0  0  0  0  0  0  0  0  0  0
    0.0769   -0.7658    0.9424 C   0  0  0  0  0  0  0  0  0  0  0  0
   -0.6733   -1.3289    2.1224 C   0  0  0  0  0  0  0  0  0  0  0  0
   -0.1201   -1.8079    3.1088 O   0  0  0  0  0  0  0  0  0  0  0  0
    0.4587   -2.0097   -0.7289 H   0  0  0  0  0  0  0  0  0  0  0  0
   -0.1840    0.2883    0.8089 H   0  0  0  0  0  0  0  0  0  0  0  0
    1.1541   -0.8537    1.1115 H   0  0  0  0  0  0  0  0  0  0  0  0
   -2.0497   -1.2372    1.9453 N   0  0  0  0  0  0  0  0  0  0  0  0
   -3.0075   -1.7013    2.9141 C   0  0  2  0  0  0  0  0  0  0  0  0
   -3.8902   -0.5232    3.3045 C   0  0  0  0  0  0  0  0  0  0  0  0
   -3.5424    0.6484    3.1721 O   0  0  0  0  0  0  0  0  0  0  0  0
   -2.3183   -2.2920    4.1343 C   0  0  0  0  0  0  0  0  0  0  0  0
   -2.3984   -0.8194    1.0842 H   0  0  0  0  0  0  0  0  0  0  0  0
   -3.6155   -2.4650    2.4170 H   0  0  0  0  0  0  0  0  0  0  0  0
   -1.7044   -1.5415    4.6455 H   0  0  0  0  0  0  0  0  0  0  0  0
   -3.0480   -2.6705    4.8577 H   0  0  0  0  0  0  0  0  0  0  0  0
   -1.6609   -3.1200    3.8479 H   0  0  0  0  0  0  0  0  0  0  0  0
   -5.0945   -0.9344    3.8582 N   0  0  0  0  0  0  0  0  0  0  0  0
   -6.0984   -0.0042    4.3198 C   0  0  0  0  0  0  0  0  0  0  0  0
   -5.3070   -1.9263    3.9119 H   0  0  0  0  0  0  0  0  0  0  0  0
   -5.9478    0.1969    5.3907 H   0  0  0  0  0  0  0  0  0  0  0  0
   -6.0143    0.9359    3.7549 H   0  0  0  0  0  0  0  0  0  0  0  0
   -7.0978   -0.4369    4.1651 H   0  0  0  0  0  0  0  0  0  0  0  0
  1  3  1  0  0  0  0
  1  7  1  0  0  0  0
  1  2  2  0  0  0  0
 18 19  1  0  0  0  0
 19 24  1  0  0  0  0
 19 20  2  0  0  0  0
 25 26  1  0  0  0  0
 26 34  1  0  0  0  0
 26 27  2  0  0  0  0
  8  9  1  0  0  0  0
  9 17  1  0  0  0  0
  9 10  2  0  0  0  0
 25 28  1  0  0  0  0
  8 11  1  0  0  0  0
 34 35  1  0  0  0  0
 17 18  1  0  0  0  0
 24 25  1  0  0  0  0
  7  8  1  0  0  0  0
  3  4  1  0  0  0  0
  3  5  1  0  0  0  0
  3  6  1  0  0  0  0
 28 31  1  0  0  0  0
 28 32  1  0  0  0  0
 28 33  1  0  0  0  0
 11 14  1  0  0  0  0
 11 15  1  0  0  0  0
 11 16  1  0  0  0  0
 35 37  1  0  0  0  0
 35 38  1  0  0  0  0
 35 39  1  0  0  0  0
 18 22  1  0  0  0  0
 18 23  1  0  0  0  0
 25 30  1  0  0  0  0
  8 13  1  0  0  0  0
 34 36  1  0  0  0  0
 17 21  1  0  0  0  0
  7 12  1  0  0  0  0
 24 29  1  0  0  0  0
M  END
$$$$

  -OEChem-05262214473D

 39 38  0     1  0  0  0  0  0999 V2000
   -3.5200   -4.0268   -1.6943 C   0  0  0  0  0  0  0  0  0  0  0  0
   -2.8702   -4.8827   -1.1054 O   0  0  0  0  0  0  0  0  0  0  0  0
   -4.9704   -4.2579   -1.9614 C   0  0  0  0  0  0  0  0  0  0  0  0
   -5.1456   -4.7573   -2.9278 H   0  0  0  0  0  0  0  0  0  0  0  0
   -5.4379   -4.9112   -1.2072 H   0  0  0  0  0  0  0  0  0  0  0  0
   -5.5954   -3.3510   -1.9864 H   0  0  0  0  0  0  0  0  0  0  0  0
   -3.0424   -2.8131   -2.1606 N   0  0  0  0  0  0  0  0  0  0  0  0
   -1.6755   -2.3891   -2.0077 C   0  0  2  0  0  0  0  0  0  0  0  0
   -1.5782   -1.5673   -0.7292 C   0  0  0  0  0  0  0  0  0  0  0  0
   -2.5448   -1.0064   -0.2171 O   0  0  0  0  0  0  0  0  0  0  0  0
   -1.2087   -1.5823   -3.2094 C   0  0  0  0  0  0  0  0  0  0  0  0
   -3.6915   -2.1888   -2.6360 H   0  0  0  0  0  0  0  0  0  0  0  0
   -1.0721   -3.2977   -1.9053 H   0  0  0  0  0  0  0  0  0  0  0  0
   -1.8017   -0.6681   -3.3281 H   0  0  0  0  0  0  0  0  0  0  0  0
   -0.1601   -1.2849   -3.1045 H   0  0  0  0  0  0  0  0  0  0  0  0
   -1.3074   -2.1646   -4.1319 H   0  0  0  0  0  0  0  0  0  0  0  0
   -0.2835   -1.5112   -0.2725 N   0  0  0  0  0  0  0  0  0  0  0  0
    0.0769   -0.7658    0.9424 C   0  0  0  0  0  0  0  0  0  0  0  0
   -0.6733   -1.3289    2.1224 C   0  0  0  0  0  0  0  0  0  0  0  0
   -0.1487   -1.5611    3.2084 O   0  0  0  0  0  0  0  0  0  0  0  0
    0.4587   -2.0097   -0.7289 H   0  0  0  0  0  0  0  0  0  0  0  0
   -0.1840    0.2883    0.8089 H   0  0  0  0  0  0  0  0  0  0  0  0
    1.1541   -0.8537    1.1115 H   0  0  0  0  0  0  0  0  0  0  0  0
   -2.0129   -1.5485    1.8201 N   0  0  0  0  0  0  0  0  0  0  0  0
   -2.9616   -2.0840    2.7607 C   0  0  2  0  0  0  0  0  0  0  0  0
   -4.0958   -1.0785    2.9088 C   0  0  0  0  0  0  0  0  0  0  0  0
   -3.9724    0.1157    2.6446 O   0  0  0  0  0  0  0  0  0  0  0  0
   -2.3083   -2.3684    4.1042 C   0  0  0  0  0  0  0  0  0  0  0  0
   -2.3400   -1.3181    0.8833 H   0  0  0  0  0  0  0  0  0  0  0  0
   -3.3494   -3.0114    2.3254 H   0  0  0  0  0  0  0  0  0  0  0  0
   -1.9137   -1.4509    4.5557 H   0  0  0  0  0  0  0  0  0  0  0  0
   -3.0246   -2.8023    4.8097 H   0  0  0  0  0  0  0  0  0  0  0  0
   -1.4738   -3.0688    3.9913 H   0  0  0  0  0  0  0  0  0  0  0  0
   -5.2495   -1.6635    3.4118 N   0  0  0  0  0  0  0  0  0  0  0  0
   -6.4609   -0.9155    3.6545 C   0  0  0  0  0  0  0  0  0  0  0  0
   -5.2677   -2.6643    3.5847 H   0  0  0  0  0  0  0  0  0  0  0  0
   -6.4714   -0.5615    4.6959 H   0  0  0  0  0  0  0  0  0  0  0  0
   -6.5014   -0.0525    2.9736 H   0  0  0  0  0  0  0  0  0  0  0  0
   -7.3328   -1.5627    3.4785 H   0  0  0  0  0  0  0  0  0  0  0  0
  1  3  1  0  0  0  0
  1  7  1  0  0  0  0
  1  2  2  0  0  0  0
 18 19  1  0  0  0  0
 19 24  1  0  0  0  0
 19 20  2  0  0  0  0
 25 26  1  0  0  0  0
 26 34  1  0  0  0  0
 26 27  2  0  0  0  0
  8  9  1  0  0  0  0
  9 17  1  0  0  0  0
  9 10  2  0  0  0  0
 25 28  1  0  0  0  0
  8 11  1  0  0  0  0
 34 35  1  0  0  0  0
 17 18  1  0  0  0  0
 24 25  1  0  0  0  0
  7  8  1  0  0  0  0
  3  4  1  0  0  0  0
  3  5  1  0  0  0  0
  3  6  1  0  0  0  0
 28 31  1  0  0  0  0
 28 32  1  0  0  0  0
 28 33  1  0  0  0  0
 11 14  1  0  0  0  0
 11 15  1  0  0  0  0
 11 16  1  0  0  0  0
 35 37  1  0  0  0  0
 35 38  1  0  0  0  0
 35 39  1  0  0  0  0
 18 22  1  0  0  0  0
 18 23  1  0  0  0  0
 25 30  1  0  0  0  0
  8 13  1  0  0  0  0
 34 36  1  0  0  0  0
 17 21  1  0  0  0  0
  7 12  1  0  0  0  0
 24 29  1  0  0  0  0
M  END
$$$$

  -OEChem-05262214473D

 39 38  0     1  0  0  0  0  0999 V2000
   -3.5200   -4.0268   -1.6943 C   0  0  0  0  0  0  0  0  0  0  0  0
   -2.8702   -4.8827   -1.1054 O   0  0  0  0  0  0  0  0  0  0  0  0
   -4.9704   -4.2579   -1.9614 C   0  0  0  0  0  0  0  0  0  0  0  0
   -5.1456   -4.7573   -2.9278 H   0  0  0  0  0  0  0  0  0  0  0  0
   -5.4379   -4.9112   -1.2072 H   0  0  0  0  0  0  0  0  0  0  0  0
   -5.5954   -3.3510   -1.9864 H   0  0  0  0  0  0  0  0  0  0  0  0
   -3.0424   -2.8131   -2.1606 N   0  0  0  0  0  0  0  0  0  0  0  0
   -1.6755   -2.3891   -2.0077 C   0  0  2  0  0  0  0  0  0  0  0  0
   -1.5782   -1.5673   -0.7292 C   0  0  0  0  0  0  0  0  0  0  0  0
   -2.5448   -1.0064   -0.2171 O   0  0  0  0  0  0  0  0  0  0  0  0
   -1.2087   -1.5823   -3.2094 C   0  0  0  0  0  0  0  0  0  0  0  0
   -3.6915   -2.1888   -2.6360 H   0  0  0  0  0  0  0  0  0  0  0  0
   -1.0721   -3.2977   -1.9053 H   0  0  0  0  0  0  0  0  0  0  0  0
   -1.8017   -0.6681   -3.3281 H   0  0  0  0  0  0  0  0  0  0  0  0
   -0.1601   -1.2849   -3.1045 H   0  0  0  0  0  0  0  0  0  0  0  0
   -1.3074   -2.1646   -4.1319 H   0  0  0  0  0  0  0  0  0  0  0  0
   -0.2835   -1.5112   -0.2725 N   0  0  0  0  0  0  0  0  0  0  0  0
    0.0769   -0.7658    0.9424 C   0  0  0  0  0  0  0  0  0  0  0  0
   -0.6733   -1.3289    2.1224 C   0  0  0  0  0  0  0  0  0  0  0  0
   -0.2360   -1.3156    3.2700 O   0  0  0  0  0  0  0  0  0  0  0  0
    0.4587   -2.0097   -0.7289 H   0  0  0  0  0  0  0  0  0  0  0  0
   -0.1840    0.2883    0.8089 H   0  0  0  0  0  0  0  0  0  0  0  0
    1.1541   -0.8537    1.1115 H   0  0  0  0  0  0  0  0  0  0  0  0
   -1.9022   -1.8579    1.7428 N   0  0  0  0  0  0  0  0  0  0  0  0
   -2.8249   -2.4641    2.6662 C   0  0  2  0  0  0  0  0  0  0  0  0
   -4.1437   -1.7075    2.5782 C   0  0  0  0  0  0  0  0  0  0  0  0
   -4.2287   -0.5540    2.1621 O   0  0  0  0  0  0  0  0  0  0  0  0
   -2.2803   -2.4440    4.0859 C   0  0  0  0  0  0  0  0  0  0  0  0
   -2.1632   -1.8140    0.7591 H   0  0  0  0  0  0  0  0  0  0  0  0
   -2.9729   -3.4972    2.3330 H   0  0  0  0  0  0  0  0  0  0  0  0
   -2.1255   -1.4173    4.4371 H   0  0  0  0  0  0  0  0  0  0  0  0
   -2.9706   -2.9311    4.7826 H   0  0  0  0  0  0  0  0  0  0  0  0
   -1.3173   -2.9630    4.1414 H   0  0  0  0  0  0  0  0  0  0  0  0
   -5.2082   -2.4566    3.0595 N   0  0  0  0  0  0  0  0  0  0  0  0
   -6.5621   -1.9548    3.0942 C   0  0  0  0  0  0  0  0  0  0  0  0
   -5.0486   -3.4113    3.3675 H   0  0  0  0  0  0  0  0  0  0  0  0
   -6.7564   -1.4897    4.0719 H   0  0  0  0  0  0  0  0  0  0  0  0
   -6.6961   -1.2065    2.2991 H   0  0  0  0  0  0  0  0  0  0  0  0
   -7.2653   -2.7861    2.9375 H   0  0  0  0  0  0  0  0  0  0  0  0
  1  3  1  0  0  0  0
  1  7  1  0  0  0  0
  1  2  2  0  0  0  0
 18 19  1  0  0  0  0
 19 24  1  0  0  0  0
 19 20  2  0  0  0  0
 25 26  1  0  0  0  0
 26 34  1  0  0  0  0
 26 27  2  0  0  0  0
  8  9  1  0  0  0  0
  9 17  1  0  0  0  0
  9 10  2  0  0  0  0
 25 28  1  0  0  0  0
  8 11  1  0  0  0  0
 34 35  1  0  0  0  0
 17 18  1  0  0  0  0
 24 25  1  0  0  0  0
  7  8  1  0  0  0  0
  3  4  1  0  0  0  0
  3  5  1  0  0  0  0
  3  6  1  0  0  0  0
 28 31  1  0  0  0  0
 28 32  1  0  0  0  0
 28 33  1  0  0  0  0
 11 14  1  0  0  0  0
 11 15  1  0  0  0  0
 11 16  1  0  0  0  0
 35 37  1  0  0  0  0
 35 38  1  0  0  0  0
 35 39  1  0  0  0  0
 18 22  1  0  0  0  0
 18 23  1  0  0  0  0
 25 30  1  0  0  0  0
  8 13  1  0  0  0  0
 34 36  1  0  0  0  0
 17 21  1  0  0  0  0
  7 12  1  0  0  0  0
 24 29  1  0  0  0  0
M  END
$$$$

  -OEChem-05262214473D

 39 38  0     1  0  0  0  0  0999 V2000
   -3.5200   -4.0268   -1.6943 C   0  0  0  0  0  0  0  0  0  0  0  0
   -2.8702   -4.8827   -1.1054 O   0  0  0  0  0  0  0  0  0  0  0  0
   -4.9704   -4.2579   -1.9614 C   0  0  0  0  0  0  0  0  0  0  0  0
   -5.1456   -4.7573   -2.9278 H   0  0  0  0  0  0  0  0  0  0  0  0
   -5.4379   -4.9112   -1.2072 H   0  0  0  0  0  0  0  0  0  0  0  0
   -5.5954   -3.3510   -1.9864 H   0  0  0  0  0  0  0  0  0  0  0  0
   -3.0424   -2.8131   -2.1606 N   0  0  0  0  0  0  0  0  0  0  0  0
   -1.6755   -2.3891   -2.0077 C   0  0  2  0  0  0  0  0  0  0  0  0
   -1.5782   -1.5673   -0.7292 C   0  0  0  0  0  0  0  0  0  0  0  0
   -2.5448   -1.0064   -0.2171 O   0  0  0  0  0  0  0  0  0  0  0  0
   -1.2087   -1.5823   -3.2094 C   0  0  0  0  0  0  0  0  0  0  0  0
   -3.6915   -2.1888   -2.6360 H   0  0  0  0  0  0  0  0  0  0  0  0
   -1.0721   -3.2977   -1.9053 H   0  0  0  0  0  0  0  0  0  0  0  0
   -1.8017   -0.6681   -3.3281 H   0  0  0  0  0  0  0  0  0  0  0  0
   -0.1601   -1.2849   -3.1045 H   0  0  0  0  0  0  0  0  0  0  0  0
   -1.3074   -2.1646   -4.1319 H   0  0  0  0  0  0  0  0  0  0  0  0
   -0.2835   -1.5112   -0.2725 N   0  0  0  0  0  0  0  0  0  0  0  0
    0.0769   -0.7658    0.9424 C   0  0  0  0  0  0  0  0  0  0  0  0
   -0.6733   -1.3289    2.1224 C   0  0  0  0  0  0  0  0  0  0  0  0
   -0.3760   -1.0882    3.2895 O   0  0  0  0  0  0  0  0  0  0  0  0
    0.4587   -2.0097   -0.7289 H   0  0  0  0  0  0  0  0  0  0  0  0
   -0.1840    0.2883    0.8089 H   0  0  0  0  0  0  0  0  0  0  0  0
    1.1541   -0.8537    1.1115 H   0  0  0  0  0  0  0  0  0  0  0  0
   -1.7251   -2.1443    1.7187 N   0  0  0  0  0  0  0  0  0  0  0  0
   -2.6067   -2.8158    2.6371 C   0  0  2  0  0  0  0  0  0  0  0  0
   -4.0305   -2.3674    2.3353 C   0  0  0  0  0  0  0  0  0  0  0  0
   -4.2940   -1.3149    1.7575 O   0  0  0  0  0  0  0  0  0  0  0  0
   -2.2361   -2.5138    4.0807 C   0  0  0  0  0  0  0  0  0  0  0  0
   -1.8798   -2.2731    0.7201 H   0  0  0  0  0  0  0  0  0  0  0  0
   -2.5115   -3.8891    2.4393 H   0  0  0  0  0  0  0  0  0  0  0  0
   -2.3254   -1.4431    4.2977 H   0  0  0  0  0  0  0  0  0  0  0  0
   -2.8897   -3.0480    4.7782 H   0  0  0  0  0  0  0  0  0  0  0  0
   -1.2020   -2.8097    4.2878 H   0  0  0  0  0  0  0  0  0  0  0  0
   -4.9737   -3.2598    2.8254 N   0  0  0  0  0  0  0  0  0  0  0  0
   -6.3951   -3.0514    2.6770 C   0  0  0  0  0  0  0  0  0  0  0  0
   -4.6646   -4.1165    3.2751 H   0  0  0  0  0  0  0  0  0  0  0  0
   -6.7832   -2.5243    3.5611 H   0  0  0  0  0  0  0  0  0  0  0  0
   -6.5851   -2.4475    1.7775 H   0  0  0  0  0  0  0  0  0  0  0  0
   -6.8999   -4.0239    2.5792 H   0  0  0  0  0  0  0  0  0  0  0  0
  1  3  1  0  0  0  0
  1  7  1  0  0  0  0
  1  2  2  0  0  0  0
 18 19  1  0  0  0  0
 19 24  1  0  0  0  0
 19 20  2  0  0  0  0
 25 26  1  0  0  0  0
 26 34  1  0  0  0  0
 26 27  2  0  0  0  0
  8  9  1  0  0  0  0
  9 17  1  0  0  0  0
  9 10  2  0  0  0  0
 25 28  1  0  0  0  0
  8 11  1  0  0  0  0
 34 35  1  0  0  0  0
 17 18  1  0  0  0  0
 24 25  1  0  0  0  0
  7  8  1  0  0  0  0
  3  4  1  0  0  0  0
  3  5  1  0  0  0  0
  3  6  1  0  0  0  0
 28 31  1  0  0  0  0
 28 32  1  0  0  0  0
 28 33  1  0  0  0  0
 11 14  1  0  0  0  0
 11 15  1  0  0  0  0
 11 16  1  0  0  0  0
 35 37  1  0  0  0  0
 35 38  1  0  0  0  0
 35 39  1  0  0  0  0
 18 22  1  0  0  0  0
 18 23  1  0  0  0  0
 25 30  1  0  0  0  0
  8 13  1  0  0  0  0
 34 36  1  0  0  0  0
 17 21  1  0  0  0  0
  7 12  1  0  0  0  0
 24 29  1  0  0  0  0
M  END
$$$$

  -OEChem-05262214473D

 39 38  0     1  0  0  0  0  0999 V2000
   -3.5200   -4.0268   -1.6943 C   0  0  0  0  0  0  0  0  0  0  0  0
   -2.8702   -4.8827   -1.1054 O   0  0  0  0  0  0  0  0  0  0  0  0
   -4.9704   -4.2579   -1.9614 C   0  0  0  0  0  0  0  0  0  0  0  0
   -5.1456   -4.7573   -2.9278 H   0  0  0  0  0  0  0  0  0  0  0  0
   -5.4379   -4.9112   -1.2072 H   0  0  0  0  0  0  0  0  0  0  0  0
   -5.5954   -3.3510   -1.9864 H   0  0  0  0  0  0  0  0  0  0  0  0
   -3.0424   -2.8131   -2.1606 N   0  0  0  0  0  0  0  0  0  0  0  0
   -1.6755   -2.3891   -2.0077 C   0  0  2  0  0  0  0  0  0  0  0  0
   -1.5782   -1.5673   -0.7292 C   0  0  0  0  0  0  0  0  0  0  0  0
   -2.5448   -1.0064   -0.2171 O   0  0  0  0  0  0  0  0  0  0  0  0
   -1.2087   -1.5823   -3.2094 C   0  0  0  0  0  0  0  0  0  0  0  0
   -3.6915   -2.1888   -2.6360 H   0  0  0  0  0  0  0  0  0  0  0  0
   -1.0721   -3.2977   -1.9053 H   0  0  0  0  0  0  0  0  0  0  0  0
   -1.8017   -0.6681   -3.3281 H   0  0  0  0  0  0  0  0  0  0  0  0
   -0.1601   -1.2849   -3.1045 H   0  0  0  0  0  0  0  0  0  0  0  0
   -1.3074   -2.1646   -4.1319 H   0  0  0  0  0  0  0  0  0  0  0  0
   -0.2835   -1.5112   -0.2725 N   0  0  0  0  0  0  0  0  0  0  0  0
    0.0769   -0.7658    0.9424 C   0  0  0  0  0  0  0  0  0  0  0  0
   -0.6733   -1.3289    2.1224 C   0  0  0  0  0  0  0  0  0  0  0  0
   -0.5591   -0.8945    3.2655 O   0  0  0  0  0  0  0  0  0  0  0  0
    0.4587   -2.0097   -0.7289 H   0  0  0  0  0  0  0  0  0  0  0  0
   -0.1840    0.2883    0.8089 H   0  0  0  0  0  0  0  0  0  0  0  0
    1.1541   -0.8537    1.1115 H   0  0  0  0  0  0  0  0  0  0  0  0
   -1.4937   -2.3881    1.7495 N   0  0  0  0  0  0  0  0  0  0  0  0
   -2.3218   -3.1150    2.6754 C   0  0  2  0  0  0  0  0  0  0  0  0
   -3.7640   -3.0131    2.1966 C   0  0  0  0  0  0  0  0  0  0  0  0
   -4.1638   -2.1152    1.4583 O   0  0  0  0  0  0  0  0  0  0  0  0
   -2.1788   -2.5729    4.0890 C   0  0  0  0  0  0  0  0  0  0  0  0
   -1.5094   -2.6641    0.7690 H   0  0  0  0  0  0  0  0  0  0  0  0
   -1.9967   -4.1604    2.6370 H   0  0  0  0  0  0  0  0  0  0  0  0
   -2.4998   -1.5264    4.1471 H   0  0  0  0  0  0  0  0  0  0  0  0
   -2.7875   -3.1451    4.7969 H   0  0  0  0  0  0  0  0  0  0  0  0
   -1.1359   -2.6195    4.4206 H   0  0  0  0  0  0  0  0  0  0  0  0
   -4.5617   -4.0182    2.7254 N   0  0  0  0  0  0  0  0  0  0  0  0
   -5.9713   -4.1306    2.4315 C   0  0  0  0  0  0  0  0  0  0  0  0
   -4.1419   -4.7318    3.3138 H   0  0  0  0  0  0  0  0  0  0  0  0
   -6.5502   -3.5949    3.1983 H   0  0  0  0  0  0  0  0  0  0  0  0
   -6.1761   -3.6910    1.4441 H   0  0  0  0  0  0  0  0  0  0  0  0
   -6.2615   -5.1916    2.4278 H   0  0  0  0  0  0  0  0  0  0  0  0
  1  3  1  0  0  0  0
  1  7  1  0  0  0  0
  1  2  2  0  0  0  0
 18 19  1  0  0  0  0
 19 24  1  0  0  0  0
 19 20  2  0  0  0  0
 25 26  1  0  0  0  0
 26 34  1  0  0  0  0
 26 27  2  0  0  0  0
  8  9  1  0  0  0  0
  9 17  1  0  0  0  0
  9 10  2  0  0  0  0
 25 28  1  0  0  0  0
  8 11  1  0  0  0  0
 34 35  1  0  0  0  0
 17 18  1  0  0  0  0
 24 25  1  0  0  0  0
  7  8  1  0  0  0  0
  3  4  1  0  0  0  0
  3  5  1  0  0  0  0
  3  6  1  0  0  0  0
 28 31  1  0  0  0  0
 28 32  1  0  0  0  0
 28 33  1  0  0  0  0
 11 14  1  0  0  0  0
 11 15  1  0  0  0  0
 11 16  1  0  0  0  0
 35 37  1  0  0  0  0
 35 38  1  0  0  0  0
 35 39  1  0  0  0  0
 18 22  1  0  0  0  0
 18 23  1  0  0  0  0
 25 30  1  0  0  0  0
  8 13  1  0  0  0  0
 34 36  1  0  0  0  0
 17 21  1  0  0  0  0
  7 12  1  0  0  0  0
 24 29  1  0  0  0  0
M  END
$$$$

  -OEChem-05262214473D

 39 38  0     1  0  0  0  0  0999 V2000
   -3.5200   -4.0268   -1.6943 C   0  0  0  0  0  0  0  0  0  0  0  0
   -2.8702   -4.8827   -1.1054 O   0  0  0  0  0  0  0  0  0  0  0  0
   -4.9704   -4.2579   -1.9614 C   0  0  0  0  0  0  0  0  0  0  0  0
   -5.1456   -4.7573   -2.9278 H   0  0  0  0  0  0  0  0  0  0  0  0
   -5.4379   -4.9112   -1.2072 H   0  0  0  0  0  0  0  0  0  0  0  0
   -5.5954   -3.3510   -1.9864 H   0  0  0  0  0  0  0  0  0  0  0  0
   -3.0424   -2.8131   -2.1606 N   0  0  0  0  0  0  0  0  0  0  0  0
   -1.6755   -2.3891   -2.0077 C   0  0  2  0  0  0  0  0  0  0  0  0
   -1.5782   -1.5673   -0.7292 C   0  0  0  0  0  0  0  0  0  0  0  0
   -2.5448   -1.0064   -0.2171 O   0  0  0  0  0  0  0  0  0  0  0  0
   -1.2087   -1.5823   -3.2094 C   0  0  0  0  0  0  0  0  0  0  0  0
   -3.6915   -2.1888   -2.6360 H   0  0  0  0  0  0  0  0  0  0  0  0
   -1.0721   -3.2977   -1.9053 H   0  0  0  0  0  0  0  0  0  0  0  0
   -1.8017   -0.6681   -3.3281 H   0  0  0  0  0  0  0  0  0  0  0  0
   -0.1601   -1.2849   -3.1045 H   0  0  0  0  0  0  0  0  0  0  0  0
   -1.3074   -2.1646   -4.1319 H   0  0  0  0  0  0  0  0  0  0  0  0
   -0.2835   -1.5112   -0.2725 N   0  0  0  0  0  0  0  0  0  0  0  0
    0.0769   -0.7658    0.9424 C   0  0  0  0  0  0  0  0  0  0  0  0
   -0.6733   -1.3289    2.1224 C   0  0  0  0  0  0  0  0  0  0  0  0
   -0.7730   -0.7475    3.1997 O   0  0  0  0  0  0  0  0  0  0  0  0
    0.4587   -2.0097   -0.7289 H   0  0  0  0  0  0  0  0  0  0  0  0
   -0.1840    0.2883    0.8089 H   0  0  0  0  0  0  0  0  0  0  0  0
    1.1541   -0.8537    1.1115 H   0  0  0  0  0  0  0  0  0  0  0  0
   -1.2238   -2.5728    1.8329 N   0  0  0  0  0  0  0  0  0  0  0  0
   -1.9898   -3.3414    2.7784 C   0  0  2  0  0  0  0  0  0  0  0  0
   -3.3624   -3.6007    2.1715 C   0  0  0  0  0  0  0  0  0  0  0  0
   -3.8470   -2.9004    1.2851 O   0  0  0  0  0  0  0  0  0  0  0  0
   -2.1123   -2.6173    4.1101 C   0  0  0  0  0  0  0  0  0  0  0  0
   -1.0770   -2.9605    0.9024 H   0  0  0  0  0  0  0  0  0  0  0  0
   -1.4636   -4.2928    2.9128 H   0  0  0  0  0  0  0  0  0  0  0  0
   -2.6368   -1.6617    3.9954 H   0  0  0  0  0  0  0  0  0  0  0  0
   -2.6709   -3.2158    4.8373 H   0  0  0  0  0  0  0  0  0  0  0  0
   -1.1234   -2.4052    4.5308 H   0  0  0  0  0  0  0  0  0  0  0  0
   -4.0005   -4.6801    2.7663 N   0  0  0  0  0  0  0  0  0  0  0  0
   -5.3196   -5.1187    2.3743 C   0  0  0  0  0  0  0  0  0  0  0  0
   -3.5161   -5.2152    3.4809 H   0  0  0  0  0  0  0  0  0  0  0  0
   -6.0730   -4.6286    3.0084 H   0  0  0  0  0  0  0  0  0  0  0  0
   -5.4968   -4.8521    1.3219 H   0  0  0  0  0  0  0  0  0  0  0  0
   -5.3937   -6.2097    2.4936 H   0  0  0  0  0  0  0  0  0  0  0  0
  1  3  1  0  0  0  0
  1  7  1  0  0  0  0
  1  2  2  0  0  0  0
 18 19  1  0  0  0  0
 19 24  1  0  0  0  0
 19 20  2  0  0  0  0
 25 26  1  0  0  0  0
 26 34  1  0  0  0  0
 26 27  2  0  0  0  0
  8  9  1  0  0  0  0
  9 17  1  0  0  0  0
  9 10  2  0  0  0  0
 25 28  1  0  0  0  0
  8 11  1  0  0  0  0
 34 35  1  0  0  0  0
 17 18  1  0  0  0  0
 24 25  1  0  0  0  0
  7  8  1  0  0  0  0
  3  4  1  0  0  0  0
  3  5  1  0  0  0  0
  3  6  1  0  0  0  0
 28 31  1  0  0  0  0
 28 32  1  0  0  0  0
 28 33  1  0  0  0  0
 11 14  1  0  0  0  0
 11 15  1  0  0  0  0
 11 16  1  0  0  0  0
 35 37  1  0  0  0  0
 35 38  1  0  0  0  0
 35 39  1  0  0  0  0
 18 22  1  0  0  0  0
 18 23  1  0  0  0  0
 25 30  1  0  0  0  0
  8 13  1  0  0  0  0
 34 36  1  0  0  0  0
 17 21  1  0  0  0  0
  7 12  1  0  0  0  0
 24 29  1  0  0  0  0
M  END
$$$$

  -OEChem-05262214473D

 39 38  0     1  0  0  0  0  0999 V2000
   -3.5200   -4.0268   -1.6943 C   0  0  0  0  0  0  0  0  0  0  0  0
   -2.8702   -4.8827   -1.1054 O   0  0  0  0  0  0  0  0  0  0  0  0
   -4.9704   -4.2579   -1.9614 C   0  0  0  0  0  0  0  0  0  0  0  0
   -5.1456   -4.7573   -2.9278 H   0  0  0  0  0  0  0  0  0  0  0  0
   -5.4379   -4.9112   -1.2072 H   0  0  0  0  0  0  0  0  0  0  0  0
   -5.5954   -3.3510   -1.9864 H   0  0  0  0  0  0  0  0  0  0  0  0
   -3.0424   -2.8131   -2.1606 N   0  0  0  0  0  0  0  0  0  0  0  0
   -1.6755   -2.3891   -2.0077 C   0  0  2  0  0  0  0  0  0  0  0  0
   -1.5782   -1.5673   -0.7292 C   0  0  0  0  0  0  0  0  0  0  0  0
   -2.5448   -1.0064   -0.2171 O   0  0  0  0  0  0  0  0  0  0  0  0
   -1.2087   -1.5823   -3.2094 C   0  0  0  0  0  0  0  0  0  0  0  0
   -3.6915   -2.1888   -2.6360 H   0  0  0  0  0  0  0  0  0  0  0  0
   -1.0721   -3.2977   -1.9053 H   0  0  0  0  0  0  0  0  0  0  0  0
   -1.8017   -0.6681   -3.3281 H   0  0  0  0  0  0  0  0  0  0  0  0
   -0.1601   -1.2849   -3.1045 H   0  0  0  0  0  0  0  0  0  0  0  0
   -1.3074   -2.1646   -4.1319 H   0  0  0  0  0  0  0  0  0  0  0  0
   -0.2835   -1.5112   -0.2725 N   0  0  0  0  0  0  0  0  0  0  0  0
    0.0769   -0.7658    0.9424 C   0  0  0  0  0  0  0  0  0  0  0  0
   -0.6733   -1.3289    2.1224 C   0  0  0  0  0  0  0  0  0  0  0  0
   -1.0030   -0.6574    3.0965 O   0  0  0  0  0  0  0  0  0  0  0  0
    0.4587   -2.0097   -0.7289 H   0  0  0  0  0  0  0  0  0  0  0  0
   -0.1840    0.2883    0.8089 H   0  0  0  0  0  0  0  0  0  0  0  0
    1.1541   -0.8537    1.1115 H   0  0  0  0  0  0  0  0  0  0  0  0
   -0.9337   -2.6858    1.9635 N   0  0  0  0  0  0  0  0  0  0  0  0
   -1.6332   -3.4795    2.9392 C   0  0  2  0  0  0  0  0  0  0  0  0
   -2.8529   -4.0901    2.2618 C   0  0  0  0  0  0  0  0  0  0  0  0
   -3.3651   -3.6169    1.2495 O   0  0  0  0  0  0  0  0  0  0  0  0
   -2.0411   -2.6440    4.1426 C   0  0  0  0  0  0  0  0  0  0  0  0
   -0.6123   -3.1420    1.1113 H   0  0  0  0  0  0  0  0  0  0  0  0
   -0.9485   -4.2771    3.2477 H   0  0  0  0  0  0  0  0  0  0  0  0
   -2.7271   -1.8396    3.8531 H   0  0  0  0  0  0  0  0  0  0  0  0
   -2.5479   -3.2552    4.8966 H   0  0  0  0  0  0  0  0  0  0  0  0
   -1.1654   -2.1815    4.6108 H   0  0  0  0  0  0  0  0  0  0  0  0
   -3.3282   -5.2006    2.9453 N   0  0  0  0  0  0  0  0  0  0  0  0
   -4.4843   -5.9485    2.5093 C   0  0  0  0  0  0  0  0  0  0  0  0
   -2.8298   -5.5338    3.7652 H   0  0  0  0  0  0  0  0  0  0  0  0
   -5.3844   -5.5548    3.0042 H   0  0  0  0  0  0  0  0  0  0  0  0
   -4.5936   -5.8518    1.4190 H   0  0  0  0  0  0  0  0  0  0  0  0
   -4.3555   -7.0088    2.7723 H   0  0  0  0  0  0  0  0  0  0  0  0
  1  3  1  0  0  0  0
  1  7  1  0  0  0  0
  1  2  2  0  0  0  0
 18 19  1  0  0  0  0
 19 24  1  0  0  0  0
 19 20  2  0  0  0  0
 25 26  1  0  0  0  0
 26 34  1  0  0  0  0
 26 27  2  0  0  0  0
  8  9  1  0  0  0  0
  9 17  1  0  0  0  0
  9 10  2  0  0  0  0
 25 28  1  0  0  0  0
  8 11  1  0  0  0  0
 34 35  1  0  0  0  0
 17 18  1  0  0  0  0
 24 25  1  0  0  0  0
  7  8  1  0  0  0  0
  3  4  1  0  0  0  0
  3  5  1  0  0  0  0
  3  6  1  0  0  0  0
 28 31  1  0  0  0  0
 28 32  1  0  0  0  0
 28 33  1  0  0  0  0
 11 14  1  0  0  0  0
 11 15  1  0  0  0  0
 11 16  1  0  0  0  0
 35 37  1  0  0  0  0
 35 38  1  0  0  0  0
 35 39  1  0  0  0  0
 18 22  1  0  0  0  0
 18 23  1  0  0  0  0
 25 30  1  0  0  0  0
  8 13  1  0  0  0  0
 34 36  1  0  0  0  0
 17 21  1  0  0  0  0
  7 12  1  0  0  0  0
 24 29  1  0  0  0  0
M  END
$$$$

  -OEChem-05262214473D

 39 38  0     1  0  0  0  0  0999 V2000
   -3.5200   -4.0268   -1.6943 C   0  0  0  0  0  0  0  0  0  0  0  0
   -2.8702   -4.8827   -1.1054 O   0  0  0  0  0  0  0  0  0  0  0  0
   -4.9704   -4.2579   -1.9614 C   0  0  0  0  0  0  0  0  0  0  0  0
   -5.1456   -4.7573   -2.9278 H   0  0  0  0  0  0  0  0  0  0  0  0
   -5.4379   -4.9112   -1.2072 H   0  0  0  0  0  0  0  0  0  0  0  0
   -5.5954   -3.3510   -1.9864 H   0  0  0  0  0  0  0  0  0  0  0  0
   -3.0424   -2.8131   -2.1606 N   0  0  0  0  0  0  0  0  0  0  0  0
   -1.6755   -2.3891   -2.0077 C   0  0  2  0  0  0  0  0  0  0  0  0
   -1.5782   -1.5673   -0.7292 C   0  0  0  0  0  0  0  0  0  0  0  0
   -2.5448   -1.0064   -0.2171 O   0  0  0  0  0  0  0  0  0  0  0  0
   -1.2087   -1.5823   -3.2094 C   0  0  0  0  0  0  0  0  0  0  0  0
   -3.6915   -2.1888   -2.6360 H   0  0  0  0  0  0  0  0  0  0  0  0
   -1.0721   -3.2977   -1.9053 H   0  0  0  0  0  0  0  0  0  0  0  0
   -1.8017   -0.6681   -3.3281 H   0  0  0  0  0  0  0  0  0  0  0  0
   -0.1601   -1.2849   -3.1045 H   0  0  0  0  0  0  0  0  0  0  0  0
   -1.3074   -2.1646   -4.1319 H   0  0  0  0  0  0  0  0  0  0  0  0
   -0.2835   -1.5112   -0.2725 N   0  0  0  0  0  0  0  0  0  0  0  0
    0.0769   -0.7658    0.9424 C   0  0  0  0  0  0  0  0  0  0  0  0
   -0.6733   -1.3289    2.1224 C   0  0  0  0  0  0  0  0  0  0  0  0
   -1.2335   -0.6302    2.9630 O   0  0  0  0  0  0  0  0  0  0  0  0
    0.4587   -2.0097   -0.7289 H   0  0  0  0  0  0  0  0  0  0  0  0
   -0.1840    0.2883    0.8089 H   0  0  0  0  0  0  0  0  0  0  0  0
    1.1541   -0.8537    1.1115 H   0  0  0  0  0  0  0  0  0  0  0  0
   -0.6432   -2.7193    2.1321 N   0  0  0  0  0  0  0  0  0  0  0  0
   -1.2762   -3.5200    3.1468 C   0  0  2  0  0  0  0  0  0  0  0  0
   -2.2704   -4.4480    2.4613 C   0  0  0  0  0  0  0  0  0  0  0  0
   -2.7510   -4.2160    1.3540 O   0  0  0  0  0  0  0  0  0  0  0  0
   -1.9700   -2.6511    4.1844 C   0  0  0  0  0  0  0  0  0  0  0  0
   -0.1468   -3.1963    1.3813 H   0  0  0  0  0  0  0  0  0  0  0  0
   -0.4865   -4.1144    3.6190 H   0  0  0  0  0  0  0  0  0  0  0  0
   -2.7645   -2.0481    3.7298 H   0  0  0  0  0  0  0  0  0  0  0  0
   -2.4267   -3.2608    4.9710 H   0  0  0  0  0  0  0  0  0  0  0  0
   -1.2591   -1.9636    4.6552 H   0  0  0  0  0  0  0  0  0  0  0  0
   -2.5907   -5.5440    3.2502 N   0  0  0  0  0  0  0  0  0  0  0  0
   -3.5224   -6.5633    2.8273 C   0  0  0  0  0  0  0  0  0  0  0  0
   -2.1298   -5.6659    4.1471 H   0  0  0  0  0  0  0  0  0  0  0  0
   -4.5311   -6.3105    3.1860 H   0  0  0  0  0  0  0  0  0  0  0  0
   -3.5280   -6.6219    1.7289 H   0  0  0  0  0  0  0  0  0  0  0  0
   -3.2177   -7.5344    3.2447 H   0  0  0  0  0  0  0  0  0  0  0  0
  1  3  1  0  0  0  0
  1  7  1  0  0  0  0
  1  2  2  0  0  0  0
 18 19  1  0  0  0  0
 19 24  1  0  0  0  0
 19 20  2  0  0  0  0
 25 26  1  0  0  0  0
 26 34  1  0  0  0  0
 26 27  2  0  0  0  0
  8  9  1  0  0  0  0
  9 17  1  0  0  0  0
  9 10  2  0  0  0  0
 25 28  1  0  0  0  0
  8 11  1  0  0  0  0
 34 35  1  0  0  0  0
 17 18  1  0  0  0  0
 24 25  1  0  0  0  0
  7  8  1  0  0  0  0
  3  4  1  0  0  0  0
  3  5  1  0  0  0  0
  3  6  1  0  0  0  0
 28 31  1  0  0  0  0
 28 32  1  0  0  0  0
 28 33  1  0  0  0  0
 11 14  1  0  0  0  0
 11 15  1  0  0  0  0
 11 16  1  0  0  0  0
 35 37  1  0  0  0  0
 35 38  1  0  0  0  0
 35 39  1  0  0  0  0
 18 22  1  0  0  0  0
 18 23  1  0  0  0  0
 25 30  1  0  0  0  0
  8 13  1  0  0  0  0
 34 36  1  0  0  0  0
 17 21  1  0  0  0  0
  7 12  1  0  0  0  0
 24 29  1  0  0  0  0
M  END
$$$$

  -OEChem-05262214473D

 39 38  0     1  0  0  0  0  0999 V2000
   -3.5200   -4.0268   -1.6943 C   0  0  0  0  0  0  0  0  0  0  0  0
   -2.8702   -4.8827   -1.1054 O   0  0  0  0  0  0  0  0  0  0  0  0
   -4.9704   -4.2579   -1.9614 C   0  0  0  0  0  0  0  0  0  0  0  0
   -5.1456   -4.7573   -2.9278 H   0  0  0  0  0  0  0  0  0  0  0  0
   -5.4379   -4.9112   -1.2072 H   0  0  0  0  0  0  0  0  0  0  0  0
   -5.5954   -3.3510   -1.9864 H   0  0  0  0  0  0  0  0  0  0  0  0
   -3.0424   -2.8131   -2.1606 N   0  0  0  0  0  0  0  0  0  0  0  0
   -1.6755   -2.3891   -2.0077 C   0  0  2  0  0  0  0  0  0  0  0  0
   -1.5782   -1.5673   -0.7292 C   0  0  0  0  0  0  0  0  0  0  0  0
   -2.5448   -1.0064   -0.2171 O   0  0  0  0  0  0  0  0  0  0  0  0
   -1.2087   -1.5823   -3.2094 C   0  0  0  0  0  0  0  0  0  0  0  0
   -3.6915   -2.1888   -2.6360 H   0  0  0  0  0  0  0  0  0  0  0  0
   -1.0721   -3.2977   -1.9053 H   0  0  0  0  0  0  0  0  0  0  0  0
   -1.8017   -0.6681   -3.3281 H   0  0  0  0  0  0  0  0  0  0  0  0
   -0.1601   -1.2849   -3.1045 H   0  0  0  0  0  0  0  0  0  0  0  0
   -1.3074   -2.1646   -4.1319 H   0  0  0  0  0  0  0  0  0  0  0  0
   -0.2835   -1.5112   -0.2725 N   0  0  0  0  0  0  0  0  0  0  0  0
    0.0769   -0.7658    0.9424 C   0  0  0  0  0  0  0  0  0  0  0  0
   -0.6733   -1.3289    2.1224 C   0  0  0  0  0  0  0  0  0  0  0  0
   -1.4486   -0.6679    2.8082 O   0  0  0  0  0  0  0  0  0  0  0  0
    0.4587   -2.0097   -0.7289 H   0  0  0  0  0  0  0  0  0  0  0  0
   -0.1840    0.2883    0.8089 H   0  0  0  0  0  0  0  0  0  0  0  0
    1.1541   -0.8537    1.1115 H   0  0  0  0  0  0  0  0  0  0  0  0
   -0.3721   -2.6711    2.3275 N   0  0  0  0  0  0  0  0  0  0  0  0
   -0.9434   -3.4600    3.3870 C   0  0  2  0  0  0  0  0  0  0  0  0
   -1.6545   -4.6500    2.7565 C   0  0  0  0  0  0  0  0  0  0  0  0
   -2.0465   -4.6568    1.5914 O   0  0  0  0  0  0  0  0  0  0  0  0
   -1.9039   -2.6383    4.2325 C   0  0  0  0  0  0  0  0  0  0  0  0
    0.2877   -3.1196    1.6941 H   0  0  0  0  0  0  0  0  0  0  0  0
   -0.1091   -3.8159    4.0014 H   0  0  0  0  0  0  0  0  0  0  0  0
   -2.7465   -2.2730    3.6340 H   0  0  0  0  0  0  0  0  0  0  0  0
   -2.3158   -3.2320    5.0552 H   0  0  0  0  0  0  0  0  0  0  0  0
   -1.3980   -1.7664    4.6610 H   0  0  0  0  0  0  0  0  0  0  0  0
   -1.8383   -5.6870    3.6603 N   0  0  0  0  0  0  0  0  0  0  0  0
   -2.4995   -6.9214    3.3067 C   0  0  0  0  0  0  0  0  0  0  0  0
   -1.4638   -5.6025    4.6008 H   0  0  0  0  0  0  0  0  0  0  0  0
   -3.5714   -6.8441    3.5415 H   0  0  0  0  0  0  0  0  0  0  0  0
   -2.3727   -7.1099    2.2305 H   0  0  0  0  0  0  0  0  0  0  0  0
   -2.0579   -7.7507    3.8788 H   0  0  0  0  0  0  0  0  0  0  0  0
  1  3  1  0  0  0  0
  1  7  1  0  0  0  0
  1  2  2  0  0  0  0
 18 19  1  0  0  0  0
 19 24  1  0  0  0  0
 19 20  2  0  0  0  0
 25 26  1  0  0  0  0
 26 34  1  0  0  0  0
 26 27  2  0  0  0  0
  8  9  1  0  0  0  0
  9 17  1  0  0  0  0
  9 10  2  0  0  0  0
 25 28  1  0  0  0  0
  8 11  1  0  0  0  0
 34 35  1  0  0  0  0
 17 18  1  0  0  0  0
 24 25  1  0  0  0  0
  7  8  1  0  0  0  0
  3  4  1  0  0  0  0
  3  5  1  0  0  0  0
  3  6  1  0  0  0  0
 28 31  1  0  0  0  0
 28 32  1  0  0  0  0
 28 33  1  0  0  0  0
 11 14  1  0  0  0  0
 11 15  1  0  0  0  0
 11 16  1  0  0  0  0
 35 37  1  0  0  0  0
 35 38  1  0  0  0  0
 35 39  1  0  0  0  0
 18 22  1  0  0  0  0
 18 23  1  0  0  0  0
 25 30  1  0  0  0  0
  8 13  1  0  0  0  0
 34 36  1  0  0  0  0
 17 21  1  0  0  0  0
  7 12  1  0  0  0  0
 24 29  1  0  0  0  0
M  END
$$$$

  -OEChem-05262214473D

 39 38  0     1  0  0  0  0  0999 V2000
   -3.5200   -4.0268   -1.6943 C   0  0  0  0  0  0  0  0  0  0  0  0
   -2.8702   -4.8827   -1.1054 O   0  0  0  0  0  0  0  0  0  0  0  0
   -4.9704   -4.2579   -1.9614 C   0  0  0  0  0  0  0  0  0  0  0  0
   -5.1456   -4.7573   -2.9278 H   0  0  0  0  0  0  0  0  0  0  0  0
   -5.4379   -4.9112   -1.2072 H   0  0  0  0  0  0  0  0  0  0  0  0
   -5.5954   -3.3510   -1.9864 H   0  0  0  0  0  0  0  0  0  0  0  0
   -3.0424   -2.8131   -2.1606 N   0  0  0  0  0  0  0  0  0  0  0  0
   -1.6755   -2.3891   -2.0077 C   0  0  2  0  0  0  0  0  0  0  0  0
   -1.5782   -1.5673   -0.7292 C   0  0  0  0  0  0  0  0  0  0  0  0
   -2.5448   -1.0064   -0.2171 O   0  0  0  0  0  0  0  0  0  0  0  0
   -1.2087   -1.5823   -3.2094 C   0  0  0  0  0  0  0  0  0  0  0  0
   -3.6915   -2.1888   -2.6360 H   0  0  0  0  0  0  0  0  0  0  0  0
   -1.0721   -3.2977   -1.9053 H   0  0  0  0  0  0  0  0  0  0  0  0
   -1.8017   -0.6681   -3.3281 H   0  0  0  0  0  0  0  0  0  0  0  0
   -0.1601   -1.2849   -3.1045 H   0  0  0  0  0  0  0  0  0  0  0  0
   -1.3074   -2.1646   -4.1319 H   0  0  0  0  0  0  0  0  0  0  0  0
   -0.2835   -1.5112   -0.2725 N   0  0  0  0  0  0  0  0  0  0  0  0
    0.0769   -0.7658    0.9424 C   0  0  0  0  0  0  0  0  0  0  0  0
   -0.6733   -1.3289    2.1224 C   0  0  0  0  0  0  0  0  0  0  0  0
   -1.6339   -0.7678    2.6428 O   0  0  0  0  0  0  0  0  0  0  0  0
    0.4587   -2.0097   -0.7289 H   0  0  0  0  0  0  0  0  0  0  0  0
   -0.1840    0.2883    0.8089 H   0  0  0  0  0  0  0  0  0  0  0  0
    1.1541   -0.8537    1.1115 H   0  0  0  0  0  0  0  0  0  0  0  0
   -0.1389   -2.5445    2.5361 N   0  0  0  0  0  0  0  0  0  0  0  0
   -0.6572   -3.3037    3.6436 C   0  0  2  0  0  0  0  0  0  0  0  0
   -1.0472   -4.6823    3.1271 C   0  0  0  0  0  0  0  0  0  0  0  0
   -1.2998   -4.9093    1.9457 O   0  0  0  0  0  0  0  0  0  0  0  0
   -1.8474   -2.6063    4.2837 C   0  0  0  0  0  0  0  0  0  0  0  0
    0.6617   -2.9172    2.0284 H   0  0  0  0  0  0  0  0  0  0  0  0
    0.1579   -3.4018    4.3688 H   0  0  0  0  0  0  0  0  0  0  0  0
   -2.6742   -2.4989    3.5722 H   0  0  0  0  0  0  0  0  0  0  0  0
   -2.2227   -3.1709    5.1436 H   0  0  0  0  0  0  0  0  0  0  0  0
   -1.5727   -1.6034    4.6278 H   0  0  0  0  0  0  0  0  0  0  0  0
   -1.1221   -5.6199    4.1476 N   0  0  0  0  0  0  0  0  0  0  0  0
   -1.4852   -6.9983    3.9148 C   0  0  0  0  0  0  0  0  0  0  0  0
   -0.8773   -5.3478    5.0951 H   0  0  0  0  0  0  0  0  0  0  0  0
   -2.5706   -7.1193    4.0463 H   0  0  0  0  0  0  0  0  0  0  0  0
   -1.2063   -7.2827    2.8895 H   0  0  0  0  0  0  0  0  0  0  0  0
   -0.9551   -7.6430    4.6313 H   0  0  0  0  0  0  0  0  0  0  0  0
  1  3  1  0  0  0  0
  1  7  1  0  0  0  0
  1  2  2  0  0  0  0
 18 19  1  0  0  0  0
 19 24  1  0  0  0  0
 19 20  2  0  0  0  0
 25 26  1  0  0  0  0
 26 34  1  0  0  0  0
 26 27  2  0  0  0  0
  8  9  1  0  0  0  0
  9 17  1  0  0  0  0
  9 10  2  0  0  0  0
 25 28  1  0  0  0  0
  8 11  1  0  0  0  0
 34 35  1  0  0  0  0
 17 18  1  0  0  0  0
 24 25  1  0  0  0  0
  7  8  1  0  0  0  0
  3  4  1  0  0  0  0
  3  5  1  0  0  0  0
  3  6  1  0  0  0  0
 28 31  1  0  0  0  0
 28 32  1  0  0  0  0
 28 33  1  0  0  0  0
 11 14  1  0  0  0  0
 11 15  1  0  0  0  0
 11 16  1  0  0  0  0
 35 37  1  0  0  0  0
 35 38  1  0  0  0  0
 35 39  1  0  0  0  0
 18 22  1  0  0  0  0
 18 23  1  0  0  0  0
 25 30  1  0  0  0  0
  8 13  1  0  0  0  0
 34 36  1  0  0  0  0
 17 21  1  0  0  0  0
  7 12  1  0  0  0  0
 24 29  1  0  0  0  0
M  END
$$$$

  -OEChem-05262214473D

 39 38  0     1  0  0  0  0  0999 V2000
   -3.5200   -4.0268   -1.6943 C   0  0  0  0  0  0  0  0  0  0  0  0
   -2.8702   -4.8827   -1.1054 O   0  0  0  0  0  0  0  0  0  0  0  0
   -4.9704   -4.2579   -1.9614 C   0  0  0  0  0  0  0  0  0  0  0  0
   -5.1456   -4.7573   -2.9278 H   0  0  0  0  0  0  0  0  0  0  0  0
   -5.4379   -4.9112   -1.2072 H   0  0  0  0  0  0  0  0  0  0  0  0
   -5.5954   -3.3510   -1.9864 H   0  0  0  0  0  0  0  0  0  0  0  0
   -3.0424   -2.8131   -2.1606 N   0  0  0  0  0  0  0  0  0  0  0  0
   -1.6755   -2.3891   -2.0077 C   0  0  2  0  0  0  0  0  0  0  0  0
   -1.5782   -1.5673   -0.7292 C   0  0  0  0  0  0  0  0  0  0  0  0
   -2.5448   -1.0064   -0.2171 O   0  0  0  0  0  0  0  0  0  0  0  0
   -1.2087   -1.5823   -3.2094 C   0  0  0  0  0  0  0  0  0  0  0  0
   -3.6915   -2.1888   -2.6360 H   0  0  0  0  0  0  0  0  0  0  0  0
   -1.0721   -3.2977   -1.9053 H   0  0  0  0  0  0  0  0  0  0  0  0
   -1.8017   -0.6681   -3.3281 H   0  0  0  0  0  0  0  0  0  0  0  0
   -0.1601   -1.2849   -3.1045 H   0  0  0  0  0  0  0  0  0  0  0  0
   -1.3074   -2.1646   -4.1319 H   0  0  0  0  0  0  0  0  0  0  0  0
   -0.2835   -1.5112   -0.2725 N   0  0  0  0  0  0  0  0  0  0  0  0
    0.0769   -0.7658    0.9424 C   0  0  0  0  0  0  0  0  0  0  0  0
   -0.6733   -1.3289    2.1224 C   0  0  0  0  0  0  0  0  0  0  0  0
   -1.7766   -0.9231    2.4779 O   0  0  0  0  0  0  0  0  0  0  0  0
    0.4587   -2.0097   -0.7289 H   0  0  0  0  0  0  0  0  0  0  0  0
   -0.1840    0.2883    0.8089 H   0  0  0  0  0  0  0  0  0  0  0  0
    1.1541   -0.8537    1.1115 H   0  0  0  0  0  0  0  0  0  0  0  0
    0.0405   -2.3480    2.7439 N   0  0  0  0  0  0  0  0  0  0  0  0
   -0.4373   -3.0616    3.8989 C   0  0  2  0  0  0  0  0  0  0  0  0
   -0.4899   -4.5427    3.5480 C   0  0  0  0  0  0  0  0  0  0  0  0
   -0.5615   -4.9562    2.3926 O   0  0  0  0  0  0  0  0  0  0  0  0
   -1.8042   -2.5573    4.3345 C   0  0  0  0  0  0  0  0  0  0  0  0
    0.9496   -2.6029    2.3614 H   0  0  0  0  0  0  0  0  0  0  0  0
    0.2965   -2.9004    4.6961 H   0  0  0  0  0  0  0  0  0  0  0  0
   -2.5527   -2.7104    3.5485 H   0  0  0  0  0  0  0  0  0  0  0  0
   -2.1536   -3.0816    5.2301 H   0  0  0  0  0  0  0  0  0  0  0  0
   -1.7712   -1.4855    4.5578 H   0  0  0  0  0  0  0  0  0  0  0  0
   -0.4910   -5.3472    4.6789 N   0  0  0  0  0  0  0  0  0  0  0  0
   -0.5487   -6.7887    4.6102 C   0  0  0  0  0  0  0  0  0  0  0  0
   -0.4101   -4.9194    5.5966 H   0  0  0  0  0  0  0  0  0  0  0  0
   -1.5970   -7.1173    4.6662 H   0  0  0  0  0  0  0  0  0  0  0  0
   -0.1084   -7.1283    3.6611 H   0  0  0  0  0  0  0  0  0  0  0  0
    0.0156   -7.2187    5.4508 H   0  0  0  0  0  0  0  0  0  0  0  0
  1  3  1  0  0  0  0
  1  7  1  0  0  0  0
  1  2  2  0  0  0  0
 18 19  1  0  0  0  0
 19 24  1  0  0  0  0
 19 20  2  0  0  0  0
 25 26  1  0  0  0  0
 26 34  1  0  0  0  0
 26 27  2  0  0  0  0
  8  9  1  0  0  0  0
  9 17  1  0  0  0  0
  9 10  2  0  0  0  0
 25 28  1  0  0  0  0
  8 11  1  0  0  0  0
 34 35  1  0  0  0  0
 17 18  1  0  0  0  0
 24 25  1  0  0  0  0
  7  8  1  0  0  0  0
  3  4  1  0  0  0  0
  3  5  1  0  0  0  0
  3  6  1  0  0  0  0
 28 31  1  0  0  0  0
 28 32  1  0  0  0  0
 28 33  1  0  0  0  0
 11 14  1  0  0  0  0
 11 15  1  0  0  0  0
 11 16  1  0  0  0  0
 35 37  1  0  0  0  0
 35 38  1  0  0  0  0
 35 39  1  0  0  0  0
 18 22  1  0  0  0  0
 18 23  1  0  0  0  0
 25 30  1  0  0  0  0
  8 13  1  0  0  0  0
 34 36  1  0  0  0  0
 17 21  1  0  0  0  0
  7 12  1  0  0  0  0
 24 29  1  0  0  0  0
M  END
$$$$

  -OEChem-05262214473D

 39 38  0     1  0  0  0  0  0999 V2000
   -3.5200   -4.0268   -1.6943 C   0  0  0  0  0  0  0  0  0  0  0  0
   -2.8702   -4.8827   -1.1054 O   0  0  0  0  0  0  0  0  0  0  0  0
   -4.9704   -4.2579   -1.9614 C   0  0  0  0  0  0  0  0  0  0  0  0
   -5.1456   -4.7573   -2.9278 H   0  0  0  0  0  0  0  0  0  0  0  0
   -5.4379   -4.9112   -1.2072 H   0  0  0  0  0  0  0  0  0  0  0  0
   -5.5954   -3.3510   -1.9864 H   0  0  0  0  0  0  0  0  0  0  0  0
   -3.0424   -2.8131   -2.1606 N   0  0  0  0  0  0  0  0  0  0  0  0
   -1.6755   -2.3891   -2.0077 C   0  0  2  0  0  0  0  0  0  0  0  0
   -1.5782   -1.5673   -0.7292 C   0  0  0  0  0  0  0  0  0  0  0  0
   -2.5448   -1.0064   -0.2171 O   0  0  0  0  0  0  0  0  0  0  0  0
   -1.2087   -1.5823   -3.2094 C   0  0  0  0  0  0  0  0  0  0  0  0
   -3.6915   -2.1888   -2.6360 H   0  0  0  0  0  0  0  0  0  0  0  0
   -1.0721   -3.2977   -1.9053 H   0  0  0  0  0  0  0  0  0  0  0  0
   -1.8017   -0.6681   -3.3281 H   0  0  0  0  0  0  0  0  0  0  0  0
   -0.1601   -1.2849   -3.1045 H   0  0  0  0  0  0  0  0  0  0  0  0
   -1.3074   -2.1646   -4.1319 H   0  0  0  0  0  0  0  0  0  0  0  0
   -0.2835   -1.5112   -0.2725 N   0  0  0  0  0  0  0  0  0  0  0  0
    0.0769   -0.7658    0.9424 C   0  0  0  0  0  0  0  0  0  0  0  0
   -0.6733   -1.3289    2.1224 C   0  0  0  0  0  0  0  0  0  0  0  0
   -1.8671   -1.1233    2.3249 O   0  0  0  0  0  0  0  0  0  0  0  0
    0.4587   -2.0097   -0.7289 H   0  0  0  0  0  0  0  0  0  0  0  0
   -0.1840    0.2883    0.8089 H   0  0  0  0  0  0  0  0  0  0  0  0
    1.1541   -0.8537    1.1115 H   0  0  0  0  0  0  0  0  0  0  0  0
    0.1539   -2.0951    2.9367 N   0  0  0  0  0  0  0  0  0  0  0  0
   -0.2985   -2.7504    4.1356 C   0  0  2  0  0  0  0  0  0  0  0  0
   -0.0206   -4.2408    3.9905 C   0  0  0  0  0  0  0  0  0  0  0  0
    0.1179   -4.7944    2.9017 O   0  0  0  0  0  0  0  0  0  0  0  0
   -1.7774   -2.4947    4.3815 C   0  0  0  0  0  0  0  0  0  0  0  0
    1.1317   -2.1981    2.6704 H   0  0  0  0  0  0  0  0  0  0  0  0
    0.2971   -2.3459    4.9611 H   0  0  0  0  0  0  0  0  0  0  0  0
   -2.3902   -2.8931    3.5646 H   0  0  0  0  0  0  0  0  0  0  0  0
   -2.1134   -2.9702    5.3089 H   0  0  0  0  0  0  0  0  0  0  0  0
   -1.9801   -1.4209    4.4559 H   0  0  0  0  0  0  0  0  0  0  0  0
    0.0119   -4.8875    5.2180 N   0  0  0  0  0  0  0  0  0  0  0  0
    0.2462   -6.3070    5.3454 C   0  0  0  0  0  0  0  0  0  0  0  0
   -0.0941   -4.3463    6.0709 H   0  0  0  0  0  0  0  0  0  0  0  0
   -0.7169   -6.8383    5.3588 H   0  0  0  0  0  0  0  0  0  0  0  0
    0.8462   -6.6574    4.4927 H   0  0  0  0  0  0  0  0  0  0  0  0
    0.7880   -6.5065    6.2817 H   0  0  0  0  0  0  0  0  0  0  0  0
  1  3  1  0  0  0  0
  1  7  1  0  0  0  0
  1  2  2  0  0  0  0
 18 19  1  0  0  0  0
 19 24  1  0  0  0  0
 19 20  2  0  0  0  0
 25 26  1  0  0  0  0
 26 34  1  0  0  0  0
 26 27  2  0  0  0  0
  8  9  1  0  0  0  0
  9 17  1  0  0  0  0
  9 10  2  0  0  0  0
 25 28  1  0  0  0  0
  8 11  1  0  0  0  0
 34 35  1  0  0  0  0
 17 18  1  0  0  0  0
 24 25  1  0  0  0  0
  7  8  1  0  0  0  0
  3  4  1  0  0  0  0
  3  5  1  0  0  0  0
  3  6  1  0  0  0  0
 28 31  1  0  0  0  0
 28 32  1  0  0  0  0
 28 33  1  0  0  0  0
 11 14  1  0  0  0  0
 11 15  1  0  0  0  0
 11 16  1  0  0  0  0
 35 37  1  0  0  0  0
 35 38  1  0  0  0  0
 35 39  1  0  0  0  0
 18 22  1  0  0  0  0
 18 23  1  0  0  0  0
 25 30  1  0  0  0  0
  8 13  1  0  0  0  0
 34 36  1  0  0  0  0
 17 21  1  0  0  0  0
  7 12  1  0  0  0  0
 24 29  1  0  0  0  0
M  END
$$$$

  -OEChem-05262214473D

 39 38  0     1  0  0  0  0  0999 V2000
   -3.5200   -4.0268   -1.6943 C   0  0  0  0  0  0  0  0  0  0  0  0
   -2.8702   -4.8827   -1.1054 O   0  0  0  0  0  0  0  0  0  0  0  0
   -4.9704   -4.2579   -1.9614 C   0  0  0  0  0  0  0  0  0  0  0  0
   -5.1456   -4.7573   -2.9278 H   0  0  0  0  0  0  0  0  0  0  0  0
   -5.4379   -4.9112   -1.2072 H   0  0  0  0  0  0  0  0  0  0  0  0
   -5.5954   -3.3510   -1.9864 H   0  0  0  0  0  0  0  0  0  0  0  0
   -3.0424   -2.8131   -2.1606 N   0  0  0  0  0  0  0  0  0  0  0  0
   -1.6755   -2.3891   -2.0077 C   0  0  2  0  0  0  0  0  0  0  0  0
   -1.5782   -1.5673   -0.7292 C   0  0  0  0  0  0  0  0  0  0  0  0
   -2.5448   -1.0064   -0.2171 O   0  0  0  0  0  0  0  0  0  0  0  0
   -1.2087   -1.5823   -3.2094 C   0  0  0  0  0  0  0  0  0  0  0  0
   -3.6915   -2.1888   -2.6360 H   0  0  0  0  0  0  0  0  0  0  0  0
   -1.0721   -3.2977   -1.9053 H   0  0  0  0  0  0  0  0  0  0  0  0
   -1.8017   -0.6681   -3.3281 H   0  0  0  0  0  0  0  0  0  0  0  0
   -0.1601   -1.2849   -3.1045 H   0  0  0  0  0  0  0  0  0  0  0  0
   -1.3074   -2.1646   -4.1319 H   0  0  0  0  0  0  0  0  0  0  0  0
   -0.2835   -1.5112   -0.2725 N   0  0  0  0  0  0  0  0  0  0  0  0
    0.0769   -0.7658    0.9424 C   0  0  0  0  0  0  0  0  0  0  0  0
   -0.6733   -1.3289    2.1224 C   0  0  0  0  0  0  0  0  0  0  0  0
   -1.8991   -1.3547    2.1941 O   0  0  0  0  0  0  0  0  0  0  0  0
    0.4587   -2.0097   -0.7289 H   0  0  0  0  0  0  0  0  0  0  0  0
   -0.1840    0.2883    0.8089 H   0  0  0  0  0  0  0  0  0  0  0  0
    1.1541   -0.8537    1.1115 H   0  0  0  0  0  0  0  0  0  0  0  0
    0.1936   -1.8031    3.1013 N   0  0  0  0  0  0  0  0  0  0  0  0
   -0.2505   -2.3912    4.3375 C   0  0  2  0  0  0  0  0  0  0  0  0
    0.3288   -3.7970    4.4243 C   0  0  0  0  0  0  0  0  0  0  0  0
    0.6921   -4.4349    3.4383 O   0  0  0  0  0  0  0  0  0  0  0  0
   -1.7686   -2.4228    4.4214 C   0  0  0  0  0  0  0  0  0  0  0  0
    1.1958   -1.7303    2.9343 H   0  0  0  0  0  0  0  0  0  0  0  0
    0.1597   -1.7760    5.1457 H   0  0  0  0  0  0  0  0  0  0  0  0
   -2.1977   -3.0346    3.6194 H   0  0  0  0  0  0  0  0  0  0  0  0
   -2.1047   -2.8443    5.3745 H   0  0  0  0  0  0  0  0  0  0  0  0
   -2.1851   -1.4140    4.3289 H   0  0  0  0  0  0  0  0  0  0  0  0
    0.3524   -4.2722    5.7281 N   0  0  0  0  0  0  0  0  0  0  0  0
    0.8453   -5.5860    6.0703 C   0  0  0  0  0  0  0  0  0  0  0  0
    0.0491   -3.6676    6.4858 H   0  0  0  0  0  0  0  0  0  0  0  0
    0.0097   -6.3013    6.0770 H   0  0  0  0  0  0  0  0  0  0  0  0
    1.5925   -5.9021    5.3275 H   0  0  0  0  0  0  0  0  0  0  0  0
    1.3094   -5.5551    7.0671 H   0  0  0  0  0  0  0  0  0  0  0  0
  1  3  1  0  0  0  0
  1  7  1  0  0  0  0
  1  2  2  0  0  0  0
 18 19  1  0  0  0  0
 19 24  1  0  0  0  0
 19 20  2  0  0  0  0
 25 26  1  0  0  0  0
 26 34  1  0  0  0  0
 26 27  2  0  0  0  0
  8  9  1  0  0  0  0
  9 17  1  0  0  0  0
  9 10  2  0  0  0  0
 25 28  1  0  0  0  0
  8 11  1  0  0  0  0
 34 35  1  0  0  0  0
 17 18  1  0  0  0  0
 24 25  1  0  0  0  0
  7  8  1  0  0  0  0
  3  4  1  0  0  0  0
  3  5  1  0  0  0  0
  3  6  1  0  0  0  0
 28 31  1  0  0  0  0
 28 32  1  0  0  0  0
 28 33  1  0  0  0  0
 11 14  1  0  0  0  0
 11 15  1  0  0  0  0
 11 16  1  0  0  0  0
 35 37  1  0  0  0  0
 35 38  1  0  0  0  0
 35 39  1  0  0  0  0
 18 22  1  0  0  0  0
 18 23  1  0  0  0  0
 25 30  1  0  0  0  0
  8 13  1  0  0  0  0
 34 36  1  0  0  0  0
 17 21  1  0  0  0  0
  7 12  1  0  0  0  0
 24 29  1  0  0  0  0
M  END
$$$$

  -OEChem-05262214473D

 39 38  0     1  0  0  0  0  0999 V2000
   -3.5200   -4.0268   -1.6943 C   0  0  0  0  0  0  0  0  0  0  0  0
   -2.8702   -4.8827   -1.1054 O   0  0  0  0  0  0  0  0  0  0  0  0
   -4.9704   -4.2579   -1.9614 C   0  0  0  0  0  0  0  0  0  0  0  0
   -5.1456   -4.7573   -2.9278 H   0  0  0  0  0  0  0  0  0  0  0  0
   -5.4379   -4.9112   -1.2072 H   0  0  0  0  0  0  0  0  0  0  0  0
   -5.5954   -3.3510   -1.9864 H   0  0  0  0  0  0  0  0  0  0  0  0
   -3.0424   -2.8131   -2.1606 N   0  0  0  0  0  0  0  0  0  0  0  0
   -1.6755   -2.3891   -2.0077 C   0  0  2  0  0  0  0  0  0  0  0  0
   -1.5782   -1.5673   -0.7292 C   0  0  0  0  0  0  0  0  0  0  0  0
   -2.5448   -1.0064   -0.2171 O   0  0  0  0  0  0  0  0  0  0  0  0
   -1.2087   -1.5823   -3.2094 C   0  0  0  0  0  0  0  0  0  0  0  0
   -3.6915   -2.1888   -2.6360 H   0  0  0  0  0  0  0  0  0  0  0  0
   -1.0721   -3.2977   -1.9053 H   0  0  0  0  0  0  0  0  0  0  0  0
   -1.8017   -0.6681   -3.3281 H   0  0  0  0  0  0  0  0  0  0  0  0
   -0.1601   -1.2849   -3.1045 H   0  0  0  0  0  0  0  0  0  0  0  0
   -1.3074   -2.1646   -4.1319 H   0  0  0  0  0  0  0  0  0  0  0  0
   -0.2835   -1.5112   -0.2725 N   0  0  0  0  0  0  0  0  0  0  0  0
    0.0769   -0.7658    0.9424 C   0  0  0  0  0  0  0  0  0  0  0  0
   -0.6733   -1.3289    2.1224 C   0  0  0  0  0  0  0  0  0  0  0  0
   -1.8705   -1.6015    2.0945 O   0  0  0  0  0  0  0  0  0  0  0  0
    0.4587   -2.0097   -0.7289 H   0  0  0  0  0  0  0  0  0  0  0  0
   -0.1840    0.2883    0.8089 H   0  0  0  0  0  0  0  0  0  0  0  0
    1.1541   -0.8537    1.1115 H   0  0  0  0  0  0  0  0  0  0  0  0
    0.1568   -1.4917    3.2265 N   0  0  0  0  0  0  0  0  0  0  0  0
   -0.2964   -2.0085    4.4910 C   0  0  2  0  0  0  0  0  0  0  0  0
    0.5345   -3.2417    4.8200 C   0  0  0  0  0  0  0  0  0  0  0  0
    1.1221   -3.9022    3.9659 O   0  0  0  0  0  0  0  0  0  0  0  0
   -1.7786   -2.3464    4.4515 C   0  0  0  0  0  0  0  0  0  0  0  0
    1.1374   -1.2315    3.1352 H   0  0  0  0  0  0  0  0  0  0  0  0
   -0.1063   -1.2296    5.2374 H   0  0  0  0  0  0  0  0  0  0  0  0
   -1.9884   -3.1252    3.7092 H   0  0  0  0  0  0  0  0  0  0  0  0
   -2.1281   -2.7125    5.4225 H   0  0  0  0  0  0  0  0  0  0  0  0
   -2.3723   -1.4652    4.1855 H   0  0  0  0  0  0  0  0  0  0  0  0
    0.5074   -3.5431    6.1745 N   0  0  0  0  0  0  0  0  0  0  0  0
    1.2078   -4.6747    6.7356 C   0  0  0  0  0  0  0  0  0  0  0  0
    0.0098   -2.9295    6.8131 H   0  0  0  0  0  0  0  0  0  0  0  0
    0.5333   -5.5429    6.7718 H   0  0  0  0  0  0  0  0  0  0  0  0
    2.0796   -4.9137    6.1088 H   0  0  0  0  0  0  0  0  0  0  0  0
    1.5444   -4.4294    7.7537 H   0  0  0  0  0  0  0  0  0  0  0  0
  1  3  1  0  0  0  0
  1  7  1  0  0  0  0
  1  2  2  0  0  0  0
 18 19  1  0  0  0  0
 19 24  1  0  0  0  0
 19 20  2  0  0  0  0
 25 26  1  0  0  0  0
 26 34  1  0  0  0  0
 26 27  2  0  0  0  0
  8  9  1  0  0  0  0
  9 17  1  0  0  0  0
  9 10  2  0  0  0  0
 25 28  1  0  0  0  0
  8 11  1  0  0  0  0
 34 35  1  0  0  0  0
 17 18  1  0  0  0  0
 24 25  1  0  0  0  0
  7  8  1  0  0  0  0
  3  4  1  0  0  0  0
  3  5  1  0  0  0  0
  3  6  1  0  0  0  0
 28 31  1  0  0  0  0
 28 32  1  0  0  0  0
 28 33  1  0  0  0  0
 11 14  1  0  0  0  0
 11 15  1  0  0  0  0
 11 16  1  0  0  0  0
 35 37  1  0  0  0  0
 35 38  1  0  0  0  0
 35 39  1  0  0  0  0
 18 22  1  0  0  0  0
 18 23  1  0  0  0  0
 25 30  1  0  0  0  0
  8 13  1  0  0  0  0
 34 36  1  0  0  0  0
 17 21  1  0  0  0  0
  7 12  1  0  0  0  0
 24 29  1  0  0  0  0
M  END
$$$$

  -OEChem-05262214473D

 39 38  0     1  0  0  0  0  0999 V2000
   -3.5200   -4.0268   -1.6943 C   0  0  0  0  0  0  0  0  0  0  0  0
   -2.8702   -4.8827   -1.1054 O   0  0  0  0  0  0  0  0  0  0  0  0
   -4.9704   -4.2579   -1.9614 C   0  0  0  0  0  0  0  0  0  0  0  0
   -5.1456   -4.7573   -2.9278 H   0  0  0  0  0  0  0  0  0  0  0  0
   -5.4379   -4.9112   -1.2072 H   0  0  0  0  0  0  0  0  0  0  0  0
   -5.5954   -3.3510   -1.9864 H   0  0  0  0  0  0  0  0  0  0  0  0
   -3.0424   -2.8131   -2.1606 N   0  0  0  0  0  0  0  0  0  0  0  0
   -1.6755   -2.3891   -2.0077 C   0  0  2  0  0  0  0  0  0  0  0  0
   -1.5782   -1.5673   -0.7292 C   0  0  0  0  0  0  0  0  0  0  0  0
   -2.5448   -1.0064   -0.2171 O   0  0  0  0  0  0  0  0  0  0  0  0
   -1.2087   -1.5823   -3.2094 C   0  0  0  0  0  0  0  0  0  0  0  0
   -3.6915   -2.1888   -2.6360 H   0  0  0  0  0  0  0  0  0  0  0  0
   -1.0721   -3.2977   -1.9053 H   0  0  0  0  0  0  0  0  0  0  0  0
   -1.8017   -0.6681   -3.3281 H   0  0  0  0  0  0  0  0  0  0  0  0
   -0.1601   -1.2849   -3.1045 H   0  0  0  0  0  0  0  0  0  0  0  0
   -1.3074   -2.1646   -4.1319 H   0  0  0  0  0  0  0  0  0  0  0  0
   -0.2835   -1.5112   -0.2725 N   0  0  0  0  0  0  0  0  0  0  0  0
    0.0769   -0.7658    0.9424 C   0  0  0  0  0  0  0  0  0  0  0  0
   -0.6733   -1.3289    2.1224 C   0  0  0  0  0  0  0  0  0  0  0  0
   -1.7832   -1.8470    2.0329 O   0  0  0  0  0  0  0  0  0  0  0  0
    0.4587   -2.0097   -0.7289 H   0  0  0  0  0  0  0  0  0  0  0  0
   -0.1840    0.2883    0.8089 H   0  0  0  0  0  0  0  0  0  0  0  0
    1.1541   -0.8537    1.1115 H   0  0  0  0  0  0  0  0  0  0  0  0
    0.0461   -1.1823    3.3037 N   0  0  0  0  0  0  0  0  0  0  0  0
   -0.4331   -1.6284    4.5855 C   0  0  2  0  0  0  0  0  0  0  0  0
    0.5824   -2.6127    5.1506 C   0  0  0  0  0  0  0  0  0  0  0  0
    1.3784   -3.2326    4.4484 O   0  0  0  0  0  0  0  0  0  0  0  0
   -1.8066   -2.2708    4.4697 C   0  0  0  0  0  0  0  0  0  0  0  0
    0.9605   -0.7357    3.2594 H   0  0  0  0  0  0  0  0  0  0  0  0
   -0.4828   -0.7438    5.2298 H   0  0  0  0  0  0  0  0  0  0  0  0
   -1.7766   -3.1588    3.8279 H   0  0  0  0  0  0  0  0  0  0  0  0
   -2.1821   -2.5838    5.4496 H   0  0  0  0  0  0  0  0  0  0  0  0
   -2.5288   -1.5710    4.0354 H   0  0  0  0  0  0  0  0  0  0  0  0
    0.4661   -2.7500    6.5268 N   0  0  0  0  0  0  0  0  0  0  0  0
    1.3090   -3.6354    7.2959 C   0  0  0  0  0  0  0  0  0  0  0  0
   -0.2093   -2.1825    7.0303 H   0  0  0  0  0  0  0  0  0  0  0  0
    0.8183   -4.6147    7.3958 H   0  0  0  0  0  0  0  0  0  0  0  0
    2.2743   -3.7597    6.7833 H   0  0  0  0  0  0  0  0  0  0  0  0
    1.4769   -3.2059    8.2946 H   0  0  0  0  0  0  0  0  0  0  0  0
  1  3  1  0  0  0  0
  1  7  1  0  0  0  0
  1  2  2  0  0  0  0
 18 19  1  0  0  0  0
 19 24  1  0  0  0  0
 19 20  2  0  0  0  0
 25 26  1  0  0  0  0
 26 34  1  0  0  0  0
 26 27  2  0  0  0  0
  8  9  1  0  0  0  0
  9 17  1  0  0  0  0
  9 10  2  0  0  0  0
 25 28  1  0  0  0  0
  8 11  1  0  0  0  0
 34 35  1  0  0  0  0
 17 18  1  0  0  0  0
 24 25  1  0  0  0  0
  7  8  1  0  0  0  0
  3  4  1  0  0  0  0
  3  5  1  0  0  0  0
  3  6  1  0  0  0  0
 28 31  1  0  0  0  0
 28 32  1  0  0  0  0
 28 33  1  0  0  0  0
 11 14  1  0  0  0  0
 11 15  1  0  0  0  0
 11 16  1  0  0  0  0
 35 37  1  0  0  0  0
 35 38  1  0  0  0  0
 35 39  1  0  0  0  0
 18 22  1  0  0  0  0
 18 23  1  0  0  0  0
 25 30  1  0  0  0  0
  8 13  1  0  0  0  0
 34 36  1  0  0  0  0
 17 21  1  0  0  0  0
  7 12  1  0  0  0  0
 24 29  1  0  0  0  0
M  END
$$$$

  -OEChem-05262214473D

 39 38  0     1  0  0  0  0  0999 V2000
   -3.5200   -4.0268   -1.6943 C   0  0  0  0  0  0  0  0  0  0  0  0
   -2.8702   -4.8827   -1.1054 O   0  0  0  0  0  0  0  0  0  0  0  0
   -4.9704   -4.2579   -1.9614 C   0  0  0  0  0  0  0  0  0  0  0  0
   -5.1456   -4.7573   -2.9278 H   0  0  0  0  0  0  0  0  0  0  0  0
   -5.4379   -4.9112   -1.2072 H   0  0  0  0  0  0  0  0  0  0  0  0
   -5.5954   -3.3510   -1.9864 H   0  0  0  0  0  0  0  0  0  0  0  0
   -3.0424   -2.8131   -2.1606 N   0  0  0  0  0  0  0  0  0  0  0  0
   -1.6755   -2.3891   -2.0077 C   0  0  2  0  0  0  0  0  0  0  0  0
   -1.5782   -1.5673   -0.7292 C   0  0  0  0  0  0  0  0  0  0  0  0
   -2.5448   -1.0064   -0.2171 O   0  0  0  0  0  0  0  0  0  0  0  0
   -1.2087   -1.5823   -3.2094 C   0  0  0  0  0  0  0  0  0  0  0  0
   -3.6915   -2.1888   -2.6360 H   0  0  0  0  0  0  0  0  0  0  0  0
   -1.0721   -3.2977   -1.9053 H   0  0  0  0  0  0  0  0  0  0  0  0
   -1.8017   -0.6681   -3.3281 H   0  0  0  0  0  0  0  0  0  0  0  0
   -0.1601   -1.2849   -3.1045 H   0  0  0  0  0  0  0  0  0  0  0  0
   -1.3074   -2.1646   -4.1319 H   0  0  0  0  0  0  0  0  0  0  0  0
   -0.2835   -1.5112   -0.2725 N   0  0  0  0  0  0  0  0  0  0  0  0
    0.0769   -0.7658    0.9424 C   0  0  0  0  0  0  0  0  0  0  0  0
   -0.6733   -1.3289    2.1224 C   0  0  0  0  0  0  0  0  0  0  0  0
   -1.6432   -2.0744    2.0134 O   0  0  0  0  0  0  0  0  0  0  0  0
    0.4587   -2.0097   -0.7289 H   0  0  0  0  0  0  0  0  0  0  0  0
   -0.1840    0.2883    0.8089 H   0  0  0  0  0  0  0  0  0  0  0  0
    1.1541   -0.8537    1.1115 H   0  0  0  0  0  0  0  0  0  0  0  0
   -0.1310   -0.8960    3.3278 N   0  0  0  0  0  0  0  0  0  0  0  0
   -0.6513   -1.2767    4.6146 C   0  0  2  0  0  0  0  0  0  0  0  0
    0.4692   -1.9529    5.3936 C   0  0  0  0  0  0  0  0  0  0  0  0
    1.4437   -2.4717    4.8530 O   0  0  0  0  0  0  0  0  0  0  0  0
   -1.8508   -2.2010    4.4749 C   0  0  0  0  0  0  0  0  0  0  0  0
    0.6772   -0.2766    3.2984 H   0  0  0  0  0  0  0  0  0  0  0  0
   -0.9442   -0.3519    5.1235 H   0  0  0  0  0  0  0  0  0  0  0  0
   -1.5767   -3.1330    3.9673 H   0  0  0  0  0  0  0  0  0  0  0  0
   -2.2630   -2.4668    5.4540 H   0  0  0  0  0  0  0  0  0  0  0  0
   -2.6441   -1.7243    3.8890 H   0  0  0  0  0  0  0  0  0  0  0  0
    0.2316   -1.9468    6.7609 N   0  0  0  0  0  0  0  0  0  0  0  0
    1.1421   -2.5388    7.7131 C   0  0  0  0  0  0  0  0  0  0  0  0
   -0.5933   -1.4773    7.1227 H   0  0  0  0  0  0  0  0  0  0  0  0
    0.8451   -3.5801    7.9066 H   0  0  0  0  0  0  0  0  0  0  0  0
    2.1634   -2.5186    7.3050 H   0  0  0  0  0  0  0  0  0  0  0  0
    1.1115   -1.9681    8.6530 H   0  0  0  0  0  0  0  0  0  0  0  0
  1  3  1  0  0  0  0
  1  7  1  0  0  0  0
  1  2  2  0  0  0  0
 18 19  1  0  0  0  0
 19 24  1  0  0  0  0
 19 20  2  0  0  0  0
 25 26  1  0  0  0  0
 26 34  1  0  0  0  0
 26 27  2  0  0  0  0
  8  9  1  0  0  0  0
  9 17  1  0  0  0  0
  9 10  2  0  0  0  0
 25 28  1  0  0  0  0
  8 11  1  0  0  0  0
 34 35  1  0  0  0  0
 17 18  1  0  0  0  0
 24 25  1  0  0  0  0
  7  8  1  0  0  0  0
  3  4  1  0  0  0  0
  3  5  1  0  0  0  0
  3  6  1  0  0  0  0
 28 31  1  0  0  0  0
 28 32  1  0  0  0  0
 28 33  1  0  0  0  0
 11 14  1  0  0  0  0
 11 15  1  0  0  0  0
 11 16  1  0  0  0  0
 35 37  1  0  0  0  0
 35 38  1  0  0  0  0
 35 39  1  0  0  0  0
 18 22  1  0  0  0  0
 18 23  1  0  0  0  0
 25 30  1  0  0  0  0
  8 13  1  0  0  0  0
 34 36  1  0  0  0  0
 17 21  1  0  0  0  0
  7 12  1  0  0  0  0
 24 29  1  0  0  0  0
M  END
$$$$

  -OEChem-05262214473D

 39 38  0     1  0  0  0  0  0999 V2000
   -3.5200   -4.0268   -1.6943 C   0  0  0  0  0  0  0  0  0  0  0  0
   -2.8702   -4.8827   -1.1054 O   0  0  0  0  0  0  0  0  0  0  0  0
   -4.9704   -4.2579   -1.9614 C   0  0  0  0  0  0  0  0  0  0  0  0
   -5.1456   -4.7573   -2.9278 H   0  0  0  0  0  0  0  0  0  0  0  0
   -5.4379   -4.9112   -1.2072 H   0  0  0  0  0  0  0  0  0  0  0  0
   -5.5954   -3.3510   -1.9864 H   0  0  0  0  0  0  0  0  0  0  0  0
   -3.0424   -2.8131   -2.1606 N   0  0  0  0  0  0  0  0  0  0  0  0
   -1.6755   -2.3891   -2.0077 C   0  0  2  0  0  0  0  0  0  0  0  0
   -1.5782   -1.5673   -0.7292 C   0  0  0  0  0  0  0  0  0  0  0  0
   -2.5448   -1.0064   -0.2171 O   0  0  0  0  0  0  0  0  0  0  0  0
   -1.2087   -1.5823   -3.2094 C   0  0  0  0  0  0  0  0  0  0  0  0
   -3.6915   -2.1888   -2.6360 H   0  0  0  0  0  0  0  0  0  0  0  0
   -1.0721   -3.2977   -1.9053 H   0  0  0  0  0  0  0  0  0  0  0  0
   -1.8017   -0.6681   -3.3281 H   0  0  0  0  0  0  0  0  0  0  0  0
   -0.1601   -1.2849   -3.1045 H   0  0  0  0  0  0  0  0  0  0  0  0
   -1.3074   -2.1646   -4.1319 H   0  0  0  0  0  0  0  0  0  0  0  0
   -0.2835   -1.5112   -0.2725 N   0  0  0  0  0  0  0  0  0  0  0  0
    0.0769   -0.7658    0.9424 C   0  0  0  0  0  0  0  0  0  0  0  0
   -0.3682   -1.5362    2.1592 C   0  0  0  0  0  0  0  0  0  0  0  0
   -0.9446   -2.6191    2.0998 O   0  0  0  0  0  0  0  0  0  0  0  0
    0.4587   -2.0097   -0.7289 H   0  0  0  0  0  0  0  0  0  0  0  0
   -0.4150    0.2113    0.9247 H   0  0  0  0  0  0  0  0  0  0  0  0
    1.1614   -0.6248    0.9689 H   0  0  0  0  0  0  0  0  0  0  0  0
   -0.0469   -0.8666    3.3351 N   0  0  0  0  0  0  0  0  0  0  0  0
   -0.3573   -1.3717    4.6465 C   0  0  2  0  0  0  0  0  0  0  0  0
    0.9462   -1.4917    5.4250 C   0  0  0  0  0  0  0  0  0  0  0  0
    2.0452   -1.5857    4.8825 O   0  0  0  0  0  0  0  0  0  0  0  0
   -1.0692   -2.7133    4.5684 C   0  0  0  0  0  0  0  0  0  0  0  0
    0.4336    0.0289    3.2644 H   0  0  0  0  0  0  0  0  0  0  0  0
   -1.0032   -0.6288    5.1269 H   0  0  0  0  0  0  0  0  0  0  0  0
   -0.4375   -3.4706    4.0900 H   0  0  0  0  0  0  0  0  0  0  0  0
   -1.3301   -3.0827    5.5657 H   0  0  0  0  0  0  0  0  0  0  0  0
   -1.9914   -2.6317    3.9830 H   0  0  0  0  0  0  0  0  0  0  0  0
    0.7340   -1.5249    6.7961 N   0  0  0  0  0  0  0  0  0  0  0  0
    1.8123   -1.6472    7.7491 C   0  0  0  0  0  0  0  0  0  0  0  0
   -0.2093   -1.4217    7.1584 H   0  0  0  0  0  0  0  0  0  0  0  0
    1.9725   -2.7089    7.9881 H   0  0  0  0  0  0  0  0  0  0  0  0
    2.7323   -1.2257    7.3178 H   0  0  0  0  0  0  0  0  0  0  0  0
    1.5537   -1.0997    8.6675 H   0  0  0  0  0  0  0  0  0  0  0  0
  1  3  1  0  0  0  0
  1  7  1  0  0  0  0
  1  2  2  0  0  0  0
 18 19  1  0  0  0  0
 19 24  1  0  0  0  0
 19 20  2  0  0  0  0
 25 26  1  0  0  0  0
 26 34  1  0  0  0  0
 26 27  2  0  0  0  0
  8  9  1  0  0  0  0
  9 17  1  0  0  0  0
  9 10  2  0  0  0  0
 25 28  1  0  0  0  0
  8 11  1  0  0  0  0
 34 35  1  0  0  0  0
 17 18  1  0  0  0  0
 24 25  1  0  0  0  0
  7  8  1  0  0  0  0
  3  4  1  0  0  0  0
  3  5  1  0  0  0  0
  3  6  1  0  0  0  0
 28 31  1  0  0  0  0
 28 32  1  0  0  0  0
 28 33  1  0  0  0  0
 11 14  1  0  0  0  0
 11 15  1  0  0  0  0
 11 16  1  0  0  0  0
 35 37  1  0  0  0  0
 35 38  1  0  0  0  0
 35 39  1  0  0  0  0
 18 22  1  0  0  0  0
 18 23  1  0  0  0  0
 25 30  1  0  0  0  0
  8 13  1  0  0  0  0
 34 36  1  0  0  0  0
 17 21  1  0  0  0  0
  7 12  1  0  0  0  0
 24 29  1  0  0  0  0
M  END
$$$$

  -OEChem-05262214473D

 39 38  0     1  0  0  0  0  0999 V2000
   -3.5200   -4.0268   -1.6943 C   0  0  0  0  0  0  0  0  0  0  0  0
   -2.8702   -4.8827   -1.1054 O   0  0  0  0  0  0  0  0  0  0  0  0
   -4.9704   -4.2579   -1.9614 C   0  0  0  0  0  0  0  0  0  0  0  0
   -5.1456   -4.7573   -2.9278 H   0  0  0  0  0  0  0  0  0  0  0  0
   -5.4379   -4.9112   -1.2072 H   0  0  0  0  0  0  0  0  0  0  0  0
   -5.5954   -3.3510   -1.9864 H   0  0  0  0  0  0  0  0  0  0  0  0
   -3.0424   -2.8131   -2.1606 N   0  0  0  0  0  0  0  0  0  0  0  0
   -1.6755   -2.3891   -2.0077 C   0  0  2  0  0  0  0  0  0  0  0  0
   -1.5782   -1.5673   -0.7292 C   0  0  0  0  0  0  0  0  0  0  0  0
   -2.5448   -1.0064   -0.2171 O   0  0  0  0  0  0  0  0  0  0  0  0
   -1.2087   -1.5823   -3.2094 C   0  0  0  0  0  0  0  0  0  0  0  0
   -3.6915   -2.1888   -2.6360 H   0  0  0  0  0  0  0  0  0  0  0  0
   -1.0721   -3.2977   -1.9053 H   0  0  0  0  0  0  0  0  0  0  0  0
   -1.8017   -0.6681   -3.3281 H   0  0  0  0  0  0  0  0  0  0  0  0
   -0.1601   -1.2849   -3.1045 H   0  0  0  0  0  0  0  0  0  0  0  0
   -1.3074   -2.1646   -4.1319 H   0  0  0  0  0  0  0  0  0  0  0  0
   -0.2835   -1.5112   -0.2725 N   0  0  0  0  0  0  0  0  0  0  0  0
    0.0769   -0.7658    0.9424 C   0  0  0  0  0  0  0  0  0  0  0  0
   -0.3682   -1.5362    2.1592 C   0  0  0  0  0  0  0  0  0  0  0  0
   -0.6976   -2.7189    2.1270 O   0  0  0  0  0  0  0  0  0  0  0  0
    0.4587   -2.0097   -0.7289 H   0  0  0  0  0  0  0  0  0  0  0  0
   -0.4150    0.2113    0.9247 H   0  0  0  0  0  0  0  0  0  0  0  0
    1.1614   -0.6248    0.9689 H   0  0  0  0  0  0  0  0  0  0  0  0
   -0.3585   -0.7413    3.3004 N   0  0  0  0  0  0  0  0  0  0  0  0
   -0.7404   -1.2184    4.6034 C   0  0  2  0  0  0  0  0  0  0  0  0
    0.4377   -1.0078    5.5454 C   0  0  0  0  0  0  0  0  0  0  0  0
    1.5979   -0.8980    5.1543 O   0  0  0  0  0  0  0  0  0  0  0  0
   -1.1459   -2.6835    4.5593 C   0  0  0  0  0  0  0  0  0  0  0  0
   -0.0655    0.2300    3.2092 H   0  0  0  0  0  0  0  0  0  0  0  0
   -1.5851   -0.6025    4.9307 H   0  0  0  0  0  0  0  0  0  0  0  0
   -0.3123   -3.3163    4.2335 H   0  0  0  0  0  0  0  0  0  0  0  0
   -1.4634   -3.0372    5.5458 H   0  0  0  0  0  0  0  0  0  0  0  0
   -1.9738   -2.8378    3.8589 H   0  0  0  0  0  0  0  0  0  0  0  0
    0.0463   -1.0001    6.8769 N   0  0  0  0  0  0  0  0  0  0  0  0
    0.9822   -0.8290    7.9636 C   0  0  0  0  0  0  0  0  0  0  0  0
   -0.9395   -1.0789    7.1084 H   0  0  0  0  0  0  0  0  0  0  0  0
    1.3202   -1.8148    8.3157 H   0  0  0  0  0  0  0  0  0  0  0  0
    1.8482   -0.2481    7.6134 H   0  0  0  0  0  0  0  0  0  0  0  0
    0.4911   -0.2934    8.7894 H   0  0  0  0  0  0  0  0  0  0  0  0
  1  3  1  0  0  0  0
  1  7  1  0  0  0  0
  1  2  2  0  0  0  0
 18 19  1  0  0  0  0
 19 24  1  0  0  0  0
 19 20  2  0  0  0  0
 25 26  1  0  0  0  0
 26 34  1  0  0  0  0
 26 27  2  0  0  0  0
  8  9  1  0  0  0  0
  9 17  1  0  0  0  0
  9 10  2  0  0  0  0
 25 28  1  0  0  0  0
  8 11  1  0  0  0  0
 34 35  1  0  0  0  0
 17 18  1  0  0  0  0
 24 25  1  0  0  0  0
  7  8  1  0  0  0  0
  3  4  1  0  0  0  0
  3  5  1  0  0  0  0
  3  6  1  0  0  0  0
 28 31  1  0  0  0  0
 28 32  1  0  0  0  0
 28 33  1  0  0  0  0
 11 14  1  0  0  0  0
 11 15  1  0  0  0  0
 11 16  1  0  0  0  0
 35 37  1  0  0  0  0
 35 38  1  0  0  0  0
 35 39  1  0  0  0  0
 18 22  1  0  0  0  0
 18 23  1  0  0  0  0
 25 30  1  0  0  0  0
  8 13  1  0  0  0  0
 34 36  1  0  0  0  0
 17 21  1  0  0  0  0
  7 12  1  0  0  0  0
 24 29  1  0  0  0  0
M  END
$$$$

  -OEChem-05262214473D

 39 38  0     1  0  0  0  0  0999 V2000
   -3.5200   -4.0268   -1.6943 C   0  0  0  0  0  0  0  0  0  0  0  0
   -2.8702   -4.8827   -1.1054 O   0  0  0  0  0  0  0  0  0  0  0  0
   -4.9704   -4.2579   -1.9614 C   0  0  0  0  0  0  0  0  0  0  0  0
   -5.1456   -4.7573   -2.9278 H   0  0  0  0  0  0  0  0  0  0  0  0
   -5.4379   -4.9112   -1.2072 H   0  0  0  0  0  0  0  0  0  0  0  0
   -5.5954   -3.3510   -1.9864 H   0  0  0  0  0  0  0  0  0  0  0  0
   -3.0424   -2.8131   -2.1606 N   0  0  0  0  0  0  0  0  0  0  0  0
   -1.6755   -2.3891   -2.0077 C   0  0  2  0  0  0  0  0  0  0  0  0
   -1.5782   -1.5673   -0.7292 C   0  0  0  0  0  0  0  0  0  0  0  0
   -2.5448   -1.0064   -0.2171 O   0  0  0  0  0  0  0  0  0  0  0  0
   -1.2087   -1.5823   -3.2094 C   0  0  0  0  0  0  0  0  0  0  0  0
   -3.6915   -2.1888   -2.6360 H   0  0  0  0  0  0  0  0  0  0  0  0
   -1.0721   -3.2977   -1.9053 H   0  0  0  0  0  0  0  0  0  0  0  0
   -1.8017   -0.6681   -3.3281 H   0  0  0  0  0  0  0  0  0  0  0  0
   -0.1601   -1.2849   -3.1045 H   0  0  0  0  0  0  0  0  0  0  0  0
   -1.3074   -2.1646   -4.1319 H   0  0  0  0  0  0  0  0  0  0  0  0
   -0.2835   -1.5112   -0.2725 N   0  0  0  0  0  0  0  0  0  0  0  0
    0.0769   -0.7658    0.9424 C   0  0  0  0  0  0  0  0  0  0  0  0
   -0.3682   -1.5362    2.1592 C   0  0  0  0  0  0  0  0  0  0  0  0
   -0.4419   -2.7617    2.1934 O   0  0  0  0  0  0  0  0  0  0  0  0
    0.4587   -2.0097   -0.7289 H   0  0  0  0  0  0  0  0  0  0  0  0
   -0.4150    0.2113    0.9247 H   0  0  0  0  0  0  0  0  0  0  0  0
    1.1614   -0.6248    0.9689 H   0  0  0  0  0  0  0  0  0  0  0  0
   -0.6810   -0.6881    3.2162 N   0  0  0  0  0  0  0  0  0  0  0  0
   -1.1368   -1.1537    4.4994 C   0  0  2  0  0  0  0  0  0  0  0  0
   -0.1705   -0.6374    5.5574 C   0  0  0  0  0  0  0  0  0  0  0  0
    0.9861   -0.3064    5.3051 O   0  0  0  0  0  0  0  0  0  0  0  0
   -1.2249   -2.6714    4.5380 C   0  0  0  0  0  0  0  0  0  0  0  0
   -0.5823    0.3158    3.0745 H   0  0  0  0  0  0  0  0  0  0  0  0
   -2.1267   -0.7136    4.6622 H   0  0  0  0  0  0  0  0  0  0  0  0
   -0.2425   -3.1302    4.3768 H   0  0  0  0  0  0  0  0  0  0  0  0
   -1.5990   -3.0227    5.5054 H   0  0  0  0  0  0  0  0  0  0  0  0
   -1.8973   -3.0428    3.7571 H   0  0  0  0  0  0  0  0  0  0  0  0
   -0.7382   -0.6306    6.8238 N   0  0  0  0  0  0  0  0  0  0  0  0
   -0.0189   -0.1958    7.9983 C   0  0  0  0  0  0  0  0  0  0  0  0
   -1.7099   -0.9040    6.9374 H   0  0  0  0  0  0  0  0  0  0  0  0
    0.4600   -1.0624    8.4774 H   0  0  0  0  0  0  0  0  0  0  0  0
    0.7510    0.5340    7.7073 H   0  0  0  0  0  0  0  0  0  0  0  0
   -0.7198    0.2727    8.7049 H   0  0  0  0  0  0  0  0  0  0  0  0
  1  3  1  0  0  0  0
  1  7  1  0  0  0  0
  1  2  2  0  0  0  0
 18 19  1  0  0  0  0
 19 24  1  0  0  0  0
 19 20  2  0  0  0  0
 25 26  1  0  0  0  0
 26 34  1  0  0  0  0
 26 27  2  0  0  0  0
  8  9  1  0  0  0  0
  9 17  1  0  0  0  0
  9 10  2  0  0  0  0
 25 28  1  0  0  0  0
  8 11  1  0  0  0  0
 34 35  1  0  0  0  0
 17 18  1  0  0  0  0
 24 25  1  0  0  0  0
  7  8  1  0  0  0  0
  3  4  1  0  0  0  0
  3  5  1  0  0  0  0
  3  6  1  0  0  0  0
 28 31  1  0  0  0  0
 28 32  1  0  0  0  0
 28 33  1  0  0  0  0
 11 14  1  0  0  0  0
 11 15  1  0  0  0  0
 11 16  1  0  0  0  0
 35 37  1  0  0  0  0
 35 38  1  0  0  0  0
 35 39  1  0  0  0  0
 18 22  1  0  0  0  0
 18 23  1  0  0  0  0
 25 30  1  0  0  0  0
  8 13  1  0  0  0  0
 34 36  1  0  0  0  0
 17 21  1  0  0  0  0
  7 12  1  0  0  0  0
 24 29  1  0  0  0  0
M  END
$$$$

  -OEChem-05262214473D

 39 38  0     1  0  0  0  0  0999 V2000
   -3.5200   -4.0268   -1.6943 C   0  0  0  0  0  0  0  0  0  0  0  0
   -2.8702   -4.8827   -1.1054 O   0  0  0  0  0  0  0  0  0  0  0  0
   -4.9704   -4.2579   -1.9614 C   0  0  0  0  0  0  0  0  0  0  0  0
   -5.1456   -4.7573   -2.9278 H   0  0  0  0  0  0  0  0  0  0  0  0
   -5.4379   -4.9112   -1.2072 H   0  0  0  0  0  0  0  0  0  0  0  0
   -5.5954   -3.3510   -1.9864 H   0  0  0  0  0  0  0  0  0  0  0  0
   -3.0424   -2.8131   -2.1606 N   0  0  0  0  0  0  0  0  0  0  0  0
   -1.6755   -2.3891   -2.0077 C   0  0  2  0  0  0  0  0  0  0  0  0
   -1.5782   -1.5673   -0.7292 C   0  0  0  0  0  0  0  0  0  0  0  0
   -2.5448   -1.0064   -0.2171 O   0  0  0  0  0  0  0  0  0  0  0  0
   -1.2087   -1.5823   -3.2094 C   0  0  0  0  0  0  0  0  0  0  0  0
   -3.6915   -2.1888   -2.6360 H   0  0  0  0  0  0  0  0  0  0  0  0
   -1.0721   -3.2977   -1.9053 H   0  0  0  0  0  0  0  0  0  0  0  0
   -1.8017   -0.6681   -3.3281 H   0  0  0  0  0  0  0  0  0  0  0  0
   -0.1601   -1.2849   -3.1045 H   0  0  0  0  0  0  0  0  0  0  0  0
   -1.3074   -2.1646   -4.1319 H   0  0  0  0  0  0  0  0  0  0  0  0
   -0.2835   -1.5112   -0.2725 N   0  0  0  0  0  0  0  0  0  0  0  0
    0.0769   -0.7658    0.9424 C   0  0  0  0  0  0  0  0  0  0  0  0
   -0.3682   -1.5362    2.1592 C   0  0  0  0  0  0  0  0  0  0  0  0
   -0.1947   -2.7445    2.2948 O   0  0  0  0  0  0  0  0  0  0  0  0
    0.4587   -2.0097   -0.7289 H   0  0  0  0  0  0  0  0  0  0  0  0
   -0.4150    0.2113    0.9247 H   0  0  0  0  0  0  0  0  0  0  0  0
    1.1614   -0.6248    0.9689 H   0  0  0  0  0  0  0  0  0  0  0  0
   -0.9925   -0.7105    3.0880 N   0  0  0  0  0  0  0  0  0  0  0  0
   -1.5195   -1.1819    4.3416 C   0  0  2  0  0  0  0  0  0  0  0  0
   -0.8370   -0.4058    5.4603 C   0  0  0  0  0  0  0  0  0  0  0  0
    0.2517    0.1487    5.3247 O   0  0  0  0  0  0  0  0  0  0  0  0
   -1.3009   -2.6779    4.5061 C   0  0  0  0  0  0  0  0  0  0  0  0
   -1.0815    0.2805    2.8695 H   0  0  0  0  0  0  0  0  0  0  0  0
   -2.5911   -0.9547    4.3397 H   0  0  0  0  0  0  0  0  0  0  0  0
   -0.2330   -2.9249    4.5103 H   0  0  0  0  0  0  0  0  0  0  0  0
   -1.7276   -3.0400    5.4473 H   0  0  0  0  0  0  0  0  0  0  0  0
   -1.7671   -3.2325    3.6846 H   0  0  0  0  0  0  0  0  0  0  0  0
   -1.5662   -0.4417    6.6406 N   0  0  0  0  0  0  0  0  0  0  0  0
   -1.1228    0.2094    7.8511 C   0  0  0  0  0  0  0  0  0  0  0  0
   -2.4679   -0.9092    6.6568 H   0  0  0  0  0  0  0  0  0  0  0  0
   -0.5494   -0.5031    8.4624 H   0  0  0  0  0  0  0  0  0  0  0  0
   -0.4847    1.0675    7.5931 H   0  0  0  0  0  0  0  0  0  0  0  0
   -1.9966    0.5601    8.4199 H   0  0  0  0  0  0  0  0  0  0  0  0
  1  3  1  0  0  0  0
  1  7  1  0  0  0  0
  1  2  2  0  0  0  0
 18 19  1  0  0  0  0
 19 24  1  0  0  0  0
 19 20  2  0  0  0  0
 25 26  1  0  0  0  0
 26 34  1  0  0  0  0
 26 27  2  0  0  0  0
  8  9  1  0  0  0  0
  9 17  1  0  0  0  0
  9 10  2  0  0  0  0
 25 28  1  0  0  0  0
  8 11  1  0  0  0  0
 34 35  1  0  0  0  0
 17 18  1  0  0  0  0
 24 25  1  0  0  0  0
  7  8  1  0  0  0  0
  3  4  1  0  0  0  0
  3  5  1  0  0  0  0
  3  6  1  0  0  0  0
 28 31  1  0  0  0  0
 28 32  1  0  0  0  0
 28 33  1  0  0  0  0
 11 14  1  0  0  0  0
 11 15  1  0  0  0  0
 11 16  1  0  0  0  0
 35 37  1  0  0  0  0
 35 38  1  0  0  0  0
 35 39  1  0  0  0  0
 18 22  1  0  0  0  0
 18 23  1  0  0  0  0
 25 30  1  0  0  0  0
  8 13  1  0  0  0  0
 34 36  1  0  0  0  0
 17 21  1  0  0  0  0
  7 12  1  0  0  0  0
 24 29  1  0  0  0  0
M  END
$$$$

  -OEChem-05262214473D

 39 38  0     1  0  0  0  0  0999 V2000
   -3.5200   -4.0268   -1.6943 C   0  0  0  0  0  0  0  0  0  0  0  0
   -2.8702   -4.8827   -1.1054 O   0  0  0  0  0  0  0  0  0  0  0  0
   -4.9704   -4.2579   -1.9614 C   0  0  0  0  0  0  0  0  0  0  0  0
   -5.1456   -4.7573   -2.9278 H   0  0  0  0  0  0  0  0  0  0  0  0
   -5.4379   -4.9112   -1.2072 H   0  0  0  0  0  0  0  0  0  0  0  0
   -5.5954   -3.3510   -1.9864 H   0  0  0  0  0  0  0  0  0  0  0  0
   -3.0424   -2.8131   -2.1606 N   0  0  0  0  0  0  0  0  0  0  0  0
   -1.6755   -2.3891   -2.0077 C   0  0  2  0  0  0  0  0  0  0  0  0
   -1.5782   -1.5673   -0.7292 C   0  0  0  0  0  0  0  0  0  0  0  0
   -2.5448   -1.0064   -0.2171 O   0  0  0  0  0  0  0  0  0  0  0  0
   -1.2087   -1.5823   -3.2094 C   0  0  0  0  0  0  0  0  0  0  0  0
   -3.6915   -2.1888   -2.6360 H   0  0  0  0  0  0  0  0  0  0  0  0
   -1.0721   -3.2977   -1.9053 H   0  0  0  0  0  0  0  0  0  0  0  0
   -1.8017   -0.6681   -3.3281 H   0  0  0  0  0  0  0  0  0  0  0  0
   -0.1601   -1.2849   -3.1045 H   0  0  0  0  0  0  0  0  0  0  0  0
   -1.3074   -2.1646   -4.1319 H   0  0  0  0  0  0  0  0  0  0  0  0
   -0.2835   -1.5112   -0.2725 N   0  0  0  0  0  0  0  0  0  0  0  0
    0.0769   -0.7658    0.9424 C   0  0  0  0  0  0  0  0  0  0  0  0
   -0.3682   -1.5362    2.1592 C   0  0  0  0  0  0  0  0  0  0  0  0
    0.0271   -2.6685    2.4240 O   0  0  0  0  0  0  0  0  0  0  0  0
    0.4587   -2.0097   -0.7289 H   0  0  0  0  0  0  0  0  0  0  0  0
   -0.4150    0.2113    0.9247 H   0  0  0  0  0  0  0  0  0  0  0  0
    1.1614   -0.6248    0.9689 H   0  0  0  0  0  0  0  0  0  0  0  0
   -1.2718   -0.8070    2.9248 N   0  0  0  0  0  0  0  0  0  0  0  0
   -1.8623   -1.3012    4.1407 C   0  0  2  0  0  0  0  0  0  0  0  0
   -1.5163   -0.3288    5.2606 C   0  0  0  0  0  0  0  0  0  0  0  0
   -0.5554    0.4364    5.2116 O   0  0  0  0  0  0  0  0  0  0  0  0
   -1.3688   -2.7024    4.4657 C   0  0  0  0  0  0  0  0  0  0  0  0
   -1.5293    0.1264    2.6081 H   0  0  0  0  0  0  0  0  0  0  0  0
   -2.9466   -1.3092    3.9852 H   0  0  0  0  0  0  0  0  0  0  0  0
   -0.2844   -2.7144    4.6248 H   0  0  0  0  0  0  0  0  0  0  0  0
   -1.8406   -3.0881    5.3755 H   0  0  0  0  0  0  0  0  0  0  0  0
   -1.5921   -3.3941    3.6463 H   0  0  0  0  0  0  0  0  0  0  0  0
   -2.3812   -0.4463    6.3396 N   0  0  0  0  0  0  0  0  0  0  0  0
   -2.2543    0.3589    7.5319 C   0  0  0  0  0  0  0  0  0  0  0  0
   -3.1619   -1.0939    6.2860 H   0  0  0  0  0  0  0  0  0  0  0  0
   -1.6394   -0.1748    8.2716 H   0  0  0  0  0  0  0  0  0  0  0  0
   -1.7747    1.3159    7.2786 H   0  0  0  0  0  0  0  0  0  0  0  0
   -3.2522    0.5492    7.9537 H   0  0  0  0  0  0  0  0  0  0  0  0
  1  3  1  0  0  0  0
  1  7  1  0  0  0  0
  1  2  2  0  0  0  0
 18 19  1  0  0  0  0
 19 24  1  0  0  0  0
 19 20  2  0  0  0  0
 25 26  1  0  0  0  0
 26 34  1  0  0  0  0
 26 27  2  0  0  0  0
  8  9  1  0  0  0  0
  9 17  1  0  0  0  0
  9 10  2  0  0  0  0
 25 28  1  0  0  0  0
  8 11  1  0  0  0  0
 34 35  1  0  0  0  0
 17 18  1  0  0  0  0
 24 25  1  0  0  0  0
  7  8  1  0  0  0  0
  3  4  1  0  0  0  0
  3  5  1  0  0  0  0
  3  6  1  0  0  0  0
 28 31  1  0  0  0  0
 28 32  1  0  0  0  0
 28 33  1  0  0  0  0
 11 14  1  0  0  0  0
 11 15  1  0  0  0  0
 11 16  1  0  0  0  0
 35 37  1  0  0  0  0
 35 38  1  0  0  0  0
 35 39  1  0  0  0  0
 18 22  1  0  0  0  0
 18 23  1  0  0  0  0
 25 30  1  0  0  0  0
  8 13  1  0  0  0  0
 34 36  1  0  0  0  0
 17 21  1  0  0  0  0
  7 12  1  0  0  0  0
 24 29  1  0  0  0  0
M  END
$$$$

  -OEChem-05262214473D

 39 38  0     1  0  0  0  0  0999 V2000
   -3.5200   -4.0268   -1.6943 C   0  0  0  0  0  0  0  0  0  0  0  0
   -2.8702   -4.8827   -1.1054 O   0  0  0  0  0  0  0  0  0  0  0  0
   -4.9704   -4.2579   -1.9614 C   0  0  0  0  0  0  0  0  0  0  0  0
   -5.1456   -4.7573   -2.9278 H   0  0  0  0  0  0  0  0  0  0  0  0
   -5.4379   -4.9112   -1.2072 H   0  0  0  0  0  0  0  0  0  0  0  0
   -5.5954   -3.3510   -1.9864 H   0  0  0  0  0  0  0  0  0  0  0  0
   -3.0424   -2.8131   -2.1606 N   0  0  0  0  0  0  0  0  0  0  0  0
   -1.6755   -2.3891   -2.0077 C   0  0  2  0  0  0  0  0  0  0  0  0
   -1.5782   -1.5673   -0.7292 C   0  0  0  0  0  0  0  0  0  0  0  0
   -2.5448   -1.0064   -0.2171 O   0  0  0  0  0  0  0  0  0  0  0  0
   -1.2087   -1.5823   -3.2094 C   0  0  0  0  0  0  0  0  0  0  0  0
   -3.6915   -2.1888   -2.6360 H   0  0  0  0  0  0  0  0  0  0  0  0
   -1.0721   -3.2977   -1.9053 H   0  0  0  0  0  0  0  0  0  0  0  0
   -1.8017   -0.6681   -3.3281 H   0  0  0  0  0  0  0  0  0  0  0  0
   -0.1601   -1.2849   -3.1045 H   0  0  0  0  0  0  0  0  0  0  0  0
   -1.3074   -2.1646   -4.1319 H   0  0  0  0  0  0  0  0  0  0  0  0
   -0.2835   -1.5112   -0.2725 N   0  0  0  0  0  0  0  0  0  0  0  0
    0.0769   -0.7658    0.9424 C   0  0  0  0  0  0  0  0  0  0  0  0
   -0.3682   -1.5362    2.1592 C   0  0  0  0  0  0  0  0  0  0  0  0
    0.2084   -2.5388    2.5724 O   0  0  0  0  0  0  0  0  0  0  0  0
    0.4587   -2.0097   -0.7289 H   0  0  0  0  0  0  0  0  0  0  0  0
   -0.4150    0.2113    0.9247 H   0  0  0  0  0  0  0  0  0  0  0  0
    1.1614   -0.6248    0.9689 H   0  0  0  0  0  0  0  0  0  0  0  0
   -1.4998   -0.9710    2.7375 N   0  0  0  0  0  0  0  0  0  0  0  0
   -2.1419   -1.5033    3.9104 C   0  0  2  0  0  0  0  0  0  0  0  0
   -2.1621   -0.4115    4.9720 C   0  0  0  0  0  0  0  0  0  0  0  0
   -1.3802    0.5370    4.9736 O   0  0  0  0  0  0  0  0  0  0  0  0
   -1.4239   -2.7434    4.4196 C   0  0  0  0  0  0  0  0  0  0  0  0
   -1.8950   -0.1360    2.3082 H   0  0  0  0  0  0  0  0  0  0  0  0
   -3.1691   -1.7529    3.6228 H   0  0  0  0  0  0  0  0  0  0  0  0
   -0.3931   -2.5130    4.7126 H   0  0  0  0  0  0  0  0  0  0  0  0
   -1.9302   -3.1637    5.2949 H   0  0  0  0  0  0  0  0  0  0  0  0
   -1.3843   -3.5166    3.6447 H   0  0  0  0  0  0  0  0  0  0  0  0
   -3.1277   -0.6439    5.9414 N   0  0  0  0  0  0  0  0  0  0  0  0
   -3.3362    0.2425    7.0624 C   0  0  0  0  0  0  0  0  0  0  0  0
   -3.7446   -1.4457    5.8501 H   0  0  0  0  0  0  0  0  0  0  0  0
   -2.7355   -0.1000    7.9180 H   0  0  0  0  0  0  0  0  0  0  0  0
   -3.0309    1.2623    6.7851 H   0  0  0  0  0  0  0  0  0  0  0  0
   -4.4011    0.2407    7.3381 H   0  0  0  0  0  0  0  0  0  0  0  0
  1  3  1  0  0  0  0
  1  7  1  0  0  0  0
  1  2  2  0  0  0  0
 18 19  1  0  0  0  0
 19 24  1  0  0  0  0
 19 20  2  0  0  0  0
 25 26  1  0  0  0  0
 26 34  1  0  0  0  0
 26 27  2  0  0  0  0
  8  9  1  0  0  0  0
  9 17  1  0  0  0  0
  9 10  2  0  0  0  0
 25 28  1  0  0  0  0
  8 11  1  0  0  0  0
 34 35  1  0  0  0  0
 17 18  1  0  0  0  0
 24 25  1  0  0  0  0
  7  8  1  0  0  0  0
  3  4  1  0  0  0  0
  3  5  1  0  0  0  0
  3  6  1  0  0  0  0
 28 31  1  0  0  0  0
 28 32  1  0  0  0  0
 28 33  1  0  0  0  0
 11 14  1  0  0  0  0
 11 15  1  0  0  0  0
 11 16  1  0  0  0  0
 35 37  1  0  0  0  0
 35 38  1  0  0  0  0
 35 39  1  0  0  0  0
 18 22  1  0  0  0  0
 18 23  1  0  0  0  0
 25 30  1  0  0  0  0
  8 13  1  0  0  0  0
 34 36  1  0  0  0  0
 17 21  1  0  0  0  0
  7 12  1  0  0  0  0
 24 29  1  0  0  0  0
M  END
$$$$

  -OEChem-05262214473D

 39 38  0     1  0  0  0  0  0999 V2000
   -3.5200   -4.0268   -1.6943 C   0  0  0  0  0  0  0  0  0  0  0  0
   -2.8702   -4.8827   -1.1054 O   0  0  0  0  0  0  0  0  0  0  0  0
   -4.9704   -4.2579   -1.9614 C   0  0  0  0  0  0  0  0  0  0  0  0
   -5.1456   -4.7573   -2.9278 H   0  0  0  0  0  0  0  0  0  0  0  0
   -5.4379   -4.9112   -1.2072 H   0  0  0  0  0  0  0  0  0  0  0  0
   -5.5954   -3.3510   -1.9864 H   0  0  0  0  0  0  0  0  0  0  0  0
   -3.0424   -2.8131   -2.1606 N   0  0  0  0  0  0  0  0  0  0  0  0
   -1.6755   -2.3891   -2.0077 C   0  0  2  0  0  0  0  0  0  0  0  0
   -1.5782   -1.5673   -0.7292 C   0  0  0  0  0  0  0  0  0  0  0  0
   -2.5448   -1.0064   -0.2171 O   0  0  0  0  0  0  0  0  0  0  0  0
   -1.2087   -1.5823   -3.2094 C   0  0  0  0  0  0  0  0  0  0  0  0
   -3.6915   -2.1888   -2.6360 H   0  0  0  0  0  0  0  0  0  0  0  0
   -1.0721   -3.2977   -1.9053 H   0  0  0  0  0  0  0  0  0  0  0  0
   -1.8017   -0.6681   -3.3281 H   0  0  0  0  0  0  0  0  0  0  0  0
   -0.1601   -1.2849   -3.1045 H   0  0  0  0  0  0  0  0  0  0  0  0
   -1.3074   -2.1646   -4.1319 H   0  0  0  0  0  0  0  0  0  0  0  0
   -0.2835   -1.5112   -0.2725 N   0  0  0  0  0  0  0  0  0  0  0  0
    0.0769   -0.7658    0.9424 C   0  0  0  0  0  0  0  0  0  0  0  0
   -0.3682   -1.5362    2.1592 C   0  0  0  0  0  0  0  0  0  0  0  0
    0.3367   -2.3644    2.7298 O   0  0  0  0  0  0  0  0  0  0  0  0
    0.4587   -2.0097   -0.7289 H   0  0  0  0  0  0  0  0  0  0  0  0
   -0.4150    0.2113    0.9247 H   0  0  0  0  0  0  0  0  0  0  0  0
    1.1614   -0.6248    0.9689 H   0  0  0  0  0  0  0  0  0  0  0  0
   -1.6610   -1.1914    2.5390 N   0  0  0  0  0  0  0  0  0  0  0  0
   -2.3394   -1.7747    3.6664 C   0  0  2  0  0  0  0  0  0  0  0  0
   -2.7304   -0.6484    4.6141 C   0  0  0  0  0  0  0  0  0  0  0  0
   -2.1664    0.4437    4.6270 O   0  0  0  0  0  0  0  0  0  0  0  0
   -1.4625   -2.7981    4.3709 C   0  0  0  0  0  0  0  0  0  0  0  0
   -2.1538   -0.4888    1.9902 H   0  0  0  0  0  0  0  0  0  0  0  0
   -3.2433   -2.2558    3.2773 H   0  0  0  0  0  0  0  0  0  0  0  0
   -0.5518   -2.3345    4.7675 H   0  0  0  0  0  0  0  0  0  0  0  0
   -1.9902   -3.2615    5.2110 H   0  0  0  0  0  0  0  0  0  0  0  0
   -1.1577   -3.5916    3.6801 H   0  0  0  0  0  0  0  0  0  0  0  0
   -3.7548   -1.0212    5.4731 N   0  0  0  0  0  0  0  0  0  0  0  0
   -4.2948   -0.1318    6.4748 C   0  0  0  0  0  0  0  0  0  0  0  0
   -4.1762   -1.9406    5.3788 H   0  0  0  0  0  0  0  0  0  0  0  0
   -3.7631   -0.2838    7.4257 H   0  0  0  0  0  0  0  0  0  0  0  0
   -4.1679    0.9103    6.1463 H   0  0  0  0  0  0  0  0  0  0  0  0
   -5.3649   -0.3444    6.6151 H   0  0  0  0  0  0  0  0  0  0  0  0
  1  3  1  0  0  0  0
  1  7  1  0  0  0  0
  1  2  2  0  0  0  0
 18 19  1  0  0  0  0
 19 24  1  0  0  0  0
 19 20  2  0  0  0  0
 25 26  1  0  0  0  0
 26 34  1  0  0  0  0
 26 27  2  0  0  0  0
  8  9  1  0  0  0  0
  9 17  1  0  0  0  0
  9 10  2  0  0  0  0
 25 28  1  0  0  0  0
  8 11  1  0  0  0  0
 34 35  1  0  0  0  0
 17 18  1  0  0  0  0
 24 25  1  0  0  0  0
  7  8  1  0  0  0  0
  3  4  1  0  0  0  0
  3  5  1  0  0  0  0
  3  6  1  0  0  0  0
 28 31  1  0  0  0  0
 28 32  1  0  0  0  0
 28 33  1  0  0  0  0
 11 14  1  0  0  0  0
 11 15  1  0  0  0  0
 11 16  1  0  0  0  0
 35 37  1  0  0  0  0
 35 38  1  0  0  0  0
 35 39  1  0  0  0  0
 18 22  1  0  0  0  0
 18 23  1  0  0  0  0
 25 30  1  0  0  0  0
  8 13  1  0  0  0  0
 34 36  1  0  0  0  0
 17 21  1  0  0  0  0
  7 12  1  0  0  0  0
 24 29  1  0  0  0  0
M  END
$$$$

  -OEChem-05262214473D

 39 38  0     1  0  0  0  0  0999 V2000
   -3.5200   -4.0268   -1.6943 C   0  0  0  0  0  0  0  0  0  0  0  0
   -2.8702   -4.8827   -1.1054 O   0  0  0  0  0  0  0  0  0  0  0  0
   -4.9704   -4.2579   -1.9614 C   0  0  0  0  0  0  0  0  0  0  0  0
   -5.1456   -4.7573   -2.9278 H   0  0  0  0  0  0  0  0  0  0  0  0
   -5.4379   -4.9112   -1.2072 H   0  0  0  0  0  0  0  0  0  0  0  0
   -5.5954   -3.3510   -1.9864 H   0  0  0  0  0  0  0  0  0  0  0  0
   -3.0424   -2.8131   -2.1606 N   0  0  0  0  0  0  0  0  0  0  0  0
   -1.6755   -2.3891   -2.0077 C   0  0  2  0  0  0  0  0  0  0  0  0
   -1.5782   -1.5673   -0.7292 C   0  0  0  0  0  0  0  0  0  0  0  0
   -2.5448   -1.0064   -0.2171 O   0  0  0  0  0  0  0  0  0  0  0  0
   -1.2087   -1.5823   -3.2094 C   0  0  0  0  0  0  0  0  0  0  0  0
   -3.6915   -2.1888   -2.6360 H   0  0  0  0  0  0  0  0  0  0  0  0
   -1.0721   -3.2977   -1.9053 H   0  0  0  0  0  0  0  0  0  0  0  0
   -1.8017   -0.6681   -3.3281 H   0  0  0  0  0  0  0  0  0  0  0  0
   -0.1601   -1.2849   -3.1045 H   0  0  0  0  0  0  0  0  0  0  0  0
   -1.3074   -2.1646   -4.1319 H   0  0  0  0  0  0  0  0  0  0  0  0
   -0.2835   -1.5112   -0.2725 N   0  0  0  0  0  0  0  0  0  0  0  0
    0.0769   -0.7658    0.9424 C   0  0  0  0  0  0  0  0  0  0  0  0
   -0.3682   -1.5362    2.1592 C   0  0  0  0  0  0  0  0  0  0  0  0
    0.4034   -2.1571    2.8855 O   0  0  0  0  0  0  0  0  0  0  0  0
    0.4587   -2.0097   -0.7289 H   0  0  0  0  0  0  0  0  0  0  0  0
   -0.4150    0.2113    0.9247 H   0  0  0  0  0  0  0  0  0  0  0  0
    1.1614   -0.6248    0.9689 H   0  0  0  0  0  0  0  0  0  0  0  0
   -1.7444   -1.4531    2.3428 N   0  0  0  0  0  0  0  0  0  0  0  0
   -2.4411   -2.0966    3.4253 C   0  0  2  0  0  0  0  0  0  0  0  0
   -3.1826   -1.0233    4.2113 C   0  0  0  0  0  0  0  0  0  0  0  0
   -2.8604    0.1628    4.1953 O   0  0  0  0  0  0  0  0  0  0  0  0
   -1.4819   -2.8626    4.3230 C   0  0  0  0  0  0  0  0  0  0  0  0
   -2.2879   -0.9079    1.6757 H   0  0  0  0  0  0  0  0  0  0  0  0
   -3.1643   -2.7834    2.9721 H   0  0  0  0  0  0  0  0  0  0  0  0
   -0.7497   -2.1911    4.7860 H   0  0  0  0  0  0  0  0  0  0  0  0
   -2.0167   -3.3750    5.1295 H   0  0  0  0  0  0  0  0  0  0  0  0
   -0.9279   -3.6140    3.7500 H   0  0  0  0  0  0  0  0  0  0  0  0
   -4.2197   -1.5525    4.9666 N   0  0  0  0  0  0  0  0  0  0  0  0
   -5.0648   -0.7386    5.8089 C   0  0  0  0  0  0  0  0  0  0  0  0
   -4.4275   -2.5448    4.9043 H   0  0  0  0  0  0  0  0  0  0  0  0
   -4.6523   -0.7136    6.8283 H   0  0  0  0  0  0  0  0  0  0  0  0
   -5.1081    0.2840    5.4058 H   0  0  0  0  0  0  0  0  0  0  0  0
   -6.0780   -1.1661    5.8339 H   0  0  0  0  0  0  0  0  0  0  0  0
  1  3  1  0  0  0  0
  1  7  1  0  0  0  0
  1  2  2  0  0  0  0
 18 19  1  0  0  0  0
 19 24  1  0  0  0  0
 19 20  2  0  0  0  0
 25 26  1  0  0  0  0
 26 34  1  0  0  0  0
 26 27  2  0  0  0  0
  8  9  1  0  0  0  0
  9 17  1  0  0  0  0
  9 10  2  0  0  0  0
 25 28  1  0  0  0  0
  8 11  1  0  0  0  0
 34 35  1  0  0  0  0
 17 18  1  0  0  0  0
 24 25  1  0  0  0  0
  7  8  1  0  0  0  0
  3  4  1  0  0  0  0
  3  5  1  0  0  0  0
  3  6  1  0  0  0  0
 28 31  1  0  0  0  0
 28 32  1  0  0  0  0
 28 33  1  0  0  0  0
 11 14  1  0  0  0  0
 11 15  1  0  0  0  0
 11 16  1  0  0  0  0
 35 37  1  0  0  0  0
 35 38  1  0  0  0  0
 35 39  1  0  0  0  0
 18 22  1  0  0  0  0
 18 23  1  0  0  0  0
 25 30  1  0  0  0  0
  8 13  1  0  0  0  0
 34 36  1  0  0  0  0
 17 21  1  0  0  0  0
  7 12  1  0  0  0  0
 24 29  1  0  0  0  0
M  END
$$$$

  -OEChem-05262214473D

 39 38  0     1  0  0  0  0  0999 V2000
   -3.5200   -4.0268   -1.6943 C   0  0  0  0  0  0  0  0  0  0  0  0
   -2.8702   -4.8827   -1.1054 O   0  0  0  0  0  0  0  0  0  0  0  0
   -4.9704   -4.2579   -1.9614 C   0  0  0  0  0  0  0  0  0  0  0  0
   -5.1456   -4.7573   -2.9278 H   0  0  0  0  0  0  0  0  0  0  0  0
   -5.4379   -4.9112   -1.2072 H   0  0  0  0  0  0  0  0  0  0  0  0
   -5.5954   -3.3510   -1.9864 H   0  0  0  0  0  0  0  0  0  0  0  0
   -3.0424   -2.8131   -2.1606 N   0  0  0  0  0  0  0  0  0  0  0  0
   -1.6755   -2.3891   -2.0077 C   0  0  2  0  0  0  0  0  0  0  0  0
   -1.5782   -1.5673   -0.7292 C   0  0  0  0  0  0  0  0  0  0  0  0
   -2.5448   -1.0064   -0.2171 O   0  0  0  0  0  0  0  0  0  0  0  0
   -1.2087   -1.5823   -3.2094 C   0  0  0  0  0  0  0  0  0  0  0  0
   -3.6915   -2.1888   -2.6360 H   0  0  0  0  0  0  0  0  0  0  0  0
   -1.0721   -3.2977   -1.9053 H   0  0  0  0  0  0  0  0  0  0  0  0
   -1.8017   -0.6681   -3.3281 H   0  0  0  0  0  0  0  0  0  0  0  0
   -0.1601   -1.2849   -3.1045 H   0  0  0  0  0  0  0  0  0  0  0  0
   -1.3074   -2.1646   -4.1319 H   0  0  0  0  0  0  0  0  0  0  0  0
   -0.2835   -1.5112   -0.2725 N   0  0  0  0  0  0  0  0  0  0  0  0
    0.0769   -0.7658    0.9424 C   0  0  0  0  0  0  0  0  0  0  0  0
   -0.3682   -1.5362    2.1592 C   0  0  0  0  0  0  0  0  0  0  0  0
    0.4040   -1.9310    3.0289 O   0  0  0  0  0  0  0  0  0  0  0  0
    0.4587   -2.0097   -0.7289 H   0  0  0  0  0  0  0  0  0  0  0  0
   -0.4150    0.2113    0.9247 H   0  0  0  0  0  0  0  0  0  0  0  0
    1.1614   -0.6248    0.9689 H   0  0  0  0  0  0  0  0  0  0  0  0
   -1.7443   -1.7384    2.1622 N   0  0  0  0  0  0  0  0  0  0  0  0
   -2.4402   -2.4473    3.2036 C   0  0  2  0  0  0  0  0  0  0  0  0
   -3.4877   -1.5107    3.7911 C   0  0  0  0  0  0  0  0  0  0  0  0
   -3.4150   -0.2864    3.7079 O   0  0  0  0  0  0  0  0  0  0  0  0
   -1.4808   -2.9327    4.2790 C   0  0  0  0  0  0  0  0  0  0  0  0
   -2.2884   -1.3649    1.3862 H   0  0  0  0  0  0  0  0  0  0  0  0
   -2.9373   -3.2998    2.7281 H   0  0  0  0  0  0  0  0  0  0  0  0
   -0.9732   -2.0924    4.7667 H   0  0  0  0  0  0  0  0  0  0  0  0
   -2.0078   -3.4964    5.0559 H   0  0  0  0  0  0  0  0  0  0  0  0
   -0.7104   -3.5823    3.8496 H   0  0  0  0  0  0  0  0  0  0  0  0
   -4.4908   -2.2014    4.4565 N   0  0  0  0  0  0  0  0  0  0  0  0
   -5.5937   -1.5364    5.1102 C   0  0  0  0  0  0  0  0  0  0  0  0
   -4.4811   -3.2171    4.4590 H   0  0  0  0  0  0  0  0  0  0  0  0
   -5.3422   -1.3602    6.1665 H   0  0  0  0  0  0  0  0  0  0  0  0
   -5.7875   -0.5740    4.6141 H   0  0  0  0  0  0  0  0  0  0  0  0
   -6.4918   -2.1685    5.0478 H   0  0  0  0  0  0  0  0  0  0  0  0
  1  3  1  0  0  0  0
  1  7  1  0  0  0  0
  1  2  2  0  0  0  0
 18 19  1  0  0  0  0
 19 24  1  0  0  0  0
 19 20  2  0  0  0  0
 25 26  1  0  0  0  0
 26 34  1  0  0  0  0
 26 27  2  0  0  0  0
  8  9  1  0  0  0  0
  9 17  1  0  0  0  0
  9 10  2  0  0  0  0
 25 28  1  0  0  0  0
  8 11  1  0  0  0  0
 34 35  1  0  0  0  0
 17 18  1  0  0  0  0
 24 25  1  0  0  0  0
  7  8  1  0  0  0  0
  3  4  1  0  0  0  0
  3  5  1  0  0  0  0
  3  6  1  0  0  0  0
 28 31  1  0  0  0  0
 28 32  1  0  0  0  0
 28 33  1  0  0  0  0
 11 14  1  0  0  0  0
 11 15  1  0  0  0  0
 11 16  1  0  0  0  0
 35 37  1  0  0  0  0
 35 38  1  0  0  0  0
 35 39  1  0  0  0  0
 18 22  1  0  0  0  0
 18 23  1  0  0  0  0
 25 30  1  0  0  0  0
  8 13  1  0  0  0  0
 34 36  1  0  0  0  0
 17 21  1  0  0  0  0
  7 12  1  0  0  0  0
 24 29  1  0  0  0  0
M  END
$$$$

  -OEChem-05262214473D

 39 38  0     1  0  0  0  0  0999 V2000
   -3.5200   -4.0268   -1.6943 C   0  0  0  0  0  0  0  0  0  0  0  0
   -2.8702   -4.8827   -1.1054 O   0  0  0  0  0  0  0  0  0  0  0  0
   -4.9704   -4.2579   -1.9614 C   0  0  0  0  0  0  0  0  0  0  0  0
   -5.1456   -4.7573   -2.9278 H   0  0  0  0  0  0  0  0  0  0  0  0
   -5.4379   -4.9112   -1.2072 H   0  0  0  0  0  0  0  0  0  0  0  0
   -5.5954   -3.3510   -1.9864 H   0  0  0  0  0  0  0  0  0  0  0  0
   -3.0424   -2.8131   -2.1606 N   0  0  0  0  0  0  0  0  0  0  0  0
   -1.6755   -2.3891   -2.0077 C   0  0  2  0  0  0  0  0  0  0  0  0
   -1.5782   -1.5673   -0.7292 C   0  0  0  0  0  0  0  0  0  0  0  0
   -2.5448   -1.0064   -0.2171 O   0  0  0  0  0  0  0  0  0  0  0  0
   -1.2087   -1.5823   -3.2094 C   0  0  0  0  0  0  0  0  0  0  0  0
   -3.6915   -2.1888   -2.6360 H   0  0  0  0  0  0  0  0  0  0  0  0
   -1.0721   -3.2977   -1.9053 H   0  0  0  0  0  0  0  0  0  0  0  0
   -1.8017   -0.6681   -3.3281 H   0  0  0  0  0  0  0  0  0  0  0  0
   -0.1601   -1.2849   -3.1045 H   0  0  0  0  0  0  0  0  0  0  0  0
   -1.3074   -2.1646   -4.1319 H   0  0  0  0  0  0  0  0  0  0  0  0
   -0.2835   -1.5112   -0.2725 N   0  0  0  0  0  0  0  0  0  0  0  0
    0.0769   -0.7658    0.9424 C   0  0  0  0  0  0  0  0  0  0  0  0
   -0.3682   -1.5362    2.1592 C   0  0  0  0  0  0  0  0  0  0  0  0
    0.3383   -1.7015    3.1501 O   0  0  0  0  0  0  0  0  0  0  0  0
    0.4587   -2.0097   -0.7289 H   0  0  0  0  0  0  0  0  0  0  0  0
   -0.4150    0.2113    0.9247 H   0  0  0  0  0  0  0  0  0  0  0  0
    1.1614   -0.6248    0.9689 H   0  0  0  0  0  0  0  0  0  0  0  0
   -1.6607   -2.0276    2.0096 N   0  0  0  0  0  0  0  0  0  0  0  0
   -2.3367   -2.8027    3.0163 C   0  0  2  0  0  0  0  0  0  0  0  0
   -3.6250   -2.0774    3.3820 C   0  0  0  0  0  0  0  0  0  0  0  0
   -3.7924   -0.8735    3.1981 O   0  0  0  0  0  0  0  0  0  0  0  0
   -1.4592   -3.0035    4.2420 C   0  0  0  0  0  0  0  0  0  0  0  0
   -2.1550   -1.8284    1.1415 H   0  0  0  0  0  0  0  0  0  0  0  0
   -2.5779   -3.7699    2.5619 H   0  0  0  0  0  0  0  0  0  0  0  0
   -1.2072   -2.0453    4.7109 H   0  0  0  0  0  0  0  0  0  0  0  0
   -1.9641   -3.6174    4.9952 H   0  0  0  0  0  0  0  0  0  0  0  0
   -0.5202   -3.4987    3.9722 H   0  0  0  0  0  0  0  0  0  0  0  0
   -4.5496   -2.9239    3.9776 N   0  0  0  0  0  0  0  0  0  0  0  0
   -5.8455   -2.4710    4.4264 C   0  0  0  0  0  0  0  0  0  0  0  0
   -4.3336   -3.9118    4.0730 H   0  0  0  0  0  0  0  0  0  0  0  0
   -5.7861   -2.1794    5.4854 H   0  0  0  0  0  0  0  0  0  0  0  0
   -6.1597   -1.6052    3.8249 H   0  0  0  0  0  0  0  0  0  0  0  0
   -6.5781   -3.2833    4.3103 H   0  0  0  0  0  0  0  0  0  0  0  0
  1  3  1  0  0  0  0
  1  7  1  0  0  0  0
  1  2  2  0  0  0  0
 18 19  1  0  0  0  0
 19 24  1  0  0  0  0
 19 20  2  0  0  0  0
 25 26  1  0  0  0  0
 26 34  1  0  0  0  0
 26 27  2  0  0  0  0
  8  9  1  0  0  0  0
  9 17  1  0  0  0  0
  9 10  2  0  0  0  0
 25 28  1  0  0  0  0
  8 11  1  0  0  0  0
 34 35  1  0  0  0  0
 17 18  1  0  0  0  0
 24 25  1  0  0  0  0
  7  8  1  0  0  0  0
  3  4  1  0  0  0  0
  3  5  1  0  0  0  0
  3  6  1  0  0  0  0
 28 31  1  0  0  0  0
 28 32  1  0  0  0  0
 28 33  1  0  0  0  0
 11 14  1  0  0  0  0
 11 15  1  0  0  0  0
 11 16  1  0  0  0  0
 35 37  1  0  0  0  0
 35 38  1  0  0  0  0
 35 39  1  0  0  0  0
 18 22  1  0  0  0  0
 18 23  1  0  0  0  0
 25 30  1  0  0  0  0
  8 13  1  0  0  0  0
 34 36  1  0  0  0  0
 17 21  1  0  0  0  0
  7 12  1  0  0  0  0
 24 29  1  0  0  0  0
M  END
$$$$

  -OEChem-05262214473D

 39 38  0     1  0  0  0  0  0999 V2000
   -3.5200   -4.0268   -1.6943 C   0  0  0  0  0  0  0  0  0  0  0  0
   -2.8702   -4.8827   -1.1054 O   0  0  0  0  0  0  0  0  0  0  0  0
   -4.9704   -4.2579   -1.9614 C   0  0  0  0  0  0  0  0  0  0  0  0
   -5.1456   -4.7573   -2.9278 H   0  0  0  0  0  0  0  0  0  0  0  0
   -5.4379   -4.9112   -1.2072 H   0  0  0  0  0  0  0  0  0  0  0  0
   -5.5954   -3.3510   -1.9864 H   0  0  0  0  0  0  0  0  0  0  0  0
   -3.0424   -2.8131   -2.1606 N   0  0  0  0  0  0  0  0  0  0  0  0
   -1.6755   -2.3891   -2.0077 C   0  0  2  0  0  0  0  0  0  0  0  0
   -1.5782   -1.5673   -0.7292 C   0  0  0  0  0  0  0  0  0  0  0  0
   -2.5448   -1.0064   -0.2171 O   0  0  0  0  0  0  0  0  0  0  0  0
   -1.2087   -1.5823   -3.2094 C   0  0  0  0  0  0  0  0  0  0  0  0
   -3.6915   -2.1888   -2.6360 H   0  0  0  0  0  0  0  0  0  0  0  0
   -1.0721   -3.2977   -1.9053 H   0  0  0  0  0  0  0  0  0  0  0  0
   -1.8017   -0.6681   -3.3281 H   0  0  0  0  0  0  0  0  0  0  0  0
   -0.1601   -1.2849   -3.1045 H   0  0  0  0  0  0  0  0  0  0  0  0
   -1.3074   -2.1646   -4.1319 H   0  0  0  0  0  0  0  0  0  0  0  0
   -0.2835   -1.5112   -0.2725 N   0  0  0  0  0  0  0  0  0  0  0  0
    0.0769   -0.7658    0.9424 C   0  0  0  0  0  0  0  0  0  0  0  0
   -0.3682   -1.5362    2.1592 C   0  0  0  0  0  0  0  0  0  0  0  0
    0.2108   -1.4843    3.2410 O   0  0  0  0  0  0  0  0  0  0  0  0
    0.4587   -2.0097   -0.7289 H   0  0  0  0  0  0  0  0  0  0  0  0
   -0.4150    0.2113    0.9247 H   0  0  0  0  0  0  0  0  0  0  0  0
    1.1614   -0.6248    0.9689 H   0  0  0  0  0  0  0  0  0  0  0  0
   -1.4993   -2.3013    1.8953 N   0  0  0  0  0  0  0  0  0  0  0  0
   -2.1378   -3.1388    2.8763 C   0  0  2  0  0  0  0  0  0  0  0  0
   -3.5851   -2.6846    3.0121 C   0  0  0  0  0  0  0  0  0  0  0  0
   -3.9668   -1.5584    2.7007 O   0  0  0  0  0  0  0  0  0  0  0  0
   -1.4187   -3.0702    4.2146 C   0  0  0  0  0  0  0  0  0  0  0  0
   -1.8970   -2.2670    0.9581 H   0  0  0  0  0  0  0  0  0  0  0  0
   -2.1105   -4.1616    2.4848 H   0  0  0  0  0  0  0  0  0  0  0  0
   -1.4356   -2.0530    4.6225 H   0  0  0  0  0  0  0  0  0  0  0  0
   -1.8886   -3.7297    4.9517 H   0  0  0  0  0  0  0  0  0  0  0  0
   -0.3701   -3.3687    4.1093 H   0  0  0  0  0  0  0  0  0  0  0  0
   -4.3921   -3.6706    3.5623 N   0  0  0  0  0  0  0  0  0  0  0  0
   -5.8030   -3.4785    3.8039 C   0  0  0  0  0  0  0  0  0  0  0  0
   -3.9949   -4.5815    3.7729 H   0  0  0  0  0  0  0  0  0  0  0  0
   -5.9535   -3.1156    4.8313 H   0  0  0  0  0  0  0  0  0  0  0  0
   -6.1994   -2.7393    3.0923 H   0  0  0  0  0  0  0  0  0  0  0  0
   -6.3310   -4.4344    3.6718 H   0  0  0  0  0  0  0  0  0  0  0  0
  1  3  1  0  0  0  0
  1  7  1  0  0  0  0
  1  2  2  0  0  0  0
 18 19  1  0  0  0  0
 19 24  1  0  0  0  0
 19 20  2  0  0  0  0
 25 26  1  0  0  0  0
 26 34  1  0  0  0  0
 26 27  2  0  0  0  0
  8  9  1  0  0  0  0
  9 17  1  0  0  0  0
  9 10  2  0  0  0  0
 25 28  1  0  0  0  0
  8 11  1  0  0  0  0
 34 35  1  0  0  0  0
 17 18  1  0  0  0  0
 24 25  1  0  0  0  0
  7  8  1  0  0  0  0
  3  4  1  0  0  0  0
  3  5  1  0  0  0  0
  3  6  1  0  0  0  0
 28 31  1  0  0  0  0
 28 32  1  0  0  0  0
 28 33  1  0  0  0  0
 11 14  1  0  0  0  0
 11 15  1  0  0  0  0
 11 16  1  0  0  0  0
 35 37  1  0  0  0  0
 35 38  1  0  0  0  0
 35 39  1  0  0  0  0
 18 22  1  0  0  0  0
 18 23  1  0  0  0  0
 25 30  1  0  0  0  0
  8 13  1  0  0  0  0
 34 36  1  0  0  0  0
 17 21  1  0  0  0  0
  7 12  1  0  0  0  0
 24 29  1  0  0  0  0
M  END
$$$$

  -OEChem-05262214473D

 39 38  0     1  0  0  0  0  0999 V2000
   -3.5200   -4.0268   -1.6943 C   0  0  0  0  0  0  0  0  0  0  0  0
   -2.8702   -4.8827   -1.1054 O   0  0  0  0  0  0  0  0  0  0  0  0
   -4.9704   -4.2579   -1.9614 C   0  0  0  0  0  0  0  0  0  0  0  0
   -5.1456   -4.7573   -2.9278 H   0  0  0  0  0  0  0  0  0  0  0  0
   -5.4379   -4.9112   -1.2072 H   0  0  0  0  0  0  0  0  0  0  0  0
   -5.5954   -3.3510   -1.9864 H   0  0  0  0  0  0  0  0  0  0  0  0
   -3.0424   -2.8131   -2.1606 N   0  0  0  0  0  0  0  0  0  0  0  0
   -1.6755   -2.3891   -2.0077 C   0  0  2  0  0  0  0  0  0  0  0  0
   -1.5782   -1.5673   -0.7292 C   0  0  0  0  0  0  0  0  0  0  0  0
   -2.5448   -1.0064   -0.2171 O   0  0  0  0  0  0  0  0  0  0  0  0
   -1.2087   -1.5823   -3.2094 C   0  0  0  0  0  0  0  0  0  0  0  0
   -3.6915   -2.1888   -2.6360 H   0  0  0  0  0  0  0  0  0  0  0  0
   -1.0721   -3.2977   -1.9053 H   0  0  0  0  0  0  0  0  0  0  0  0
   -1.8017   -0.6681   -3.3281 H   0  0  0  0  0  0  0  0  0  0  0  0
   -0.1601   -1.2849   -3.1045 H   0  0  0  0  0  0  0  0  0  0  0  0
   -1.3074   -2.1646   -4.1319 H   0  0  0  0  0  0  0  0  0  0  0  0
   -0.2835   -1.5112   -0.2725 N   0  0  0  0  0  0  0  0  0  0  0  0
    0.0769   -0.7658    0.9424 C   0  0  0  0  0  0  0  0  0  0  0  0
   -0.3682   -1.5362    2.1592 C   0  0  0  0  0  0  0  0  0  0  0  0
    0.0304   -1.2942    3.2954 O   0  0  0  0  0  0  0  0  0  0  0  0
    0.4587   -2.0097   -0.7289 H   0  0  0  0  0  0  0  0  0  0  0  0
   -0.4150    0.2113    0.9247 H   0  0  0  0  0  0  0  0  0  0  0  0
    1.1614   -0.6248    0.9689 H   0  0  0  0  0  0  0  0  0  0  0  0
   -1.2712   -2.5406    1.8272 N   0  0  0  0  0  0  0  0  0  0  0  0
   -1.8569   -3.4325    2.7931 C   0  0  2  0  0  0  0  0  0  0  0  0
   -3.3708   -3.2911    2.7064 C   0  0  0  0  0  0  0  0  0  0  0  0
   -3.9264   -2.2944    2.2494 O   0  0  0  0  0  0  0  0  0  0  0  0
   -1.3621   -3.1283    4.1985 C   0  0  0  0  0  0  0  0  0  0  0  0
   -1.5319   -2.6508    0.8487 H   0  0  0  0  0  0  0  0  0  0  0  0
   -1.5671   -4.4481    2.5022 H   0  0  0  0  0  0  0  0  0  0  0  0
   -1.6430   -2.1149    4.5075 H   0  0  0  0  0  0  0  0  0  0  0  0
   -1.7864   -3.8258    4.9282 H   0  0  0  0  0  0  0  0  0  0  0  0
   -0.2705   -3.2014    4.2518 H   0  0  0  0  0  0  0  0  0  0  0  0
   -4.0290   -4.3908    3.2391 N   0  0  0  0  0  0  0  0  0  0  0  0
   -5.4691   -4.4904    3.2853 C   0  0  0  0  0  0  0  0  0  0  0  0
   -3.4881   -5.1806    3.5789 H   0  0  0  0  0  0  0  0  0  0  0  0
   -5.8332   -4.1048    4.2490 H   0  0  0  0  0  0  0  0  0  0  0  0
   -5.9039   -3.8990    2.4660 H   0  0  0  0  0  0  0  0  0  0  0  0
   -5.7673   -5.5435    3.1757 H   0  0  0  0  0  0  0  0  0  0  0  0
  1  3  1  0  0  0  0
  1  7  1  0  0  0  0
  1  2  2  0  0  0  0
 18 19  1  0  0  0  0
 19 24  1  0  0  0  0
 19 20  2  0  0  0  0
 25 26  1  0  0  0  0
 26 34  1  0  0  0  0
 26 27  2  0  0  0  0
  8  9  1  0  0  0  0
  9 17  1  0  0  0  0
  9 10  2  0  0  0  0
 25 28  1  0  0  0  0
  8 11  1  0  0  0  0
 34 35  1  0  0  0  0
 17 18  1  0  0  0  0
 24 25  1  0  0  0  0
  7  8  1  0  0  0  0
  3  4  1  0  0  0  0
  3  5  1  0  0  0  0
  3  6  1  0  0  0  0
 28 31  1  0  0  0  0
 28 32  1  0  0  0  0
 28 33  1  0  0  0  0
 11 14  1  0  0  0  0
 11 15  1  0  0  0  0
 11 16  1  0  0  0  0
 35 37  1  0  0  0  0
 35 38  1  0  0  0  0
 35 39  1  0  0  0  0
 18 22  1  0  0  0  0
 18 23  1  0  0  0  0
 25 30  1  0  0  0  0
  8 13  1  0  0  0  0
 34 36  1  0  0  0  0
 17 21  1  0  0  0  0
  7 12  1  0  0  0  0
 24 29  1  0  0  0  0
M  END
$$$$

  -OEChem-05262214473D

 39 38  0     1  0  0  0  0  0999 V2000
   -3.5200   -4.0268   -1.6943 C   0  0  0  0  0  0  0  0  0  0  0  0
   -2.8702   -4.8827   -1.1054 O   0  0  0  0  0  0  0  0  0  0  0  0
   -4.9704   -4.2579   -1.9614 C   0  0  0  0  0  0  0  0  0  0  0  0
   -5.1456   -4.7573   -2.9278 H   0  0  0  0  0  0  0  0  0  0  0  0
   -5.4379   -4.9112   -1.2072 H   0  0  0  0  0  0  0  0  0  0  0  0
   -5.5954   -3.3510   -1.9864 H   0  0  0  0  0  0  0  0  0  0  0  0
   -3.0424   -2.8131   -2.1606 N   0  0  0  0  0  0  0  0  0  0  0  0
   -1.6755   -2.3891   -2.0077 C   0  0  2  0  0  0  0  0  0  0  0  0
   -1.5782   -1.5673   -0.7292 C   0  0  0  0  0  0  0  0  0  0  0  0
   -2.5448   -1.0064   -0.2171 O   0  0  0  0  0  0  0  0  0  0  0  0
   -1.2087   -1.5823   -3.2094 C   0  0  0  0  0  0  0  0  0  0  0  0
   -3.6915   -2.1888   -2.6360 H   0  0  0  0  0  0  0  0  0  0  0  0
   -1.0721   -3.2977   -1.9053 H   0  0  0  0  0  0  0  0  0  0  0  0
   -1.8017   -0.6681   -3.3281 H   0  0  0  0  0  0  0  0  0  0  0  0
   -0.1601   -1.2849   -3.1045 H   0  0  0  0  0  0  0  0  0  0  0  0
   -1.3074   -2.1646   -4.1319 H   0  0  0  0  0  0  0  0  0  0  0  0
   -0.2835   -1.5112   -0.2725 N   0  0  0  0  0  0  0  0  0  0  0  0
    0.0769   -0.7658    0.9424 C   0  0  0  0  0  0  0  0  0  0  0  0
   -0.3682   -1.5362    2.1592 C   0  0  0  0  0  0  0  0  0  0  0  0
   -0.1909   -1.1442    3.3095 O   0  0  0  0  0  0  0  0  0  0  0  0
    0.4587   -2.0097   -0.7289 H   0  0  0  0  0  0  0  0  0  0  0  0
   -0.4150    0.2113    0.9247 H   0  0  0  0  0  0  0  0  0  0  0  0
    1.1614   -0.6248    0.9689 H   0  0  0  0  0  0  0  0  0  0  0  0
   -0.9919   -2.7293    1.8099 N   0  0  0  0  0  0  0  0  0  0  0  0
   -1.5132   -3.6639    2.7723 C   0  0  2  0  0  0  0  0  0  0  0  0
   -2.9966   -3.8556    2.4859 C   0  0  0  0  0  0  0  0  0  0  0  0
   -3.6739   -3.0313    1.8751 O   0  0  0  0  0  0  0  0  0  0  0  0
   -1.2931   -3.1738    4.1950 C   0  0  0  0  0  0  0  0  0  0  0  0
   -1.0846   -2.9535    0.8206 H   0  0  0  0  0  0  0  0  0  0  0  0
   -0.9846   -4.6101    2.6127 H   0  0  0  0  0  0  0  0  0  0  0  0
   -1.8152   -2.2267    4.3737 H   0  0  0  0  0  0  0  0  0  0  0  0
   -1.6646   -3.8991    4.9264 H   0  0  0  0  0  0  0  0  0  0  0  0
   -0.2280   -3.0081    4.3897 H   0  0  0  0  0  0  0  0  0  0  0  0
   -3.4851   -5.0352    3.0300 N   0  0  0  0  0  0  0  0  0  0  0  0
   -4.8666   -5.4377    2.9058 C   0  0  0  0  0  0  0  0  0  0  0  0
   -2.8478   -5.6681    3.5044 H   0  0  0  0  0  0  0  0  0  0  0  0
   -5.4332   -5.0796    3.7780 H   0  0  0  0  0  0  0  0  0  0  0  0
   -5.2933   -5.0054    1.9888 H   0  0  0  0  0  0  0  0  0  0  0  0
   -4.9255   -6.5350    2.8557 H   0  0  0  0  0  0  0  0  0  0  0  0
  1  3  1  0  0  0  0
  1  7  1  0  0  0  0
  1  2  2  0  0  0  0
 18 19  1  0  0  0  0
 19 24  1  0  0  0  0
 19 20  2  0  0  0  0
 25 26  1  0  0  0  0
 26 34  1  0  0  0  0
 26 27  2  0  0  0  0
  8  9  1  0  0  0  0
  9 17  1  0  0  0  0
  9 10  2  0  0  0  0
 25 28  1  0  0  0  0
  8 11  1  0  0  0  0
 34 35  1  0  0  0  0
 17 18  1  0  0  0  0
 24 25  1  0  0  0  0
  7  8  1  0  0  0  0
  3  4  1  0  0  0  0
  3  5  1  0  0  0  0
  3  6  1  0  0  0  0
 28 31  1  0  0  0  0
 28 32  1  0  0  0  0
 28 33  1  0  0  0  0
 11 14  1  0  0  0  0
 11 15  1  0  0  0  0
 11 16  1  0  0  0  0
 35 37  1  0  0  0  0
 35 38  1  0  0  0  0
 35 39  1  0  0  0  0
 18 22  1  0  0  0  0
 18 23  1  0  0  0  0
 25 30  1  0  0  0  0
  8 13  1  0  0  0  0
 34 36  1  0  0  0  0
 17 21  1  0  0  0  0
  7 12  1  0  0  0  0
 24 29  1  0  0  0  0
M  END
$$$$

  -OEChem-05262214473D

 39 38  0     1  0  0  0  0  0999 V2000
   -3.5200   -4.0268   -1.6943 C   0  0  0  0  0  0  0  0  0  0  0  0
   -2.8702   -4.8827   -1.1054 O   0  0  0  0  0  0  0  0  0  0  0  0
   -4.9704   -4.2579   -1.9614 C   0  0  0  0  0  0  0  0  0  0  0  0
   -5.1456   -4.7573   -2.9278 H   0  0  0  0  0  0  0  0  0  0  0  0
   -5.4379   -4.9112   -1.2072 H   0  0  0  0  0  0  0  0  0  0  0  0
   -5.5954   -3.3510   -1.9864 H   0  0  0  0  0  0  0  0  0  0  0  0
   -3.0424   -2.8131   -2.1606 N   0  0  0  0  0  0  0  0  0  0  0  0
   -1.6755   -2.3891   -2.0077 C   0  0  2  0  0  0  0  0  0  0  0  0
   -1.5782   -1.5673   -0.7292 C   0  0  0  0  0  0  0  0  0  0  0  0
   -2.5448   -1.0064   -0.2171 O   0  0  0  0  0  0  0  0  0  0  0  0
   -1.2087   -1.5823   -3.2094 C   0  0  0  0  0  0  0  0  0  0  0  0
   -3.6915   -2.1888   -2.6360 H   0  0  0  0  0  0  0  0  0  0  0  0
   -1.0721   -3.2977   -1.9053 H   0  0  0  0  0  0  0  0  0  0  0  0
   -1.8017   -0.6681   -3.3281 H   0  0  0  0  0  0  0  0  0  0  0  0
   -0.1601   -1.2849   -3.1045 H   0  0  0  0  0  0  0  0  0  0  0  0
   -1.3074   -2.1646   -4.1319 H   0  0  0  0  0  0  0  0  0  0  0  0
   -0.2835   -1.5112   -0.2725 N   0  0  0  0  0  0  0  0  0  0  0  0
    0.0769   -0.7658    0.9424 C   0  0  0  0  0  0  0  0  0  0  0  0
   -0.3682   -1.5362    2.1592 C   0  0  0  0  0  0  0  0  0  0  0  0
   -0.4378   -1.0443    3.2824 O   0  0  0  0  0  0  0  0  0  0  0  0
    0.4587   -2.0097   -0.7289 H   0  0  0  0  0  0  0  0  0  0  0  0
   -0.4150    0.2113    0.9247 H   0  0  0  0  0  0  0  0  0  0  0  0
    1.1614   -0.6248    0.9689 H   0  0  0  0  0  0  0  0  0  0  0  0
   -0.6803   -2.8546    1.8446 N   0  0  0  0  0  0  0  0  0  0  0  0
   -1.1300   -3.8172    2.8153 C   0  0  2  0  0  0  0  0  0  0  0  0
   -2.4881   -4.3395    2.3655 C   0  0  0  0  0  0  0  0  0  0  0  0
   -3.2265   -3.7190    1.6033 O   0  0  0  0  0  0  0  0  0  0  0  0
   -1.2165   -3.2036    4.2041 C   0  0  0  0  0  0  0  0  0  0  0  0
   -0.5855   -3.1547    0.8757 H   0  0  0  0  0  0  0  0  0  0  0  0
   -0.4027   -4.6364    2.8089 H   0  0  0  0  0  0  0  0  0  0  0  0
   -1.9404   -2.3810    4.2302 H   0  0  0  0  0  0  0  0  0  0  0  0
   -1.5313   -3.9446    4.9464 H   0  0  0  0  0  0  0  0  0  0  0  0
   -0.2456   -2.8019    4.5138 H   0  0  0  0  0  0  0  0  0  0  0  0
   -2.7974   -5.5600    2.9492 N   0  0  0  0  0  0  0  0  0  0  0  0
   -4.0365   -6.2559    2.6914 C   0  0  0  0  0  0  0  0  0  0  0  0
   -2.1176   -6.0110    3.5544 H   0  0  0  0  0  0  0  0  0  0  0  0
   -4.7809   -5.9737    3.4504 H   0  0  0  0  0  0  0  0  0  0  0  0
   -4.4092   -5.9830    1.6931 H   0  0  0  0  0  0  0  0  0  0  0  0
   -3.8630   -7.3413    2.7339 H   0  0  0  0  0  0  0  0  0  0  0  0
  1  3  1  0  0  0  0
  1  7  1  0  0  0  0
  1  2  2  0  0  0  0
 18 19  1  0  0  0  0
 19 24  1  0  0  0  0
 19 20  2  0  0  0  0
 25 26  1  0  0  0  0
 26 34  1  0  0  0  0
 26 27  2  0  0  0  0
  8  9  1  0  0  0  0
  9 17  1  0  0  0  0
  9 10  2  0  0  0  0
 25 28  1  0  0  0  0
  8 11  1  0  0  0  0
 34 35  1  0  0  0  0
 17 18  1  0  0  0  0
 24 25  1  0  0  0  0
  7  8  1  0  0  0  0
  3  4  1  0  0  0  0
  3  5  1  0  0  0  0
  3  6  1  0  0  0  0
 28 31  1  0  0  0  0
 28 32  1  0  0  0  0
 28 33  1  0  0  0  0
 11 14  1  0  0  0  0
 11 15  1  0  0  0  0
 11 16  1  0  0  0  0
 35 37  1  0  0  0  0
 35 38  1  0  0  0  0
 35 39  1  0  0  0  0
 18 22  1  0  0  0  0
 18 23  1  0  0  0  0
 25 30  1  0  0  0  0
  8 13  1  0  0  0  0
 34 36  1  0  0  0  0
 17 21  1  0  0  0  0
  7 12  1  0  0  0  0
 24 29  1  0  0  0  0
M  END
$$$$

  -OEChem-05262214473D

 39 38  0     1  0  0  0  0  0999 V2000
   -3.5200   -4.0268   -1.6943 C   0  0  0  0  0  0  0  0  0  0  0  0
   -2.8702   -4.8827   -1.1054 O   0  0  0  0  0  0  0  0  0  0  0  0
   -4.9704   -4.2579   -1.9614 C   0  0  0  0  0  0  0  0  0  0  0  0
   -5.1456   -4.7573   -2.9278 H   0  0  0  0  0  0  0  0  0  0  0  0
   -5.4379   -4.9112   -1.2072 H   0  0  0  0  0  0  0  0  0  0  0  0
   -5.5954   -3.3510   -1.9864 H   0  0  0  0  0  0  0  0  0  0  0  0
   -3.0424   -2.8131   -2.1606 N   0  0  0  0  0  0  0  0  0  0  0  0
   -1.6755   -2.3891   -2.0077 C   0  0  2  0  0  0  0  0  0  0  0  0
   -1.5782   -1.5673   -0.7292 C   0  0  0  0  0  0  0  0  0  0  0  0
   -2.5448   -1.0064   -0.2171 O   0  0  0  0  0  0  0  0  0  0  0  0
   -1.2087   -1.5823   -3.2094 C   0  0  0  0  0  0  0  0  0  0  0  0
   -3.6915   -2.1888   -2.6360 H   0  0  0  0  0  0  0  0  0  0  0  0
   -1.0721   -3.2977   -1.9053 H   0  0  0  0  0  0  0  0  0  0  0  0
   -1.8017   -0.6681   -3.3281 H   0  0  0  0  0  0  0  0  0  0  0  0
   -0.1601   -1.2849   -3.1045 H   0  0  0  0  0  0  0  0  0  0  0  0
   -1.3074   -2.1646   -4.1319 H   0  0  0  0  0  0  0  0  0  0  0  0
   -0.2835   -1.5112   -0.2725 N   0  0  0  0  0  0  0  0  0  0  0  0
    0.0769   -0.7658    0.9424 C   0  0  0  0  0  0  0  0  0  0  0  0
   -0.3682   -1.5362    2.1592 C   0  0  0  0  0  0  0  0  0  0  0  0
   -0.6936   -1.0016    3.2159 O   0  0  0  0  0  0  0  0  0  0  0  0
    0.4587   -2.0097   -0.7289 H   0  0  0  0  0  0  0  0  0  0  0  0
   -0.4150    0.2113    0.9247 H   0  0  0  0  0  0  0  0  0  0  0  0
    1.1614   -0.6248    0.9689 H   0  0  0  0  0  0  0  0  0  0  0  0
   -0.3578   -2.9078    1.9288 N   0  0  0  0  0  0  0  0  0  0  0  0
   -0.7337   -3.8820    2.9193 C   0  0  2  0  0  0  0  0  0  0  0  0
   -1.8799   -4.7098    2.3534 C   0  0  0  0  0  0  0  0  0  0  0  0
   -2.6147   -4.3106    1.4525 O   0  0  0  0  0  0  0  0  0  0  0  0
   -1.1374   -3.2157    4.2254 C   0  0  0  0  0  0  0  0  0  0  0  0
   -0.0687   -3.2405    1.0104 H   0  0  0  0  0  0  0  0  0  0  0  0
    0.1389   -4.5252    3.0774 H   0  0  0  0  0  0  0  0  0  0  0  0
   -2.0101   -2.5671    4.0868 H   0  0  0  0  0  0  0  0  0  0  0  0
   -1.3957   -3.9591    4.9867 H   0  0  0  0  0  0  0  0  0  0  0  0
   -0.3221   -2.5970    4.6156 H   0  0  0  0  0  0  0  0  0  0  0  0
   -2.0128   -5.9295    3.0023 N   0  0  0  0  0  0  0  0  0  0  0  0
   -3.0353   -6.8891    2.6566 C   0  0  0  0  0  0  0  0  0  0  0  0
   -1.3472   -6.1859    3.7255 H   0  0  0  0  0  0  0  0  0  0  0  0
   -3.9207   -6.7261    3.2887 H   0  0  0  0  0  0  0  0  0  0  0  0
   -3.3120   -6.7651    1.5992 H   0  0  0  0  0  0  0  0  0  0  0  0
   -2.6520   -7.9074    2.8183 H   0  0  0  0  0  0  0  0  0  0  0  0
  1  3  1  0  0  0  0
  1  7  1  0  0  0  0
  1  2  2  0  0  0  0
 18 19  1  0  0  0  0
 19 24  1  0  0  0  0
 19 20  2  0  0  0  0
 25 26  1  0  0  0  0
 26 34  1  0  0  0  0
 26 27  2  0  0  0  0
  8  9  1  0  0  0  0
  9 17  1  0  0  0  0
  9 10  2  0  0  0  0
 25 28  1  0  0  0  0
  8 11  1  0  0  0  0
 34 35  1  0  0  0  0
 17 18  1  0  0  0  0
 24 25  1  0  0  0  0
  7  8  1  0  0  0  0
  3  4  1  0  0  0  0
  3  5  1  0  0  0  0
  3  6  1  0  0  0  0
 28 31  1  0  0  0  0
 28 32  1  0  0  0  0
 28 33  1  0  0  0  0
 11 14  1  0  0  0  0
 11 15  1  0  0  0  0
 11 16  1  0  0  0  0
 35 37  1  0  0  0  0
 35 38  1  0  0  0  0
 35 39  1  0  0  0  0
 18 22  1  0  0  0  0
 18 23  1  0  0  0  0
 25 30  1  0  0  0  0
  8 13  1  0  0  0  0
 34 36  1  0  0  0  0
 17 21  1  0  0  0  0
  7 12  1  0  0  0  0
 24 29  1  0  0  0  0
M  END
$$$$

  -OEChem-05262214473D

 39 38  0     1  0  0  0  0  0999 V2000
   -3.5200   -4.0268   -1.6943 C   0  0  0  0  0  0  0  0  0  0  0  0
   -2.8702   -4.8827   -1.1054 O   0  0  0  0  0  0  0  0  0  0  0  0
   -4.9704   -4.2579   -1.9614 C   0  0  0  0  0  0  0  0  0  0  0  0
   -5.1456   -4.7573   -2.9278 H   0  0  0  0  0  0  0  0  0  0  0  0
   -5.4379   -4.9112   -1.2072 H   0  0  0  0  0  0  0  0  0  0  0  0
   -5.5954   -3.3510   -1.9864 H   0  0  0  0  0  0  0  0  0  0  0  0
   -3.0424   -2.8131   -2.1606 N   0  0  0  0  0  0  0  0  0  0  0  0
   -1.6755   -2.3891   -2.0077 C   0  0  2  0  0  0  0  0  0  0  0  0
   -1.5782   -1.5673   -0.7292 C   0  0  0  0  0  0  0  0  0  0  0  0
   -2.5448   -1.0064   -0.2171 O   0  0  0  0  0  0  0  0  0  0  0  0
   -1.2087   -1.5823   -3.2094 C   0  0  0  0  0  0  0  0  0  0  0  0
   -3.6915   -2.1888   -2.6360 H   0  0  0  0  0  0  0  0  0  0  0  0
   -1.0721   -3.2977   -1.9053 H   0  0  0  0  0  0  0  0  0  0  0  0
   -1.8017   -0.6681   -3.3281 H   0  0  0  0  0  0  0  0  0  0  0  0
   -0.1601   -1.2849   -3.1045 H   0  0  0  0  0  0  0  0  0  0  0  0
   -1.3074   -2.1646   -4.1319 H   0  0  0  0  0  0  0  0  0  0  0  0
   -0.2835   -1.5112   -0.2725 N   0  0  0  0  0  0  0  0  0  0  0  0
    0.0769   -0.7658    0.9424 C   0  0  0  0  0  0  0  0  0  0  0  0
   -0.3682   -1.5362    2.1592 C   0  0  0  0  0  0  0  0  0  0  0  0
   -0.9408   -1.0188    3.1146 O   0  0  0  0  0  0  0  0  0  0  0  0
    0.4587   -2.0097   -0.7289 H   0  0  0  0  0  0  0  0  0  0  0  0
   -0.4150    0.2113    0.9247 H   0  0  0  0  0  0  0  0  0  0  0  0
    1.1614   -0.6248    0.9689 H   0  0  0  0  0  0  0  0  0  0  0  0
   -0.0462   -2.8854    2.0570 N   0  0  0  0  0  0  0  0  0  0  0  0
   -0.3510   -3.8538    3.0771 C   0  0  2  0  0  0  0  0  0  0  0  0
   -1.2135   -4.9414    2.4506 C   0  0  0  0  0  0  0  0  0  0  0  0
   -1.8803   -4.7657    1.4329 O   0  0  0  0  0  0  0  0  0  0  0  0
   -1.0614   -3.2093    4.2573 C   0  0  0  0  0  0  0  0  0  0  0  0
    0.4305   -3.2051    1.2154 H   0  0  0  0  0  0  0  0  0  0  0  0
    0.6032   -4.2842    3.3999 H   0  0  0  0  0  0  0  0  0  0  0  0
   -2.0197   -2.7725    3.9533 H   0  0  0  0  0  0  0  0  0  0  0  0
   -1.2670   -3.9417    5.0448 H   0  0  0  0  0  0  0  0  0  0  0  0
   -0.4523   -2.4072    4.6881 H   0  0  0  0  0  0  0  0  0  0  0  0
   -1.1848   -6.1183    3.1856 N   0  0  0  0  0  0  0  0  0  0  0  0
   -1.9314   -7.2943    2.8038 C   0  0  0  0  0  0  0  0  0  0  0  0
   -0.5892   -6.1807    4.0060 H   0  0  0  0  0  0  0  0  0  0  0  0
   -2.9113   -7.2854    3.3037 H   0  0  0  0  0  0  0  0  0  0  0  0
   -2.0763   -7.2986    1.7134 H   0  0  0  0  0  0  0  0  0  0  0  0
   -1.3753   -8.1948    3.1034 H   0  0  0  0  0  0  0  0  0  0  0  0
  1  3  1  0  0  0  0
  1  7  1  0  0  0  0
  1  2  2  0  0  0  0
 18 19  1  0  0  0  0
 19 24  1  0  0  0  0
 19 20  2  0  0  0  0
 25 26  1  0  0  0  0
 26 34  1  0  0  0  0
 26 27  2  0  0  0  0
  8  9  1  0  0  0  0
  9 17  1  0  0  0  0
  9 10  2  0  0  0  0
 25 28  1  0  0  0  0
  8 11  1  0  0  0  0
 34 35  1  0  0  0  0
 17 18  1  0  0  0  0
 24 25  1  0  0  0  0
  7  8  1  0  0  0  0
  3  4  1  0  0  0  0
  3  5  1  0  0  0  0
  3  6  1  0  0  0  0
 28 31  1  0  0  0  0
 28 32  1  0  0  0  0
 28 33  1  0  0  0  0
 11 14  1  0  0  0  0
 11 15  1  0  0  0  0
 11 16  1  0  0  0  0
 35 37  1  0  0  0  0
 35 38  1  0  0  0  0
 35 39  1  0  0  0  0
 18 22  1  0  0  0  0
 18 23  1  0  0  0  0
 25 30  1  0  0  0  0
  8 13  1  0  0  0  0
 34 36  1  0  0  0  0
 17 21  1  0  0  0  0
  7 12  1  0  0  0  0
 24 29  1  0  0  0  0
M  END
$$$$

  -OEChem-05262214473D

 39 38  0     1  0  0  0  0  0999 V2000
   -3.5200   -4.0268   -1.6943 C   0  0  0  0  0  0  0  0  0  0  0  0
   -2.8702   -4.8827   -1.1054 O   0  0  0  0  0  0  0  0  0  0  0  0
   -4.9704   -4.2579   -1.9614 C   0  0  0  0  0  0  0  0  0  0  0  0
   -5.1456   -4.7573   -2.9278 H   0  0  0  0  0  0  0  0  0  0  0  0
   -5.4379   -4.9112   -1.2072 H   0  0  0  0  0  0  0  0  0  0  0  0
   -5.5954   -3.3510   -1.9864 H   0  0  0  0  0  0  0  0  0  0  0  0
   -3.0424   -2.8131   -2.1606 N   0  0  0  0  0  0  0  0  0  0  0  0
   -1.6755   -2.3891   -2.0077 C   0  0  2  0  0  0  0  0  0  0  0  0
   -1.5782   -1.5673   -0.7292 C   0  0  0  0  0  0  0  0  0  0  0  0
   -2.5448   -1.0064   -0.2171 O   0  0  0  0  0  0  0  0  0  0  0  0
   -1.2087   -1.5823   -3.2094 C   0  0  0  0  0  0  0  0  0  0  0  0
   -3.6915   -2.1888   -2.6360 H   0  0  0  0  0  0  0  0  0  0  0  0
   -1.0721   -3.2977   -1.9053 H   0  0  0  0  0  0  0  0  0  0  0  0
   -1.8017   -0.6681   -3.3281 H   0  0  0  0  0  0  0  0  0  0  0  0
   -0.1601   -1.2849   -3.1045 H   0  0  0  0  0  0  0  0  0  0  0  0
   -1.3074   -2.1646   -4.1319 H   0  0  0  0  0  0  0  0  0  0  0  0
   -0.2835   -1.5112   -0.2725 N   0  0  0  0  0  0  0  0  0  0  0  0
    0.0769   -0.7658    0.9424 C   0  0  0  0  0  0  0  0  0  0  0  0
   -0.3682   -1.5362    2.1592 C   0  0  0  0  0  0  0  0  0  0  0  0
   -1.1626   -1.0948    2.9853 O   0  0  0  0  0  0  0  0  0  0  0  0
    0.4587   -2.0097   -0.7289 H   0  0  0  0  0  0  0  0  0  0  0  0
   -0.4150    0.2113    0.9247 H   0  0  0  0  0  0  0  0  0  0  0  0
    1.1614   -0.6248    0.9689 H   0  0  0  0  0  0  0  0  0  0  0  0
    0.2330   -2.7889    2.2202 N   0  0  0  0  0  0  0  0  0  0  0  0
   -0.0082   -3.7345    3.2781 C   0  0  2  0  0  0  0  0  0  0  0  0
   -0.5342   -5.0185    2.6502 C   0  0  0  0  0  0  0  0  0  0  0  0
   -1.0732   -5.0534    1.5460 O   0  0  0  0  0  0  0  0  0  0  0  0
   -0.9935   -3.1847    4.2977 C   0  0  0  0  0  0  0  0  0  0  0  0
    0.8783   -3.0510    1.4768 H   0  0  0  0  0  0  0  0  0  0  0  0
    0.9588   -3.9297    3.7544 H   0  0  0  0  0  0  0  0  0  0  0  0
   -1.9683   -2.9830    3.8388 H   0  0  0  0  0  0  0  0  0  0  0  0
   -1.1541   -3.8936    5.1166 H   0  0  0  0  0  0  0  0  0  0  0  0
   -0.6273   -2.2456    4.7264 H   0  0  0  0  0  0  0  0  0  0  0  0
   -0.3698   -6.1138    3.4866 N   0  0  0  0  0  0  0  0  0  0  0  0
   -0.8000   -7.4438    3.1231 C   0  0  0  0  0  0  0  0  0  0  0  0
    0.1048   -5.9959    4.3768 H   0  0  0  0  0  0  0  0  0  0  0  0
   -1.8213   -7.6137    3.4945 H   0  0  0  0  0  0  0  0  0  0  0  0
   -0.7863   -7.5469    2.0280 H   0  0  0  0  0  0  0  0  0  0  0  0
   -0.1196   -8.1839    3.5696 H   0  0  0  0  0  0  0  0  0  0  0  0
  1  3  1  0  0  0  0
  1  7  1  0  0  0  0
  1  2  2  0  0  0  0
 18 19  1  0  0  0  0
 19 24  1  0  0  0  0
 19 20  2  0  0  0  0
 25 26  1  0  0  0  0
 26 34  1  0  0  0  0
 26 27  2  0  0  0  0
  8  9  1  0  0  0  0
  9 17  1  0  0  0  0
  9 10  2  0  0  0  0
 25 28  1  0  0  0  0
  8 11  1  0  0  0  0
 34 35  1  0  0  0  0
 17 18  1  0  0  0  0
 24 25  1  0  0  0  0
  7  8  1  0  0  0  0
  3  4  1  0  0  0  0
  3  5  1  0  0  0  0
  3  6  1  0  0  0  0
 28 31  1  0  0  0  0
 28 32  1  0  0  0  0
 28 33  1  0  0  0  0
 11 14  1  0  0  0  0
 11 15  1  0  0  0  0
 11 16  1  0  0  0  0
 35 37  1  0  0  0  0
 35 38  1  0  0  0  0
 35 39  1  0  0  0  0
 18 22  1  0  0  0  0
 18 23  1  0  0  0  0
 25 30  1  0  0  0  0
  8 13  1  0  0  0  0
 34 36  1  0  0  0  0
 17 21  1  0  0  0  0
  7 12  1  0  0  0  0
 24 29  1  0  0  0  0
M  END
$$$$

  -OEChem-05262214473D

 39 38  0     1  0  0  0  0  0999 V2000
   -3.5200   -4.0268   -1.6943 C   0  0  0  0  0  0  0  0  0  0  0  0
   -2.8702   -4.8827   -1.1054 O   0  0  0  0  0  0  0  0  0  0  0  0
   -4.9704   -4.2579   -1.9614 C   0  0  0  0  0  0  0  0  0  0  0  0
   -5.1456   -4.7573   -2.9278 H   0  0  0  0  0  0  0  0  0  0  0  0
   -5.4379   -4.9112   -1.2072 H   0  0  0  0  0  0  0  0  0  0  0  0
   -5.5954   -3.3510   -1.9864 H   0  0  0  0  0  0  0  0  0  0  0  0
   -3.0424   -2.8131   -2.1606 N   0  0  0  0  0  0  0  0  0  0  0  0
   -1.6755   -2.3891   -2.0077 C   0  0  2  0  0  0  0  0  0  0  0  0
   -1.5782   -1.5673   -0.7292 C   0  0  0  0  0  0  0  0  0  0  0  0
   -2.5448   -1.0064   -0.2171 O   0  0  0  0  0  0  0  0  0  0  0  0
   -1.2087   -1.5823   -3.2094 C   0  0  0  0  0  0  0  0  0  0  0  0
   -3.6915   -2.1888   -2.6360 H   0  0  0  0  0  0  0  0  0  0  0  0
   -1.0721   -3.2977   -1.9053 H   0  0  0  0  0  0  0  0  0  0  0  0
   -1.8017   -0.6681   -3.3281 H   0  0  0  0  0  0  0  0  0  0  0  0
   -0.1601   -1.2849   -3.1045 H   0  0  0  0  0  0  0  0  0  0  0  0
   -1.3074   -2.1646   -4.1319 H   0  0  0  0  0  0  0  0  0  0  0  0
   -0.2835   -1.5112   -0.2725 N   0  0  0  0  0  0  0  0  0  0  0  0
    0.0769   -0.7658    0.9424 C   0  0  0  0  0  0  0  0  0  0  0  0
   -0.3682   -1.5362    2.1592 C   0  0  0  0  0  0  0  0  0  0  0  0
   -1.3438   -1.2245    2.8369 O   0  0  0  0  0  0  0  0  0  0  0  0
    0.4587   -2.0097   -0.7289 H   0  0  0  0  0  0  0  0  0  0  0  0
   -0.4150    0.2113    0.9247 H   0  0  0  0  0  0  0  0  0  0  0  0
    1.1614   -0.6248    0.9689 H   0  0  0  0  0  0  0  0  0  0  0  0
    0.4610   -2.6249    2.4075 N   0  0  0  0  0  0  0  0  0  0  0  0
    0.2715   -3.5323    3.5084 C   0  0  2  0  0  0  0  0  0  0  0  0
    0.1116   -4.9357    2.9389 C   0  0  0  0  0  0  0  0  0  0  0  0
   -0.2485   -5.1540    1.7840 O   0  0  0  0  0  0  0  0  0  0  0  0
   -0.9384   -3.1437    4.3438 C   0  0  0  0  0  0  0  0  0  0  0  0
    1.2440   -2.7886    1.7767 H   0  0  0  0  0  0  0  0  0  0  0  0
    1.1812   -3.4859    4.1168 H   0  0  0  0  0  0  0  0  0  0  0  0
   -1.8596   -3.1843    3.7511 H   0  0  0  0  0  0  0  0  0  0  0  0
   -1.0645   -3.8181    5.1972 H   0  0  0  0  0  0  0  0  0  0  0  0
   -0.8352   -2.1231    4.7280 H   0  0  0  0  0  0  0  0  0  0  0  0
    0.3766   -5.9161    3.8848 N   0  0  0  0  0  0  0  0  0  0  0  0
    0.2819   -7.3274    3.5925 C   0  0  0  0  0  0  0  0  0  0  0  0
    0.6875   -5.6441    4.8127 H   0  0  0  0  0  0  0  0  0  0  0  0
   -0.7252   -7.6885    3.8481 H   0  0  0  0  0  0  0  0  0  0  0  0
    0.4699   -7.4933    2.5215 H   0  0  0  0  0  0  0  0  0  0  0  0
    1.0292   -7.8754    4.1852 H   0  0  0  0  0  0  0  0  0  0  0  0
  1  3  1  0  0  0  0
  1  7  1  0  0  0  0
  1  2  2  0  0  0  0
 18 19  1  0  0  0  0
 19 24  1  0  0  0  0
 19 20  2  0  0  0  0
 25 26  1  0  0  0  0
 26 34  1  0  0  0  0
 26 27  2  0  0  0  0
  8  9  1  0  0  0  0
  9 17  1  0  0  0  0
  9 10  2  0  0  0  0
 25 28  1  0  0  0  0
  8 11  1  0  0  0  0
 34 35  1  0  0  0  0
 17 18  1  0  0  0  0
 24 25  1  0  0  0  0
  7  8  1  0  0  0  0
  3  4  1  0  0  0  0
  3  5  1  0  0  0  0
  3  6  1  0  0  0  0
 28 31  1  0  0  0  0
 28 32  1  0  0  0  0
 28 33  1  0  0  0  0
 11 14  1  0  0  0  0
 11 15  1  0  0  0  0
 11 16  1  0  0  0  0
 35 37  1  0  0  0  0
 35 38  1  0  0  0  0
 35 39  1  0  0  0  0
 18 22  1  0  0  0  0
 18 23  1  0  0  0  0
 25 30  1  0  0  0  0
  8 13  1  0  0  0  0
 34 36  1  0  0  0  0
 17 21  1  0  0  0  0
  7 12  1  0  0  0  0
 24 29  1  0  0  0  0
M  END
$$$$

  -OEChem-05262214473D

 39 38  0     1  0  0  0  0  0999 V2000
   -3.5200   -4.0268   -1.6943 C   0  0  0  0  0  0  0  0  0  0  0  0
   -2.8702   -4.8827   -1.1054 O   0  0  0  0  0  0  0  0  0  0  0  0
   -4.9704   -4.2579   -1.9614 C   0  0  0  0  0  0  0  0  0  0  0  0
   -5.1456   -4.7573   -2.9278 H   0  0  0  0  0  0  0  0  0  0  0  0
   -5.4379   -4.9112   -1.2072 H   0  0  0  0  0  0  0  0  0  0  0  0
   -5.5954   -3.3510   -1.9864 H   0  0  0  0  0  0  0  0  0  0  0  0
   -3.0424   -2.8131   -2.1606 N   0  0  0  0  0  0  0  0  0  0  0  0
   -1.6755   -2.3891   -2.0077 C   0  0  2  0  0  0  0  0  0  0  0  0
   -1.5782   -1.5673   -0.7292 C   0  0  0  0  0  0  0  0  0  0  0  0
   -2.5448   -1.0064   -0.2171 O   0  0  0  0  0  0  0  0  0  0  0  0
   -1.2087   -1.5823   -3.2094 C   0  0  0  0  0  0  0  0  0  0  0  0
   -3.6915   -2.1888   -2.6360 H   0  0  0  0  0  0  0  0  0  0  0  0
   -1.0721   -3.2977   -1.9053 H   0  0  0  0  0  0  0  0  0  0  0  0
   -1.8017   -0.6681   -3.3281 H   0  0  0  0  0  0  0  0  0  0  0  0
   -0.1601   -1.2849   -3.1045 H   0  0  0  0  0  0  0  0  0  0  0  0
   -1.3074   -2.1646   -4.1319 H   0  0  0  0  0  0  0  0  0  0  0  0
   -0.2835   -1.5112   -0.2725 N   0  0  0  0  0  0  0  0  0  0  0  0
    0.0769   -0.7658    0.9424 C   0  0  0  0  0  0  0  0  0  0  0  0
   -0.3682   -1.5362    2.1592 C   0  0  0  0  0  0  0  0  0  0  0  0
   -1.4722   -1.3989    2.6795 O   0  0  0  0  0  0  0  0  0  0  0  0
    0.4587   -2.0097   -0.7289 H   0  0  0  0  0  0  0  0  0  0  0  0
   -0.4150    0.2113    0.9247 H   0  0  0  0  0  0  0  0  0  0  0  0
    1.1614   -0.6248    0.9689 H   0  0  0  0  0  0  0  0  0  0  0  0
    0.6222   -2.4045    2.6060 N   0  0  0  0  0  0  0  0  0  0  0  0
    0.4689   -3.2610    3.7524 C   0  0  2  0  0  0  0  0  0  0  0  0
    0.6799   -4.6988    3.2968 C   0  0  0  0  0  0  0  0  0  0  0  0
    0.5377   -5.0607    2.1306 O   0  0  0  0  0  0  0  0  0  0  0  0
   -0.8999   -3.0890    4.3925 C   0  0  0  0  0  0  0  0  0  0  0  0
    1.5027   -2.4358    2.0948 H   0  0  0  0  0  0  0  0  0  0  0  0
    1.2555   -2.9831    4.4623 H   0  0  0  0  0  0  0  0  0  0  0  0
   -1.7008   -3.3628    3.6961 H   0  0  0  0  0  0  0  0  0  0  0  0
   -1.0044   -3.7203    5.2811 H   0  0  0  0  0  0  0  0  0  0  0  0
   -1.0617   -2.0481    4.6926 H   0  0  0  0  0  0  0  0  0  0  0  0
    1.0037   -5.5388    4.3530 N   0  0  0  0  0  0  0  0  0  0  0  0
    1.2405   -6.9531    4.1802 C   0  0  0  0  0  0  0  0  0  0  0  0
    1.1191   -5.1493    5.2840 H   0  0  0  0  0  0  0  0  0  0  0  0
    0.3025   -7.5047    4.3404 H   0  0  0  0  0  0  0  0  0  0  0  0
    1.6069   -7.1414    3.1602 H   0  0  0  0  0  0  0  0  0  0  0  0
    1.9930   -7.2904    4.9082 H   0  0  0  0  0  0  0  0  0  0  0  0
  1  3  1  0  0  0  0
  1  7  1  0  0  0  0
  1  2  2  0  0  0  0
 18 19  1  0  0  0  0
 19 24  1  0  0  0  0
 19 20  2  0  0  0  0
 25 26  1  0  0  0  0
 26 34  1  0  0  0  0
 26 27  2  0  0  0  0
  8  9  1  0  0  0  0
  9 17  1  0  0  0  0
  9 10  2  0  0  0  0
 25 28  1  0  0  0  0
  8 11  1  0  0  0  0
 34 35  1  0  0  0  0
 17 18  1  0  0  0  0
 24 25  1  0  0  0  0
  7  8  1  0  0  0  0
  3  4  1  0  0  0  0
  3  5  1  0  0  0  0
  3  6  1  0  0  0  0
 28 31  1  0  0  0  0
 28 32  1  0  0  0  0
 28 33  1  0  0  0  0
 11 14  1  0  0  0  0
 11 15  1  0  0  0  0
 11 16  1  0  0  0  0
 35 37  1  0  0  0  0
 35 38  1  0  0  0  0
 35 39  1  0  0  0  0
 18 22  1  0  0  0  0
 18 23  1  0  0  0  0
 25 30  1  0  0  0  0
  8 13  1  0  0  0  0
 34 36  1  0  0  0  0
 17 21  1  0  0  0  0
  7 12  1  0  0  0  0
 24 29  1  0  0  0  0
M  END
$$$$

  -OEChem-05262214473D

 39 38  0     1  0  0  0  0  0999 V2000
   -3.5200   -4.0268   -1.6943 C   0  0  0  0  0  0  0  0  0  0  0  0
   -2.8702   -4.8827   -1.1054 O   0  0  0  0  0  0  0  0  0  0  0  0
   -4.9704   -4.2579   -1.9614 C   0  0  0  0  0  0  0  0  0  0  0  0
   -5.1456   -4.7573   -2.9278 H   0  0  0  0  0  0  0  0  0  0  0  0
   -5.4379   -4.9112   -1.2072 H   0  0  0  0  0  0  0  0  0  0  0  0
   -5.5954   -3.3510   -1.9864 H   0  0  0  0  0  0  0  0  0  0  0  0
   -3.0424   -2.8131   -2.1606 N   0  0  0  0  0  0  0  0  0  0  0  0
   -1.6755   -2.3891   -2.0077 C   0  0  2  0  0  0  0  0  0  0  0  0
   -1.5782   -1.5673   -0.7292 C   0  0  0  0  0  0  0  0  0  0  0  0
   -2.5448   -1.0064   -0.2171 O   0  0  0  0  0  0  0  0  0  0  0  0
   -1.2087   -1.5823   -3.2094 C   0  0  0  0  0  0  0  0  0  0  0  0
   -3.6915   -2.1888   -2.6360 H   0  0  0  0  0  0  0  0  0  0  0  0
   -1.0721   -3.2977   -1.9053 H   0  0  0  0  0  0  0  0  0  0  0  0
   -1.8017   -0.6681   -3.3281 H   0  0  0  0  0  0  0  0  0  0  0  0
   -0.1601   -1.2849   -3.1045 H   0  0  0  0  0  0  0  0  0  0  0  0
   -1.3074   -2.1646   -4.1319 H   0  0  0  0  0  0  0  0  0  0  0  0
   -0.2835   -1.5112   -0.2725 N   0  0  0  0  0  0  0  0  0  0  0  0
    0.0769   -0.7658    0.9424 C   0  0  0  0  0  0  0  0  0  0  0  0
   -0.3682   -1.5362    2.1592 C   0  0  0  0  0  0  0  0  0  0  0  0
   -1.5389   -1.6062    2.5239 O   0  0  0  0  0  0  0  0  0  0  0  0
    0.4587   -2.0097   -0.7289 H   0  0  0  0  0  0  0  0  0  0  0  0
   -0.4150    0.2113    0.9247 H   0  0  0  0  0  0  0  0  0  0  0  0
    1.1614   -0.6248    0.9689 H   0  0  0  0  0  0  0  0  0  0  0  0
    0.7056   -2.1428    2.8022 N   0  0  0  0  0  0  0  0  0  0  0  0
    0.5706   -2.9391    3.9935 C   0  0  2  0  0  0  0  0  0  0  0  0
    1.1321   -4.3239    3.6995 C   0  0  0  0  0  0  0  0  0  0  0  0
    1.2318   -4.7798    2.5623 O   0  0  0  0  0  0  0  0  0  0  0  0
   -0.8805   -3.0245    4.4404 C   0  0  0  0  0  0  0  0  0  0  0  0
    1.6369   -2.0167    2.4093 H   0  0  0  0  0  0  0  0  0  0  0  0
    1.1764   -2.4555    4.7675 H   0  0  0  0  0  0  0  0  0  0  0  0
   -1.5030   -3.5062    3.6776 H   0  0  0  0  0  0  0  0  0  0  0  0
   -0.9779   -3.6068    5.3627 H   0  0  0  0  0  0  0  0  0  0  0  0
   -1.2916   -2.0257    4.6227 H   0  0  0  0  0  0  0  0  0  0  0  0
    1.4686   -5.0076    4.8595 N   0  0  0  0  0  0  0  0  0  0  0  0
    2.0106   -6.3463    4.8460 C   0  0  0  0  0  0  0  0  0  0  0  0
    1.3704   -4.5451    5.7585 H   0  0  0  0  0  0  0  0  0  0  0  0
    1.1916   -7.0749    4.9378 H   0  0  0  0  0  0  0  0  0  0  0  0
    2.5471   -6.5151    3.9007 H   0  0  0  0  0  0  0  0  0  0  0  0
    2.7062   -6.4686    5.6894 H   0  0  0  0  0  0  0  0  0  0  0  0
  1  3  1  0  0  0  0
  1  7  1  0  0  0  0
  1  2  2  0  0  0  0
 18 19  1  0  0  0  0
 19 24  1  0  0  0  0
 19 20  2  0  0  0  0
 25 26  1  0  0  0  0
 26 34  1  0  0  0  0
 26 27  2  0  0  0  0
  8  9  1  0  0  0  0
  9 17  1  0  0  0  0
  9 10  2  0  0  0  0
 25 28  1  0  0  0  0
  8 11  1  0  0  0  0
 34 35  1  0  0  0  0
 17 18  1  0  0  0  0
 24 25  1  0  0  0  0
  7  8  1  0  0  0  0
  3  4  1  0  0  0  0
  3  5  1  0  0  0  0
  3  6  1  0  0  0  0
 28 31  1  0  0  0  0
 28 32  1  0  0  0  0
 28 33  1  0  0  0  0
 11 14  1  0  0  0  0
 11 15  1  0  0  0  0
 11 16  1  0  0  0  0
 35 37  1  0  0  0  0
 35 38  1  0  0  0  0
 35 39  1  0  0  0  0
 18 22  1  0  0  0  0
 18 23  1  0  0  0  0
 25 30  1  0  0  0  0
  8 13  1  0  0  0  0
 34 36  1  0  0  0  0
 17 21  1  0  0  0  0
  7 12  1  0  0  0  0
 24 29  1  0  0  0  0
M  END
$$$$

  -OEChem-05262214473D

 39 38  0     1  0  0  0  0  0999 V2000
   -3.5200   -4.0268   -1.6943 C   0  0  0  0  0  0  0  0  0  0  0  0
   -2.8702   -4.8827   -1.1054 O   0  0  0  0  0  0  0  0  0  0  0  0
   -4.9704   -4.2579   -1.9614 C   0  0  0  0  0  0  0  0  0  0  0  0
   -5.1456   -4.7573   -2.9278 H   0  0  0  0  0  0  0  0  0  0  0  0
   -5.4379   -4.9112   -1.2072 H   0  0  0  0  0  0  0  0  0  0  0  0
   -5.5954   -3.3510   -1.9864 H   0  0  0  0  0  0  0  0  0  0  0  0
   -3.0424   -2.8131   -2.1606 N   0  0  0  0  0  0  0  0  0  0  0  0
   -1.6755   -2.3891   -2.0077 C   0  0  2  0  0  0  0  0  0  0  0  0
   -1.5782   -1.5673   -0.7292 C   0  0  0  0  0  0  0  0  0  0  0  0
   -2.5448   -1.0064   -0.2171 O   0  0  0  0  0  0  0  0  0  0  0  0
   -1.2087   -1.5823   -3.2094 C   0  0  0  0  0  0  0  0  0  0  0  0
   -3.6915   -2.1888   -2.6360 H   0  0  0  0  0  0  0  0  0  0  0  0
   -1.0721   -3.2977   -1.9053 H   0  0  0  0  0  0  0  0  0  0  0  0
   -1.8017   -0.6681   -3.3281 H   0  0  0  0  0  0  0  0  0  0  0  0
   -0.1601   -1.2849   -3.1045 H   0  0  0  0  0  0  0  0  0  0  0  0
   -1.3074   -2.1646   -4.1319 H   0  0  0  0  0  0  0  0  0  0  0  0
   -0.2835   -1.5112   -0.2725 N   0  0  0  0  0  0  0  0  0  0  0  0
    0.0769   -0.7658    0.9424 C   0  0  0  0  0  0  0  0  0  0  0  0
   -0.3682   -1.5362    2.1592 C   0  0  0  0  0  0  0  0  0  0  0  0
   -1.5394   -1.8323    2.3805 O   0  0  0  0  0  0  0  0  0  0  0  0
    0.4587   -2.0097   -0.7289 H   0  0  0  0  0  0  0  0  0  0  0  0
   -0.4150    0.2113    0.9247 H   0  0  0  0  0  0  0  0  0  0  0  0
    1.1614   -0.6248    0.9689 H   0  0  0  0  0  0  0  0  0  0  0  0
    0.7055   -1.8575    2.9828 N   0  0  0  0  0  0  0  0  0  0  0  0
    0.5697   -2.5884    4.2152 C   0  0  2  0  0  0  0  0  0  0  0  0
    1.4372   -3.8365    4.1198 C   0  0  0  0  0  0  0  0  0  0  0  0
    1.7864   -4.3306    3.0497 O   0  0  0  0  0  0  0  0  0  0  0  0
   -0.8816   -2.9544    4.4844 C   0  0  0  0  0  0  0  0  0  0  0  0
    1.6373   -1.5598    2.6987 H   0  0  0  0  0  0  0  0  0  0  0  0
    0.9495   -1.9390    5.0115 H   0  0  0  0  0  0  0  0  0  0  0  0
   -1.2795   -3.6049    3.6970 H   0  0  0  0  0  0  0  0  0  0  0  0
   -0.9869   -3.4854    5.4362 H   0  0  0  0  0  0  0  0  0  0  0  0
   -1.5090   -2.0574    4.5231 H   0  0  0  0  0  0  0  0  0  0  0  0
    1.7397   -4.3586    5.3696 N   0  0  0  0  0  0  0  0  0  0  0  0
    2.5395   -5.5485    5.5447 C   0  0  0  0  0  0  0  0  0  0  0  0
    1.4240   -3.8727    6.2039 H   0  0  0  0  0  0  0  0  0  0  0  0
    1.8816   -6.4283    5.5996 H   0  0  0  0  0  0  0  0  0  0  0  0
    3.2264   -5.6571    4.6925 H   0  0  0  0  0  0  0  0  0  0  0  0
    3.1200   -5.4662    6.4755 H   0  0  0  0  0  0  0  0  0  0  0  0
  1  3  1  0  0  0  0
  1  7  1  0  0  0  0
  1  2  2  0  0  0  0
 18 19  1  0  0  0  0
 19 24  1  0  0  0  0
 19 20  2  0  0  0  0
 25 26  1  0  0  0  0
 26 34  1  0  0  0  0
 26 27  2  0  0  0  0
  8  9  1  0  0  0  0
  9 17  1  0  0  0  0
  9 10  2  0  0  0  0
 25 28  1  0  0  0  0
  8 11  1  0  0  0  0
 34 35  1  0  0  0  0
 17 18  1  0  0  0  0
 24 25  1  0  0  0  0
  7  8  1  0  0  0  0
  3  4  1  0  0  0  0
  3  5  1  0  0  0  0
  3  6  1  0  0  0  0
 28 31  1  0  0  0  0
 28 32  1  0  0  0  0
 28 33  1  0  0  0  0
 11 14  1  0  0  0  0
 11 15  1  0  0  0  0
 11 16  1  0  0  0  0
 35 37  1  0  0  0  0
 35 38  1  0  0  0  0
 35 39  1  0  0  0  0
 18 22  1  0  0  0  0
 18 23  1  0  0  0  0
 25 30  1  0  0  0  0
  8 13  1  0  0  0  0
 34 36  1  0  0  0  0
 17 21  1  0  0  0  0
  7 12  1  0  0  0  0
 24 29  1  0  0  0  0
M  END
$$$$

  -OEChem-05262214473D

 39 38  0     1  0  0  0  0  0999 V2000
   -3.5200   -4.0268   -1.6943 C   0  0  0  0  0  0  0  0  0  0  0  0
   -2.8702   -4.8827   -1.1054 O   0  0  0  0  0  0  0  0  0  0  0  0
   -4.9704   -4.2579   -1.9614 C   0  0  0  0  0  0  0  0  0  0  0  0
   -5.1456   -4.7573   -2.9278 H   0  0  0  0  0  0  0  0  0  0  0  0
   -5.4379   -4.9112   -1.2072 H   0  0  0  0  0  0  0  0  0  0  0  0
   -5.5954   -3.3510   -1.9864 H   0  0  0  0  0  0  0  0  0  0  0  0
   -3.0424   -2.8131   -2.1606 N   0  0  0  0  0  0  0  0  0  0  0  0
   -1.6755   -2.3891   -2.0077 C   0  0  2  0  0  0  0  0  0  0  0  0
   -1.5782   -1.5673   -0.7292 C   0  0  0  0  0  0  0  0  0  0  0  0
   -2.5448   -1.0064   -0.2171 O   0  0  0  0  0  0  0  0  0  0  0  0
   -1.2087   -1.5823   -3.2094 C   0  0  0  0  0  0  0  0  0  0  0  0
   -3.6915   -2.1888   -2.6360 H   0  0  0  0  0  0  0  0  0  0  0  0
   -1.0721   -3.2977   -1.9053 H   0  0  0  0  0  0  0  0  0  0  0  0
   -1.8017   -0.6681   -3.3281 H   0  0  0  0  0  0  0  0  0  0  0  0
   -0.1601   -1.2849   -3.1045 H   0  0  0  0  0  0  0  0  0  0  0  0
   -1.3074   -2.1646   -4.1319 H   0  0  0  0  0  0  0  0  0  0  0  0
   -0.2835   -1.5112   -0.2725 N   0  0  0  0  0  0  0  0  0  0  0  0
    0.0769   -0.7658    0.9424 C   0  0  0  0  0  0  0  0  0  0  0  0
   -0.3682   -1.5362    2.1592 C   0  0  0  0  0  0  0  0  0  0  0  0
   -1.4737   -2.0618    2.2592 O   0  0  0  0  0  0  0  0  0  0  0  0
    0.4587   -2.0097   -0.7289 H   0  0  0  0  0  0  0  0  0  0  0  0
   -0.4150    0.2113    0.9247 H   0  0  0  0  0  0  0  0  0  0  0  0
    1.1614   -0.6248    0.9689 H   0  0  0  0  0  0  0  0  0  0  0  0
    0.6219   -1.5682    3.1354 N   0  0  0  0  0  0  0  0  0  0  0  0
    0.4663   -2.2329    4.4024 C   0  0  2  0  0  0  0  0  0  0  0  0
    1.5745   -3.2699    4.5288 C   0  0  0  0  0  0  0  0  0  0  0  0
    2.1637   -3.7435    3.5595 O   0  0  0  0  0  0  0  0  0  0  0  0
   -0.9031   -2.8836    4.5214 C   0  0  0  0  0  0  0  0  0  0  0  0
    1.5040   -1.0962    2.9435 H   0  0  0  0  0  0  0  0  0  0  0  0
    0.5900   -1.4690    5.1777 H   0  0  0  0  0  0  0  0  0  0  0  0
   -1.0455   -3.6520    3.7527 H   0  0  0  0  0  0  0  0  0  0  0  0
   -1.0306   -3.3644    5.4969 H   0  0  0  0  0  0  0  0  0  0  0  0
   -1.6993   -2.1411    4.4005 H   0  0  0  0  0  0  0  0  0  0  0  0
    1.7985   -3.6362    5.8486 N   0  0  0  0  0  0  0  0  0  0  0  0
    2.7913   -4.6139    6.2286 C   0  0  0  0  0  0  0  0  0  0  0  0
    1.2765   -3.1781    6.5898 H   0  0  0  0  0  0  0  0  0  0  0  0
    2.3254   -5.6091    6.2807 H   0  0  0  0  0  0  0  0  0  0  0  0
    3.5987   -4.6259    5.4816 H   0  0  0  0  0  0  0  0  0  0  0  0
    3.2063   -4.3515    7.2129 H   0  0  0  0  0  0  0  0  0  0  0  0
  1  3  1  0  0  0  0
  1  7  1  0  0  0  0
  1  2  2  0  0  0  0
 18 19  1  0  0  0  0
 19 24  1  0  0  0  0
 19 20  2  0  0  0  0
 25 26  1  0  0  0  0
 26 34  1  0  0  0  0
 26 27  2  0  0  0  0
  8  9  1  0  0  0  0
  9 17  1  0  0  0  0
  9 10  2  0  0  0  0
 25 28  1  0  0  0  0
  8 11  1  0  0  0  0
 34 35  1  0  0  0  0
 17 18  1  0  0  0  0
 24 25  1  0  0  0  0
  7  8  1  0  0  0  0
  3  4  1  0  0  0  0
  3  5  1  0  0  0  0
  3  6  1  0  0  0  0
 28 31  1  0  0  0  0
 28 32  1  0  0  0  0
 28 33  1  0  0  0  0
 11 14  1  0  0  0  0
 11 15  1  0  0  0  0
 11 16  1  0  0  0  0
 35 37  1  0  0  0  0
 35 38  1  0  0  0  0
 35 39  1  0  0  0  0
 18 22  1  0  0  0  0
 18 23  1  0  0  0  0
 25 30  1  0  0  0  0
  8 13  1  0  0  0  0
 34 36  1  0  0  0  0
 17 21  1  0  0  0  0
  7 12  1  0  0  0  0
 24 29  1  0  0  0  0
M  END
$$$$

  -OEChem-05262214473D

 39 38  0     1  0  0  0  0  0999 V2000
   -3.5200   -4.0268   -1.6943 C   0  0  0  0  0  0  0  0  0  0  0  0
   -2.8702   -4.8827   -1.1054 O   0  0  0  0  0  0  0  0  0  0  0  0
   -4.9704   -4.2579   -1.9614 C   0  0  0  0  0  0  0  0  0  0  0  0
   -5.1456   -4.7573   -2.9278 H   0  0  0  0  0  0  0  0  0  0  0  0
   -5.4379   -4.9112   -1.2072 H   0  0  0  0  0  0  0  0  0  0  0  0
   -5.5954   -3.3510   -1.9864 H   0  0  0  0  0  0  0  0  0  0  0  0
   -3.0424   -2.8131   -2.1606 N   0  0  0  0  0  0  0  0  0  0  0  0
   -1.6755   -2.3891   -2.0077 C   0  0  2  0  0  0  0  0  0  0  0  0
   -1.5782   -1.5673   -0.7292 C   0  0  0  0  0  0  0  0  0  0  0  0
   -2.5448   -1.0064   -0.2171 O   0  0  0  0  0  0  0  0  0  0  0  0
   -1.2087   -1.5823   -3.2094 C   0  0  0  0  0  0  0  0  0  0  0  0
   -3.6915   -2.1888   -2.6360 H   0  0  0  0  0  0  0  0  0  0  0  0
   -1.0721   -3.2977   -1.9053 H   0  0  0  0  0  0  0  0  0  0  0  0
   -1.8017   -0.6681   -3.3281 H   0  0  0  0  0  0  0  0  0  0  0  0
   -0.1601   -1.2849   -3.1045 H   0  0  0  0  0  0  0  0  0  0  0  0
   -1.3074   -2.1646   -4.1319 H   0  0  0  0  0  0  0  0  0  0  0  0
   -0.2835   -1.5112   -0.2725 N   0  0  0  0  0  0  0  0  0  0  0  0
    0.0769   -0.7658    0.9424 C   0  0  0  0  0  0  0  0  0  0  0  0
   -0.3682   -1.5362    2.1592 C   0  0  0  0  0  0  0  0  0  0  0  0
   -1.3463   -2.2789    2.1683 O   0  0  0  0  0  0  0  0  0  0  0  0
    0.4587   -2.0097   -0.7289 H   0  0  0  0  0  0  0  0  0  0  0  0
   -0.4150    0.2113    0.9247 H   0  0  0  0  0  0  0  0  0  0  0  0
    1.1614   -0.6248    0.9689 H   0  0  0  0  0  0  0  0  0  0  0  0
    0.4606   -1.2946    3.2497 N   0  0  0  0  0  0  0  0  0  0  0  0
    0.2673   -1.8969    4.5425 C   0  0  2  0  0  0  0  0  0  0  0  0
    1.5346   -2.6627    4.8987 C   0  0  0  0  0  0  0  0  0  0  0  0
    2.3381   -3.0586    4.0569 O   0  0  0  0  0  0  0  0  0  0  0  0
   -0.9436   -2.8169    4.5488 C   0  0  0  0  0  0  0  0  0  0  0  0
    1.2460   -0.6576    3.1268 H   0  0  0  0  0  0  0  0  0  0  0  0
    0.1227   -1.0773    5.2548 H   0  0  0  0  0  0  0  0  0  0  0  0
   -0.8170   -3.6443    3.8411 H   0  0  0  0  0  0  0  0  0  0  0  0
   -1.1061   -3.2520    5.5404 H   0  0  0  0  0  0  0  0  0  0  0  0
   -1.8493   -2.2710    4.2634 H   0  0  0  0  0  0  0  0  0  0  0  0
    1.6410   -2.8894    6.2638 N   0  0  0  0  0  0  0  0  0  0  0  0
    2.7488   -3.6064    6.8510 C   0  0  0  0  0  0  0  0  0  0  0  0
    0.9378   -2.5084    6.8899 H   0  0  0  0  0  0  0  0  0  0  0  0
    2.4928   -4.6729    6.9348 H   0  0  0  0  0  0  0  0  0  0  0  0
    3.6384   -3.4918    6.2143 H   0  0  0  0  0  0  0  0  0  0  0  0
    2.9591   -3.2003    7.8515 H   0  0  0  0  0  0  0  0  0  0  0  0
  1  3  1  0  0  0  0
  1  7  1  0  0  0  0
  1  2  2  0  0  0  0
 18 19  1  0  0  0  0
 19 24  1  0  0  0  0
 19 20  2  0  0  0  0
 25 26  1  0  0  0  0
 26 34  1  0  0  0  0
 26 27  2  0  0  0  0
  8  9  1  0  0  0  0
  9 17  1  0  0  0  0
  9 10  2  0  0  0  0
 25 28  1  0  0  0  0
  8 11  1  0  0  0  0
 34 35  1  0  0  0  0
 17 18  1  0  0  0  0
 24 25  1  0  0  0  0
  7  8  1  0  0  0  0
  3  4  1  0  0  0  0
  3  5  1  0  0  0  0
  3  6  1  0  0  0  0
 28 31  1  0  0  0  0
 28 32  1  0  0  0  0
 28 33  1  0  0  0  0
 11 14  1  0  0  0  0
 11 15  1  0  0  0  0
 11 16  1  0  0  0  0
 35 37  1  0  0  0  0
 35 38  1  0  0  0  0
 35 39  1  0  0  0  0
 18 22  1  0  0  0  0
 18 23  1  0  0  0  0
 25 30  1  0  0  0  0
  8 13  1  0  0  0  0
 34 36  1  0  0  0  0
 17 21  1  0  0  0  0
  7 12  1  0  0  0  0
 24 29  1  0  0  0  0
M  END
$$$$

  -OEChem-05262214473D

 39 38  0     1  0  0  0  0  0999 V2000
   -3.5200   -4.0268   -1.6943 C   0  0  0  0  0  0  0  0  0  0  0  0
   -2.8702   -4.8827   -1.1054 O   0  0  0  0  0  0  0  0  0  0  0  0
   -4.9704   -4.2579   -1.9614 C   0  0  0  0  0  0  0  0  0  0  0  0
   -5.1456   -4.7573   -2.9278 H   0  0  0  0  0  0  0  0  0  0  0  0
   -5.4379   -4.9112   -1.2072 H   0  0  0  0  0  0  0  0  0  0  0  0
   -5.5954   -3.3510   -1.9864 H   0  0  0  0  0  0  0  0  0  0  0  0
   -3.0424   -2.8131   -2.1606 N   0  0  0  0  0  0  0  0  0  0  0  0
   -1.6755   -2.3891   -2.0077 C   0  0  2  0  0  0  0  0  0  0  0  0
   -1.5782   -1.5673   -0.7292 C   0  0  0  0  0  0  0  0  0  0  0  0
   -2.5448   -1.0064   -0.2171 O   0  0  0  0  0  0  0  0  0  0  0  0
   -1.2087   -1.5823   -3.2094 C   0  0  0  0  0  0  0  0  0  0  0  0
   -3.6915   -2.1888   -2.6360 H   0  0  0  0  0  0  0  0  0  0  0  0
   -1.0721   -3.2977   -1.9053 H   0  0  0  0  0  0  0  0  0  0  0  0
   -1.8017   -0.6681   -3.3281 H   0  0  0  0  0  0  0  0  0  0  0  0
   -0.1601   -1.2849   -3.1045 H   0  0  0  0  0  0  0  0  0  0  0  0
   -1.3074   -2.1646   -4.1319 H   0  0  0  0  0  0  0  0  0  0  0  0
   -0.2835   -1.5112   -0.2725 N   0  0  0  0  0  0  0  0  0  0  0  0
    0.0769   -0.7658    0.9424 C   0  0  0  0  0  0  0  0  0  0  0  0
   -0.3682   -1.5362    2.1592 C   0  0  0  0  0  0  0  0  0  0  0  0
   -1.1658   -2.4690    2.1139 O   0  0  0  0  0  0  0  0  0  0  0  0
    0.4587   -2.0097   -0.7289 H   0  0  0  0  0  0  0  0  0  0  0  0
   -0.4150    0.2113    0.9247 H   0  0  0  0  0  0  0  0  0  0  0  0
    1.1614   -0.6248    0.9689 H   0  0  0  0  0  0  0  0  0  0  0  0
    0.2325   -1.0553    3.3178 N   0  0  0  0  0  0  0  0  0  0  0  0
   -0.0136   -1.6031    4.6257 C   0  0  2  0  0  0  0  0  0  0  0  0
    1.3203   -2.0561    5.2044 C   0  0  0  0  0  0  0  0  0  0  0  0
    2.2977   -2.3226    4.5082 O   0  0  0  0  0  0  0  0  0  0  0  0
   -1.0003   -2.7588    4.5649 C   0  0  0  0  0  0  0  0  0  0  0  0
    0.8809   -0.2739    3.2363 H   0  0  0  0  0  0  0  0  0  0  0  0
   -0.4207   -0.7907    5.2374 H   0  0  0  0  0  0  0  0  0  0  0  0
   -0.6097   -3.5825    3.9562 H   0  0  0  0  0  0  0  0  0  0  0  0
   -1.2082   -3.1559    5.5639 H   0  0  0  0  0  0  0  0  0  0  0  0
   -1.9490   -2.4383    4.1210 H   0  0  0  0  0  0  0  0  0  0  0  0
    1.2779   -2.1693    6.5870 N   0  0  0  0  0  0  0  0  0  0  0  0
    2.4149   -2.5945    7.3697 C   0  0  0  0  0  0  0  0  0  0  0  0
    0.4310   -1.9093    7.0839 H   0  0  0  0  0  0  0  0  0  0  0  0
    2.3725   -3.6837    7.5171 H   0  0  0  0  0  0  0  0  0  0  0  0
    3.3429   -2.3320    6.8406 H   0  0  0  0  0  0  0  0  0  0  0  0
    2.3955   -2.0912    8.3476 H   0  0  0  0  0  0  0  0  0  0  0  0
  1  3  1  0  0  0  0
  1  7  1  0  0  0  0
  1  2  2  0  0  0  0
 18 19  1  0  0  0  0
 19 24  1  0  0  0  0
 19 20  2  0  0  0  0
 25 26  1  0  0  0  0
 26 34  1  0  0  0  0
 26 27  2  0  0  0  0
  8  9  1  0  0  0  0
  9 17  1  0  0  0  0
  9 10  2  0  0  0  0
 25 28  1  0  0  0  0
  8 11  1  0  0  0  0
 34 35  1  0  0  0  0
 17 18  1  0  0  0  0
 24 25  1  0  0  0  0
  7  8  1  0  0  0  0
  3  4  1  0  0  0  0
  3  5  1  0  0  0  0
  3  6  1  0  0  0  0
 28 31  1  0  0  0  0
 28 32  1  0  0  0  0
 28 33  1  0  0  0  0
 11 14  1  0  0  0  0
 11 15  1  0  0  0  0
 11 16  1  0  0  0  0
 35 37  1  0  0  0  0
 35 38  1  0  0  0  0
 35 39  1  0  0  0  0
 18 22  1  0  0  0  0
 18 23  1  0  0  0  0
 25 30  1  0  0  0  0
  8 13  1  0  0  0  0
 34 36  1  0  0  0  0
 17 21  1  0  0  0  0
  7 12  1  0  0  0  0
 24 29  1  0  0  0  0
M  END
$$$$

  -OEChem-05262214473D

 39 38  0     1  0  0  0  0  0999 V2000
   -3.5200   -4.0268   -1.6943 C   0  0  0  0  0  0  0  0  0  0  0  0
   -2.8702   -4.8827   -1.1054 O   0  0  0  0  0  0  0  0  0  0  0  0
   -4.9704   -4.2579   -1.9614 C   0  0  0  0  0  0  0  0  0  0  0  0
   -5.1456   -4.7573   -2.9278 H   0  0  0  0  0  0  0  0  0  0  0  0
   -5.4379   -4.9112   -1.2072 H   0  0  0  0  0  0  0  0  0  0  0  0
   -5.5954   -3.3510   -1.9864 H   0  0  0  0  0  0  0  0  0  0  0  0
   -3.0424   -2.8131   -2.1606 N   0  0  0  0  0  0  0  0  0  0  0  0
   -1.6755   -2.3891   -2.0077 C   0  0  2  0  0  0  0  0  0  0  0  0
   -1.5782   -1.5673   -0.7292 C   0  0  0  0  0  0  0  0  0  0  0  0
   -2.5448   -1.0064   -0.2171 O   0  0  0  0  0  0  0  0  0  0  0  0
   -1.2087   -1.5823   -3.2094 C   0  0  0  0  0  0  0  0  0  0  0  0
   -3.6915   -2.1888   -2.6360 H   0  0  0  0  0  0  0  0  0  0  0  0
   -1.0721   -3.2977   -1.9053 H   0  0  0  0  0  0  0  0  0  0  0  0
   -1.8017   -0.6681   -3.3281 H   0  0  0  0  0  0  0  0  0  0  0  0
   -0.1601   -1.2849   -3.1045 H   0  0  0  0  0  0  0  0  0  0  0  0
   -1.3074   -2.1646   -4.1319 H   0  0  0  0  0  0  0  0  0  0  0  0
   -0.2835   -1.5112   -0.2725 N   0  0  0  0  0  0  0  0  0  0  0  0
    0.0769   -0.7658    0.9424 C   0  0  0  0  0  0  0  0  0  0  0  0
   -0.0244   -1.6736    2.1415 C   0  0  0  0  0  0  0  0  0  0  0  0
   -0.3635   -2.8519    2.0703 O   0  0  0  0  0  0  0  0  0  0  0  0
    0.4587   -2.0097   -0.7289 H   0  0  0  0  0  0  0  0  0  0  0  0
   -0.6065    0.0801    1.0620 H   0  0  0  0  0  0  0  0  0  0  0  0
    1.1007   -0.3932    0.8447 H   0  0  0  0  0  0  0  0  0  0  0  0
    0.3087   -1.0087    3.3168 N   0  0  0  0  0  0  0  0  0  0  0  0
    0.2953   -1.6332    4.6134 C   0  0  2  0  0  0  0  0  0  0  0  0
    1.6897   -1.5041    5.2120 C   0  0  0  0  0  0  0  0  0  0  0  0
    2.6983   -1.3293    4.5314 O   0  0  0  0  0  0  0  0  0  0  0  0
   -0.1234   -3.0923    4.5204 C   0  0  0  0  0  0  0  0  0  0  0  0
    0.5763   -0.0276    3.2567 H   0  0  0  0  0  0  0  0  0  0  0  0
   -0.4194   -1.0736    5.2266 H   0  0  0  0  0  0  0  0  0  0  0  0
    0.5808   -3.6691    3.9097 H   0  0  0  0  0  0  0  0  0  0  0  0
   -0.1607   -3.5582    5.5106 H   0  0  0  0  0  0  0  0  0  0  0  0
   -1.1140   -3.1851    4.0623 H   0  0  0  0  0  0  0  0  0  0  0  0
    1.6807   -1.6502    6.5921 N   0  0  0  0  0  0  0  0  0  0  0  0
    2.8817   -1.5810    7.3913 C   0  0  0  0  0  0  0  0  0  0  0  0
    0.7960   -1.7732    7.0758 H   0  0  0  0  0  0  0  0  0  0  0  0
    3.2924   -2.5927    7.5253 H   0  0  0  0  0  0  0  0  0  0  0  0
    3.6243   -0.9484    6.8830 H   0  0  0  0  0  0  0  0  0  0  0  0
    2.6435   -1.1490    8.3745 H   0  0  0  0  0  0  0  0  0  0  0  0
  1  3  1  0  0  0  0
  1  7  1  0  0  0  0
  1  2  2  0  0  0  0
 18 19  1  0  0  0  0
 19 24  1  0  0  0  0
 19 20  2  0  0  0  0
 25 26  1  0  0  0  0
 26 34  1  0  0  0  0
 26 27  2  0  0  0  0
  8  9  1  0  0  0  0
  9 17  1  0  0  0  0
  9 10  2  0  0  0  0
 25 28  1  0  0  0  0
  8 11  1  0  0  0  0
 34 35  1  0  0  0  0
 17 18  1  0  0  0  0
 24 25  1  0  0  0  0
  7  8  1  0  0  0  0
  3  4  1  0  0  0  0
  3  5  1  0  0  0  0
  3  6  1  0  0  0  0
 28 31  1  0  0  0  0
 28 32  1  0  0  0  0
 28 33  1  0  0  0  0
 11 14  1  0  0  0  0
 11 15  1  0  0  0  0
 11 16  1  0  0  0  0
 35 37  1  0  0  0  0
 35 38  1  0  0  0  0
 35 39  1  0  0  0  0
 18 22  1  0  0  0  0
 18 23  1  0  0  0  0
 25 30  1  0  0  0  0
  8 13  1  0  0  0  0
 34 36  1  0  0  0  0
 17 21  1  0  0  0  0
  7 12  1  0  0  0  0
 24 29  1  0  0  0  0
M  END
$$$$

  -OEChem-05262214473D

 39 38  0     1  0  0  0  0  0999 V2000
   -3.5200   -4.0268   -1.6943 C   0  0  0  0  0  0  0  0  0  0  0  0
   -2.8702   -4.8827   -1.1054 O   0  0  0  0  0  0  0  0  0  0  0  0
   -4.9704   -4.2579   -1.9614 C   0  0  0  0  0  0  0  0  0  0  0  0
   -5.1456   -4.7573   -2.9278 H   0  0  0  0  0  0  0  0  0  0  0  0
   -5.4379   -4.9112   -1.2072 H   0  0  0  0  0  0  0  0  0  0  0  0
   -5.5954   -3.3510   -1.9864 H   0  0  0  0  0  0  0  0  0  0  0  0
   -3.0424   -2.8131   -2.1606 N   0  0  0  0  0  0  0  0  0  0  0  0
   -1.6755   -2.3891   -2.0077 C   0  0  2  0  0  0  0  0  0  0  0  0
   -1.5782   -1.5673   -0.7292 C   0  0  0  0  0  0  0  0  0  0  0  0
   -2.5448   -1.0064   -0.2171 O   0  0  0  0  0  0  0  0  0  0  0  0
   -1.2087   -1.5823   -3.2094 C   0  0  0  0  0  0  0  0  0  0  0  0
   -3.6915   -2.1888   -2.6360 H   0  0  0  0  0  0  0  0  0  0  0  0
   -1.0721   -3.2977   -1.9053 H   0  0  0  0  0  0  0  0  0  0  0  0
   -1.8017   -0.6681   -3.3281 H   0  0  0  0  0  0  0  0  0  0  0  0
   -0.1601   -1.2849   -3.1045 H   0  0  0  0  0  0  0  0  0  0  0  0
   -1.3074   -2.1646   -4.1319 H   0  0  0  0  0  0  0  0  0  0  0  0
   -0.2835   -1.5112   -0.2725 N   0  0  0  0  0  0  0  0  0  0  0  0
    0.0769   -0.7658    0.9424 C   0  0  0  0  0  0  0  0  0  0  0  0
   -0.0244   -1.6736    2.1415 C   0  0  0  0  0  0  0  0  0  0  0  0
   -0.0998   -2.8967    2.0586 O   0  0  0  0  0  0  0  0  0  0  0  0
    0.4587   -2.0097   -0.7289 H   0  0  0  0  0  0  0  0  0  0  0  0
   -0.6065    0.0801    1.0620 H   0  0  0  0  0  0  0  0  0  0  0  0
    1.1007   -0.3932    0.8447 H   0  0  0  0  0  0  0  0  0  0  0  0
   -0.0239   -0.9528    3.3310 N   0  0  0  0  0  0  0  0  0  0  0  0
   -0.1137   -1.5653    4.6303 C   0  0  2  0  0  0  0  0  0  0  0  0
    1.1127   -1.1493    5.4319 C   0  0  0  0  0  0  0  0  0  0  0  0
    2.1587   -0.7700    4.9094 O   0  0  0  0  0  0  0  0  0  0  0  0
   -0.2051   -3.0795    4.5232 C   0  0  0  0  0  0  0  0  0  0  0  0
    0.0434    0.0623    3.2798 H   0  0  0  0  0  0  0  0  0  0  0  0
   -1.0152   -1.1652    5.1069 H   0  0  0  0  0  0  0  0  0  0  0  0
    0.6895   -3.4984    4.0480 H   0  0  0  0  0  0  0  0  0  0  0  0
   -0.3020   -3.5420    5.5110 H   0  0  0  0  0  0  0  0  0  0  0  0
   -1.0709   -3.3760    3.9213 H   0  0  0  0  0  0  0  0  0  0  0  0
    0.9162   -1.2926    6.7983 N   0  0  0  0  0  0  0  0  0  0  0  0
    1.9363   -0.9752    7.7702 C   0  0  0  0  0  0  0  0  0  0  0  0
    0.0104   -1.5958    7.1438 H   0  0  0  0  0  0  0  0  0  0  0  0
    2.5188   -1.8796    7.9999 H   0  0  0  0  0  0  0  0  0  0  0  0
    2.6045   -0.2029    7.3613 H   0  0  0  0  0  0  0  0  0  0  0  0
    1.4627   -0.6009    8.6898 H   0  0  0  0  0  0  0  0  0  0  0  0
  1  3  1  0  0  0  0
  1  7  1  0  0  0  0
  1  2  2  0  0  0  0
 18 19  1  0  0  0  0
 19 24  1  0  0  0  0
 19 20  2  0  0  0  0
 25 26  1  0  0  0  0
 26 34  1  0  0  0  0
 26 27  2  0  0  0  0
  8  9  1  0  0  0  0
  9 17  1  0  0  0  0
  9 10  2  0  0  0  0
 25 28  1  0  0  0  0
  8 11  1  0  0  0  0
 34 35  1  0  0  0  0
 17 18  1  0  0  0  0
 24 25  1  0  0  0  0
  7  8  1  0  0  0  0
  3  4  1  0  0  0  0
  3  5  1  0  0  0  0
  3  6  1  0  0  0  0
 28 31  1  0  0  0  0
 28 32  1  0  0  0  0
 28 33  1  0  0  0  0
 11 14  1  0  0  0  0
 11 15  1  0  0  0  0
 11 16  1  0  0  0  0
 35 37  1  0  0  0  0
 35 38  1  0  0  0  0
 35 39  1  0  0  0  0
 18 22  1  0  0  0  0
 18 23  1  0  0  0  0
 25 30  1  0  0  0  0
  8 13  1  0  0  0  0
 34 36  1  0  0  0  0
 17 21  1  0  0  0  0
  7 12  1  0  0  0  0
 24 29  1  0  0  0  0
M  END
$$$$

  -OEChem-05262214473D

 39 38  0     1  0  0  0  0  0999 V2000
   -3.5200   -4.0268   -1.6943 C   0  0  0  0  0  0  0  0  0  0  0  0
   -2.8702   -4.8827   -1.1054 O   0  0  0  0  0  0  0  0  0  0  0  0
   -4.9704   -4.2579   -1.9614 C   0  0  0  0  0  0  0  0  0  0  0  0
   -5.1456   -4.7573   -2.9278 H   0  0  0  0  0  0  0  0  0  0  0  0
   -5.4379   -4.9112   -1.2072 H   0  0  0  0  0  0  0  0  0  0  0  0
   -5.5954   -3.3510   -1.9864 H   0  0  0  0  0  0  0  0  0  0  0  0
   -3.0424   -2.8131   -2.1606 N   0  0  0  0  0  0  0  0  0  0  0  0
   -1.6755   -2.3891   -2.0077 C   0  0  2  0  0  0  0  0  0  0  0  0
   -1.5782   -1.5673   -0.7292 C   0  0  0  0  0  0  0  0  0  0  0  0
   -2.5448   -1.0064   -0.2171 O   0  0  0  0  0  0  0  0  0  0  0  0
   -1.2087   -1.5823   -3.2094 C   0  0  0  0  0  0  0  0  0  0  0  0
   -3.6915   -2.1888   -2.6360 H   0  0  0  0  0  0  0  0  0  0  0  0
   -1.0721   -3.2977   -1.9053 H   0  0  0  0  0  0  0  0  0  0  0  0
   -1.8017   -0.6681   -3.3281 H   0  0  0  0  0  0  0  0  0  0  0  0
   -0.1601   -1.2849   -3.1045 H   0  0  0  0  0  0  0  0  0  0  0  0
   -1.3074   -2.1646   -4.1319 H   0  0  0  0  0  0  0  0  0  0  0  0
   -0.2835   -1.5112   -0.2725 N   0  0  0  0  0  0  0  0  0  0  0  0
    0.0769   -0.7658    0.9424 C   0  0  0  0  0  0  0  0  0  0  0  0
   -0.0244   -1.6736    2.1415 C   0  0  0  0  0  0  0  0  0  0  0  0
    0.1660   -2.8858    2.0893 O   0  0  0  0  0  0  0  0  0  0  0  0
    0.4587   -2.0097   -0.7289 H   0  0  0  0  0  0  0  0  0  0  0  0
   -0.6065    0.0801    1.0620 H   0  0  0  0  0  0  0  0  0  0  0  0
    1.1007   -0.3932    0.8447 H   0  0  0  0  0  0  0  0  0  0  0  0
   -0.3589   -0.9671    3.2919 N   0  0  0  0  0  0  0  0  0  0  0  0
   -0.5253   -1.5835    4.5817 C   0  0  2  0  0  0  0  0  0  0  0  0
    0.4480   -0.9216    5.5483 C   0  0  0  0  0  0  0  0  0  0  0  0
    1.4633   -0.3343    5.1806 O   0  0  0  0  0  0  0  0  0  0  0  0
   -0.2870   -3.0839    4.5129 C   0  0  0  0  0  0  0  0  0  0  0  0
   -0.4934    0.0399    3.2175 H   0  0  0  0  0  0  0  0  0  0  0  0
   -1.5532   -1.3785    4.9000 H   0  0  0  0  0  0  0  0  0  0  0  0
    0.7378   -3.3089    4.1957 H   0  0  0  0  0  0  0  0  0  0  0  0
   -0.4419   -3.5554    5.4890 H   0  0  0  0  0  0  0  0  0  0  0  0
   -0.9679   -3.5541    3.7952 H   0  0  0  0  0  0  0  0  0  0  0  0
    0.0719   -1.1010    6.8721 N   0  0  0  0  0  0  0  0  0  0  0  0
    0.8393   -0.5780    7.9783 C   0  0  0  0  0  0  0  0  0  0  0  0
   -0.7956   -1.5850    7.0840 H   0  0  0  0  0  0  0  0  0  0  0  0
    1.5508   -1.3418    8.3253 H   0  0  0  0  0  0  0  0  0  0  0  0
    1.3913    0.3155    7.6515 H   0  0  0  0  0  0  0  0  0  0  0  0
    0.1602   -0.3090    8.8008 H   0  0  0  0  0  0  0  0  0  0  0  0
  1  3  1  0  0  0  0
  1  7  1  0  0  0  0
  1  2  2  0  0  0  0
 18 19  1  0  0  0  0
 19 24  1  0  0  0  0
 19 20  2  0  0  0  0
 25 26  1  0  0  0  0
 26 34  1  0  0  0  0
 26 27  2  0  0  0  0
  8  9  1  0  0  0  0
  9 17  1  0  0  0  0
  9 10  2  0  0  0  0
 25 28  1  0  0  0  0
  8 11  1  0  0  0  0
 34 35  1  0  0  0  0
 17 18  1  0  0  0  0
 24 25  1  0  0  0  0
  7  8  1  0  0  0  0
  3  4  1  0  0  0  0
  3  5  1  0  0  0  0
  3  6  1  0  0  0  0
 28 31  1  0  0  0  0
 28 32  1  0  0  0  0
 28 33  1  0  0  0  0
 11 14  1  0  0  0  0
 11 15  1  0  0  0  0
 11 16  1  0  0  0  0
 35 37  1  0  0  0  0
 35 38  1  0  0  0  0
 35 39  1  0  0  0  0
 18 22  1  0  0  0  0
 18 23  1  0  0  0  0
 25 30  1  0  0  0  0
  8 13  1  0  0  0  0
 34 36  1  0  0  0  0
 17 21  1  0  0  0  0
  7 12  1  0  0  0  0
 24 29  1  0  0  0  0
M  END
$$$$

  -OEChem-05262214473D

 39 38  0     1  0  0  0  0  0999 V2000
   -3.5200   -4.0268   -1.6943 C   0  0  0  0  0  0  0  0  0  0  0  0
   -2.8702   -4.8827   -1.1054 O   0  0  0  0  0  0  0  0  0  0  0  0
   -4.9704   -4.2579   -1.9614 C   0  0  0  0  0  0  0  0  0  0  0  0
   -5.1456   -4.7573   -2.9278 H   0  0  0  0  0  0  0  0  0  0  0  0
   -5.4379   -4.9112   -1.2072 H   0  0  0  0  0  0  0  0  0  0  0  0
   -5.5954   -3.3510   -1.9864 H   0  0  0  0  0  0  0  0  0  0  0  0
   -3.0424   -2.8131   -2.1606 N   0  0  0  0  0  0  0  0  0  0  0  0
   -1.6755   -2.3891   -2.0077 C   0  0  2  0  0  0  0  0  0  0  0  0
   -1.5782   -1.5673   -0.7292 C   0  0  0  0  0  0  0  0  0  0  0  0
   -2.5448   -1.0064   -0.2171 O   0  0  0  0  0  0  0  0  0  0  0  0
   -1.2087   -1.5823   -3.2094 C   0  0  0  0  0  0  0  0  0  0  0  0
   -3.6915   -2.1888   -2.6360 H   0  0  0  0  0  0  0  0  0  0  0  0
   -1.0721   -3.2977   -1.9053 H   0  0  0  0  0  0  0  0  0  0  0  0
   -1.8017   -0.6681   -3.3281 H   0  0  0  0  0  0  0  0  0  0  0  0
   -0.1601   -1.2849   -3.1045 H   0  0  0  0  0  0  0  0  0  0  0  0
   -1.3074   -2.1646   -4.1319 H   0  0  0  0  0  0  0  0  0  0  0  0
   -0.2835   -1.5112   -0.2725 N   0  0  0  0  0  0  0  0  0  0  0  0
    0.0769   -0.7658    0.9424 C   0  0  0  0  0  0  0  0  0  0  0  0
   -0.0244   -1.6736    2.1415 C   0  0  0  0  0  0  0  0  0  0  0  0
    0.4156   -2.8201    2.1601 O   0  0  0  0  0  0  0  0  0  0  0  0
    0.4587   -2.0097   -0.7289 H   0  0  0  0  0  0  0  0  0  0  0  0
   -0.6065    0.0801    1.0620 H   0  0  0  0  0  0  0  0  0  0  0  0
    1.1007   -0.3932    0.8447 H   0  0  0  0  0  0  0  0  0  0  0  0
   -0.6735   -1.0506    3.2021 N   0  0  0  0  0  0  0  0  0  0  0  0
   -0.9116   -1.6867    4.4710 C   0  0  2  0  0  0  0  0  0  0  0  0
   -0.2591   -0.8364    5.5531 C   0  0  0  0  0  0  0  0  0  0  0  0
    0.6597   -0.0518    5.3266 O   0  0  0  0  0  0  0  0  0  0  0  0
   -0.3637   -3.1052    4.4903 C   0  0  0  0  0  0  0  0  0  0  0  0
   -0.9976   -0.0934    3.0740 H   0  0  0  0  0  0  0  0  0  0  0  0
   -1.9968   -1.6988    4.6200 H   0  0  0  0  0  0  0  0  0  0  0  0
    0.7224   -3.1132    4.3425 H   0  0  0  0  0  0  0  0  0  0  0  0
   -0.5708   -3.5976    5.4462 H   0  0  0  0  0  0  0  0  0  0  0  0
   -0.8121   -3.7071    3.6925 H   0  0  0  0  0  0  0  0  0  0  0  0
   -0.7945   -1.0885    6.8085 N   0  0  0  0  0  0  0  0  0  0  0  0
   -0.3345   -0.4166    8.0014 C   0  0  0  0  0  0  0  0  0  0  0  0
   -1.5670   -1.7416    6.9003 H   0  0  0  0  0  0  0  0  0  0  0  0
    0.4543   -1.0161    8.4794 H   0  0  0  0  0  0  0  0  0  0  0  0
    0.0676    0.5716    7.7336 H   0  0  0  0  0  0  0  0  0  0  0  0
   -1.1753   -0.2934    8.6999 H   0  0  0  0  0  0  0  0  0  0  0  0
  1  3  1  0  0  0  0
  1  7  1  0  0  0  0
  1  2  2  0  0  0  0
 18 19  1  0  0  0  0
 19 24  1  0  0  0  0
 19 20  2  0  0  0  0
 25 26  1  0  0  0  0
 26 34  1  0  0  0  0
 26 27  2  0  0  0  0
  8  9  1  0  0  0  0
  9 17  1  0  0  0  0
  9 10  2  0  0  0  0
 25 28  1  0  0  0  0
  8 11  1  0  0  0  0
 34 35  1  0  0  0  0
 17 18  1  0  0  0  0
 24 25  1  0  0  0  0
  7  8  1  0  0  0  0
  3  4  1  0  0  0  0
  3  5  1  0  0  0  0
  3  6  1  0  0  0  0
 28 31  1  0  0  0  0
 28 32  1  0  0  0  0
 28 33  1  0  0  0  0
 11 14  1  0  0  0  0
 11 15  1  0  0  0  0
 11 16  1  0  0  0  0
 35 37  1  0  0  0  0
 35 38  1  0  0  0  0
 35 39  1  0  0  0  0
 18 22  1  0  0  0  0
 18 23  1  0  0  0  0
 25 30  1  0  0  0  0
  8 13  1  0  0  0  0
 34 36  1  0  0  0  0
 17 21  1  0  0  0  0
  7 12  1  0  0  0  0
 24 29  1  0  0  0  0
M  END
$$$$

  -OEChem-05262214473D

 39 38  0     1  0  0  0  0  0999 V2000
   -3.5200   -4.0268   -1.6943 C   0  0  0  0  0  0  0  0  0  0  0  0
   -2.8702   -4.8827   -1.1054 O   0  0  0  0  0  0  0  0  0  0  0  0
   -4.9704   -4.2579   -1.9614 C   0  0  0  0  0  0  0  0  0  0  0  0
   -5.1456   -4.7573   -2.9278 H   0  0  0  0  0  0  0  0  0  0  0  0
   -5.4379   -4.9112   -1.2072 H   0  0  0  0  0  0  0  0  0  0  0  0
   -5.5954   -3.3510   -1.9864 H   0  0  0  0  0  0  0  0  0  0  0  0
   -3.0424   -2.8131   -2.1606 N   0  0  0  0  0  0  0  0  0  0  0  0
   -1.6755   -2.3891   -2.0077 C   0  0  2  0  0  0  0  0  0  0  0  0
   -1.5782   -1.5673   -0.7292 C   0  0  0  0  0  0  0  0  0  0  0  0
   -2.5448   -1.0064   -0.2171 O   0  0  0  0  0  0  0  0  0  0  0  0
   -1.2087   -1.5823   -3.2094 C   0  0  0  0  0  0  0  0  0  0  0  0
   -3.6915   -2.1888   -2.6360 H   0  0  0  0  0  0  0  0  0  0  0  0
   -1.0721   -3.2977   -1.9053 H   0  0  0  0  0  0  0  0  0  0  0  0
   -1.8017   -0.6681   -3.3281 H   0  0  0  0  0  0  0  0  0  0  0  0
   -0.1601   -1.2849   -3.1045 H   0  0  0  0  0  0  0  0  0  0  0  0
   -1.3074   -2.1646   -4.1319 H   0  0  0  0  0  0  0  0  0  0  0  0
   -0.2835   -1.5112   -0.2725 N   0  0  0  0  0  0  0  0  0  0  0  0
    0.0769   -0.7658    0.9424 C   0  0  0  0  0  0  0  0  0  0  0  0
   -0.0244   -1.6736    2.1415 C   0  0  0  0  0  0  0  0  0  0  0  0
    0.6322   -2.7040    2.2663 O   0  0  0  0  0  0  0  0  0  0  0  0
    0.4587   -2.0097   -0.7289 H   0  0  0  0  0  0  0  0  0  0  0  0
   -0.6065    0.0801    1.0620 H   0  0  0  0  0  0  0  0  0  0  0  0
    1.1007   -0.3932    0.8447 H   0  0  0  0  0  0  0  0  0  0  0  0
   -0.9461   -1.1976    3.0678 N   0  0  0  0  0  0  0  0  0  0  0  0
   -1.2462   -1.8678    4.3056 C   0  0  2  0  0  0  0  0  0  0  0  0
   -0.9604   -0.8996    5.4460 C   0  0  0  0  0  0  0  0  0  0  0  0
   -0.1975    0.0581    5.3375 O   0  0  0  0  0  0  0  0  0  0  0  0
   -0.4299   -3.1420    4.4569 C   0  0  0  0  0  0  0  0  0  0  0  0
   -1.4348   -0.3284    2.8591 H   0  0  0  0  0  0  0  0  0  0  0  0
   -2.3156   -2.1045    4.2860 H   0  0  0  0  0  0  0  0  0  0  0  0
    0.6443   -2.9249    4.4785 H   0  0  0  0  0  0  0  0  0  0  0  0
   -0.6800   -3.6655    5.3855 H   0  0  0  0  0  0  0  0  0  0  0  0
   -0.6142   -3.8246    3.6203 H   0  0  0  0  0  0  0  0  0  0  0  0
   -1.6240   -1.2559    6.6117 N   0  0  0  0  0  0  0  0  0  0  0  0
   -1.5052   -0.5020    7.8379 C   0  0  0  0  0  0  0  0  0  0  0  0
   -2.2513   -2.0548    6.6054 H   0  0  0  0  0  0  0  0  0  0  0  0
   -0.6959   -0.9244    8.4517 H   0  0  0  0  0  0  0  0  0  0  0  0
   -1.2765    0.5478    7.6021 H   0  0  0  0  0  0  0  0  0  0  0  0
   -2.4528   -0.5550    8.3940 H   0  0  0  0  0  0  0  0  0  0  0  0
  1  3  1  0  0  0  0
  1  7  1  0  0  0  0
  1  2  2  0  0  0  0
 18 19  1  0  0  0  0
 19 24  1  0  0  0  0
 19 20  2  0  0  0  0
 25 26  1  0  0  0  0
 26 34  1  0  0  0  0
 26 27  2  0  0  0  0
  8  9  1  0  0  0  0
  9 17  1  0  0  0  0
  9 10  2  0  0  0  0
 25 28  1  0  0  0  0
  8 11  1  0  0  0  0
 34 35  1  0  0  0  0
 17 18  1  0  0  0  0
 24 25  1  0  0  0  0
  7  8  1  0  0  0  0
  3  4  1  0  0  0  0
  3  5  1  0  0  0  0
  3  6  1  0  0  0  0
 28 31  1  0  0  0  0
 28 32  1  0  0  0  0
 28 33  1  0  0  0  0
 11 14  1  0  0  0  0
 11 15  1  0  0  0  0
 11 16  1  0  0  0  0
 35 37  1  0  0  0  0
 35 38  1  0  0  0  0
 35 39  1  0  0  0  0
 18 22  1  0  0  0  0
 18 23  1  0  0  0  0
 25 30  1  0  0  0  0
  8 13  1  0  0  0  0
 34 36  1  0  0  0  0
 17 21  1  0  0  0  0
  7 12  1  0  0  0  0
 24 29  1  0  0  0  0
M  END
$$$$

  -OEChem-05262214473D

 39 38  0     1  0  0  0  0  0999 V2000
   -3.5200   -4.0268   -1.6943 C   0  0  0  0  0  0  0  0  0  0  0  0
   -2.8702   -4.8827   -1.1054 O   0  0  0  0  0  0  0  0  0  0  0  0
   -4.9704   -4.2579   -1.9614 C   0  0  0  0  0  0  0  0  0  0  0  0
   -5.1456   -4.7573   -2.9278 H   0  0  0  0  0  0  0  0  0  0  0  0
   -5.4379   -4.9112   -1.2072 H   0  0  0  0  0  0  0  0  0  0  0  0
   -5.5954   -3.3510   -1.9864 H   0  0  0  0  0  0  0  0  0  0  0  0
   -3.0424   -2.8131   -2.1606 N   0  0  0  0  0  0  0  0  0  0  0  0
   -1.6755   -2.3891   -2.0077 C   0  0  2  0  0  0  0  0  0  0  0  0
   -1.5782   -1.5673   -0.7292 C   0  0  0  0  0  0  0  0  0  0  0  0
   -2.5448   -1.0064   -0.2171 O   0  0  0  0  0  0  0  0  0  0  0  0
   -1.2087   -1.5823   -3.2094 C   0  0  0  0  0  0  0  0  0  0  0  0
   -3.6915   -2.1888   -2.6360 H   0  0  0  0  0  0  0  0  0  0  0  0
   -1.0721   -3.2977   -1.9053 H   0  0  0  0  0  0  0  0  0  0  0  0
   -1.8017   -0.6681   -3.3281 H   0  0  0  0  0  0  0  0  0  0  0  0
   -0.1601   -1.2849   -3.1045 H   0  0  0  0  0  0  0  0  0  0  0  0
   -1.3074   -2.1646   -4.1319 H   0  0  0  0  0  0  0  0  0  0  0  0
   -0.2835   -1.5112   -0.2725 N   0  0  0  0  0  0  0  0  0  0  0  0
    0.0769   -0.7658    0.9424 C   0  0  0  0  0  0  0  0  0  0  0  0
   -0.0244   -1.6736    2.1415 C   0  0  0  0  0  0  0  0  0  0  0  0
    0.8010   -2.5454    2.4006 O   0  0  0  0  0  0  0  0  0  0  0  0
    0.4587   -2.0097   -0.7289 H   0  0  0  0  0  0  0  0  0  0  0  0
   -0.6065    0.0801    1.0620 H   0  0  0  0  0  0  0  0  0  0  0  0
    1.1007   -0.3932    0.8447 H   0  0  0  0  0  0  0  0  0  0  0  0
   -1.1583   -1.3980    2.8982 N   0  0  0  0  0  0  0  0  0  0  0  0
   -1.5063   -2.1145    4.0968 C   0  0  2  0  0  0  0  0  0  0  0  0
   -1.6080   -1.1070    5.2343 C   0  0  0  0  0  0  0  0  0  0  0  0
   -1.0498   -0.0120    5.2125 O   0  0  0  0  0  0  0  0  0  0  0  0
   -0.4810   -3.1917    4.4149 C   0  0  0  0  0  0  0  0  0  0  0  0
   -1.7752   -0.6492    2.5875 H   0  0  0  0  0  0  0  0  0  0  0  0
   -2.4879   -2.5677    3.9207 H   0  0  0  0  0  0  0  0  0  0  0  0
    0.5090   -2.7567    4.5945 H   0  0  0  0  0  0  0  0  0  0  0  0
   -0.7620   -3.7547    5.3110 H   0  0  0  0  0  0  0  0  0  0  0  0
   -0.3875   -3.8985    3.5834 H   0  0  0  0  0  0  0  0  0  0  0  0
   -2.3601   -1.5918    6.2952 N   0  0  0  0  0  0  0  0  0  0  0  0
   -2.5929   -0.8284    7.4990 C   0  0  0  0  0  0  0  0  0  0  0  0
   -2.8017   -2.5033    6.2193 H   0  0  0  0  0  0  0  0  0  0  0  0
   -1.8215   -1.0732    8.2440 H   0  0  0  0  0  0  0  0  0  0  0  0
   -2.5495    0.2458    7.2660 H   0  0  0  0  0  0  0  0  0  0  0  0
   -3.5852   -1.0759    7.9039 H   0  0  0  0  0  0  0  0  0  0  0  0
  1  3  1  0  0  0  0
  1  7  1  0  0  0  0
  1  2  2  0  0  0  0
 18 19  1  0  0  0  0
 19 24  1  0  0  0  0
 19 20  2  0  0  0  0
 25 26  1  0  0  0  0
 26 34  1  0  0  0  0
 26 27  2  0  0  0  0
  8  9  1  0  0  0  0
  9 17  1  0  0  0  0
  9 10  2  0  0  0  0
 25 28  1  0  0  0  0
  8 11  1  0  0  0  0
 34 35  1  0  0  0  0
 17 18  1  0  0  0  0
 24 25  1  0  0  0  0
  7  8  1  0  0  0  0
  3  4  1  0  0  0  0
  3  5  1  0  0  0  0
  3  6  1  0  0  0  0
 28 31  1  0  0  0  0
 28 32  1  0  0  0  0
 28 33  1  0  0  0  0
 11 14  1  0  0  0  0
 11 15  1  0  0  0  0
 11 16  1  0  0  0  0
 35 37  1  0  0  0  0
 35 38  1  0  0  0  0
 35 39  1  0  0  0  0
 18 22  1  0  0  0  0
 18 23  1  0  0  0  0
 25 30  1  0  0  0  0
  8 13  1  0  0  0  0
 34 36  1  0  0  0  0
 17 21  1  0  0  0  0
  7 12  1  0  0  0  0
 24 29  1  0  0  0  0
M  END
$$$$

  -OEChem-05262214473D

 39 38  0     1  0  0  0  0  0999 V2000
   -3.5200   -4.0268   -1.6943 C   0  0  0  0  0  0  0  0  0  0  0  0
   -2.8702   -4.8827   -1.1054 O   0  0  0  0  0  0  0  0  0  0  0  0
   -4.9704   -4.2579   -1.9614 C   0  0  0  0  0  0  0  0  0  0  0  0
   -5.1456   -4.7573   -2.9278 H   0  0  0  0  0  0  0  0  0  0  0  0
   -5.4379   -4.9112   -1.2072 H   0  0  0  0  0  0  0  0  0  0  0  0
   -5.5954   -3.3510   -1.9864 H   0  0  0  0  0  0  0  0  0  0  0  0
   -3.0424   -2.8131   -2.1606 N   0  0  0  0  0  0  0  0  0  0  0  0
   -1.6755   -2.3891   -2.0077 C   0  0  2  0  0  0  0  0  0  0  0  0
   -1.5782   -1.5673   -0.7292 C   0  0  0  0  0  0  0  0  0  0  0  0
   -2.5448   -1.0064   -0.2171 O   0  0  0  0  0  0  0  0  0  0  0  0
   -1.2087   -1.5823   -3.2094 C   0  0  0  0  0  0  0  0  0  0  0  0
   -3.6915   -2.1888   -2.6360 H   0  0  0  0  0  0  0  0  0  0  0  0
   -1.0721   -3.2977   -1.9053 H   0  0  0  0  0  0  0  0  0  0  0  0
   -1.8017   -0.6681   -3.3281 H   0  0  0  0  0  0  0  0  0  0  0  0
   -0.1601   -1.2849   -3.1045 H   0  0  0  0  0  0  0  0  0  0  0  0
   -1.3074   -2.1646   -4.1319 H   0  0  0  0  0  0  0  0  0  0  0  0
   -0.2835   -1.5112   -0.2725 N   0  0  0  0  0  0  0  0  0  0  0  0
    0.0769   -0.7658    0.9424 C   0  0  0  0  0  0  0  0  0  0  0  0
   -0.0244   -1.6736    2.1415 C   0  0  0  0  0  0  0  0  0  0  0  0
    0.9104   -2.3552    2.5539 O   0  0  0  0  0  0  0  0  0  0  0  0
    0.4587   -2.0097   -0.7289 H   0  0  0  0  0  0  0  0  0  0  0  0
   -0.6065    0.0801    1.0620 H   0  0  0  0  0  0  0  0  0  0  0  0
    1.1007   -0.3932    0.8447 H   0  0  0  0  0  0  0  0  0  0  0  0
   -1.2956   -1.6382    2.7047 N   0  0  0  0  0  0  0  0  0  0  0  0
   -1.6742   -2.4100    3.8589 C   0  0  2  0  0  0  0  0  0  0  0  0
   -2.1579   -1.4442    4.9325 C   0  0  0  0  0  0  0  0  0  0  0  0
   -1.8391   -0.2574    4.9601 O   0  0  0  0  0  0  0  0  0  0  0  0
   -0.5135   -3.2510    4.3673 C   0  0  0  0  0  0  0  0  0  0  0  0
   -1.9957   -1.0339    2.2777 H   0  0  0  0  0  0  0  0  0  0  0  0
   -2.5021   -3.0570    3.5490 H   0  0  0  0  0  0  0  0  0  0  0  0
    0.3255   -2.6200    4.6824 H   0  0  0  0  0  0  0  0  0  0  0  0
   -0.8112   -3.8591    5.2279 H   0  0  0  0  0  0  0  0  0  0  0  0
   -0.1476   -3.9240    3.5844 H   0  0  0  0  0  0  0  0  0  0  0  0
   -2.9527   -2.0732    5.8806 N   0  0  0  0  0  0  0  0  0  0  0  0
   -3.5235   -1.3734    7.0078 C   0  0  0  0  0  0  0  0  0  0  0  0
   -3.1809   -3.0566    5.7683 H   0  0  0  0  0  0  0  0  0  0  0  0
   -2.8457   -1.4523    7.8705 H   0  0  0  0  0  0  0  0  0  0  0  0
   -3.6645   -0.3138    6.7481 H   0  0  0  0  0  0  0  0  0  0  0  0
   -4.4954   -1.8208    7.2631 H   0  0  0  0  0  0  0  0  0  0  0  0
  1  3  1  0  0  0  0
  1  7  1  0  0  0  0
  1  2  2  0  0  0  0
 18 19  1  0  0  0  0
 19 24  1  0  0  0  0
 19 20  2  0  0  0  0
 25 26  1  0  0  0  0
 26 34  1  0  0  0  0
 26 27  2  0  0  0  0
  8  9  1  0  0  0  0
  9 17  1  0  0  0  0
  9 10  2  0  0  0  0
 25 28  1  0  0  0  0
  8 11  1  0  0  0  0
 34 35  1  0  0  0  0
 17 18  1  0  0  0  0
 24 25  1  0  0  0  0
  7  8  1  0  0  0  0
  3  4  1  0  0  0  0
  3  5  1  0  0  0  0
  3  6  1  0  0  0  0
 28 31  1  0  0  0  0
 28 32  1  0  0  0  0
 28 33  1  0  0  0  0
 11 14  1  0  0  0  0
 11 15  1  0  0  0  0
 11 16  1  0  0  0  0
 35 37  1  0  0  0  0
 35 38  1  0  0  0  0
 35 39  1  0  0  0  0
 18 22  1  0  0  0  0
 18 23  1  0  0  0  0
 25 30  1  0  0  0  0
  8 13  1  0  0  0  0
 34 36  1  0  0  0  0
 17 21  1  0  0  0  0
  7 12  1  0  0  0  0
 24 29  1  0  0  0  0
M  END
$$$$

  -OEChem-05262214473D

 39 38  0     1  0  0  0  0  0999 V2000
   -3.5200   -4.0268   -1.6943 C   0  0  0  0  0  0  0  0  0  0  0  0
   -2.8702   -4.8827   -1.1054 O   0  0  0  0  0  0  0  0  0  0  0  0
   -4.9704   -4.2579   -1.9614 C   0  0  0  0  0  0  0  0  0  0  0  0
   -5.1456   -4.7573   -2.9278 H   0  0  0  0  0  0  0  0  0  0  0  0
   -5.4379   -4.9112   -1.2072 H   0  0  0  0  0  0  0  0  0  0  0  0
   -5.5954   -3.3510   -1.9864 H   0  0  0  0  0  0  0  0  0  0  0  0
   -3.0424   -2.8131   -2.1606 N   0  0  0  0  0  0  0  0  0  0  0  0
   -1.6755   -2.3891   -2.0077 C   0  0  2  0  0  0  0  0  0  0  0  0
   -1.5782   -1.5673   -0.7292 C   0  0  0  0  0  0  0  0  0  0  0  0
   -2.5448   -1.0064   -0.2171 O   0  0  0  0  0  0  0  0  0  0  0  0
   -1.2087   -1.5823   -3.2094 C   0  0  0  0  0  0  0  0  0  0  0  0
   -3.6915   -2.1888   -2.6360 H   0  0  0  0  0  0  0  0  0  0  0  0
   -1.0721   -3.2977   -1.9053 H   0  0  0  0  0  0  0  0  0  0  0  0
   -1.8017   -0.6681   -3.3281 H   0  0  0  0  0  0  0  0  0  0  0  0
   -0.1601   -1.2849   -3.1045 H   0  0  0  0  0  0  0  0  0  0  0  0
   -1.3074   -2.1646   -4.1319 H   0  0  0  0  0  0  0  0  0  0  0  0
   -0.2835   -1.5112   -0.2725 N   0  0  0  0  0  0  0  0  0  0  0  0
    0.0769   -0.7658    0.9424 C   0  0  0  0  0  0  0  0  0  0  0  0
   -0.0244   -1.6736    2.1415 C   0  0  0  0  0  0  0  0  0  0  0  0
    0.9530   -2.1462    2.7158 O   0  0  0  0  0  0  0  0  0  0  0  0
    0.4587   -2.0097   -0.7289 H   0  0  0  0  0  0  0  0  0  0  0  0
   -0.6065    0.0801    1.0620 H   0  0  0  0  0  0  0  0  0  0  0  0
    1.1007   -0.3932    0.8447 H   0  0  0  0  0  0  0  0  0  0  0  0
   -1.3485   -1.9018    2.5006 N   0  0  0  0  0  0  0  0  0  0  0  0
   -1.7385   -2.7342    3.6081 C   0  0  2  0  0  0  0  0  0  0  0  0
   -2.5726   -1.8885    4.5612 C   0  0  0  0  0  0  0  0  0  0  0  0
   -2.5117   -0.6612    4.5975 O   0  0  0  0  0  0  0  0  0  0  0  0
   -0.5254   -3.3157    4.3172 C   0  0  0  0  0  0  0  0  0  0  0  0
   -2.0811   -1.4562    1.9507 H   0  0  0  0  0  0  0  0  0  0  0  0
   -2.3571   -3.5390    3.1963 H   0  0  0  0  0  0  0  0  0  0  0  0
    0.1065   -2.5243    4.7364 H   0  0  0  0  0  0  0  0  0  0  0  0
   -0.8243   -3.9714    5.1417 H   0  0  0  0  0  0  0  0  0  0  0  0
    0.0892   -3.8991    3.6232 H   0  0  0  0  0  0  0  0  0  0  0  0
   -3.3613   -2.6675    5.3962 N   0  0  0  0  0  0  0  0  0  0  0  0
   -4.2336   -2.1000    6.3977 C   0  0  0  0  0  0  0  0  0  0  0  0
   -3.3630   -3.6770    5.2833 H   0  0  0  0  0  0  0  0  0  0  0  0
   -3.6987   -2.0358    7.3567 H   0  0  0  0  0  0  0  0  0  0  0  0
   -4.5456   -1.0929    6.0838 H   0  0  0  0  0  0  0  0  0  0  0  0
   -5.1213   -2.7389    6.5151 H   0  0  0  0  0  0  0  0  0  0  0  0
  1  3  1  0  0  0  0
  1  7  1  0  0  0  0
  1  2  2  0  0  0  0
 18 19  1  0  0  0  0
 19 24  1  0  0  0  0
 19 20  2  0  0  0  0
 25 26  1  0  0  0  0
 26 34  1  0  0  0  0
 26 27  2  0  0  0  0
  8  9  1  0  0  0  0
  9 17  1  0  0  0  0
  9 10  2  0  0  0  0
 25 28  1  0  0  0  0
  8 11  1  0  0  0  0
 34 35  1  0  0  0  0
 17 18  1  0  0  0  0
 24 25  1  0  0  0  0
  7  8  1  0  0  0  0
  3  4  1  0  0  0  0
  3  5  1  0  0  0  0
  3  6  1  0  0  0  0
 28 31  1  0  0  0  0
 28 32  1  0  0  0  0
 28 33  1  0  0  0  0
 11 14  1  0  0  0  0
 11 15  1  0  0  0  0
 11 16  1  0  0  0  0
 35 37  1  0  0  0  0
 35 38  1  0  0  0  0
 35 39  1  0  0  0  0
 18 22  1  0  0  0  0
 18 23  1  0  0  0  0
 25 30  1  0  0  0  0
  8 13  1  0  0  0  0
 34 36  1  0  0  0  0
 17 21  1  0  0  0  0
  7 12  1  0  0  0  0
 24 29  1  0  0  0  0
M  END
$$$$

  -OEChem-05262214473D

 39 38  0     1  0  0  0  0  0999 V2000
   -3.5200   -4.0268   -1.6943 C   0  0  0  0  0  0  0  0  0  0  0  0
   -2.8702   -4.8827   -1.1054 O   0  0  0  0  0  0  0  0  0  0  0  0
   -4.9704   -4.2579   -1.9614 C   0  0  0  0  0  0  0  0  0  0  0  0
   -5.1456   -4.7573   -2.9278 H   0  0  0  0  0  0  0  0  0  0  0  0
   -5.4379   -4.9112   -1.2072 H   0  0  0  0  0  0  0  0  0  0  0  0
   -5.5954   -3.3510   -1.9864 H   0  0  0  0  0  0  0  0  0  0  0  0
   -3.0424   -2.8131   -2.1606 N   0  0  0  0  0  0  0  0  0  0  0  0
   -1.6755   -2.3891   -2.0077 C   0  0  2  0  0  0  0  0  0  0  0  0
   -1.5782   -1.5673   -0.7292 C   0  0  0  0  0  0  0  0  0  0  0  0
   -2.5448   -1.0064   -0.2171 O   0  0  0  0  0  0  0  0  0  0  0  0
   -1.2087   -1.5823   -3.2094 C   0  0  0  0  0  0  0  0  0  0  0  0
   -3.6915   -2.1888   -2.6360 H   0  0  0  0  0  0  0  0  0  0  0  0
   -1.0721   -3.2977   -1.9053 H   0  0  0  0  0  0  0  0  0  0  0  0
   -1.8017   -0.6681   -3.3281 H   0  0  0  0  0  0  0  0  0  0  0  0
   -0.1601   -1.2849   -3.1045 H   0  0  0  0  0  0  0  0  0  0  0  0
   -1.3074   -2.1646   -4.1319 H   0  0  0  0  0  0  0  0  0  0  0  0
   -0.2835   -1.5112   -0.2725 N   0  0  0  0  0  0  0  0  0  0  0  0
    0.0769   -0.7658    0.9424 C   0  0  0  0  0  0  0  0  0  0  0  0
   -0.0244   -1.6736    2.1415 C   0  0  0  0  0  0  0  0  0  0  0  0
    0.9260   -1.9327    2.8751 O   0  0  0  0  0  0  0  0  0  0  0  0
    0.4587   -2.0097   -0.7289 H   0  0  0  0  0  0  0  0  0  0  0  0
   -0.6065    0.0801    1.0620 H   0  0  0  0  0  0  0  0  0  0  0  0
    1.1007   -0.3932    0.8447 H   0  0  0  0  0  0  0  0  0  0  0  0
   -1.3136   -2.1709    2.2998 N   0  0  0  0  0  0  0  0  0  0  0  0
   -1.6947   -3.0649    3.3614 C   0  0  2  0  0  0  0  0  0  0  0  0
   -2.8239   -2.4094    4.1456 C   0  0  0  0  0  0  0  0  0  0  0  0
   -3.0216   -1.1961    4.1494 O   0  0  0  0  0  0  0  0  0  0  0  0
   -0.5157   -3.3816    4.2682 C   0  0  0  0  0  0  0  0  0  0  0  0
   -2.0257   -1.8874    1.6289 H   0  0  0  0  0  0  0  0  0  0  0  0
   -2.0629   -3.9809    2.8866 H   0  0  0  0  0  0  0  0  0  0  0  0
   -0.1332   -2.4759    4.7528 H   0  0  0  0  0  0  0  0  0  0  0  0
   -0.8004   -4.0842    5.0584 H   0  0  0  0  0  0  0  0  0  0  0  0
    0.3068   -3.8257    3.6972 H   0  0  0  0  0  0  0  0  0  0  0  0
   -3.5581   -3.3341    4.8749 N   0  0  0  0  0  0  0  0  0  0  0  0
   -4.6748   -2.9586    5.7103 C   0  0  0  0  0  0  0  0  0  0  0  0
   -3.3355   -4.3221    4.7971 H   0  0  0  0  0  0  0  0  0  0  0  0
   -4.3225   -2.7839    6.7376 H   0  0  0  0  0  0  0  0  0  0  0  0
   -5.1327   -2.0384    5.3184 H   0  0  0  0  0  0  0  0  0  0  0  0
   -5.4203   -3.7675    5.7111 H   0  0  0  0  0  0  0  0  0  0  0  0
  1  3  1  0  0  0  0
  1  7  1  0  0  0  0
  1  2  2  0  0  0  0
 18 19  1  0  0  0  0
 19 24  1  0  0  0  0
 19 20  2  0  0  0  0
 25 26  1  0  0  0  0
 26 34  1  0  0  0  0
 26 27  2  0  0  0  0
  8  9  1  0  0  0  0
  9 17  1  0  0  0  0
  9 10  2  0  0  0  0
 25 28  1  0  0  0  0
  8 11  1  0  0  0  0
 34 35  1  0  0  0  0
 17 18  1  0  0  0  0
 24 25  1  0  0  0  0
  7  8  1  0  0  0  0
  3  4  1  0  0  0  0
  3  5  1  0  0  0  0
  3  6  1  0  0  0  0
 28 31  1  0  0  0  0
 28 32  1  0  0  0  0
 28 33  1  0  0  0  0
 11 14  1  0  0  0  0
 11 15  1  0  0  0  0
 11 16  1  0  0  0  0
 35 37  1  0  0  0  0
 35 38  1  0  0  0  0
 35 39  1  0  0  0  0
 18 22  1  0  0  0  0
 18 23  1  0  0  0  0
 25 30  1  0  0  0  0
  8 13  1  0  0  0  0
 34 36  1  0  0  0  0
 17 21  1  0  0  0  0
  7 12  1  0  0  0  0
 24 29  1  0  0  0  0
M  END
$$$$

  -OEChem-05262214473D

 39 38  0     1  0  0  0  0  0999 V2000
   -3.5200   -4.0268   -1.6943 C   0  0  0  0  0  0  0  0  0  0  0  0
   -2.8702   -4.8827   -1.1054 O   0  0  0  0  0  0  0  0  0  0  0  0
   -4.9704   -4.2579   -1.9614 C   0  0  0  0  0  0  0  0  0  0  0  0
   -5.1456   -4.7573   -2.9278 H   0  0  0  0  0  0  0  0  0  0  0  0
   -5.4379   -4.9112   -1.2072 H   0  0  0  0  0  0  0  0  0  0  0  0
   -5.5954   -3.3510   -1.9864 H   0  0  0  0  0  0  0  0  0  0  0  0
   -3.0424   -2.8131   -2.1606 N   0  0  0  0  0  0  0  0  0  0  0  0
   -1.6755   -2.3891   -2.0077 C   0  0  2  0  0  0  0  0  0  0  0  0
   -1.5782   -1.5673   -0.7292 C   0  0  0  0  0  0  0  0  0  0  0  0
   -2.5448   -1.0064   -0.2171 O   0  0  0  0  0  0  0  0  0  0  0  0
   -1.2087   -1.5823   -3.2094 C   0  0  0  0  0  0  0  0  0  0  0  0
   -3.6915   -2.1888   -2.6360 H   0  0  0  0  0  0  0  0  0  0  0  0
   -1.0721   -3.2977   -1.9053 H   0  0  0  0  0  0  0  0  0  0  0  0
   -1.8017   -0.6681   -3.3281 H   0  0  0  0  0  0  0  0  0  0  0  0
   -0.1601   -1.2849   -3.1045 H   0  0  0  0  0  0  0  0  0  0  0  0
   -1.3074   -2.1646   -4.1319 H   0  0  0  0  0  0  0  0  0  0  0  0
   -0.2835   -1.5112   -0.2725 N   0  0  0  0  0  0  0  0  0  0  0  0
    0.0769   -0.7658    0.9424 C   0  0  0  0  0  0  0  0  0  0  0  0
   -0.0244   -1.6736    2.1415 C   0  0  0  0  0  0  0  0  0  0  0  0
    0.8310   -1.7294    3.0210 O   0  0  0  0  0  0  0  0  0  0  0  0
    0.4587   -2.0097   -0.7289 H   0  0  0  0  0  0  0  0  0  0  0  0
   -0.6065    0.0801    1.0620 H   0  0  0  0  0  0  0  0  0  0  0  0
    1.1007   -0.3932    0.8447 H   0  0  0  0  0  0  0  0  0  0  0  0
   -1.1931   -2.4271    2.1160 N   0  0  0  0  0  0  0  0  0  0  0  0
   -1.5460   -3.3796    3.1357 C   0  0  2  0  0  0  0  0  0  0  0  0
   -2.8945   -2.9715    3.7140 C   0  0  0  0  0  0  0  0  0  0  0  0
   -3.3343   -1.8256    3.6464 O   0  0  0  0  0  0  0  0  0  0  0  0
   -0.4851   -3.4441    4.2234 C   0  0  0  0  0  0  0  0  0  0  0  0
   -1.8333   -2.2981    1.3342 H   0  0  0  0  0  0  0  0  0  0  0  0
   -1.6394   -4.3525    2.6410 H   0  0  0  0  0  0  0  0  0  0  0  0
   -0.3773   -2.4783    4.7304 H   0  0  0  0  0  0  0  0  0  0  0  0
   -0.7411   -4.1896    4.9835 H   0  0  0  0  0  0  0  0  0  0  0  0
    0.4904   -3.7087    3.8013 H   0  0  0  0  0  0  0  0  0  0  0  0
   -3.5297   -4.0276    4.3522 N   0  0  0  0  0  0  0  0  0  0  0  0
   -4.8171   -3.8908    4.9925 C   0  0  0  0  0  0  0  0  0  0  0  0
   -3.1004   -4.9481    4.3430 H   0  0  0  0  0  0  0  0  0  0  0  0
   -4.6744   -3.6458    6.0553 H   0  0  0  0  0  0  0  0  0  0  0  0
   -5.3858   -3.0859    4.5039 H   0  0  0  0  0  0  0  0  0  0  0  0
   -5.3720   -4.8366    4.9057 H   0  0  0  0  0  0  0  0  0  0  0  0
  1  3  1  0  0  0  0
  1  7  1  0  0  0  0
  1  2  2  0  0  0  0
 18 19  1  0  0  0  0
 19 24  1  0  0  0  0
 19 20  2  0  0  0  0
 25 26  1  0  0  0  0
 26 34  1  0  0  0  0
 26 27  2  0  0  0  0
  8  9  1  0  0  0  0
  9 17  1  0  0  0  0
  9 10  2  0  0  0  0
 25 28  1  0  0  0  0
  8 11  1  0  0  0  0
 34 35  1  0  0  0  0
 17 18  1  0  0  0  0
 24 25  1  0  0  0  0
  7  8  1  0  0  0  0
  3  4  1  0  0  0  0
  3  5  1  0  0  0  0
  3  6  1  0  0  0  0
 28 31  1  0  0  0  0
 28 32  1  0  0  0  0
 28 33  1  0  0  0  0
 11 14  1  0  0  0  0
 11 15  1  0  0  0  0
 11 16  1  0  0  0  0
 35 37  1  0  0  0  0
 35 38  1  0  0  0  0
 35 39  1  0  0  0  0
 18 22  1  0  0  0  0
 18 23  1  0  0  0  0
 25 30  1  0  0  0  0
  8 13  1  0  0  0  0
 34 36  1  0  0  0  0
 17 21  1  0  0  0  0
  7 12  1  0  0  0  0
 24 29  1  0  0  0  0
M  END
$$$$

  -OEChem-05262214473D

 39 38  0     1  0  0  0  0  0999 V2000
   -3.5200   -4.0268   -1.6943 C   0  0  0  0  0  0  0  0  0  0  0  0
   -2.8702   -4.8827   -1.1054 O   0  0  0  0  0  0  0  0  0  0  0  0
   -4.9704   -4.2579   -1.9614 C   0  0  0  0  0  0  0  0  0  0  0  0
   -5.1456   -4.7573   -2.9278 H   0  0  0  0  0  0  0  0  0  0  0  0
   -5.4379   -4.9112   -1.2072 H   0  0  0  0  0  0  0  0  0  0  0  0
   -5.5954   -3.3510   -1.9864 H   0  0  0  0  0  0  0  0  0  0  0  0
   -3.0424   -2.8131   -2.1606 N   0  0  0  0  0  0  0  0  0  0  0  0
   -1.6755   -2.3891   -2.0077 C   0  0  2  0  0  0  0  0  0  0  0  0
   -1.5782   -1.5673   -0.7292 C   0  0  0  0  0  0  0  0  0  0  0  0
   -2.5448   -1.0064   -0.2171 O   0  0  0  0  0  0  0  0  0  0  0  0
   -1.2087   -1.5823   -3.2094 C   0  0  0  0  0  0  0  0  0  0  0  0
   -3.6915   -2.1888   -2.6360 H   0  0  0  0  0  0  0  0  0  0  0  0
   -1.0721   -3.2977   -1.9053 H   0  0  0  0  0  0  0  0  0  0  0  0
   -1.8017   -0.6681   -3.3281 H   0  0  0  0  0  0  0  0  0  0  0  0
   -0.1601   -1.2849   -3.1045 H   0  0  0  0  0  0  0  0  0  0  0  0
   -1.3074   -2.1646   -4.1319 H   0  0  0  0  0  0  0  0  0  0  0  0
   -0.2835   -1.5112   -0.2725 N   0  0  0  0  0  0  0  0  0  0  0  0
    0.0769   -0.7658    0.9424 C   0  0  0  0  0  0  0  0  0  0  0  0
   -0.0244   -1.6736    2.1415 C   0  0  0  0  0  0  0  0  0  0  0  0
    0.6747   -1.5500    3.1437 O   0  0  0  0  0  0  0  0  0  0  0  0
    0.4587   -2.0097   -0.7289 H   0  0  0  0  0  0  0  0  0  0  0  0
   -0.6065    0.0801    1.0620 H   0  0  0  0  0  0  0  0  0  0  0  0
    1.1007   -0.3932    0.8447 H   0  0  0  0  0  0  0  0  0  0  0  0
   -0.9953   -2.6530    1.9616 N   0  0  0  0  0  0  0  0  0  0  0  0
   -1.3023   -3.6568    2.9463 C   0  0  2  0  0  0  0  0  0  0  0  0
   -2.7797   -3.5365    3.2959 C   0  0  0  0  0  0  0  0  0  0  0  0
   -3.4282   -2.5067    3.1228 O   0  0  0  0  0  0  0  0  0  0  0  0
   -0.4358   -3.4990    4.1861 C   0  0  0  0  0  0  0  0  0  0  0  0
   -1.5169   -2.6603    1.0867 H   0  0  0  0  0  0  0  0  0  0  0  0
   -1.1156   -4.6285    2.4762 H   0  0  0  0  0  0  0  0  0  0  0  0
   -0.6090   -2.5312    4.6707 H   0  0  0  0  0  0  0  0  0  0  0  0
   -0.6505   -4.2805    4.9224 H   0  0  0  0  0  0  0  0  0  0  0  0
    0.6273   -3.5561    3.9284 H   0  0  0  0  0  0  0  0  0  0  0  0
   -3.2781   -4.7006    3.8638 N   0  0  0  0  0  0  0  0  0  0  0  0
   -4.6507   -4.8330    4.2932 C   0  0  0  0  0  0  0  0  0  0  0  0
   -2.6736   -5.5122    3.9519 H   0  0  0  0  0  0  0  0  0  0  0  0
   -4.7306   -4.5626    5.3564 H   0  0  0  0  0  0  0  0  0  0  0  0
   -5.2877   -4.1639    3.6960 H   0  0  0  0  0  0  0  0  0  0  0  0
   -4.9797   -5.8734    4.1538 H   0  0  0  0  0  0  0  0  0  0  0  0
  1  3  1  0  0  0  0
  1  7  1  0  0  0  0
  1  2  2  0  0  0  0
 18 19  1  0  0  0  0
 19 24  1  0  0  0  0
 19 20  2  0  0  0  0
 25 26  1  0  0  0  0
 26 34  1  0  0  0  0
 26 27  2  0  0  0  0
  8  9  1  0  0  0  0
  9 17  1  0  0  0  0
  9 10  2  0  0  0  0
 25 28  1  0  0  0  0
  8 11  1  0  0  0  0
 34 35  1  0  0  0  0
 17 18  1  0  0  0  0
 24 25  1  0  0  0  0
  7  8  1  0  0  0  0
  3  4  1  0  0  0  0
  3  5  1  0  0  0  0
  3  6  1  0  0  0  0
 28 31  1  0  0  0  0
 28 32  1  0  0  0  0
 28 33  1  0  0  0  0
 11 14  1  0  0  0  0
 11 15  1  0  0  0  0
 11 16  1  0  0  0  0
 35 37  1  0  0  0  0
 35 38  1  0  0  0  0
 35 39  1  0  0  0  0
 18 22  1  0  0  0  0
 18 23  1  0  0  0  0
 25 30  1  0  0  0  0
  8 13  1  0  0  0  0
 34 36  1  0  0  0  0
 17 21  1  0  0  0  0
  7 12  1  0  0  0  0
 24 29  1  0  0  0  0
M  END
$$$$

  -OEChem-05262214473D

 39 38  0     1  0  0  0  0  0999 V2000
   -3.5200   -4.0268   -1.6943 C   0  0  0  0  0  0  0  0  0  0  0  0
   -2.8702   -4.8827   -1.1054 O   0  0  0  0  0  0  0  0  0  0  0  0
   -4.9704   -4.2579   -1.9614 C   0  0  0  0  0  0  0  0  0  0  0  0
   -5.1456   -4.7573   -2.9278 H   0  0  0  0  0  0  0  0  0  0  0  0
   -5.4379   -4.9112   -1.2072 H   0  0  0  0  0  0  0  0  0  0  0  0
   -5.5954   -3.3510   -1.9864 H   0  0  0  0  0  0  0  0  0  0  0  0
   -3.0424   -2.8131   -2.1606 N   0  0  0  0  0  0  0  0  0  0  0  0
   -1.6755   -2.3891   -2.0077 C   0  0  2  0  0  0  0  0  0  0  0  0
   -1.5782   -1.5673   -0.7292 C   0  0  0  0  0  0  0  0  0  0  0  0
   -2.5448   -1.0064   -0.2171 O   0  0  0  0  0  0  0  0  0  0  0  0
   -1.2087   -1.5823   -3.2094 C   0  0  0  0  0  0  0  0  0  0  0  0
   -3.6915   -2.1888   -2.6360 H   0  0  0  0  0  0  0  0  0  0  0  0
   -1.0721   -3.2977   -1.9053 H   0  0  0  0  0  0  0  0  0  0  0  0
   -1.8017   -0.6681   -3.3281 H   0  0  0  0  0  0  0  0  0  0  0  0
   -0.1601   -1.2849   -3.1045 H   0  0  0  0  0  0  0  0  0  0  0  0
   -1.3074   -2.1646   -4.1319 H   0  0  0  0  0  0  0  0  0  0  0  0
   -0.2835   -1.5112   -0.2725 N   0  0  0  0  0  0  0  0  0  0  0  0
    0.0769   -0.7658    0.9424 C   0  0  0  0  0  0  0  0  0  0  0  0
   -0.0244   -1.6736    2.1415 C   0  0  0  0  0  0  0  0  0  0  0  0
    0.4676   -1.4067    3.2347 O   0  0  0  0  0  0  0  0  0  0  0  0
    0.4587   -2.0097   -0.7289 H   0  0  0  0  0  0  0  0  0  0  0  0
   -0.6065    0.0801    1.0620 H   0  0  0  0  0  0  0  0  0  0  0  0
    1.1007   -0.3932    0.8447 H   0  0  0  0  0  0  0  0  0  0  0  0
   -0.7338   -2.8332    1.8473 N   0  0  0  0  0  0  0  0  0  0  0  0
   -0.9803   -3.8778    2.8062 C   0  0  2  0  0  0  0  0  0  0  0  0
   -2.4873   -4.0659    2.9197 C   0  0  0  0  0  0  0  0  0  0  0  0
   -3.2972   -3.1931    2.6142 O   0  0  0  0  0  0  0  0  0  0  0  0
   -0.3710   -3.5425    4.1586 C   0  0  0  0  0  0  0  0  0  0  0  0
   -1.0982   -2.9493    0.9032 H   0  0  0  0  0  0  0  0  0  0  0  0
   -0.5270   -4.7902    2.4035 H   0  0  0  0  0  0  0  0  0  0  0  0
   -0.8127   -2.6311    4.5779 H   0  0  0  0  0  0  0  0  0  0  0  0
   -0.5347   -4.3508    4.8790 H   0  0  0  0  0  0  0  0  0  0  0  0
    0.7084   -3.3782    4.0699 H   0  0  0  0  0  0  0  0  0  0  0  0
   -2.8203   -5.3074    3.4430 N   0  0  0  0  0  0  0  0  0  0  0  0
   -4.1870   -5.7209    3.6600 C   0  0  0  0  0  0  0  0  0  0  0  0
   -2.0843   -5.9760    3.6505 H   0  0  0  0  0  0  0  0  0  0  0  0
   -4.4872   -5.4719    4.6885 H   0  0  0  0  0  0  0  0  0  0  0  0
   -4.8450   -5.1991    2.9496 H   0  0  0  0  0  0  0  0  0  0  0  0
   -4.2701   -6.8071    3.5068 H   0  0  0  0  0  0  0  0  0  0  0  0
  1  3  1  0  0  0  0
  1  7  1  0  0  0  0
  1  2  2  0  0  0  0
 18 19  1  0  0  0  0
 19 24  1  0  0  0  0
 19 20  2  0  0  0  0
 25 26  1  0  0  0  0
 26 34  1  0  0  0  0
 26 27  2  0  0  0  0
  8  9  1  0  0  0  0
  9 17  1  0  0  0  0
  9 10  2  0  0  0  0
 25 28  1  0  0  0  0
  8 11  1  0  0  0  0
 34 35  1  0  0  0  0
 17 18  1  0  0  0  0
 24 25  1  0  0  0  0
  7  8  1  0  0  0  0
  3  4  1  0  0  0  0
  3  5  1  0  0  0  0
  3  6  1  0  0  0  0
 28 31  1  0  0  0  0
 28 32  1  0  0  0  0
 28 33  1  0  0  0  0
 11 14  1  0  0  0  0
 11 15  1  0  0  0  0
 11 16  1  0  0  0  0
 35 37  1  0  0  0  0
 35 38  1  0  0  0  0
 35 39  1  0  0  0  0
 18 22  1  0  0  0  0
 18 23  1  0  0  0  0
 25 30  1  0  0  0  0
  8 13  1  0  0  0  0
 34 36  1  0  0  0  0
 17 21  1  0  0  0  0
  7 12  1  0  0  0  0
 24 29  1  0  0  0  0
M  END
$$$$

  -OEChem-05262214473D

 39 38  0     1  0  0  0  0  0999 V2000
   -3.5200   -4.0268   -1.6943 C   0  0  0  0  0  0  0  0  0  0  0  0
   -2.8702   -4.8827   -1.1054 O   0  0  0  0  0  0  0  0  0  0  0  0
   -4.9704   -4.2579   -1.9614 C   0  0  0  0  0  0  0  0  0  0  0  0
   -5.1456   -4.7573   -2.9278 H   0  0  0  0  0  0  0  0  0  0  0  0
   -5.4379   -4.9112   -1.2072 H   0  0  0  0  0  0  0  0  0  0  0  0
   -5.5954   -3.3510   -1.9864 H   0  0  0  0  0  0  0  0  0  0  0  0
   -3.0424   -2.8131   -2.1606 N   0  0  0  0  0  0  0  0  0  0  0  0
   -1.6755   -2.3891   -2.0077 C   0  0  2  0  0  0  0  0  0  0  0  0
   -1.5782   -1.5673   -0.7292 C   0  0  0  0  0  0  0  0  0  0  0  0
   -2.5448   -1.0064   -0.2171 O   0  0  0  0  0  0  0  0  0  0  0  0
   -1.2087   -1.5823   -3.2094 C   0  0  0  0  0  0  0  0  0  0  0  0
   -3.6915   -2.1888   -2.6360 H   0  0  0  0  0  0  0  0  0  0  0  0
   -1.0721   -3.2977   -1.9053 H   0  0  0  0  0  0  0  0  0  0  0  0
   -1.8017   -0.6681   -3.3281 H   0  0  0  0  0  0  0  0  0  0  0  0
   -0.1601   -1.2849   -3.1045 H   0  0  0  0  0  0  0  0  0  0  0  0
   -1.3074   -2.1646   -4.1319 H   0  0  0  0  0  0  0  0  0  0  0  0
   -0.2835   -1.5112   -0.2725 N   0  0  0  0  0  0  0  0  0  0  0  0
    0.0769   -0.7658    0.9424 C   0  0  0  0  0  0  0  0  0  0  0  0
   -0.0244   -1.6736    2.1415 C   0  0  0  0  0  0  0  0  0  0  0  0
    0.2240   -1.3094    3.2878 O   0  0  0  0  0  0  0  0  0  0  0  0
    0.4587   -2.0097   -0.7289 H   0  0  0  0  0  0  0  0  0  0  0  0
   -0.6065    0.0801    1.0620 H   0  0  0  0  0  0  0  0  0  0  0  0
    1.1007   -0.3932    0.8447 H   0  0  0  0  0  0  0  0  0  0  0  0
   -0.4262   -2.9554    1.7808 N   0  0  0  0  0  0  0  0  0  0  0  0
   -0.6019   -4.0273    2.7249 C   0  0  2  0  0  0  0  0  0  0  0  0
   -2.0373   -4.5236    2.6112 C   0  0  0  0  0  0  0  0  0  0  0  0
   -2.9500   -3.8379    2.1553 O   0  0  0  0  0  0  0  0  0  0  0  0
   -0.2951   -3.5716    4.1430 C   0  0  0  0  0  0  0  0  0  0  0  0
   -0.6056   -3.1455    0.7962 H   0  0  0  0  0  0  0  0  0  0  0  0
    0.0860   -4.8264    2.4278 H   0  0  0  0  0  0  0  0  0  0  0  0
   -0.9743   -2.7711    4.4583 H   0  0  0  0  0  0  0  0  0  0  0  0
   -0.4016   -4.3955    4.8563 H   0  0  0  0  0  0  0  0  0  0  0  0
    0.7280   -3.1873    4.2161 H   0  0  0  0  0  0  0  0  0  0  0  0
   -2.1876   -5.8066    3.1185 N   0  0  0  0  0  0  0  0  0  0  0  0
   -3.4576   -6.4942    3.1361 C   0  0  0  0  0  0  0  0  0  0  0  0
   -1.3725   -6.3079    3.4593 H   0  0  0  0  0  0  0  0  0  0  0  0
   -3.9607   -6.3116    4.0971 H   0  0  0  0  0  0  0  0  0  0  0  0
   -4.0880   -6.1208    2.3156 H   0  0  0  0  0  0  0  0  0  0  0  0
   -3.2916   -7.5741    3.0086 H   0  0  0  0  0  0  0  0  0  0  0  0
  1  3  1  0  0  0  0
  1  7  1  0  0  0  0
  1  2  2  0  0  0  0
 18 19  1  0  0  0  0
 19 24  1  0  0  0  0
 19 20  2  0  0  0  0
 25 26  1  0  0  0  0
 26 34  1  0  0  0  0
 26 27  2  0  0  0  0
  8  9  1  0  0  0  0
  9 17  1  0  0  0  0
  9 10  2  0  0  0  0
 25 28  1  0  0  0  0
  8 11  1  0  0  0  0
 34 35  1  0  0  0  0
 17 18  1  0  0  0  0
 24 25  1  0  0  0  0
  7  8  1  0  0  0  0
  3  4  1  0  0  0  0
  3  5  1  0  0  0  0
  3  6  1  0  0  0  0
 28 31  1  0  0  0  0
 28 32  1  0  0  0  0
 28 33  1  0  0  0  0
 11 14  1  0  0  0  0
 11 15  1  0  0  0  0
 11 16  1  0  0  0  0
 35 37  1  0  0  0  0
 35 38  1  0  0  0  0
 35 39  1  0  0  0  0
 18 22  1  0  0  0  0
 18 23  1  0  0  0  0
 25 30  1  0  0  0  0
  8 13  1  0  0  0  0
 34 36  1  0  0  0  0
 17 21  1  0  0  0  0
  7 12  1  0  0  0  0
 24 29  1  0  0  0  0
M  END
$$$$

  -OEChem-05262214473D

 39 38  0     1  0  0  0  0  0999 V2000
   -3.5200   -4.0268   -1.6943 C   0  0  0  0  0  0  0  0  0  0  0  0
   -2.8702   -4.8827   -1.1054 O   0  0  0  0  0  0  0  0  0  0  0  0
   -4.9704   -4.2579   -1.9614 C   0  0  0  0  0  0  0  0  0  0  0  0
   -5.1456   -4.7573   -2.9278 H   0  0  0  0  0  0  0  0  0  0  0  0
   -5.4379   -4.9112   -1.2072 H   0  0  0  0  0  0  0  0  0  0  0  0
   -5.5954   -3.3510   -1.9864 H   0  0  0  0  0  0  0  0  0  0  0  0
   -3.0424   -2.8131   -2.1606 N   0  0  0  0  0  0  0  0  0  0  0  0
   -1.6755   -2.3891   -2.0077 C   0  0  2  0  0  0  0  0  0  0  0  0
   -1.5782   -1.5673   -0.7292 C   0  0  0  0  0  0  0  0  0  0  0  0
   -2.5448   -1.0064   -0.2171 O   0  0  0  0  0  0  0  0  0  0  0  0
   -1.2087   -1.5823   -3.2094 C   0  0  0  0  0  0  0  0  0  0  0  0
   -3.6915   -2.1888   -2.6360 H   0  0  0  0  0  0  0  0  0  0  0  0
   -1.0721   -3.2977   -1.9053 H   0  0  0  0  0  0  0  0  0  0  0  0
   -1.8017   -0.6681   -3.3281 H   0  0  0  0  0  0  0  0  0  0  0  0
   -0.1601   -1.2849   -3.1045 H   0  0  0  0  0  0  0  0  0  0  0  0
   -1.3074   -2.1646   -4.1319 H   0  0  0  0  0  0  0  0  0  0  0  0
   -0.2835   -1.5112   -0.2725 N   0  0  0  0  0  0  0  0  0  0  0  0
    0.0769   -0.7658    0.9424 C   0  0  0  0  0  0  0  0  0  0  0  0
   -0.0244   -1.6736    2.1415 C   0  0  0  0  0  0  0  0  0  0  0  0
   -0.0397   -1.2646    3.2994 O   0  0  0  0  0  0  0  0  0  0  0  0
    0.4587   -2.0097   -0.7289 H   0  0  0  0  0  0  0  0  0  0  0  0
   -0.6065    0.0801    1.0620 H   0  0  0  0  0  0  0  0  0  0  0  0
    1.1007   -0.3932    0.8447 H   0  0  0  0  0  0  0  0  0  0  0  0
   -0.0935   -3.0112    1.7666 N   0  0  0  0  0  0  0  0  0  0  0  0
   -0.1930   -4.0953    2.7080 C   0  0  2  0  0  0  0  0  0  0  0  0
   -1.4602   -4.8784    2.3912 C   0  0  0  0  0  0  0  0  0  0  0  0
   -2.4103   -4.3972    1.7773 O   0  0  0  0  0  0  0  0  0  0  0  0
   -0.2134   -3.5844    4.1402 C   0  0  0  0  0  0  0  0  0  0  0  0
   -0.0727   -3.2354    0.7731 H   0  0  0  0  0  0  0  0  0  0  0  0
    0.6819   -4.7348    2.5475 H   0  0  0  0  0  0  0  0  0  0  0  0
   -1.0830   -2.9418    4.3199 H   0  0  0  0  0  0  0  0  0  0  0  0
   -0.2603   -4.4117    4.8560 H   0  0  0  0  0  0  0  0  0  0  0  0
    0.6849   -2.9963    4.3570 H   0  0  0  0  0  0  0  0  0  0  0  0
   -1.4231   -6.1642    2.9123 N   0  0  0  0  0  0  0  0  0  0  0  0
   -2.5122   -7.1001    2.7572 C   0  0  0  0  0  0  0  0  0  0  0  0
   -0.5869   -6.4853    3.3913 H   0  0  0  0  0  0  0  0  0  0  0  0
   -3.1871   -7.0247    3.6225 H   0  0  0  0  0  0  0  0  0  0  0  0
   -3.0682   -6.8662    1.8373 H   0  0  0  0  0  0  0  0  0  0  0  0
   -2.1109   -8.1222    2.6933 H   0  0  0  0  0  0  0  0  0  0  0  0
  1  3  1  0  0  0  0
  1  7  1  0  0  0  0
  1  2  2  0  0  0  0
 18 19  1  0  0  0  0
 19 24  1  0  0  0  0
 19 20  2  0  0  0  0
 25 26  1  0  0  0  0
 26 34  1  0  0  0  0
 26 27  2  0  0  0  0
  8  9  1  0  0  0  0
  9 17  1  0  0  0  0
  9 10  2  0  0  0  0
 25 28  1  0  0  0  0
  8 11  1  0  0  0  0
 34 35  1  0  0  0  0
 17 18  1  0  0  0  0
 24 25  1  0  0  0  0
  7  8  1  0  0  0  0
  3  4  1  0  0  0  0
  3  5  1  0  0  0  0
  3  6  1  0  0  0  0
 28 31  1  0  0  0  0
 28 32  1  0  0  0  0
 28 33  1  0  0  0  0
 11 14  1  0  0  0  0
 11 15  1  0  0  0  0
 11 16  1  0  0  0  0
 35 37  1  0  0  0  0
 35 38  1  0  0  0  0
 35 39  1  0  0  0  0
 18 22  1  0  0  0  0
 18 23  1  0  0  0  0
 25 30  1  0  0  0  0
  8 13  1  0  0  0  0
 34 36  1  0  0  0  0
 17 21  1  0  0  0  0
  7 12  1  0  0  0  0
 24 29  1  0  0  0  0
M  END
$$$$

  -OEChem-05262214473D

 39 38  0     1  0  0  0  0  0999 V2000
   -3.5200   -4.0268   -1.6943 C   0  0  0  0  0  0  0  0  0  0  0  0
   -2.8702   -4.8827   -1.1054 O   0  0  0  0  0  0  0  0  0  0  0  0
   -4.9704   -4.2579   -1.9614 C   0  0  0  0  0  0  0  0  0  0  0  0
   -5.1456   -4.7573   -2.9278 H   0  0  0  0  0  0  0  0  0  0  0  0
   -5.4379   -4.9112   -1.2072 H   0  0  0  0  0  0  0  0  0  0  0  0
   -5.5954   -3.3510   -1.9864 H   0  0  0  0  0  0  0  0  0  0  0  0
   -3.0424   -2.8131   -2.1606 N   0  0  0  0  0  0  0  0  0  0  0  0
   -1.6755   -2.3891   -2.0077 C   0  0  2  0  0  0  0  0  0  0  0  0
   -1.5782   -1.5673   -0.7292 C   0  0  0  0  0  0  0  0  0  0  0  0
   -2.5448   -1.0064   -0.2171 O   0  0  0  0  0  0  0  0  0  0  0  0
   -1.2087   -1.5823   -3.2094 C   0  0  0  0  0  0  0  0  0  0  0  0
   -3.6915   -2.1888   -2.6360 H   0  0  0  0  0  0  0  0  0  0  0  0
   -1.0721   -3.2977   -1.9053 H   0  0  0  0  0  0  0  0  0  0  0  0
   -1.8017   -0.6681   -3.3281 H   0  0  0  0  0  0  0  0  0  0  0  0
   -0.1601   -1.2849   -3.1045 H   0  0  0  0  0  0  0  0  0  0  0  0
   -1.3074   -2.1646   -4.1319 H   0  0  0  0  0  0  0  0  0  0  0  0
   -0.2835   -1.5112   -0.2725 N   0  0  0  0  0  0  0  0  0  0  0  0
    0.0769   -0.7658    0.9424 C   0  0  0  0  0  0  0  0  0  0  0  0
   -0.0244   -1.6736    2.1415 C   0  0  0  0  0  0  0  0  0  0  0  0
   -0.3055   -1.2754    3.2688 O   0  0  0  0  0  0  0  0  0  0  0  0
    0.4587   -2.0097   -0.7289 H   0  0  0  0  0  0  0  0  0  0  0  0
   -0.6065    0.0801    1.0620 H   0  0  0  0  0  0  0  0  0  0  0  0
    1.1007   -0.3932    0.8447 H   0  0  0  0  0  0  0  0  0  0  0  0
    0.2415   -2.9969    1.8057 N   0  0  0  0  0  0  0  0  0  0  0  0
    0.2186   -4.0771    2.7565 C   0  0  2  0  0  0  0  0  0  0  0  0
   -0.7955   -5.1062    2.2749 C   0  0  0  0  0  0  0  0  0  0  0  0
   -1.7150   -4.8330    1.5061 O   0  0  0  0  0  0  0  0  0  0  0  0
   -0.1315   -3.5800    4.1504 C   0  0  0  0  0  0  0  0  0  0  0  0
    0.4641   -3.2129    0.8354 H   0  0  0  0  0  0  0  0  0  0  0  0
    1.2199   -4.5215    2.7544 H   0  0  0  0  0  0  0  0  0  0  0  0
   -1.1313   -3.1313    4.1723 H   0  0  0  0  0  0  0  0  0  0  0  0
   -0.1205   -4.3983    4.8779 H   0  0  0  0  0  0  0  0  0  0  0  0
    0.5819   -2.8183    4.4832 H   0  0  0  0  0  0  0  0  0  0  0  0
   -0.5789   -6.3558    2.8385 N   0  0  0  0  0  0  0  0  0  0  0  0
   -1.4152   -7.4972    2.5491 C   0  0  0  0  0  0  0  0  0  0  0  0
    0.2191   -6.4961    3.4512 H   0  0  0  0  0  0  0  0  0  0  0  0
   -2.2191   -7.5624    3.2971 H   0  0  0  0  0  0  0  0  0  0  0  0
   -1.8551   -7.3847    1.5472 H   0  0  0  0  0  0  0  0  0  0  0  0
   -0.8084   -8.4141    2.5823 H   0  0  0  0  0  0  0  0  0  0  0  0
  1  3  1  0  0  0  0
  1  7  1  0  0  0  0
  1  2  2  0  0  0  0
 18 19  1  0  0  0  0
 19 24  1  0  0  0  0
 19 20  2  0  0  0  0
 25 26  1  0  0  0  0
 26 34  1  0  0  0  0
 26 27  2  0  0  0  0
  8  9  1  0  0  0  0
  9 17  1  0  0  0  0
  9 10  2  0  0  0  0
 25 28  1  0  0  0  0
  8 11  1  0  0  0  0
 34 35  1  0  0  0  0
 17 18  1  0  0  0  0
 24 25  1  0  0  0  0
  7  8  1  0  0  0  0
  3  4  1  0  0  0  0
  3  5  1  0  0  0  0
  3  6  1  0  0  0  0
 28 31  1  0  0  0  0
 28 32  1  0  0  0  0
 28 33  1  0  0  0  0
 11 14  1  0  0  0  0
 11 15  1  0  0  0  0
 11 16  1  0  0  0  0
 35 37  1  0  0  0  0
 35 38  1  0  0  0  0
 35 39  1  0  0  0  0
 18 22  1  0  0  0  0
 18 23  1  0  0  0  0
 25 30  1  0  0  0  0
  8 13  1  0  0  0  0
 34 36  1  0  0  0  0
 17 21  1  0  0  0  0
  7 12  1  0  0  0  0
 24 29  1  0  0  0  0
M  END
$$$$

  -OEChem-05262214473D

 39 38  0     1  0  0  0  0  0999 V2000
   -3.5200   -4.0268   -1.6943 C   0  0  0  0  0  0  0  0  0  0  0  0
   -2.8702   -4.8827   -1.1054 O   0  0  0  0  0  0  0  0  0  0  0  0
   -4.9704   -4.2579   -1.9614 C   0  0  0  0  0  0  0  0  0  0  0  0
   -5.1456   -4.7573   -2.9278 H   0  0  0  0  0  0  0  0  0  0  0  0
   -5.4379   -4.9112   -1.2072 H   0  0  0  0  0  0  0  0  0  0  0  0
   -5.5954   -3.3510   -1.9864 H   0  0  0  0  0  0  0  0  0  0  0  0
   -3.0424   -2.8131   -2.1606 N   0  0  0  0  0  0  0  0  0  0  0  0
   -1.6755   -2.3891   -2.0077 C   0  0  2  0  0  0  0  0  0  0  0  0
   -1.5782   -1.5673   -0.7292 C   0  0  0  0  0  0  0  0  0  0  0  0
   -2.5448   -1.0064   -0.2171 O   0  0  0  0  0  0  0  0  0  0  0  0
   -1.2087   -1.5823   -3.2094 C   0  0  0  0  0  0  0  0  0  0  0  0
   -3.6915   -2.1888   -2.6360 H   0  0  0  0  0  0  0  0  0  0  0  0
   -1.0721   -3.2977   -1.9053 H   0  0  0  0  0  0  0  0  0  0  0  0
   -1.8017   -0.6681   -3.3281 H   0  0  0  0  0  0  0  0  0  0  0  0
   -0.1601   -1.2849   -3.1045 H   0  0  0  0  0  0  0  0  0  0  0  0
   -1.3074   -2.1646   -4.1319 H   0  0  0  0  0  0  0  0  0  0  0  0
   -0.2835   -1.5112   -0.2725 N   0  0  0  0  0  0  0  0  0  0  0  0
    0.0769   -0.7658    0.9424 C   0  0  0  0  0  0  0  0  0  0  0  0
   -0.0244   -1.6736    2.1415 C   0  0  0  0  0  0  0  0  0  0  0  0
   -0.5551   -1.3412    3.1980 O   0  0  0  0  0  0  0  0  0  0  0  0
    0.4587   -2.0097   -0.7289 H   0  0  0  0  0  0  0  0  0  0  0  0
   -0.6065    0.0801    1.0620 H   0  0  0  0  0  0  0  0  0  0  0  0
    1.1007   -0.3932    0.8447 H   0  0  0  0  0  0  0  0  0  0  0  0
    0.5560   -2.9134    1.8955 N   0  0  0  0  0  0  0  0  0  0  0  0
    0.6049   -3.9739    2.8673 C   0  0  2  0  0  0  0  0  0  0  0  0
   -0.0885   -5.1913    2.2701 C   0  0  0  0  0  0  0  0  0  0  0  0
   -0.9113   -5.1154    1.3601 O   0  0  0  0  0  0  0  0  0  0  0  0
   -0.0548   -3.5586    4.1731 C   0  0  0  0  0  0  0  0  0  0  0  0
    0.9683   -3.0797    0.9789 H   0  0  0  0  0  0  0  0  0  0  0  0
    1.6634   -4.2011    3.0344 H   0  0  0  0  0  0  0  0  0  0  0  0
   -1.1159   -3.3270    4.0255 H   0  0  0  0  0  0  0  0  0  0  0  0
    0.0085   -4.3562    4.9207 H   0  0  0  0  0  0  0  0  0  0  0  0
    0.4261   -2.6653    4.5858 H   0  0  0  0  0  0  0  0  0  0  0  0
    0.2875   -6.3683    2.9022 N   0  0  0  0  0  0  0  0  0  0  0  0
   -0.2414   -7.6586    2.5260 C   0  0  0  0  0  0  0  0  0  0  0  0
    0.9905   -6.3395    3.6348 H   0  0  0  0  0  0  0  0  0  0  0  0
   -1.1226   -7.8882    3.1430 H   0  0  0  0  0  0  0  0  0  0  0  0
   -0.5313   -7.6407    1.4650 H   0  0  0  0  0  0  0  0  0  0  0  0
    0.5271   -8.4297    2.6832 H   0  0  0  0  0  0  0  0  0  0  0  0
  1  3  1  0  0  0  0
  1  7  1  0  0  0  0
  1  2  2  0  0  0  0
 18 19  1  0  0  0  0
 19 24  1  0  0  0  0
 19 20  2  0  0  0  0
 25 26  1  0  0  0  0
 26 34  1  0  0  0  0
 26 27  2  0  0  0  0
  8  9  1  0  0  0  0
  9 17  1  0  0  0  0
  9 10  2  0  0  0  0
 25 28  1  0  0  0  0
  8 11  1  0  0  0  0
 34 35  1  0  0  0  0
 17 18  1  0  0  0  0
 24 25  1  0  0  0  0
  7  8  1  0  0  0  0
  3  4  1  0  0  0  0
  3  5  1  0  0  0  0
  3  6  1  0  0  0  0
 28 31  1  0  0  0  0
 28 32  1  0  0  0  0
 28 33  1  0  0  0  0
 11 14  1  0  0  0  0
 11 15  1  0  0  0  0
 11 16  1  0  0  0  0
 35 37  1  0  0  0  0
 35 38  1  0  0  0  0
 35 39  1  0  0  0  0
 18 22  1  0  0  0  0
 18 23  1  0  0  0  0
 25 30  1  0  0  0  0
  8 13  1  0  0  0  0
 34 36  1  0  0  0  0
 17 21  1  0  0  0  0
  7 12  1  0  0  0  0
 24 29  1  0  0  0  0
M  END
$$$$

  -OEChem-05262214473D

 39 38  0     1  0  0  0  0  0999 V2000
   -3.5200   -4.0268   -1.6943 C   0  0  0  0  0  0  0  0  0  0  0  0
   -2.8702   -4.8827   -1.1054 O   0  0  0  0  0  0  0  0  0  0  0  0
   -4.9704   -4.2579   -1.9614 C   0  0  0  0  0  0  0  0  0  0  0  0
   -5.1456   -4.7573   -2.9278 H   0  0  0  0  0  0  0  0  0  0  0  0
   -5.4379   -4.9112   -1.2072 H   0  0  0  0  0  0  0  0  0  0  0  0
   -5.5954   -3.3510   -1.9864 H   0  0  0  0  0  0  0  0  0  0  0  0
   -3.0424   -2.8131   -2.1606 N   0  0  0  0  0  0  0  0  0  0  0  0
   -1.6755   -2.3891   -2.0077 C   0  0  2  0  0  0  0  0  0  0  0  0
   -1.5782   -1.5673   -0.7292 C   0  0  0  0  0  0  0  0  0  0  0  0
   -2.5448   -1.0064   -0.2171 O   0  0  0  0  0  0  0  0  0  0  0  0
   -1.2087   -1.5823   -3.2094 C   0  0  0  0  0  0  0  0  0  0  0  0
   -3.6915   -2.1888   -2.6360 H   0  0  0  0  0  0  0  0  0  0  0  0
   -1.0721   -3.2977   -1.9053 H   0  0  0  0  0  0  0  0  0  0  0  0
   -1.8017   -0.6681   -3.3281 H   0  0  0  0  0  0  0  0  0  0  0  0
   -0.1601   -1.2849   -3.1045 H   0  0  0  0  0  0  0  0  0  0  0  0
   -1.3074   -2.1646   -4.1319 H   0  0  0  0  0  0  0  0  0  0  0  0
   -0.2835   -1.5112   -0.2725 N   0  0  0  0  0  0  0  0  0  0  0  0
    0.0769   -0.7658    0.9424 C   0  0  0  0  0  0  0  0  0  0  0  0
   -0.0244   -1.6736    2.1415 C   0  0  0  0  0  0  0  0  0  0  0  0
   -0.7717   -1.4573    3.0918 O   0  0  0  0  0  0  0  0  0  0  0  0
    0.4587   -2.0097   -0.7289 H   0  0  0  0  0  0  0  0  0  0  0  0
   -0.6065    0.0801    1.0620 H   0  0  0  0  0  0  0  0  0  0  0  0
    1.1007   -0.3932    0.8447 H   0  0  0  0  0  0  0  0  0  0  0  0
    0.8287   -2.7665    2.0297 N   0  0  0  0  0  0  0  0  0  0  0  0
    0.9395   -3.7927    3.0327 C   0  0  2  0  0  0  0  0  0  0  0  0
    0.6128   -5.1281    2.3772 C   0  0  0  0  0  0  0  0  0  0  0  0
   -0.0541   -5.2254    1.3492 O   0  0  0  0  0  0  0  0  0  0  0  0
    0.0113   -3.5219    4.2065 C   0  0  0  0  0  0  0  0  0  0  0  0
    1.4055   -2.8446    1.1938 H   0  0  0  0  0  0  0  0  0  0  0  0
    1.9822   -3.7955    3.3684 H   0  0  0  0  0  0  0  0  0  0  0  0
   -1.0379   -3.5153    3.8894 H   0  0  0  0  0  0  0  0  0  0  0  0
    0.1176   -4.2882    4.9814 H   0  0  0  0  0  0  0  0  0  0  0  0
    0.2282   -2.5478    4.6581 H   0  0  0  0  0  0  0  0  0  0  0  0
    1.1170   -6.2009    3.0989 N   0  0  0  0  0  0  0  0  0  0  0  0
    0.9293   -7.5732    2.6895 C   0  0  0  0  0  0  0  0  0  0  0  0
    1.6747   -6.0263    3.9298 H   0  0  0  0  0  0  0  0  0  0  0  0
    0.0276   -7.9799    3.1707 H   0  0  0  0  0  0  0  0  0  0  0  0
    0.8128   -7.6169    1.5965 H   0  0  0  0  0  0  0  0  0  0  0  0
    1.8046   -8.1681    2.9891 H   0  0  0  0  0  0  0  0  0  0  0  0
  1  3  1  0  0  0  0
  1  7  1  0  0  0  0
  1  2  2  0  0  0  0
 18 19  1  0  0  0  0
 19 24  1  0  0  0  0
 19 20  2  0  0  0  0
 25 26  1  0  0  0  0
 26 34  1  0  0  0  0
 26 27  2  0  0  0  0
  8  9  1  0  0  0  0
  9 17  1  0  0  0  0
  9 10  2  0  0  0  0
 25 28  1  0  0  0  0
  8 11  1  0  0  0  0
 34 35  1  0  0  0  0
 17 18  1  0  0  0  0
 24 25  1  0  0  0  0
  7  8  1  0  0  0  0
  3  4  1  0  0  0  0
  3  5  1  0  0  0  0
  3  6  1  0  0  0  0
 28 31  1  0  0  0  0
 28 32  1  0  0  0  0
 28 33  1  0  0  0  0
 11 14  1  0  0  0  0
 11 15  1  0  0  0  0
 11 16  1  0  0  0  0
 35 37  1  0  0  0  0
 35 38  1  0  0  0  0
 35 39  1  0  0  0  0
 18 22  1  0  0  0  0
 18 23  1  0  0  0  0
 25 30  1  0  0  0  0
  8 13  1  0  0  0  0
 34 36  1  0  0  0  0
 17 21  1  0  0  0  0
  7 12  1  0  0  0  0
 24 29  1  0  0  0  0
M  END
$$$$

  -OEChem-05262214473D

 39 38  0     1  0  0  0  0  0999 V2000
   -3.5200   -4.0268   -1.6943 C   0  0  0  0  0  0  0  0  0  0  0  0
   -2.8702   -4.8827   -1.1054 O   0  0  0  0  0  0  0  0  0  0  0  0
   -4.9704   -4.2579   -1.9614 C   0  0  0  0  0  0  0  0  0  0  0  0
   -5.1456   -4.7573   -2.9278 H   0  0  0  0  0  0  0  0  0  0  0  0
   -5.4379   -4.9112   -1.2072 H   0  0  0  0  0  0  0  0  0  0  0  0
   -5.5954   -3.3510   -1.9864 H   0  0  0  0  0  0  0  0  0  0  0  0
   -3.0424   -2.8131   -2.1606 N   0  0  0  0  0  0  0  0  0  0  0  0
   -1.6755   -2.3891   -2.0077 C   0  0  2  0  0  0  0  0  0  0  0  0
   -1.5782   -1.5673   -0.7292 C   0  0  0  0  0  0  0  0  0  0  0  0
   -2.5448   -1.0064   -0.2171 O   0  0  0  0  0  0  0  0  0  0  0  0
   -1.2087   -1.5823   -3.2094 C   0  0  0  0  0  0  0  0  0  0  0  0
   -3.6915   -2.1888   -2.6360 H   0  0  0  0  0  0  0  0  0  0  0  0
   -1.0721   -3.2977   -1.9053 H   0  0  0  0  0  0  0  0  0  0  0  0
   -1.8017   -0.6681   -3.3281 H   0  0  0  0  0  0  0  0  0  0  0  0
   -0.1601   -1.2849   -3.1045 H   0  0  0  0  0  0  0  0  0  0  0  0
   -1.3074   -2.1646   -4.1319 H   0  0  0  0  0  0  0  0  0  0  0  0
   -0.2835   -1.5112   -0.2725 N   0  0  0  0  0  0  0  0  0  0  0  0
    0.0769   -0.7658    0.9424 C   0  0  0  0  0  0  0  0  0  0  0  0
   -0.0244   -1.6736    2.1415 C   0  0  0  0  0  0  0  0  0  0  0  0
   -0.9405   -1.6159    2.9574 O   0  0  0  0  0  0  0  0  0  0  0  0
    0.4587   -2.0097   -0.7289 H   0  0  0  0  0  0  0  0  0  0  0  0
   -0.6065    0.0801    1.0620 H   0  0  0  0  0  0  0  0  0  0  0  0
    1.1007   -0.3932    0.8447 H   0  0  0  0  0  0  0  0  0  0  0  0
    1.0408   -2.5661    2.1994 N   0  0  0  0  0  0  0  0  0  0  0  0
    1.1996   -3.5460    3.2414 C   0  0  2  0  0  0  0  0  0  0  0  0
    1.2604   -4.9208    2.5889 C   0  0  0  0  0  0  0  0  0  0  0  0
    0.7981   -5.1552    1.4742 O   0  0  0  0  0  0  0  0  0  0  0  0
    0.0624   -3.4722    4.2484 C   0  0  0  0  0  0  0  0  0  0  0  0
    1.7459   -2.5239    1.4654 H   0  0  0  0  0  0  0  0  0  0  0  0
    2.1546   -3.3322    3.7337 H   0  0  0  0  0  0  0  0  0  0  0  0
   -0.9026   -3.6835    3.7735 H   0  0  0  0  0  0  0  0  0  0  0  0
    0.1996   -4.1990    5.0559 H   0  0  0  0  0  0  0  0  0  0  0  0
    0.0015   -2.4738    4.6950 H   0  0  0  0  0  0  0  0  0  0  0  0
    1.8532   -5.8651    3.4154 N   0  0  0  0  0  0  0  0  0  0  0  0
    2.0170   -7.2469    3.0284 C   0  0  0  0  0  0  0  0  0  0  0  0
    2.2252   -5.5778    4.3158 H   0  0  0  0  0  0  0  0  0  0  0  0
    1.1531   -7.8311    3.3784 H   0  0  0  0  0  0  0  0  0  0  0  0
    2.0858   -7.3149    1.9326 H   0  0  0  0  0  0  0  0  0  0  0  0
    2.9371   -7.6472    3.4791 H   0  0  0  0  0  0  0  0  0  0  0  0
  1  3  1  0  0  0  0
  1  7  1  0  0  0  0
  1  2  2  0  0  0  0
 18 19  1  0  0  0  0
 19 24  1  0  0  0  0
 19 20  2  0  0  0  0
 25 26  1  0  0  0  0
 26 34  1  0  0  0  0
 26 27  2  0  0  0  0
  8  9  1  0  0  0  0
  9 17  1  0  0  0  0
  9 10  2  0  0  0  0
 25 28  1  0  0  0  0
  8 11  1  0  0  0  0
 34 35  1  0  0  0  0
 17 18  1  0  0  0  0
 24 25  1  0  0  0  0
  7  8  1  0  0  0  0
  3  4  1  0  0  0  0
  3  5  1  0  0  0  0
  3  6  1  0  0  0  0
 28 31  1  0  0  0  0
 28 32  1  0  0  0  0
 28 33  1  0  0  0  0
 11 14  1  0  0  0  0
 11 15  1  0  0  0  0
 11 16  1  0  0  0  0
 35 37  1  0  0  0  0
 35 38  1  0  0  0  0
 35 39  1  0  0  0  0
 18 22  1  0  0  0  0
 18 23  1  0  0  0  0
 25 30  1  0  0  0  0
  8 13  1  0  0  0  0
 34 36  1  0  0  0  0
 17 21  1  0  0  0  0
  7 12  1  0  0  0  0
 24 29  1  0  0  0  0
M  END
$$$$

  -OEChem-05262214473D

 39 38  0     1  0  0  0  0  0999 V2000
   -3.5200   -4.0268   -1.6943 C   0  0  0  0  0  0  0  0  0  0  0  0
   -2.8702   -4.8827   -1.1054 O   0  0  0  0  0  0  0  0  0  0  0  0
   -4.9704   -4.2579   -1.9614 C   0  0  0  0  0  0  0  0  0  0  0  0
   -5.1456   -4.7573   -2.9278 H   0  0  0  0  0  0  0  0  0  0  0  0
   -5.4379   -4.9112   -1.2072 H   0  0  0  0  0  0  0  0  0  0  0  0
   -5.5954   -3.3510   -1.9864 H   0  0  0  0  0  0  0  0  0  0  0  0
   -3.0424   -2.8131   -2.1606 N   0  0  0  0  0  0  0  0  0  0  0  0
   -1.6755   -2.3891   -2.0077 C   0  0  2  0  0  0  0  0  0  0  0  0
   -1.5782   -1.5673   -0.7292 C   0  0  0  0  0  0  0  0  0  0  0  0
   -2.5448   -1.0064   -0.2171 O   0  0  0  0  0  0  0  0  0  0  0  0
   -1.2087   -1.5823   -3.2094 C   0  0  0  0  0  0  0  0  0  0  0  0
   -3.6915   -2.1888   -2.6360 H   0  0  0  0  0  0  0  0  0  0  0  0
   -1.0721   -3.2977   -1.9053 H   0  0  0  0  0  0  0  0  0  0  0  0
   -1.8017   -0.6681   -3.3281 H   0  0  0  0  0  0  0  0  0  0  0  0
   -0.1601   -1.2849   -3.1045 H   0  0  0  0  0  0  0  0  0  0  0  0
   -1.3074   -2.1646   -4.1319 H   0  0  0  0  0  0  0  0  0  0  0  0
   -0.2835   -1.5112   -0.2725 N   0  0  0  0  0  0  0  0  0  0  0  0
    0.0769   -0.7658    0.9424 C   0  0  0  0  0  0  0  0  0  0  0  0
   -0.0244   -1.6736    2.1415 C   0  0  0  0  0  0  0  0  0  0  0  0
   -1.0499   -1.8061    2.8041 O   0  0  0  0  0  0  0  0  0  0  0  0
    0.4587   -2.0097   -0.7289 H   0  0  0  0  0  0  0  0  0  0  0  0
   -0.6065    0.0801    1.0620 H   0  0  0  0  0  0  0  0  0  0  0  0
    1.1007   -0.3932    0.8447 H   0  0  0  0  0  0  0  0  0  0  0  0
    1.1781   -2.3259    2.3929 N   0  0  0  0  0  0  0  0  0  0  0  0
    1.3676   -3.2505    3.4793 C   0  0  2  0  0  0  0  0  0  0  0  0
    1.8104   -4.5835    2.8906 C   0  0  0  0  0  0  0  0  0  0  0  0
    1.5875   -4.9099    1.7267 O   0  0  0  0  0  0  0  0  0  0  0  0
    0.0950   -3.4129    4.2961 C   0  0  0  0  0  0  0  0  0  0  0  0
    1.9664   -2.1392    1.7753 H   0  0  0  0  0  0  0  0  0  0  0  0
    2.1688   -2.8430    4.1054 H   0  0  0  0  0  0  0  0  0  0  0  0
   -0.7191   -3.8202    3.6855 H   0  0  0  0  0  0  0  0  0  0  0  0
    0.2489   -4.0946    5.1390 H   0  0  0  0  0  0  0  0  0  0  0  0
   -0.2384   -2.4484    4.6940 H   0  0  0  0  0  0  0  0  0  0  0  0
    2.4457   -5.3836    3.8300 N   0  0  0  0  0  0  0  0  0  0  0  0
    2.9476   -6.7018    3.5196 C   0  0  0  0  0  0  0  0  0  0  0  0
    2.6044   -5.0245    4.7668 H   0  0  0  0  0  0  0  0  0  0  0  0
    2.1773   -7.4520    3.7518 H   0  0  0  0  0  0  0  0  0  0  0  0
    3.2008   -6.7553    2.4505 H   0  0  0  0  0  0  0  0  0  0  0  0
    3.8473   -6.9023    4.1200 H   0  0  0  0  0  0  0  0  0  0  0  0
  1  3  1  0  0  0  0
  1  7  1  0  0  0  0
  1  2  2  0  0  0  0
 18 19  1  0  0  0  0
 19 24  1  0  0  0  0
 19 20  2  0  0  0  0
 25 26  1  0  0  0  0
 26 34  1  0  0  0  0
 26 27  2  0  0  0  0
  8  9  1  0  0  0  0
  9 17  1  0  0  0  0
  9 10  2  0  0  0  0
 25 28  1  0  0  0  0
  8 11  1  0  0  0  0
 34 35  1  0  0  0  0
 17 18  1  0  0  0  0
 24 25  1  0  0  0  0
  7  8  1  0  0  0  0
  3  4  1  0  0  0  0
  3  5  1  0  0  0  0
  3  6  1  0  0  0  0
 28 31  1  0  0  0  0
 28 32  1  0  0  0  0
 28 33  1  0  0  0  0
 11 14  1  0  0  0  0
 11 15  1  0  0  0  0
 11 16  1  0  0  0  0
 35 37  1  0  0  0  0
 35 38  1  0  0  0  0
 35 39  1  0  0  0  0
 18 22  1  0  0  0  0
 18 23  1  0  0  0  0
 25 30  1  0  0  0  0
  8 13  1  0  0  0  0
 34 36  1  0  0  0  0
 17 21  1  0  0  0  0
  7 12  1  0  0  0  0
 24 29  1  0  0  0  0
M  END
$$$$

  -OEChem-05262214473D

 39 38  0     1  0  0  0  0  0999 V2000
   -3.5200   -4.0268   -1.6943 C   0  0  0  0  0  0  0  0  0  0  0  0
   -2.8702   -4.8827   -1.1054 O   0  0  0  0  0  0  0  0  0  0  0  0
   -4.9704   -4.2579   -1.9614 C   0  0  0  0  0  0  0  0  0  0  0  0
   -5.1456   -4.7573   -2.9278 H   0  0  0  0  0  0  0  0  0  0  0  0
   -5.4379   -4.9112   -1.2072 H   0  0  0  0  0  0  0  0  0  0  0  0
   -5.5954   -3.3510   -1.9864 H   0  0  0  0  0  0  0  0  0  0  0  0
   -3.0424   -2.8131   -2.1606 N   0  0  0  0  0  0  0  0  0  0  0  0
   -1.6755   -2.3891   -2.0077 C   0  0  2  0  0  0  0  0  0  0  0  0
   -1.5782   -1.5673   -0.7292 C   0  0  0  0  0  0  0  0  0  0  0  0
   -2.5448   -1.0064   -0.2171 O   0  0  0  0  0  0  0  0  0  0  0  0
   -1.2087   -1.5823   -3.2094 C   0  0  0  0  0  0  0  0  0  0  0  0
   -3.6915   -2.1888   -2.6360 H   0  0  0  0  0  0  0  0  0  0  0  0
   -1.0721   -3.2977   -1.9053 H   0  0  0  0  0  0  0  0  0  0  0  0
   -1.8017   -0.6681   -3.3281 H   0  0  0  0  0  0  0  0  0  0  0  0
   -0.1601   -1.2849   -3.1045 H   0  0  0  0  0  0  0  0  0  0  0  0
   -1.3074   -2.1646   -4.1319 H   0  0  0  0  0  0  0  0  0  0  0  0
   -0.2835   -1.5112   -0.2725 N   0  0  0  0  0  0  0  0  0  0  0  0
    0.0769   -0.7658    0.9424 C   0  0  0  0  0  0  0  0  0  0  0  0
   -0.0244   -1.6736    2.1415 C   0  0  0  0  0  0  0  0  0  0  0  0
   -1.0925   -2.0151    2.6423 O   0  0  0  0  0  0  0  0  0  0  0  0
    0.4587   -2.0097   -0.7289 H   0  0  0  0  0  0  0  0  0  0  0  0
   -0.6065    0.0801    1.0620 H   0  0  0  0  0  0  0  0  0  0  0  0
    1.1007   -0.3932    0.8447 H   0  0  0  0  0  0  0  0  0  0  0  0
    1.2310   -2.0622    2.5969 N   0  0  0  0  0  0  0  0  0  0  0  0
    1.4318   -2.9264    3.7302 C   0  0  2  0  0  0  0  0  0  0  0  0
    2.2250   -4.1393    3.2620 C   0  0  0  0  0  0  0  0  0  0  0  0
    2.2600   -4.5060    2.0892 O   0  0  0  0  0  0  0  0  0  0  0  0
    0.1069   -3.3481    4.3461 C   0  0  0  0  0  0  0  0  0  0  0  0
    2.0518   -1.7169    2.1022 H   0  0  0  0  0  0  0  0  0  0  0  0
    2.0238   -2.3609    4.4581 H   0  0  0  0  0  0  0  0  0  0  0  0
   -0.5001   -3.9159    3.6315 H   0  0  0  0  0  0  0  0  0  0  0  0
    0.2620   -3.9823    5.2252 H   0  0  0  0  0  0  0  0  0  0  0  0
   -0.4753   -2.4732    4.6552 H   0  0  0  0  0  0  0  0  0  0  0  0
    2.8544   -4.7893    4.3144 N   0  0  0  0  0  0  0  0  0  0  0  0
    3.6577   -5.9752    4.1297 C   0  0  0  0  0  0  0  0  0  0  0  0
    2.7865   -4.4041    5.2519 H   0  0  0  0  0  0  0  0  0  0  0  0
    3.0304   -6.8685    4.2657 H   0  0  0  0  0  0  0  0  0  0  0  0
    4.0819   -5.9762    3.1148 H   0  0  0  0  0  0  0  0  0  0  0  0
    4.4732   -5.9842    4.8679 H   0  0  0  0  0  0  0  0  0  0  0  0
  1  3  1  0  0  0  0
  1  7  1  0  0  0  0
  1  2  2  0  0  0  0
 18 19  1  0  0  0  0
 19 24  1  0  0  0  0
 19 20  2  0  0  0  0
 25 26  1  0  0  0  0
 26 34  1  0  0  0  0
 26 27  2  0  0  0  0
  8  9  1  0  0  0  0
  9 17  1  0  0  0  0
  9 10  2  0  0  0  0
 25 28  1  0  0  0  0
  8 11  1  0  0  0  0
 34 35  1  0  0  0  0
 17 18  1  0  0  0  0
 24 25  1  0  0  0  0
  7  8  1  0  0  0  0
  3  4  1  0  0  0  0
  3  5  1  0  0  0  0
  3  6  1  0  0  0  0
 28 31  1  0  0  0  0
 28 32  1  0  0  0  0
 28 33  1  0  0  0  0
 11 14  1  0  0  0  0
 11 15  1  0  0  0  0
 11 16  1  0  0  0  0
 35 37  1  0  0  0  0
 35 38  1  0  0  0  0
 35 39  1  0  0  0  0
 18 22  1  0  0  0  0
 18 23  1  0  0  0  0
 25 30  1  0  0  0  0
  8 13  1  0  0  0  0
 34 36  1  0  0  0  0
 17 21  1  0  0  0  0
  7 12  1  0  0  0  0
 24 29  1  0  0  0  0
M  END
$$$$

  -OEChem-05262214473D

 39 38  0     1  0  0  0  0  0999 V2000
   -3.5200   -4.0268   -1.6943 C   0  0  0  0  0  0  0  0  0  0  0  0
   -2.8702   -4.8827   -1.1054 O   0  0  0  0  0  0  0  0  0  0  0  0
   -4.9704   -4.2579   -1.9614 C   0  0  0  0  0  0  0  0  0  0  0  0
   -5.1456   -4.7573   -2.9278 H   0  0  0  0  0  0  0  0  0  0  0  0
   -5.4379   -4.9112   -1.2072 H   0  0  0  0  0  0  0  0  0  0  0  0
   -5.5954   -3.3510   -1.9864 H   0  0  0  0  0  0  0  0  0  0  0  0
   -3.0424   -2.8131   -2.1606 N   0  0  0  0  0  0  0  0  0  0  0  0
   -1.6755   -2.3891   -2.0077 C   0  0  2  0  0  0  0  0  0  0  0  0
   -1.5782   -1.5673   -0.7292 C   0  0  0  0  0  0  0  0  0  0  0  0
   -2.5448   -1.0064   -0.2171 O   0  0  0  0  0  0  0  0  0  0  0  0
   -1.2087   -1.5823   -3.2094 C   0  0  0  0  0  0  0  0  0  0  0  0
   -3.6915   -2.1888   -2.6360 H   0  0  0  0  0  0  0  0  0  0  0  0
   -1.0721   -3.2977   -1.9053 H   0  0  0  0  0  0  0  0  0  0  0  0
   -1.8017   -0.6681   -3.3281 H   0  0  0  0  0  0  0  0  0  0  0  0
   -0.1601   -1.2849   -3.1045 H   0  0  0  0  0  0  0  0  0  0  0  0
   -1.3074   -2.1646   -4.1319 H   0  0  0  0  0  0  0  0  0  0  0  0
   -0.2835   -1.5112   -0.2725 N   0  0  0  0  0  0  0  0  0  0  0  0
    0.0769   -0.7658    0.9424 C   0  0  0  0  0  0  0  0  0  0  0  0
   -0.0244   -1.6736    2.1415 C   0  0  0  0  0  0  0  0  0  0  0  0
   -1.0654   -2.2285    2.4830 O   0  0  0  0  0  0  0  0  0  0  0  0
    0.4587   -2.0097   -0.7289 H   0  0  0  0  0  0  0  0  0  0  0  0
   -0.6065    0.0801    1.0620 H   0  0  0  0  0  0  0  0  0  0  0  0
    1.1007   -0.3932    0.8447 H   0  0  0  0  0  0  0  0  0  0  0  0
    1.1961   -1.7931    2.7977 N   0  0  0  0  0  0  0  0  0  0  0  0
    1.3881   -2.5957    3.9769 C   0  0  2  0  0  0  0  0  0  0  0  0
    2.4763   -3.6183    3.6776 C   0  0  0  0  0  0  0  0  0  0  0  0
    2.7700   -3.9711    2.5373 O   0  0  0  0  0  0  0  0  0  0  0  0
    0.0972   -3.2822    4.3952 C   0  0  0  0  0  0  0  0  0  0  0  0
    1.9964   -1.2857    2.4240 H   0  0  0  0  0  0  0  0  0  0  0  0
    1.7295   -1.9191    4.7678 H   0  0  0  0  0  0  0  0  0  0  0  0
   -0.2604   -3.9643    3.6152 H   0  0  0  0  0  0  0  0  0  0  0  0
    0.2381   -3.8695    5.3085 H   0  0  0  0  0  0  0  0  0  0  0  0
   -0.6928   -2.5467    4.5812 H   0  0  0  0  0  0  0  0  0  0  0  0
    3.0512   -4.1227    4.8358 N   0  0  0  0  0  0  0  0  0  0  0  0
    4.0990   -5.1166    4.8171 C   0  0  0  0  0  0  0  0  0  0  0  0
    2.7590   -3.7590    5.7380 H   0  0  0  0  0  0  0  0  0  0  0  0
    3.6541   -6.1204    4.8848 H   0  0  0  0  0  0  0  0  0  0  0  0
    4.6690   -5.0307    3.8802 H   0  0  0  0  0  0  0  0  0  0  0  0
    4.7722   -4.9556    5.6720 H   0  0  0  0  0  0  0  0  0  0  0  0
  1  3  1  0  0  0  0
  1  7  1  0  0  0  0
  1  2  2  0  0  0  0
 18 19  1  0  0  0  0
 19 24  1  0  0  0  0
 19 20  2  0  0  0  0
 25 26  1  0  0  0  0
 26 34  1  0  0  0  0
 26 27  2  0  0  0  0
  8  9  1  0  0  0  0
  9 17  1  0  0  0  0
  9 10  2  0  0  0  0
 25 28  1  0  0  0  0
  8 11  1  0  0  0  0
 34 35  1  0  0  0  0
 17 18  1  0  0  0  0
 24 25  1  0  0  0  0
  7  8  1  0  0  0  0
  3  4  1  0  0  0  0
  3  5  1  0  0  0  0
  3  6  1  0  0  0  0
 28 31  1  0  0  0  0
 28 32  1  0  0  0  0
 28 33  1  0  0  0  0
 11 14  1  0  0  0  0
 11 15  1  0  0  0  0
 11 16  1  0  0  0  0
 35 37  1  0  0  0  0
 35 38  1  0  0  0  0
 35 39  1  0  0  0  0
 18 22  1  0  0  0  0
 18 23  1  0  0  0  0
 25 30  1  0  0  0  0
  8 13  1  0  0  0  0
 34 36  1  0  0  0  0
 17 21  1  0  0  0  0
  7 12  1  0  0  0  0
 24 29  1  0  0  0  0
M  END
$$$$

  -OEChem-05262214473D

 39 38  0     1  0  0  0  0  0999 V2000
   -3.5200   -4.0268   -1.6943 C   0  0  0  0  0  0  0  0  0  0  0  0
   -2.8702   -4.8827   -1.1054 O   0  0  0  0  0  0  0  0  0  0  0  0
   -4.9704   -4.2579   -1.9614 C   0  0  0  0  0  0  0  0  0  0  0  0
   -5.1456   -4.7573   -2.9278 H   0  0  0  0  0  0  0  0  0  0  0  0
   -5.4379   -4.9112   -1.2072 H   0  0  0  0  0  0  0  0  0  0  0  0
   -5.5954   -3.3510   -1.9864 H   0  0  0  0  0  0  0  0  0  0  0  0
   -3.0424   -2.8131   -2.1606 N   0  0  0  0  0  0  0  0  0  0  0  0
   -1.6755   -2.3891   -2.0077 C   0  0  2  0  0  0  0  0  0  0  0  0
   -1.5782   -1.5673   -0.7292 C   0  0  0  0  0  0  0  0  0  0  0  0
   -2.5448   -1.0064   -0.2171 O   0  0  0  0  0  0  0  0  0  0  0  0
   -1.2087   -1.5823   -3.2094 C   0  0  0  0  0  0  0  0  0  0  0  0
   -3.6915   -2.1888   -2.6360 H   0  0  0  0  0  0  0  0  0  0  0  0
   -1.0721   -3.2977   -1.9053 H   0  0  0  0  0  0  0  0  0  0  0  0
   -1.8017   -0.6681   -3.3281 H   0  0  0  0  0  0  0  0  0  0  0  0
   -0.1601   -1.2849   -3.1045 H   0  0  0  0  0  0  0  0  0  0  0  0
   -1.3074   -2.1646   -4.1319 H   0  0  0  0  0  0  0  0  0  0  0  0
   -0.2835   -1.5112   -0.2725 N   0  0  0  0  0  0  0  0  0  0  0  0
    0.0769   -0.7658    0.9424 C   0  0  0  0  0  0  0  0  0  0  0  0
   -0.0244   -1.6736    2.1415 C   0  0  0  0  0  0  0  0  0  0  0  0
   -0.9705   -2.4319    2.3370 O   0  0  0  0  0  0  0  0  0  0  0  0
    0.4587   -2.0097   -0.7289 H   0  0  0  0  0  0  0  0  0  0  0  0
   -0.6065    0.0801    1.0620 H   0  0  0  0  0  0  0  0  0  0  0  0
    1.1007   -0.3932    0.8447 H   0  0  0  0  0  0  0  0  0  0  0  0
    1.0756   -1.5369    2.9816 N   0  0  0  0  0  0  0  0  0  0  0  0
    1.2393   -2.2810    4.2026 C   0  0  2  0  0  0  0  0  0  0  0  0
    2.5469   -3.0562    4.1092 C   0  0  0  0  0  0  0  0  0  0  0  0
    3.0826   -3.3416    3.0403 O   0  0  0  0  0  0  0  0  0  0  0  0
    0.0666   -3.2197    4.4399 C   0  0  0  0  0  0  0  0  0  0  0  0
    1.8040   -0.8750    2.7187 H   0  0  0  0  0  0  0  0  0  0  0  0
    1.3061   -1.5475    5.0135 H   0  0  0  0  0  0  0  0  0  0  0  0
   -0.0163   -3.9619    3.6376 H   0  0  0  0  0  0  0  0  0  0  0  0
    0.1788   -3.7641    5.3834 H   0  0  0  0  0  0  0  0  0  0  0  0
   -0.8764   -2.6637    4.4771 H   0  0  0  0  0  0  0  0  0  0  0  0
    3.0228   -3.4292    5.3584 N   0  0  0  0  0  0  0  0  0  0  0  0
    4.2412   -4.1844    5.5349 C   0  0  0  0  0  0  0  0  0  0  0  0
    2.5238   -3.1330    6.1921 H   0  0  0  0  0  0  0  0  0  0  0  0
    4.0061   -5.2585    5.5671 H   0  0  0  0  0  0  0  0  0  0  0  0
    4.9221   -3.9833    4.6947 H   0  0  0  0  0  0  0  0  0  0  0  0
    4.7239   -3.8865    6.4774 H   0  0  0  0  0  0  0  0  0  0  0  0
  1  3  1  0  0  0  0
  1  7  1  0  0  0  0
  1  2  2  0  0  0  0
 18 19  1  0  0  0  0
 19 24  1  0  0  0  0
 19 20  2  0  0  0  0
 25 26  1  0  0  0  0
 26 34  1  0  0  0  0
 26 27  2  0  0  0  0
  8  9  1  0  0  0  0
  9 17  1  0  0  0  0
  9 10  2  0  0  0  0
 25 28  1  0  0  0  0
  8 11  1  0  0  0  0
 34 35  1  0  0  0  0
 17 18  1  0  0  0  0
 24 25  1  0  0  0  0
  7  8  1  0  0  0  0
  3  4  1  0  0  0  0
  3  5  1  0  0  0  0
  3  6  1  0  0  0  0
 28 31  1  0  0  0  0
 28 32  1  0  0  0  0
 28 33  1  0  0  0  0
 11 14  1  0  0  0  0
 11 15  1  0  0  0  0
 11 16  1  0  0  0  0
 35 37  1  0  0  0  0
 35 38  1  0  0  0  0
 35 39  1  0  0  0  0
 18 22  1  0  0  0  0
 18 23  1  0  0  0  0
 25 30  1  0  0  0  0
  8 13  1  0  0  0  0
 34 36  1  0  0  0  0
 17 21  1  0  0  0  0
  7 12  1  0  0  0  0
 24 29  1  0  0  0  0
M  END
$$$$

  -OEChem-05262214473D

 39 38  0     1  0  0  0  0  0999 V2000
   -3.5200   -4.0268   -1.6943 C   0  0  0  0  0  0  0  0  0  0  0  0
   -2.8702   -4.8827   -1.1054 O   0  0  0  0  0  0  0  0  0  0  0  0
   -4.9704   -4.2579   -1.9614 C   0  0  0  0  0  0  0  0  0  0  0  0
   -5.1456   -4.7573   -2.9278 H   0  0  0  0  0  0  0  0  0  0  0  0
   -5.4379   -4.9112   -1.2072 H   0  0  0  0  0  0  0  0  0  0  0  0
   -5.5954   -3.3510   -1.9864 H   0  0  0  0  0  0  0  0  0  0  0  0
   -3.0424   -2.8131   -2.1606 N   0  0  0  0  0  0  0  0  0  0  0  0
   -1.6755   -2.3891   -2.0077 C   0  0  2  0  0  0  0  0  0  0  0  0
   -1.5782   -1.5673   -0.7292 C   0  0  0  0  0  0  0  0  0  0  0  0
   -2.5448   -1.0064   -0.2171 O   0  0  0  0  0  0  0  0  0  0  0  0
   -1.2087   -1.5823   -3.2094 C   0  0  0  0  0  0  0  0  0  0  0  0
   -3.6915   -2.1888   -2.6360 H   0  0  0  0  0  0  0  0  0  0  0  0
   -1.0721   -3.2977   -1.9053 H   0  0  0  0  0  0  0  0  0  0  0  0
   -1.8017   -0.6681   -3.3281 H   0  0  0  0  0  0  0  0  0  0  0  0
   -0.1601   -1.2849   -3.1045 H   0  0  0  0  0  0  0  0  0  0  0  0
   -1.3074   -2.1646   -4.1319 H   0  0  0  0  0  0  0  0  0  0  0  0
   -0.2835   -1.5112   -0.2725 N   0  0  0  0  0  0  0  0  0  0  0  0
    0.0769   -0.7658    0.9424 C   0  0  0  0  0  0  0  0  0  0  0  0
   -0.0244   -1.6736    2.1415 C   0  0  0  0  0  0  0  0  0  0  0  0
   -0.8142   -2.6113    2.2144 O   0  0  0  0  0  0  0  0  0  0  0  0
    0.4587   -2.0097   -0.7289 H   0  0  0  0  0  0  0  0  0  0  0  0
   -0.6065    0.0801    1.0620 H   0  0  0  0  0  0  0  0  0  0  0  0
    1.1007   -0.3932    0.8447 H   0  0  0  0  0  0  0  0  0  0  0  0
    0.8779   -1.3110    3.1359 N   0  0  0  0  0  0  0  0  0  0  0  0
    0.9956   -2.0037    4.3920 C   0  0  2  0  0  0  0  0  0  0  0  0
    2.4321   -2.4912    4.5273 C   0  0  0  0  0  0  0  0  0  0  0  0
    3.1766   -2.6605    3.5639 O   0  0  0  0  0  0  0  0  0  0  0  0
    0.0172   -3.1649    4.4773 C   0  0  0  0  0  0  0  0  0  0  0  0
    1.4876   -0.5128    2.9663 H   0  0  0  0  0  0  0  0  0  0  0  0
    0.7822   -1.2714    5.1782 H   0  0  0  0  0  0  0  0  0  0  0  0
    0.2154   -3.9090    3.6972 H   0  0  0  0  0  0  0  0  0  0  0  0
    0.0882   -3.6732    5.4446 H   0  0  0  0  0  0  0  0  0  0  0  0
   -1.0133   -2.8163    4.3500 H   0  0  0  0  0  0  0  0  0  0  0  0
    2.7712   -2.7562    5.8468 N   0  0  0  0  0  0  0  0  0  0  0  0
    4.0749   -3.2422    6.2342 C   0  0  0  0  0  0  0  0  0  0  0  0
    2.0971   -2.5689    6.5832 H   0  0  0  0  0  0  0  0  0  0  0  0
    4.0623   -4.3417    6.2660 H   0  0  0  0  0  0  0  0  0  0  0  0
    4.8240   -2.9052    5.5026 H   0  0  0  0  0  0  0  0  0  0  0  0
    4.3316   -2.8497    7.2292 H   0  0  0  0  0  0  0  0  0  0  0  0
  1  3  1  0  0  0  0
  1  7  1  0  0  0  0
  1  2  2  0  0  0  0
 18 19  1  0  0  0  0
 19 24  1  0  0  0  0
 19 20  2  0  0  0  0
 25 26  1  0  0  0  0
 26 34  1  0  0  0  0
 26 27  2  0  0  0  0
  8  9  1  0  0  0  0
  9 17  1  0  0  0  0
  9 10  2  0  0  0  0
 25 28  1  0  0  0  0
  8 11  1  0  0  0  0
 34 35  1  0  0  0  0
 17 18  1  0  0  0  0
 24 25  1  0  0  0  0
  7  8  1  0  0  0  0
  3  4  1  0  0  0  0
  3  5  1  0  0  0  0
  3  6  1  0  0  0  0
 28 31  1  0  0  0  0
 28 32  1  0  0  0  0
 28 33  1  0  0  0  0
 11 14  1  0  0  0  0
 11 15  1  0  0  0  0
 11 16  1  0  0  0  0
 35 37  1  0  0  0  0
 35 38  1  0  0  0  0
 35 39  1  0  0  0  0
 18 22  1  0  0  0  0
 18 23  1  0  0  0  0
 25 30  1  0  0  0  0
  8 13  1  0  0  0  0
 34 36  1  0  0  0  0
 17 21  1  0  0  0  0
  7 12  1  0  0  0  0
 24 29  1  0  0  0  0
M  END
$$$$

  -OEChem-05262214473D

 39 38  0     1  0  0  0  0  0999 V2000
   -3.5200   -4.0268   -1.6943 C   0  0  0  0  0  0  0  0  0  0  0  0
   -2.8702   -4.8827   -1.1054 O   0  0  0  0  0  0  0  0  0  0  0  0
   -4.9704   -4.2579   -1.9614 C   0  0  0  0  0  0  0  0  0  0  0  0
   -5.1456   -4.7573   -2.9278 H   0  0  0  0  0  0  0  0  0  0  0  0
   -5.4379   -4.9112   -1.2072 H   0  0  0  0  0  0  0  0  0  0  0  0
   -5.5954   -3.3510   -1.9864 H   0  0  0  0  0  0  0  0  0  0  0  0
   -3.0424   -2.8131   -2.1606 N   0  0  0  0  0  0  0  0  0  0  0  0
   -1.6755   -2.3891   -2.0077 C   0  0  2  0  0  0  0  0  0  0  0  0
   -1.5782   -1.5673   -0.7292 C   0  0  0  0  0  0  0  0  0  0  0  0
   -2.5448   -1.0064   -0.2171 O   0  0  0  0  0  0  0  0  0  0  0  0
   -1.2087   -1.5823   -3.2094 C   0  0  0  0  0  0  0  0  0  0  0  0
   -3.6915   -2.1888   -2.6360 H   0  0  0  0  0  0  0  0  0  0  0  0
   -1.0721   -3.2977   -1.9053 H   0  0  0  0  0  0  0  0  0  0  0  0
   -1.8017   -0.6681   -3.3281 H   0  0  0  0  0  0  0  0  0  0  0  0
   -0.1601   -1.2849   -3.1045 H   0  0  0  0  0  0  0  0  0  0  0  0
   -1.3074   -2.1646   -4.1319 H   0  0  0  0  0  0  0  0  0  0  0  0
   -0.2835   -1.5112   -0.2725 N   0  0  0  0  0  0  0  0  0  0  0  0
    0.0769   -0.7658    0.9424 C   0  0  0  0  0  0  0  0  0  0  0  0
   -0.0244   -1.6736    2.1415 C   0  0  0  0  0  0  0  0  0  0  0  0
   -0.6071   -2.7546    2.1234 O   0  0  0  0  0  0  0  0  0  0  0  0
    0.4587   -2.0097   -0.7289 H   0  0  0  0  0  0  0  0  0  0  0  0
   -0.6065    0.0801    1.0620 H   0  0  0  0  0  0  0  0  0  0  0  0
    1.1007   -0.3932    0.8447 H   0  0  0  0  0  0  0  0  0  0  0  0
    0.6163   -1.1308    3.2503 N   0  0  0  0  0  0  0  0  0  0  0  0
    0.6736   -1.7828    4.5321 C   0  0  2  0  0  0  0  0  0  0  0  0
    2.1397   -1.9618    4.9035 C   0  0  0  0  0  0  0  0  0  0  0  0
    3.0455   -1.9742    4.0725 O   0  0  0  0  0  0  0  0  0  0  0  0
   -0.0476   -3.1214    4.5047 C   0  0  0  0  0  0  0  0  0  0  0  0
    1.0689   -0.2238    3.1498 H   0  0  0  0  0  0  0  0  0  0  0  0
    0.1937   -1.1098    5.2509 H   0  0  0  0  0  0  0  0  0  0  0  0
    0.4191   -3.8091    3.7900 H   0  0  0  0  0  0  0  0  0  0  0  0
   -0.0276   -3.6030    5.4880 H   0  0  0  0  0  0  0  0  0  0  0  0
   -1.0944   -2.9941    4.2085 H   0  0  0  0  0  0  0  0  0  0  0  0
    2.3134   -2.1494    6.2676 N   0  0  0  0  0  0  0  0  0  0  0  0
    3.6112   -2.3543    6.8674 C   0  0  0  0  0  0  0  0  0  0  0  0
    1.5077   -2.1051    6.8846 H   0  0  0  0  0  0  0  0  0  0  0  0
    3.8188   -3.4324    6.9339 H   0  0  0  0  0  0  0  0  0  0  0  0
    4.3813   -1.8701    6.2490 H   0  0  0  0  0  0  0  0  0  0  0  0
    3.6220   -1.9160    7.8763 H   0  0  0  0  0  0  0  0  0  0  0  0
  1  3  1  0  0  0  0
  1  7  1  0  0  0  0
  1  2  2  0  0  0  0
 18 19  1  0  0  0  0
 19 24  1  0  0  0  0
 19 20  2  0  0  0  0
 25 26  1  0  0  0  0
 26 34  1  0  0  0  0
 26 27  2  0  0  0  0
  8  9  1  0  0  0  0
  9 17  1  0  0  0  0
  9 10  2  0  0  0  0
 25 28  1  0  0  0  0
  8 11  1  0  0  0  0
 34 35  1  0  0  0  0
 17 18  1  0  0  0  0
 24 25  1  0  0  0  0
  7  8  1  0  0  0  0
  3  4  1  0  0  0  0
  3  5  1  0  0  0  0
  3  6  1  0  0  0  0
 28 31  1  0  0  0  0
 28 32  1  0  0  0  0
 28 33  1  0  0  0  0
 11 14  1  0  0  0  0
 11 15  1  0  0  0  0
 11 16  1  0  0  0  0
 35 37  1  0  0  0  0
 35 38  1  0  0  0  0
 35 39  1  0  0  0  0
 18 22  1  0  0  0  0
 18 23  1  0  0  0  0
 25 30  1  0  0  0  0
  8 13  1  0  0  0  0
 34 36  1  0  0  0  0
 17 21  1  0  0  0  0
  7 12  1  0  0  0  0
 24 29  1  0  0  0  0
M  END
$$$$

  -OEChem-05262214473D

 39 38  0     1  0  0  0  0  0999 V2000
   -3.5200   -4.0268   -1.6943 C   0  0  0  0  0  0  0  0  0  0  0  0
   -2.8702   -4.8827   -1.1054 O   0  0  0  0  0  0  0  0  0  0  0  0
   -4.9704   -4.2579   -1.9614 C   0  0  0  0  0  0  0  0  0  0  0  0
   -5.1456   -4.7573   -2.9278 H   0  0  0  0  0  0  0  0  0  0  0  0
   -5.4379   -4.9112   -1.2072 H   0  0  0  0  0  0  0  0  0  0  0  0
   -5.5954   -3.3510   -1.9864 H   0  0  0  0  0  0  0  0  0  0  0  0
   -3.0424   -2.8131   -2.1606 N   0  0  0  0  0  0  0  0  0  0  0  0
   -1.6755   -2.3891   -2.0077 C   0  0  2  0  0  0  0  0  0  0  0  0
   -1.5782   -1.5673   -0.7292 C   0  0  0  0  0  0  0  0  0  0  0  0
   -2.5448   -1.0064   -0.2171 O   0  0  0  0  0  0  0  0  0  0  0  0
   -1.2087   -1.5823   -3.2094 C   0  0  0  0  0  0  0  0  0  0  0  0
   -3.6915   -2.1888   -2.6360 H   0  0  0  0  0  0  0  0  0  0  0  0
   -1.0721   -3.2977   -1.9053 H   0  0  0  0  0  0  0  0  0  0  0  0
   -1.8017   -0.6681   -3.3281 H   0  0  0  0  0  0  0  0  0  0  0  0
   -0.1601   -1.2849   -3.1045 H   0  0  0  0  0  0  0  0  0  0  0  0
   -1.3074   -2.1646   -4.1319 H   0  0  0  0  0  0  0  0  0  0  0  0
   -0.2835   -1.5112   -0.2725 N   0  0  0  0  0  0  0  0  0  0  0  0
    0.0769   -0.7658    0.9424 C   0  0  0  0  0  0  0  0  0  0  0  0
    0.3348   -1.7317    2.0705 C   0  0  0  0  0  0  0  0  0  0  0  0
    0.2438   -2.9506    1.9507 O   0  0  0  0  0  0  0  0  0  0  0  0
    0.4587   -2.0097   -0.7289 H   0  0  0  0  0  0  0  0  0  0  0  0
   -0.7455   -0.0962    1.2114 H   0  0  0  0  0  0  0  0  0  0  0  0
    0.9763   -0.1745    0.7474 H   0  0  0  0  0  0  0  0  0  0  0  0
    0.6802   -1.0687    3.2434 N   0  0  0  0  0  0  0  0  0  0  0  0
    0.9772   -1.7441    4.4791 C   0  0  2  0  0  0  0  0  0  0  0  0
    2.3826   -1.3436    4.9080 C   0  0  0  0  0  0  0  0  0  0  0  0
    3.2283   -0.9198    4.1229 O   0  0  0  0  0  0  0  0  0  0  0  0
    0.8650   -3.2530    4.3258 C   0  0  0  0  0  0  0  0  0  0  0  0
    0.7252   -0.0512    3.2270 H   0  0  0  0  0  0  0  0  0  0  0  0
    0.2528   -1.3847    5.2181 H   0  0  0  0  0  0  0  0  0  0  0  0
    1.5831   -3.6316    3.5893 H   0  0  0  0  0  0  0  0  0  0  0  0
    1.0633   -3.7640    5.2737 H   0  0  0  0  0  0  0  0  0  0  0  0
   -0.1378   -3.5370    3.9886 H   0  0  0  0  0  0  0  0  0  0  0  0
    2.5951   -1.5558    6.2630 N   0  0  0  0  0  0  0  0  0  0  0  0
    3.8536   -1.2657    6.9095 C   0  0  0  0  0  0  0  0  0  0  0  0
    1.8314   -1.8924    6.8418 H   0  0  0  0  0  0  0  0  0  0  0  0
    4.4817   -2.1688    6.9124 H   0  0  0  0  0  0  0  0  0  0  0  0
    4.3695   -0.4621    6.3636 H   0  0  0  0  0  0  0  0  0  0  0  0
    3.6682   -0.9449    7.9453 H   0  0  0  0  0  0  0  0  0  0  0  0
  1  3  1  0  0  0  0
  1  7  1  0  0  0  0
  1  2  2  0  0  0  0
 18 19  1  0  0  0  0
 19 24  1  0  0  0  0
 19 20  2  0  0  0  0
 25 26  1  0  0  0  0
 26 34  1  0  0  0  0
 26 27  2  0  0  0  0
  8  9  1  0  0  0  0
  9 17  1  0  0  0  0
  9 10  2  0  0  0  0
 25 28  1  0  0  0  0
  8 11  1  0  0  0  0
 34 35  1  0  0  0  0
 17 18  1  0  0  0  0
 24 25  1  0  0  0  0
  7  8  1  0  0  0  0
  3  4  1  0  0  0  0
  3  5  1  0  0  0  0
  3  6  1  0  0  0  0
 28 31  1  0  0  0  0
 28 32  1  0  0  0  0
 28 33  1  0  0  0  0
 11 14  1  0  0  0  0
 11 15  1  0  0  0  0
 11 16  1  0  0  0  0
 35 37  1  0  0  0  0
 35 38  1  0  0  0  0
 35 39  1  0  0  0  0
 18 22  1  0  0  0  0
 18 23  1  0  0  0  0
 25 30  1  0  0  0  0
  8 13  1  0  0  0  0
 34 36  1  0  0  0  0
 17 21  1  0  0  0  0
  7 12  1  0  0  0  0
 24 29  1  0  0  0  0
M  END
$$$$

  -OEChem-05262214473D

 39 38  0     1  0  0  0  0  0999 V2000
   -3.5200   -4.0268   -1.6943 C   0  0  0  0  0  0  0  0  0  0  0  0
   -2.8702   -4.8827   -1.1054 O   0  0  0  0  0  0  0  0  0  0  0  0
   -4.9704   -4.2579   -1.9614 C   0  0  0  0  0  0  0  0  0  0  0  0
   -5.1456   -4.7573   -2.9278 H   0  0  0  0  0  0  0  0  0  0  0  0
   -5.4379   -4.9112   -1.2072 H   0  0  0  0  0  0  0  0  0  0  0  0
   -5.5954   -3.3510   -1.9864 H   0  0  0  0  0  0  0  0  0  0  0  0
   -3.0424   -2.8131   -2.1606 N   0  0  0  0  0  0  0  0  0  0  0  0
   -1.6755   -2.3891   -2.0077 C   0  0  2  0  0  0  0  0  0  0  0  0
   -1.5782   -1.5673   -0.7292 C   0  0  0  0  0  0  0  0  0  0  0  0
   -2.5448   -1.0064   -0.2171 O   0  0  0  0  0  0  0  0  0  0  0  0
   -1.2087   -1.5823   -3.2094 C   0  0  0  0  0  0  0  0  0  0  0  0
   -3.6915   -2.1888   -2.6360 H   0  0  0  0  0  0  0  0  0  0  0  0
   -1.0721   -3.2977   -1.9053 H   0  0  0  0  0  0  0  0  0  0  0  0
   -1.8017   -0.6681   -3.3281 H   0  0  0  0  0  0  0  0  0  0  0  0
   -0.1601   -1.2849   -3.1045 H   0  0  0  0  0  0  0  0  0  0  0  0
   -1.3074   -2.1646   -4.1319 H   0  0  0  0  0  0  0  0  0  0  0  0
   -0.2835   -1.5112   -0.2725 N   0  0  0  0  0  0  0  0  0  0  0  0
    0.0769   -0.7658    0.9424 C   0  0  0  0  0  0  0  0  0  0  0  0
    0.3348   -1.7317    2.0705 C   0  0  0  0  0  0  0  0  0  0  0  0
    0.5068   -2.9361    1.9029 O   0  0  0  0  0  0  0  0  0  0  0  0
    0.4587   -2.0097   -0.7289 H   0  0  0  0  0  0  0  0  0  0  0  0
   -0.7455   -0.0962    1.2114 H   0  0  0  0  0  0  0  0  0  0  0  0
    0.9763   -0.1745    0.7474 H   0  0  0  0  0  0  0  0  0  0  0  0
    0.3484   -1.0875    3.3031 N   0  0  0  0  0  0  0  0  0  0  0  0
    0.5695   -1.7679    4.5520 C   0  0  2  0  0  0  0  0  0  0  0  0
    1.7800   -1.1345    5.2248 C   0  0  0  0  0  0  0  0  0  0  0  0
    2.6408   -0.5109    4.6074 O   0  0  0  0  0  0  0  0  0  0  0  0
    0.7836   -3.2585    4.3397 C   0  0  0  0  0  0  0  0  0  0  0  0
    0.1938   -0.0809    3.3231 H   0  0  0  0  0  0  0  0  0  0  0  0
   -0.3212   -1.5980    5.1667 H   0  0  0  0  0  0  0  0  0  0  0  0
    1.6717   -3.4484    3.7259 H   0  0  0  0  0  0  0  0  0  0  0  0
    0.9232   -3.7790    5.2929 H   0  0  0  0  0  0  0  0  0  0  0  0
   -0.0754   -3.7068    3.8289 H   0  0  0  0  0  0  0  0  0  0  0  0
    1.8086   -1.3841    6.5898 N   0  0  0  0  0  0  0  0  0  0  0  0
    2.8638   -0.9000    7.4490 C   0  0  0  0  0  0  0  0  0  0  0  0
    1.0431   -1.8942    7.0206 H   0  0  0  0  0  0  0  0  0  0  0  0
    3.6489   -1.6658    7.5334 H   0  0  0  0  0  0  0  0  0  0  0  0
    3.2922    0.0185    7.0215 H   0  0  0  0  0  0  0  0  0  0  0  0
    2.4539   -0.6837    8.4466 H   0  0  0  0  0  0  0  0  0  0  0  0
  1  3  1  0  0  0  0
  1  7  1  0  0  0  0
  1  2  2  0  0  0  0
 18 19  1  0  0  0  0
 19 24  1  0  0  0  0
 19 20  2  0  0  0  0
 25 26  1  0  0  0  0
 26 34  1  0  0  0  0
 26 27  2  0  0  0  0
  8  9  1  0  0  0  0
  9 17  1  0  0  0  0
  9 10  2  0  0  0  0
 25 28  1  0  0  0  0
  8 11  1  0  0  0  0
 34 35  1  0  0  0  0
 17 18  1  0  0  0  0
 24 25  1  0  0  0  0
  7  8  1  0  0  0  0
  3  4  1  0  0  0  0
  3  5  1  0  0  0  0
  3  6  1  0  0  0  0
 28 31  1  0  0  0  0
 28 32  1  0  0  0  0
 28 33  1  0  0  0  0
 11 14  1  0  0  0  0
 11 15  1  0  0  0  0
 11 16  1  0  0  0  0
 35 37  1  0  0  0  0
 35 38  1  0  0  0  0
 35 39  1  0  0  0  0
 18 22  1  0  0  0  0
 18 23  1  0  0  0  0
 25 30  1  0  0  0  0
  8 13  1  0  0  0  0
 34 36  1  0  0  0  0
 17 21  1  0  0  0  0
  7 12  1  0  0  0  0
 24 29  1  0  0  0  0
M  END
$$$$

  -OEChem-05262214473D

 39 38  0     1  0  0  0  0  0999 V2000
   -3.5200   -4.0268   -1.6943 C   0  0  0  0  0  0  0  0  0  0  0  0
   -2.8702   -4.8827   -1.1054 O   0  0  0  0  0  0  0  0  0  0  0  0
   -4.9704   -4.2579   -1.9614 C   0  0  0  0  0  0  0  0  0  0  0  0
   -5.1456   -4.7573   -2.9278 H   0  0  0  0  0  0  0  0  0  0  0  0
   -5.4379   -4.9112   -1.2072 H   0  0  0  0  0  0  0  0  0  0  0  0
   -5.5954   -3.3510   -1.9864 H   0  0  0  0  0  0  0  0  0  0  0  0
   -3.0424   -2.8131   -2.1606 N   0  0  0  0  0  0  0  0  0  0  0  0
   -1.6755   -2.3891   -2.0077 C   0  0  2  0  0  0  0  0  0  0  0  0
   -1.5782   -1.5673   -0.7292 C   0  0  0  0  0  0  0  0  0  0  0  0
   -2.5448   -1.0064   -0.2171 O   0  0  0  0  0  0  0  0  0  0  0  0
   -1.2087   -1.5823   -3.2094 C   0  0  0  0  0  0  0  0  0  0  0  0
   -3.6915   -2.1888   -2.6360 H   0  0  0  0  0  0  0  0  0  0  0  0
   -1.0721   -3.2977   -1.9053 H   0  0  0  0  0  0  0  0  0  0  0  0
   -1.8017   -0.6681   -3.3281 H   0  0  0  0  0  0  0  0  0  0  0  0
   -0.1601   -1.2849   -3.1045 H   0  0  0  0  0  0  0  0  0  0  0  0
   -1.3074   -2.1646   -4.1319 H   0  0  0  0  0  0  0  0  0  0  0  0
   -0.2835   -1.5112   -0.2725 N   0  0  0  0  0  0  0  0  0  0  0  0
    0.0769   -0.7658    0.9424 C   0  0  0  0  0  0  0  0  0  0  0  0
    0.3348   -1.7317    2.0705 C   0  0  0  0  0  0  0  0  0  0  0  0
    0.7660   -2.8691    1.9010 O   0  0  0  0  0  0  0  0  0  0  0  0
    0.4587   -2.0097   -0.7289 H   0  0  0  0  0  0  0  0  0  0  0  0
   -0.7455   -0.0962    1.2114 H   0  0  0  0  0  0  0  0  0  0  0  0
    0.9763   -0.1745    0.7474 H   0  0  0  0  0  0  0  0  0  0  0  0
    0.0218   -1.1726    3.3050 N   0  0  0  0  0  0  0  0  0  0  0  0
    0.1681   -1.8731    4.5537 C   0  0  2  0  0  0  0  0  0  0  0  0
    1.1049   -1.0632    5.4402 C   0  0  0  0  0  0  0  0  0  0  0  0
    1.9139   -0.2512    4.9960 O   0  0  0  0  0  0  0  0  0  0  0  0
    0.7038   -3.2801    4.3394 C   0  0  0  0  0  0  0  0  0  0  0  0
   -0.3298   -0.2168    3.3264 H   0  0  0  0  0  0  0  0  0  0  0  0
   -0.8259   -1.9131    5.0123 H   0  0  0  0  0  0  0  0  0  0  0  0
    1.6991   -3.2603    3.8807 H   0  0  0  0  0  0  0  0  0  0  0  0
    0.7876   -3.8215    5.2875 H   0  0  0  0  0  0  0  0  0  0  0  0
    0.0441   -3.8517    3.6775 H   0  0  0  0  0  0  0  0  0  0  0  0
    0.9615   -1.3852    6.7826 N   0  0  0  0  0  0  0  0  0  0  0  0
    1.7474   -0.7624    7.8221 C   0  0  0  0  0  0  0  0  0  0  0  0
    0.2524   -2.0565    7.0624 H   0  0  0  0  0  0  0  0  0  0  0  0
    2.6441   -1.3688    8.0175 H   0  0  0  0  0  0  0  0  0  0  0  0
    2.0493    0.2450    7.4996 H   0  0  0  0  0  0  0  0  0  0  0  0
    1.1473   -0.6888    8.7410 H   0  0  0  0  0  0  0  0  0  0  0  0
  1  3  1  0  0  0  0
  1  7  1  0  0  0  0
  1  2  2  0  0  0  0
 18 19  1  0  0  0  0
 19 24  1  0  0  0  0
 19 20  2  0  0  0  0
 25 26  1  0  0  0  0
 26 34  1  0  0  0  0
 26 27  2  0  0  0  0
  8  9  1  0  0  0  0
  9 17  1  0  0  0  0
  9 10  2  0  0  0  0
 25 28  1  0  0  0  0
  8 11  1  0  0  0  0
 34 35  1  0  0  0  0
 17 18  1  0  0  0  0
 24 25  1  0  0  0  0
  7  8  1  0  0  0  0
  3  4  1  0  0  0  0
  3  5  1  0  0  0  0
  3  6  1  0  0  0  0
 28 31  1  0  0  0  0
 28 32  1  0  0  0  0
 28 33  1  0  0  0  0
 11 14  1  0  0  0  0
 11 15  1  0  0  0  0
 11 16  1  0  0  0  0
 35 37  1  0  0  0  0
 35 38  1  0  0  0  0
 35 39  1  0  0  0  0
 18 22  1  0  0  0  0
 18 23  1  0  0  0  0
 25 30  1  0  0  0  0
  8 13  1  0  0  0  0
 34 36  1  0  0  0  0
 17 21  1  0  0  0  0
  7 12  1  0  0  0  0
 24 29  1  0  0  0  0
M  END
$$$$

  -OEChem-05262214473D

 39 38  0     1  0  0  0  0  0999 V2000
   -3.5200   -4.0268   -1.6943 C   0  0  0  0  0  0  0  0  0  0  0  0
   -2.8702   -4.8827   -1.1054 O   0  0  0  0  0  0  0  0  0  0  0  0
   -4.9704   -4.2579   -1.9614 C   0  0  0  0  0  0  0  0  0  0  0  0
   -5.1456   -4.7573   -2.9278 H   0  0  0  0  0  0  0  0  0  0  0  0
   -5.4379   -4.9112   -1.2072 H   0  0  0  0  0  0  0  0  0  0  0  0
   -5.5954   -3.3510   -1.9864 H   0  0  0  0  0  0  0  0  0  0  0  0
   -3.0424   -2.8131   -2.1606 N   0  0  0  0  0  0  0  0  0  0  0  0
   -1.6755   -2.3891   -2.0077 C   0  0  2  0  0  0  0  0  0  0  0  0
   -1.5782   -1.5673   -0.7292 C   0  0  0  0  0  0  0  0  0  0  0  0
   -2.5448   -1.0064   -0.2171 O   0  0  0  0  0  0  0  0  0  0  0  0
   -1.2087   -1.5823   -3.2094 C   0  0  0  0  0  0  0  0  0  0  0  0
   -3.6915   -2.1888   -2.6360 H   0  0  0  0  0  0  0  0  0  0  0  0
   -1.0721   -3.2977   -1.9053 H   0  0  0  0  0  0  0  0  0  0  0  0
   -1.8017   -0.6681   -3.3281 H   0  0  0  0  0  0  0  0  0  0  0  0
   -0.1601   -1.2849   -3.1045 H   0  0  0  0  0  0  0  0  0  0  0  0
   -1.3074   -2.1646   -4.1319 H   0  0  0  0  0  0  0  0  0  0  0  0
   -0.2835   -1.5112   -0.2725 N   0  0  0  0  0  0  0  0  0  0  0  0
    0.0769   -0.7658    0.9424 C   0  0  0  0  0  0  0  0  0  0  0  0
    0.3348   -1.7317    2.0705 C   0  0  0  0  0  0  0  0  0  0  0  0
    1.0037   -2.7541    1.9452 O   0  0  0  0  0  0  0  0  0  0  0  0
    0.4587   -2.0097   -0.7289 H   0  0  0  0  0  0  0  0  0  0  0  0
   -0.7455   -0.0962    1.2114 H   0  0  0  0  0  0  0  0  0  0  0  0
    0.9763   -0.1745    0.7474 H   0  0  0  0  0  0  0  0  0  0  0  0
   -0.2776   -1.3182    3.2488 N   0  0  0  0  0  0  0  0  0  0  0  0
   -0.1994   -2.0525    4.4842 C   0  0  2  0  0  0  0  0  0  0  0  0
    0.4033   -1.1346    5.5395 C   0  0  0  0  0  0  0  0  0  0  0  0
    1.0969   -0.1583    5.2623 O   0  0  0  0  0  0  0  0  0  0  0  0
    0.6309   -3.3165    4.3249 C   0  0  0  0  0  0  0  0  0  0  0  0
   -0.8097   -0.4496    3.2368 H   0  0  0  0  0  0  0  0  0  0  0  0
   -1.2267   -2.3083    4.7656 H   0  0  0  0  0  0  0  0  0  0  0  0
    1.6635   -3.0802    4.0430 H   0  0  0  0  0  0  0  0  0  0  0  0
    0.6657   -3.8886    5.2580 H   0  0  0  0  0  0  0  0  0  0  0  0
    0.2128   -3.9617    3.5447 H   0  0  0  0  0  0  0  0  0  0  0  0
    0.1114   -1.5588    6.8283 N   0  0  0  0  0  0  0  0  0  0  0  0
    0.5805   -0.8623    8.0034 C   0  0  0  0  0  0  0  0  0  0  0  0
   -0.4868   -2.3683    6.9645 H   0  0  0  0  0  0  0  0  0  0  0  0
    1.5358   -1.2980    8.3316 H   0  0  0  0  0  0  0  0  0  0  0  0
    0.7256    0.2018    7.7653 H   0  0  0  0  0  0  0  0  0  0  0  0
   -0.1626   -0.9599    8.8085 H   0  0  0  0  0  0  0  0  0  0  0  0
  1  3  1  0  0  0  0
  1  7  1  0  0  0  0
  1  2  2  0  0  0  0
 18 19  1  0  0  0  0
 19 24  1  0  0  0  0
 19 20  2  0  0  0  0
 25 26  1  0  0  0  0
 26 34  1  0  0  0  0
 26 27  2  0  0  0  0
  8  9  1  0  0  0  0
  9 17  1  0  0  0  0
  9 10  2  0  0  0  0
 25 28  1  0  0  0  0
  8 11  1  0  0  0  0
 34 35  1  0  0  0  0
 17 18  1  0  0  0  0
 24 25  1  0  0  0  0
  7  8  1  0  0  0  0
  3  4  1  0  0  0  0
  3  5  1  0  0  0  0
  3  6  1  0  0  0  0
 28 31  1  0  0  0  0
 28 32  1  0  0  0  0
 28 33  1  0  0  0  0
 11 14  1  0  0  0  0
 11 15  1  0  0  0  0
 11 16  1  0  0  0  0
 35 37  1  0  0  0  0
 35 38  1  0  0  0  0
 35 39  1  0  0  0  0
 18 22  1  0  0  0  0
 18 23  1  0  0  0  0
 25 30  1  0  0  0  0
  8 13  1  0  0  0  0
 34 36  1  0  0  0  0
 17 21  1  0  0  0  0
  7 12  1  0  0  0  0
 24 29  1  0  0  0  0
M  END
$$$$

  -OEChem-05262214473D

 39 38  0     1  0  0  0  0  0999 V2000
   -3.5200   -4.0268   -1.6943 C   0  0  0  0  0  0  0  0  0  0  0  0
   -2.8702   -4.8827   -1.1054 O   0  0  0  0  0  0  0  0  0  0  0  0
   -4.9704   -4.2579   -1.9614 C   0  0  0  0  0  0  0  0  0  0  0  0
   -5.1456   -4.7573   -2.9278 H   0  0  0  0  0  0  0  0  0  0  0  0
   -5.4379   -4.9112   -1.2072 H   0  0  0  0  0  0  0  0  0  0  0  0
   -5.5954   -3.3510   -1.9864 H   0  0  0  0  0  0  0  0  0  0  0  0
   -3.0424   -2.8131   -2.1606 N   0  0  0  0  0  0  0  0  0  0  0  0
   -1.6755   -2.3891   -2.0077 C   0  0  2  0  0  0  0  0  0  0  0  0
   -1.5782   -1.5673   -0.7292 C   0  0  0  0  0  0  0  0  0  0  0  0
   -2.5448   -1.0064   -0.2171 O   0  0  0  0  0  0  0  0  0  0  0  0
   -1.2087   -1.5823   -3.2094 C   0  0  0  0  0  0  0  0  0  0  0  0
   -3.6915   -2.1888   -2.6360 H   0  0  0  0  0  0  0  0  0  0  0  0
   -1.0721   -3.2977   -1.9053 H   0  0  0  0  0  0  0  0  0  0  0  0
   -1.8017   -0.6681   -3.3281 H   0  0  0  0  0  0  0  0  0  0  0  0
   -0.1601   -1.2849   -3.1045 H   0  0  0  0  0  0  0  0  0  0  0  0
   -1.3074   -2.1646   -4.1319 H   0  0  0  0  0  0  0  0  0  0  0  0
   -0.2835   -1.5112   -0.2725 N   0  0  0  0  0  0  0  0  0  0  0  0
    0.0769   -0.7658    0.9424 C   0  0  0  0  0  0  0  0  0  0  0  0
    0.3348   -1.7317    2.0705 C   0  0  0  0  0  0  0  0  0  0  0  0
    1.2036   -2.5989    2.0323 O   0  0  0  0  0  0  0  0  0  0  0  0
    0.4587   -2.0097   -0.7289 H   0  0  0  0  0  0  0  0  0  0  0  0
   -0.7455   -0.0962    1.2114 H   0  0  0  0  0  0  0  0  0  0  0  0
    0.9763   -0.1745    0.7474 H   0  0  0  0  0  0  0  0  0  0  0  0
   -0.5293   -1.5143    3.1385 N   0  0  0  0  0  0  0  0  0  0  0  0
   -0.5082   -2.2939    4.3481 C   0  0  2  0  0  0  0  0  0  0  0  0
   -0.2770   -1.3439    5.5159 C   0  0  0  0  0  0  0  0  0  0  0  0
    0.2457   -0.2387    5.3881 O   0  0  0  0  0  0  0  0  0  0  0  0
    0.5700   -3.3652    4.2972 C   0  0  0  0  0  0  0  0  0  0  0  0
   -1.2133   -0.7635    3.0604 H   0  0  0  0  0  0  0  0  0  0  0  0
   -1.4965   -2.7568    4.4433 H   0  0  0  0  0  0  0  0  0  0  0  0
    1.5672   -2.9203    4.2019 H   0  0  0  0  0  0  0  0  0  0  0  0
    0.5659   -3.9757    5.2062 H   0  0  0  0  0  0  0  0  0  0  0  0
    0.4191   -4.0295    3.4395 H   0  0  0  0  0  0  0  0  0  0  0  0
   -0.6837   -1.8932    6.7238 N   0  0  0  0  0  0  0  0  0  0  0  0
   -0.5573   -1.1928    7.9806 C   0  0  0  0  0  0  0  0  0  0  0  0
   -1.1242   -2.8084    6.7334 H   0  0  0  0  0  0  0  0  0  0  0  0
    0.3994   -1.4582    8.4542 H   0  0  0  0  0  0  0  0  0  0  0  0
   -0.5887   -0.1081    7.8005 H   0  0  0  0  0  0  0  0  0  0  0  0
   -1.3866   -1.4784    8.6444 H   0  0  0  0  0  0  0  0  0  0  0  0
  1  3  1  0  0  0  0
  1  7  1  0  0  0  0
  1  2  2  0  0  0  0
 18 19  1  0  0  0  0
 19 24  1  0  0  0  0
 19 20  2  0  0  0  0
 25 26  1  0  0  0  0
 26 34  1  0  0  0  0
 26 27  2  0  0  0  0
  8  9  1  0  0  0  0
  9 17  1  0  0  0  0
  9 10  2  0  0  0  0
 25 28  1  0  0  0  0
  8 11  1  0  0  0  0
 34 35  1  0  0  0  0
 17 18  1  0  0  0  0
 24 25  1  0  0  0  0
  7  8  1  0  0  0  0
  3  4  1  0  0  0  0
  3  5  1  0  0  0  0
  3  6  1  0  0  0  0
 28 31  1  0  0  0  0
 28 32  1  0  0  0  0
 28 33  1  0  0  0  0
 11 14  1  0  0  0  0
 11 15  1  0  0  0  0
 11 16  1  0  0  0  0
 35 37  1  0  0  0  0
 35 38  1  0  0  0  0
 35 39  1  0  0  0  0
 18 22  1  0  0  0  0
 18 23  1  0  0  0  0
 25 30  1  0  0  0  0
  8 13  1  0  0  0  0
 34 36  1  0  0  0  0
 17 21  1  0  0  0  0
  7 12  1  0  0  0  0
 24 29  1  0  0  0  0
M  END
$$$$

  -OEChem-05262214473D

 39 38  0     1  0  0  0  0  0999 V2000
   -3.5200   -4.0268   -1.6943 C   0  0  0  0  0  0  0  0  0  0  0  0
   -2.8702   -4.8827   -1.1054 O   0  0  0  0  0  0  0  0  0  0  0  0
   -4.9704   -4.2579   -1.9614 C   0  0  0  0  0  0  0  0  0  0  0  0
   -5.1456   -4.7573   -2.9278 H   0  0  0  0  0  0  0  0  0  0  0  0
   -5.4379   -4.9112   -1.2072 H   0  0  0  0  0  0  0  0  0  0  0  0
   -5.5954   -3.3510   -1.9864 H   0  0  0  0  0  0  0  0  0  0  0  0
   -3.0424   -2.8131   -2.1606 N   0  0  0  0  0  0  0  0  0  0  0  0
   -1.6755   -2.3891   -2.0077 C   0  0  2  0  0  0  0  0  0  0  0  0
   -1.5782   -1.5673   -0.7292 C   0  0  0  0  0  0  0  0  0  0  0  0
   -2.5448   -1.0064   -0.2171 O   0  0  0  0  0  0  0  0  0  0  0  0
   -1.2087   -1.5823   -3.2094 C   0  0  0  0  0  0  0  0  0  0  0  0
   -3.6915   -2.1888   -2.6360 H   0  0  0  0  0  0  0  0  0  0  0  0
   -1.0721   -3.2977   -1.9053 H   0  0  0  0  0  0  0  0  0  0  0  0
   -1.8017   -0.6681   -3.3281 H   0  0  0  0  0  0  0  0  0  0  0  0
   -0.1601   -1.2849   -3.1045 H   0  0  0  0  0  0  0  0  0  0  0  0
   -1.3074   -2.1646   -4.1319 H   0  0  0  0  0  0  0  0  0  0  0  0
   -0.2835   -1.5112   -0.2725 N   0  0  0  0  0  0  0  0  0  0  0  0
    0.0769   -0.7658    0.9424 C   0  0  0  0  0  0  0  0  0  0  0  0
    0.3348   -1.7317    2.0705 C   0  0  0  0  0  0  0  0  0  0  0  0
    1.3523   -2.4141    2.1565 O   0  0  0  0  0  0  0  0  0  0  0  0
    0.4587   -2.0097   -0.7289 H   0  0  0  0  0  0  0  0  0  0  0  0
   -0.7455   -0.0962    1.2114 H   0  0  0  0  0  0  0  0  0  0  0  0
    0.9763   -0.1745    0.7474 H   0  0  0  0  0  0  0  0  0  0  0  0
   -0.7161   -1.7475    2.9815 N   0  0  0  0  0  0  0  0  0  0  0  0
   -0.7371   -2.5808    4.1547 C   0  0  2  0  0  0  0  0  0  0  0  0
   -0.8897   -1.6768    5.3709 C   0  0  0  0  0  0  0  0  0  0  0  0
   -0.5819   -0.4868    5.3650 O   0  0  0  0  0  0  0  0  0  0  0  0
    0.5251   -3.4227    4.2582 C   0  0  0  0  0  0  0  0  0  0  0  0
   -1.5131   -1.1370    2.8091 H   0  0  0  0  0  0  0  0  0  0  0  0
   -1.6166   -3.2279    4.0673 H   0  0  0  0  0  0  0  0  0  0  0  0
    1.4170   -2.7916    4.3465 H   0  0  0  0  0  0  0  0  0  0  0  0
    0.4949   -4.0768    5.1358 H   0  0  0  0  0  0  0  0  0  0  0  0
    0.6489   -4.0504    3.3691 H   0  0  0  0  0  0  0  0  0  0  0  0
   -1.3695   -2.3656    6.4762 N   0  0  0  0  0  0  0  0  0  0  0  0
   -1.5886   -1.7314    7.7552 C   0  0  0  0  0  0  0  0  0  0  0  0
   -1.6164   -3.3466    6.3851 H   0  0  0  0  0  0  0  0  0  0  0  0
   -0.6876   -1.8385    8.3772 H   0  0  0  0  0  0  0  0  0  0  0  0
   -1.8040   -0.6636    7.6028 H   0  0  0  0  0  0  0  0  0  0  0  0
   -2.4413   -2.2091    8.2599 H   0  0  0  0  0  0  0  0  0  0  0  0
  1  3  1  0  0  0  0
  1  7  1  0  0  0  0
  1  2  2  0  0  0  0
 18 19  1  0  0  0  0
 19 24  1  0  0  0  0
 19 20  2  0  0  0  0
 25 26  1  0  0  0  0
 26 34  1  0  0  0  0
 26 27  2  0  0  0  0
  8  9  1  0  0  0  0
  9 17  1  0  0  0  0
  9 10  2  0  0  0  0
 25 28  1  0  0  0  0
  8 11  1  0  0  0  0
 34 35  1  0  0  0  0
 17 18  1  0  0  0  0
 24 25  1  0  0  0  0
  7  8  1  0  0  0  0
  3  4  1  0  0  0  0
  3  5  1  0  0  0  0
  3  6  1  0  0  0  0
 28 31  1  0  0  0  0
 28 32  1  0  0  0  0
 28 33  1  0  0  0  0
 11 14  1  0  0  0  0
 11 15  1  0  0  0  0
 11 16  1  0  0  0  0
 35 37  1  0  0  0  0
 35 38  1  0  0  0  0
 35 39  1  0  0  0  0
 18 22  1  0  0  0  0
 18 23  1  0  0  0  0
 25 30  1  0  0  0  0
  8 13  1  0  0  0  0
 34 36  1  0  0  0  0
 17 21  1  0  0  0  0
  7 12  1  0  0  0  0
 24 29  1  0  0  0  0
M  END
$$$$

  -OEChem-05262214473D

 39 38  0     1  0  0  0  0  0999 V2000
   -3.5200   -4.0268   -1.6943 C   0  0  0  0  0  0  0  0  0  0  0  0
   -2.8702   -4.8827   -1.1054 O   0  0  0  0  0  0  0  0  0  0  0  0
   -4.9704   -4.2579   -1.9614 C   0  0  0  0  0  0  0  0  0  0  0  0
   -5.1456   -4.7573   -2.9278 H   0  0  0  0  0  0  0  0  0  0  0  0
   -5.4379   -4.9112   -1.2072 H   0  0  0  0  0  0  0  0  0  0  0  0
   -5.5954   -3.3510   -1.9864 H   0  0  0  0  0  0  0  0  0  0  0  0
   -3.0424   -2.8131   -2.1606 N   0  0  0  0  0  0  0  0  0  0  0  0
   -1.6755   -2.3891   -2.0077 C   0  0  2  0  0  0  0  0  0  0  0  0
   -1.5782   -1.5673   -0.7292 C   0  0  0  0  0  0  0  0  0  0  0  0
   -2.5448   -1.0064   -0.2171 O   0  0  0  0  0  0  0  0  0  0  0  0
   -1.2087   -1.5823   -3.2094 C   0  0  0  0  0  0  0  0  0  0  0  0
   -3.6915   -2.1888   -2.6360 H   0  0  0  0  0  0  0  0  0  0  0  0
   -1.0721   -3.2977   -1.9053 H   0  0  0  0  0  0  0  0  0  0  0  0
   -1.8017   -0.6681   -3.3281 H   0  0  0  0  0  0  0  0  0  0  0  0
   -0.1601   -1.2849   -3.1045 H   0  0  0  0  0  0  0  0  0  0  0  0
   -1.3074   -2.1646   -4.1319 H   0  0  0  0  0  0  0  0  0  0  0  0
   -0.2835   -1.5112   -0.2725 N   0  0  0  0  0  0  0  0  0  0  0  0
    0.0769   -0.7658    0.9424 C   0  0  0  0  0  0  0  0  0  0  0  0
    0.3348   -1.7317    2.0705 C   0  0  0  0  0  0  0  0  0  0  0  0
    1.4395   -2.2124    2.3094 O   0  0  0  0  0  0  0  0  0  0  0  0
    0.4587   -2.0097   -0.7289 H   0  0  0  0  0  0  0  0  0  0  0  0
   -0.7455   -0.0962    1.2114 H   0  0  0  0  0  0  0  0  0  0  0  0
    0.9763   -0.1745    0.7474 H   0  0  0  0  0  0  0  0  0  0  0  0
   -0.8253   -2.0021    2.7885 N   0  0  0  0  0  0  0  0  0  0  0  0
   -0.8706   -2.8937    3.9173 C   0  0  2  0  0  0  0  0  0  0  0  0
   -1.3930   -2.1107    5.1145 C   0  0  0  0  0  0  0  0  0  0  0  0
   -1.3294   -0.8857    5.1944 O   0  0  0  0  0  0  0  0  0  0  0  0
    0.4994   -3.4852    4.2105 C   0  0  0  0  0  0  0  0  0  0  0  0
   -1.6886   -1.5448    2.5001 H   0  0  0  0  0  0  0  0  0  0  0  0
   -1.5791   -3.6897    3.6634 H   0  0  0  0  0  0  0  0  0  0  0  0
    1.2229   -2.7027    4.4670 H   0  0  0  0  0  0  0  0  0  0  0  0
    0.4577   -4.1852    5.0516 H   0  0  0  0  0  0  0  0  0  0  0  0
    0.8866   -4.0229    3.3383 H   0  0  0  0  0  0  0  0  0  0  0  0
   -1.8994   -2.9437    6.1023 N   0  0  0  0  0  0  0  0  0  0  0  0
   -2.4430   -2.4415    7.3426 C   0  0  0  0  0  0  0  0  0  0  0  0
   -1.9297   -3.9465    5.9432 H   0  0  0  0  0  0  0  0  0  0  0  0
   -1.6512   -2.4130    8.1056 H   0  0  0  0  0  0  0  0  0  0  0  0
   -2.8375   -1.4267    7.1856 H   0  0  0  0  0  0  0  0  0  0  0  0
   -3.2547   -3.1022    7.6812 H   0  0  0  0  0  0  0  0  0  0  0  0
  1  3  1  0  0  0  0
  1  7  1  0  0  0  0
  1  2  2  0  0  0  0
 18 19  1  0  0  0  0
 19 24  1  0  0  0  0
 19 20  2  0  0  0  0
 25 26  1  0  0  0  0
 26 34  1  0  0  0  0
 26 27  2  0  0  0  0
  8  9  1  0  0  0  0
  9 17  1  0  0  0  0
  9 10  2  0  0  0  0
 25 28  1  0  0  0  0
  8 11  1  0  0  0  0
 34 35  1  0  0  0  0
 17 18  1  0  0  0  0
 24 25  1  0  0  0  0
  7  8  1  0  0  0  0
  3  4  1  0  0  0  0
  3  5  1  0  0  0  0
  3  6  1  0  0  0  0
 28 31  1  0  0  0  0
 28 32  1  0  0  0  0
 28 33  1  0  0  0  0
 11 14  1  0  0  0  0
 11 15  1  0  0  0  0
 11 16  1  0  0  0  0
 35 37  1  0  0  0  0
 35 38  1  0  0  0  0
 35 39  1  0  0  0  0
 18 22  1  0  0  0  0
 18 23  1  0  0  0  0
 25 30  1  0  0  0  0
  8 13  1  0  0  0  0
 34 36  1  0  0  0  0
 17 21  1  0  0  0  0
  7 12  1  0  0  0  0
 24 29  1  0  0  0  0
M  END
$$$$

  -OEChem-05262214473D

 39 38  0     1  0  0  0  0  0999 V2000
   -3.5200   -4.0268   -1.6943 C   0  0  0  0  0  0  0  0  0  0  0  0
   -2.8702   -4.8827   -1.1054 O   0  0  0  0  0  0  0  0  0  0  0  0
   -4.9704   -4.2579   -1.9614 C   0  0  0  0  0  0  0  0  0  0  0  0
   -5.1456   -4.7573   -2.9278 H   0  0  0  0  0  0  0  0  0  0  0  0
   -5.4379   -4.9112   -1.2072 H   0  0  0  0  0  0  0  0  0  0  0  0
   -5.5954   -3.3510   -1.9864 H   0  0  0  0  0  0  0  0  0  0  0  0
   -3.0424   -2.8131   -2.1606 N   0  0  0  0  0  0  0  0  0  0  0  0
   -1.6755   -2.3891   -2.0077 C   0  0  2  0  0  0  0  0  0  0  0  0
   -1.5782   -1.5673   -0.7292 C   0  0  0  0  0  0  0  0  0  0  0  0
   -2.5448   -1.0064   -0.2171 O   0  0  0  0  0  0  0  0  0  0  0  0
   -1.2087   -1.5823   -3.2094 C   0  0  0  0  0  0  0  0  0  0  0  0
   -3.6915   -2.1888   -2.6360 H   0  0  0  0  0  0  0  0  0  0  0  0
   -1.0721   -3.2977   -1.9053 H   0  0  0  0  0  0  0  0  0  0  0  0
   -1.8017   -0.6681   -3.3281 H   0  0  0  0  0  0  0  0  0  0  0  0
   -0.1601   -1.2849   -3.1045 H   0  0  0  0  0  0  0  0  0  0  0  0
   -1.3074   -2.1646   -4.1319 H   0  0  0  0  0  0  0  0  0  0  0  0
   -0.2835   -1.5112   -0.2725 N   0  0  0  0  0  0  0  0  0  0  0  0
    0.0769   -0.7658    0.9424 C   0  0  0  0  0  0  0  0  0  0  0  0
    0.3348   -1.7317    2.0705 C   0  0  0  0  0  0  0  0  0  0  0  0
    1.4593   -2.0073    2.4804 O   0  0  0  0  0  0  0  0  0  0  0  0
    0.4587   -2.0097   -0.7289 H   0  0  0  0  0  0  0  0  0  0  0  0
   -0.7455   -0.0962    1.2114 H   0  0  0  0  0  0  0  0  0  0  0  0
    0.9763   -0.1745    0.7474 H   0  0  0  0  0  0  0  0  0  0  0  0
   -0.8495   -2.2605    2.5727 N   0  0  0  0  0  0  0  0  0  0  0  0
   -0.8995   -3.2114    3.6520 C   0  0  2  0  0  0  0  0  0  0  0  0
   -1.7526   -2.6158    4.7642 C   0  0  0  0  0  0  0  0  0  0  0  0
   -1.9458   -1.4082    4.8879 O   0  0  0  0  0  0  0  0  0  0  0  0
    0.4946   -3.5485    4.1575 C   0  0  0  0  0  0  0  0  0  0  0  0
   -1.7280   -1.9589    2.1545 H   0  0  0  0  0  0  0  0  0  0  0  0
   -1.3865   -4.1105    3.2590 H   0  0  0  0  0  0  0  0  0  0  0  0
    0.9983   -2.6598    4.5551 H   0  0  0  0  0  0  0  0  0  0  0  0
    0.4566   -4.2933    4.9592 H   0  0  0  0  0  0  0  0  0  0  0  0
    1.1160   -3.9489    3.3492 H   0  0  0  0  0  0  0  0  0  0  0  0
   -2.2373   -3.5883    5.6277 N   0  0  0  0  0  0  0  0  0  0  0  0
   -3.0623   -3.2746    6.7709 C   0  0  0  0  0  0  0  0  0  0  0  0
   -2.0429   -4.5670    5.4377 H   0  0  0  0  0  0  0  0  0  0  0  0
   -2.4255   -3.1425    7.6581 H   0  0  0  0  0  0  0  0  0  0  0  0
   -3.6188   -2.3456    6.5775 H   0  0  0  0  0  0  0  0  0  0  0  0
   -3.7714   -4.0967    6.9478 H   0  0  0  0  0  0  0  0  0  0  0  0
  1  3  1  0  0  0  0
  1  7  1  0  0  0  0
  1  2  2  0  0  0  0
 18 19  1  0  0  0  0
 19 24  1  0  0  0  0
 19 20  2  0  0  0  0
 25 26  1  0  0  0  0
 26 34  1  0  0  0  0
 26 27  2  0  0  0  0
  8  9  1  0  0  0  0
  9 17  1  0  0  0  0
  9 10  2  0  0  0  0
 25 28  1  0  0  0  0
  8 11  1  0  0  0  0
 34 35  1  0  0  0  0
 17 18  1  0  0  0  0
 24 25  1  0  0  0  0
  7  8  1  0  0  0  0
  3  4  1  0  0  0  0
  3  5  1  0  0  0  0
  3  6  1  0  0  0  0
 28 31  1  0  0  0  0
 28 32  1  0  0  0  0
 28 33  1  0  0  0  0
 11 14  1  0  0  0  0
 11 15  1  0  0  0  0
 11 16  1  0  0  0  0
 35 37  1  0  0  0  0
 35 38  1  0  0  0  0
 35 39  1  0  0  0  0
 18 22  1  0  0  0  0
 18 23  1  0  0  0  0
 25 30  1  0  0  0  0
  8 13  1  0  0  0  0
 34 36  1  0  0  0  0
 17 21  1  0  0  0  0
  7 12  1  0  0  0  0
 24 29  1  0  0  0  0
M  END
$$$$

  -OEChem-05262214473D

 39 38  0     1  0  0  0  0  0999 V2000
   -3.5200   -4.0268   -1.6943 C   0  0  0  0  0  0  0  0  0  0  0  0
   -2.8702   -4.8827   -1.1054 O   0  0  0  0  0  0  0  0  0  0  0  0
   -4.9704   -4.2579   -1.9614 C   0  0  0  0  0  0  0  0  0  0  0  0
   -5.1456   -4.7573   -2.9278 H   0  0  0  0  0  0  0  0  0  0  0  0
   -5.4379   -4.9112   -1.2072 H   0  0  0  0  0  0  0  0  0  0  0  0
   -5.5954   -3.3510   -1.9864 H   0  0  0  0  0  0  0  0  0  0  0  0
   -3.0424   -2.8131   -2.1606 N   0  0  0  0  0  0  0  0  0  0  0  0
   -1.6755   -2.3891   -2.0077 C   0  0  2  0  0  0  0  0  0  0  0  0
   -1.5782   -1.5673   -0.7292 C   0  0  0  0  0  0  0  0  0  0  0  0
   -2.5448   -1.0064   -0.2171 O   0  0  0  0  0  0  0  0  0  0  0  0
   -1.2087   -1.5823   -3.2094 C   0  0  0  0  0  0  0  0  0  0  0  0
   -3.6915   -2.1888   -2.6360 H   0  0  0  0  0  0  0  0  0  0  0  0
   -1.0721   -3.2977   -1.9053 H   0  0  0  0  0  0  0  0  0  0  0  0
   -1.8017   -0.6681   -3.3281 H   0  0  0  0  0  0  0  0  0  0  0  0
   -0.1601   -1.2849   -3.1045 H   0  0  0  0  0  0  0  0  0  0  0  0
   -1.3074   -2.1646   -4.1319 H   0  0  0  0  0  0  0  0  0  0  0  0
   -0.2835   -1.5112   -0.2725 N   0  0  0  0  0  0  0  0  0  0  0  0
    0.0769   -0.7658    0.9424 C   0  0  0  0  0  0  0  0  0  0  0  0
    0.3348   -1.7317    2.0705 C   0  0  0  0  0  0  0  0  0  0  0  0
    1.4104   -1.8130    2.6579 O   0  0  0  0  0  0  0  0  0  0  0  0
    0.4587   -2.0097   -0.7289 H   0  0  0  0  0  0  0  0  0  0  0  0
   -0.7455   -0.0962    1.2114 H   0  0  0  0  0  0  0  0  0  0  0  0
    0.9763   -0.1745    0.7474 H   0  0  0  0  0  0  0  0  0  0  0  0
   -0.7870   -2.5053    2.3488 N   0  0  0  0  0  0  0  0  0  0  0  0
   -0.8219   -3.5120    3.3768 C   0  0  2  0  0  0  0  0  0  0  0  0
   -1.9439   -3.1579    4.3438 C   0  0  0  0  0  0  0  0  0  0  0  0
   -2.3892   -2.0187    4.4665 O   0  0  0  0  0  0  0  0  0  0  0  0
    0.5110   -3.6082    4.1026 C   0  0  0  0  0  0  0  0  0  0  0  0
   -1.6284   -2.3513    1.7957 H   0  0  0  0  0  0  0  0  0  0  0  0
   -1.0518   -4.4618    2.8817 H   0  0  0  0  0  0  0  0  0  0  0  0
    0.7583   -2.6658    4.6048 H   0  0  0  0  0  0  0  0  0  0  0  0
    0.4919   -4.3939    4.8650 H   0  0  0  0  0  0  0  0  0  0  0  0
    1.3215   -3.8335    3.4010 H   0  0  0  0  0  0  0  0  0  0  0  0
   -2.3601   -4.2553    5.0847 N   0  0  0  0  0  0  0  0  0  0  0  0
   -3.4044   -4.1739    6.0791 C   0  0  0  0  0  0  0  0  0  0  0  0
   -1.9482   -5.1659    4.9033 H   0  0  0  0  0  0  0  0  0  0  0  0
   -2.9580   -3.9773    7.0650 H   0  0  0  0  0  0  0  0  0  0  0  0
   -4.0946   -3.3576    5.8199 H   0  0  0  0  0  0  0  0  0  0  0  0
   -3.9563   -5.1250    6.1097 H   0  0  0  0  0  0  0  0  0  0  0  0
  1  3  1  0  0  0  0
  1  7  1  0  0  0  0
  1  2  2  0  0  0  0
 18 19  1  0  0  0  0
 19 24  1  0  0  0  0
 19 20  2  0  0  0  0
 25 26  1  0  0  0  0
 26 34  1  0  0  0  0
 26 27  2  0  0  0  0
  8  9  1  0  0  0  0
  9 17  1  0  0  0  0
  9 10  2  0  0  0  0
 25 28  1  0  0  0  0
  8 11  1  0  0  0  0
 34 35  1  0  0  0  0
 17 18  1  0  0  0  0
 24 25  1  0  0  0  0
  7  8  1  0  0  0  0
  3  4  1  0  0  0  0
  3  5  1  0  0  0  0
  3  6  1  0  0  0  0
 28 31  1  0  0  0  0
 28 32  1  0  0  0  0
 28 33  1  0  0  0  0
 11 14  1  0  0  0  0
 11 15  1  0  0  0  0
 11 16  1  0  0  0  0
 35 37  1  0  0  0  0
 35 38  1  0  0  0  0
 35 39  1  0  0  0  0
 18 22  1  0  0  0  0
 18 23  1  0  0  0  0
 25 30  1  0  0  0  0
  8 13  1  0  0  0  0
 34 36  1  0  0  0  0
 17 21  1  0  0  0  0
  7 12  1  0  0  0  0
 24 29  1  0  0  0  0
M  END
$$$$

  -OEChem-05262214473D

 39 38  0     1  0  0  0  0  0999 V2000
   -3.5200   -4.0268   -1.6943 C   0  0  0  0  0  0  0  0  0  0  0  0
   -2.8702   -4.8827   -1.1054 O   0  0  0  0  0  0  0  0  0  0  0  0
   -4.9704   -4.2579   -1.9614 C   0  0  0  0  0  0  0  0  0  0  0  0
   -5.1456   -4.7573   -2.9278 H   0  0  0  0  0  0  0  0  0  0  0  0
   -5.4379   -4.9112   -1.2072 H   0  0  0  0  0  0  0  0  0  0  0  0
   -5.5954   -3.3510   -1.9864 H   0  0  0  0  0  0  0  0  0  0  0  0
   -3.0424   -2.8131   -2.1606 N   0  0  0  0  0  0  0  0  0  0  0  0
   -1.6755   -2.3891   -2.0077 C   0  0  2  0  0  0  0  0  0  0  0  0
   -1.5782   -1.5673   -0.7292 C   0  0  0  0  0  0  0  0  0  0  0  0
   -2.5448   -1.0064   -0.2171 O   0  0  0  0  0  0  0  0  0  0  0  0
   -1.2087   -1.5823   -3.2094 C   0  0  0  0  0  0  0  0  0  0  0  0
   -3.6915   -2.1888   -2.6360 H   0  0  0  0  0  0  0  0  0  0  0  0
   -1.0721   -3.2977   -1.9053 H   0  0  0  0  0  0  0  0  0  0  0  0
   -1.8017   -0.6681   -3.3281 H   0  0  0  0  0  0  0  0  0  0  0  0
   -0.1601   -1.2849   -3.1045 H   0  0  0  0  0  0  0  0  0  0  0  0
   -1.3074   -2.1646   -4.1319 H   0  0  0  0  0  0  0  0  0  0  0  0
   -0.2835   -1.5112   -0.2725 N   0  0  0  0  0  0  0  0  0  0  0  0
    0.0769   -0.7658    0.9424 C   0  0  0  0  0  0  0  0  0  0  0  0
    0.3348   -1.7317    2.0705 C   0  0  0  0  0  0  0  0  0  0  0  0
    1.2960   -1.6427    2.8299 O   0  0  0  0  0  0  0  0  0  0  0  0
    0.4587   -2.0097   -0.7289 H   0  0  0  0  0  0  0  0  0  0  0  0
   -0.7455   -0.0962    1.2114 H   0  0  0  0  0  0  0  0  0  0  0  0
    0.9763   -0.1745    0.7474 H   0  0  0  0  0  0  0  0  0  0  0  0
   -0.6420   -2.7198    2.1321 N   0  0  0  0  0  0  0  0  0  0  0  0
   -0.6431   -3.7752    3.1106 C   0  0  2  0  0  0  0  0  0  0  0  0
   -1.9541   -3.7000    3.8820 C   0  0  0  0  0  0  0  0  0  0  0  0
   -2.6293   -2.6757    3.9589 O   0  0  0  0  0  0  0  0  0  0  0  0
    0.5476   -3.6602    4.0497 C   0  0  0  0  0  0  0  0  0  0  0  0
   -1.3968   -2.6952    1.4484 H   0  0  0  0  0  0  0  0  0  0  0  0
   -0.5979   -4.7195    2.5572 H   0  0  0  0  0  0  0  0  0  0  0  0
    0.5195   -2.7203    4.6128 H   0  0  0  0  0  0  0  0  0  0  0  0
    0.5610   -4.4800    4.7755 H   0  0  0  0  0  0  0  0  0  0  0  0
    1.4890   -3.6846    3.4902 H   0  0  0  0  0  0  0  0  0  0  0  0
   -2.2594   -4.8993    4.5102 N   0  0  0  0  0  0  0  0  0  0  0  0
   -3.4458   -5.0782    5.3143 C   0  0  0  0  0  0  0  0  0  0  0  0
   -1.6521   -5.7024    4.3762 H   0  0  0  0  0  0  0  0  0  0  0  0
   -3.2123   -4.8606    6.3669 H   0  0  0  0  0  0  0  0  0  0  0  0
   -4.2325   -4.3937    4.9643 H   0  0  0  0  0  0  0  0  0  0  0  0
   -3.7966   -6.1169    5.2239 H   0  0  0  0  0  0  0  0  0  0  0  0
  1  3  1  0  0  0  0
  1  7  1  0  0  0  0
  1  2  2  0  0  0  0
 18 19  1  0  0  0  0
 19 24  1  0  0  0  0
 19 20  2  0  0  0  0
 25 26  1  0  0  0  0
 26 34  1  0  0  0  0
 26 27  2  0  0  0  0
  8  9  1  0  0  0  0
  9 17  1  0  0  0  0
  9 10  2  0  0  0  0
 25 28  1  0  0  0  0
  8 11  1  0  0  0  0
 34 35  1  0  0  0  0
 17 18  1  0  0  0  0
 24 25  1  0  0  0  0
  7  8  1  0  0  0  0
  3  4  1  0  0  0  0
  3  5  1  0  0  0  0
  3  6  1  0  0  0  0
 28 31  1  0  0  0  0
 28 32  1  0  0  0  0
 28 33  1  0  0  0  0
 11 14  1  0  0  0  0
 11 15  1  0  0  0  0
 11 16  1  0  0  0  0
 35 37  1  0  0  0  0
 35 38  1  0  0  0  0
 35 39  1  0  0  0  0
 18 22  1  0  0  0  0
 18 23  1  0  0  0  0
 25 30  1  0  0  0  0
  8 13  1  0  0  0  0
 34 36  1  0  0  0  0
 17 21  1  0  0  0  0
  7 12  1  0  0  0  0
 24 29  1  0  0  0  0
M  END
$$$$

  -OEChem-05262214473D

 39 38  0     1  0  0  0  0  0999 V2000
   -3.5200   -4.0268   -1.6943 C   0  0  0  0  0  0  0  0  0  0  0  0
   -2.8702   -4.8827   -1.1054 O   0  0  0  0  0  0  0  0  0  0  0  0
   -4.9704   -4.2579   -1.9614 C   0  0  0  0  0  0  0  0  0  0  0  0
   -5.1456   -4.7573   -2.9278 H   0  0  0  0  0  0  0  0  0  0  0  0
   -5.4379   -4.9112   -1.2072 H   0  0  0  0  0  0  0  0  0  0  0  0
   -5.5954   -3.3510   -1.9864 H   0  0  0  0  0  0  0  0  0  0  0  0
   -3.0424   -2.8131   -2.1606 N   0  0  0  0  0  0  0  0  0  0  0  0
   -1.6755   -2.3891   -2.0077 C   0  0  2  0  0  0  0  0  0  0  0  0
   -1.5782   -1.5673   -0.7292 C   0  0  0  0  0  0  0  0  0  0  0  0
   -2.5448   -1.0064   -0.2171 O   0  0  0  0  0  0  0  0  0  0  0  0
   -1.2087   -1.5823   -3.2094 C   0  0  0  0  0  0  0  0  0  0  0  0
   -3.6915   -2.1888   -2.6360 H   0  0  0  0  0  0  0  0  0  0  0  0
   -1.0721   -3.2977   -1.9053 H   0  0  0  0  0  0  0  0  0  0  0  0
   -1.8017   -0.6681   -3.3281 H   0  0  0  0  0  0  0  0  0  0  0  0
   -0.1601   -1.2849   -3.1045 H   0  0  0  0  0  0  0  0  0  0  0  0
   -1.3074   -2.1646   -4.1319 H   0  0  0  0  0  0  0  0  0  0  0  0
   -0.2835   -1.5112   -0.2725 N   0  0  0  0  0  0  0  0  0  0  0  0
    0.0769   -0.7658    0.9424 C   0  0  0  0  0  0  0  0  0  0  0  0
    0.3348   -1.7317    2.0705 C   0  0  0  0  0  0  0  0  0  0  0  0
    1.1240   -1.5080    2.9846 O   0  0  0  0  0  0  0  0  0  0  0  0
    0.4587   -2.0097   -0.7289 H   0  0  0  0  0  0  0  0  0  0  0  0
   -0.7455   -0.0962    1.2114 H   0  0  0  0  0  0  0  0  0  0  0  0
    0.9763   -0.1745    0.7474 H   0  0  0  0  0  0  0  0  0  0  0  0
   -0.4246   -2.8892    1.9372 N   0  0  0  0  0  0  0  0  0  0  0  0
   -0.3752   -3.9830    2.8714 C   0  0  2  0  0  0  0  0  0  0  0  0
   -1.7823   -4.2051    3.4102 C   0  0  0  0  0  0  0  0  0  0  0  0
   -2.6498   -3.3343    3.3997 O   0  0  0  0  0  0  0  0  0  0  0  0
    0.6017   -3.7011    4.0023 C   0  0  0  0  0  0  0  0  0  0  0  0
   -1.0488   -2.9670    1.1360 H   0  0  0  0  0  0  0  0  0  0  0  0
   -0.0557   -4.8662    2.3076 H   0  0  0  0  0  0  0  0  0  0  0  0
    0.2981   -2.8195    4.5785 H   0  0  0  0  0  0  0  0  0  0  0  0
    0.6594   -4.5459    4.6966 H   0  0  0  0  0  0  0  0  0  0  0  0
    1.6071   -3.5122    3.6108 H   0  0  0  0  0  0  0  0  0  0  0  0
   -1.9422   -5.4764    3.9435 N   0  0  0  0  0  0  0  0  0  0  0  0
   -3.1839   -5.9259    4.5286 C   0  0  0  0  0  0  0  0  0  0  0  0
   -1.1748   -6.1399    3.8925 H   0  0  0  0  0  0  0  0  0  0  0  0
   -3.1710   -5.7320    5.6113 H   0  0  0  0  0  0  0  0  0  0  0  0
   -4.0232   -5.3833    4.0690 H   0  0  0  0  0  0  0  0  0  0  0  0
   -3.3034   -7.0048    4.3508 H   0  0  0  0  0  0  0  0  0  0  0  0
  1  3  1  0  0  0  0
  1  7  1  0  0  0  0
  1  2  2  0  0  0  0
 18 19  1  0  0  0  0
 19 24  1  0  0  0  0
 19 20  2  0  0  0  0
 25 26  1  0  0  0  0
 26 34  1  0  0  0  0
 26 27  2  0  0  0  0
  8  9  1  0  0  0  0
  9 17  1  0  0  0  0
  9 10  2  0  0  0  0
 25 28  1  0  0  0  0
  8 11  1  0  0  0  0
 34 35  1  0  0  0  0
 17 18  1  0  0  0  0
 24 25  1  0  0  0  0
  7  8  1  0  0  0  0
  3  4  1  0  0  0  0
  3  5  1  0  0  0  0
  3  6  1  0  0  0  0
 28 31  1  0  0  0  0
 28 32  1  0  0  0  0
 28 33  1  0  0  0  0
 11 14  1  0  0  0  0
 11 15  1  0  0  0  0
 11 16  1  0  0  0  0
 35 37  1  0  0  0  0
 35 38  1  0  0  0  0
 35 39  1  0  0  0  0
 18 22  1  0  0  0  0
 18 23  1  0  0  0  0
 25 30  1  0  0  0  0
  8 13  1  0  0  0  0
 34 36  1  0  0  0  0
 17 21  1  0  0  0  0
  7 12  1  0  0  0  0
 24 29  1  0  0  0  0
M  END
$$$$

  -OEChem-05262214473D

 39 38  0     1  0  0  0  0  0999 V2000
   -3.5200   -4.0268   -1.6943 C   0  0  0  0  0  0  0  0  0  0  0  0
   -2.8702   -4.8827   -1.1054 O   0  0  0  0  0  0  0  0  0  0  0  0
   -4.9704   -4.2579   -1.9614 C   0  0  0  0  0  0  0  0  0  0  0  0
   -5.1456   -4.7573   -2.9278 H   0  0  0  0  0  0  0  0  0  0  0  0
   -5.4379   -4.9112   -1.2072 H   0  0  0  0  0  0  0  0  0  0  0  0
   -5.5954   -3.3510   -1.9864 H   0  0  0  0  0  0  0  0  0  0  0  0
   -3.0424   -2.8131   -2.1606 N   0  0  0  0  0  0  0  0  0  0  0  0
   -1.6755   -2.3891   -2.0077 C   0  0  2  0  0  0  0  0  0  0  0  0
   -1.5782   -1.5673   -0.7292 C   0  0  0  0  0  0  0  0  0  0  0  0
   -2.5448   -1.0064   -0.2171 O   0  0  0  0  0  0  0  0  0  0  0  0
   -1.2087   -1.5823   -3.2094 C   0  0  0  0  0  0  0  0  0  0  0  0
   -3.6915   -2.1888   -2.6360 H   0  0  0  0  0  0  0  0  0  0  0  0
   -1.0721   -3.2977   -1.9053 H   0  0  0  0  0  0  0  0  0  0  0  0
   -1.8017   -0.6681   -3.3281 H   0  0  0  0  0  0  0  0  0  0  0  0
   -0.1601   -1.2849   -3.1045 H   0  0  0  0  0  0  0  0  0  0  0  0
   -1.3074   -2.1646   -4.1319 H   0  0  0  0  0  0  0  0  0  0  0  0
   -0.2835   -1.5112   -0.2725 N   0  0  0  0  0  0  0  0  0  0  0  0
    0.0769   -0.7658    0.9424 C   0  0  0  0  0  0  0  0  0  0  0  0
    0.3348   -1.7317    2.0705 C   0  0  0  0  0  0  0  0  0  0  0  0
    0.9061   -1.4180    3.1115 O   0  0  0  0  0  0  0  0  0  0  0  0
    0.4587   -2.0097   -0.7289 H   0  0  0  0  0  0  0  0  0  0  0  0
   -0.7455   -0.0962    1.2114 H   0  0  0  0  0  0  0  0  0  0  0  0
    0.9763   -0.1745    0.7474 H   0  0  0  0  0  0  0  0  0  0  0  0
   -0.1494   -3.0022    1.7776 N   0  0  0  0  0  0  0  0  0  0  0  0
   -0.0366   -4.1212    2.6756 C   0  0  2  0  0  0  0  0  0  0  0  0
   -1.4402   -4.6389    2.9607 C   0  0  0  0  0  0  0  0  0  0  0  0
   -2.4493   -3.9497    2.8269 O   0  0  0  0  0  0  0  0  0  0  0  0
    0.6697   -3.7280    3.9637 C   0  0  0  0  0  0  0  0  0  0  0  0
   -0.6082   -3.1484    0.8800 H   0  0  0  0  0  0  0  0  0  0  0  0
    0.5378   -4.8918    2.1500 H   0  0  0  0  0  0  0  0  0  0  0  0
    0.1090   -2.9567    4.5042 H   0  0  0  0  0  0  0  0  0  0  0  0
    0.7802   -4.5869    4.6338 H   0  0  0  0  0  0  0  0  0  0  0  0
    1.6678   -3.3281    3.7545 H   0  0  0  0  0  0  0  0  0  0  0  0
   -1.4300   -5.9473    3.4232 N   0  0  0  0  0  0  0  0  0  0  0  0
   -2.6363   -6.6591    3.7756 C   0  0  0  0  0  0  0  0  0  0  0  0
   -0.5487   -6.4486    3.4850 H   0  0  0  0  0  0  0  0  0  0  0  0
   -2.8370   -6.5324    4.8497 H   0  0  0  0  0  0  0  0  0  0  0  0
   -3.4808   -6.2590    3.1952 H   0  0  0  0  0  0  0  0  0  0  0  0
   -2.5102   -7.7283    3.5500 H   0  0  0  0  0  0  0  0  0  0  0  0
  1  3  1  0  0  0  0
  1  7  1  0  0  0  0
  1  2  2  0  0  0  0
 18 19  1  0  0  0  0
 19 24  1  0  0  0  0
 19 20  2  0  0  0  0
 25 26  1  0  0  0  0
 26 34  1  0  0  0  0
 26 27  2  0  0  0  0
  8  9  1  0  0  0  0
  9 17  1  0  0  0  0
  9 10  2  0  0  0  0
 25 28  1  0  0  0  0
  8 11  1  0  0  0  0
 34 35  1  0  0  0  0
 17 18  1  0  0  0  0
 24 25  1  0  0  0  0
  7  8  1  0  0  0  0
  3  4  1  0  0  0  0
  3  5  1  0  0  0  0
  3  6  1  0  0  0  0
 28 31  1  0  0  0  0
 28 32  1  0  0  0  0
 28 33  1  0  0  0  0
 11 14  1  0  0  0  0
 11 15  1  0  0  0  0
 11 16  1  0  0  0  0
 35 37  1  0  0  0  0
 35 38  1  0  0  0  0
 35 39  1  0  0  0  0
 18 22  1  0  0  0  0
 18 23  1  0  0  0  0
 25 30  1  0  0  0  0
  8 13  1  0  0  0  0
 34 36  1  0  0  0  0
 17 21  1  0  0  0  0
  7 12  1  0  0  0  0
 24 29  1  0  0  0  0
M  END
$$$$

  -OEChem-05262214473D

 39 38  0     1  0  0  0  0  0999 V2000
   -3.5200   -4.0268   -1.6943 C   0  0  0  0  0  0  0  0  0  0  0  0
   -2.8702   -4.8827   -1.1054 O   0  0  0  0  0  0  0  0  0  0  0  0
   -4.9704   -4.2579   -1.9614 C   0  0  0  0  0  0  0  0  0  0  0  0
   -5.1456   -4.7573   -2.9278 H   0  0  0  0  0  0  0  0  0  0  0  0
   -5.4379   -4.9112   -1.2072 H   0  0  0  0  0  0  0  0  0  0  0  0
   -5.5954   -3.3510   -1.9864 H   0  0  0  0  0  0  0  0  0  0  0  0
   -3.0424   -2.8131   -2.1606 N   0  0  0  0  0  0  0  0  0  0  0  0
   -1.6755   -2.3891   -2.0077 C   0  0  2  0  0  0  0  0  0  0  0  0
   -1.5782   -1.5673   -0.7292 C   0  0  0  0  0  0  0  0  0  0  0  0
   -2.5448   -1.0064   -0.2171 O   0  0  0  0  0  0  0  0  0  0  0  0
   -1.2087   -1.5823   -3.2094 C   0  0  0  0  0  0  0  0  0  0  0  0
   -3.6915   -2.1888   -2.6360 H   0  0  0  0  0  0  0  0  0  0  0  0
   -1.0721   -3.2977   -1.9053 H   0  0  0  0  0  0  0  0  0  0  0  0
   -1.8017   -0.6681   -3.3281 H   0  0  0  0  0  0  0  0  0  0  0  0
   -0.1601   -1.2849   -3.1045 H   0  0  0  0  0  0  0  0  0  0  0  0
   -1.3074   -2.1646   -4.1319 H   0  0  0  0  0  0  0  0  0  0  0  0
   -0.2835   -1.5112   -0.2725 N   0  0  0  0  0  0  0  0  0  0  0  0
    0.0769   -0.7658    0.9424 C   0  0  0  0  0  0  0  0  0  0  0  0
    0.3348   -1.7317    2.0705 C   0  0  0  0  0  0  0  0  0  0  0  0
    0.6572   -1.3788    3.2019 O   0  0  0  0  0  0  0  0  0  0  0  0
    0.4587   -2.0097   -0.7289 H   0  0  0  0  0  0  0  0  0  0  0  0
   -0.7455   -0.0962    1.2114 H   0  0  0  0  0  0  0  0  0  0  0  0
    0.9763   -0.1745    0.7474 H   0  0  0  0  0  0  0  0  0  0  0  0
    0.1648   -3.0509    1.6641 N   0  0  0  0  0  0  0  0  0  0  0  0
    0.3498   -4.1805    2.5365 C   0  0  2  0  0  0  0  0  0  0  0  0
   -0.9513   -4.9716    2.5639 C   0  0  0  0  0  0  0  0  0  0  0  0
   -2.0415   -4.4799    2.2797 O   0  0  0  0  0  0  0  0  0  0  0  0
    0.7471   -3.7391    3.9366 C   0  0  0  0  0  0  0  0  0  0  0  0
   -0.1050   -3.2269    0.6977 H   0  0  0  0  0  0  0  0  0  0  0  0
    1.1422   -4.7946    2.0950 H   0  0  0  0  0  0  0  0  0  0  0  0
   -0.0346   -3.1225    4.3951 H   0  0  0  0  0  0  0  0  0  0  0  0
    0.9153   -4.6004    4.5914 H   0  0  0  0  0  0  0  0  0  0  0  0
    1.6670   -3.1450    3.9115 H   0  0  0  0  0  0  0  0  0  0  0  0
   -0.7578   -6.2799    2.9847 N   0  0  0  0  0  0  0  0  0  0  0  0
   -1.8405   -7.2280    3.1066 C   0  0  0  0  0  0  0  0  0  0  0  0
    0.1834   -6.6075    3.1815 H   0  0  0  0  0  0  0  0  0  0  0  0
   -2.2330   -7.2070    4.1339 H   0  0  0  0  0  0  0  0  0  0  0  0
   -2.6423   -6.9611    2.4024 H   0  0  0  0  0  0  0  0  0  0  0  0
   -1.4710   -8.2380    2.8759 H   0  0  0  0  0  0  0  0  0  0  0  0
  1  3  1  0  0  0  0
  1  7  1  0  0  0  0
  1  2  2  0  0  0  0
 18 19  1  0  0  0  0
 19 24  1  0  0  0  0
 19 20  2  0  0  0  0
 25 26  1  0  0  0  0
 26 34  1  0  0  0  0
 26 27  2  0  0  0  0
  8  9  1  0  0  0  0
  9 17  1  0  0  0  0
  9 10  2  0  0  0  0
 25 28  1  0  0  0  0
  8 11  1  0  0  0  0
 34 35  1  0  0  0  0
 17 18  1  0  0  0  0
 24 25  1  0  0  0  0
  7  8  1  0  0  0  0
  3  4  1  0  0  0  0
  3  5  1  0  0  0  0
  3  6  1  0  0  0  0
 28 31  1  0  0  0  0
 28 32  1  0  0  0  0
 28 33  1  0  0  0  0
 11 14  1  0  0  0  0
 11 15  1  0  0  0  0
 11 16  1  0  0  0  0
 35 37  1  0  0  0  0
 35 38  1  0  0  0  0
 35 39  1  0  0  0  0
 18 22  1  0  0  0  0
 18 23  1  0  0  0  0
 25 30  1  0  0  0  0
  8 13  1  0  0  0  0
 34 36  1  0  0  0  0
 17 21  1  0  0  0  0
  7 12  1  0  0  0  0
 24 29  1  0  0  0  0
M  END
$$$$

  -OEChem-05262214473D

 39 38  0     1  0  0  0  0  0999 V2000
   -3.5200   -4.0268   -1.6943 C   0  0  0  0  0  0  0  0  0  0  0  0
   -2.8702   -4.8827   -1.1054 O   0  0  0  0  0  0  0  0  0  0  0  0
   -4.9704   -4.2579   -1.9614 C   0  0  0  0  0  0  0  0  0  0  0  0
   -5.1456   -4.7573   -2.9278 H   0  0  0  0  0  0  0  0  0  0  0  0
   -5.4379   -4.9112   -1.2072 H   0  0  0  0  0  0  0  0  0  0  0  0
   -5.5954   -3.3510   -1.9864 H   0  0  0  0  0  0  0  0  0  0  0  0
   -3.0424   -2.8131   -2.1606 N   0  0  0  0  0  0  0  0  0  0  0  0
   -1.6755   -2.3891   -2.0077 C   0  0  2  0  0  0  0  0  0  0  0  0
   -1.5782   -1.5673   -0.7292 C   0  0  0  0  0  0  0  0  0  0  0  0
   -2.5448   -1.0064   -0.2171 O   0  0  0  0  0  0  0  0  0  0  0  0
   -1.2087   -1.5823   -3.2094 C   0  0  0  0  0  0  0  0  0  0  0  0
   -3.6915   -2.1888   -2.6360 H   0  0  0  0  0  0  0  0  0  0  0  0
   -1.0721   -3.2977   -1.9053 H   0  0  0  0  0  0  0  0  0  0  0  0
   -1.8017   -0.6681   -3.3281 H   0  0  0  0  0  0  0  0  0  0  0  0
   -0.1601   -1.2849   -3.1045 H   0  0  0  0  0  0  0  0  0  0  0  0
   -1.3074   -2.1646   -4.1319 H   0  0  0  0  0  0  0  0  0  0  0  0
   -0.2835   -1.5112   -0.2725 N   0  0  0  0  0  0  0  0  0  0  0  0
    0.0769   -0.7658    0.9424 C   0  0  0  0  0  0  0  0  0  0  0  0
    0.3348   -1.7317    2.0705 C   0  0  0  0  0  0  0  0  0  0  0  0
    0.3942   -1.3933    3.2497 O   0  0  0  0  0  0  0  0  0  0  0  0
    0.4587   -2.0097   -0.7289 H   0  0  0  0  0  0  0  0  0  0  0  0
   -0.7455   -0.0962    1.2114 H   0  0  0  0  0  0  0  0  0  0  0  0
    0.9763   -0.1745    0.7474 H   0  0  0  0  0  0  0  0  0  0  0  0
    0.4965   -3.0320    1.6044 N   0  0  0  0  0  0  0  0  0  0  0  0
    0.7575   -4.1567    2.4637 C   0  0  2  0  0  0  0  0  0  0  0  0
   -0.3487   -5.1808    2.2470 C   0  0  0  0  0  0  0  0  0  0  0  0
   -1.4540   -4.8888    1.7953 O   0  0  0  0  0  0  0  0  0  0  0  0
    0.8285   -3.7336    3.9226 C   0  0  0  0  0  0  0  0  0  0  0  0
    0.4264   -3.1972    0.6016 H   0  0  0  0  0  0  0  0  0  0  0  0
    1.7162   -4.5813    2.1465 H   0  0  0  0  0  0  0  0  0  0  0  0
   -0.1232   -3.3057    4.2585 H   0  0  0  0  0  0  0  0  0  0  0  0
    1.0554   -4.5854    4.5722 H   0  0  0  0  0  0  0  0  0  0  0  0
    1.6047   -2.9751    4.0712 H   0  0  0  0  0  0  0  0  0  0  0  0
    0.0287   -6.4516    2.6579 N   0  0  0  0  0  0  0  0  0  0  0  0
   -0.8507   -7.5936    2.5671 C   0  0  0  0  0  0  0  0  0  0  0  0
    0.9716   -6.6057    3.0028 H   0  0  0  0  0  0  0  0  0  0  0  0
   -1.4003   -7.7099    3.5129 H   0  0  0  0  0  0  0  0  0  0  0  0
   -1.5650   -7.4418    1.7445 H   0  0  0  0  0  0  0  0  0  0  0  0
   -0.2568   -8.4992    2.3746 H   0  0  0  0  0  0  0  0  0  0  0  0
  1  3  1  0  0  0  0
  1  7  1  0  0  0  0
  1  2  2  0  0  0  0
 18 19  1  0  0  0  0
 19 24  1  0  0  0  0
 19 20  2  0  0  0  0
 25 26  1  0  0  0  0
 26 34  1  0  0  0  0
 26 27  2  0  0  0  0
  8  9  1  0  0  0  0
  9 17  1  0  0  0  0
  9 10  2  0  0  0  0
 25 28  1  0  0  0  0
  8 11  1  0  0  0  0
 34 35  1  0  0  0  0
 17 18  1  0  0  0  0
 24 25  1  0  0  0  0
  7  8  1  0  0  0  0
  3  4  1  0  0  0  0
  3  5  1  0  0  0  0
  3  6  1  0  0  0  0
 28 31  1  0  0  0  0
 28 32  1  0  0  0  0
 28 33  1  0  0  0  0
 11 14  1  0  0  0  0
 11 15  1  0  0  0  0
 11 16  1  0  0  0  0
 35 37  1  0  0  0  0
 35 38  1  0  0  0  0
 35 39  1  0  0  0  0
 18 22  1  0  0  0  0
 18 23  1  0  0  0  0
 25 30  1  0  0  0  0
  8 13  1  0  0  0  0
 34 36  1  0  0  0  0
 17 21  1  0  0  0  0
  7 12  1  0  0  0  0
 24 29  1  0  0  0  0
M  END
$$$$

  -OEChem-05262214473D

 39 38  0     1  0  0  0  0  0999 V2000
   -3.5200   -4.0268   -1.6943 C   0  0  0  0  0  0  0  0  0  0  0  0
   -2.8702   -4.8827   -1.1054 O   0  0  0  0  0  0  0  0  0  0  0  0
   -4.9704   -4.2579   -1.9614 C   0  0  0  0  0  0  0  0  0  0  0  0
   -5.1456   -4.7573   -2.9278 H   0  0  0  0  0  0  0  0  0  0  0  0
   -5.4379   -4.9112   -1.2072 H   0  0  0  0  0  0  0  0  0  0  0  0
   -5.5954   -3.3510   -1.9864 H   0  0  0  0  0  0  0  0  0  0  0  0
   -3.0424   -2.8131   -2.1606 N   0  0  0  0  0  0  0  0  0  0  0  0
   -1.6755   -2.3891   -2.0077 C   0  0  2  0  0  0  0  0  0  0  0  0
   -1.5782   -1.5673   -0.7292 C   0  0  0  0  0  0  0  0  0  0  0  0
   -2.5448   -1.0064   -0.2171 O   0  0  0  0  0  0  0  0  0  0  0  0
   -1.2087   -1.5823   -3.2094 C   0  0  0  0  0  0  0  0  0  0  0  0
   -3.6915   -2.1888   -2.6360 H   0  0  0  0  0  0  0  0  0  0  0  0
   -1.0721   -3.2977   -1.9053 H   0  0  0  0  0  0  0  0  0  0  0  0
   -1.8017   -0.6681   -3.3281 H   0  0  0  0  0  0  0  0  0  0  0  0
   -0.1601   -1.2849   -3.1045 H   0  0  0  0  0  0  0  0  0  0  0  0
   -1.3074   -2.1646   -4.1319 H   0  0  0  0  0  0  0  0  0  0  0  0
   -0.2835   -1.5112   -0.2725 N   0  0  0  0  0  0  0  0  0  0  0  0
    0.0769   -0.7658    0.9424 C   0  0  0  0  0  0  0  0  0  0  0  0
    0.3348   -1.7317    2.0705 C   0  0  0  0  0  0  0  0  0  0  0  0
    0.1350   -1.4603    3.2516 O   0  0  0  0  0  0  0  0  0  0  0  0
    0.4587   -2.0097   -0.7289 H   0  0  0  0  0  0  0  0  0  0  0  0
   -0.7455   -0.0962    1.2114 H   0  0  0  0  0  0  0  0  0  0  0  0
    0.9763   -0.1745    0.7474 H   0  0  0  0  0  0  0  0  0  0  0  0
    0.8232   -2.9469    1.6025 N   0  0  0  0  0  0  0  0  0  0  0  0
    1.1588   -4.0515    2.4619 C   0  0  2  0  0  0  0  0  0  0  0  0
    0.3264   -5.2521    2.0316 C   0  0  0  0  0  0  0  0  0  0  0  0
   -0.7271   -5.1485    1.4066 O   0  0  0  0  0  0  0  0  0  0  0  0
    0.9083   -3.7119    3.9229 C   0  0  0  0  0  0  0  0  0  0  0  0
    0.9499   -3.0613    0.5983 H   0  0  0  0  0  0  0  0  0  0  0  0
    2.2209   -4.2662    2.3008 H   0  0  0  0  0  0  0  0  0  0  0  0
   -0.1506   -3.4938    4.1037 H   0  0  0  0  0  0  0  0  0  0  0  0
    1.1910   -4.5429    4.5776 H   0  0  0  0  0  0  0  0  0  0  0  0
    1.4851   -2.8303    4.2226 H   0  0  0  0  0  0  0  0  0  0  0  0
    0.8759   -6.4505    2.4651 N   0  0  0  0  0  0  0  0  0  0  0  0
    0.2657   -7.7312    2.1940 C   0  0  0  0  0  0  0  0  0  0  0  0
    1.7623   -6.4434    2.9610 H   0  0  0  0  0  0  0  0  0  0  0  0
   -0.3955   -8.0069    3.0288 H   0  0  0  0  0  0  0  0  0  0  0  0
   -0.3221   -7.6682    1.2664 H   0  0  0  0  0  0  0  0  0  0  0  0
    1.0499   -8.4942    2.0802 H   0  0  0  0  0  0  0  0  0  0  0  0
  1  3  1  0  0  0  0
  1  7  1  0  0  0  0
  1  2  2  0  0  0  0
 18 19  1  0  0  0  0
 19 24  1  0  0  0  0
 19 20  2  0  0  0  0
 25 26  1  0  0  0  0
 26 34  1  0  0  0  0
 26 27  2  0  0  0  0
  8  9  1  0  0  0  0
  9 17  1  0  0  0  0
  9 10  2  0  0  0  0
 25 28  1  0  0  0  0
  8 11  1  0  0  0  0
 34 35  1  0  0  0  0
 17 18  1  0  0  0  0
 24 25  1  0  0  0  0
  7  8  1  0  0  0  0
  3  4  1  0  0  0  0
  3  5  1  0  0  0  0
  3  6  1  0  0  0  0
 28 31  1  0  0  0  0
 28 32  1  0  0  0  0
 28 33  1  0  0  0  0
 11 14  1  0  0  0  0
 11 15  1  0  0  0  0
 11 16  1  0  0  0  0
 35 37  1  0  0  0  0
 35 38  1  0  0  0  0
 35 39  1  0  0  0  0
 18 22  1  0  0  0  0
 18 23  1  0  0  0  0
 25 30  1  0  0  0  0
  8 13  1  0  0  0  0
 34 36  1  0  0  0  0
 17 21  1  0  0  0  0
  7 12  1  0  0  0  0
 24 29  1  0  0  0  0
M  END
$$$$

  -OEChem-05262214473D

 39 38  0     1  0  0  0  0  0999 V2000
   -3.5200   -4.0268   -1.6943 C   0  0  0  0  0  0  0  0  0  0  0  0
   -2.8702   -4.8827   -1.1054 O   0  0  0  0  0  0  0  0  0  0  0  0
   -4.9704   -4.2579   -1.9614 C   0  0  0  0  0  0  0  0  0  0  0  0
   -5.1456   -4.7573   -2.9278 H   0  0  0  0  0  0  0  0  0  0  0  0
   -5.4379   -4.9112   -1.2072 H   0  0  0  0  0  0  0  0  0  0  0  0
   -5.5954   -3.3510   -1.9864 H   0  0  0  0  0  0  0  0  0  0  0  0
   -3.0424   -2.8131   -2.1606 N   0  0  0  0  0  0  0  0  0  0  0  0
   -1.6755   -2.3891   -2.0077 C   0  0  2  0  0  0  0  0  0  0  0  0
   -1.5782   -1.5673   -0.7292 C   0  0  0  0  0  0  0  0  0  0  0  0
   -2.5448   -1.0064   -0.2171 O   0  0  0  0  0  0  0  0  0  0  0  0
   -1.2087   -1.5823   -3.2094 C   0  0  0  0  0  0  0  0  0  0  0  0
   -3.6915   -2.1888   -2.6360 H   0  0  0  0  0  0  0  0  0  0  0  0
   -1.0721   -3.2977   -1.9053 H   0  0  0  0  0  0  0  0  0  0  0  0
   -1.8017   -0.6681   -3.3281 H   0  0  0  0  0  0  0  0  0  0  0  0
   -0.1601   -1.2849   -3.1045 H   0  0  0  0  0  0  0  0  0  0  0  0
   -1.3074   -2.1646   -4.1319 H   0  0  0  0  0  0  0  0  0  0  0  0
   -0.2835   -1.5112   -0.2725 N   0  0  0  0  0  0  0  0  0  0  0  0
    0.0769   -0.7658    0.9424 C   0  0  0  0  0  0  0  0  0  0  0  0
    0.3348   -1.7317    2.0705 C   0  0  0  0  0  0  0  0  0  0  0  0
   -0.1027   -1.5753    3.2074 O   0  0  0  0  0  0  0  0  0  0  0  0
    0.4587   -2.0097   -0.7289 H   0  0  0  0  0  0  0  0  0  0  0  0
   -0.7455   -0.0962    1.2114 H   0  0  0  0  0  0  0  0  0  0  0  0
    0.9763   -0.1745    0.7474 H   0  0  0  0  0  0  0  0  0  0  0  0
    1.1225   -2.8014    1.6587 N   0  0  0  0  0  0  0  0  0  0  0  0
    1.5264   -3.8721    2.5315 C   0  0  2  0  0  0  0  0  0  0  0  0
    1.0280   -5.1806    1.9324 C   0  0  0  0  0  0  0  0  0  0  0  0
    0.0899   -5.2414    1.1403 O   0  0  0  0  0  0  0  0  0  0  0  0
    0.9811   -3.6755    3.9374 C   0  0  0  0  0  0  0  0  0  0  0  0
    1.4299   -2.8285    0.6879 H   0  0  0  0  0  0  0  0  0  0  0  0
    2.6217   -3.8710    2.5475 H   0  0  0  0  0  0  0  0  0  0  0  0
   -0.1150   -3.6739    3.9414 H   0  0  0  0  0  0  0  0  0  0  0  0
    1.3129   -4.4758    4.6072 H   0  0  0  0  0  0  0  0  0  0  0  0
    1.3164   -2.7202    4.3554 H   0  0  0  0  0  0  0  0  0  0  0  0
    1.7260   -6.2769    2.4193 N   0  0  0  0  0  0  0  0  0  0  0  0
    1.4325   -7.6314    2.0127 C   0  0  0  0  0  0  0  0  0  0  0  0
    2.5016   -6.1316    3.0589 H   0  0  0  0  0  0  0  0  0  0  0  0
    0.7129   -8.0778    2.7147 H   0  0  0  0  0  0  0  0  0  0  0  0
    1.0016   -7.6250    1.0007 H   0  0  0  0  0  0  0  0  0  0  0  0
    2.3598   -8.2231    2.0127 H   0  0  0  0  0  0  0  0  0  0  0  0
  1  3  1  0  0  0  0
  1  7  1  0  0  0  0
  1  2  2  0  0  0  0
 18 19  1  0  0  0  0
 19 24  1  0  0  0  0
 19 20  2  0  0  0  0
 25 26  1  0  0  0  0
 26 34  1  0  0  0  0
 26 27  2  0  0  0  0
  8  9  1  0  0  0  0
  9 17  1  0  0  0  0
  9 10  2  0  0  0  0
 25 28  1  0  0  0  0
  8 11  1  0  0  0  0
 34 35  1  0  0  0  0
 17 18  1  0  0  0  0
 24 25  1  0  0  0  0
  7  8  1  0  0  0  0
  3  4  1  0  0  0  0
  3  5  1  0  0  0  0
  3  6  1  0  0  0  0
 28 31  1  0  0  0  0
 28 32  1  0  0  0  0
 28 33  1  0  0  0  0
 11 14  1  0  0  0  0
 11 15  1  0  0  0  0
 11 16  1  0  0  0  0
 35 37  1  0  0  0  0
 35 38  1  0  0  0  0
 35 39  1  0  0  0  0
 18 22  1  0  0  0  0
 18 23  1  0  0  0  0
 25 30  1  0  0  0  0
  8 13  1  0  0  0  0
 34 36  1  0  0  0  0
 17 21  1  0  0  0  0
  7 12  1  0  0  0  0
 24 29  1  0  0  0  0
M  END
$$$$

  -OEChem-05262214473D

 39 38  0     1  0  0  0  0  0999 V2000
   -3.5200   -4.0268   -1.6943 C   0  0  0  0  0  0  0  0  0  0  0  0
   -2.8702   -4.8827   -1.1054 O   0  0  0  0  0  0  0  0  0  0  0  0
   -4.9704   -4.2579   -1.9614 C   0  0  0  0  0  0  0  0  0  0  0  0
   -5.1456   -4.7573   -2.9278 H   0  0  0  0  0  0  0  0  0  0  0  0
   -5.4379   -4.9112   -1.2072 H   0  0  0  0  0  0  0  0  0  0  0  0
   -5.5954   -3.3510   -1.9864 H   0  0  0  0  0  0  0  0  0  0  0  0
   -3.0424   -2.8131   -2.1606 N   0  0  0  0  0  0  0  0  0  0  0  0
   -1.6755   -2.3891   -2.0077 C   0  0  2  0  0  0  0  0  0  0  0  0
   -1.5782   -1.5673   -0.7292 C   0  0  0  0  0  0  0  0  0  0  0  0
   -2.5448   -1.0064   -0.2171 O   0  0  0  0  0  0  0  0  0  0  0  0
   -1.2087   -1.5823   -3.2094 C   0  0  0  0  0  0  0  0  0  0  0  0
   -3.6915   -2.1888   -2.6360 H   0  0  0  0  0  0  0  0  0  0  0  0
   -1.0721   -3.2977   -1.9053 H   0  0  0  0  0  0  0  0  0  0  0  0
   -1.8017   -0.6681   -3.3281 H   0  0  0  0  0  0  0  0  0  0  0  0
   -0.1601   -1.2849   -3.1045 H   0  0  0  0  0  0  0  0  0  0  0  0
   -1.3074   -2.1646   -4.1319 H   0  0  0  0  0  0  0  0  0  0  0  0
   -0.2835   -1.5112   -0.2725 N   0  0  0  0  0  0  0  0  0  0  0  0
    0.0769   -0.7658    0.9424 C   0  0  0  0  0  0  0  0  0  0  0  0
    0.3348   -1.7317    2.0705 C   0  0  0  0  0  0  0  0  0  0  0  0
   -0.3027   -1.7305    3.1203 O   0  0  0  0  0  0  0  0  0  0  0  0
    0.4587   -2.0097   -0.7289 H   0  0  0  0  0  0  0  0  0  0  0  0
   -0.7455   -0.0962    1.2114 H   0  0  0  0  0  0  0  0  0  0  0  0
    0.9763   -0.1745    0.7474 H   0  0  0  0  0  0  0  0  0  0  0  0
    1.3742   -2.6053    1.7690 N   0  0  0  0  0  0  0  0  0  0  0  0
    1.8352   -3.6308    2.6676 C   0  0  2  0  0  0  0  0  0  0  0  0
    1.7083   -4.9713    1.9560 C   0  0  0  0  0  0  0  0  0  0  0  0
    0.9411   -5.1610    1.0145 O   0  0  0  0  0  0  0  0  0  0  0  0
    1.0421   -3.6269    3.9651 C   0  0  0  0  0  0  0  0  0  0  0  0
    1.8335   -2.5146    0.8643 H   0  0  0  0  0  0  0  0  0  0  0  0
    2.8915   -3.4225    2.8699 H   0  0  0  0  0  0  0  0  0  0  0  0
   -0.0187   -3.8338    3.7825 H   0  0  0  0  0  0  0  0  0  0  0  0
    1.4127   -4.3887    4.6589 H   0  0  0  0  0  0  0  0  0  0  0  0
    1.1101   -2.6524    4.4606 H   0  0  0  0  0  0  0  0  0  0  0  0
    2.5210   -5.9425    2.5239 N   0  0  0  0  0  0  0  0  0  0  0  0
    2.5704   -7.3009    2.0355 C   0  0  0  0  0  0  0  0  0  0  0  0
    3.1390   -5.6915    3.2899 H   0  0  0  0  0  0  0  0  0  0  0  0
    1.8493   -7.9176    2.5921 H   0  0  0  0  0  0  0  0  0  0  0  0
    2.3159   -7.3151    0.9655 H   0  0  0  0  0  0  0  0  0  0  0  0
    3.5838   -7.7046    2.1768 H   0  0  0  0  0  0  0  0  0  0  0  0
  1  3  1  0  0  0  0
  1  7  1  0  0  0  0
  1  2  2  0  0  0  0
 18 19  1  0  0  0  0
 19 24  1  0  0  0  0
 19 20  2  0  0  0  0
 25 26  1  0  0  0  0
 26 34  1  0  0  0  0
 26 27  2  0  0  0  0
  8  9  1  0  0  0  0
  9 17  1  0  0  0  0
  9 10  2  0  0  0  0
 25 28  1  0  0  0  0
  8 11  1  0  0  0  0
 34 35  1  0  0  0  0
 17 18  1  0  0  0  0
 24 25  1  0  0  0  0
  7  8  1  0  0  0  0
  3  4  1  0  0  0  0
  3  5  1  0  0  0  0
  3  6  1  0  0  0  0
 28 31  1  0  0  0  0
 28 32  1  0  0  0  0
 28 33  1  0  0  0  0
 11 14  1  0  0  0  0
 11 15  1  0  0  0  0
 11 16  1  0  0  0  0
 35 37  1  0  0  0  0
 35 38  1  0  0  0  0
 35 39  1  0  0  0  0
 18 22  1  0  0  0  0
 18 23  1  0  0  0  0
 25 30  1  0  0  0  0
  8 13  1  0  0  0  0
 34 36  1  0  0  0  0
 17 21  1  0  0  0  0
  7 12  1  0  0  0  0
 24 29  1  0  0  0  0
M  END
$$$$

  -OEChem-05262214473D

 39 38  0     1  0  0  0  0  0999 V2000
   -3.5200   -4.0268   -1.6943 C   0  0  0  0  0  0  0  0  0  0  0  0
   -2.8702   -4.8827   -1.1054 O   0  0  0  0  0  0  0  0  0  0  0  0
   -4.9704   -4.2579   -1.9614 C   0  0  0  0  0  0  0  0  0  0  0  0
   -5.1456   -4.7573   -2.9278 H   0  0  0  0  0  0  0  0  0  0  0  0
   -5.4379   -4.9112   -1.2072 H   0  0  0  0  0  0  0  0  0  0  0  0
   -5.5954   -3.3510   -1.9864 H   0  0  0  0  0  0  0  0  0  0  0  0
   -3.0424   -2.8131   -2.1606 N   0  0  0  0  0  0  0  0  0  0  0  0
   -1.6755   -2.3891   -2.0077 C   0  0  2  0  0  0  0  0  0  0  0  0
   -1.5782   -1.5673   -0.7292 C   0  0  0  0  0  0  0  0  0  0  0  0
   -2.5448   -1.0064   -0.2171 O   0  0  0  0  0  0  0  0  0  0  0  0
   -1.2087   -1.5823   -3.2094 C   0  0  0  0  0  0  0  0  0  0  0  0
   -3.6915   -2.1888   -2.6360 H   0  0  0  0  0  0  0  0  0  0  0  0
   -1.0721   -3.2977   -1.9053 H   0  0  0  0  0  0  0  0  0  0  0  0
   -1.8017   -0.6681   -3.3281 H   0  0  0  0  0  0  0  0  0  0  0  0
   -0.1601   -1.2849   -3.1045 H   0  0  0  0  0  0  0  0  0  0  0  0
   -1.3074   -2.1646   -4.1319 H   0  0  0  0  0  0  0  0  0  0  0  0
   -0.2835   -1.5112   -0.2725 N   0  0  0  0  0  0  0  0  0  0  0  0
    0.0769   -0.7658    0.9424 C   0  0  0  0  0  0  0  0  0  0  0  0
    0.3348   -1.7317    2.0705 C   0  0  0  0  0  0  0  0  0  0  0  0
   -0.4513   -1.9153    2.9961 O   0  0  0  0  0  0  0  0  0  0  0  0
    0.4587   -2.0097   -0.7289 H   0  0  0  0  0  0  0  0  0  0  0  0
   -0.7455   -0.0962    1.2114 H   0  0  0  0  0  0  0  0  0  0  0  0
    0.9763   -0.1745    0.7474 H   0  0  0  0  0  0  0  0  0  0  0  0
    1.5610   -2.3720    1.9260 N   0  0  0  0  0  0  0  0  0  0  0  0
    2.0641   -3.3438    2.8609 C   0  0  2  0  0  0  0  0  0  0  0  0
    2.3210   -4.6384    2.1010 C   0  0  0  0  0  0  0  0  0  0  0  0
    1.7687   -4.9130    1.0377 O   0  0  0  0  0  0  0  0  0  0  0  0
    1.0869   -3.5694    4.0041 C   0  0  0  0  0  0  0  0  0  0  0  0
    2.1333   -2.1410    1.1156 H   0  0  0  0  0  0  0  0  0  0  0  0
    3.0116   -2.9514    3.2458 H   0  0  0  0  0  0  0  0  0  0  0  0
    0.1315   -3.9625    3.6379 H   0  0  0  0  0  0  0  0  0  0  0  0
    1.4836   -4.2876    4.7293 H   0  0  0  0  0  0  0  0  0  0  0  0
    0.8803   -2.6315    4.5310 H   0  0  0  0  0  0  0  0  0  0  0  0
    3.2069   -5.4701    2.7715 N   0  0  0  0  0  0  0  0  0  0  0  0
    3.6016   -6.7622    2.2609 C   0  0  0  0  0  0  0  0  0  0  0  0
    3.6311   -5.1533    3.6383 H   0  0  0  0  0  0  0  0  0  0  0  0
    2.9363   -7.5373    2.6691 H   0  0  0  0  0  0  0  0  0  0  0  0
    3.5312   -6.7597    1.1632 H   0  0  0  0  0  0  0  0  0  0  0  0
    4.6384   -6.9739    2.5613 H   0  0  0  0  0  0  0  0  0  0  0  0
  1  3  1  0  0  0  0
  1  7  1  0  0  0  0
  1  2  2  0  0  0  0
 18 19  1  0  0  0  0
 19 24  1  0  0  0  0
 19 20  2  0  0  0  0
 25 26  1  0  0  0  0
 26 34  1  0  0  0  0
 26 27  2  0  0  0  0
  8  9  1  0  0  0  0
  9 17  1  0  0  0  0
  9 10  2  0  0  0  0
 25 28  1  0  0  0  0
  8 11  1  0  0  0  0
 34 35  1  0  0  0  0
 17 18  1  0  0  0  0
 24 25  1  0  0  0  0
  7  8  1  0  0  0  0
  3  4  1  0  0  0  0
  3  5  1  0  0  0  0
  3  6  1  0  0  0  0
 28 31  1  0  0  0  0
 28 32  1  0  0  0  0
 28 33  1  0  0  0  0
 11 14  1  0  0  0  0
 11 15  1  0  0  0  0
 11 16  1  0  0  0  0
 35 37  1  0  0  0  0
 35 38  1  0  0  0  0
 35 39  1  0  0  0  0
 18 22  1  0  0  0  0
 18 23  1  0  0  0  0
 25 30  1  0  0  0  0
  8 13  1  0  0  0  0
 34 36  1  0  0  0  0
 17 21  1  0  0  0  0
  7 12  1  0  0  0  0
 24 29  1  0  0  0  0
M  END
$$$$

  -OEChem-05262214473D

 39 38  0     1  0  0  0  0  0999 V2000
   -3.5200   -4.0268   -1.6943 C   0  0  0  0  0  0  0  0  0  0  0  0
   -2.8702   -4.8827   -1.1054 O   0  0  0  0  0  0  0  0  0  0  0  0
   -4.9704   -4.2579   -1.9614 C   0  0  0  0  0  0  0  0  0  0  0  0
   -5.1456   -4.7573   -2.9278 H   0  0  0  0  0  0  0  0  0  0  0  0
   -5.4379   -4.9112   -1.2072 H   0  0  0  0  0  0  0  0  0  0  0  0
   -5.5954   -3.3510   -1.9864 H   0  0  0  0  0  0  0  0  0  0  0  0
   -3.0424   -2.8131   -2.1606 N   0  0  0  0  0  0  0  0  0  0  0  0
   -1.6755   -2.3891   -2.0077 C   0  0  2  0  0  0  0  0  0  0  0  0
   -1.5782   -1.5673   -0.7292 C   0  0  0  0  0  0  0  0  0  0  0  0
   -2.5448   -1.0064   -0.2171 O   0  0  0  0  0  0  0  0  0  0  0  0
   -1.2087   -1.5823   -3.2094 C   0  0  0  0  0  0  0  0  0  0  0  0
   -3.6915   -2.1888   -2.6360 H   0  0  0  0  0  0  0  0  0  0  0  0
   -1.0721   -3.2977   -1.9053 H   0  0  0  0  0  0  0  0  0  0  0  0
   -1.8017   -0.6681   -3.3281 H   0  0  0  0  0  0  0  0  0  0  0  0
   -0.1601   -1.2849   -3.1045 H   0  0  0  0  0  0  0  0  0  0  0  0
   -1.3074   -2.1646   -4.1319 H   0  0  0  0  0  0  0  0  0  0  0  0
   -0.2835   -1.5112   -0.2725 N   0  0  0  0  0  0  0  0  0  0  0  0
    0.0769   -0.7658    0.9424 C   0  0  0  0  0  0  0  0  0  0  0  0
    0.3348   -1.7317    2.0705 C   0  0  0  0  0  0  0  0  0  0  0  0
   -0.5385   -2.1171    2.8433 O   0  0  0  0  0  0  0  0  0  0  0  0
    0.4587   -2.0097   -0.7289 H   0  0  0  0  0  0  0  0  0  0  0  0
   -0.7455   -0.0962    1.2114 H   0  0  0  0  0  0  0  0  0  0  0  0
    0.9763   -0.1745    0.7474 H   0  0  0  0  0  0  0  0  0  0  0  0
    1.6702   -2.1175    2.1190 N   0  0  0  0  0  0  0  0  0  0  0  0
    2.1975   -3.0309    3.0983 C   0  0  2  0  0  0  0  0  0  0  0  0
    2.8243   -4.2046    2.3573 C   0  0  0  0  0  0  0  0  0  0  0  0
    2.5162   -4.5141    1.2083 O   0  0  0  0  0  0  0  0  0  0  0  0
    1.1126   -3.5068    4.0518 C   0  0  0  0  0  0  0  0  0  0  0  0
    2.3088   -1.7333    1.4246 H   0  0  0  0  0  0  0  0  0  0  0  0
    2.9741   -2.4896    3.6497 H   0  0  0  0  0  0  0  0  0  0  0  0
    0.3256   -4.0514    3.5174 H   0  0  0  0  0  0  0  0  0  0  0  0
    1.5209   -4.1792    4.8136 H   0  0  0  0  0  0  0  0  0  0  0  0
    0.6426   -2.6590    4.5618 H   0  0  0  0  0  0  0  0  0  0  0  0
    3.7368   -4.8920    3.1453 N   0  0  0  0  0  0  0  0  0  0  0  0
    4.4561   -6.0522    2.6735 C   0  0  0  0  0  0  0  0  0  0  0  0
    3.9445   -4.5534    4.0802 H   0  0  0  0  0  0  0  0  0  0  0  0
    3.8998   -6.9628    2.9407 H   0  0  0  0  0  0  0  0  0  0  0  0
    4.5647   -5.9965    1.5803 H   0  0  0  0  0  0  0  0  0  0  0  0
    5.4519   -6.0808    3.1399 H   0  0  0  0  0  0  0  0  0  0  0  0
  1  3  1  0  0  0  0
  1  7  1  0  0  0  0
  1  2  2  0  0  0  0
 18 19  1  0  0  0  0
 19 24  1  0  0  0  0
 19 20  2  0  0  0  0
 25 26  1  0  0  0  0
 26 34  1  0  0  0  0
 26 27  2  0  0  0  0
  8  9  1  0  0  0  0
  9 17  1  0  0  0  0
  9 10  2  0  0  0  0
 25 28  1  0  0  0  0
  8 11  1  0  0  0  0
 34 35  1  0  0  0  0
 17 18  1  0  0  0  0
 24 25  1  0  0  0  0
  7  8  1  0  0  0  0
  3  4  1  0  0  0  0
  3  5  1  0  0  0  0
  3  6  1  0  0  0  0
 28 31  1  0  0  0  0
 28 32  1  0  0  0  0
 28 33  1  0  0  0  0
 11 14  1  0  0  0  0
 11 15  1  0  0  0  0
 11 16  1  0  0  0  0
 35 37  1  0  0  0  0
 35 38  1  0  0  0  0
 35 39  1  0  0  0  0
 18 22  1  0  0  0  0
 18 23  1  0  0  0  0
 25 30  1  0  0  0  0
  8 13  1  0  0  0  0
 34 36  1  0  0  0  0
 17 21  1  0  0  0  0
  7 12  1  0  0  0  0
 24 29  1  0  0  0  0
M  END
$$$$

  -OEChem-05262214473D

 39 38  0     1  0  0  0  0  0999 V2000
   -3.5200   -4.0268   -1.6943 C   0  0  0  0  0  0  0  0  0  0  0  0
   -2.8702   -4.8827   -1.1054 O   0  0  0  0  0  0  0  0  0  0  0  0
   -4.9704   -4.2579   -1.9614 C   0  0  0  0  0  0  0  0  0  0  0  0
   -5.1456   -4.7573   -2.9278 H   0  0  0  0  0  0  0  0  0  0  0  0
   -5.4379   -4.9112   -1.2072 H   0  0  0  0  0  0  0  0  0  0  0  0
   -5.5954   -3.3510   -1.9864 H   0  0  0  0  0  0  0  0  0  0  0  0
   -3.0424   -2.8131   -2.1606 N   0  0  0  0  0  0  0  0  0  0  0  0
   -1.6755   -2.3891   -2.0077 C   0  0  2  0  0  0  0  0  0  0  0  0
   -1.5782   -1.5673   -0.7292 C   0  0  0  0  0  0  0  0  0  0  0  0
   -2.5448   -1.0064   -0.2171 O   0  0  0  0  0  0  0  0  0  0  0  0
   -1.2087   -1.5823   -3.2094 C   0  0  0  0  0  0  0  0  0  0  0  0
   -3.6915   -2.1888   -2.6360 H   0  0  0  0  0  0  0  0  0  0  0  0
   -1.0721   -3.2977   -1.9053 H   0  0  0  0  0  0  0  0  0  0  0  0
   -1.8017   -0.6681   -3.3281 H   0  0  0  0  0  0  0  0  0  0  0  0
   -0.1601   -1.2849   -3.1045 H   0  0  0  0  0  0  0  0  0  0  0  0
   -1.3074   -2.1646   -4.1319 H   0  0  0  0  0  0  0  0  0  0  0  0
   -0.2835   -1.5112   -0.2725 N   0  0  0  0  0  0  0  0  0  0  0  0
    0.0769   -0.7658    0.9424 C   0  0  0  0  0  0  0  0  0  0  0  0
    0.3348   -1.7317    2.0705 C   0  0  0  0  0  0  0  0  0  0  0  0
   -0.5583   -2.3221    2.6722 O   0  0  0  0  0  0  0  0  0  0  0  0
    0.4587   -2.0097   -0.7289 H   0  0  0  0  0  0  0  0  0  0  0  0
   -0.7455   -0.0962    1.2114 H   0  0  0  0  0  0  0  0  0  0  0  0
    0.9763   -0.1745    0.7474 H   0  0  0  0  0  0  0  0  0  0  0  0
    1.6944   -1.8590    2.3348 N   0  0  0  0  0  0  0  0  0  0  0  0
    2.2265   -2.7132    3.3637 C   0  0  2  0  0  0  0  0  0  0  0  0
    3.1839   -3.6994    2.7077 C   0  0  0  0  0  0  0  0  0  0  0  0
    3.1326   -3.9915    1.5147 O   0  0  0  0  0  0  0  0  0  0  0  0
    1.1174   -3.4436    4.1049 C   0  0  0  0  0  0  0  0  0  0  0  0
    2.3481   -1.3191    1.7702 H   0  0  0  0  0  0  0  0  0  0  0  0
    2.7815   -2.0688    4.0541 H   0  0  0  0  0  0  0  0  0  0  0  0
    0.5502   -4.0943    3.4293 H   0  0  0  0  0  0  0  0  0  0  0  0
    1.5219   -4.0711    4.9059 H   0  0  0  0  0  0  0  0  0  0  0  0
    0.4132   -2.7330    4.5510 H   0  0  0  0  0  0  0  0  0  0  0  0
    4.0747   -4.2474    3.6200 N   0  0  0  0  0  0  0  0  0  0  0  0
    5.0754   -5.2191    3.2452 C   0  0  0  0  0  0  0  0  0  0  0  0
    4.0577   -3.9329    4.5856 H   0  0  0  0  0  0  0  0  0  0  0  0
    4.6742   -6.2333    3.3882 H   0  0  0  0  0  0  0  0  0  0  0  0
    5.3460   -5.0776    2.1884 H   0  0  0  0  0  0  0  0  0  0  0  0
    5.9686   -5.0863    3.8733 H   0  0  0  0  0  0  0  0  0  0  0  0
  1  3  1  0  0  0  0
  1  7  1  0  0  0  0
  1  2  2  0  0  0  0
 18 19  1  0  0  0  0
 19 24  1  0  0  0  0
 19 20  2  0  0  0  0
 25 26  1  0  0  0  0
 26 34  1  0  0  0  0
 26 27  2  0  0  0  0
  8  9  1  0  0  0  0
  9 17  1  0  0  0  0
  9 10  2  0  0  0  0
 25 28  1  0  0  0  0
  8 11  1  0  0  0  0
 34 35  1  0  0  0  0
 17 18  1  0  0  0  0
 24 25  1  0  0  0  0
  7  8  1  0  0  0  0
  3  4  1  0  0  0  0
  3  5  1  0  0  0  0
  3  6  1  0  0  0  0
 28 31  1  0  0  0  0
 28 32  1  0  0  0  0
 28 33  1  0  0  0  0
 11 14  1  0  0  0  0
 11 15  1  0  0  0  0
 11 16  1  0  0  0  0
 35 37  1  0  0  0  0
 35 38  1  0  0  0  0
 35 39  1  0  0  0  0
 18 22  1  0  0  0  0
 18 23  1  0  0  0  0
 25 30  1  0  0  0  0
  8 13  1  0  0  0  0
 34 36  1  0  0  0  0
 17 21  1  0  0  0  0
  7 12  1  0  0  0  0
 24 29  1  0  0  0  0
M  END
$$$$

  -OEChem-05262214473D

 39 38  0     1  0  0  0  0  0999 V2000
   -3.5200   -4.0268   -1.6943 C   0  0  0  0  0  0  0  0  0  0  0  0
   -2.8702   -4.8827   -1.1054 O   0  0  0  0  0  0  0  0  0  0  0  0
   -4.9704   -4.2579   -1.9614 C   0  0  0  0  0  0  0  0  0  0  0  0
   -5.1456   -4.7573   -2.9278 H   0  0  0  0  0  0  0  0  0  0  0  0
   -5.4379   -4.9112   -1.2072 H   0  0  0  0  0  0  0  0  0  0  0  0
   -5.5954   -3.3510   -1.9864 H   0  0  0  0  0  0  0  0  0  0  0  0
   -3.0424   -2.8131   -2.1606 N   0  0  0  0  0  0  0  0  0  0  0  0
   -1.6755   -2.3891   -2.0077 C   0  0  2  0  0  0  0  0  0  0  0  0
   -1.5782   -1.5673   -0.7292 C   0  0  0  0  0  0  0  0  0  0  0  0
   -2.5448   -1.0064   -0.2171 O   0  0  0  0  0  0  0  0  0  0  0  0
   -1.2087   -1.5823   -3.2094 C   0  0  0  0  0  0  0  0  0  0  0  0
   -3.6915   -2.1888   -2.6360 H   0  0  0  0  0  0  0  0  0  0  0  0
   -1.0721   -3.2977   -1.9053 H   0  0  0  0  0  0  0  0  0  0  0  0
   -1.8017   -0.6681   -3.3281 H   0  0  0  0  0  0  0  0  0  0  0  0
   -0.1601   -1.2849   -3.1045 H   0  0  0  0  0  0  0  0  0  0  0  0
   -1.3074   -2.1646   -4.1319 H   0  0  0  0  0  0  0  0  0  0  0  0
   -0.2835   -1.5112   -0.2725 N   0  0  0  0  0  0  0  0  0  0  0  0
    0.0769   -0.7658    0.9424 C   0  0  0  0  0  0  0  0  0  0  0  0
    0.3348   -1.7317    2.0705 C   0  0  0  0  0  0  0  0  0  0  0  0
   -0.5094   -2.5164    2.4947 O   0  0  0  0  0  0  0  0  0  0  0  0
    0.4587   -2.0097   -0.7289 H   0  0  0  0  0  0  0  0  0  0  0  0
   -0.7455   -0.0962    1.2114 H   0  0  0  0  0  0  0  0  0  0  0  0
    0.9763   -0.1745    0.7474 H   0  0  0  0  0  0  0  0  0  0  0  0
    1.6319   -1.6142    2.5587 N   0  0  0  0  0  0  0  0  0  0  0  0
    2.1489   -2.4126    3.6388 C   0  0  2  0  0  0  0  0  0  0  0  0
    3.3752   -3.1573    3.1281 C   0  0  0  0  0  0  0  0  0  0  0  0
    3.5760   -3.3810    1.9361 O   0  0  0  0  0  0  0  0  0  0  0  0
    1.1010   -3.3839    4.1598 C   0  0  0  0  0  0  0  0  0  0  0  0
    2.2486   -0.9267    2.1290 H   0  0  0  0  0  0  0  0  0  0  0  0
    2.4468   -1.7175    4.4314 H   0  0  0  0  0  0  0  0  0  0  0  0
    0.7902   -4.0883    3.3796 H   0  0  0  0  0  0  0  0  0  0  0  0
    1.4867   -3.9705    5.0001 H   0  0  0  0  0  0  0  0  0  0  0  0
    0.2078   -2.8484    4.4991 H   0  0  0  0  0  0  0  0  0  0  0  0
    4.1975   -3.5804    4.1630 N   0  0  0  0  0  0  0  0  0  0  0  0
    5.4174   -4.3197    3.9370 C   0  0  0  0  0  0  0  0  0  0  0  0
    3.9630   -3.3340    5.1201 H   0  0  0  0  0  0  0  0  0  0  0  0
    5.2067   -5.3984    3.9813 H   0  0  0  0  0  0  0  0  0  0  0  0
    5.8218   -4.0656    2.9461 H   0  0  0  0  0  0  0  0  0  0  0  0
    6.1534   -4.0580    4.7115 H   0  0  0  0  0  0  0  0  0  0  0  0
  1  3  1  0  0  0  0
  1  7  1  0  0  0  0
  1  2  2  0  0  0  0
 18 19  1  0  0  0  0
 19 24  1  0  0  0  0
 19 20  2  0  0  0  0
 25 26  1  0  0  0  0
 26 34  1  0  0  0  0
 26 27  2  0  0  0  0
  8  9  1  0  0  0  0
  9 17  1  0  0  0  0
  9 10  2  0  0  0  0
 25 28  1  0  0  0  0
  8 11  1  0  0  0  0
 34 35  1  0  0  0  0
 17 18  1  0  0  0  0
 24 25  1  0  0  0  0
  7  8  1  0  0  0  0
  3  4  1  0  0  0  0
  3  5  1  0  0  0  0
  3  6  1  0  0  0  0
 28 31  1  0  0  0  0
 28 32  1  0  0  0  0
 28 33  1  0  0  0  0
 11 14  1  0  0  0  0
 11 15  1  0  0  0  0
 11 16  1  0  0  0  0
 35 37  1  0  0  0  0
 35 38  1  0  0  0  0
 35 39  1  0  0  0  0
 18 22  1  0  0  0  0
 18 23  1  0  0  0  0
 25 30  1  0  0  0  0
  8 13  1  0  0  0  0
 34 36  1  0  0  0  0
 17 21  1  0  0  0  0
  7 12  1  0  0  0  0
 24 29  1  0  0  0  0
M  END
$$$$

  -OEChem-05262214473D

 39 38  0     1  0  0  0  0  0999 V2000
   -3.5200   -4.0268   -1.6943 C   0  0  0  0  0  0  0  0  0  0  0  0
   -2.8702   -4.8827   -1.1054 O   0  0  0  0  0  0  0  0  0  0  0  0
   -4.9704   -4.2579   -1.9614 C   0  0  0  0  0  0  0  0  0  0  0  0
   -5.1456   -4.7573   -2.9278 H   0  0  0  0  0  0  0  0  0  0  0  0
   -5.4379   -4.9112   -1.2072 H   0  0  0  0  0  0  0  0  0  0  0  0
   -5.5954   -3.3510   -1.9864 H   0  0  0  0  0  0  0  0  0  0  0  0
   -3.0424   -2.8131   -2.1606 N   0  0  0  0  0  0  0  0  0  0  0  0
   -1.6755   -2.3891   -2.0077 C   0  0  2  0  0  0  0  0  0  0  0  0
   -1.5782   -1.5673   -0.7292 C   0  0  0  0  0  0  0  0  0  0  0  0
   -2.5448   -1.0064   -0.2171 O   0  0  0  0  0  0  0  0  0  0  0  0
   -1.2087   -1.5823   -3.2094 C   0  0  0  0  0  0  0  0  0  0  0  0
   -3.6915   -2.1888   -2.6360 H   0  0  0  0  0  0  0  0  0  0  0  0
   -1.0721   -3.2977   -1.9053 H   0  0  0  0  0  0  0  0  0  0  0  0
   -1.8017   -0.6681   -3.3281 H   0  0  0  0  0  0  0  0  0  0  0  0
   -0.1601   -1.2849   -3.1045 H   0  0  0  0  0  0  0  0  0  0  0  0
   -1.3074   -2.1646   -4.1319 H   0  0  0  0  0  0  0  0  0  0  0  0
   -0.2835   -1.5112   -0.2725 N   0  0  0  0  0  0  0  0  0  0  0  0
    0.0769   -0.7658    0.9424 C   0  0  0  0  0  0  0  0  0  0  0  0
    0.3348   -1.7317    2.0705 C   0  0  0  0  0  0  0  0  0  0  0  0
   -0.3950   -2.6867    2.3227 O   0  0  0  0  0  0  0  0  0  0  0  0
    0.4587   -2.0097   -0.7289 H   0  0  0  0  0  0  0  0  0  0  0  0
   -0.7455   -0.0962    1.2114 H   0  0  0  0  0  0  0  0  0  0  0  0
    0.9763   -0.1745    0.7474 H   0  0  0  0  0  0  0  0  0  0  0  0
    1.4870   -1.3998    2.7754 N   0  0  0  0  0  0  0  0  0  0  0  0
    1.9701   -2.1494    3.9051 C   0  0  2  0  0  0  0  0  0  0  0  0
    3.3854   -2.6152    3.5899 C   0  0  0  0  0  0  0  0  0  0  0  0
    3.8161   -2.7240    2.4437 O   0  0  0  0  0  0  0  0  0  0  0  0
    1.0645   -3.3318    4.2127 C   0  0  0  0  0  0  0  0  0  0  0  0
    2.0169   -0.5829    2.4763 H   0  0  0  0  0  0  0  0  0  0  0  0
    1.9929   -1.4598    4.7559 H   0  0  0  0  0  0  0  0  0  0  0  0
    1.0290   -4.0338    3.3716 H   0  0  0  0  0  0  0  0  0  0  0  0
    1.4175   -3.8843    5.0897 H   0  0  0  0  0  0  0  0  0  0  0  0
    0.0403   -2.9974    4.4099 H   0  0  0  0  0  0  0  0  0  0  0  0
    4.0968   -2.9364    4.7374 N   0  0  0  0  0  0  0  0  0  0  0  0
    5.4589   -3.4154    4.7018 C   0  0  0  0  0  0  0  0  0  0  0  0
    3.6669   -2.7975    5.6472 H   0  0  0  0  0  0  0  0  0  0  0  0
    5.4609   -4.5152    4.6794 H   0  0  0  0  0  0  0  0  0  0  0  0
    5.9597   -3.0295    3.8017 H   0  0  0  0  0  0  0  0  0  0  0  0
    5.9938   -3.0661    5.5973 H   0  0  0  0  0  0  0  0  0  0  0  0
  1  3  1  0  0  0  0
  1  7  1  0  0  0  0
  1  2  2  0  0  0  0
 18 19  1  0  0  0  0
 19 24  1  0  0  0  0
 19 20  2  0  0  0  0
 25 26  1  0  0  0  0
 26 34  1  0  0  0  0
 26 27  2  0  0  0  0
  8  9  1  0  0  0  0
  9 17  1  0  0  0  0
  9 10  2  0  0  0  0
 25 28  1  0  0  0  0
  8 11  1  0  0  0  0
 34 35  1  0  0  0  0
 17 18  1  0  0  0  0
 24 25  1  0  0  0  0
  7  8  1  0  0  0  0
  3  4  1  0  0  0  0
  3  5  1  0  0  0  0
  3  6  1  0  0  0  0
 28 31  1  0  0  0  0
 28 32  1  0  0  0  0
 28 33  1  0  0  0  0
 11 14  1  0  0  0  0
 11 15  1  0  0  0  0
 11 16  1  0  0  0  0
 35 37  1  0  0  0  0
 35 38  1  0  0  0  0
 35 39  1  0  0  0  0
 18 22  1  0  0  0  0
 18 23  1  0  0  0  0
 25 30  1  0  0  0  0
  8 13  1  0  0  0  0
 34 36  1  0  0  0  0
 17 21  1  0  0  0  0
  7 12  1  0  0  0  0
 24 29  1  0  0  0  0
M  END
$$$$

  -OEChem-05262214473D

 39 38  0     1  0  0  0  0  0999 V2000
   -3.5200   -4.0268   -1.6943 C   0  0  0  0  0  0  0  0  0  0  0  0
   -2.8702   -4.8827   -1.1054 O   0  0  0  0  0  0  0  0  0  0  0  0
   -4.9704   -4.2579   -1.9614 C   0  0  0  0  0  0  0  0  0  0  0  0
   -5.1456   -4.7573   -2.9278 H   0  0  0  0  0  0  0  0  0  0  0  0
   -5.4379   -4.9112   -1.2072 H   0  0  0  0  0  0  0  0  0  0  0  0
   -5.5954   -3.3510   -1.9864 H   0  0  0  0  0  0  0  0  0  0  0  0
   -3.0424   -2.8131   -2.1606 N   0  0  0  0  0  0  0  0  0  0  0  0
   -1.6755   -2.3891   -2.0077 C   0  0  2  0  0  0  0  0  0  0  0  0
   -1.5782   -1.5673   -0.7292 C   0  0  0  0  0  0  0  0  0  0  0  0
   -2.5448   -1.0064   -0.2171 O   0  0  0  0  0  0  0  0  0  0  0  0
   -1.2087   -1.5823   -3.2094 C   0  0  0  0  0  0  0  0  0  0  0  0
   -3.6915   -2.1888   -2.6360 H   0  0  0  0  0  0  0  0  0  0  0  0
   -1.0721   -3.2977   -1.9053 H   0  0  0  0  0  0  0  0  0  0  0  0
   -1.8017   -0.6681   -3.3281 H   0  0  0  0  0  0  0  0  0  0  0  0
   -0.1601   -1.2849   -3.1045 H   0  0  0  0  0  0  0  0  0  0  0  0
   -1.3074   -2.1646   -4.1319 H   0  0  0  0  0  0  0  0  0  0  0  0
   -0.2835   -1.5112   -0.2725 N   0  0  0  0  0  0  0  0  0  0  0  0
    0.0769   -0.7658    0.9424 C   0  0  0  0  0  0  0  0  0  0  0  0
    0.3348   -1.7317    2.0705 C   0  0  0  0  0  0  0  0  0  0  0  0
   -0.2231   -2.8215    2.1680 O   0  0  0  0  0  0  0  0  0  0  0  0
    0.4587   -2.0097   -0.7289 H   0  0  0  0  0  0  0  0  0  0  0  0
   -0.7455   -0.0962    1.2114 H   0  0  0  0  0  0  0  0  0  0  0  0
    0.9763   -0.1745    0.7474 H   0  0  0  0  0  0  0  0  0  0  0  0
    1.2695   -1.2303    2.9703 N   0  0  0  0  0  0  0  0  0  0  0  0
    1.7022   -1.9416    4.1442 C   0  0  2  0  0  0  0  0  0  0  0  0
    3.2136   -2.1101    4.0616 C   0  0  0  0  0  0  0  0  0  0  0  0
    3.8366   -2.0654    3.0029 O   0  0  0  0  0  0  0  0  0  0  0  0
    1.0104   -3.2909    4.2600 C   0  0  0  0  0  0  0  0  0  0  0  0
    1.6690   -0.3110    2.7887 H   0  0  0  0  0  0  0  0  0  0  0  0
    1.4507   -1.3131    5.0055 H   0  0  0  0  0  0  0  0  0  0  0  0
    1.2504   -3.9346    3.4059 H   0  0  0  0  0  0  0  0  0  0  0  0
    1.3192   -3.8185    5.1685 H   0  0  0  0  0  0  0  0  0  0  0  0
   -0.0779   -3.1697    4.2893 H   0  0  0  0  0  0  0  0  0  0  0  0
    3.7796   -2.3593    5.3041 N   0  0  0  0  0  0  0  0  0  0  0  0
    5.1969   -2.5678    5.4875 C   0  0  0  0  0  0  0  0  0  0  0  0
    3.1895   -2.3600    6.1309 H   0  0  0  0  0  0  0  0  0  0  0  0
    5.4196   -3.6437    5.4350 H   0  0  0  0  0  0  0  0  0  0  0  0
    5.7504   -2.0399    4.6969 H   0  0  0  0  0  0  0  0  0  0  0  0
    5.5006   -2.1781    6.4703 H   0  0  0  0  0  0  0  0  0  0  0  0
  1  3  1  0  0  0  0
  1  7  1  0  0  0  0
  1  2  2  0  0  0  0
 18 19  1  0  0  0  0
 19 24  1  0  0  0  0
 19 20  2  0  0  0  0
 25 26  1  0  0  0  0
 26 34  1  0  0  0  0
 26 27  2  0  0  0  0
  8  9  1  0  0  0  0
  9 17  1  0  0  0  0
  9 10  2  0  0  0  0
 25 28  1  0  0  0  0
  8 11  1  0  0  0  0
 34 35  1  0  0  0  0
 17 18  1  0  0  0  0
 24 25  1  0  0  0  0
  7  8  1  0  0  0  0
  3  4  1  0  0  0  0
  3  5  1  0  0  0  0
  3  6  1  0  0  0  0
 28 31  1  0  0  0  0
 28 32  1  0  0  0  0
 28 33  1  0  0  0  0
 11 14  1  0  0  0  0
 11 15  1  0  0  0  0
 11 16  1  0  0  0  0
 35 37  1  0  0  0  0
 35 38  1  0  0  0  0
 35 39  1  0  0  0  0
 18 22  1  0  0  0  0
 18 23  1  0  0  0  0
 25 30  1  0  0  0  0
  8 13  1  0  0  0  0
 34 36  1  0  0  0  0
 17 21  1  0  0  0  0
  7 12  1  0  0  0  0
 24 29  1  0  0  0  0
M  END
$$$$

  -OEChem-05262214473D

 39 38  0     1  0  0  0  0  0999 V2000
   -3.5200   -4.0268   -1.6943 C   0  0  0  0  0  0  0  0  0  0  0  0
   -2.8702   -4.8827   -1.1054 O   0  0  0  0  0  0  0  0  0  0  0  0
   -4.9704   -4.2579   -1.9614 C   0  0  0  0  0  0  0  0  0  0  0  0
   -5.1456   -4.7573   -2.9278 H   0  0  0  0  0  0  0  0  0  0  0  0
   -5.4379   -4.9112   -1.2072 H   0  0  0  0  0  0  0  0  0  0  0  0
   -5.5954   -3.3510   -1.9864 H   0  0  0  0  0  0  0  0  0  0  0  0
   -3.0424   -2.8131   -2.1606 N   0  0  0  0  0  0  0  0  0  0  0  0
   -1.6755   -2.3891   -2.0077 C   0  0  2  0  0  0  0  0  0  0  0  0
   -1.5782   -1.5673   -0.7292 C   0  0  0  0  0  0  0  0  0  0  0  0
   -2.5448   -1.0064   -0.2171 O   0  0  0  0  0  0  0  0  0  0  0  0
   -1.2087   -1.5823   -3.2094 C   0  0  0  0  0  0  0  0  0  0  0  0
   -3.6915   -2.1888   -2.6360 H   0  0  0  0  0  0  0  0  0  0  0  0
   -1.0721   -3.2977   -1.9053 H   0  0  0  0  0  0  0  0  0  0  0  0
   -1.8017   -0.6681   -3.3281 H   0  0  0  0  0  0  0  0  0  0  0  0
   -0.1601   -1.2849   -3.1045 H   0  0  0  0  0  0  0  0  0  0  0  0
   -1.3074   -2.1646   -4.1319 H   0  0  0  0  0  0  0  0  0  0  0  0
   -0.2835   -1.5112   -0.2725 N   0  0  0  0  0  0  0  0  0  0  0  0
    0.0769   -0.7658    0.9424 C   0  0  0  0  0  0  0  0  0  0  0  0
    0.3348   -1.7317    2.0705 C   0  0  0  0  0  0  0  0  0  0  0  0
   -0.0052   -2.9115    2.0411 O   0  0  0  0  0  0  0  0  0  0  0  0
    0.4587   -2.0097   -0.7289 H   0  0  0  0  0  0  0  0  0  0  0  0
   -0.7455   -0.0962    1.2114 H   0  0  0  0  0  0  0  0  0  0  0  0
    0.9763   -0.1745    0.7474 H   0  0  0  0  0  0  0  0  0  0  0  0
    0.9943   -1.1174    3.1299 N   0  0  0  0  0  0  0  0  0  0  0  0
    1.3635   -1.8034    4.3400 C   0  0  2  0  0  0  0  0  0  0  0  0
    2.8715   -1.6764    4.5112 C   0  0  0  0  0  0  0  0  0  0  0  0
    3.6361   -1.4500    3.5757 O   0  0  0  0  0  0  0  0  0  0  0  0
    0.9423   -3.2641    4.2986 C   0  0  0  0  0  0  0  0  0  0  0  0
    1.2284   -0.1297    3.0447 H   0  0  0  0  0  0  0  0  0  0  0  0
    0.8572   -1.2875    5.1631 H   0  0  0  0  0  0  0  0  0  0  0  0
    1.4395   -3.7974    3.4802 H   0  0  0  0  0  0  0  0  0  0  0  0
    1.1984   -3.7774    5.2313 H   0  0  0  0  0  0  0  0  0  0  0  0
   -0.1386   -3.3538    4.1456 H   0  0  0  0  0  0  0  0  0  0  0  0
    3.2674   -1.8884    5.8244 N   0  0  0  0  0  0  0  0  0  0  0  0
    4.6494   -1.8345    6.2405 C   0  0  0  0  0  0  0  0  0  0  0  0
    2.5635   -2.0513    6.5384 H   0  0  0  0  0  0  0  0  0  0  0  0
    5.0856   -2.8434    6.1966 H   0  0  0  0  0  0  0  0  0  0  0  0
    5.2080   -1.1642    5.5707 H   0  0  0  0  0  0  0  0  0  0  0  0
    4.7074   -1.4547    7.2712 H   0  0  0  0  0  0  0  0  0  0  0  0
  1  3  1  0  0  0  0
  1  7  1  0  0  0  0
  1  2  2  0  0  0  0
 18 19  1  0  0  0  0
 19 24  1  0  0  0  0
 19 20  2  0  0  0  0
 25 26  1  0  0  0  0
 26 34  1  0  0  0  0
 26 27  2  0  0  0  0
  8  9  1  0  0  0  0
  9 17  1  0  0  0  0
  9 10  2  0  0  0  0
 25 28  1  0  0  0  0
  8 11  1  0  0  0  0
 34 35  1  0  0  0  0
 17 18  1  0  0  0  0
 24 25  1  0  0  0  0
  7  8  1  0  0  0  0
  3  4  1  0  0  0  0
  3  5  1  0  0  0  0
  3  6  1  0  0  0  0
 28 31  1  0  0  0  0
 28 32  1  0  0  0  0
 28 33  1  0  0  0  0
 11 14  1  0  0  0  0
 11 15  1  0  0  0  0
 11 16  1  0  0  0  0
 35 37  1  0  0  0  0
 35 38  1  0  0  0  0
 35 39  1  0  0  0  0
 18 22  1  0  0  0  0
 18 23  1  0  0  0  0
 25 30  1  0  0  0  0
  8 13  1  0  0  0  0
 34 36  1  0  0  0  0
 17 21  1  0  0  0  0
  7 12  1  0  0  0  0
 24 29  1  0  0  0  0
M  END
$$$$

  -OEChem-05262214473D

 39 38  0     1  0  0  0  0  0999 V2000
   -3.5200   -4.0268   -1.6943 C   0  0  0  0  0  0  0  0  0  0  0  0
   -2.8702   -4.8827   -1.1054 O   0  0  0  0  0  0  0  0  0  0  0  0
   -4.9704   -4.2579   -1.9614 C   0  0  0  0  0  0  0  0  0  0  0  0
   -5.1456   -4.7573   -2.9278 H   0  0  0  0  0  0  0  0  0  0  0  0
   -5.4379   -4.9112   -1.2072 H   0  0  0  0  0  0  0  0  0  0  0  0
   -5.5954   -3.3510   -1.9864 H   0  0  0  0  0  0  0  0  0  0  0  0
   -3.0424   -2.8131   -2.1606 N   0  0  0  0  0  0  0  0  0  0  0  0
   -1.6755   -2.3891   -2.0077 C   0  0  2  0  0  0  0  0  0  0  0  0
   -1.5782   -1.5673   -0.7292 C   0  0  0  0  0  0  0  0  0  0  0  0
   -2.5448   -1.0064   -0.2171 O   0  0  0  0  0  0  0  0  0  0  0  0
   -1.2087   -1.5823   -3.2094 C   0  0  0  0  0  0  0  0  0  0  0  0
   -3.6915   -2.1888   -2.6360 H   0  0  0  0  0  0  0  0  0  0  0  0
   -1.0721   -3.2977   -1.9053 H   0  0  0  0  0  0  0  0  0  0  0  0
   -1.8017   -0.6681   -3.3281 H   0  0  0  0  0  0  0  0  0  0  0  0
   -0.1601   -1.2849   -3.1045 H   0  0  0  0  0  0  0  0  0  0  0  0
   -1.3074   -2.1646   -4.1319 H   0  0  0  0  0  0  0  0  0  0  0  0
   -0.2835   -1.5112   -0.2725 N   0  0  0  0  0  0  0  0  0  0  0  0
    0.0769   -0.7658    0.9424 C   0  0  0  0  0  0  0  0  0  0  0  0
    0.6849   -1.7064    1.9512 C   0  0  0  0  0  0  0  0  0  0  0  0
    0.8357   -2.9085    1.7492 O   0  0  0  0  0  0  0  0  0  0  0  0
    0.4587   -2.0097   -0.7289 H   0  0  0  0  0  0  0  0  0  0  0  0
   -0.8223   -0.3058    1.3628 H   0  0  0  0  0  0  0  0  0  0  0  0
    0.7966    0.0163    0.6837 H   0  0  0  0  0  0  0  0  0  0  0  0
    1.0422   -1.0426    3.1200 N   0  0  0  0  0  0  0  0  0  0  0  0
    1.6420   -1.6969    4.2529 C   0  0  2  0  0  0  0  0  0  0  0  0
    2.9776   -1.0211    4.5335 C   0  0  0  0  0  0  0  0  0  0  0  0
    3.5990   -0.3849    3.6848 O   0  0  0  0  0  0  0  0  0  0  0  0
    1.8285   -3.1845    3.9979 C   0  0  0  0  0  0  0  0  0  0  0  0
    0.8702   -0.0402    3.1772 H   0  0  0  0  0  0  0  0  0  0  0  0
    0.9675   -1.5408    5.1019 H   0  0  0  0  0  0  0  0  0  0  0  0
    2.5013   -3.3606    3.1507 H   0  0  0  0  0  0  0  0  0  0  0  0
    2.2585   -3.6859    4.8713 H   0  0  0  0  0  0  0  0  0  0  0  0
    0.8708   -3.6634    3.7670 H   0  0  0  0  0  0  0  0  0  0  0  0
    3.4150   -1.2481    5.8310 N   0  0  0  0  0  0  0  0  0  0  0  0
    4.6617   -0.7227    6.3366 C   0  0  0  0  0  0  0  0  0  0  0  0
    2.8263   -1.7713    6.4724 H   0  0  0  0  0  0  0  0  0  0  0  0
    5.4594   -1.4661    6.1912 H   0  0  0  0  0  0  0  0  0  0  0  0
    4.9172    0.1999    5.7949 H   0  0  0  0  0  0  0  0  0  0  0  0
    4.5581   -0.5014    7.4091 H   0  0  0  0  0  0  0  0  0  0  0  0
  1  3  1  0  0  0  0
  1  7  1  0  0  0  0
  1  2  2  0  0  0  0
 18 19  1  0  0  0  0
 19 24  1  0  0  0  0
 19 20  2  0  0  0  0
 25 26  1  0  0  0  0
 26 34  1  0  0  0  0
 26 27  2  0  0  0  0
  8  9  1  0  0  0  0
  9 17  1  0  0  0  0
  9 10  2  0  0  0  0
 25 28  1  0  0  0  0
  8 11  1  0  0  0  0
 34 35  1  0  0  0  0
 17 18  1  0  0  0  0
 24 25  1  0  0  0  0
  7  8  1  0  0  0  0
  3  4  1  0  0  0  0
  3  5  1  0  0  0  0
  3  6  1  0  0  0  0
 28 31  1  0  0  0  0
 28 32  1  0  0  0  0
 28 33  1  0  0  0  0
 11 14  1  0  0  0  0
 11 15  1  0  0  0  0
 11 16  1  0  0  0  0
 35 37  1  0  0  0  0
 35 38  1  0  0  0  0
 35 39  1  0  0  0  0
 18 22  1  0  0  0  0
 18 23  1  0  0  0  0
 25 30  1  0  0  0  0
  8 13  1  0  0  0  0
 34 36  1  0  0  0  0
 17 21  1  0  0  0  0
  7 12  1  0  0  0  0
 24 29  1  0  0  0  0
M  END
$$$$

  -OEChem-05262214473D

 39 38  0     1  0  0  0  0  0999 V2000
   -3.5200   -4.0268   -1.6943 C   0  0  0  0  0  0  0  0  0  0  0  0
   -2.8702   -4.8827   -1.1054 O   0  0  0  0  0  0  0  0  0  0  0  0
   -4.9704   -4.2579   -1.9614 C   0  0  0  0  0  0  0  0  0  0  0  0
   -5.1456   -4.7573   -2.9278 H   0  0  0  0  0  0  0  0  0  0  0  0
   -5.4379   -4.9112   -1.2072 H   0  0  0  0  0  0  0  0  0  0  0  0
   -5.5954   -3.3510   -1.9864 H   0  0  0  0  0  0  0  0  0  0  0  0
   -3.0424   -2.8131   -2.1606 N   0  0  0  0  0  0  0  0  0  0  0  0
   -1.6755   -2.3891   -2.0077 C   0  0  2  0  0  0  0  0  0  0  0  0
   -1.5782   -1.5673   -0.7292 C   0  0  0  0  0  0  0  0  0  0  0  0
   -2.5448   -1.0064   -0.2171 O   0  0  0  0  0  0  0  0  0  0  0  0
   -1.2087   -1.5823   -3.2094 C   0  0  0  0  0  0  0  0  0  0  0  0
   -3.6915   -2.1888   -2.6360 H   0  0  0  0  0  0  0  0  0  0  0  0
   -1.0721   -3.2977   -1.9053 H   0  0  0  0  0  0  0  0  0  0  0  0
   -1.8017   -0.6681   -3.3281 H   0  0  0  0  0  0  0  0  0  0  0  0
   -0.1601   -1.2849   -3.1045 H   0  0  0  0  0  0  0  0  0  0  0  0
   -1.3074   -2.1646   -4.1319 H   0  0  0  0  0  0  0  0  0  0  0  0
   -0.2835   -1.5112   -0.2725 N   0  0  0  0  0  0  0  0  0  0  0  0
    0.0769   -0.7658    0.9424 C   0  0  0  0  0  0  0  0  0  0  0  0
    0.6849   -1.7064    1.9512 C   0  0  0  0  0  0  0  0  0  0  0  0
    1.0807   -2.8347    1.6704 O   0  0  0  0  0  0  0  0  0  0  0  0
    0.4587   -2.0097   -0.7289 H   0  0  0  0  0  0  0  0  0  0  0  0
   -0.8223   -0.3058    1.3628 H   0  0  0  0  0  0  0  0  0  0  0  0
    0.7966    0.0163    0.6837 H   0  0  0  0  0  0  0  0  0  0  0  0
    0.7333   -1.1362    3.2189 N   0  0  0  0  0  0  0  0  0  0  0  0
    1.2624   -1.8126    4.3738 C   0  0  2  0  0  0  0  0  0  0  0  0
    2.3943   -0.9642    4.9382 C   0  0  0  0  0  0  0  0  0  0  0  0
    3.0115   -0.1383    4.2688 O   0  0  0  0  0  0  0  0  0  0  0  0
    1.7528   -3.2083    4.0214 C   0  0  0  0  0  0  0  0  0  0  0  0
    0.3753   -0.1898    3.3360 H   0  0  0  0  0  0  0  0  0  0  0  0
    0.4495   -1.8715    5.1058 H   0  0  0  0  0  0  0  0  0  0  0  0
    2.5675   -3.1695    3.2891 H   0  0  0  0  0  0  0  0  0  0  0  0
    2.1287   -3.7320    4.9065 H   0  0  0  0  0  0  0  0  0  0  0  0
    0.9447   -3.8075    3.5881 H   0  0  0  0  0  0  0  0  0  0  0  0
    2.6629   -1.2685    6.2654 N   0  0  0  0  0  0  0  0  0  0  0  0
    3.7014   -0.6087    7.0217 C   0  0  0  0  0  0  0  0  0  0  0  0
    2.0883   -1.9538    6.7470 H   0  0  0  0  0  0  0  0  0  0  0  0
    4.6337   -1.1880    6.9481 H   0  0  0  0  0  0  0  0  0  0  0  0
    3.8645    0.4010    6.6170 H   0  0  0  0  0  0  0  0  0  0  0  0
    3.3972   -0.5363    8.0763 H   0  0  0  0  0  0  0  0  0  0  0  0
  1  3  1  0  0  0  0
  1  7  1  0  0  0  0
  1  2  2  0  0  0  0
 18 19  1  0  0  0  0
 19 24  1  0  0  0  0
 19 20  2  0  0  0  0
 25 26  1  0  0  0  0
 26 34  1  0  0  0  0
 26 27  2  0  0  0  0
  8  9  1  0  0  0  0
  9 17  1  0  0  0  0
  9 10  2  0  0  0  0
 25 28  1  0  0  0  0
  8 11  1  0  0  0  0
 34 35  1  0  0  0  0
 17 18  1  0  0  0  0
 24 25  1  0  0  0  0
  7  8  1  0  0  0  0
  3  4  1  0  0  0  0
  3  5  1  0  0  0  0
  3  6  1  0  0  0  0
 28 31  1  0  0  0  0
 28 32  1  0  0  0  0
 28 33  1  0  0  0  0
 11 14  1  0  0  0  0
 11 15  1  0  0  0  0
 11 16  1  0  0  0  0
 35 37  1  0  0  0  0
 35 38  1  0  0  0  0
 35 39  1  0  0  0  0
 18 22  1  0  0  0  0
 18 23  1  0  0  0  0
 25 30  1  0  0  0  0
  8 13  1  0  0  0  0
 34 36  1  0  0  0  0
 17 21  1  0  0  0  0
  7 12  1  0  0  0  0
 24 29  1  0  0  0  0
M  END
$$$$

  -OEChem-05262214473D

 39 38  0     1  0  0  0  0  0999 V2000
   -3.5200   -4.0268   -1.6943 C   0  0  0  0  0  0  0  0  0  0  0  0
   -2.8702   -4.8827   -1.1054 O   0  0  0  0  0  0  0  0  0  0  0  0
   -4.9704   -4.2579   -1.9614 C   0  0  0  0  0  0  0  0  0  0  0  0
   -5.1456   -4.7573   -2.9278 H   0  0  0  0  0  0  0  0  0  0  0  0
   -5.4379   -4.9112   -1.2072 H   0  0  0  0  0  0  0  0  0  0  0  0
   -5.5954   -3.3510   -1.9864 H   0  0  0  0  0  0  0  0  0  0  0  0
   -3.0424   -2.8131   -2.1606 N   0  0  0  0  0  0  0  0  0  0  0  0
   -1.6755   -2.3891   -2.0077 C   0  0  2  0  0  0  0  0  0  0  0  0
   -1.5782   -1.5673   -0.7292 C   0  0  0  0  0  0  0  0  0  0  0  0
   -2.5448   -1.0064   -0.2171 O   0  0  0  0  0  0  0  0  0  0  0  0
   -1.2087   -1.5823   -3.2094 C   0  0  0  0  0  0  0  0  0  0  0  0
   -3.6915   -2.1888   -2.6360 H   0  0  0  0  0  0  0  0  0  0  0  0
   -1.0721   -3.2977   -1.9053 H   0  0  0  0  0  0  0  0  0  0  0  0
   -1.8017   -0.6681   -3.3281 H   0  0  0  0  0  0  0  0  0  0  0  0
   -0.1601   -1.2849   -3.1045 H   0  0  0  0  0  0  0  0  0  0  0  0
   -1.3074   -2.1646   -4.1319 H   0  0  0  0  0  0  0  0  0  0  0  0
   -0.2835   -1.5112   -0.2725 N   0  0  0  0  0  0  0  0  0  0  0  0
    0.0769   -0.7658    0.9424 C   0  0  0  0  0  0  0  0  0  0  0  0
    0.6849   -1.7064    1.9512 C   0  0  0  0  0  0  0  0  0  0  0  0
    1.3173   -2.7127    1.6415 O   0  0  0  0  0  0  0  0  0  0  0  0
    0.4587   -2.0097   -0.7289 H   0  0  0  0  0  0  0  0  0  0  0  0
   -0.8223   -0.3058    1.3628 H   0  0  0  0  0  0  0  0  0  0  0  0
    0.7966    0.0163    0.6837 H   0  0  0  0  0  0  0  0  0  0  0  0
    0.4352   -1.2905    3.2547 N   0  0  0  0  0  0  0  0  0  0  0  0
    0.8962   -2.0027    4.4173 C   0  0  2  0  0  0  0  0  0  0  0  0
    1.7557   -1.0526    5.2407 C   0  0  0  0  0  0  0  0  0  0  0  0
    2.3071   -0.0629    4.7638 O   0  0  0  0  0  0  0  0  0  0  0  0
    1.6800   -3.2468    4.0293 C   0  0  0  0  0  0  0  0  0  0  0  0
   -0.1025   -0.4366    3.3939 H   0  0  0  0  0  0  0  0  0  0  0  0
    0.0057   -2.2811    4.9914 H   0  0  0  0  0  0  0  0  0  0  0  0
    2.5759   -2.9878    3.4534 H   0  0  0  0  0  0  0  0  0  0  0  0
    2.0056   -3.8028    4.9147 H   0  0  0  0  0  0  0  0  0  0  0  0
    1.0699   -3.9152    3.4122 H   0  0  0  0  0  0  0  0  0  0  0  0
    1.8697   -1.4637    6.5614 N   0  0  0  0  0  0  0  0  0  0  0  0
    2.6435   -0.7364    7.5403 C   0  0  0  0  0  0  0  0  0  0  0  0
    1.3628   -2.2865    6.8741 H   0  0  0  0  0  0  0  0  0  0  0  0
    3.6656   -1.1415    7.5750 H   0  0  0  0  0  0  0  0  0  0  0  0
    2.6800    0.3272    7.2620 H   0  0  0  0  0  0  0  0  0  0  0  0
    2.1741   -0.8407    8.5296 H   0  0  0  0  0  0  0  0  0  0  0  0
  1  3  1  0  0  0  0
  1  7  1  0  0  0  0
  1  2  2  0  0  0  0
 18 19  1  0  0  0  0
 19 24  1  0  0  0  0
 19 20  2  0  0  0  0
 25 26  1  0  0  0  0
 26 34  1  0  0  0  0
 26 27  2  0  0  0  0
  8  9  1  0  0  0  0
  9 17  1  0  0  0  0
  9 10  2  0  0  0  0
 25 28  1  0  0  0  0
  8 11  1  0  0  0  0
 34 35  1  0  0  0  0
 17 18  1  0  0  0  0
 24 25  1  0  0  0  0
  7  8  1  0  0  0  0
  3  4  1  0  0  0  0
  3  5  1  0  0  0  0
  3  6  1  0  0  0  0
 28 31  1  0  0  0  0
 28 32  1  0  0  0  0
 28 33  1  0  0  0  0
 11 14  1  0  0  0  0
 11 15  1  0  0  0  0
 11 16  1  0  0  0  0
 35 37  1  0  0  0  0
 35 38  1  0  0  0  0
 35 39  1  0  0  0  0
 18 22  1  0  0  0  0
 18 23  1  0  0  0  0
 25 30  1  0  0  0  0
  8 13  1  0  0  0  0
 34 36  1  0  0  0  0
 17 21  1  0  0  0  0
  7 12  1  0  0  0  0
 24 29  1  0  0  0  0
M  END
$$$$

  -OEChem-05262214473D

 39 38  0     1  0  0  0  0  0999 V2000
   -3.5200   -4.0268   -1.6943 C   0  0  0  0  0  0  0  0  0  0  0  0
   -2.8702   -4.8827   -1.1054 O   0  0  0  0  0  0  0  0  0  0  0  0
   -4.9704   -4.2579   -1.9614 C   0  0  0  0  0  0  0  0  0  0  0  0
   -5.1456   -4.7573   -2.9278 H   0  0  0  0  0  0  0  0  0  0  0  0
   -5.4379   -4.9112   -1.2072 H   0  0  0  0  0  0  0  0  0  0  0  0
   -5.5954   -3.3510   -1.9864 H   0  0  0  0  0  0  0  0  0  0  0  0
   -3.0424   -2.8131   -2.1606 N   0  0  0  0  0  0  0  0  0  0  0  0
   -1.6755   -2.3891   -2.0077 C   0  0  2  0  0  0  0  0  0  0  0  0
   -1.5782   -1.5673   -0.7292 C   0  0  0  0  0  0  0  0  0  0  0  0
   -2.5448   -1.0064   -0.2171 O   0  0  0  0  0  0  0  0  0  0  0  0
   -1.2087   -1.5823   -3.2094 C   0  0  0  0  0  0  0  0  0  0  0  0
   -3.6915   -2.1888   -2.6360 H   0  0  0  0  0  0  0  0  0  0  0  0
   -1.0721   -3.2977   -1.9053 H   0  0  0  0  0  0  0  0  0  0  0  0
   -1.8017   -0.6681   -3.3281 H   0  0  0  0  0  0  0  0  0  0  0  0
   -0.1601   -1.2849   -3.1045 H   0  0  0  0  0  0  0  0  0  0  0  0
   -1.3074   -2.1646   -4.1319 H   0  0  0  0  0  0  0  0  0  0  0  0
   -0.2835   -1.5112   -0.2725 N   0  0  0  0  0  0  0  0  0  0  0  0
    0.0769   -0.7658    0.9424 C   0  0  0  0  0  0  0  0  0  0  0  0
    0.6849   -1.7064    1.9512 C   0  0  0  0  0  0  0  0  0  0  0  0
    1.5293   -2.5509    1.6646 O   0  0  0  0  0  0  0  0  0  0  0  0
    0.4587   -2.0097   -0.7289 H   0  0  0  0  0  0  0  0  0  0  0  0
   -0.8223   -0.3058    1.3628 H   0  0  0  0  0  0  0  0  0  0  0  0
    0.7966    0.0163    0.6837 H   0  0  0  0  0  0  0  0  0  0  0  0
    0.1681   -1.4949    3.2250 N   0  0  0  0  0  0  0  0  0  0  0  0
    0.5684   -2.2543    4.3802 C   0  0  2  0  0  0  0  0  0  0  0  0
    1.1052   -1.2801    5.4206 C   0  0  0  0  0  0  0  0  0  0  0  0
    1.5336   -0.1636    5.1360 O   0  0  0  0  0  0  0  0  0  0  0  0
    1.6151   -3.2974    4.0212 C   0  0  0  0  0  0  0  0  0  0  0  0
   -0.5306   -0.7638    3.3468 H   0  0  0  0  0  0  0  0  0  0  0  0
   -0.3335   -2.7416    4.7664 H   0  0  0  0  0  0  0  0  0  0  0  0
    2.5261   -2.8280    3.6324 H   0  0  0  0  0  0  0  0  0  0  0  0
    1.8976   -3.8933    4.8954 H   0  0  0  0  0  0  0  0  0  0  0  0
    1.2379   -3.9791    3.2513 H   0  0  0  0  0  0  0  0  0  0  0  0
    1.0896   -1.8206    6.6988 N   0  0  0  0  0  0  0  0  0  0  0  0
    1.5600   -1.0972    7.8569 C   0  0  0  0  0  0  0  0  0  0  0  0
    0.6990   -2.7468    6.8449 H   0  0  0  0  0  0  0  0  0  0  0  0
    2.6213   -1.3297    8.0290 H   0  0  0  0  0  0  0  0  0  0  0  0
    1.4445   -0.0167    7.6861 H   0  0  0  0  0  0  0  0  0  0  0  0
    0.9723   -1.3940    8.7381 H   0  0  0  0  0  0  0  0  0  0  0  0
  1  3  1  0  0  0  0
  1  7  1  0  0  0  0
  1  2  2  0  0  0  0
 18 19  1  0  0  0  0
 19 24  1  0  0  0  0
 19 20  2  0  0  0  0
 25 26  1  0  0  0  0
 26 34  1  0  0  0  0
 26 27  2  0  0  0  0
  8  9  1  0  0  0  0
  9 17  1  0  0  0  0
  9 10  2  0  0  0  0
 25 28  1  0  0  0  0
  8 11  1  0  0  0  0
 34 35  1  0  0  0  0
 17 18  1  0  0  0  0
 24 25  1  0  0  0  0
  7  8  1  0  0  0  0
  3  4  1  0  0  0  0
  3  5  1  0  0  0  0
  3  6  1  0  0  0  0
 28 31  1  0  0  0  0
 28 32  1  0  0  0  0
 28 33  1  0  0  0  0
 11 14  1  0  0  0  0
 11 15  1  0  0  0  0
 11 16  1  0  0  0  0
 35 37  1  0  0  0  0
 35 38  1  0  0  0  0
 35 39  1  0  0  0  0
 18 22  1  0  0  0  0
 18 23  1  0  0  0  0
 25 30  1  0  0  0  0
  8 13  1  0  0  0  0
 34 36  1  0  0  0  0
 17 21  1  0  0  0  0
  7 12  1  0  0  0  0
 24 29  1  0  0  0  0
M  END
$$$$

  -OEChem-05262214473D

 39 38  0     1  0  0  0  0  0999 V2000
   -3.5200   -4.0268   -1.6943 C   0  0  0  0  0  0  0  0  0  0  0  0
   -2.8702   -4.8827   -1.1054 O   0  0  0  0  0  0  0  0  0  0  0  0
   -4.9704   -4.2579   -1.9614 C   0  0  0  0  0  0  0  0  0  0  0  0
   -5.1456   -4.7573   -2.9278 H   0  0  0  0  0  0  0  0  0  0  0  0
   -5.4379   -4.9112   -1.2072 H   0  0  0  0  0  0  0  0  0  0  0  0
   -5.5954   -3.3510   -1.9864 H   0  0  0  0  0  0  0  0  0  0  0  0
   -3.0424   -2.8131   -2.1606 N   0  0  0  0  0  0  0  0  0  0  0  0
   -1.6755   -2.3891   -2.0077 C   0  0  2  0  0  0  0  0  0  0  0  0
   -1.5782   -1.5673   -0.7292 C   0  0  0  0  0  0  0  0  0  0  0  0
   -2.5448   -1.0064   -0.2171 O   0  0  0  0  0  0  0  0  0  0  0  0
   -1.2087   -1.5823   -3.2094 C   0  0  0  0  0  0  0  0  0  0  0  0
   -3.6915   -2.1888   -2.6360 H   0  0  0  0  0  0  0  0  0  0  0  0
   -1.0721   -3.2977   -1.9053 H   0  0  0  0  0  0  0  0  0  0  0  0
   -1.8017   -0.6681   -3.3281 H   0  0  0  0  0  0  0  0  0  0  0  0
   -0.1601   -1.2849   -3.1045 H   0  0  0  0  0  0  0  0  0  0  0  0
   -1.3074   -2.1646   -4.1319 H   0  0  0  0  0  0  0  0  0  0  0  0
   -0.2835   -1.5112   -0.2725 N   0  0  0  0  0  0  0  0  0  0  0  0
    0.0769   -0.7658    0.9424 C   0  0  0  0  0  0  0  0  0  0  0  0
    0.6849   -1.7064    1.9512 C   0  0  0  0  0  0  0  0  0  0  0  0
    1.7024   -2.3603    1.7380 O   0  0  0  0  0  0  0  0  0  0  0  0
    0.4587   -2.0097   -0.7289 H   0  0  0  0  0  0  0  0  0  0  0  0
   -0.8223   -0.3058    1.3628 H   0  0  0  0  0  0  0  0  0  0  0  0
    0.7966    0.0163    0.6837 H   0  0  0  0  0  0  0  0  0  0  0  0
   -0.0496   -1.7355    3.1319 N   0  0  0  0  0  0  0  0  0  0  0  0
    0.3013   -2.5502    4.2653 C   0  0  2  0  0  0  0  0  0  0  0  0
    0.4873   -1.6314    5.4655 C   0  0  0  0  0  0  0  0  0  0  0  0
    0.7439   -0.4338    5.3601 O   0  0  0  0  0  0  0  0  0  0  0  0
    1.5625   -3.3568    3.9976 C   0  0  0  0  0  0  0  0  0  0  0  0
   -0.8799   -1.1490    3.1981 H   0  0  0  0  0  0  0  0  0  0  0  0
   -0.5451   -3.2217    4.4463 H   0  0  0  0  0  0  0  0  0  0  0  0
    2.4214   -2.7010    3.8139 H   0  0  0  0  0  0  0  0  0  0  0  0
    1.8121   -3.9974    4.8498 H   0  0  0  0  0  0  0  0  0  0  0  0
    1.4372   -3.9950    3.1163 H   0  0  0  0  0  0  0  0  0  0  0  0
    0.3756   -2.3148    6.6682 N   0  0  0  0  0  0  0  0  0  0  0  0
    0.5247   -1.6664    7.9502 C   0  0  0  0  0  0  0  0  0  0  0  0
    0.1424   -3.3034    6.6614 H   0  0  0  0  0  0  0  0  0  0  0  0
    1.5718   -1.7397    8.2792 H   0  0  0  0  0  0  0  0  0  0  0  0
    0.2421   -0.6071    7.8602 H   0  0  0  0  0  0  0  0  0  0  0  0
   -0.1265   -2.1583    8.6877 H   0  0  0  0  0  0  0  0  0  0  0  0
  1  3  1  0  0  0  0
  1  7  1  0  0  0  0
  1  2  2  0  0  0  0
 18 19  1  0  0  0  0
 19 24  1  0  0  0  0
 19 20  2  0  0  0  0
 25 26  1  0  0  0  0
 26 34  1  0  0  0  0
 26 27  2  0  0  0  0
  8  9  1  0  0  0  0
  9 17  1  0  0  0  0
  9 10  2  0  0  0  0
 25 28  1  0  0  0  0
  8 11  1  0  0  0  0
 34 35  1  0  0  0  0
 17 18  1  0  0  0  0
 24 25  1  0  0  0  0
  7  8  1  0  0  0  0
  3  4  1  0  0  0  0
  3  5  1  0  0  0  0
  3  6  1  0  0  0  0
 28 31  1  0  0  0  0
 28 32  1  0  0  0  0
 28 33  1  0  0  0  0
 11 14  1  0  0  0  0
 11 15  1  0  0  0  0
 11 16  1  0  0  0  0
 35 37  1  0  0  0  0
 35 38  1  0  0  0  0
 35 39  1  0  0  0  0
 18 22  1  0  0  0  0
 18 23  1  0  0  0  0
 25 30  1  0  0  0  0
  8 13  1  0  0  0  0
 34 36  1  0  0  0  0
 17 21  1  0  0  0  0
  7 12  1  0  0  0  0
 24 29  1  0  0  0  0
M  END
$$$$

  -OEChem-05262214473D

 39 38  0     1  0  0  0  0  0999 V2000
   -3.5200   -4.0268   -1.6943 C   0  0  0  0  0  0  0  0  0  0  0  0
   -2.8702   -4.8827   -1.1054 O   0  0  0  0  0  0  0  0  0  0  0  0
   -4.9704   -4.2579   -1.9614 C   0  0  0  0  0  0  0  0  0  0  0  0
   -5.1456   -4.7573   -2.9278 H   0  0  0  0  0  0  0  0  0  0  0  0
   -5.4379   -4.9112   -1.2072 H   0  0  0  0  0  0  0  0  0  0  0  0
   -5.5954   -3.3510   -1.9864 H   0  0  0  0  0  0  0  0  0  0  0  0
   -3.0424   -2.8131   -2.1606 N   0  0  0  0  0  0  0  0  0  0  0  0
   -1.6755   -2.3891   -2.0077 C   0  0  2  0  0  0  0  0  0  0  0  0
   -1.5782   -1.5673   -0.7292 C   0  0  0  0  0  0  0  0  0  0  0  0
   -2.5448   -1.0064   -0.2171 O   0  0  0  0  0  0  0  0  0  0  0  0
   -1.2087   -1.5823   -3.2094 C   0  0  0  0  0  0  0  0  0  0  0  0
   -3.6915   -2.1888   -2.6360 H   0  0  0  0  0  0  0  0  0  0  0  0
   -1.0721   -3.2977   -1.9053 H   0  0  0  0  0  0  0  0  0  0  0  0
   -1.8017   -0.6681   -3.3281 H   0  0  0  0  0  0  0  0  0  0  0  0
   -0.1601   -1.2849   -3.1045 H   0  0  0  0  0  0  0  0  0  0  0  0
   -1.3074   -2.1646   -4.1319 H   0  0  0  0  0  0  0  0  0  0  0  0
   -0.2835   -1.5112   -0.2725 N   0  0  0  0  0  0  0  0  0  0  0  0
    0.0769   -0.7658    0.9424 C   0  0  0  0  0  0  0  0  0  0  0  0
    0.6849   -1.7064    1.9512 C   0  0  0  0  0  0  0  0  0  0  0  0
    1.8247   -2.1539    1.8567 O   0  0  0  0  0  0  0  0  0  0  0  0
    0.4587   -2.0097   -0.7289 H   0  0  0  0  0  0  0  0  0  0  0  0
   -0.8223   -0.3058    1.3628 H   0  0  0  0  0  0  0  0  0  0  0  0
    0.7966    0.0163    0.6837 H   0  0  0  0  0  0  0  0  0  0  0  0
   -0.2032   -1.9959    2.9817 N   0  0  0  0  0  0  0  0  0  0  0  0
    0.1132   -2.8703    4.0802 C   0  0  2  0  0  0  0  0  0  0  0  0
   -0.0560   -2.0823    5.3724 C   0  0  0  0  0  0  0  0  0  0  0  0
   -0.0084   -0.8550    5.4208 O   0  0  0  0  0  0  0  0  0  0  0  0
    1.5258   -3.4207    3.9601 C   0  0  0  0  0  0  0  0  0  0  0  0
   -1.1265   -1.5662    2.9577 H   0  0  0  0  0  0  0  0  0  0  0  0
   -0.6146   -3.6886    4.0527 H   0  0  0  0  0  0  0  0  0  0  0  0
    2.2689   -2.6154    3.9857 H   0  0  0  0  0  0  0  0  0  0  0  0
    1.7549   -4.1080    4.7812 H   0  0  0  0  0  0  0  0  0  0  0  0
    1.6544   -3.9618    3.0165 H   0  0  0  0  0  0  0  0  0  0  0  0
   -0.2234   -2.9126    6.4718 N   0  0  0  0  0  0  0  0  0  0  0  0
   -0.3917   -2.4052    7.8136 C   0  0  0  0  0  0  0  0  0  0  0  0
   -0.2693   -3.9182    6.3362 H   0  0  0  0  0  0  0  0  0  0  0  0
    0.5887   -2.3437    8.3085 H   0  0  0  0  0  0  0  0  0  0  0  0
   -0.8451   -1.4039    7.7726 H   0  0  0  0  0  0  0  0  0  0  0  0
   -1.0473   -3.0816    8.3817 H   0  0  0  0  0  0  0  0  0  0  0  0
  1  3  1  0  0  0  0
  1  7  1  0  0  0  0
  1  2  2  0  0  0  0
 18 19  1  0  0  0  0
 19 24  1  0  0  0  0
 19 20  2  0  0  0  0
 25 26  1  0  0  0  0
 26 34  1  0  0  0  0
 26 27  2  0  0  0  0
  8  9  1  0  0  0  0
  9 17  1  0  0  0  0
  9 10  2  0  0  0  0
 25 28  1  0  0  0  0
  8 11  1  0  0  0  0
 34 35  1  0  0  0  0
 17 18  1  0  0  0  0
 24 25  1  0  0  0  0
  7  8  1  0  0  0  0
  3  4  1  0  0  0  0
  3  5  1  0  0  0  0
  3  6  1  0  0  0  0
 28 31  1  0  0  0  0
 28 32  1  0  0  0  0
 28 33  1  0  0  0  0
 11 14  1  0  0  0  0
 11 15  1  0  0  0  0
 11 16  1  0  0  0  0
 35 37  1  0  0  0  0
 35 38  1  0  0  0  0
 35 39  1  0  0  0  0
 18 22  1  0  0  0  0
 18 23  1  0  0  0  0
 25 30  1  0  0  0  0
  8 13  1  0  0  0  0
 34 36  1  0  0  0  0
 17 21  1  0  0  0  0
  7 12  1  0  0  0  0
 24 29  1  0  0  0  0
M  END
$$$$

  -OEChem-05262214473D

 39 38  0     1  0  0  0  0  0999 V2000
   -3.5200   -4.0268   -1.6943 C   0  0  0  0  0  0  0  0  0  0  0  0
   -2.8702   -4.8827   -1.1054 O   0  0  0  0  0  0  0  0  0  0  0  0
   -4.9704   -4.2579   -1.9614 C   0  0  0  0  0  0  0  0  0  0  0  0
   -5.1456   -4.7573   -2.9278 H   0  0  0  0  0  0  0  0  0  0  0  0
   -5.4379   -4.9112   -1.2072 H   0  0  0  0  0  0  0  0  0  0  0  0
   -5.5954   -3.3510   -1.9864 H   0  0  0  0  0  0  0  0  0  0  0  0
   -3.0424   -2.8131   -2.1606 N   0  0  0  0  0  0  0  0  0  0  0  0
   -1.6755   -2.3891   -2.0077 C   0  0  2  0  0  0  0  0  0  0  0  0
   -1.5782   -1.5673   -0.7292 C   0  0  0  0  0  0  0  0  0  0  0  0
   -2.5448   -1.0064   -0.2171 O   0  0  0  0  0  0  0  0  0  0  0  0
   -1.2087   -1.5823   -3.2094 C   0  0  0  0  0  0  0  0  0  0  0  0
   -3.6915   -2.1888   -2.6360 H   0  0  0  0  0  0  0  0  0  0  0  0
   -1.0721   -3.2977   -1.9053 H   0  0  0  0  0  0  0  0  0  0  0  0
   -1.8017   -0.6681   -3.3281 H   0  0  0  0  0  0  0  0  0  0  0  0
   -0.1601   -1.2849   -3.1045 H   0  0  0  0  0  0  0  0  0  0  0  0
   -1.3074   -2.1646   -4.1319 H   0  0  0  0  0  0  0  0  0  0  0  0
   -0.2835   -1.5112   -0.2725 N   0  0  0  0  0  0  0  0  0  0  0  0
    0.0769   -0.7658    0.9424 C   0  0  0  0  0  0  0  0  0  0  0  0
    0.6849   -1.7064    1.9512 C   0  0  0  0  0  0  0  0  0  0  0  0
    1.8879   -1.9457    2.0127 O   0  0  0  0  0  0  0  0  0  0  0  0
    0.4587   -2.0097   -0.7289 H   0  0  0  0  0  0  0  0  0  0  0  0
   -0.8223   -0.3058    1.3628 H   0  0  0  0  0  0  0  0  0  0  0  0
    0.7966    0.0163    0.6837 H   0  0  0  0  0  0  0  0  0  0  0  0
   -0.2822   -2.2583    2.7846 N   0  0  0  0  0  0  0  0  0  0  0  0
    0.0168   -3.1928    3.8376 C   0  0  2  0  0  0  0  0  0  0  0  0
   -0.4877   -2.6023    5.1477 C   0  0  0  0  0  0  0  0  0  0  0  0
   -0.6719   -1.3984    5.3139 O   0  0  0  0  0  0  0  0  0  0  0  0
    1.5074   -3.4849    3.9113 C   0  0  0  0  0  0  0  0  0  0  0  0
   -1.2536   -1.9867    2.6422 H   0  0  0  0  0  0  0  0  0  0  0  0
   -0.5373   -4.1106    3.6126 H   0  0  0  0  0  0  0  0  0  0  0  0
    2.0791   -2.5770    4.1359 H   0  0  0  0  0  0  0  0  0  0  0  0
    1.7299   -4.2176    4.6940 H   0  0  0  0  0  0  0  0  0  0  0  0
    1.8744   -3.8816    2.9586 H   0  0  0  0  0  0  0  0  0  0  0  0
   -0.6668   -3.5733    6.1230 N   0  0  0  0  0  0  0  0  0  0  0  0
   -1.1269   -3.2634    7.4565 C   0  0  0  0  0  0  0  0  0  0  0  0
   -0.5079   -4.5495    5.8914 H   0  0  0  0  0  0  0  0  0  0  0  0
   -0.2610   -3.1004    8.1150 H   0  0  0  0  0  0  0  0  0  0  0  0
   -1.7432   -2.3526    7.4291 H   0  0  0  0  0  0  0  0  0  0  0  0
   -1.7274   -4.1010    7.8410 H   0  0  0  0  0  0  0  0  0  0  0  0
  1  3  1  0  0  0  0
  1  7  1  0  0  0  0
  1  2  2  0  0  0  0
 18 19  1  0  0  0  0
 19 24  1  0  0  0  0
 19 20  2  0  0  0  0
 25 26  1  0  0  0  0
 26 34  1  0  0  0  0
 26 27  2  0  0  0  0
  8  9  1  0  0  0  0
  9 17  1  0  0  0  0
  9 10  2  0  0  0  0
 25 28  1  0  0  0  0
  8 11  1  0  0  0  0
 34 35  1  0  0  0  0
 17 18  1  0  0  0  0
 24 25  1  0  0  0  0
  7  8  1  0  0  0  0
  3  4  1  0  0  0  0
  3  5  1  0  0  0  0
  3  6  1  0  0  0  0
 28 31  1  0  0  0  0
 28 32  1  0  0  0  0
 28 33  1  0  0  0  0
 11 14  1  0  0  0  0
 11 15  1  0  0  0  0
 11 16  1  0  0  0  0
 35 37  1  0  0  0  0
 35 38  1  0  0  0  0
 35 39  1  0  0  0  0
 18 22  1  0  0  0  0
 18 23  1  0  0  0  0
 25 30  1  0  0  0  0
  8 13  1  0  0  0  0
 34 36  1  0  0  0  0
 17 21  1  0  0  0  0
  7 12  1  0  0  0  0
 24 29  1  0  0  0  0
M  END
$$$$

  -OEChem-05262214473D

 39 38  0     1  0  0  0  0  0999 V2000
   -3.5200   -4.0268   -1.6943 C   0  0  0  0  0  0  0  0  0  0  0  0
   -2.8702   -4.8827   -1.1054 O   0  0  0  0  0  0  0  0  0  0  0  0
   -4.9704   -4.2579   -1.9614 C   0  0  0  0  0  0  0  0  0  0  0  0
   -5.1456   -4.7573   -2.9278 H   0  0  0  0  0  0  0  0  0  0  0  0
   -5.4379   -4.9112   -1.2072 H   0  0  0  0  0  0  0  0  0  0  0  0
   -5.5954   -3.3510   -1.9864 H   0  0  0  0  0  0  0  0  0  0  0  0
   -3.0424   -2.8131   -2.1606 N   0  0  0  0  0  0  0  0  0  0  0  0
   -1.6755   -2.3891   -2.0077 C   0  0  2  0  0  0  0  0  0  0  0  0
   -1.5782   -1.5673   -0.7292 C   0  0  0  0  0  0  0  0  0  0  0  0
   -2.5448   -1.0064   -0.2171 O   0  0  0  0  0  0  0  0  0  0  0  0
   -1.2087   -1.5823   -3.2094 C   0  0  0  0  0  0  0  0  0  0  0  0
   -3.6915   -2.1888   -2.6360 H   0  0  0  0  0  0  0  0  0  0  0  0
   -1.0721   -3.2977   -1.9053 H   0  0  0  0  0  0  0  0  0  0  0  0
   -1.8017   -0.6681   -3.3281 H   0  0  0  0  0  0  0  0  0  0  0  0
   -0.1601   -1.2849   -3.1045 H   0  0  0  0  0  0  0  0  0  0  0  0
   -1.3074   -2.1646   -4.1319 H   0  0  0  0  0  0  0  0  0  0  0  0
   -0.2835   -1.5112   -0.2725 N   0  0  0  0  0  0  0  0  0  0  0  0
    0.0769   -0.7658    0.9424 C   0  0  0  0  0  0  0  0  0  0  0  0
    0.6849   -1.7064    1.9512 C   0  0  0  0  0  0  0  0  0  0  0  0
    1.8878   -1.7500    2.1954 O   0  0  0  0  0  0  0  0  0  0  0  0
    0.4587   -2.0097   -0.7289 H   0  0  0  0  0  0  0  0  0  0  0  0
   -0.8223   -0.3058    1.3628 H   0  0  0  0  0  0  0  0  0  0  0  0
    0.7966    0.0163    0.6837 H   0  0  0  0  0  0  0  0  0  0  0  0
   -0.2812   -2.5049    2.5541 N   0  0  0  0  0  0  0  0  0  0  0  0
    0.0187   -3.4956    3.5540 C   0  0  2  0  0  0  0  0  0  0  0  0
   -0.7782   -3.1559    4.8066 C   0  0  0  0  0  0  0  0  0  0  0  0
   -1.2014   -2.0271    5.0468 O   0  0  0  0  0  0  0  0  0  0  0  0
    1.5087   -3.5450    3.8545 C   0  0  0  0  0  0  0  0  0  0  0  0
   -1.2526   -2.3820    2.2730 H   0  0  0  0  0  0  0  0  0  0  0  0
   -0.3184   -4.4589    3.1559 H   0  0  0  0  0  0  0  0  0  0  0  0
    1.8648   -2.5886    4.2543 H   0  0  0  0  0  0  0  0  0  0  0  0
    1.7388   -4.3187    4.5944 H   0  0  0  0  0  0  0  0  0  0  0  0
    2.0825   -3.7600    2.9465 H   0  0  0  0  0  0  0  0  0  0  0  0
   -0.9243   -4.2519    5.6454 N   0  0  0  0  0  0  0  0  0  0  0  0
   -1.6307   -4.1823    6.9032 C   0  0  0  0  0  0  0  0  0  0  0  0
   -0.5572   -5.1541    5.3573 H   0  0  0  0  0  0  0  0  0  0  0  0
   -0.9195   -3.9583    7.7119 H   0  0  0  0  0  0  0  0  0  0  0  0
   -2.3908   -3.3888    6.8533 H   0  0  0  0  0  0  0  0  0  0  0  0
   -2.1204   -5.1470    7.1025 H   0  0  0  0  0  0  0  0  0  0  0  0
  1  3  1  0  0  0  0
  1  7  1  0  0  0  0
  1  2  2  0  0  0  0
 18 19  1  0  0  0  0
 19 24  1  0  0  0  0
 19 20  2  0  0  0  0
 25 26  1  0  0  0  0
 26 34  1  0  0  0  0
 26 27  2  0  0  0  0
  8  9  1  0  0  0  0
  9 17  1  0  0  0  0
  9 10  2  0  0  0  0
 25 28  1  0  0  0  0
  8 11  1  0  0  0  0
 34 35  1  0  0  0  0
 17 18  1  0  0  0  0
 24 25  1  0  0  0  0
  7  8  1  0  0  0  0
  3  4  1  0  0  0  0
  3  5  1  0  0  0  0
  3  6  1  0  0  0  0
 28 31  1  0  0  0  0
 28 32  1  0  0  0  0
 28 33  1  0  0  0  0
 11 14  1  0  0  0  0
 11 15  1  0  0  0  0
 11 16  1  0  0  0  0
 35 37  1  0  0  0  0
 35 38  1  0  0  0  0
 35 39  1  0  0  0  0
 18 22  1  0  0  0  0
 18 23  1  0  0  0  0
 25 30  1  0  0  0  0
  8 13  1  0  0  0  0
 34 36  1  0  0  0  0
 17 21  1  0  0  0  0
  7 12  1  0  0  0  0
 24 29  1  0  0  0  0
M  END
$$$$

  -OEChem-05262214473D

 39 38  0     1  0  0  0  0  0999 V2000
   -3.5200   -4.0268   -1.6943 C   0  0  0  0  0  0  0  0  0  0  0  0
   -2.8702   -4.8827   -1.1054 O   0  0  0  0  0  0  0  0  0  0  0  0
   -4.9704   -4.2579   -1.9614 C   0  0  0  0  0  0  0  0  0  0  0  0
   -5.1456   -4.7573   -2.9278 H   0  0  0  0  0  0  0  0  0  0  0  0
   -5.4379   -4.9112   -1.2072 H   0  0  0  0  0  0  0  0  0  0  0  0
   -5.5954   -3.3510   -1.9864 H   0  0  0  0  0  0  0  0  0  0  0  0
   -3.0424   -2.8131   -2.1606 N   0  0  0  0  0  0  0  0  0  0  0  0
   -1.6755   -2.3891   -2.0077 C   0  0  2  0  0  0  0  0  0  0  0  0
   -1.5782   -1.5673   -0.7292 C   0  0  0  0  0  0  0  0  0  0  0  0
   -2.5448   -1.0064   -0.2171 O   0  0  0  0  0  0  0  0  0  0  0  0
   -1.2087   -1.5823   -3.2094 C   0  0  0  0  0  0  0  0  0  0  0  0
   -3.6915   -2.1888   -2.6360 H   0  0  0  0  0  0  0  0  0  0  0  0
   -1.0721   -3.2977   -1.9053 H   0  0  0  0  0  0  0  0  0  0  0  0
   -1.8017   -0.6681   -3.3281 H   0  0  0  0  0  0  0  0  0  0  0  0
   -0.1601   -1.2849   -3.1045 H   0  0  0  0  0  0  0  0  0  0  0  0
   -1.3074   -2.1646   -4.1319 H   0  0  0  0  0  0  0  0  0  0  0  0
   -0.2835   -1.5112   -0.2725 N   0  0  0  0  0  0  0  0  0  0  0  0
    0.0769   -0.7658    0.9424 C   0  0  0  0  0  0  0  0  0  0  0  0
    0.6849   -1.7064    1.9512 C   0  0  0  0  0  0  0  0  0  0  0  0
    1.8242   -1.5800    2.3922 O   0  0  0  0  0  0  0  0  0  0  0  0
    0.4587   -2.0097   -0.7289 H   0  0  0  0  0  0  0  0  0  0  0  0
   -0.8223   -0.3058    1.3628 H   0  0  0  0  0  0  0  0  0  0  0  0
    0.7966    0.0163    0.6837 H   0  0  0  0  0  0  0  0  0  0  0  0
   -0.2004   -2.7189    2.3058 N   0  0  0  0  0  0  0  0  0  0  0  0
    0.1189   -3.7582    3.2488 C   0  0  2  0  0  0  0  0  0  0  0  0
   -0.9079   -3.7054    4.3724 C   0  0  0  0  0  0  0  0  0  0  0  0
   -1.5608   -2.6982    4.6377 O   0  0  0  0  0  0  0  0  0  0  0  0
    1.5295   -3.5969    3.7935 C   0  0  0  0  0  0  0  0  0  0  0  0
   -1.1235   -2.7251    1.8753 H   0  0  0  0  0  0  0  0  0  0  0  0
    0.0270   -4.7097    2.7138 H   0  0  0  0  0  0  0  0  0  0  0  0
    1.6407   -2.6492    4.3328 H   0  0  0  0  0  0  0  0  0  0  0  0
    1.7810   -4.4044    4.4891 H   0  0  0  0  0  0  0  0  0  0  0  0
    2.2643   -3.6053    2.9812 H   0  0  0  0  0  0  0  0  0  0  0  0
   -0.9784   -4.9021    5.0717 N   0  0  0  0  0  0  0  0  0  0  0  0
   -1.8689   -5.0995    6.1915 C   0  0  0  0  0  0  0  0  0  0  0  0
   -0.4138   -5.6909    4.7703 H   0  0  0  0  0  0  0  0  0  0  0  0
   -1.3418   -4.8590    7.1266 H   0  0  0  0  0  0  0  0  0  0  0  0
   -2.7439   -4.4416    6.0843 H   0  0  0  0  0  0  0  0  0  0  0  0
   -2.1995   -6.1483    6.2164 H   0  0  0  0  0  0  0  0  0  0  0  0
  1  3  1  0  0  0  0
  1  7  1  0  0  0  0
  1  2  2  0  0  0  0
 18 19  1  0  0  0  0
 19 24  1  0  0  0  0
 19 20  2  0  0  0  0
 25 26  1  0  0  0  0
 26 34  1  0  0  0  0
 26 27  2  0  0  0  0
  8  9  1  0  0  0  0
  9 17  1  0  0  0  0
  9 10  2  0  0  0  0
 25 28  1  0  0  0  0
  8 11  1  0  0  0  0
 34 35  1  0  0  0  0
 17 18  1  0  0  0  0
 24 25  1  0  0  0  0
  7  8  1  0  0  0  0
  3  4  1  0  0  0  0
  3  5  1  0  0  0  0
  3  6  1  0  0  0  0
 28 31  1  0  0  0  0
 28 32  1  0  0  0  0
 28 33  1  0  0  0  0
 11 14  1  0  0  0  0
 11 15  1  0  0  0  0
 11 16  1  0  0  0  0
 35 37  1  0  0  0  0
 35 38  1  0  0  0  0
 35 39  1  0  0  0  0
 18 22  1  0  0  0  0
 18 23  1  0  0  0  0
 25 30  1  0  0  0  0
  8 13  1  0  0  0  0
 34 36  1  0  0  0  0
 17 21  1  0  0  0  0
  7 12  1  0  0  0  0
 24 29  1  0  0  0  0
M  END
$$$$

  -OEChem-05262214473D

 39 38  0     1  0  0  0  0  0999 V2000
   -3.5200   -4.0268   -1.6943 C   0  0  0  0  0  0  0  0  0  0  0  0
   -2.8702   -4.8827   -1.1054 O   0  0  0  0  0  0  0  0  0  0  0  0
   -4.9704   -4.2579   -1.9614 C   0  0  0  0  0  0  0  0  0  0  0  0
   -5.1456   -4.7573   -2.9278 H   0  0  0  0  0  0  0  0  0  0  0  0
   -5.4379   -4.9112   -1.2072 H   0  0  0  0  0  0  0  0  0  0  0  0
   -5.5954   -3.3510   -1.9864 H   0  0  0  0  0  0  0  0  0  0  0  0
   -3.0424   -2.8131   -2.1606 N   0  0  0  0  0  0  0  0  0  0  0  0
   -1.6755   -2.3891   -2.0077 C   0  0  2  0  0  0  0  0  0  0  0  0
   -1.5782   -1.5673   -0.7292 C   0  0  0  0  0  0  0  0  0  0  0  0
   -2.5448   -1.0064   -0.2171 O   0  0  0  0  0  0  0  0  0  0  0  0
   -1.2087   -1.5823   -3.2094 C   0  0  0  0  0  0  0  0  0  0  0  0
   -3.6915   -2.1888   -2.6360 H   0  0  0  0  0  0  0  0  0  0  0  0
   -1.0721   -3.2977   -1.9053 H   0  0  0  0  0  0  0  0  0  0  0  0
   -1.8017   -0.6681   -3.3281 H   0  0  0  0  0  0  0  0  0  0  0  0
   -0.1601   -1.2849   -3.1045 H   0  0  0  0  0  0  0  0  0  0  0  0
   -1.3074   -2.1646   -4.1319 H   0  0  0  0  0  0  0  0  0  0  0  0
   -0.2835   -1.5112   -0.2725 N   0  0  0  0  0  0  0  0  0  0  0  0
    0.0769   -0.7658    0.9424 C   0  0  0  0  0  0  0  0  0  0  0  0
    0.6849   -1.7064    1.9512 C   0  0  0  0  0  0  0  0  0  0  0  0
    1.7015   -1.4474    2.5898 O   0  0  0  0  0  0  0  0  0  0  0  0
    0.4587   -2.0097   -0.7289 H   0  0  0  0  0  0  0  0  0  0  0  0
   -0.8223   -0.3058    1.3628 H   0  0  0  0  0  0  0  0  0  0  0  0
    0.7966    0.0163    0.6837 H   0  0  0  0  0  0  0  0  0  0  0  0
   -0.0451   -2.8856    2.0567 N   0  0  0  0  0  0  0  0  0  0  0  0
    0.3104   -3.9626    2.9427 C   0  0  2  0  0  0  0  0  0  0  0  0
   -0.8679   -4.2132    3.8747 C   0  0  0  0  0  0  0  0  0  0  0  0
   -1.7256   -3.3659    4.1143 O   0  0  0  0  0  0  0  0  0  0  0  0
    1.5685   -3.6371    3.7326 C   0  0  0  0  0  0  0  0  0  0  0  0
   -0.8752   -2.9926    1.4761 H   0  0  0  0  0  0  0  0  0  0  0  0
    0.4756   -4.8460    2.3164 H   0  0  0  0  0  0  0  0  0  0  0  0
    1.4221   -2.7547    4.3662 H   0  0  0  0  0  0  0  0  0  0  0  0
    1.8536   -4.4689    4.3852 H   0  0  0  0  0  0  0  0  0  0  0  0
    2.4075   -3.4280    3.0603 H   0  0  0  0  0  0  0  0  0  0  0  0
   -0.8253   -5.4796    4.4409 N   0  0  0  0  0  0  0  0  0  0  0  0
   -1.8251   -5.9524    5.3698 C   0  0  0  0  0  0  0  0  0  0  0  0
   -0.0876   -6.1234    4.1704 H   0  0  0  0  0  0  0  0  0  0  0  0
   -1.4992   -5.7410    6.3990 H   0  0  0  0  0  0  0  0  0  0  0  0
   -2.7784   -5.4395    5.1746 H   0  0  0  0  0  0  0  0  0  0  0  0
   -1.9594   -7.0368    5.2433 H   0  0  0  0  0  0  0  0  0  0  0  0
  1  3  1  0  0  0  0
  1  7  1  0  0  0  0
  1  2  2  0  0  0  0
 18 19  1  0  0  0  0
 19 24  1  0  0  0  0
 19 20  2  0  0  0  0
 25 26  1  0  0  0  0
 26 34  1  0  0  0  0
 26 27  2  0  0  0  0
  8  9  1  0  0  0  0
  9 17  1  0  0  0  0
  9 10  2  0  0  0  0
 25 28  1  0  0  0  0
  8 11  1  0  0  0  0
 34 35  1  0  0  0  0
 17 18  1  0  0  0  0
 24 25  1  0  0  0  0
  7  8  1  0  0  0  0
  3  4  1  0  0  0  0
  3  5  1  0  0  0  0
  3  6  1  0  0  0  0
 28 31  1  0  0  0  0
 28 32  1  0  0  0  0
 28 33  1  0  0  0  0
 11 14  1  0  0  0  0
 11 15  1  0  0  0  0
 11 16  1  0  0  0  0
 35 37  1  0  0  0  0
 35 38  1  0  0  0  0
 35 39  1  0  0  0  0
 18 22  1  0  0  0  0
 18 23  1  0  0  0  0
 25 30  1  0  0  0  0
  8 13  1  0  0  0  0
 34 36  1  0  0  0  0
 17 21  1  0  0  0  0
  7 12  1  0  0  0  0
 24 29  1  0  0  0  0
M  END
$$$$

  -OEChem-05262214473D

 39 38  0     1  0  0  0  0  0999 V2000
   -3.5200   -4.0268   -1.6943 C   0  0  0  0  0  0  0  0  0  0  0  0
   -2.8702   -4.8827   -1.1054 O   0  0  0  0  0  0  0  0  0  0  0  0
   -4.9704   -4.2579   -1.9614 C   0  0  0  0  0  0  0  0  0  0  0  0
   -5.1456   -4.7573   -2.9278 H   0  0  0  0  0  0  0  0  0  0  0  0
   -5.4379   -4.9112   -1.2072 H   0  0  0  0  0  0  0  0  0  0  0  0
   -5.5954   -3.3510   -1.9864 H   0  0  0  0  0  0  0  0  0  0  0  0
   -3.0424   -2.8131   -2.1606 N   0  0  0  0  0  0  0  0  0  0  0  0
   -1.6755   -2.3891   -2.0077 C   0  0  2  0  0  0  0  0  0  0  0  0
   -1.5782   -1.5673   -0.7292 C   0  0  0  0  0  0  0  0  0  0  0  0
   -2.5448   -1.0064   -0.2171 O   0  0  0  0  0  0  0  0  0  0  0  0
   -1.2087   -1.5823   -3.2094 C   0  0  0  0  0  0  0  0  0  0  0  0
   -3.6915   -2.1888   -2.6360 H   0  0  0  0  0  0  0  0  0  0  0  0
   -1.0721   -3.2977   -1.9053 H   0  0  0  0  0  0  0  0  0  0  0  0
   -1.8017   -0.6681   -3.3281 H   0  0  0  0  0  0  0  0  0  0  0  0
   -0.1601   -1.2849   -3.1045 H   0  0  0  0  0  0  0  0  0  0  0  0
   -1.3074   -2.1646   -4.1319 H   0  0  0  0  0  0  0  0  0  0  0  0
   -0.2835   -1.5112   -0.2725 N   0  0  0  0  0  0  0  0  0  0  0  0
    0.0769   -0.7658    0.9424 C   0  0  0  0  0  0  0  0  0  0  0  0
    0.6849   -1.7064    1.9512 C   0  0  0  0  0  0  0  0  0  0  0  0
    1.5282   -1.3612    2.7747 O   0  0  0  0  0  0  0  0  0  0  0  0
    0.4587   -2.0097   -0.7289 H   0  0  0  0  0  0  0  0  0  0  0  0
   -0.8223   -0.3058    1.3628 H   0  0  0  0  0  0  0  0  0  0  0  0
    0.7966    0.0163    0.6837 H   0  0  0  0  0  0  0  0  0  0  0  0
    0.1740   -2.9938    1.8238 N   0  0  0  0  0  0  0  0  0  0  0  0
    0.5802   -4.0950    2.6567 C   0  0  2  0  0  0  0  0  0  0  0  0
   -0.6608   -4.6449    3.3474 C   0  0  0  0  0  0  0  0  0  0  0  0
   -1.6846   -3.9849    3.5125 O   0  0  0  0  0  0  0  0  0  0  0  0
    1.6229   -3.6628    3.6758 C   0  0  0  0  0  0  0  0  0  0  0  0
   -0.5245   -3.1663    1.1028 H   0  0  0  0  0  0  0  0  0  0  0  0
    0.9967   -4.8585    1.9907 H   0  0  0  0  0  0  0  0  0  0  0  0
    1.2238   -2.8980    4.3521 H   0  0  0  0  0  0  0  0  0  0  0  0
    1.9517   -4.5077    4.2898 H   0  0  0  0  0  0  0  0  0  0  0  0
    2.5024   -3.2401    3.1783 H   0  0  0  0  0  0  0  0  0  0  0  0
   -0.4755   -5.9451    3.7960 N   0  0  0  0  0  0  0  0  0  0  0  0
   -1.5023   -6.6828    4.4942 C   0  0  0  0  0  0  0  0  0  0  0  0
    0.3994   -6.4219    3.5985 H   0  0  0  0  0  0  0  0  0  0  0  0
   -1.3809   -6.5443    5.5787 H   0  0  0  0  0  0  0  0  0  0  0  0
   -2.4920   -6.3144    4.1861 H   0  0  0  0  0  0  0  0  0  0  0  0
   -1.4164   -7.7517    4.2493 H   0  0  0  0  0  0  0  0  0  0  0  0
  1  3  1  0  0  0  0
  1  7  1  0  0  0  0
  1  2  2  0  0  0  0
 18 19  1  0  0  0  0
 19 24  1  0  0  0  0
 19 20  2  0  0  0  0
 25 26  1  0  0  0  0
 26 34  1  0  0  0  0
 26 27  2  0  0  0  0
  8  9  1  0  0  0  0
  9 17  1  0  0  0  0
  9 10  2  0  0  0  0
 25 28  1  0  0  0  0
  8 11  1  0  0  0  0
 34 35  1  0  0  0  0
 17 18  1  0  0  0  0
 24 25  1  0  0  0  0
  7  8  1  0  0  0  0
  3  4  1  0  0  0  0
  3  5  1  0  0  0  0
  3  6  1  0  0  0  0
 28 31  1  0  0  0  0
 28 32  1  0  0  0  0
 28 33  1  0  0  0  0
 11 14  1  0  0  0  0
 11 15  1  0  0  0  0
 11 16  1  0  0  0  0
 35 37  1  0  0  0  0
 35 38  1  0  0  0  0
 35 39  1  0  0  0  0
 18 22  1  0  0  0  0
 18 23  1  0  0  0  0
 25 30  1  0  0  0  0
  8 13  1  0  0  0  0
 34 36  1  0  0  0  0
 17 21  1  0  0  0  0
  7 12  1  0  0  0  0
 24 29  1  0  0  0  0
M  END
$$$$

  -OEChem-05262214473D

 39 38  0     1  0  0  0  0  0999 V2000
   -3.5200   -4.0268   -1.6943 C   0  0  0  0  0  0  0  0  0  0  0  0
   -2.8702   -4.8827   -1.1054 O   0  0  0  0  0  0  0  0  0  0  0  0
   -4.9704   -4.2579   -1.9614 C   0  0  0  0  0  0  0  0  0  0  0  0
   -5.1456   -4.7573   -2.9278 H   0  0  0  0  0  0  0  0  0  0  0  0
   -5.4379   -4.9112   -1.2072 H   0  0  0  0  0  0  0  0  0  0  0  0
   -5.5954   -3.3510   -1.9864 H   0  0  0  0  0  0  0  0  0  0  0  0
   -3.0424   -2.8131   -2.1606 N   0  0  0  0  0  0  0  0  0  0  0  0
   -1.6755   -2.3891   -2.0077 C   0  0  2  0  0  0  0  0  0  0  0  0
   -1.5782   -1.5673   -0.7292 C   0  0  0  0  0  0  0  0  0  0  0  0
   -2.5448   -1.0064   -0.2171 O   0  0  0  0  0  0  0  0  0  0  0  0
   -1.2087   -1.5823   -3.2094 C   0  0  0  0  0  0  0  0  0  0  0  0
   -3.6915   -2.1888   -2.6360 H   0  0  0  0  0  0  0  0  0  0  0  0
   -1.0721   -3.2977   -1.9053 H   0  0  0  0  0  0  0  0  0  0  0  0
   -1.8017   -0.6681   -3.3281 H   0  0  0  0  0  0  0  0  0  0  0  0
   -0.1601   -1.2849   -3.1045 H   0  0  0  0  0  0  0  0  0  0  0  0
   -1.3074   -2.1646   -4.1319 H   0  0  0  0  0  0  0  0  0  0  0  0
   -0.2835   -1.5112   -0.2725 N   0  0  0  0  0  0  0  0  0  0  0  0
    0.0769   -0.7658    0.9424 C   0  0  0  0  0  0  0  0  0  0  0  0
    0.6849   -1.7064    1.9512 C   0  0  0  0  0  0  0  0  0  0  0  0
    1.3159   -1.3272    2.9343 O   0  0  0  0  0  0  0  0  0  0  0  0
    0.4587   -2.0097   -0.7289 H   0  0  0  0  0  0  0  0  0  0  0  0
   -0.8223   -0.3058    1.3628 H   0  0  0  0  0  0  0  0  0  0  0  0
    0.7966    0.0163    0.6837 H   0  0  0  0  0  0  0  0  0  0  0  0
    0.4420   -3.0360    1.6229 N   0  0  0  0  0  0  0  0  0  0  0  0
    0.9099   -4.1462    2.4102 C   0  0  2  0  0  0  0  0  0  0  0  0
   -0.3009   -4.9709    2.8264 C   0  0  0  0  0  0  0  0  0  0  0  0
   -1.4407   -4.5128    2.8732 O   0  0  0  0  0  0  0  0  0  0  0  0
    1.6891   -3.6722    3.6271 C   0  0  0  0  0  0  0  0  0  0  0  0
   -0.0954   -3.2344    0.7806 H   0  0  0  0  0  0  0  0  0  0  0  0
    1.5548   -4.7462    1.7590 H   0  0  0  0  0  0  0  0  0  0  0  0
    1.0593   -3.0693    4.2915 H   0  0  0  0  0  0  0  0  0  0  0  0
    2.0686   -4.5183    4.2095 H   0  0  0  0  0  0  0  0  0  0  0  0
    2.5425   -3.0545    3.3272 H   0  0  0  0  0  0  0  0  0  0  0  0
    0.0472   -6.2668    3.1810 N   0  0  0  0  0  0  0  0  0  0  0  0
   -0.9226   -7.2410    3.6242 C   0  0  0  0  0  0  0  0  0  0  0  0
    1.0138   -6.5662    3.0936 H   0  0  0  0  0  0  0  0  0  0  0  0
   -0.9951   -7.2140    4.7215 H   0  0  0  0  0  0  0  0  0  0  0  0
   -1.9041   -7.0067    3.1862 H   0  0  0  0  0  0  0  0  0  0  0  0
   -0.6076   -8.2445    3.3023 H   0  0  0  0  0  0  0  0  0  0  0  0
  1  3  1  0  0  0  0
  1  7  1  0  0  0  0
  1  2  2  0  0  0  0
 18 19  1  0  0  0  0
 19 24  1  0  0  0  0
 19 20  2  0  0  0  0
 25 26  1  0  0  0  0
 26 34  1  0  0  0  0
 26 27  2  0  0  0  0
  8  9  1  0  0  0  0
  9 17  1  0  0  0  0
  9 10  2  0  0  0  0
 25 28  1  0  0  0  0
  8 11  1  0  0  0  0
 34 35  1  0  0  0  0
 17 18  1  0  0  0  0
 24 25  1  0  0  0  0
  7  8  1  0  0  0  0
  3  4  1  0  0  0  0
  3  5  1  0  0  0  0
  3  6  1  0  0  0  0
 28 31  1  0  0  0  0
 28 32  1  0  0  0  0
 28 33  1  0  0  0  0
 11 14  1  0  0  0  0
 11 15  1  0  0  0  0
 11 16  1  0  0  0  0
 35 37  1  0  0  0  0
 35 38  1  0  0  0  0
 35 39  1  0  0  0  0
 18 22  1  0  0  0  0
 18 23  1  0  0  0  0
 25 30  1  0  0  0  0
  8 13  1  0  0  0  0
 34 36  1  0  0  0  0
 17 21  1  0  0  0  0
  7 12  1  0  0  0  0
 24 29  1  0  0  0  0
M  END
$$$$

  -OEChem-05262214473D

 39 38  0     1  0  0  0  0  0999 V2000
   -3.5200   -4.0268   -1.6943 C   0  0  0  0  0  0  0  0  0  0  0  0
   -2.8702   -4.8827   -1.1054 O   0  0  0  0  0  0  0  0  0  0  0  0
   -4.9704   -4.2579   -1.9614 C   0  0  0  0  0  0  0  0  0  0  0  0
   -5.1456   -4.7573   -2.9278 H   0  0  0  0  0  0  0  0  0  0  0  0
   -5.4379   -4.9112   -1.2072 H   0  0  0  0  0  0  0  0  0  0  0  0
   -5.5954   -3.3510   -1.9864 H   0  0  0  0  0  0  0  0  0  0  0  0
   -3.0424   -2.8131   -2.1606 N   0  0  0  0  0  0  0  0  0  0  0  0
   -1.6755   -2.3891   -2.0077 C   0  0  2  0  0  0  0  0  0  0  0  0
   -1.5782   -1.5673   -0.7292 C   0  0  0  0  0  0  0  0  0  0  0  0
   -2.5448   -1.0064   -0.2171 O   0  0  0  0  0  0  0  0  0  0  0  0
   -1.2087   -1.5823   -3.2094 C   0  0  0  0  0  0  0  0  0  0  0  0
   -3.6915   -2.1888   -2.6360 H   0  0  0  0  0  0  0  0  0  0  0  0
   -1.0721   -3.2977   -1.9053 H   0  0  0  0  0  0  0  0  0  0  0  0
   -1.8017   -0.6681   -3.3281 H   0  0  0  0  0  0  0  0  0  0  0  0
   -0.1601   -1.2849   -3.1045 H   0  0  0  0  0  0  0  0  0  0  0  0
   -1.3074   -2.1646   -4.1319 H   0  0  0  0  0  0  0  0  0  0  0  0
   -0.2835   -1.5112   -0.2725 N   0  0  0  0  0  0  0  0  0  0  0  0
    0.0769   -0.7658    0.9424 C   0  0  0  0  0  0  0  0  0  0  0  0
    0.6849   -1.7064    1.9512 C   0  0  0  0  0  0  0  0  0  0  0  0
    1.0792   -1.3479    3.0577 O   0  0  0  0  0  0  0  0  0  0  0  0
    0.4587   -2.0097   -0.7289 H   0  0  0  0  0  0  0  0  0  0  0  0
   -0.8223   -0.3058    1.3628 H   0  0  0  0  0  0  0  0  0  0  0  0
    0.7966    0.0163    0.6837 H   0  0  0  0  0  0  0  0  0  0  0  0
    0.7407   -3.0093    1.4678 N   0  0  0  0  0  0  0  0  0  0  0  0
    1.2771   -4.1129    2.2200 C   0  0  2  0  0  0  0  0  0  0  0  0
    0.1873   -5.1691    2.3473 C   0  0  0  0  0  0  0  0  0  0  0  0
   -1.0103   -4.9137    2.2399 O   0  0  0  0  0  0  0  0  0  0  0  0
    1.7625   -3.6648    3.5898 C   0  0  0  0  0  0  0  0  0  0  0  0
    0.3829   -3.1922    0.5317 H   0  0  0  0  0  0  0  0  0  0  0  0
    2.1118   -4.5170    1.6370 H   0  0  0  0  0  0  0  0  0  0  0  0
    0.9399   -3.2570    4.1885 H   0  0  0  0  0  0  0  0  0  0  0  0
    2.1963   -4.4999    4.1497 H   0  0  0  0  0  0  0  0  0  0  0  0
    2.5249   -2.8839    3.4968 H   0  0  0  0  0  0  0  0  0  0  0  0
    0.7070   -6.4228    2.6378 N   0  0  0  0  0  0  0  0  0  0  0  0
   -0.1255   -7.5890    2.8193 C   0  0  0  0  0  0  0  0  0  0  0  0
    1.7139   -6.5465    2.6901 H   0  0  0  0  0  0  0  0  0  0  0  0
   -0.3679   -7.7047    3.8860 H   0  0  0  0  0  0  0  0  0  0  0  0
   -1.0548   -7.4691    2.2431 H   0  0  0  0  0  0  0  0  0  0  0  0
    0.4121   -8.4816    2.4667 H   0  0  0  0  0  0  0  0  0  0  0  0
  1  3  1  0  0  0  0
  1  7  1  0  0  0  0
  1  2  2  0  0  0  0
 18 19  1  0  0  0  0
 19 24  1  0  0  0  0
 19 20  2  0  0  0  0
 25 26  1  0  0  0  0
 26 34  1  0  0  0  0
 26 27  2  0  0  0  0
  8  9  1  0  0  0  0
  9 17  1  0  0  0  0
  9 10  2  0  0  0  0
 25 28  1  0  0  0  0
  8 11  1  0  0  0  0
 34 35  1  0  0  0  0
 17 18  1  0  0  0  0
 24 25  1  0  0  0  0
  7  8  1  0  0  0  0
  3  4  1  0  0  0  0
  3  5  1  0  0  0  0
  3  6  1  0  0  0  0
 28 31  1  0  0  0  0
 28 32  1  0  0  0  0
 28 33  1  0  0  0  0
 11 14  1  0  0  0  0
 11 15  1  0  0  0  0
 11 16  1  0  0  0  0
 35 37  1  0  0  0  0
 35 38  1  0  0  0  0
 35 39  1  0  0  0  0
 18 22  1  0  0  0  0
 18 23  1  0  0  0  0
 25 30  1  0  0  0  0
  8 13  1  0  0  0  0
 34 36  1  0  0  0  0
 17 21  1  0  0  0  0
  7 12  1  0  0  0  0
 24 29  1  0  0  0  0
M  END
$$$$

  -OEChem-05262214473D

 39 38  0     1  0  0  0  0  0999 V2000
   -3.5200   -4.0268   -1.6943 C   0  0  0  0  0  0  0  0  0  0  0  0
   -2.8702   -4.8827   -1.1054 O   0  0  0  0  0  0  0  0  0  0  0  0
   -4.9704   -4.2579   -1.9614 C   0  0  0  0  0  0  0  0  0  0  0  0
   -5.1456   -4.7573   -2.9278 H   0  0  0  0  0  0  0  0  0  0  0  0
   -5.4379   -4.9112   -1.2072 H   0  0  0  0  0  0  0  0  0  0  0  0
   -5.5954   -3.3510   -1.9864 H   0  0  0  0  0  0  0  0  0  0  0  0
   -3.0424   -2.8131   -2.1606 N   0  0  0  0  0  0  0  0  0  0  0  0
   -1.6755   -2.3891   -2.0077 C   0  0  2  0  0  0  0  0  0  0  0  0
   -1.5782   -1.5673   -0.7292 C   0  0  0  0  0  0  0  0  0  0  0  0
   -2.5448   -1.0064   -0.2171 O   0  0  0  0  0  0  0  0  0  0  0  0
   -1.2087   -1.5823   -3.2094 C   0  0  0  0  0  0  0  0  0  0  0  0
   -3.6915   -2.1888   -2.6360 H   0  0  0  0  0  0  0  0  0  0  0  0
   -1.0721   -3.2977   -1.9053 H   0  0  0  0  0  0  0  0  0  0  0  0
   -1.8017   -0.6681   -3.3281 H   0  0  0  0  0  0  0  0  0  0  0  0
   -0.1601   -1.2849   -3.1045 H   0  0  0  0  0  0  0  0  0  0  0  0
   -1.3074   -2.1646   -4.1319 H   0  0  0  0  0  0  0  0  0  0  0  0
   -0.2835   -1.5112   -0.2725 N   0  0  0  0  0  0  0  0  0  0  0  0
    0.0769   -0.7658    0.9424 C   0  0  0  0  0  0  0  0  0  0  0  0
    0.6849   -1.7064    1.9512 C   0  0  0  0  0  0  0  0  0  0  0  0
    0.8343   -1.4217    3.1365 O   0  0  0  0  0  0  0  0  0  0  0  0
    0.4587   -2.0097   -0.7289 H   0  0  0  0  0  0  0  0  0  0  0  0
   -0.8223   -0.3058    1.3628 H   0  0  0  0  0  0  0  0  0  0  0  0
    0.7966    0.0163    0.6837 H   0  0  0  0  0  0  0  0  0  0  0  0
    1.0496   -2.9157    1.3689 N   0  0  0  0  0  0  0  0  0  0  0  0
    1.6567   -3.9972    2.0990 C   0  0  2  0  0  0  0  0  0  0  0  0
    0.7707   -5.2260    1.9427 C   0  0  0  0  0  0  0  0  0  0  0  0
   -0.4229   -5.1603    1.6559 O   0  0  0  0  0  0  0  0  0  0  0  0
    1.8382   -3.6411    3.5663 C   0  0  0  0  0  0  0  0  0  0  0  0
    0.8778   -3.0426    0.3729 H   0  0  0  0  0  0  0  0  0  0  0  0
    2.6299   -4.1863    1.6331 H   0  0  0  0  0  0  0  0  0  0  0  0
    0.8737   -3.4481    4.0501 H   0  0  0  0  0  0  0  0  0  0  0  0
    2.3262   -4.4538    4.1145 H   0  0  0  0  0  0  0  0  0  0  0  0
    2.4511   -2.7398    3.6757 H   0  0  0  0  0  0  0  0  0  0  0  0
    1.4592   -6.4025    2.2034 N   0  0  0  0  0  0  0  0  0  0  0  0
    0.8348   -7.7030    2.1342 C   0  0  0  0  0  0  0  0  0  0  0  0
    2.4518   -6.3640    2.4154 H   0  0  0  0  0  0  0  0  0  0  0  0
    0.4578   -7.9827    3.1290 H   0  0  0  0  0  0  0  0  0  0  0  0
   -0.0021   -7.6703    1.4210 H   0  0  0  0  0  0  0  0  0  0  0  0
    1.5729   -8.4467    1.7995 H   0  0  0  0  0  0  0  0  0  0  0  0
  1  3  1  0  0  0  0
  1  7  1  0  0  0  0
  1  2  2  0  0  0  0
 18 19  1  0  0  0  0
 19 24  1  0  0  0  0
 19 20  2  0  0  0  0
 25 26  1  0  0  0  0
 26 34  1  0  0  0  0
 26 27  2  0  0  0  0
  8  9  1  0  0  0  0
  9 17  1  0  0  0  0
  9 10  2  0  0  0  0
 25 28  1  0  0  0  0
  8 11  1  0  0  0  0
 34 35  1  0  0  0  0
 17 18  1  0  0  0  0
 24 25  1  0  0  0  0
  7  8  1  0  0  0  0
  3  4  1  0  0  0  0
  3  5  1  0  0  0  0
  3  6  1  0  0  0  0
 28 31  1  0  0  0  0
 28 32  1  0  0  0  0
 28 33  1  0  0  0  0
 11 14  1  0  0  0  0
 11 15  1  0  0  0  0
 11 16  1  0  0  0  0
 35 37  1  0  0  0  0
 35 38  1  0  0  0  0
 35 39  1  0  0  0  0
 18 22  1  0  0  0  0
 18 23  1  0  0  0  0
 25 30  1  0  0  0  0
  8 13  1  0  0  0  0
 34 36  1  0  0  0  0
 17 21  1  0  0  0  0
  7 12  1  0  0  0  0
 24 29  1  0  0  0  0
M  END
$$$$

  -OEChem-05262214473D

 39 38  0     1  0  0  0  0  0999 V2000
   -3.5200   -4.0268   -1.6943 C   0  0  0  0  0  0  0  0  0  0  0  0
   -2.8702   -4.8827   -1.1054 O   0  0  0  0  0  0  0  0  0  0  0  0
   -4.9704   -4.2579   -1.9614 C   0  0  0  0  0  0  0  0  0  0  0  0
   -5.1456   -4.7573   -2.9278 H   0  0  0  0  0  0  0  0  0  0  0  0
   -5.4379   -4.9112   -1.2072 H   0  0  0  0  0  0  0  0  0  0  0  0
   -5.5954   -3.3510   -1.9864 H   0  0  0  0  0  0  0  0  0  0  0  0
   -3.0424   -2.8131   -2.1606 N   0  0  0  0  0  0  0  0  0  0  0  0
   -1.6755   -2.3891   -2.0077 C   0  0  2  0  0  0  0  0  0  0  0  0
   -1.5782   -1.5673   -0.7292 C   0  0  0  0  0  0  0  0  0  0  0  0
   -2.5448   -1.0064   -0.2171 O   0  0  0  0  0  0  0  0  0  0  0  0
   -1.2087   -1.5823   -3.2094 C   0  0  0  0  0  0  0  0  0  0  0  0
   -3.6915   -2.1888   -2.6360 H   0  0  0  0  0  0  0  0  0  0  0  0
   -1.0721   -3.2977   -1.9053 H   0  0  0  0  0  0  0  0  0  0  0  0
   -1.8017   -0.6681   -3.3281 H   0  0  0  0  0  0  0  0  0  0  0  0
   -0.1601   -1.2849   -3.1045 H   0  0  0  0  0  0  0  0  0  0  0  0
   -1.3074   -2.1646   -4.1319 H   0  0  0  0  0  0  0  0  0  0  0  0
   -0.2835   -1.5112   -0.2725 N   0  0  0  0  0  0  0  0  0  0  0  0
    0.0769   -0.7658    0.9424 C   0  0  0  0  0  0  0  0  0  0  0  0
    0.6849   -1.7064    1.9512 C   0  0  0  0  0  0  0  0  0  0  0  0
    0.5977   -1.5436    3.1654 O   0  0  0  0  0  0  0  0  0  0  0  0
    0.4587   -2.0097   -0.7289 H   0  0  0  0  0  0  0  0  0  0  0  0
   -0.8223   -0.3058    1.3628 H   0  0  0  0  0  0  0  0  0  0  0  0
    0.7966    0.0163    0.6837 H   0  0  0  0  0  0  0  0  0  0  0  0
    1.3477   -2.7614    1.3331 N   0  0  0  0  0  0  0  0  0  0  0  0
    2.0229   -3.8071    2.0556 C   0  0  2  0  0  0  0  0  0  0  0  0
    1.4093   -5.1377    1.6402 C   0  0  0  0  0  0  0  0  0  0  0  0
    0.2816   -5.2358    1.1609 O   0  0  0  0  0  0  0  0  0  0  0  0
    1.9110   -3.6025    3.5584 C   0  0  0  0  0  0  0  0  0  0  0  0
    1.3557   -2.7958    0.3150 H   0  0  0  0  0  0  0  0  0  0  0  0
    3.0737   -3.7768    1.7475 H   0  0  0  0  0  0  0  0  0  0  0  0
    0.8653   -3.6298    3.8858 H   0  0  0  0  0  0  0  0  0  0  0  0
    2.4493   -4.3830    4.1062 H   0  0  0  0  0  0  0  0  0  0  0  0
    2.3259   -2.6321    3.8516 H   0  0  0  0  0  0  0  0  0  0  0  0
    2.2524   -6.2072    1.9074 N   0  0  0  0  0  0  0  0  0  0  0  0
    1.8927   -7.5753    1.6157 C   0  0  0  0  0  0  0  0  0  0  0  0
    3.1774   -6.0313    2.2884 H   0  0  0  0  0  0  0  0  0  0  0  0
    1.4258   -8.0292    2.5022 H   0  0  0  0  0  0  0  0  0  0  0  0
    1.1824   -7.5964    0.7760 H   0  0  0  0  0  0  0  0  0  0  0  0
    2.7960   -8.1422    1.3462 H   0  0  0  0  0  0  0  0  0  0  0  0
  1  3  1  0  0  0  0
  1  7  1  0  0  0  0
  1  2  2  0  0  0  0
 18 19  1  0  0  0  0
 19 24  1  0  0  0  0
 19 20  2  0  0  0  0
 25 26  1  0  0  0  0
 26 34  1  0  0  0  0
 26 27  2  0  0  0  0
  8  9  1  0  0  0  0
  9 17  1  0  0  0  0
  9 10  2  0  0  0  0
 25 28  1  0  0  0  0
  8 11  1  0  0  0  0
 34 35  1  0  0  0  0
 17 18  1  0  0  0  0
 24 25  1  0  0  0  0
  7  8  1  0  0  0  0
  3  4  1  0  0  0  0
  3  5  1  0  0  0  0
  3  6  1  0  0  0  0
 28 31  1  0  0  0  0
 28 32  1  0  0  0  0
 28 33  1  0  0  0  0
 11 14  1  0  0  0  0
 11 15  1  0  0  0  0
 11 16  1  0  0  0  0
 35 37  1  0  0  0  0
 35 38  1  0  0  0  0
 35 39  1  0  0  0  0
 18 22  1  0  0  0  0
 18 23  1  0  0  0  0
 25 30  1  0  0  0  0
  8 13  1  0  0  0  0
 34 36  1  0  0  0  0
 17 21  1  0  0  0  0
  7 12  1  0  0  0  0
 24 29  1  0  0  0  0
M  END
$$$$

  -OEChem-05262214473D

 39 38  0     1  0  0  0  0  0999 V2000
   -3.5200   -4.0268   -1.6943 C   0  0  0  0  0  0  0  0  0  0  0  0
   -2.8702   -4.8827   -1.1054 O   0  0  0  0  0  0  0  0  0  0  0  0
   -4.9704   -4.2579   -1.9614 C   0  0  0  0  0  0  0  0  0  0  0  0
   -5.1456   -4.7573   -2.9278 H   0  0  0  0  0  0  0  0  0  0  0  0
   -5.4379   -4.9112   -1.2072 H   0  0  0  0  0  0  0  0  0  0  0  0
   -5.5954   -3.3510   -1.9864 H   0  0  0  0  0  0  0  0  0  0  0  0
   -3.0424   -2.8131   -2.1606 N   0  0  0  0  0  0  0  0  0  0  0  0
   -1.6755   -2.3891   -2.0077 C   0  0  2  0  0  0  0  0  0  0  0  0
   -1.5782   -1.5673   -0.7292 C   0  0  0  0  0  0  0  0  0  0  0  0
   -2.5448   -1.0064   -0.2171 O   0  0  0  0  0  0  0  0  0  0  0  0
   -1.2087   -1.5823   -3.2094 C   0  0  0  0  0  0  0  0  0  0  0  0
   -3.6915   -2.1888   -2.6360 H   0  0  0  0  0  0  0  0  0  0  0  0
   -1.0721   -3.2977   -1.9053 H   0  0  0  0  0  0  0  0  0  0  0  0
   -1.8017   -0.6681   -3.3281 H   0  0  0  0  0  0  0  0  0  0  0  0
   -0.1601   -1.2849   -3.1045 H   0  0  0  0  0  0  0  0  0  0  0  0
   -1.3074   -2.1646   -4.1319 H   0  0  0  0  0  0  0  0  0  0  0  0
   -0.2835   -1.5112   -0.2725 N   0  0  0  0  0  0  0  0  0  0  0  0
    0.0769   -0.7658    0.9424 C   0  0  0  0  0  0  0  0  0  0  0  0
    0.6849   -1.7064    1.9512 C   0  0  0  0  0  0  0  0  0  0  0  0
    0.3856   -1.7054    3.1424 O   0  0  0  0  0  0  0  0  0  0  0  0
    0.4587   -2.0097   -0.7289 H   0  0  0  0  0  0  0  0  0  0  0  0
   -0.8223   -0.3058    1.3628 H   0  0  0  0  0  0  0  0  0  0  0  0
    0.7966    0.0163    0.6837 H   0  0  0  0  0  0  0  0  0  0  0  0
    1.6147   -2.5570    1.3627 N   0  0  0  0  0  0  0  0  0  0  0  0
    2.3507   -3.5555    2.0926 C   0  0  2  0  0  0  0  0  0  0  0  0
    2.0598   -4.9101    1.4603 C   0  0  0  0  0  0  0  0  0  0  0  0
    1.0550   -5.1350    0.7887 O   0  0  0  0  0  0  0  0  0  0  0  0
    1.9759   -3.5519    3.5665 C   0  0  0  0  0  0  0  0  0  0  0  0
    1.7838   -2.4686    0.3621 H   0  0  0  0  0  0  0  0  0  0  0  0
    3.4129   -3.3163    1.9725 H   0  0  0  0  0  0  0  0  0  0  0  0
    0.9151   -3.7896    3.7068 H   0  0  0  0  0  0  0  0  0  0  0  0
    2.5572   -4.2925    4.1255 H   0  0  0  0  0  0  0  0  0  0  0  0
    2.1579   -2.5682    4.0125 H   0  0  0  0  0  0  0  0  0  0  0  0
    3.0325   -5.8503    1.7700 N   0  0  0  0  0  0  0  0  0  0  0  0
    2.9762   -7.2145    1.2990 C   0  0  0  0  0  0  0  0  0  0  0  0
    3.8411   -5.5710    2.3176 H   0  0  0  0  0  0  0  0  0  0  0  0
    2.4702   -7.8411    2.0482 H   0  0  0  0  0  0  0  0  0  0  0  0
    2.4180   -7.2526    0.3520 H   0  0  0  0  0  0  0  0  0  0  0  0
    3.9979   -7.5890    1.1377 H   0  0  0  0  0  0  0  0  0  0  0  0
  1  3  1  0  0  0  0
  1  7  1  0  0  0  0
  1  2  2  0  0  0  0
 18 19  1  0  0  0  0
 19 24  1  0  0  0  0
 19 20  2  0  0  0  0
 25 26  1  0  0  0  0
 26 34  1  0  0  0  0
 26 27  2  0  0  0  0
  8  9  1  0  0  0  0
  9 17  1  0  0  0  0
  9 10  2  0  0  0  0
 25 28  1  0  0  0  0
  8 11  1  0  0  0  0
 34 35  1  0  0  0  0
 17 18  1  0  0  0  0
 24 25  1  0  0  0  0
  7  8  1  0  0  0  0
  3  4  1  0  0  0  0
  3  5  1  0  0  0  0
  3  6  1  0  0  0  0
 28 31  1  0  0  0  0
 28 32  1  0  0  0  0
 28 33  1  0  0  0  0
 11 14  1  0  0  0  0
 11 15  1  0  0  0  0
 11 16  1  0  0  0  0
 35 37  1  0  0  0  0
 35 38  1  0  0  0  0
 35 39  1  0  0  0  0
 18 22  1  0  0  0  0
 18 23  1  0  0  0  0
 25 30  1  0  0  0  0
  8 13  1  0  0  0  0
 34 36  1  0  0  0  0
 17 21  1  0  0  0  0
  7 12  1  0  0  0  0
 24 29  1  0  0  0  0
M  END
$$$$

  -OEChem-05262214473D

 39 38  0     1  0  0  0  0  0999 V2000
   -3.5200   -4.0268   -1.6943 C   0  0  0  0  0  0  0  0  0  0  0  0
   -2.8702   -4.8827   -1.1054 O   0  0  0  0  0  0  0  0  0  0  0  0
   -4.9704   -4.2579   -1.9614 C   0  0  0  0  0  0  0  0  0  0  0  0
   -5.1456   -4.7573   -2.9278 H   0  0  0  0  0  0  0  0  0  0  0  0
   -5.4379   -4.9112   -1.2072 H   0  0  0  0  0  0  0  0  0  0  0  0
   -5.5954   -3.3510   -1.9864 H   0  0  0  0  0  0  0  0  0  0  0  0
   -3.0424   -2.8131   -2.1606 N   0  0  0  0  0  0  0  0  0  0  0  0
   -1.6755   -2.3891   -2.0077 C   0  0  2  0  0  0  0  0  0  0  0  0
   -1.5782   -1.5673   -0.7292 C   0  0  0  0  0  0  0  0  0  0  0  0
   -2.5448   -1.0064   -0.2171 O   0  0  0  0  0  0  0  0  0  0  0  0
   -1.2087   -1.5823   -3.2094 C   0  0  0  0  0  0  0  0  0  0  0  0
   -3.6915   -2.1888   -2.6360 H   0  0  0  0  0  0  0  0  0  0  0  0
   -1.0721   -3.2977   -1.9053 H   0  0  0  0  0  0  0  0  0  0  0  0
   -1.8017   -0.6681   -3.3281 H   0  0  0  0  0  0  0  0  0  0  0  0
   -0.1601   -1.2849   -3.1045 H   0  0  0  0  0  0  0  0  0  0  0  0
   -1.3074   -2.1646   -4.1319 H   0  0  0  0  0  0  0  0  0  0  0  0
   -0.2835   -1.5112   -0.2725 N   0  0  0  0  0  0  0  0  0  0  0  0
    0.0769   -0.7658    0.9424 C   0  0  0  0  0  0  0  0  0  0  0  0
    0.6849   -1.7064    1.9512 C   0  0  0  0  0  0  0  0  0  0  0  0
    0.2125   -1.8960    3.0690 O   0  0  0  0  0  0  0  0  0  0  0  0
    0.4587   -2.0097   -0.7289 H   0  0  0  0  0  0  0  0  0  0  0  0
   -0.8223   -0.3058    1.3628 H   0  0  0  0  0  0  0  0  0  0  0  0
    0.7966    0.0163    0.6837 H   0  0  0  0  0  0  0  0  0  0  0  0
    1.8324   -2.3164    1.4558 N   0  0  0  0  0  0  0  0  0  0  0  0
    2.6178   -3.2596    2.2076 C   0  0  2  0  0  0  0  0  0  0  0  0
    2.6777   -4.5589    1.4154 C   0  0  0  0  0  0  0  0  0  0  0  0
    1.8448   -4.8648    0.5646 O   0  0  0  0  0  0  0  0  0  0  0  0
    2.0285   -3.4926    3.5901 C   0  0  0  0  0  0  0  0  0  0  0  0
    2.1330   -2.0833    0.5108 H   0  0  0  0  0  0  0  0  0  0  0  0
    3.6245   -2.8362    2.2926 H   0  0  0  0  0  0  0  0  0  0  0  0
    1.0198   -3.9166    3.5252 H   0  0  0  0  0  0  0  0  0  0  0  0
    2.6428   -4.1884    4.1711 H   0  0  0  0  0  0  0  0  0  0  0  0
    1.9585   -2.5523    4.1475 H   0  0  0  0  0  0  0  0  0  0  0  0
    3.7464   -5.3561    1.8005 N   0  0  0  0  0  0  0  0  0  0  0  0
    4.0115   -6.6453    1.2058 C   0  0  0  0  0  0  0  0  0  0  0  0
    4.3978   -5.0144    2.5010 H   0  0  0  0  0  0  0  0  0  0  0  0
    3.5197   -7.4310    1.7980 H   0  0  0  0  0  0  0  0  0  0  0  0
    3.6203   -6.6621    0.1778 H   0  0  0  0  0  0  0  0  0  0  0  0
    5.0966   -6.8247    1.1881 H   0  0  0  0  0  0  0  0  0  0  0  0
  1  3  1  0  0  0  0
  1  7  1  0  0  0  0
  1  2  2  0  0  0  0
 18 19  1  0  0  0  0
 19 24  1  0  0  0  0
 19 20  2  0  0  0  0
 25 26  1  0  0  0  0
 26 34  1  0  0  0  0
 26 27  2  0  0  0  0
  8  9  1  0  0  0  0
  9 17  1  0  0  0  0
  9 10  2  0  0  0  0
 25 28  1  0  0  0  0
  8 11  1  0  0  0  0
 34 35  1  0  0  0  0
 17 18  1  0  0  0  0
 24 25  1  0  0  0  0
  7  8  1  0  0  0  0
  3  4  1  0  0  0  0
  3  5  1  0  0  0  0
  3  6  1  0  0  0  0
 28 31  1  0  0  0  0
 28 32  1  0  0  0  0
 28 33  1  0  0  0  0
 11 14  1  0  0  0  0
 11 15  1  0  0  0  0
 11 16  1  0  0  0  0
 35 37  1  0  0  0  0
 35 38  1  0  0  0  0
 35 39  1  0  0  0  0
 18 22  1  0  0  0  0
 18 23  1  0  0  0  0
 25 30  1  0  0  0  0
  8 13  1  0  0  0  0
 34 36  1  0  0  0  0
 17 21  1  0  0  0  0
  7 12  1  0  0  0  0
 24 29  1  0  0  0  0
M  END
$$$$

  -OEChem-05262214473D

 39 38  0     1  0  0  0  0  0999 V2000
   -3.5200   -4.0268   -1.6943 C   0  0  0  0  0  0  0  0  0  0  0  0
   -2.8702   -4.8827   -1.1054 O   0  0  0  0  0  0  0  0  0  0  0  0
   -4.9704   -4.2579   -1.9614 C   0  0  0  0  0  0  0  0  0  0  0  0
   -5.1456   -4.7573   -2.9278 H   0  0  0  0  0  0  0  0  0  0  0  0
   -5.4379   -4.9112   -1.2072 H   0  0  0  0  0  0  0  0  0  0  0  0
   -5.5954   -3.3510   -1.9864 H   0  0  0  0  0  0  0  0  0  0  0  0
   -3.0424   -2.8131   -2.1606 N   0  0  0  0  0  0  0  0  0  0  0  0
   -1.6755   -2.3891   -2.0077 C   0  0  2  0  0  0  0  0  0  0  0  0
   -1.5782   -1.5673   -0.7292 C   0  0  0  0  0  0  0  0  0  0  0  0
   -2.5448   -1.0064   -0.2171 O   0  0  0  0  0  0  0  0  0  0  0  0
   -1.2087   -1.5823   -3.2094 C   0  0  0  0  0  0  0  0  0  0  0  0
   -3.6915   -2.1888   -2.6360 H   0  0  0  0  0  0  0  0  0  0  0  0
   -1.0721   -3.2977   -1.9053 H   0  0  0  0  0  0  0  0  0  0  0  0
   -1.8017   -0.6681   -3.3281 H   0  0  0  0  0  0  0  0  0  0  0  0
   -0.1601   -1.2849   -3.1045 H   0  0  0  0  0  0  0  0  0  0  0  0
   -1.3074   -2.1646   -4.1319 H   0  0  0  0  0  0  0  0  0  0  0  0
   -0.2835   -1.5112   -0.2725 N   0  0  0  0  0  0  0  0  0  0  0  0
    0.0769   -0.7658    0.9424 C   0  0  0  0  0  0  0  0  0  0  0  0
    0.6849   -1.7064    1.9512 C   0  0  0  0  0  0  0  0  0  0  0  0
    0.0902   -2.1024    2.9502 O   0  0  0  0  0  0  0  0  0  0  0  0
    0.4587   -2.0097   -0.7289 H   0  0  0  0  0  0  0  0  0  0  0  0
   -0.8223   -0.3058    1.3628 H   0  0  0  0  0  0  0  0  0  0  0  0
    0.7966    0.0163    0.6837 H   0  0  0  0  0  0  0  0  0  0  0  0
    1.9861   -2.0561    1.6060 N   0  0  0  0  0  0  0  0  0  0  0  0
    2.8059   -2.9395    2.3927 C   0  0  2  0  0  0  0  0  0  0  0  0
    3.2210   -4.1079    1.5085 C   0  0  0  0  0  0  0  0  0  0  0  0
    2.5971   -4.4437    0.5040 O   0  0  0  0  0  0  0  0  0  0  0  0
    2.0652   -3.4286    3.6276 C   0  0  0  0  0  0  0  0  0  0  0  0
    2.3796   -1.6662    0.7512 H   0  0  0  0  0  0  0  0  0  0  0  0
    3.6940   -2.3692    2.6862 H   0  0  0  0  0  0  0  0  0  0  0  0
    1.1723   -4.0022    3.3535 H   0  0  0  0  0  0  0  0  0  0  0  0
    2.7000   -4.0778    4.2398 H   0  0  0  0  0  0  0  0  0  0  0  0
    1.7414   -2.5855    4.2473 H   0  0  0  0  0  0  0  0  0  0  0  0
    4.3455   -4.7583    1.9969 N   0  0  0  0  0  0  0  0  0  0  0  0
    4.9279   -5.9065    1.3424 C   0  0  0  0  0  0  0  0  0  0  0  0
    4.8095   -4.3996    2.8263 H   0  0  0  0  0  0  0  0  0  0  0  0
    4.5028   -6.8271    1.7686 H   0  0  0  0  0  0  0  0  0  0  0  0
    4.7076   -5.8654    0.2655 H   0  0  0  0  0  0  0  0  0  0  0  0
    6.0174   -5.9014    1.4941 H   0  0  0  0  0  0  0  0  0  0  0  0
  1  3  1  0  0  0  0
  1  7  1  0  0  0  0
  1  2  2  0  0  0  0
 18 19  1  0  0  0  0
 19 24  1  0  0  0  0
 19 20  2  0  0  0  0
 25 26  1  0  0  0  0
 26 34  1  0  0  0  0
 26 27  2  0  0  0  0
  8  9  1  0  0  0  0
  9 17  1  0  0  0  0
  9 10  2  0  0  0  0
 25 28  1  0  0  0  0
  8 11  1  0  0  0  0
 34 35  1  0  0  0  0
 17 18  1  0  0  0  0
 24 25  1  0  0  0  0
  7  8  1  0  0  0  0
  3  4  1  0  0  0  0
  3  5  1  0  0  0  0
  3  6  1  0  0  0  0
 28 31  1  0  0  0  0
 28 32  1  0  0  0  0
 28 33  1  0  0  0  0
 11 14  1  0  0  0  0
 11 15  1  0  0  0  0
 11 16  1  0  0  0  0
 35 37  1  0  0  0  0
 35 38  1  0  0  0  0
 35 39  1  0  0  0  0
 18 22  1  0  0  0  0
 18 23  1  0  0  0  0
 25 30  1  0  0  0  0
  8 13  1  0  0  0  0
 34 36  1  0  0  0  0
 17 21  1  0  0  0  0
  7 12  1  0  0  0  0
 24 29  1  0  0  0  0
M  END
$$$$

  -OEChem-05262214473D

 39 38  0     1  0  0  0  0  0999 V2000
   -3.5200   -4.0268   -1.6943 C   0  0  0  0  0  0  0  0  0  0  0  0
   -2.8702   -4.8827   -1.1054 O   0  0  0  0  0  0  0  0  0  0  0  0
   -4.9704   -4.2579   -1.9614 C   0  0  0  0  0  0  0  0  0  0  0  0
   -5.1456   -4.7573   -2.9278 H   0  0  0  0  0  0  0  0  0  0  0  0
   -5.4379   -4.9112   -1.2072 H   0  0  0  0  0  0  0  0  0  0  0  0
   -5.5954   -3.3510   -1.9864 H   0  0  0  0  0  0  0  0  0  0  0  0
   -3.0424   -2.8131   -2.1606 N   0  0  0  0  0  0  0  0  0  0  0  0
   -1.6755   -2.3891   -2.0077 C   0  0  2  0  0  0  0  0  0  0  0  0
   -1.5782   -1.5673   -0.7292 C   0  0  0  0  0  0  0  0  0  0  0  0
   -2.5448   -1.0064   -0.2171 O   0  0  0  0  0  0  0  0  0  0  0  0
   -1.2087   -1.5823   -3.2094 C   0  0  0  0  0  0  0  0  0  0  0  0
   -3.6915   -2.1888   -2.6360 H   0  0  0  0  0  0  0  0  0  0  0  0
   -1.0721   -3.2977   -1.9053 H   0  0  0  0  0  0  0  0  0  0  0  0
   -1.8017   -0.6681   -3.3281 H   0  0  0  0  0  0  0  0  0  0  0  0
   -0.1601   -1.2849   -3.1045 H   0  0  0  0  0  0  0  0  0  0  0  0
   -1.3074   -2.1646   -4.1319 H   0  0  0  0  0  0  0  0  0  0  0  0
   -0.2835   -1.5112   -0.2725 N   0  0  0  0  0  0  0  0  0  0  0  0
    0.0769   -0.7658    0.9424 C   0  0  0  0  0  0  0  0  0  0  0  0
    0.6849   -1.7064    1.9512 C   0  0  0  0  0  0  0  0  0  0  0  0
    0.0270   -2.3106    2.7942 O   0  0  0  0  0  0  0  0  0  0  0  0
    0.4587   -2.0097   -0.7289 H   0  0  0  0  0  0  0  0  0  0  0  0
   -0.8223   -0.3058    1.3628 H   0  0  0  0  0  0  0  0  0  0  0  0
    0.7966    0.0163    0.6837 H   0  0  0  0  0  0  0  0  0  0  0  0
    2.0651   -1.7936    1.8031 N   0  0  0  0  0  0  0  0  0  0  0  0
    2.9023   -2.6170    2.6353 C   0  0  2  0  0  0  0  0  0  0  0  0
    3.6526   -3.5879    1.7332 C   0  0  0  0  0  0  0  0  0  0  0  0
    3.2605   -3.9002    0.6108 O   0  0  0  0  0  0  0  0  0  0  0  0
    2.0836   -3.3644    3.6764 C   0  0  0  0  0  0  0  0  0  0  0  0
    2.5068   -1.2457    1.0667 H   0  0  0  0  0  0  0  0  0  0  0  0
    3.6167   -1.9472    3.1263 H   0  0  0  0  0  0  0  0  0  0  0  0
    1.3621   -4.0405    3.2033 H   0  0  0  0  0  0  0  0  0  0  0  0
    2.7250   -3.9682    4.3269 H   0  0  0  0  0  0  0  0  0  0  0  0
    1.5213   -2.6657    4.3052 H   0  0  0  0  0  0  0  0  0  0  0  0
    4.7889   -4.0976    2.3458 N   0  0  0  0  0  0  0  0  0  0  0  0
    5.6631   -5.0483    1.6995 C   0  0  0  0  0  0  0  0  0  0  0  0
    5.0481   -3.7683    3.2711 H   0  0  0  0  0  0  0  0  0  0  0  0
    5.3525   -6.0703    1.9621 H   0  0  0  0  0  0  0  0  0  0  0  0
    5.6056   -4.9166    0.6089 H   0  0  0  0  0  0  0  0  0  0  0  0
    6.6975   -4.8820    2.0348 H   0  0  0  0  0  0  0  0  0  0  0  0
  1  3  1  0  0  0  0
  1  7  1  0  0  0  0
  1  2  2  0  0  0  0
 18 19  1  0  0  0  0
 19 24  1  0  0  0  0
 19 20  2  0  0  0  0
 25 26  1  0  0  0  0
 26 34  1  0  0  0  0
 26 27  2  0  0  0  0
  8  9  1  0  0  0  0
  9 17  1  0  0  0  0
  9 10  2  0  0  0  0
 25 28  1  0  0  0  0
  8 11  1  0  0  0  0
 34 35  1  0  0  0  0
 17 18  1  0  0  0  0
 24 25  1  0  0  0  0
  7  8  1  0  0  0  0
  3  4  1  0  0  0  0
  3  5  1  0  0  0  0
  3  6  1  0  0  0  0
 28 31  1  0  0  0  0
 28 32  1  0  0  0  0
 28 33  1  0  0  0  0
 11 14  1  0  0  0  0
 11 15  1  0  0  0  0
 11 16  1  0  0  0  0
 35 37  1  0  0  0  0
 35 38  1  0  0  0  0
 35 39  1  0  0  0  0
 18 22  1  0  0  0  0
 18 23  1  0  0  0  0
 25 30  1  0  0  0  0
  8 13  1  0  0  0  0
 34 36  1  0  0  0  0
 17 21  1  0  0  0  0
  7 12  1  0  0  0  0
 24 29  1  0  0  0  0
M  END
$$$$

  -OEChem-05262214473D

 39 38  0     1  0  0  0  0  0999 V2000
   -3.5200   -4.0268   -1.6943 C   0  0  0  0  0  0  0  0  0  0  0  0
   -2.8702   -4.8827   -1.1054 O   0  0  0  0  0  0  0  0  0  0  0  0
   -4.9704   -4.2579   -1.9614 C   0  0  0  0  0  0  0  0  0  0  0  0
   -5.1456   -4.7573   -2.9278 H   0  0  0  0  0  0  0  0  0  0  0  0
   -5.4379   -4.9112   -1.2072 H   0  0  0  0  0  0  0  0  0  0  0  0
   -5.5954   -3.3510   -1.9864 H   0  0  0  0  0  0  0  0  0  0  0  0
   -3.0424   -2.8131   -2.1606 N   0  0  0  0  0  0  0  0  0  0  0  0
   -1.6755   -2.3891   -2.0077 C   0  0  2  0  0  0  0  0  0  0  0  0
   -1.5782   -1.5673   -0.7292 C   0  0  0  0  0  0  0  0  0  0  0  0
   -2.5448   -1.0064   -0.2171 O   0  0  0  0  0  0  0  0  0  0  0  0
   -1.2087   -1.5823   -3.2094 C   0  0  0  0  0  0  0  0  0  0  0  0
   -3.6915   -2.1888   -2.6360 H   0  0  0  0  0  0  0  0  0  0  0  0
   -1.0721   -3.2977   -1.9053 H   0  0  0  0  0  0  0  0  0  0  0  0
   -1.8017   -0.6681   -3.3281 H   0  0  0  0  0  0  0  0  0  0  0  0
   -0.1601   -1.2849   -3.1045 H   0  0  0  0  0  0  0  0  0  0  0  0
   -1.3074   -2.1646   -4.1319 H   0  0  0  0  0  0  0  0  0  0  0  0
   -0.2835   -1.5112   -0.2725 N   0  0  0  0  0  0  0  0  0  0  0  0
    0.0769   -0.7658    0.9424 C   0  0  0  0  0  0  0  0  0  0  0  0
    0.6849   -1.7064    1.9512 C   0  0  0  0  0  0  0  0  0  0  0  0
    0.0272   -2.5063    2.6116 O   0  0  0  0  0  0  0  0  0  0  0  0
    0.4587   -2.0097   -0.7289 H   0  0  0  0  0  0  0  0  0  0  0  0
   -0.8223   -0.3058    1.3628 H   0  0  0  0  0  0  0  0  0  0  0  0
    0.7966    0.0163    0.6837 H   0  0  0  0  0  0  0  0  0  0  0  0
    2.0641   -1.5470    2.0337 N   0  0  0  0  0  0  0  0  0  0  0  0
    2.9003   -2.3142    2.9189 C   0  0  2  0  0  0  0  0  0  0  0  0
    3.9432   -3.0343    2.0743 C   0  0  0  0  0  0  0  0  0  0  0  0
    3.7900   -3.2715    0.8779 O   0  0  0  0  0  0  0  0  0  0  0  0
    2.0823   -3.3043    3.7332 C   0  0  0  0  0  0  0  0  0  0  0  0
    2.5057   -0.8504    1.4359 H   0  0  0  0  0  0  0  0  0  0  0  0
    3.3978   -1.5989    3.5829 H   0  0  0  0  0  0  0  0  0  0  0  0
    1.5764   -4.0290    3.0849 H   0  0  0  0  0  0  0  0  0  0  0  0
    2.7161   -3.8671    4.4265 H   0  0  0  0  0  0  0  0  0  0  0  0
    1.3133   -2.7873    4.3172 H   0  0  0  0  0  0  0  0  0  0  0  0
    5.0464   -3.4190    2.8234 N   0  0  0  0  0  0  0  0  0  0  0  0
    6.1670   -4.1294    2.2527 C   0  0  0  0  0  0  0  0  0  0  0  0
    5.0974   -3.1637    3.8052 H   0  0  0  0  0  0  0  0  0  0  0  0
    6.0110   -5.2124    2.3653 H   0  0  0  0  0  0  0  0  0  0  0  0
    6.2532   -3.8805    1.1847 H   0  0  0  0  0  0  0  0  0  0  0  0
    7.0905   -3.8360    2.7733 H   0  0  0  0  0  0  0  0  0  0  0  0
  1  3  1  0  0  0  0
  1  7  1  0  0  0  0
  1  2  2  0  0  0  0
 18 19  1  0  0  0  0
 19 24  1  0  0  0  0
 19 20  2  0  0  0  0
 25 26  1  0  0  0  0
 26 34  1  0  0  0  0
 26 27  2  0  0  0  0
  8  9  1  0  0  0  0
  9 17  1  0  0  0  0
  9 10  2  0  0  0  0
 25 28  1  0  0  0  0
  8 11  1  0  0  0  0
 34 35  1  0  0  0  0
 17 18  1  0  0  0  0
 24 25  1  0  0  0  0
  7  8  1  0  0  0  0
  3  4  1  0  0  0  0
  3  5  1  0  0  0  0
  3  6  1  0  0  0  0
 28 31  1  0  0  0  0
 28 32  1  0  0  0  0
 28 33  1  0  0  0  0
 11 14  1  0  0  0  0
 11 15  1  0  0  0  0
 11 16  1  0  0  0  0
 35 37  1  0  0  0  0
 35 38  1  0  0  0  0
 35 39  1  0  0  0  0
 18 22  1  0  0  0  0
 18 23  1  0  0  0  0
 25 30  1  0  0  0  0
  8 13  1  0  0  0  0
 34 36  1  0  0  0  0
 17 21  1  0  0  0  0
  7 12  1  0  0  0  0
 24 29  1  0  0  0  0
M  END
$$$$

  -OEChem-05262214473D

 39 38  0     1  0  0  0  0  0999 V2000
   -3.5200   -4.0268   -1.6943 C   0  0  0  0  0  0  0  0  0  0  0  0
   -2.8702   -4.8827   -1.1054 O   0  0  0  0  0  0  0  0  0  0  0  0
   -4.9704   -4.2579   -1.9614 C   0  0  0  0  0  0  0  0  0  0  0  0
   -5.1456   -4.7573   -2.9278 H   0  0  0  0  0  0  0  0  0  0  0  0
   -5.4379   -4.9112   -1.2072 H   0  0  0  0  0  0  0  0  0  0  0  0
   -5.5954   -3.3510   -1.9864 H   0  0  0  0  0  0  0  0  0  0  0  0
   -3.0424   -2.8131   -2.1606 N   0  0  0  0  0  0  0  0  0  0  0  0
   -1.6755   -2.3891   -2.0077 C   0  0  2  0  0  0  0  0  0  0  0  0
   -1.5782   -1.5673   -0.7292 C   0  0  0  0  0  0  0  0  0  0  0  0
   -2.5448   -1.0064   -0.2171 O   0  0  0  0  0  0  0  0  0  0  0  0
   -1.2087   -1.5823   -3.2094 C   0  0  0  0  0  0  0  0  0  0  0  0
   -3.6915   -2.1888   -2.6360 H   0  0  0  0  0  0  0  0  0  0  0  0
   -1.0721   -3.2977   -1.9053 H   0  0  0  0  0  0  0  0  0  0  0  0
   -1.8017   -0.6681   -3.3281 H   0  0  0  0  0  0  0  0  0  0  0  0
   -0.1601   -1.2849   -3.1045 H   0  0  0  0  0  0  0  0  0  0  0  0
   -1.3074   -2.1646   -4.1319 H   0  0  0  0  0  0  0  0  0  0  0  0
   -0.2835   -1.5112   -0.2725 N   0  0  0  0  0  0  0  0  0  0  0  0
    0.0769   -0.7658    0.9424 C   0  0  0  0  0  0  0  0  0  0  0  0
    0.6849   -1.7064    1.9512 C   0  0  0  0  0  0  0  0  0  0  0  0
    0.0908   -2.6763    2.4147 O   0  0  0  0  0  0  0  0  0  0  0  0
    0.4587   -2.0097   -0.7289 H   0  0  0  0  0  0  0  0  0  0  0  0
   -0.8223   -0.3058    1.3628 H   0  0  0  0  0  0  0  0  0  0  0  0
    0.7966    0.0163    0.6837 H   0  0  0  0  0  0  0  0  0  0  0  0
    1.9832   -1.3331    2.2820 N   0  0  0  0  0  0  0  0  0  0  0  0
    2.8002   -2.0516    3.2241 C   0  0  2  0  0  0  0  0  0  0  0  0
    4.0729   -2.4848    2.5085 C   0  0  0  0  0  0  0  0  0  0  0  0
    4.1494   -2.6005    1.2871 O   0  0  0  0  0  0  0  0  0  0  0  0
    2.0615   -3.2524    3.7942 C   0  0  0  0  0  0  0  0  0  0  0  0
    2.3767   -0.5073    1.8336 H   0  0  0  0  0  0  0  0  0  0  0  0
    3.0523   -1.3481    4.0251 H   0  0  0  0  0  0  0  0  0  0  0  0
    1.8005   -3.9684    3.0063 H   0  0  0  0  0  0  0  0  0  0  0  0
    2.6739   -3.7814    4.5319 H   0  0  0  0  0  0  0  0  0  0  0  0
    1.1315   -2.9420    4.2826 H   0  0  0  0  0  0  0  0  0  0  0  0
    5.1004   -2.7688    3.3971 N   0  0  0  0  0  0  0  0  0  0  0  0
    6.4051   -3.2122    2.9644 C   0  0  0  0  0  0  0  0  0  0  0  0
    4.9540   -2.6268    4.3922 H   0  0  0  0  0  0  0  0  0  0  0  0
    6.4333   -4.3118    2.9506 H   0  0  0  0  0  0  0  0  0  0  0  0
    6.6063   -2.8276    1.9537 H   0  0  0  0  0  0  0  0  0  0  0  0
    7.1696   -2.8347    3.6594 H   0  0  0  0  0  0  0  0  0  0  0  0
  1  3  1  0  0  0  0
  1  7  1  0  0  0  0
  1  2  2  0  0  0  0
 18 19  1  0  0  0  0
 19 24  1  0  0  0  0
 19 20  2  0  0  0  0
 25 26  1  0  0  0  0
 26 34  1  0  0  0  0
 26 27  2  0  0  0  0
  8  9  1  0  0  0  0
  9 17  1  0  0  0  0
  9 10  2  0  0  0  0
 25 28  1  0  0  0  0
  8 11  1  0  0  0  0
 34 35  1  0  0  0  0
 17 18  1  0  0  0  0
 24 25  1  0  0  0  0
  7  8  1  0  0  0  0
  3  4  1  0  0  0  0
  3  5  1  0  0  0  0
  3  6  1  0  0  0  0
 28 31  1  0  0  0  0
 28 32  1  0  0  0  0
 28 33  1  0  0  0  0
 11 14  1  0  0  0  0
 11 15  1  0  0  0  0
 11 16  1  0  0  0  0
 35 37  1  0  0  0  0
 35 38  1  0  0  0  0
 35 39  1  0  0  0  0
 18 22  1  0  0  0  0
 18 23  1  0  0  0  0
 25 30  1  0  0  0  0
  8 13  1  0  0  0  0
 34 36  1  0  0  0  0
 17 21  1  0  0  0  0
  7 12  1  0  0  0  0
 24 29  1  0  0  0  0
M  END
$$$$

  -OEChem-05262214473D

 39 38  0     1  0  0  0  0  0999 V2000
   -3.5200   -4.0268   -1.6943 C   0  0  0  0  0  0  0  0  0  0  0  0
   -2.8702   -4.8827   -1.1054 O   0  0  0  0  0  0  0  0  0  0  0  0
   -4.9704   -4.2579   -1.9614 C   0  0  0  0  0  0  0  0  0  0  0  0
   -5.1456   -4.7573   -2.9278 H   0  0  0  0  0  0  0  0  0  0  0  0
   -5.4379   -4.9112   -1.2072 H   0  0  0  0  0  0  0  0  0  0  0  0
   -5.5954   -3.3510   -1.9864 H   0  0  0  0  0  0  0  0  0  0  0  0
   -3.0424   -2.8131   -2.1606 N   0  0  0  0  0  0  0  0  0  0  0  0
   -1.6755   -2.3891   -2.0077 C   0  0  2  0  0  0  0  0  0  0  0  0
   -1.5782   -1.5673   -0.7292 C   0  0  0  0  0  0  0  0  0  0  0  0
   -2.5448   -1.0064   -0.2171 O   0  0  0  0  0  0  0  0  0  0  0  0
   -1.2087   -1.5823   -3.2094 C   0  0  0  0  0  0  0  0  0  0  0  0
   -3.6915   -2.1888   -2.6360 H   0  0  0  0  0  0  0  0  0  0  0  0
   -1.0721   -3.2977   -1.9053 H   0  0  0  0  0  0  0  0  0  0  0  0
   -1.8017   -0.6681   -3.3281 H   0  0  0  0  0  0  0  0  0  0  0  0
   -0.1601   -1.2849   -3.1045 H   0  0  0  0  0  0  0  0  0  0  0  0
   -1.3074   -2.1646   -4.1319 H   0  0  0  0  0  0  0  0  0  0  0  0
   -0.2835   -1.5112   -0.2725 N   0  0  0  0  0  0  0  0  0  0  0  0
    0.0769   -0.7658    0.9424 C   0  0  0  0  0  0  0  0  0  0  0  0
    0.6849   -1.7064    1.9512 C   0  0  0  0  0  0  0  0  0  0  0  0
    0.2134   -2.8089    2.2171 O   0  0  0  0  0  0  0  0  0  0  0  0
    0.4587   -2.0097   -0.7289 H   0  0  0  0  0  0  0  0  0  0  0  0
   -0.8223   -0.3058    1.3628 H   0  0  0  0  0  0  0  0  0  0  0  0
    0.7966    0.0163    0.6837 H   0  0  0  0  0  0  0  0  0  0  0  0
    1.8279   -1.1663    2.5310 N   0  0  0  0  0  0  0  0  0  0  0  0
    2.6087   -1.8471    3.5301 C   0  0  2  0  0  0  0  0  0  0  0  0
    4.0328   -1.9770    3.0062 C   0  0  0  0  0  0  0  0  0  0  0  0
    4.3143   -1.9327    1.8104 O   0  0  0  0  0  0  0  0  0  0  0  0
    2.0225   -3.2122    3.8551 C   0  0  0  0  0  0  0  0  0  0  0  0
    2.1283   -0.2398    2.2328 H   0  0  0  0  0  0  0  0  0  0  0  0
    2.6038   -1.2118    4.4225 H   0  0  0  0  0  0  0  0  0  0  0  0
    2.0191   -3.8629    2.9730 H   0  0  0  0  0  0  0  0  0  0  0  0
    2.6012   -3.7169    4.6358 H   0  0  0  0  0  0  0  0  0  0  0  0
    0.9882   -3.1193    4.2035 H   0  0  0  0  0  0  0  0  0  0  0  0
    4.9473   -2.1913    4.0279 N   0  0  0  0  0  0  0  0  0  0  0  0
    6.3613   -2.3593    3.7861 C   0  0  0  0  0  0  0  0  0  0  0  0
    4.6277   -2.1944    4.9921 H   0  0  0  0  0  0  0  0  0  0  0  0
    6.5907   -3.4297    3.6782 H   0  0  0  0  0  0  0  0  0  0  0  0
    6.6408   -1.8297    2.8634 H   0  0  0  0  0  0  0  0  0  0  0  0
    6.9295   -1.9462    4.6325 H   0  0  0  0  0  0  0  0  0  0  0  0
  1  3  1  0  0  0  0
  1  7  1  0  0  0  0
  1  2  2  0  0  0  0
 18 19  1  0  0  0  0
 19 24  1  0  0  0  0
 19 20  2  0  0  0  0
 25 26  1  0  0  0  0
 26 34  1  0  0  0  0
 26 27  2  0  0  0  0
  8  9  1  0  0  0  0
  9 17  1  0  0  0  0
  9 10  2  0  0  0  0
 25 28  1  0  0  0  0
  8 11  1  0  0  0  0
 34 35  1  0  0  0  0
 17 18  1  0  0  0  0
 24 25  1  0  0  0  0
  7  8  1  0  0  0  0
  3  4  1  0  0  0  0
  3  5  1  0  0  0  0
  3  6  1  0  0  0  0
 28 31  1  0  0  0  0
 28 32  1  0  0  0  0
 28 33  1  0  0  0  0
 11 14  1  0  0  0  0
 11 15  1  0  0  0  0
 11 16  1  0  0  0  0
 35 37  1  0  0  0  0
 35 38  1  0  0  0  0
 35 39  1  0  0  0  0
 18 22  1  0  0  0  0
 18 23  1  0  0  0  0
 25 30  1  0  0  0  0
  8 13  1  0  0  0  0
 34 36  1  0  0  0  0
 17 21  1  0  0  0  0
  7 12  1  0  0  0  0
 24 29  1  0  0  0  0
M  END
$$$$

  -OEChem-05262214473D

 39 38  0     1  0  0  0  0  0999 V2000
   -3.5200   -4.0268   -1.6943 C   0  0  0  0  0  0  0  0  0  0  0  0
   -2.8702   -4.8827   -1.1054 O   0  0  0  0  0  0  0  0  0  0  0  0
   -4.9704   -4.2579   -1.9614 C   0  0  0  0  0  0  0  0  0  0  0  0
   -5.1456   -4.7573   -2.9278 H   0  0  0  0  0  0  0  0  0  0  0  0
   -5.4379   -4.9112   -1.2072 H   0  0  0  0  0  0  0  0  0  0  0  0
   -5.5954   -3.3510   -1.9864 H   0  0  0  0  0  0  0  0  0  0  0  0
   -3.0424   -2.8131   -2.1606 N   0  0  0  0  0  0  0  0  0  0  0  0
   -1.6755   -2.3891   -2.0077 C   0  0  2  0  0  0  0  0  0  0  0  0
   -1.5782   -1.5673   -0.7292 C   0  0  0  0  0  0  0  0  0  0  0  0
   -2.5448   -1.0064   -0.2171 O   0  0  0  0  0  0  0  0  0  0  0  0
   -1.2087   -1.5823   -3.2094 C   0  0  0  0  0  0  0  0  0  0  0  0
   -3.6915   -2.1888   -2.6360 H   0  0  0  0  0  0  0  0  0  0  0  0
   -1.0721   -3.2977   -1.9053 H   0  0  0  0  0  0  0  0  0  0  0  0
   -1.8017   -0.6681   -3.3281 H   0  0  0  0  0  0  0  0  0  0  0  0
   -0.1601   -1.2849   -3.1045 H   0  0  0  0  0  0  0  0  0  0  0  0
   -1.3074   -2.1646   -4.1319 H   0  0  0  0  0  0  0  0  0  0  0  0
   -0.2835   -1.5112   -0.2725 N   0  0  0  0  0  0  0  0  0  0  0  0
    0.0769   -0.7658    0.9424 C   0  0  0  0  0  0  0  0  0  0  0  0
    0.6849   -1.7064    1.9512 C   0  0  0  0  0  0  0  0  0  0  0  0
    0.3868   -2.8951    2.0323 O   0  0  0  0  0  0  0  0  0  0  0  0
    0.4587   -2.0097   -0.7289 H   0  0  0  0  0  0  0  0  0  0  0  0
   -0.8223   -0.3058    1.3628 H   0  0  0  0  0  0  0  0  0  0  0  0
    0.7966    0.0163    0.6837 H   0  0  0  0  0  0  0  0  0  0  0  0
    1.6088   -1.0582    2.7640 N   0  0  0  0  0  0  0  0  0  0  0  0
    2.3389   -1.7148    3.8162 C   0  0  2  0  0  0  0  0  0  0  0  0
    3.8258   -1.5453    3.5335 C   0  0  0  0  0  0  0  0  0  0  0  0
    4.2733   -1.3138    2.4122 O   0  0  0  0  0  0  0  0  0  0  0  0
    1.9681   -3.1866    3.9119 C   0  0  0  0  0  0  0  0  0  0  0  0
    1.7777   -0.0661    2.6061 H   0  0  0  0  0  0  0  0  0  0  0  0
    2.0827   -1.1994    4.7482 H   0  0  0  0  0  0  0  0  0  0  0  0
    2.2174   -3.7196    2.9871 H   0  0  0  0  0  0  0  0  0  0  0  0
    2.5031   -3.6781    4.7311 H   0  0  0  0  0  0  0  0  0  0  0  0
    0.8934   -3.3072    4.0855 H   0  0  0  0  0  0  0  0  0  0  0  0
    4.5975   -1.7258    4.6728 N   0  0  0  0  0  0  0  0  0  0  0  0
    6.0385   -1.6289    4.6618 C   0  0  0  0  0  0  0  0  0  0  0  0
    4.1408   -1.8959    5.5639 H   0  0  0  0  0  0  0  0  0  0  0  0
    6.4724   -2.6265    4.4985 H   0  0  0  0  0  0  0  0  0  0  0  0
    6.3544   -0.9548    3.8519 H   0  0  0  0  0  0  0  0  0  0  0  0
    6.3865   -1.2313    5.6265 H   0  0  0  0  0  0  0  0  0  0  0  0
  1  3  1  0  0  0  0
  1  7  1  0  0  0  0
  1  2  2  0  0  0  0
 18 19  1  0  0  0  0
 19 24  1  0  0  0  0
 19 20  2  0  0  0  0
 25 26  1  0  0  0  0
 26 34  1  0  0  0  0
 26 27  2  0  0  0  0
  8  9  1  0  0  0  0
  9 17  1  0  0  0  0
  9 10  2  0  0  0  0
 25 28  1  0  0  0  0
  8 11  1  0  0  0  0
 34 35  1  0  0  0  0
 17 18  1  0  0  0  0
 24 25  1  0  0  0  0
  7  8  1  0  0  0  0
  3  4  1  0  0  0  0
  3  5  1  0  0  0  0
  3  6  1  0  0  0  0
 28 31  1  0  0  0  0
 28 32  1  0  0  0  0
 28 33  1  0  0  0  0
 11 14  1  0  0  0  0
 11 15  1  0  0  0  0
 11 16  1  0  0  0  0
 35 37  1  0  0  0  0
 35 38  1  0  0  0  0
 35 39  1  0  0  0  0
 18 22  1  0  0  0  0
 18 23  1  0  0  0  0
 25 30  1  0  0  0  0
  8 13  1  0  0  0  0
 34 36  1  0  0  0  0
 17 21  1  0  0  0  0
  7 12  1  0  0  0  0
 24 29  1  0  0  0  0
M  END
$$$$

  -OEChem-05262214473D

 39 38  0     1  0  0  0  0  0999 V2000
   -3.5200   -4.0268   -1.6943 C   0  0  0  0  0  0  0  0  0  0  0  0
   -2.8702   -4.8827   -1.1054 O   0  0  0  0  0  0  0  0  0  0  0  0
   -4.9704   -4.2579   -1.9614 C   0  0  0  0  0  0  0  0  0  0  0  0
   -5.1456   -4.7573   -2.9278 H   0  0  0  0  0  0  0  0  0  0  0  0
   -5.4379   -4.9112   -1.2072 H   0  0  0  0  0  0  0  0  0  0  0  0
   -5.5954   -3.3510   -1.9864 H   0  0  0  0  0  0  0  0  0  0  0  0
   -3.0424   -2.8131   -2.1606 N   0  0  0  0  0  0  0  0  0  0  0  0
   -1.6755   -2.3891   -2.0077 C   0  0  2  0  0  0  0  0  0  0  0  0
   -1.5782   -1.5673   -0.7292 C   0  0  0  0  0  0  0  0  0  0  0  0
   -2.5448   -1.0064   -0.2171 O   0  0  0  0  0  0  0  0  0  0  0  0
   -1.2087   -1.5823   -3.2094 C   0  0  0  0  0  0  0  0  0  0  0  0
   -3.6915   -2.1888   -2.6360 H   0  0  0  0  0  0  0  0  0  0  0  0
   -1.0721   -3.2977   -1.9053 H   0  0  0  0  0  0  0  0  0  0  0  0
   -1.8017   -0.6681   -3.3281 H   0  0  0  0  0  0  0  0  0  0  0  0
   -0.1601   -1.2849   -3.1045 H   0  0  0  0  0  0  0  0  0  0  0  0
   -1.3074   -2.1646   -4.1319 H   0  0  0  0  0  0  0  0  0  0  0  0
   -0.2835   -1.5112   -0.2725 N   0  0  0  0  0  0  0  0  0  0  0  0
    0.0769   -0.7658    0.9424 C   0  0  0  0  0  0  0  0  0  0  0  0
    0.6849   -1.7064    1.9512 C   0  0  0  0  0  0  0  0  0  0  0  0
    0.5990   -2.9291    1.8727 O   0  0  0  0  0  0  0  0  0  0  0  0
    0.4587   -2.0097   -0.7289 H   0  0  0  0  0  0  0  0  0  0  0  0
   -0.8223   -0.3058    1.3628 H   0  0  0  0  0  0  0  0  0  0  0  0
    0.7966    0.0163    0.6837 H   0  0  0  0  0  0  0  0  0  0  0  0
    1.3408   -1.0160    2.9648 N   0  0  0  0  0  0  0  0  0  0  0  0
    2.0092   -1.6636    4.0627 C   0  0  2  0  0  0  0  0  0  0  0  0
    3.4659   -1.2193    4.0544 C   0  0  0  0  0  0  0  0  0  0  0  0
    4.0293   -0.7859    3.0515 O   0  0  0  0  0  0  0  0  0  0  0  0
    1.9019   -3.1771    3.9606 C   0  0  0  0  0  0  0  0  0  0  0  0
    1.3485    0.0020    2.9283 H   0  0  0  0  0  0  0  0  0  0  0  0
    1.5246   -1.3116    4.9799 H   0  0  0  0  0  0  0  0  0  0  0  0
    2.3819   -3.5483    3.0477 H   0  0  0  0  0  0  0  0  0  0  0  0
    2.3862   -3.6675    4.8114 H   0  0  0  0  0  0  0  0  0  0  0  0
    0.8533   -3.4928    3.9366 H   0  0  0  0  0  0  0  0  0  0  0  0
    4.0749   -1.4041    5.2878 N   0  0  0  0  0  0  0  0  0  0  0  0
    5.4588   -1.0707    5.5317 C   0  0  0  0  0  0  0  0  0  0  0  0
    3.5263   -1.7516    6.0689 H   0  0  0  0  0  0  0  0  0  0  0  0
    6.0865   -1.9567    5.3556 H   0  0  0  0  0  0  0  0  0  0  0  0
    5.7665   -0.2626    4.8518 H   0  0  0  0  0  0  0  0  0  0  0  0
    5.5777   -0.7385    6.5736 H   0  0  0  0  0  0  0  0  0  0  0  0
  1  3  1  0  0  0  0
  1  7  1  0  0  0  0
  1  2  2  0  0  0  0
 18 19  1  0  0  0  0
 19 24  1  0  0  0  0
 19 20  2  0  0  0  0
 25 26  1  0  0  0  0
 26 34  1  0  0  0  0
 26 27  2  0  0  0  0
  8  9  1  0  0  0  0
  9 17  1  0  0  0  0
  9 10  2  0  0  0  0
 25 28  1  0  0  0  0
  8 11  1  0  0  0  0
 34 35  1  0  0  0  0
 17 18  1  0  0  0  0
 24 25  1  0  0  0  0
  7  8  1  0  0  0  0
  3  4  1  0  0  0  0
  3  5  1  0  0  0  0
  3  6  1  0  0  0  0
 28 31  1  0  0  0  0
 28 32  1  0  0  0  0
 28 33  1  0  0  0  0
 11 14  1  0  0  0  0
 11 15  1  0  0  0  0
 11 16  1  0  0  0  0
 35 37  1  0  0  0  0
 35 38  1  0  0  0  0
 35 39  1  0  0  0  0
 18 22  1  0  0  0  0
 18 23  1  0  0  0  0
 25 30  1  0  0  0  0
  8 13  1  0  0  0  0
 34 36  1  0  0  0  0
 17 21  1  0  0  0  0
  7 12  1  0  0  0  0
 24 29  1  0  0  0  0
M  END
$$$$

  -OEChem-05262214473D

 39 38  0     1  0  0  0  0  0999 V2000
   -3.5200   -4.0268   -1.6943 C   0  0  0  0  0  0  0  0  0  0  0  0
   -2.8702   -4.8827   -1.1054 O   0  0  0  0  0  0  0  0  0  0  0  0
   -4.9704   -4.2579   -1.9614 C   0  0  0  0  0  0  0  0  0  0  0  0
   -5.1456   -4.7573   -2.9278 H   0  0  0  0  0  0  0  0  0  0  0  0
   -5.4379   -4.9112   -1.2072 H   0  0  0  0  0  0  0  0  0  0  0  0
   -5.5954   -3.3510   -1.9864 H   0  0  0  0  0  0  0  0  0  0  0  0
   -3.0424   -2.8131   -2.1606 N   0  0  0  0  0  0  0  0  0  0  0  0
   -1.6755   -2.3891   -2.0077 C   0  0  2  0  0  0  0  0  0  0  0  0
   -1.5782   -1.5673   -0.7292 C   0  0  0  0  0  0  0  0  0  0  0  0
   -2.5448   -1.0064   -0.2171 O   0  0  0  0  0  0  0  0  0  0  0  0
   -1.2087   -1.5823   -3.2094 C   0  0  0  0  0  0  0  0  0  0  0  0
   -3.6915   -2.1888   -2.6360 H   0  0  0  0  0  0  0  0  0  0  0  0
   -1.0721   -3.2977   -1.9053 H   0  0  0  0  0  0  0  0  0  0  0  0
   -1.8017   -0.6681   -3.3281 H   0  0  0  0  0  0  0  0  0  0  0  0
   -0.1601   -1.2849   -3.1045 H   0  0  0  0  0  0  0  0  0  0  0  0
   -1.3074   -2.1646   -4.1319 H   0  0  0  0  0  0  0  0  0  0  0  0
   -0.2835   -1.5112   -0.2725 N   0  0  0  0  0  0  0  0  0  0  0  0
    0.0769   -0.7658    0.9424 C   0  0  0  0  0  0  0  0  0  0  0  0
    1.0020   -1.5996    1.7916 C   0  0  0  0  0  0  0  0  0  0  0  0
    1.3720   -2.7284    1.4796 O   0  0  0  0  0  0  0  0  0  0  0  0
    0.4587   -2.0097   -0.7289 H   0  0  0  0  0  0  0  0  0  0  0  0
   -0.8319   -0.5342    1.5058 H   0  0  0  0  0  0  0  0  0  0  0  0
    0.5739    0.1662    0.6578 H   0  0  0  0  0  0  0  0  0  0  0  0
    1.3701   -0.9321    2.9549 N   0  0  0  0  0  0  0  0  0  0  0  0
    2.2443   -1.4948    3.9502 C   0  0  2  0  0  0  0  0  0  0  0  0
    3.4343   -0.5585    4.1142 C   0  0  0  0  0  0  0  0  0  0  0  0
    3.7851    0.2388    3.2469 O   0  0  0  0  0  0  0  0  0  0  0  0
    2.7015   -2.8915    3.5591 C   0  0  0  0  0  0  0  0  0  0  0  0
    1.0014    0.0046    3.1108 H   0  0  0  0  0  0  0  0  0  0  0  0
    1.6761   -1.5315    4.8860 H   0  0  0  0  0  0  0  0  0  0  0  0
    3.2726   -2.8747    2.6237 H   0  0  0  0  0  0  0  0  0  0  0  0
    3.3435   -3.3293    4.3306 H   0  0  0  0  0  0  0  0  0  0  0  0
    1.8430   -3.5558    3.4125 H   0  0  0  0  0  0  0  0  0  0  0  0
    4.0845   -0.7482    5.3256 N   0  0  0  0  0  0  0  0  0  0  0  0
    5.2510    0.0109    5.7117 C   0  0  0  0  0  0  0  0  0  0  0  0
    3.7129   -1.4181    5.9926 H   0  0  0  0  0  0  0  0  0  0  0  0
    6.1588   -0.5325    5.4108 H   0  0  0  0  0  0  0  0  0  0  0  0
    5.2301    0.9926    5.2157 H   0  0  0  0  0  0  0  0  0  0  0  0
    5.2524    0.1513    6.8027 H   0  0  0  0  0  0  0  0  0  0  0  0
  1  3  1  0  0  0  0
  1  7  1  0  0  0  0
  1  2  2  0  0  0  0
 18 19  1  0  0  0  0
 19 24  1  0  0  0  0
 19 20  2  0  0  0  0
 25 26  1  0  0  0  0
 26 34  1  0  0  0  0
 26 27  2  0  0  0  0
  8  9  1  0  0  0  0
  9 17  1  0  0  0  0
  9 10  2  0  0  0  0
 25 28  1  0  0  0  0
  8 11  1  0  0  0  0
 34 35  1  0  0  0  0
 17 18  1  0  0  0  0
 24 25  1  0  0  0  0
  7  8  1  0  0  0  0
  3  4  1  0  0  0  0
  3  5  1  0  0  0  0
  3  6  1  0  0  0  0
 28 31  1  0  0  0  0
 28 32  1  0  0  0  0
 28 33  1  0  0  0  0
 11 14  1  0  0  0  0
 11 15  1  0  0  0  0
 11 16  1  0  0  0  0
 35 37  1  0  0  0  0
 35 38  1  0  0  0  0
 35 39  1  0  0  0  0
 18 22  1  0  0  0  0
 18 23  1  0  0  0  0
 25 30  1  0  0  0  0
  8 13  1  0  0  0  0
 34 36  1  0  0  0  0
 17 21  1  0  0  0  0
  7 12  1  0  0  0  0
 24 29  1  0  0  0  0
M  END
$$$$

  -OEChem-05262214473D

 39 38  0     1  0  0  0  0  0999 V2000
   -3.5200   -4.0268   -1.6943 C   0  0  0  0  0  0  0  0  0  0  0  0
   -2.8702   -4.8827   -1.1054 O   0  0  0  0  0  0  0  0  0  0  0  0
   -4.9704   -4.2579   -1.9614 C   0  0  0  0  0  0  0  0  0  0  0  0
   -5.1456   -4.7573   -2.9278 H   0  0  0  0  0  0  0  0  0  0  0  0
   -5.4379   -4.9112   -1.2072 H   0  0  0  0  0  0  0  0  0  0  0  0
   -5.5954   -3.3510   -1.9864 H   0  0  0  0  0  0  0  0  0  0  0  0
   -3.0424   -2.8131   -2.1606 N   0  0  0  0  0  0  0  0  0  0  0  0
   -1.6755   -2.3891   -2.0077 C   0  0  2  0  0  0  0  0  0  0  0  0
   -1.5782   -1.5673   -0.7292 C   0  0  0  0  0  0  0  0  0  0  0  0
   -2.5448   -1.0064   -0.2171 O   0  0  0  0  0  0  0  0  0  0  0  0
   -1.2087   -1.5823   -3.2094 C   0  0  0  0  0  0  0  0  0  0  0  0
   -3.6915   -2.1888   -2.6360 H   0  0  0  0  0  0  0  0  0  0  0  0
   -1.0721   -3.2977   -1.9053 H   0  0  0  0  0  0  0  0  0  0  0  0
   -1.8017   -0.6681   -3.3281 H   0  0  0  0  0  0  0  0  0  0  0  0
   -0.1601   -1.2849   -3.1045 H   0  0  0  0  0  0  0  0  0  0  0  0
   -1.3074   -2.1646   -4.1319 H   0  0  0  0  0  0  0  0  0  0  0  0
   -0.2835   -1.5112   -0.2725 N   0  0  0  0  0  0  0  0  0  0  0  0
    0.0769   -0.7658    0.9424 C   0  0  0  0  0  0  0  0  0  0  0  0
    1.0020   -1.5996    1.7916 C   0  0  0  0  0  0  0  0  0  0  0  0
    1.5828   -2.5991    1.3769 O   0  0  0  0  0  0  0  0  0  0  0  0
    0.4587   -2.0097   -0.7289 H   0  0  0  0  0  0  0  0  0  0  0  0
   -0.8319   -0.5342    1.5058 H   0  0  0  0  0  0  0  0  0  0  0  0
    0.5739    0.1662    0.6578 H   0  0  0  0  0  0  0  0  0  0  0  0
    1.1044   -1.0956    3.0839 N   0  0  0  0  0  0  0  0  0  0  0  0
    1.9178   -1.6962    4.1080 C   0  0  2  0  0  0  0  0  0  0  0  0
    2.9136   -0.6502    4.5914 C   0  0  0  0  0  0  0  0  0  0  0  0
    3.2455    0.3223    3.9168 O   0  0  0  0  0  0  0  0  0  0  0  0
    2.6365   -2.9323    3.5899 C   0  0  0  0  0  0  0  0  0  0  0  0
    0.5756   -0.2570    3.3178 H   0  0  0  0  0  0  0  0  0  0  0  0
    1.2444   -1.9670    4.9285 H   0  0  0  0  0  0  0  0  0  0  0  0
    3.3158   -2.6808    2.7672 H   0  0  0  0  0  0  0  0  0  0  0  0
    3.2324   -3.4043    4.3780 H   0  0  0  0  0  0  0  0  0  0  0  0
    1.9200   -3.6713    3.2152 H   0  0  0  0  0  0  0  0  0  0  0  0
    3.4207   -0.9534    5.8473 N   0  0  0  0  0  0  0  0  0  0  0  0
    4.3922   -0.1211    6.5176 C   0  0  0  0  0  0  0  0  0  0  0  0
    3.0747   -1.7704    6.3419 H   0  0  0  0  0  0  0  0  0  0  0  0
    5.4058   -0.4788    6.2839 H   0  0  0  0  0  0  0  0  0  0  0  0
    4.2824    0.9186    6.1754 H   0  0  0  0  0  0  0  0  0  0  0  0
    4.2282   -0.1687    7.6042 H   0  0  0  0  0  0  0  0  0  0  0  0
  1  3  1  0  0  0  0
  1  7  1  0  0  0  0
  1  2  2  0  0  0  0
 18 19  1  0  0  0  0
 19 24  1  0  0  0  0
 19 20  2  0  0  0  0
 25 26  1  0  0  0  0
 26 34  1  0  0  0  0
 26 27  2  0  0  0  0
  8  9  1  0  0  0  0
  9 17  1  0  0  0  0
  9 10  2  0  0  0  0
 25 28  1  0  0  0  0
  8 11  1  0  0  0  0
 34 35  1  0  0  0  0
 17 18  1  0  0  0  0
 24 25  1  0  0  0  0
  7  8  1  0  0  0  0
  3  4  1  0  0  0  0
  3  5  1  0  0  0  0
  3  6  1  0  0  0  0
 28 31  1  0  0  0  0
 28 32  1  0  0  0  0
 28 33  1  0  0  0  0
 11 14  1  0  0  0  0
 11 15  1  0  0  0  0
 11 16  1  0  0  0  0
 35 37  1  0  0  0  0
 35 38  1  0  0  0  0
 35 39  1  0  0  0  0
 18 22  1  0  0  0  0
 18 23  1  0  0  0  0
 25 30  1  0  0  0  0
  8 13  1  0  0  0  0
 34 36  1  0  0  0  0
 17 21  1  0  0  0  0
  7 12  1  0  0  0  0
 24 29  1  0  0  0  0
M  END
$$$$

  -OEChem-05262214473D

 39 38  0     1  0  0  0  0  0999 V2000
   -3.5200   -4.0268   -1.6943 C   0  0  0  0  0  0  0  0  0  0  0  0
   -2.8702   -4.8827   -1.1054 O   0  0  0  0  0  0  0  0  0  0  0  0
   -4.9704   -4.2579   -1.9614 C   0  0  0  0  0  0  0  0  0  0  0  0
   -5.1456   -4.7573   -2.9278 H   0  0  0  0  0  0  0  0  0  0  0  0
   -5.4379   -4.9112   -1.2072 H   0  0  0  0  0  0  0  0  0  0  0  0
   -5.5954   -3.3510   -1.9864 H   0  0  0  0  0  0  0  0  0  0  0  0
   -3.0424   -2.8131   -2.1606 N   0  0  0  0  0  0  0  0  0  0  0  0
   -1.6755   -2.3891   -2.0077 C   0  0  2  0  0  0  0  0  0  0  0  0
   -1.5782   -1.5673   -0.7292 C   0  0  0  0  0  0  0  0  0  0  0  0
   -2.5448   -1.0064   -0.2171 O   0  0  0  0  0  0  0  0  0  0  0  0
   -1.2087   -1.5823   -3.2094 C   0  0  0  0  0  0  0  0  0  0  0  0
   -3.6915   -2.1888   -2.6360 H   0  0  0  0  0  0  0  0  0  0  0  0
   -1.0721   -3.2977   -1.9053 H   0  0  0  0  0  0  0  0  0  0  0  0
   -1.8017   -0.6681   -3.3281 H   0  0  0  0  0  0  0  0  0  0  0  0
   -0.1601   -1.2849   -3.1045 H   0  0  0  0  0  0  0  0  0  0  0  0
   -1.3074   -2.1646   -4.1319 H   0  0  0  0  0  0  0  0  0  0  0  0
   -0.2835   -1.5112   -0.2725 N   0  0  0  0  0  0  0  0  0  0  0  0
    0.0769   -0.7658    0.9424 C   0  0  0  0  0  0  0  0  0  0  0  0
    1.0020   -1.5996    1.7916 C   0  0  0  0  0  0  0  0  0  0  0  0
    1.7822   -2.4273    1.3284 O   0  0  0  0  0  0  0  0  0  0  0  0
    0.4587   -2.0097   -0.7289 H   0  0  0  0  0  0  0  0  0  0  0  0
   -0.8319   -0.5342    1.5058 H   0  0  0  0  0  0  0  0  0  0  0  0
    0.5739    0.1662    0.6578 H   0  0  0  0  0  0  0  0  0  0  0  0
    0.8531   -1.3128    3.1444 N   0  0  0  0  0  0  0  0  0  0  0  0
    1.6092   -1.9636    4.1817 C   0  0  2  0  0  0  0  0  0  0  0  0
    2.3557   -0.8905    4.9632 C   0  0  0  0  0  0  0  0  0  0  0  0
    2.6162    0.2179    4.4998 O   0  0  0  0  0  0  0  0  0  0  0  0
    2.5752   -2.9861    3.6038 C   0  0  0  0  0  0  0  0  0  0  0  0
    0.1728   -0.6046    3.4153 H   0  0  0  0  0  0  0  0  0  0  0  0
    0.8849   -2.4573    4.8387 H   0  0  0  0  0  0  0  0  0  0  0  0
    3.3086   -2.5100    2.9428 H   0  0  0  0  0  0  0  0  0  0  0  0
    3.1292   -3.5006    4.3959 H   0  0  0  0  0  0  0  0  0  0  0  0
    2.0395   -3.7403    3.0173 H   0  0  0  0  0  0  0  0  0  0  0  0
    2.7347   -1.3313    6.2235 N   0  0  0  0  0  0  0  0  0  0  0  0
    3.4665   -0.5018    7.1521 C   0  0  0  0  0  0  0  0  0  0  0  0
    2.4597   -2.2592    6.5319 H   0  0  0  0  0  0  0  0  0  0  0  0
    4.5456   -0.6754    7.0279 H   0  0  0  0  0  0  0  0  0  0  0  0
    3.2404    0.5565    6.9550 H   0  0  0  0  0  0  0  0  0  0  0  0
    3.1707   -0.7545    8.1810 H   0  0  0  0  0  0  0  0  0  0  0  0
  1  3  1  0  0  0  0
  1  7  1  0  0  0  0
  1  2  2  0  0  0  0
 18 19  1  0  0  0  0
 19 24  1  0  0  0  0
 19 20  2  0  0  0  0
 25 26  1  0  0  0  0
 26 34  1  0  0  0  0
 26 27  2  0  0  0  0
  8  9  1  0  0  0  0
  9 17  1  0  0  0  0
  9 10  2  0  0  0  0
 25 28  1  0  0  0  0
  8 11  1  0  0  0  0
 34 35  1  0  0  0  0
 17 18  1  0  0  0  0
 24 25  1  0  0  0  0
  7  8  1  0  0  0  0
  3  4  1  0  0  0  0
  3  5  1  0  0  0  0
  3  6  1  0  0  0  0
 28 31  1  0  0  0  0
 28 32  1  0  0  0  0
 28 33  1  0  0  0  0
 11 14  1  0  0  0  0
 11 15  1  0  0  0  0
 11 16  1  0  0  0  0
 35 37  1  0  0  0  0
 35 38  1  0  0  0  0
 35 39  1  0  0  0  0
 18 22  1  0  0  0  0
 18 23  1  0  0  0  0
 25 30  1  0  0  0  0
  8 13  1  0  0  0  0
 34 36  1  0  0  0  0
 17 21  1  0  0  0  0
  7 12  1  0  0  0  0
 24 29  1  0  0  0  0
M  END
$$$$

  -OEChem-05262214473D

 39 38  0     1  0  0  0  0  0999 V2000
   -3.5200   -4.0268   -1.6943 C   0  0  0  0  0  0  0  0  0  0  0  0
   -2.8702   -4.8827   -1.1054 O   0  0  0  0  0  0  0  0  0  0  0  0
   -4.9704   -4.2579   -1.9614 C   0  0  0  0  0  0  0  0  0  0  0  0
   -5.1456   -4.7573   -2.9278 H   0  0  0  0  0  0  0  0  0  0  0  0
   -5.4379   -4.9112   -1.2072 H   0  0  0  0  0  0  0  0  0  0  0  0
   -5.5954   -3.3510   -1.9864 H   0  0  0  0  0  0  0  0  0  0  0  0
   -3.0424   -2.8131   -2.1606 N   0  0  0  0  0  0  0  0  0  0  0  0
   -1.6755   -2.3891   -2.0077 C   0  0  2  0  0  0  0  0  0  0  0  0
   -1.5782   -1.5673   -0.7292 C   0  0  0  0  0  0  0  0  0  0  0  0
   -2.5448   -1.0064   -0.2171 O   0  0  0  0  0  0  0  0  0  0  0  0
   -1.2087   -1.5823   -3.2094 C   0  0  0  0  0  0  0  0  0  0  0  0
   -3.6915   -2.1888   -2.6360 H   0  0  0  0  0  0  0  0  0  0  0  0
   -1.0721   -3.2977   -1.9053 H   0  0  0  0  0  0  0  0  0  0  0  0
   -1.8017   -0.6681   -3.3281 H   0  0  0  0  0  0  0  0  0  0  0  0
   -0.1601   -1.2849   -3.1045 H   0  0  0  0  0  0  0  0  0  0  0  0
   -1.3074   -2.1646   -4.1319 H   0  0  0  0  0  0  0  0  0  0  0  0
   -0.2835   -1.5112   -0.2725 N   0  0  0  0  0  0  0  0  0  0  0  0
    0.0769   -0.7658    0.9424 C   0  0  0  0  0  0  0  0  0  0  0  0
    1.0020   -1.5996    1.7916 C   0  0  0  0  0  0  0  0  0  0  0  0
    1.9568   -2.2245    1.3374 O   0  0  0  0  0  0  0  0  0  0  0  0
    0.4587   -2.0097   -0.7289 H   0  0  0  0  0  0  0  0  0  0  0  0
   -0.8319   -0.5342    1.5058 H   0  0  0  0  0  0  0  0  0  0  0  0
    0.5739    0.1662    0.6578 H   0  0  0  0  0  0  0  0  0  0  0  0
    0.6334   -1.5688    3.1324 N   0  0  0  0  0  0  0  0  0  0  0  0
    1.3396   -2.2785    4.1663 C   0  0  2  0  0  0  0  0  0  0  0  0
    1.7987   -1.2630    5.2043 C   0  0  0  0  0  0  0  0  0  0  0  0
    1.9400   -0.0673    4.9564 O   0  0  0  0  0  0  0  0  0  0  0  0
    2.5219   -3.0492    3.5999 C   0  0  0  0  0  0  0  0  0  0  0  0
   -0.1795   -1.0145    3.3965 H   0  0  0  0  0  0  0  0  0  0  0  0
    0.6220   -2.9691    4.6226 H   0  0  0  0  0  0  0  0  0  0  0  0
    3.2516   -2.3739    3.1385 H   0  0  0  0  0  0  0  0  0  0  0  0
    3.0410   -3.6114    4.3832 H   0  0  0  0  0  0  0  0  0  0  0  0
    2.1933   -3.7581    2.8322 H   0  0  0  0  0  0  0  0  0  0  0  0
    2.0734   -1.8561    6.4287 N   0  0  0  0  0  0  0  0  0  0  0  0
    2.5371   -1.1053    7.5721 C   0  0  0  0  0  0  0  0  0  0  0  0
    1.9097   -2.8512    6.5498 H   0  0  0  0  0  0  0  0  0  0  0  0
    3.6369   -1.1089    7.5922 H   0  0  0  0  0  0  0  0  0  0  0  0
    2.1751   -0.0690    7.5014 H   0  0  0  0  0  0  0  0  0  0  0  0
    2.1521   -1.5661    8.4937 H   0  0  0  0  0  0  0  0  0  0  0  0
  1  3  1  0  0  0  0
  1  7  1  0  0  0  0
  1  2  2  0  0  0  0
 18 19  1  0  0  0  0
 19 24  1  0  0  0  0
 19 20  2  0  0  0  0
 25 26  1  0  0  0  0
 26 34  1  0  0  0  0
 26 27  2  0  0  0  0
  8  9  1  0  0  0  0
  9 17  1  0  0  0  0
  9 10  2  0  0  0  0
 25 28  1  0  0  0  0
  8 11  1  0  0  0  0
 34 35  1  0  0  0  0
 17 18  1  0  0  0  0
 24 25  1  0  0  0  0
  7  8  1  0  0  0  0
  3  4  1  0  0  0  0
  3  5  1  0  0  0  0
  3  6  1  0  0  0  0
 28 31  1  0  0  0  0
 28 32  1  0  0  0  0
 28 33  1  0  0  0  0
 11 14  1  0  0  0  0
 11 15  1  0  0  0  0
 11 16  1  0  0  0  0
 35 37  1  0  0  0  0
 35 38  1  0  0  0  0
 35 39  1  0  0  0  0
 18 22  1  0  0  0  0
 18 23  1  0  0  0  0
 25 30  1  0  0  0  0
  8 13  1  0  0  0  0
 34 36  1  0  0  0  0
 17 21  1  0  0  0  0
  7 12  1  0  0  0  0
 24 29  1  0  0  0  0
M  END
$$$$

  -OEChem-05262214473D

 39 38  0     1  0  0  0  0  0999 V2000
   -3.5200   -4.0268   -1.6943 C   0  0  0  0  0  0  0  0  0  0  0  0
   -2.8702   -4.8827   -1.1054 O   0  0  0  0  0  0  0  0  0  0  0  0
   -4.9704   -4.2579   -1.9614 C   0  0  0  0  0  0  0  0  0  0  0  0
   -5.1456   -4.7573   -2.9278 H   0  0  0  0  0  0  0  0  0  0  0  0
   -5.4379   -4.9112   -1.2072 H   0  0  0  0  0  0  0  0  0  0  0  0
   -5.5954   -3.3510   -1.9864 H   0  0  0  0  0  0  0  0  0  0  0  0
   -3.0424   -2.8131   -2.1606 N   0  0  0  0  0  0  0  0  0  0  0  0
   -1.6755   -2.3891   -2.0077 C   0  0  2  0  0  0  0  0  0  0  0  0
   -1.5782   -1.5673   -0.7292 C   0  0  0  0  0  0  0  0  0  0  0  0
   -2.5448   -1.0064   -0.2171 O   0  0  0  0  0  0  0  0  0  0  0  0
   -1.2087   -1.5823   -3.2094 C   0  0  0  0  0  0  0  0  0  0  0  0
   -3.6915   -2.1888   -2.6360 H   0  0  0  0  0  0  0  0  0  0  0  0
   -1.0721   -3.2977   -1.9053 H   0  0  0  0  0  0  0  0  0  0  0  0
   -1.8017   -0.6681   -3.3281 H   0  0  0  0  0  0  0  0  0  0  0  0
   -0.1601   -1.2849   -3.1045 H   0  0  0  0  0  0  0  0  0  0  0  0
   -1.3074   -2.1646   -4.1319 H   0  0  0  0  0  0  0  0  0  0  0  0
   -0.2835   -1.5112   -0.2725 N   0  0  0  0  0  0  0  0  0  0  0  0
    0.0769   -0.7658    0.9424 C   0  0  0  0  0  0  0  0  0  0  0  0
    1.0020   -1.5996    1.7916 C   0  0  0  0  0  0  0  0  0  0  0  0
    2.0945   -2.0045    1.4033 O   0  0  0  0  0  0  0  0  0  0  0  0
    0.4587   -2.0097   -0.7289 H   0  0  0  0  0  0  0  0  0  0  0  0
   -0.8319   -0.5342    1.5058 H   0  0  0  0  0  0  0  0  0  0  0  0
    0.5739    0.1662    0.6578 H   0  0  0  0  0  0  0  0  0  0  0  0
    0.4602   -1.8462    3.0486 N   0  0  0  0  0  0  0  0  0  0  0  0
    1.1272   -2.6195    4.0627 C   0  0  2  0  0  0  0  0  0  0  0  0
    1.2804   -1.7423    5.2983 C   0  0  0  0  0  0  0  0  0  0  0  0
    1.2631   -0.5139    5.2552 O   0  0  0  0  0  0  0  0  0  0  0  0
    2.4801   -3.1174    3.5785 C   0  0  0  0  0  0  0  0  0  0  0  0
   -0.4573   -1.4589    3.2628 H   0  0  0  0  0  0  0  0  0  0  0  0
    0.4737   -3.4674    4.2949 H   0  0  0  0  0  0  0  0  0  0  0  0
    3.1487   -2.2818    3.3410 H   0  0  0  0  0  0  0  0  0  0  0  0
    2.9737   -3.7293    4.3407 H   0  0  0  0  0  0  0  0  0  0  0  0
    2.3709   -3.7235    2.6727 H   0  0  0  0  0  0  0  0  0  0  0  0
    1.4817   -2.4920    6.4488 N   0  0  0  0  0  0  0  0  0  0  0  0
    1.6672   -1.8905    7.7487 C   0  0  0  0  0  0  0  0  0  0  0  0
    1.4622   -3.5061    6.3943 H   0  0  0  0  0  0  0  0  0  0  0  0
    2.7415   -1.7497    7.9383 H   0  0  0  0  0  0  0  0  0  0  0  0
    1.1591   -0.9152    7.7772 H   0  0  0  0  0  0  0  0  0  0  0  0
    1.2418   -2.5482    8.5210 H   0  0  0  0  0  0  0  0  0  0  0  0
  1  3  1  0  0  0  0
  1  7  1  0  0  0  0
  1  2  2  0  0  0  0
 18 19  1  0  0  0  0
 19 24  1  0  0  0  0
 19 20  2  0  0  0  0
 25 26  1  0  0  0  0
 26 34  1  0  0  0  0
 26 27  2  0  0  0  0
  8  9  1  0  0  0  0
  9 17  1  0  0  0  0
  9 10  2  0  0  0  0
 25 28  1  0  0  0  0
  8 11  1  0  0  0  0
 34 35  1  0  0  0  0
 17 18  1  0  0  0  0
 24 25  1  0  0  0  0
  7  8  1  0  0  0  0
  3  4  1  0  0  0  0
  3  5  1  0  0  0  0
  3  6  1  0  0  0  0
 28 31  1  0  0  0  0
 28 32  1  0  0  0  0
 28 33  1  0  0  0  0
 11 14  1  0  0  0  0
 11 15  1  0  0  0  0
 11 16  1  0  0  0  0
 35 37  1  0  0  0  0
 35 38  1  0  0  0  0
 35 39  1  0  0  0  0
 18 22  1  0  0  0  0
 18 23  1  0  0  0  0
 25 30  1  0  0  0  0
  8 13  1  0  0  0  0
 34 36  1  0  0  0  0
 17 21  1  0  0  0  0
  7 12  1  0  0  0  0
 24 29  1  0  0  0  0
M  END
$$$$

  -OEChem-05262214473D

 39 38  0     1  0  0  0  0  0999 V2000
   -3.5200   -4.0268   -1.6943 C   0  0  0  0  0  0  0  0  0  0  0  0
   -2.8702   -4.8827   -1.1054 O   0  0  0  0  0  0  0  0  0  0  0  0
   -4.9704   -4.2579   -1.9614 C   0  0  0  0  0  0  0  0  0  0  0  0
   -5.1456   -4.7573   -2.9278 H   0  0  0  0  0  0  0  0  0  0  0  0
   -5.4379   -4.9112   -1.2072 H   0  0  0  0  0  0  0  0  0  0  0  0
   -5.5954   -3.3510   -1.9864 H   0  0  0  0  0  0  0  0  0  0  0  0
   -3.0424   -2.8131   -2.1606 N   0  0  0  0  0  0  0  0  0  0  0  0
   -1.6755   -2.3891   -2.0077 C   0  0  2  0  0  0  0  0  0  0  0  0
   -1.5782   -1.5673   -0.7292 C   0  0  0  0  0  0  0  0  0  0  0  0
   -2.5448   -1.0064   -0.2171 O   0  0  0  0  0  0  0  0  0  0  0  0
   -1.2087   -1.5823   -3.2094 C   0  0  0  0  0  0  0  0  0  0  0  0
   -3.6915   -2.1888   -2.6360 H   0  0  0  0  0  0  0  0  0  0  0  0
   -1.0721   -3.2977   -1.9053 H   0  0  0  0  0  0  0  0  0  0  0  0
   -1.8017   -0.6681   -3.3281 H   0  0  0  0  0  0  0  0  0  0  0  0
   -0.1601   -1.2849   -3.1045 H   0  0  0  0  0  0  0  0  0  0  0  0
   -1.3074   -2.1646   -4.1319 H   0  0  0  0  0  0  0  0  0  0  0  0
   -0.2835   -1.5112   -0.2725 N   0  0  0  0  0  0  0  0  0  0  0  0
    0.0769   -0.7658    0.9424 C   0  0  0  0  0  0  0  0  0  0  0  0
    1.0020   -1.5996    1.7916 C   0  0  0  0  0  0  0  0  0  0  0  0
    2.1860   -1.7825    1.5216 O   0  0  0  0  0  0  0  0  0  0  0  0
    0.4587   -2.0097   -0.7289 H   0  0  0  0  0  0  0  0  0  0  0  0
   -0.8319   -0.5342    1.5058 H   0  0  0  0  0  0  0  0  0  0  0  0
    0.5739    0.1662    0.6578 H   0  0  0  0  0  0  0  0  0  0  0  0
    0.3453   -2.1261    2.8989 N   0  0  0  0  0  0  0  0  0  0  0  0
    0.9866   -2.9634    3.8782 C   0  0  2  0  0  0  0  0  0  0  0  0
    0.8361   -2.2958    5.2387 C   0  0  0  0  0  0  0  0  0  0  0  0
    0.6316   -1.0915    5.3760 O   0  0  0  0  0  0  0  0  0  0  0  0
    2.4528   -3.1859    3.5410 C   0  0  0  0  0  0  0  0  0  0  0  0
   -0.6418   -1.9075    3.0233 H   0  0  0  0  0  0  0  0  0  0  0  0
    0.4499   -3.9184    3.8779 H   0  0  0  0  0  0  0  0  0  0  0  0
    3.0069   -2.2401    3.5365 H   0  0  0  0  0  0  0  0  0  0  0  0
    2.9321   -3.8462    4.2713 H   0  0  0  0  0  0  0  0  0  0  0  0
    2.5603   -3.6388    2.5495 H   0  0  0  0  0  0  0  0  0  0  0  0
    1.0000   -3.1957    6.2826 N   0  0  0  0  0  0  0  0  0  0  0  0
    0.9161   -2.8038    7.6701 C   0  0  0  0  0  0  0  0  0  0  0  0
    1.1477   -4.1791    6.0759 H   0  0  0  0  0  0  0  0  0  0  0  0
    1.9206   -2.5543    8.0426 H   0  0  0  0  0  0  0  0  0  0  0  0
    0.2616   -1.9246    7.7638 H   0  0  0  0  0  0  0  0  0  0  0  0
    0.5018   -3.6339    8.2611 H   0  0  0  0  0  0  0  0  0  0  0  0
  1  3  1  0  0  0  0
  1  7  1  0  0  0  0
  1  2  2  0  0  0  0
 18 19  1  0  0  0  0
 19 24  1  0  0  0  0
 19 20  2  0  0  0  0
 25 26  1  0  0  0  0
 26 34  1  0  0  0  0
 26 27  2  0  0  0  0
  8  9  1  0  0  0  0
  9 17  1  0  0  0  0
  9 10  2  0  0  0  0
 25 28  1  0  0  0  0
  8 11  1  0  0  0  0
 34 35  1  0  0  0  0
 17 18  1  0  0  0  0
 24 25  1  0  0  0  0
  7  8  1  0  0  0  0
  3  4  1  0  0  0  0
  3  5  1  0  0  0  0
  3  6  1  0  0  0  0
 28 31  1  0  0  0  0
 28 32  1  0  0  0  0
 28 33  1  0  0  0  0
 11 14  1  0  0  0  0
 11 15  1  0  0  0  0
 11 16  1  0  0  0  0
 35 37  1  0  0  0  0
 35 38  1  0  0  0  0
 35 39  1  0  0  0  0
 18 22  1  0  0  0  0
 18 23  1  0  0  0  0
 25 30  1  0  0  0  0
  8 13  1  0  0  0  0
 34 36  1  0  0  0  0
 17 21  1  0  0  0  0
  7 12  1  0  0  0  0
 24 29  1  0  0  0  0
M  END
$$$$

  -OEChem-05262214473D

 39 38  0     1  0  0  0  0  0999 V2000
   -3.5200   -4.0268   -1.6943 C   0  0  0  0  0  0  0  0  0  0  0  0
   -2.8702   -4.8827   -1.1054 O   0  0  0  0  0  0  0  0  0  0  0  0
   -4.9704   -4.2579   -1.9614 C   0  0  0  0  0  0  0  0  0  0  0  0
   -5.1456   -4.7573   -2.9278 H   0  0  0  0  0  0  0  0  0  0  0  0
   -5.4379   -4.9112   -1.2072 H   0  0  0  0  0  0  0  0  0  0  0  0
   -5.5954   -3.3510   -1.9864 H   0  0  0  0  0  0  0  0  0  0  0  0
   -3.0424   -2.8131   -2.1606 N   0  0  0  0  0  0  0  0  0  0  0  0
   -1.6755   -2.3891   -2.0077 C   0  0  2  0  0  0  0  0  0  0  0  0
   -1.5782   -1.5673   -0.7292 C   0  0  0  0  0  0  0  0  0  0  0  0
   -2.5448   -1.0064   -0.2171 O   0  0  0  0  0  0  0  0  0  0  0  0
   -1.2087   -1.5823   -3.2094 C   0  0  0  0  0  0  0  0  0  0  0  0
   -3.6915   -2.1888   -2.6360 H   0  0  0  0  0  0  0  0  0  0  0  0
   -1.0721   -3.2977   -1.9053 H   0  0  0  0  0  0  0  0  0  0  0  0
   -1.8017   -0.6681   -3.3281 H   0  0  0  0  0  0  0  0  0  0  0  0
   -0.1601   -1.2849   -3.1045 H   0  0  0  0  0  0  0  0  0  0  0  0
   -1.3074   -2.1646   -4.1319 H   0  0  0  0  0  0  0  0  0  0  0  0
   -0.2835   -1.5112   -0.2725 N   0  0  0  0  0  0  0  0  0  0  0  0
    0.0769   -0.7658    0.9424 C   0  0  0  0  0  0  0  0  0  0  0  0
    1.0020   -1.5996    1.7916 C   0  0  0  0  0  0  0  0  0  0  0  0
    2.2251   -1.5735    1.6843 O   0  0  0  0  0  0  0  0  0  0  0  0
    0.4587   -2.0097   -0.7289 H   0  0  0  0  0  0  0  0  0  0  0  0
   -0.8319   -0.5342    1.5058 H   0  0  0  0  0  0  0  0  0  0  0  0
    0.5739    0.1662    0.6578 H   0  0  0  0  0  0  0  0  0  0  0  0
    0.2966   -2.3894    2.6933 N   0  0  0  0  0  0  0  0  0  0  0  0
    0.9274   -3.2868    3.6251 C   0  0  2  0  0  0  0  0  0  0  0  0
    0.4963   -2.8858    5.0297 C   0  0  0  0  0  0  0  0  0  0  0  0
    0.0886   -1.7606    5.3106 O   0  0  0  0  0  0  0  0  0  0  0  0
    2.4417   -3.2500    3.4900 C   0  0  0  0  0  0  0  0  0  0  0  0
   -0.7203   -2.3296    2.6944 H   0  0  0  0  0  0  0  0  0  0  0  0
    0.5524   -4.2912    3.4002 H   0  0  0  0  0  0  0  0  0  0  0  0
    2.8358   -2.2515    3.7116 H   0  0  0  0  0  0  0  0  0  0  0  0
    2.9188   -3.9542    4.1797 H   0  0  0  0  0  0  0  0  0  0  0  0
    2.7485   -3.5098    2.4711 H   0  0  0  0  0  0  0  0  0  0  0  0
    0.6612   -3.9192    5.9412 N   0  0  0  0  0  0  0  0  0  0  0  0
    0.3350   -3.7830    7.3416 C   0  0  0  0  0  0  0  0  0  0  0  0
    0.9876   -4.8246    5.6165 H   0  0  0  0  0  0  0  0  0  0  0  0
    1.2300   -3.4677    7.8981 H   0  0  0  0  0  0  0  0  0  0  0  0
   -0.4562   -3.0284    7.4620 H   0  0  0  0  0  0  0  0  0  0  0  0
   -0.0175   -4.7493    7.7315 H   0  0  0  0  0  0  0  0  0  0  0  0
  1  3  1  0  0  0  0
  1  7  1  0  0  0  0
  1  2  2  0  0  0  0
 18 19  1  0  0  0  0
 19 24  1  0  0  0  0
 19 20  2  0  0  0  0
 25 26  1  0  0  0  0
 26 34  1  0  0  0  0
 26 27  2  0  0  0  0
  8  9  1  0  0  0  0
  9 17  1  0  0  0  0
  9 10  2  0  0  0  0
 25 28  1  0  0  0  0
  8 11  1  0  0  0  0
 34 35  1  0  0  0  0
 17 18  1  0  0  0  0
 24 25  1  0  0  0  0
  7  8  1  0  0  0  0
  3  4  1  0  0  0  0
  3  5  1  0  0  0  0
  3  6  1  0  0  0  0
 28 31  1  0  0  0  0
 28 32  1  0  0  0  0
 28 33  1  0  0  0  0
 11 14  1  0  0  0  0
 11 15  1  0  0  0  0
 11 16  1  0  0  0  0
 35 37  1  0  0  0  0
 35 38  1  0  0  0  0
 35 39  1  0  0  0  0
 18 22  1  0  0  0  0
 18 23  1  0  0  0  0
 25 30  1  0  0  0  0
  8 13  1  0  0  0  0
 34 36  1  0  0  0  0
 17 21  1  0  0  0  0
  7 12  1  0  0  0  0
 24 29  1  0  0  0  0
M  END
$$$$

  -OEChem-05262214473D

 39 38  0     1  0  0  0  0  0999 V2000
   -3.5200   -4.0268   -1.6943 C   0  0  0  0  0  0  0  0  0  0  0  0
   -2.8702   -4.8827   -1.1054 O   0  0  0  0  0  0  0  0  0  0  0  0
   -4.9704   -4.2579   -1.9614 C   0  0  0  0  0  0  0  0  0  0  0  0
   -5.1456   -4.7573   -2.9278 H   0  0  0  0  0  0  0  0  0  0  0  0
   -5.4379   -4.9112   -1.2072 H   0  0  0  0  0  0  0  0  0  0  0  0
   -5.5954   -3.3510   -1.9864 H   0  0  0  0  0  0  0  0  0  0  0  0
   -3.0424   -2.8131   -2.1606 N   0  0  0  0  0  0  0  0  0  0  0  0
   -1.6755   -2.3891   -2.0077 C   0  0  2  0  0  0  0  0  0  0  0  0
   -1.5782   -1.5673   -0.7292 C   0  0  0  0  0  0  0  0  0  0  0  0
   -2.5448   -1.0064   -0.2171 O   0  0  0  0  0  0  0  0  0  0  0  0
   -1.2087   -1.5823   -3.2094 C   0  0  0  0  0  0  0  0  0  0  0  0
   -3.6915   -2.1888   -2.6360 H   0  0  0  0  0  0  0  0  0  0  0  0
   -1.0721   -3.2977   -1.9053 H   0  0  0  0  0  0  0  0  0  0  0  0
   -1.8017   -0.6681   -3.3281 H   0  0  0  0  0  0  0  0  0  0  0  0
   -0.1601   -1.2849   -3.1045 H   0  0  0  0  0  0  0  0  0  0  0  0
   -1.3074   -2.1646   -4.1319 H   0  0  0  0  0  0  0  0  0  0  0  0
   -0.2835   -1.5112   -0.2725 N   0  0  0  0  0  0  0  0  0  0  0  0
    0.0769   -0.7658    0.9424 C   0  0  0  0  0  0  0  0  0  0  0  0
    1.0020   -1.5996    1.7916 C   0  0  0  0  0  0  0  0  0  0  0  0
    2.2092   -1.3917    1.8802 O   0  0  0  0  0  0  0  0  0  0  0  0
    0.4587   -2.0097   -0.7289 H   0  0  0  0  0  0  0  0  0  0  0  0
   -0.8319   -0.5342    1.5058 H   0  0  0  0  0  0  0  0  0  0  0  0
    0.5739    0.1662    0.6578 H   0  0  0  0  0  0  0  0  0  0  0  0
    0.3174   -2.6182    2.4460 N   0  0  0  0  0  0  0  0  0  0  0  0
    0.9536   -3.5676    3.3208 C   0  0  2  0  0  0  0  0  0  0  0  0
    0.2840   -3.4719    4.6854 C   0  0  0  0  0  0  0  0  0  0  0  0
   -0.3291   -2.4758    5.0633 O   0  0  0  0  0  0  0  0  0  0  0  0
    2.4477   -3.3056    3.4290 C   0  0  0  0  0  0  0  0  0  0  0  0
   -0.6874   -2.6965    2.2983 H   0  0  0  0  0  0  0  0  0  0  0  0
    0.7742   -4.5605    2.8941 H   0  0  0  0  0  0  0  0  0  0  0  0
    2.6472   -2.3153    3.8545 H   0  0  0  0  0  0  0  0  0  0  0  0
    2.9348   -4.0459    4.0722 H   0  0  0  0  0  0  0  0  0  0  0  0
    2.9228   -3.3453    2.4428 H   0  0  0  0  0  0  0  0  0  0  0  0
    0.4882   -4.6133    5.4481 N   0  0  0  0  0  0  0  0  0  0  0  0
   -0.0364   -4.7614    6.7856 C   0  0  0  0  0  0  0  0  0  0  0  0
    0.9929   -5.3984    5.0473 H   0  0  0  0  0  0  0  0  0  0  0  0
    0.7168   -4.4277    7.5145 H   0  0  0  0  0  0  0  0  0  0  0  0
   -0.9454   -4.1512    6.8924 H   0  0  0  0  0  0  0  0  0  0  0  0
   -0.2806   -5.8182    6.9686 H   0  0  0  0  0  0  0  0  0  0  0  0
  1  3  1  0  0  0  0
  1  7  1  0  0  0  0
  1  2  2  0  0  0  0
 18 19  1  0  0  0  0
 19 24  1  0  0  0  0
 19 20  2  0  0  0  0
 25 26  1  0  0  0  0
 26 34  1  0  0  0  0
 26 27  2  0  0  0  0
  8  9  1  0  0  0  0
  9 17  1  0  0  0  0
  9 10  2  0  0  0  0
 25 28  1  0  0  0  0
  8 11  1  0  0  0  0
 34 35  1  0  0  0  0
 17 18  1  0  0  0  0
 24 25  1  0  0  0  0
  7  8  1  0  0  0  0
  3  4  1  0  0  0  0
  3  5  1  0  0  0  0
  3  6  1  0  0  0  0
 28 31  1  0  0  0  0
 28 32  1  0  0  0  0
 28 33  1  0  0  0  0
 11 14  1  0  0  0  0
 11 15  1  0  0  0  0
 11 16  1  0  0  0  0
 35 37  1  0  0  0  0
 35 38  1  0  0  0  0
 35 39  1  0  0  0  0
 18 22  1  0  0  0  0
 18 23  1  0  0  0  0
 25 30  1  0  0  0  0
  8 13  1  0  0  0  0
 34 36  1  0  0  0  0
 17 21  1  0  0  0  0
  7 12  1  0  0  0  0
 24 29  1  0  0  0  0
M  END
$$$$

  -OEChem-05262214473D

 39 38  0     1  0  0  0  0  0999 V2000
   -3.5200   -4.0268   -1.6943 C   0  0  0  0  0  0  0  0  0  0  0  0
   -2.8702   -4.8827   -1.1054 O   0  0  0  0  0  0  0  0  0  0  0  0
   -4.9704   -4.2579   -1.9614 C   0  0  0  0  0  0  0  0  0  0  0  0
   -5.1456   -4.7573   -2.9278 H   0  0  0  0  0  0  0  0  0  0  0  0
   -5.4379   -4.9112   -1.2072 H   0  0  0  0  0  0  0  0  0  0  0  0
   -5.5954   -3.3510   -1.9864 H   0  0  0  0  0  0  0  0  0  0  0  0
   -3.0424   -2.8131   -2.1606 N   0  0  0  0  0  0  0  0  0  0  0  0
   -1.6755   -2.3891   -2.0077 C   0  0  2  0  0  0  0  0  0  0  0  0
   -1.5782   -1.5673   -0.7292 C   0  0  0  0  0  0  0  0  0  0  0  0
   -2.5448   -1.0064   -0.2171 O   0  0  0  0  0  0  0  0  0  0  0  0
   -1.2087   -1.5823   -3.2094 C   0  0  0  0  0  0  0  0  0  0  0  0
   -3.6915   -2.1888   -2.6360 H   0  0  0  0  0  0  0  0  0  0  0  0
   -1.0721   -3.2977   -1.9053 H   0  0  0  0  0  0  0  0  0  0  0  0
   -1.8017   -0.6681   -3.3281 H   0  0  0  0  0  0  0  0  0  0  0  0
   -0.1601   -1.2849   -3.1045 H   0  0  0  0  0  0  0  0  0  0  0  0
   -1.3074   -2.1646   -4.1319 H   0  0  0  0  0  0  0  0  0  0  0  0
   -0.2835   -1.5112   -0.2725 N   0  0  0  0  0  0  0  0  0  0  0  0
    0.0769   -0.7658    0.9424 C   0  0  0  0  0  0  0  0  0  0  0  0
    1.0020   -1.5996    1.7916 C   0  0  0  0  0  0  0  0  0  0  0  0
    2.1392   -1.2496    2.0960 O   0  0  0  0  0  0  0  0  0  0  0  0
    0.4587   -2.0097   -0.7289 H   0  0  0  0  0  0  0  0  0  0  0  0
   -0.8319   -0.5342    1.5058 H   0  0  0  0  0  0  0  0  0  0  0  0
    0.5739    0.1662    0.6578 H   0  0  0  0  0  0  0  0  0  0  0  0
    0.4063   -2.7969    2.1737 N   0  0  0  0  0  0  0  0  0  0  0  0
    1.0634   -3.7867    2.9861 C   0  0  2  0  0  0  0  0  0  0  0  0
    0.2137   -4.0144    4.2293 C   0  0  0  0  0  0  0  0  0  0  0  0
   -0.5928   -3.1881    4.6511 O   0  0  0  0  0  0  0  0  0  0  0  0
    2.4703   -3.3486    3.3621 C   0  0  0  0  0  0  0  0  0  0  0  0
   -0.5455   -2.9832    1.8622 H   0  0  0  0  0  0  0  0  0  0  0  0
    1.1001   -4.7079    2.3943 H   0  0  0  0  0  0  0  0  0  0  0  0
    2.4538   -2.4271    3.9554 H   0  0  0  0  0  0  0  0  0  0  0  0
    2.9791   -4.1150    3.9561 H   0  0  0  0  0  0  0  0  0  0  0  0
    3.0711   -3.1566    2.4666 H   0  0  0  0  0  0  0  0  0  0  0  0
    0.4930   -5.2306    4.8367 N   0  0  0  0  0  0  0  0  0  0  0  0
   -0.1730   -5.6723    6.0398 C   0  0  0  0  0  0  0  0  0  0  0  0
    1.1631   -5.8615    4.4071 H   0  0  0  0  0  0  0  0  0  0  0  0
    0.4159   -5.3689    6.9180 H   0  0  0  0  0  0  0  0  0  0  0  0
   -1.1727   -5.2166    6.0938 H   0  0  0  0  0  0  0  0  0  0  0  0
   -0.2697   -6.7679    6.0241 H   0  0  0  0  0  0  0  0  0  0  0  0
  1  3  1  0  0  0  0
  1  7  1  0  0  0  0
  1  2  2  0  0  0  0
 18 19  1  0  0  0  0
 19 24  1  0  0  0  0
 19 20  2  0  0  0  0
 25 26  1  0  0  0  0
 26 34  1  0  0  0  0
 26 27  2  0  0  0  0
  8  9  1  0  0  0  0
  9 17  1  0  0  0  0
  9 10  2  0  0  0  0
 25 28  1  0  0  0  0
  8 11  1  0  0  0  0
 34 35  1  0  0  0  0
 17 18  1  0  0  0  0
 24 25  1  0  0  0  0
  7  8  1  0  0  0  0
  3  4  1  0  0  0  0
  3  5  1  0  0  0  0
  3  6  1  0  0  0  0
 28 31  1  0  0  0  0
 28 32  1  0  0  0  0
 28 33  1  0  0  0  0
 11 14  1  0  0  0  0
 11 15  1  0  0  0  0
 11 16  1  0  0  0  0
 35 37  1  0  0  0  0
 35 38  1  0  0  0  0
 35 39  1  0  0  0  0
 18 22  1  0  0  0  0
 18 23  1  0  0  0  0
 25 30  1  0  0  0  0
  8 13  1  0  0  0  0
 34 36  1  0  0  0  0
 17 21  1  0  0  0  0
  7 12  1  0  0  0  0
 24 29  1  0  0  0  0
M  END
$$$$

  -OEChem-05262214473D

 39 38  0     1  0  0  0  0  0999 V2000
   -3.5200   -4.0268   -1.6943 C   0  0  0  0  0  0  0  0  0  0  0  0
   -2.8702   -4.8827   -1.1054 O   0  0  0  0  0  0  0  0  0  0  0  0
   -4.9704   -4.2579   -1.9614 C   0  0  0  0  0  0  0  0  0  0  0  0
   -5.1456   -4.7573   -2.9278 H   0  0  0  0  0  0  0  0  0  0  0  0
   -5.4379   -4.9112   -1.2072 H   0  0  0  0  0  0  0  0  0  0  0  0
   -5.5954   -3.3510   -1.9864 H   0  0  0  0  0  0  0  0  0  0  0  0
   -3.0424   -2.8131   -2.1606 N   0  0  0  0  0  0  0  0  0  0  0  0
   -1.6755   -2.3891   -2.0077 C   0  0  2  0  0  0  0  0  0  0  0  0
   -1.5782   -1.5673   -0.7292 C   0  0  0  0  0  0  0  0  0  0  0  0
   -2.5448   -1.0064   -0.2171 O   0  0  0  0  0  0  0  0  0  0  0  0
   -1.2087   -1.5823   -3.2094 C   0  0  0  0  0  0  0  0  0  0  0  0
   -3.6915   -2.1888   -2.6360 H   0  0  0  0  0  0  0  0  0  0  0  0
   -1.0721   -3.2977   -1.9053 H   0  0  0  0  0  0  0  0  0  0  0  0
   -1.8017   -0.6681   -3.3281 H   0  0  0  0  0  0  0  0  0  0  0  0
   -0.1601   -1.2849   -3.1045 H   0  0  0  0  0  0  0  0  0  0  0  0
   -1.3074   -2.1646   -4.1319 H   0  0  0  0  0  0  0  0  0  0  0  0
   -0.2835   -1.5112   -0.2725 N   0  0  0  0  0  0  0  0  0  0  0  0
    0.0769   -0.7658    0.9424 C   0  0  0  0  0  0  0  0  0  0  0  0
    1.0020   -1.5996    1.7916 C   0  0  0  0  0  0  0  0  0  0  0  0
    2.0199   -1.1568    2.3170 O   0  0  0  0  0  0  0  0  0  0  0  0
    0.4587   -2.0097   -0.7289 H   0  0  0  0  0  0  0  0  0  0  0  0
   -0.8319   -0.5342    1.5058 H   0  0  0  0  0  0  0  0  0  0  0  0
    0.5739    0.1662    0.6578 H   0  0  0  0  0  0  0  0  0  0  0  0
    0.5572   -2.9133    1.8951 N   0  0  0  0  0  0  0  0  0  0  0  0
    1.2494   -3.9291    2.6436 C   0  0  2  0  0  0  0  0  0  0  0  0
    0.2901   -4.4762    3.6925 C   0  0  0  0  0  0  0  0  0  0  0  0
   -0.6846   -3.8492    4.1020 O   0  0  0  0  0  0  0  0  0  0  0  0
    2.5080   -3.3763    3.2938 C   0  0  0  0  0  0  0  0  0  0  0  0
   -0.3042   -3.1701    1.4157 H   0  0  0  0  0  0  0  0  0  0  0  0
    1.5080   -4.7233    1.9348 H   0  0  0  0  0  0  0  0  0  0  0  0
    2.2689   -2.5793    4.0074 H   0  0  0  0  0  0  0  0  0  0  0  0
    3.0486   -4.1569    3.8392 H   0  0  0  0  0  0  0  0  0  0  0  0
    3.1835   -2.9564    2.5407 H   0  0  0  0  0  0  0  0  0  0  0  0
    0.6751   -5.7291    4.1488 N   0  0  0  0  0  0  0  0  0  0  0  0
   -0.0653   -6.4536    5.1553 C   0  0  0  0  0  0  0  0  0  0  0  0
    1.4867   -6.1823    3.7395 H   0  0  0  0  0  0  0  0  0  0  0  0
    0.3480   -6.2271    6.1493 H   0  0  0  0  0  0  0  0  0  0  0  0
   -1.1226   -6.1521    5.1206 H   0  0  0  0  0  0  0  0  0  0  0  0
    0.0145   -7.5336    4.9626 H   0  0  0  0  0  0  0  0  0  0  0  0
  1  3  1  0  0  0  0
  1  7  1  0  0  0  0
  1  2  2  0  0  0  0
 18 19  1  0  0  0  0
 19 24  1  0  0  0  0
 19 20  2  0  0  0  0
 25 26  1  0  0  0  0
 26 34  1  0  0  0  0
 26 27  2  0  0  0  0
  8  9  1  0  0  0  0
  9 17  1  0  0  0  0
  9 10  2  0  0  0  0
 25 28  1  0  0  0  0
  8 11  1  0  0  0  0
 34 35  1  0  0  0  0
 17 18  1  0  0  0  0
 24 25  1  0  0  0  0
  7  8  1  0  0  0  0
  3  4  1  0  0  0  0
  3  5  1  0  0  0  0
  3  6  1  0  0  0  0
 28 31  1  0  0  0  0
 28 32  1  0  0  0  0
 28 33  1  0  0  0  0
 11 14  1  0  0  0  0
 11 15  1  0  0  0  0
 11 16  1  0  0  0  0
 35 37  1  0  0  0  0
 35 38  1  0  0  0  0
 35 39  1  0  0  0  0
 18 22  1  0  0  0  0
 18 23  1  0  0  0  0
 25 30  1  0  0  0  0
  8 13  1  0  0  0  0
 34 36  1  0  0  0  0
 17 21  1  0  0  0  0
  7 12  1  0  0  0  0
 24 29  1  0  0  0  0
M  END
$$$$

  -OEChem-05262214473D

 39 38  0     1  0  0  0  0  0999 V2000
   -3.5200   -4.0268   -1.6943 C   0  0  0  0  0  0  0  0  0  0  0  0
   -2.8702   -4.8827   -1.1054 O   0  0  0  0  0  0  0  0  0  0  0  0
   -4.9704   -4.2579   -1.9614 C   0  0  0  0  0  0  0  0  0  0  0  0
   -5.1456   -4.7573   -2.9278 H   0  0  0  0  0  0  0  0  0  0  0  0
   -5.4379   -4.9112   -1.2072 H   0  0  0  0  0  0  0  0  0  0  0  0
   -5.5954   -3.3510   -1.9864 H   0  0  0  0  0  0  0  0  0  0  0  0
   -3.0424   -2.8131   -2.1606 N   0  0  0  0  0  0  0  0  0  0  0  0
   -1.6755   -2.3891   -2.0077 C   0  0  2  0  0  0  0  0  0  0  0  0
   -1.5782   -1.5673   -0.7292 C   0  0  0  0  0  0  0  0  0  0  0  0
   -2.5448   -1.0064   -0.2171 O   0  0  0  0  0  0  0  0  0  0  0  0
   -1.2087   -1.5823   -3.2094 C   0  0  0  0  0  0  0  0  0  0  0  0
   -3.6915   -2.1888   -2.6360 H   0  0  0  0  0  0  0  0  0  0  0  0
   -1.0721   -3.2977   -1.9053 H   0  0  0  0  0  0  0  0  0  0  0  0
   -1.8017   -0.6681   -3.3281 H   0  0  0  0  0  0  0  0  0  0  0  0
   -0.1601   -1.2849   -3.1045 H   0  0  0  0  0  0  0  0  0  0  0  0
   -1.3074   -2.1646   -4.1319 H   0  0  0  0  0  0  0  0  0  0  0  0
   -0.2835   -1.5112   -0.2725 N   0  0  0  0  0  0  0  0  0  0  0  0
    0.0769   -0.7658    0.9424 C   0  0  0  0  0  0  0  0  0  0  0  0
    1.0020   -1.5996    1.7916 C   0  0  0  0  0  0  0  0  0  0  0  0
    1.8596   -1.1197    2.5282 O   0  0  0  0  0  0  0  0  0  0  0  0
    0.4587   -2.0097   -0.7289 H   0  0  0  0  0  0  0  0  0  0  0  0
   -0.8319   -0.5342    1.5058 H   0  0  0  0  0  0  0  0  0  0  0  0
    0.5739    0.1662    0.6578 H   0  0  0  0  0  0  0  0  0  0  0  0
    0.7597   -2.9595    1.6290 N   0  0  0  0  0  0  0  0  0  0  0  0
    1.4988   -3.9852    2.3169 C   0  0  2  0  0  0  0  0  0  0  0  0
    0.5082   -4.8258    3.1116 C   0  0  0  0  0  0  0  0  0  0  0  0
   -0.5984   -4.4139    3.4535 O   0  0  0  0  0  0  0  0  0  0  0  0
    2.5583   -3.3867    3.2289 C   0  0  0  0  0  0  0  0  0  0  0  0
    0.0201   -3.2446    0.9892 H   0  0  0  0  0  0  0  0  0  0  0  0
    1.9700   -4.6058    1.5469 H   0  0  0  0  0  0  0  0  0  0  0  0
    2.1050   -2.7616    4.0069 H   0  0  0  0  0  0  0  0  0  0  0  0
    3.1385   -4.1687    3.7297 H   0  0  0  0  0  0  0  0  0  0  0  0
    3.2523   -2.7584    2.6602 H   0  0  0  0  0  0  0  0  0  0  0  0
    1.0222   -6.0748    3.4313 N   0  0  0  0  0  0  0  0  0  0  0  0
    0.2793   -7.0521    4.1922 C   0  0  0  0  0  0  0  0  0  0  0  0
    1.9417   -6.3390    3.0901 H   0  0  0  0  0  0  0  0  0  0  0  0
    0.5175   -6.9439    5.2607 H   0  0  0  0  0  0  0  0  0  0  0  0
   -0.7984   -6.8937    4.0392 H   0  0  0  0  0  0  0  0  0  0  0  0
    0.5527   -8.0632    3.8563 H   0  0  0  0  0  0  0  0  0  0  0  0
  1  3  1  0  0  0  0
  1  7  1  0  0  0  0
  1  2  2  0  0  0  0
 18 19  1  0  0  0  0
 19 24  1  0  0  0  0
 19 20  2  0  0  0  0
 25 26  1  0  0  0  0
 26 34  1  0  0  0  0
 26 27  2  0  0  0  0
  8  9  1  0  0  0  0
  9 17  1  0  0  0  0
  9 10  2  0  0  0  0
 25 28  1  0  0  0  0
  8 11  1  0  0  0  0
 34 35  1  0  0  0  0
 17 18  1  0  0  0  0
 24 25  1  0  0  0  0
  7  8  1  0  0  0  0
  3  4  1  0  0  0  0
  3  5  1  0  0  0  0
  3  6  1  0  0  0  0
 28 31  1  0  0  0  0
 28 32  1  0  0  0  0
 28 33  1  0  0  0  0
 11 14  1  0  0  0  0
 11 15  1  0  0  0  0
 11 16  1  0  0  0  0
 35 37  1  0  0  0  0
 35 38  1  0  0  0  0
 35 39  1  0  0  0  0
 18 22  1  0  0  0  0
 18 23  1  0  0  0  0
 25 30  1  0  0  0  0
  8 13  1  0  0  0  0
 34 36  1  0  0  0  0
 17 21  1  0  0  0  0
  7 12  1  0  0  0  0
 24 29  1  0  0  0  0
M  END
$$$$

  -OEChem-05262214473D

 39 38  0     1  0  0  0  0  0999 V2000
   -3.5200   -4.0268   -1.6943 C   0  0  0  0  0  0  0  0  0  0  0  0
   -2.8702   -4.8827   -1.1054 O   0  0  0  0  0  0  0  0  0  0  0  0
   -4.9704   -4.2579   -1.9614 C   0  0  0  0  0  0  0  0  0  0  0  0
   -5.1456   -4.7573   -2.9278 H   0  0  0  0  0  0  0  0  0  0  0  0
   -5.4379   -4.9112   -1.2072 H   0  0  0  0  0  0  0  0  0  0  0  0
   -5.5954   -3.3510   -1.9864 H   0  0  0  0  0  0  0  0  0  0  0  0
   -3.0424   -2.8131   -2.1606 N   0  0  0  0  0  0  0  0  0  0  0  0
   -1.6755   -2.3891   -2.0077 C   0  0  2  0  0  0  0  0  0  0  0  0
   -1.5782   -1.5673   -0.7292 C   0  0  0  0  0  0  0  0  0  0  0  0
   -2.5448   -1.0064   -0.2171 O   0  0  0  0  0  0  0  0  0  0  0  0
   -1.2087   -1.5823   -3.2094 C   0  0  0  0  0  0  0  0  0  0  0  0
   -3.6915   -2.1888   -2.6360 H   0  0  0  0  0  0  0  0  0  0  0  0
   -1.0721   -3.2977   -1.9053 H   0  0  0  0  0  0  0  0  0  0  0  0
   -1.8017   -0.6681   -3.3281 H   0  0  0  0  0  0  0  0  0  0  0  0
   -0.1601   -1.2849   -3.1045 H   0  0  0  0  0  0  0  0  0  0  0  0
   -1.3074   -2.1646   -4.1319 H   0  0  0  0  0  0  0  0  0  0  0  0
   -0.2835   -1.5112   -0.2725 N   0  0  0  0  0  0  0  0  0  0  0  0
    0.0769   -0.7658    0.9424 C   0  0  0  0  0  0  0  0  0  0  0  0
    1.0020   -1.5996    1.7916 C   0  0  0  0  0  0  0  0  0  0  0  0
    1.6691   -1.1407    2.7151 O   0  0  0  0  0  0  0  0  0  0  0  0
    0.4587   -2.0097   -0.7289 H   0  0  0  0  0  0  0  0  0  0  0  0
   -0.8319   -0.5342    1.5058 H   0  0  0  0  0  0  0  0  0  0  0  0
    0.5739    0.1662    0.6578 H   0  0  0  0  0  0  0  0  0  0  0  0
    1.0003   -2.9323    1.3937 N   0  0  0  0  0  0  0  0  0  0  0  0
    1.7946   -3.9511    2.0280 C   0  0  2  0  0  0  0  0  0  0  0  0
    0.8530   -5.0395    2.5262 C   0  0  0  0  0  0  0  0  0  0  0  0
   -0.3399   -4.8438    2.7497 O   0  0  0  0  0  0  0  0  0  0  0  0
    2.6176   -3.3790    3.1718 C   0  0  0  0  0  0  0  0  0  0  0  0
    0.4053   -3.2015    0.6119 H   0  0  0  0  0  0  0  0  0  0  0  0
    2.4547   -4.3633    1.2570 H   0  0  0  0  0  0  0  0  0  0  0  0
    1.9734   -2.9614    3.9541 H   0  0  0  0  0  0  0  0  0  0  0  0
    3.2428   -4.1496    3.6349 H   0  0  0  0  0  0  0  0  0  0  0  0
    3.2727   -2.5761    2.8170 H   0  0  0  0  0  0  0  0  0  0  0  0
    1.5105   -6.2441    2.7330 N   0  0  0  0  0  0  0  0  0  0  0  0
    0.8373   -7.4269    3.2163 C   0  0  0  0  0  0  0  0  0  0  0  0
    2.4970   -6.3208    2.5030 H   0  0  0  0  0  0  0  0  0  0  0  0
    0.9131   -7.4704    4.3128 H   0  0  0  0  0  0  0  0  0  0  0  0
   -0.2224   -7.3911    2.9232 H   0  0  0  0  0  0  0  0  0  0  0  0
    1.3081   -8.3205    2.7806 H   0  0  0  0  0  0  0  0  0  0  0  0
  1  3  1  0  0  0  0
  1  7  1  0  0  0  0
  1  2  2  0  0  0  0
 18 19  1  0  0  0  0
 19 24  1  0  0  0  0
 19 20  2  0  0  0  0
 25 26  1  0  0  0  0
 26 34  1  0  0  0  0
 26 27  2  0  0  0  0
  8  9  1  0  0  0  0
  9 17  1  0  0  0  0
  9 10  2  0  0  0  0
 25 28  1  0  0  0  0
  8 11  1  0  0  0  0
 34 35  1  0  0  0  0
 17 18  1  0  0  0  0
 24 25  1  0  0  0  0
  7  8  1  0  0  0  0
  3  4  1  0  0  0  0
  3  5  1  0  0  0  0
  3  6  1  0  0  0  0
 28 31  1  0  0  0  0
 28 32  1  0  0  0  0
 28 33  1  0  0  0  0
 11 14  1  0  0  0  0
 11 15  1  0  0  0  0
 11 16  1  0  0  0  0
 35 37  1  0  0  0  0
 35 38  1  0  0  0  0
 35 39  1  0  0  0  0
 18 22  1  0  0  0  0
 18 23  1  0  0  0  0
 25 30  1  0  0  0  0
  8 13  1  0  0  0  0
 34 36  1  0  0  0  0
 17 21  1  0  0  0  0
  7 12  1  0  0  0  0
 24 29  1  0  0  0  0
M  END
$$$$

  -OEChem-05262214473D

 39 38  0     1  0  0  0  0  0999 V2000
   -3.5200   -4.0268   -1.6943 C   0  0  0  0  0  0  0  0  0  0  0  0
   -2.8702   -4.8827   -1.1054 O   0  0  0  0  0  0  0  0  0  0  0  0
   -4.9704   -4.2579   -1.9614 C   0  0  0  0  0  0  0  0  0  0  0  0
   -5.1456   -4.7573   -2.9278 H   0  0  0  0  0  0  0  0  0  0  0  0
   -5.4379   -4.9112   -1.2072 H   0  0  0  0  0  0  0  0  0  0  0  0
   -5.5954   -3.3510   -1.9864 H   0  0  0  0  0  0  0  0  0  0  0  0
   -3.0424   -2.8131   -2.1606 N   0  0  0  0  0  0  0  0  0  0  0  0
   -1.6755   -2.3891   -2.0077 C   0  0  2  0  0  0  0  0  0  0  0  0
   -1.5782   -1.5673   -0.7292 C   0  0  0  0  0  0  0  0  0  0  0  0
   -2.5448   -1.0064   -0.2171 O   0  0  0  0  0  0  0  0  0  0  0  0
   -1.2087   -1.5823   -3.2094 C   0  0  0  0  0  0  0  0  0  0  0  0
   -3.6915   -2.1888   -2.6360 H   0  0  0  0  0  0  0  0  0  0  0  0
   -1.0721   -3.2977   -1.9053 H   0  0  0  0  0  0  0  0  0  0  0  0
   -1.8017   -0.6681   -3.3281 H   0  0  0  0  0  0  0  0  0  0  0  0
   -0.1601   -1.2849   -3.1045 H   0  0  0  0  0  0  0  0  0  0  0  0
   -1.3074   -2.1646   -4.1319 H   0  0  0  0  0  0  0  0  0  0  0  0
   -0.2835   -1.5112   -0.2725 N   0  0  0  0  0  0  0  0  0  0  0  0
    0.0769   -0.7658    0.9424 C   0  0  0  0  0  0  0  0  0  0  0  0
    1.0020   -1.5996    1.7916 C   0  0  0  0  0  0  0  0  0  0  0  0
    1.4613   -1.2185    2.8650 O   0  0  0  0  0  0  0  0  0  0  0  0
    0.4587   -2.0097   -0.7289 H   0  0  0  0  0  0  0  0  0  0  0  0
   -0.8319   -0.5342    1.5058 H   0  0  0  0  0  0  0  0  0  0  0  0
    0.5739    0.1662    0.6578 H   0  0  0  0  0  0  0  0  0  0  0  0
    1.2623   -2.8336    1.2052 N   0  0  0  0  0  0  0  0  0  0  0  0
    2.1168   -3.8292    1.7968 C   0  0  2  0  0  0  0  0  0  0  0  0
    1.3010   -5.1027    1.9762 C   0  0  0  0  0  0  0  0  0  0  0  0
    0.0733   -5.1096    2.0387 O   0  0  0  0  0  0  0  0  0  0  0  0
    2.6820   -3.3540    3.1263 C   0  0  0  0  0  0  0  0  0  0  0  0
    0.8250   -3.0438    0.3095 H   0  0  0  0  0  0  0  0  0  0  0  0
    2.9290   -4.0123    1.0849 H   0  0  0  0  0  0  0  0  0  0  0  0
    1.8829   -3.1653    3.8525 H   0  0  0  0  0  0  0  0  0  0  0  0
    3.3543   -4.1008    3.5613 H   0  0  0  0  0  0  0  0  0  0  0  0
    3.2434   -2.4219    3.0002 H   0  0  0  0  0  0  0  0  0  0  0  0
    2.1070   -6.2255    2.1015 N   0  0  0  0  0  0  0  0  0  0  0  0
    1.5706   -7.5527    2.2939 C   0  0  0  0  0  0  0  0  0  0  0  0
    3.1147   -6.1290    2.0184 H   0  0  0  0  0  0  0  0  0  0  0  0
    1.5076   -7.7708    3.3702 H   0  0  0  0  0  0  0  0  0  0  0  0
    0.5664   -7.6102    1.8488 H   0  0  0  0  0  0  0  0  0  0  0  0
    2.2294   -8.2881    1.8088 H   0  0  0  0  0  0  0  0  0  0  0  0
  1  3  1  0  0  0  0
  1  7  1  0  0  0  0
  1  2  2  0  0  0  0
 18 19  1  0  0  0  0
 19 24  1  0  0  0  0
 19 20  2  0  0  0  0
 25 26  1  0  0  0  0
 26 34  1  0  0  0  0
 26 27  2  0  0  0  0
  8  9  1  0  0  0  0
  9 17  1  0  0  0  0
  9 10  2  0  0  0  0
 25 28  1  0  0  0  0
  8 11  1  0  0  0  0
 34 35  1  0  0  0  0
 17 18  1  0  0  0  0
 24 25  1  0  0  0  0
  7  8  1  0  0  0  0
  3  4  1  0  0  0  0
  3  5  1  0  0  0  0
  3  6  1  0  0  0  0
 28 31  1  0  0  0  0
 28 32  1  0  0  0  0
 28 33  1  0  0  0  0
 11 14  1  0  0  0  0
 11 15  1  0  0  0  0
 11 16  1  0  0  0  0
 35 37  1  0  0  0  0
 35 38  1  0  0  0  0
 35 39  1  0  0  0  0
 18 22  1  0  0  0  0
 18 23  1  0  0  0  0
 25 30  1  0  0  0  0
  8 13  1  0  0  0  0
 34 36  1  0  0  0  0
 17 21  1  0  0  0  0
  7 12  1  0  0  0  0
 24 29  1  0  0  0  0
M  END
$$$$

  -OEChem-05262214473D

 39 38  0     1  0  0  0  0  0999 V2000
   -3.5200   -4.0268   -1.6943 C   0  0  0  0  0  0  0  0  0  0  0  0
   -2.8702   -4.8827   -1.1054 O   0  0  0  0  0  0  0  0  0  0  0  0
   -4.9704   -4.2579   -1.9614 C   0  0  0  0  0  0  0  0  0  0  0  0
   -5.1456   -4.7573   -2.9278 H   0  0  0  0  0  0  0  0  0  0  0  0
   -5.4379   -4.9112   -1.2072 H   0  0  0  0  0  0  0  0  0  0  0  0
   -5.5954   -3.3510   -1.9864 H   0  0  0  0  0  0  0  0  0  0  0  0
   -3.0424   -2.8131   -2.1606 N   0  0  0  0  0  0  0  0  0  0  0  0
   -1.6755   -2.3891   -2.0077 C   0  0  2  0  0  0  0  0  0  0  0  0
   -1.5782   -1.5673   -0.7292 C   0  0  0  0  0  0  0  0  0  0  0  0
   -2.5448   -1.0064   -0.2171 O   0  0  0  0  0  0  0  0  0  0  0  0
   -1.2087   -1.5823   -3.2094 C   0  0  0  0  0  0  0  0  0  0  0  0
   -3.6915   -2.1888   -2.6360 H   0  0  0  0  0  0  0  0  0  0  0  0
   -1.0721   -3.2977   -1.9053 H   0  0  0  0  0  0  0  0  0  0  0  0
   -1.8017   -0.6681   -3.3281 H   0  0  0  0  0  0  0  0  0  0  0  0
   -0.1601   -1.2849   -3.1045 H   0  0  0  0  0  0  0  0  0  0  0  0
   -1.3074   -2.1646   -4.1319 H   0  0  0  0  0  0  0  0  0  0  0  0
   -0.2835   -1.5112   -0.2725 N   0  0  0  0  0  0  0  0  0  0  0  0
    0.0769   -0.7658    0.9424 C   0  0  0  0  0  0  0  0  0  0  0  0
    1.0020   -1.5996    1.7916 C   0  0  0  0  0  0  0  0  0  0  0  0
    1.2506   -1.3477    2.9677 O   0  0  0  0  0  0  0  0  0  0  0  0
    0.4587   -2.0097   -0.7289 H   0  0  0  0  0  0  0  0  0  0  0  0
   -0.8319   -0.5342    1.5058 H   0  0  0  0  0  0  0  0  0  0  0  0
    0.5739    0.1662    0.6578 H   0  0  0  0  0  0  0  0  0  0  0  0
    1.5280   -2.6701    1.0762 N   0  0  0  0  0  0  0  0  0  0  0  0
    2.4433   -3.6277    1.6390 C   0  0  2  0  0  0  0  0  0  0  0  0
    1.8216   -5.0110    1.4990 C   0  0  0  0  0  0  0  0  0  0  0  0
    0.6129   -5.1931    1.3688 O   0  0  0  0  0  0  0  0  0  0  0  0
    2.7470   -3.3131    3.0955 C   0  0  0  0  0  0  0  0  0  0  0  0
    1.2508   -2.7823    0.1025 H   0  0  0  0  0  0  0  0  0  0  0  0
    3.3606   -3.5768    1.0423 H   0  0  0  0  0  0  0  0  0  0  0  0
    1.8398   -3.3592    3.7090 H   0  0  0  0  0  0  0  0  0  0  0  0
    3.4654   -4.0258    3.5139 H   0  0  0  0  0  0  0  0  0  0  0  0
    3.1664   -2.3064    3.1976 H   0  0  0  0  0  0  0  0  0  0  0  0
    2.7708   -6.0203    1.5798 N   0  0  0  0  0  0  0  0  0  0  0  0
    2.4294   -7.4207    1.4879 C   0  0  0  0  0  0  0  0  0  0  0  0
    3.7528   -5.7767    1.6691 H   0  0  0  0  0  0  0  0  0  0  0  0
    2.2606   -7.8245    2.4971 H   0  0  0  0  0  0  0  0  0  0  0  0
    1.5140   -7.5363    0.8890 H   0  0  0  0  0  0  0  0  0  0  0  0
    3.2536   -7.9681    1.0073 H   0  0  0  0  0  0  0  0  0  0  0  0
  1  3  1  0  0  0  0
  1  7  1  0  0  0  0
  1  2  2  0  0  0  0
 18 19  1  0  0  0  0
 19 24  1  0  0  0  0
 19 20  2  0  0  0  0
 25 26  1  0  0  0  0
 26 34  1  0  0  0  0
 26 27  2  0  0  0  0
  8  9  1  0  0  0  0
  9 17  1  0  0  0  0
  9 10  2  0  0  0  0
 25 28  1  0  0  0  0
  8 11  1  0  0  0  0
 34 35  1  0  0  0  0
 17 18  1  0  0  0  0
 24 25  1  0  0  0  0
  7  8  1  0  0  0  0
  3  4  1  0  0  0  0
  3  5  1  0  0  0  0
  3  6  1  0  0  0  0
 28 31  1  0  0  0  0
 28 32  1  0  0  0  0
 28 33  1  0  0  0  0
 11 14  1  0  0  0  0
 11 15  1  0  0  0  0
 11 16  1  0  0  0  0
 35 37  1  0  0  0  0
 35 38  1  0  0  0  0
 35 39  1  0  0  0  0
 18 22  1  0  0  0  0
 18 23  1  0  0  0  0
 25 30  1  0  0  0  0
  8 13  1  0  0  0  0
 34 36  1  0  0  0  0
 17 21  1  0  0  0  0
  7 12  1  0  0  0  0
 24 29  1  0  0  0  0
M  END
$$$$

  -OEChem-05262214473D

 39 38  0     1  0  0  0  0  0999 V2000
   -3.5200   -4.0268   -1.6943 C   0  0  0  0  0  0  0  0  0  0  0  0
   -2.8702   -4.8827   -1.1054 O   0  0  0  0  0  0  0  0  0  0  0  0
   -4.9704   -4.2579   -1.9614 C   0  0  0  0  0  0  0  0  0  0  0  0
   -5.1456   -4.7573   -2.9278 H   0  0  0  0  0  0  0  0  0  0  0  0
   -5.4379   -4.9112   -1.2072 H   0  0  0  0  0  0  0  0  0  0  0  0
   -5.5954   -3.3510   -1.9864 H   0  0  0  0  0  0  0  0  0  0  0  0
   -3.0424   -2.8131   -2.1606 N   0  0  0  0  0  0  0  0  0  0  0  0
   -1.6755   -2.3891   -2.0077 C   0  0  2  0  0  0  0  0  0  0  0  0
   -1.5782   -1.5673   -0.7292 C   0  0  0  0  0  0  0  0  0  0  0  0
   -2.5448   -1.0064   -0.2171 O   0  0  0  0  0  0  0  0  0  0  0  0
   -1.2087   -1.5823   -3.2094 C   0  0  0  0  0  0  0  0  0  0  0  0
   -3.6915   -2.1888   -2.6360 H   0  0  0  0  0  0  0  0  0  0  0  0
   -1.0721   -3.2977   -1.9053 H   0  0  0  0  0  0  0  0  0  0  0  0
   -1.8017   -0.6681   -3.3281 H   0  0  0  0  0  0  0  0  0  0  0  0
   -0.1601   -1.2849   -3.1045 H   0  0  0  0  0  0  0  0  0  0  0  0
   -1.3074   -2.1646   -4.1319 H   0  0  0  0  0  0  0  0  0  0  0  0
   -0.2835   -1.5112   -0.2725 N   0  0  0  0  0  0  0  0  0  0  0  0
    0.0769   -0.7658    0.9424 C   0  0  0  0  0  0  0  0  0  0  0  0
    1.0020   -1.5996    1.7916 C   0  0  0  0  0  0  0  0  0  0  0  0
    1.0511   -1.5196    3.0162 O   0  0  0  0  0  0  0  0  0  0  0  0
    0.4587   -2.0097   -0.7289 H   0  0  0  0  0  0  0  0  0  0  0  0
   -0.8319   -0.5342    1.5058 H   0  0  0  0  0  0  0  0  0  0  0  0
    0.5739    0.1662    0.6578 H   0  0  0  0  0  0  0  0  0  0  0  0
    1.7793   -2.4529    1.0157 N   0  0  0  0  0  0  0  0  0  0  0  0
    2.7519   -3.3604    1.5652 C   0  0  2  0  0  0  0  0  0  0  0  0
    2.3795   -4.7707    1.1272 C   0  0  0  0  0  0  0  0  0  0  0  0
    1.2423   -5.0887    0.7857 O   0  0  0  0  0  0  0  0  0  0  0  0
    2.8083   -3.2593    3.0816 C   0  0  0  0  0  0  0  0  0  0  0  0
    1.6536   -2.4347    0.0050 H   0  0  0  0  0  0  0  0  0  0  0  0
    3.7201   -3.0865    1.1322 H   0  0  0  0  0  0  0  0  0  0  0  0
    1.8470   -3.5300    3.5334 H   0  0  0  0  0  0  0  0  0  0  0  0
    3.5686   -3.9296    3.4959 H   0  0  0  0  0  0  0  0  0  0  0  0
    3.0470   -2.2374    3.3955 H   0  0  0  0  0  0  0  0  0  0  0  0
    3.4567   -5.6424    1.2036 N   0  0  0  0  0  0  0  0  0  0  0  0
    3.3551   -7.0399    0.8534 C   0  0  0  0  0  0  0  0  0  0  0  0
    4.3679   -5.2879    1.4791 H   0  0  0  0  0  0  0  0  0  0  0  0
    3.1208   -7.6279    1.7531 H   0  0  0  0  0  0  0  0  0  0  0  0
    2.5560   -7.1742    0.1094 H   0  0  0  0  0  0  0  0  0  0  0  0
    4.3111   -7.3823    0.4305 H   0  0  0  0  0  0  0  0  0  0  0  0
  1  3  1  0  0  0  0
  1  7  1  0  0  0  0
  1  2  2  0  0  0  0
 18 19  1  0  0  0  0
 19 24  1  0  0  0  0
 19 20  2  0  0  0  0
 25 26  1  0  0  0  0
 26 34  1  0  0  0  0
 26 27  2  0  0  0  0
  8  9  1  0  0  0  0
  9 17  1  0  0  0  0
  9 10  2  0  0  0  0
 25 28  1  0  0  0  0
  8 11  1  0  0  0  0
 34 35  1  0  0  0  0
 17 18  1  0  0  0  0
 24 25  1  0  0  0  0
  7  8  1  0  0  0  0
  3  4  1  0  0  0  0
  3  5  1  0  0  0  0
  3  6  1  0  0  0  0
 28 31  1  0  0  0  0
 28 32  1  0  0  0  0
 28 33  1  0  0  0  0
 11 14  1  0  0  0  0
 11 15  1  0  0  0  0
 11 16  1  0  0  0  0
 35 37  1  0  0  0  0
 35 38  1  0  0  0  0
 35 39  1  0  0  0  0
 18 22  1  0  0  0  0
 18 23  1  0  0  0  0
 25 30  1  0  0  0  0
  8 13  1  0  0  0  0
 34 36  1  0  0  0  0
 17 21  1  0  0  0  0
  7 12  1  0  0  0  0
 24 29  1  0  0  0  0
M  END
$$$$

  -OEChem-05262214473D

 39 38  0     1  0  0  0  0  0999 V2000
   -3.5200   -4.0268   -1.6943 C   0  0  0  0  0  0  0  0  0  0  0  0
   -2.8702   -4.8827   -1.1054 O   0  0  0  0  0  0  0  0  0  0  0  0
   -4.9704   -4.2579   -1.9614 C   0  0  0  0  0  0  0  0  0  0  0  0
   -5.1456   -4.7573   -2.9278 H   0  0  0  0  0  0  0  0  0  0  0  0
   -5.4379   -4.9112   -1.2072 H   0  0  0  0  0  0  0  0  0  0  0  0
   -5.5954   -3.3510   -1.9864 H   0  0  0  0  0  0  0  0  0  0  0  0
   -3.0424   -2.8131   -2.1606 N   0  0  0  0  0  0  0  0  0  0  0  0
   -1.6755   -2.3891   -2.0077 C   0  0  2  0  0  0  0  0  0  0  0  0
   -1.5782   -1.5673   -0.7292 C   0  0  0  0  0  0  0  0  0  0  0  0
   -2.5448   -1.0064   -0.2171 O   0  0  0  0  0  0  0  0  0  0  0  0
   -1.2087   -1.5823   -3.2094 C   0  0  0  0  0  0  0  0  0  0  0  0
   -3.6915   -2.1888   -2.6360 H   0  0  0  0  0  0  0  0  0  0  0  0
   -1.0721   -3.2977   -1.9053 H   0  0  0  0  0  0  0  0  0  0  0  0
   -1.8017   -0.6681   -3.3281 H   0  0  0  0  0  0  0  0  0  0  0  0
   -0.1601   -1.2849   -3.1045 H   0  0  0  0  0  0  0  0  0  0  0  0
   -1.3074   -2.1646   -4.1319 H   0  0  0  0  0  0  0  0  0  0  0  0
   -0.2835   -1.5112   -0.2725 N   0  0  0  0  0  0  0  0  0  0  0  0
    0.0769   -0.7658    0.9424 C   0  0  0  0  0  0  0  0  0  0  0  0
    1.0020   -1.5996    1.7916 C   0  0  0  0  0  0  0  0  0  0  0  0
    0.8766   -1.7224    3.0072 O   0  0  0  0  0  0  0  0  0  0  0  0
    0.4587   -2.0097   -0.7289 H   0  0  0  0  0  0  0  0  0  0  0  0
   -0.8319   -0.5342    1.5058 H   0  0  0  0  0  0  0  0  0  0  0  0
    0.5739    0.1662    0.6578 H   0  0  0  0  0  0  0  0  0  0  0  0
    1.9990   -2.1969    1.0278 N   0  0  0  0  0  0  0  0  0  0  0  0
    3.0216   -3.0455    1.5807 C   0  0  2  0  0  0  0  0  0  0  0  0
    2.9366   -4.3982    0.8861 C   0  0  0  0  0  0  0  0  0  0  0  0
    1.9184   -4.8035    0.3292 O   0  0  0  0  0  0  0  0  0  0  0  0
    2.8616   -3.1962    3.0855 C   0  0  0  0  0  0  0  0  0  0  0  0
    2.0059   -2.0247    0.0238 H   0  0  0  0  0  0  0  0  0  0  0  0
    3.9830   -2.5747    1.3483 H   0  0  0  0  0  0  0  0  0  0  0  0
    1.9040   -3.6661    3.3377 H   0  0  0  0  0  0  0  0  0  0  0  0
    3.6568   -3.8188    3.5086 H   0  0  0  0  0  0  0  0  0  0  0  0
    2.8932   -2.2196    3.5805 H   0  0  0  0  0  0  0  0  0  0  0  0
    4.1181   -5.1177    0.9984 N   0  0  0  0  0  0  0  0  0  0  0  0
    4.2845   -6.4364    0.4335 C   0  0  0  0  0  0  0  0  0  0  0  0
    4.9179   -4.6959    1.4612 H   0  0  0  0  0  0  0  0  0  0  0  0
    4.0295   -7.1944    1.1888 H   0  0  0  0  0  0  0  0  0  0  0  0
    3.6213   -6.5487   -0.4369 H   0  0  0  0  0  0  0  0  0  0  0  0
    5.3296   -6.5707    0.1178 H   0  0  0  0  0  0  0  0  0  0  0  0
  1  3  1  0  0  0  0
  1  7  1  0  0  0  0
  1  2  2  0  0  0  0
 18 19  1  0  0  0  0
 19 24  1  0  0  0  0
 19 20  2  0  0  0  0
 25 26  1  0  0  0  0
 26 34  1  0  0  0  0
 26 27  2  0  0  0  0
  8  9  1  0  0  0  0
  9 17  1  0  0  0  0
  9 10  2  0  0  0  0
 25 28  1  0  0  0  0
  8 11  1  0  0  0  0
 34 35  1  0  0  0  0
 17 18  1  0  0  0  0
 24 25  1  0  0  0  0
  7  8  1  0  0  0  0
  3  4  1  0  0  0  0
  3  5  1  0  0  0  0
  3  6  1  0  0  0  0
 28 31  1  0  0  0  0
 28 32  1  0  0  0  0
 28 33  1  0  0  0  0
 11 14  1  0  0  0  0
 11 15  1  0  0  0  0
 11 16  1  0  0  0  0
 35 37  1  0  0  0  0
 35 38  1  0  0  0  0
 35 39  1  0  0  0  0
 18 22  1  0  0  0  0
 18 23  1  0  0  0  0
 25 30  1  0  0  0  0
  8 13  1  0  0  0  0
 34 36  1  0  0  0  0
 17 21  1  0  0  0  0
  7 12  1  0  0  0  0
 24 29  1  0  0  0  0
M  END
$$$$

  -OEChem-05262214473D

 39 38  0     1  0  0  0  0  0999 V2000
   -3.5200   -4.0268   -1.6943 C   0  0  0  0  0  0  0  0  0  0  0  0
   -2.8702   -4.8827   -1.1054 O   0  0  0  0  0  0  0  0  0  0  0  0
   -4.9704   -4.2579   -1.9614 C   0  0  0  0  0  0  0  0  0  0  0  0
   -5.1456   -4.7573   -2.9278 H   0  0  0  0  0  0  0  0  0  0  0  0
   -5.4379   -4.9112   -1.2072 H   0  0  0  0  0  0  0  0  0  0  0  0
   -5.5954   -3.3510   -1.9864 H   0  0  0  0  0  0  0  0  0  0  0  0
   -3.0424   -2.8131   -2.1606 N   0  0  0  0  0  0  0  0  0  0  0  0
   -1.6755   -2.3891   -2.0077 C   0  0  2  0  0  0  0  0  0  0  0  0
   -1.5782   -1.5673   -0.7292 C   0  0  0  0  0  0  0  0  0  0  0  0
   -2.5448   -1.0064   -0.2171 O   0  0  0  0  0  0  0  0  0  0  0  0
   -1.2087   -1.5823   -3.2094 C   0  0  0  0  0  0  0  0  0  0  0  0
   -3.6915   -2.1888   -2.6360 H   0  0  0  0  0  0  0  0  0  0  0  0
   -1.0721   -3.2977   -1.9053 H   0  0  0  0  0  0  0  0  0  0  0  0
   -1.8017   -0.6681   -3.3281 H   0  0  0  0  0  0  0  0  0  0  0  0
   -0.1601   -1.2849   -3.1045 H   0  0  0  0  0  0  0  0  0  0  0  0
   -1.3074   -2.1646   -4.1319 H   0  0  0  0  0  0  0  0  0  0  0  0
   -0.2835   -1.5112   -0.2725 N   0  0  0  0  0  0  0  0  0  0  0  0
    0.0769   -0.7658    0.9424 C   0  0  0  0  0  0  0  0  0  0  0  0
    1.0020   -1.5996    1.7916 C   0  0  0  0  0  0  0  0  0  0  0  0
    0.7389   -1.9423    2.9413 O   0  0  0  0  0  0  0  0  0  0  0  0
    0.4587   -2.0097   -0.7289 H   0  0  0  0  0  0  0  0  0  0  0  0
   -0.8319   -0.5342    1.5058 H   0  0  0  0  0  0  0  0  0  0  0  0
    0.5739    0.1662    0.6578 H   0  0  0  0  0  0  0  0  0  0  0  0
    2.1722   -1.9195    1.1115 N   0  0  0  0  0  0  0  0  0  0  0  0
    3.2339   -2.7045    1.6842 C   0  0  2  0  0  0  0  0  0  0  0  0
    3.4549   -3.9188    0.7921 C   0  0  0  0  0  0  0  0  0  0  0  0
    2.5953   -4.3569    0.0303 O   0  0  0  0  0  0  0  0  0  0  0  0
    2.9034   -3.1281    3.1069 C   0  0  0  0  0  0  0  0  0  0  0  0
    2.2838   -1.5803    0.1575 H   0  0  0  0  0  0  0  0  0  0  0  0
    4.1314   -2.0764    1.6760 H   0  0  0  0  0  0  0  0  0  0  0  0
    2.0069   -3.7582    3.1352 H   0  0  0  0  0  0  0  0  0  0  0  0
    3.7241   -3.7009    3.5512 H   0  0  0  0  0  0  0  0  0  0  0  0
    2.7155   -2.2542    3.7401 H   0  0  0  0  0  0  0  0  0  0  0  0
    4.7097   -4.4818    0.9783 N   0  0  0  0  0  0  0  0  0  0  0  0
    5.1544   -5.6513    0.2568 C   0  0  0  0  0  0  0  0  0  0  0  0
    5.3654   -4.0411    1.6168 H   0  0  0  0  0  0  0  0  0  0  0  0
    4.9249   -6.5535    0.8427 H   0  0  0  0  0  0  0  0  0  0  0  0
    4.6373   -5.7024   -0.7128 H   0  0  0  0  0  0  0  0  0  0  0  0
    6.2400   -5.5886    0.0905 H   0  0  0  0  0  0  0  0  0  0  0  0
  1  3  1  0  0  0  0
  1  7  1  0  0  0  0
  1  2  2  0  0  0  0
 18 19  1  0  0  0  0
 19 24  1  0  0  0  0
 19 20  2  0  0  0  0
 25 26  1  0  0  0  0
 26 34  1  0  0  0  0
 26 27  2  0  0  0  0
  8  9  1  0  0  0  0
  9 17  1  0  0  0  0
  9 10  2  0  0  0  0
 25 28  1  0  0  0  0
  8 11  1  0  0  0  0
 34 35  1  0  0  0  0
 17 18  1  0  0  0  0
 24 25  1  0  0  0  0
  7  8  1  0  0  0  0
  3  4  1  0  0  0  0
  3  5  1  0  0  0  0
  3  6  1  0  0  0  0
 28 31  1  0  0  0  0
 28 32  1  0  0  0  0
 28 33  1  0  0  0  0
 11 14  1  0  0  0  0
 11 15  1  0  0  0  0
 11 16  1  0  0  0  0
 35 37  1  0  0  0  0
 35 38  1  0  0  0  0
 35 39  1  0  0  0  0
 18 22  1  0  0  0  0
 18 23  1  0  0  0  0
 25 30  1  0  0  0  0
  8 13  1  0  0  0  0
 34 36  1  0  0  0  0
 17 21  1  0  0  0  0
  7 12  1  0  0  0  0
 24 29  1  0  0  0  0
M  END
$$$$

  -OEChem-05262214473D

 39 38  0     1  0  0  0  0  0999 V2000
   -3.5200   -4.0268   -1.6943 C   0  0  0  0  0  0  0  0  0  0  0  0
   -2.8702   -4.8827   -1.1054 O   0  0  0  0  0  0  0  0  0  0  0  0
   -4.9704   -4.2579   -1.9614 C   0  0  0  0  0  0  0  0  0  0  0  0
   -5.1456   -4.7573   -2.9278 H   0  0  0  0  0  0  0  0  0  0  0  0
   -5.4379   -4.9112   -1.2072 H   0  0  0  0  0  0  0  0  0  0  0  0
   -5.5954   -3.3510   -1.9864 H   0  0  0  0  0  0  0  0  0  0  0  0
   -3.0424   -2.8131   -2.1606 N   0  0  0  0  0  0  0  0  0  0  0  0
   -1.6755   -2.3891   -2.0077 C   0  0  2  0  0  0  0  0  0  0  0  0
   -1.5782   -1.5673   -0.7292 C   0  0  0  0  0  0  0  0  0  0  0  0
   -2.5448   -1.0064   -0.2171 O   0  0  0  0  0  0  0  0  0  0  0  0
   -1.2087   -1.5823   -3.2094 C   0  0  0  0  0  0  0  0  0  0  0  0
   -3.6915   -2.1888   -2.6360 H   0  0  0  0  0  0  0  0  0  0  0  0
   -1.0721   -3.2977   -1.9053 H   0  0  0  0  0  0  0  0  0  0  0  0
   -1.8017   -0.6681   -3.3281 H   0  0  0  0  0  0  0  0  0  0  0  0
   -0.1601   -1.2849   -3.1045 H   0  0  0  0  0  0  0  0  0  0  0  0
   -1.3074   -2.1646   -4.1319 H   0  0  0  0  0  0  0  0  0  0  0  0
   -0.2835   -1.5112   -0.2725 N   0  0  0  0  0  0  0  0  0  0  0  0
    0.0769   -0.7658    0.9424 C   0  0  0  0  0  0  0  0  0  0  0  0
    1.0020   -1.5996    1.7916 C   0  0  0  0  0  0  0  0  0  0  0  0
    0.6473   -2.1644    2.8230 O   0  0  0  0  0  0  0  0  0  0  0  0
    0.4587   -2.0097   -0.7289 H   0  0  0  0  0  0  0  0  0  0  0  0
   -0.8319   -0.5342    1.5058 H   0  0  0  0  0  0  0  0  0  0  0  0
    0.5739    0.1662    0.6578 H   0  0  0  0  0  0  0  0  0  0  0  0
    2.2871   -1.6396    1.2612 N   0  0  0  0  0  0  0  0  0  0  0  0
    3.3745   -2.3605    1.8688 C   0  0  2  0  0  0  0  0  0  0  0  0
    3.8991   -3.3654    0.8517 C   0  0  0  0  0  0  0  0  0  0  0  0
    3.2268   -3.7793   -0.0905 O   0  0  0  0  0  0  0  0  0  0  0  0
    2.9307   -3.0596    3.1444 C   0  0  0  0  0  0  0  0  0  0  0  0
    2.4682   -1.1318    0.3970 H   0  0  0  0  0  0  0  0  0  0  0  0
    4.1552   -1.6254    2.0930 H   0  0  0  0  0  0  0  0  0  0  0  0
    2.1487   -3.7999    2.9397 H   0  0  0  0  0  0  0  0  0  0  0  0
    3.7657   -3.5840    3.6206 H   0  0  0  0  0  0  0  0  0  0  0  0
    2.5261   -2.3389    3.8632 H   0  0  0  0  0  0  0  0  0  0  0  0
    5.1914   -3.7781    1.1445 N   0  0  0  0  0  0  0  0  0  0  0  0
    5.9055   -4.7380    0.3354 C   0  0  0  0  0  0  0  0  0  0  0  0
    5.6799   -3.3680    1.9351 H   0  0  0  0  0  0  0  0  0  0  0  0
    5.7458   -5.7490    0.7384 H   0  0  0  0  0  0  0  0  0  0  0  0
    5.5348   -4.6930   -0.6993 H   0  0  0  0  0  0  0  0  0  0  0  0
    6.9800   -4.5029    0.3505 H   0  0  0  0  0  0  0  0  0  0  0  0
  1  3  1  0  0  0  0
  1  7  1  0  0  0  0
  1  2  2  0  0  0  0
 18 19  1  0  0  0  0
 19 24  1  0  0  0  0
 19 20  2  0  0  0  0
 25 26  1  0  0  0  0
 26 34  1  0  0  0  0
 26 27  2  0  0  0  0
  8  9  1  0  0  0  0
  9 17  1  0  0  0  0
  9 10  2  0  0  0  0
 25 28  1  0  0  0  0
  8 11  1  0  0  0  0
 34 35  1  0  0  0  0
 17 18  1  0  0  0  0
 24 25  1  0  0  0  0
  7  8  1  0  0  0  0
  3  4  1  0  0  0  0
  3  5  1  0  0  0  0
  3  6  1  0  0  0  0
 28 31  1  0  0  0  0
 28 32  1  0  0  0  0
 28 33  1  0  0  0  0
 11 14  1  0  0  0  0
 11 15  1  0  0  0  0
 11 16  1  0  0  0  0
 35 37  1  0  0  0  0
 35 38  1  0  0  0  0
 35 39  1  0  0  0  0
 18 22  1  0  0  0  0
 18 23  1  0  0  0  0
 25 30  1  0  0  0  0
  8 13  1  0  0  0  0
 34 36  1  0  0  0  0
 17 21  1  0  0  0  0
  7 12  1  0  0  0  0
 24 29  1  0  0  0  0
M  END
$$$$

  -OEChem-05262214473D

 39 38  0     1  0  0  0  0  0999 V2000
   -3.5200   -4.0268   -1.6943 C   0  0  0  0  0  0  0  0  0  0  0  0
   -2.8702   -4.8827   -1.1054 O   0  0  0  0  0  0  0  0  0  0  0  0
   -4.9704   -4.2579   -1.9614 C   0  0  0  0  0  0  0  0  0  0  0  0
   -5.1456   -4.7573   -2.9278 H   0  0  0  0  0  0  0  0  0  0  0  0
   -5.4379   -4.9112   -1.2072 H   0  0  0  0  0  0  0  0  0  0  0  0
   -5.5954   -3.3510   -1.9864 H   0  0  0  0  0  0  0  0  0  0  0  0
   -3.0424   -2.8131   -2.1606 N   0  0  0  0  0  0  0  0  0  0  0  0
   -1.6755   -2.3891   -2.0077 C   0  0  2  0  0  0  0  0  0  0  0  0
   -1.5782   -1.5673   -0.7292 C   0  0  0  0  0  0  0  0  0  0  0  0
   -2.5448   -1.0064   -0.2171 O   0  0  0  0  0  0  0  0  0  0  0  0
   -1.2087   -1.5823   -3.2094 C   0  0  0  0  0  0  0  0  0  0  0  0
   -3.6915   -2.1888   -2.6360 H   0  0  0  0  0  0  0  0  0  0  0  0
   -1.0721   -3.2977   -1.9053 H   0  0  0  0  0  0  0  0  0  0  0  0
   -1.8017   -0.6681   -3.3281 H   0  0  0  0  0  0  0  0  0  0  0  0
   -0.1601   -1.2849   -3.1045 H   0  0  0  0  0  0  0  0  0  0  0  0
   -1.3074   -2.1646   -4.1319 H   0  0  0  0  0  0  0  0  0  0  0  0
   -0.2835   -1.5112   -0.2725 N   0  0  0  0  0  0  0  0  0  0  0  0
    0.0769   -0.7658    0.9424 C   0  0  0  0  0  0  0  0  0  0  0  0
    1.0020   -1.5996    1.7916 C   0  0  0  0  0  0  0  0  0  0  0  0
    0.6082   -2.3734    2.6603 O   0  0  0  0  0  0  0  0  0  0  0  0
    0.4587   -2.0097   -0.7289 H   0  0  0  0  0  0  0  0  0  0  0  0
   -0.8319   -0.5342    1.5058 H   0  0  0  0  0  0  0  0  0  0  0  0
    0.5739    0.1662    0.6578 H   0  0  0  0  0  0  0  0  0  0  0  0
    2.3358   -1.3763    1.4668 N   0  0  0  0  0  0  0  0  0  0  0  0
    3.4337   -2.0371    2.1219 C   0  0  2  0  0  0  0  0  0  0  0  0
    4.2390   -2.7754    1.0607 C   0  0  0  0  0  0  0  0  0  0  0  0
    3.7699   -3.1102   -0.0250 O   0  0  0  0  0  0  0  0  0  0  0  0
    2.9417   -2.9954    3.1954 C   0  0  0  0  0  0  0  0  0  0  0  0
    2.5467   -0.7097    0.7259 H   0  0  0  0  0  0  0  0  0  0  0  0
    4.0526   -1.2526    2.5707 H   0  0  0  0  0  0  0  0  0  0  0  0
    2.3197   -3.7885    2.7646 H   0  0  0  0  0  0  0  0  0  0  0  0
    3.7790   -3.4760    3.7122 H   0  0  0  0  0  0  0  0  0  0  0  0
    2.3379   -2.4679    3.9416 H   0  0  0  0  0  0  0  0  0  0  0  0
    5.5303   -3.0545    1.4859 N   0  0  0  0  0  0  0  0  0  0  0  0
    6.4866   -3.7587    0.6639 C   0  0  0  0  0  0  0  0  0  0  0  0
    5.8400   -2.7225    2.3945 H   0  0  0  0  0  0  0  0  0  0  0  0
    6.4364   -4.8356    0.8829 H   0  0  0  0  0  0  0  0  0  0  0  0
    6.2526   -3.5893   -0.3975 H   0  0  0  0  0  0  0  0  0  0  0  0
    7.4992   -3.3875    0.8800 H   0  0  0  0  0  0  0  0  0  0  0  0
  1  3  1  0  0  0  0
  1  7  1  0  0  0  0
  1  2  2  0  0  0  0
 18 19  1  0  0  0  0
 19 24  1  0  0  0  0
 19 20  2  0  0  0  0
 25 26  1  0  0  0  0
 26 34  1  0  0  0  0
 26 27  2  0  0  0  0
  8  9  1  0  0  0  0
  9 17  1  0  0  0  0
  9 10  2  0  0  0  0
 25 28  1  0  0  0  0
  8 11  1  0  0  0  0
 34 35  1  0  0  0  0
 17 18  1  0  0  0  0
 24 25  1  0  0  0  0
  7  8  1  0  0  0  0
  3  4  1  0  0  0  0
  3  5  1  0  0  0  0
  3  6  1  0  0  0  0
 28 31  1  0  0  0  0
 28 32  1  0  0  0  0
 28 33  1  0  0  0  0
 11 14  1  0  0  0  0
 11 15  1  0  0  0  0
 11 16  1  0  0  0  0
 35 37  1  0  0  0  0
 35 38  1  0  0  0  0
 35 39  1  0  0  0  0
 18 22  1  0  0  0  0
 18 23  1  0  0  0  0
 25 30  1  0  0  0  0
  8 13  1  0  0  0  0
 34 36  1  0  0  0  0
 17 21  1  0  0  0  0
  7 12  1  0  0  0  0
 24 29  1  0  0  0  0
M  END
$$$$

  -OEChem-05262214473D

 39 38  0     1  0  0  0  0  0999 V2000
   -3.5200   -4.0268   -1.6943 C   0  0  0  0  0  0  0  0  0  0  0  0
   -2.8702   -4.8827   -1.1054 O   0  0  0  0  0  0  0  0  0  0  0  0
   -4.9704   -4.2579   -1.9614 C   0  0  0  0  0  0  0  0  0  0  0  0
   -5.1456   -4.7573   -2.9278 H   0  0  0  0  0  0  0  0  0  0  0  0
   -5.4379   -4.9112   -1.2072 H   0  0  0  0  0  0  0  0  0  0  0  0
   -5.5954   -3.3510   -1.9864 H   0  0  0  0  0  0  0  0  0  0  0  0
   -3.0424   -2.8131   -2.1606 N   0  0  0  0  0  0  0  0  0  0  0  0
   -1.6755   -2.3891   -2.0077 C   0  0  2  0  0  0  0  0  0  0  0  0
   -1.5782   -1.5673   -0.7292 C   0  0  0  0  0  0  0  0  0  0  0  0
   -2.5448   -1.0064   -0.2171 O   0  0  0  0  0  0  0  0  0  0  0  0
   -1.2087   -1.5823   -3.2094 C   0  0  0  0  0  0  0  0  0  0  0  0
   -3.6915   -2.1888   -2.6360 H   0  0  0  0  0  0  0  0  0  0  0  0
   -1.0721   -3.2977   -1.9053 H   0  0  0  0  0  0  0  0  0  0  0  0
   -1.8017   -0.6681   -3.3281 H   0  0  0  0  0  0  0  0  0  0  0  0
   -0.1601   -1.2849   -3.1045 H   0  0  0  0  0  0  0  0  0  0  0  0
   -1.3074   -2.1646   -4.1319 H   0  0  0  0  0  0  0  0  0  0  0  0
   -0.2835   -1.5112   -0.2725 N   0  0  0  0  0  0  0  0  0  0  0  0
    0.0769   -0.7658    0.9424 C   0  0  0  0  0  0  0  0  0  0  0  0
    1.0020   -1.5996    1.7916 C   0  0  0  0  0  0  0  0  0  0  0  0
    0.6242   -2.5551    2.4644 O   0  0  0  0  0  0  0  0  0  0  0  0
    0.4587   -2.0097   -0.7289 H   0  0  0  0  0  0  0  0  0  0  0  0
   -0.8319   -0.5342    1.5058 H   0  0  0  0  0  0  0  0  0  0  0  0
    0.5739    0.1662    0.6578 H   0  0  0  0  0  0  0  0  0  0  0  0
    2.3150   -1.1475    1.7141 N   0  0  0  0  0  0  0  0  0  0  0  0
    3.4075   -1.7563    2.4262 C   0  0  2  0  0  0  0  0  0  0  0  0
    4.4513   -2.1892    1.4051 C   0  0  0  0  0  0  0  0  0  0  0  0
    4.1875   -2.3951    0.2222 O   0  0  0  0  0  0  0  0  0  0  0  0
    2.9357   -2.9399    3.2564 C   0  0  0  0  0  0  0  0  0  0  0  0
    2.5139   -0.3428    1.1220 H   0  0  0  0  0  0  0  0  0  0  0  0
    3.8309   -0.9833    3.0768 H   0  0  0  0  0  0  0  0  0  0  0  0
    2.5084   -3.7247    2.6217 H   0  0  0  0  0  0  0  0  0  0  0  0
    3.7629   -3.3843    3.8197 H   0  0  0  0  0  0  0  0  0  0  0  0
    2.1637   -2.6324    3.9699 H   0  0  0  0  0  0  0  0  0  0  0  0
    5.7032   -2.3605    1.9790 N   0  0  0  0  0  0  0  0  0  0  0  0
    6.8580   -2.7804    1.2200 C   0  0  0  0  0  0  0  0  0  0  0  0
    5.8347   -2.1487    2.9637 H   0  0  0  0  0  0  0  0  0  0  0  0
    6.9496   -3.8755    1.2665 H   0  0  0  0  0  0  0  0  0  0  0  0
    6.7419   -2.4665    0.1721 H   0  0  0  0  0  0  0  0  0  0  0  0
    7.7624   -2.3186    1.6429 H   0  0  0  0  0  0  0  0  0  0  0  0
  1  3  1  0  0  0  0
  1  7  1  0  0  0  0
  1  2  2  0  0  0  0
 18 19  1  0  0  0  0
 19 24  1  0  0  0  0
 19 20  2  0  0  0  0
 25 26  1  0  0  0  0
 26 34  1  0  0  0  0
 26 27  2  0  0  0  0
  8  9  1  0  0  0  0
  9 17  1  0  0  0  0
  9 10  2  0  0  0  0
 25 28  1  0  0  0  0
  8 11  1  0  0  0  0
 34 35  1  0  0  0  0
 17 18  1  0  0  0  0
 24 25  1  0  0  0  0
  7  8  1  0  0  0  0
  3  4  1  0  0  0  0
  3  5  1  0  0  0  0
  3  6  1  0  0  0  0
 28 31  1  0  0  0  0
 28 32  1  0  0  0  0
 28 33  1  0  0  0  0
 11 14  1  0  0  0  0
 11 15  1  0  0  0  0
 11 16  1  0  0  0  0
 35 37  1  0  0  0  0
 35 38  1  0  0  0  0
 35 39  1  0  0  0  0
 18 22  1  0  0  0  0
 18 23  1  0  0  0  0
 25 30  1  0  0  0  0
  8 13  1  0  0  0  0
 34 36  1  0  0  0  0
 17 21  1  0  0  0  0
  7 12  1  0  0  0  0
 24 29  1  0  0  0  0
M  END
$$$$

  -OEChem-05262214473D

 39 38  0     1  0  0  0  0  0999 V2000
   -3.5200   -4.0268   -1.6943 C   0  0  0  0  0  0  0  0  0  0  0  0
   -2.8702   -4.8827   -1.1054 O   0  0  0  0  0  0  0  0  0  0  0  0
   -4.9704   -4.2579   -1.9614 C   0  0  0  0  0  0  0  0  0  0  0  0
   -5.1456   -4.7573   -2.9278 H   0  0  0  0  0  0  0  0  0  0  0  0
   -5.4379   -4.9112   -1.2072 H   0  0  0  0  0  0  0  0  0  0  0  0
   -5.5954   -3.3510   -1.9864 H   0  0  0  0  0  0  0  0  0  0  0  0
   -3.0424   -2.8131   -2.1606 N   0  0  0  0  0  0  0  0  0  0  0  0
   -1.6755   -2.3891   -2.0077 C   0  0  2  0  0  0  0  0  0  0  0  0
   -1.5782   -1.5673   -0.7292 C   0  0  0  0  0  0  0  0  0  0  0  0
   -2.5448   -1.0064   -0.2171 O   0  0  0  0  0  0  0  0  0  0  0  0
   -1.2087   -1.5823   -3.2094 C   0  0  0  0  0  0  0  0  0  0  0  0
   -3.6915   -2.1888   -2.6360 H   0  0  0  0  0  0  0  0  0  0  0  0
   -1.0721   -3.2977   -1.9053 H   0  0  0  0  0  0  0  0  0  0  0  0
   -1.8017   -0.6681   -3.3281 H   0  0  0  0  0  0  0  0  0  0  0  0
   -0.1601   -1.2849   -3.1045 H   0  0  0  0  0  0  0  0  0  0  0  0
   -1.3074   -2.1646   -4.1319 H   0  0  0  0  0  0  0  0  0  0  0  0
   -0.2835   -1.5112   -0.2725 N   0  0  0  0  0  0  0  0  0  0  0  0
    0.0769   -0.7658    0.9424 C   0  0  0  0  0  0  0  0  0  0  0  0
    1.0020   -1.5996    1.7916 C   0  0  0  0  0  0  0  0  0  0  0  0
    0.6942   -2.6973    2.2486 O   0  0  0  0  0  0  0  0  0  0  0  0
    0.4587   -2.0097   -0.7289 H   0  0  0  0  0  0  0  0  0  0  0  0
   -0.8319   -0.5342    1.5058 H   0  0  0  0  0  0  0  0  0  0  0  0
    0.5739    0.1662    0.6578 H   0  0  0  0  0  0  0  0  0  0  0  0
    2.2261   -0.9688    1.9864 N   0  0  0  0  0  0  0  0  0  0  0  0
    3.2977   -1.5372    2.7609 C   0  0  2  0  0  0  0  0  0  0  0  0
    4.5216   -1.6468    1.8611 C   0  0  0  0  0  0  0  0  0  0  0  0
    4.4512   -1.6827    0.6344 O   0  0  0  0  0  0  0  0  0  0  0  0
    2.9131   -2.8968    3.3233 C   0  0  0  0  0  0  0  0  0  0  0  0
    2.3719   -0.0561    1.5581 H   0  0  0  0  0  0  0  0  0  0  0  0
    3.5049   -0.8360    3.5766 H   0  0  0  0  0  0  0  0  0  0  0  0
    2.7018   -3.6129    2.5208 H   0  0  0  0  0  0  0  0  0  0  0  0
    3.7187   -3.3151    3.9358 H   0  0  0  0  0  0  0  0  0  0  0  0
    2.0153   -2.8211    3.9462 H   0  0  0  0  0  0  0  0  0  0  0  0
    5.6985   -1.7431    2.5903 N   0  0  0  0  0  0  0  0  0  0  0  0
    6.9946   -1.8695    1.9657 C   0  0  0  0  0  0  0  0  0  0  0  0
    5.6645   -1.6856    3.6039 H   0  0  0  0  0  0  0  0  0  0  0  0
    7.2505   -2.9344    1.8630 H   0  0  0  0  0  0  0  0  0  0  0  0
    6.9692   -1.4010    0.9707 H   0  0  0  0  0  0  0  0  0  0  0  0
    7.7515   -1.3689    2.5874 H   0  0  0  0  0  0  0  0  0  0  0  0
  1  3  1  0  0  0  0
  1  7  1  0  0  0  0
  1  2  2  0  0  0  0
 18 19  1  0  0  0  0
 19 24  1  0  0  0  0
 19 20  2  0  0  0  0
 25 26  1  0  0  0  0
 26 34  1  0  0  0  0
 26 27  2  0  0  0  0
  8  9  1  0  0  0  0
  9 17  1  0  0  0  0
  9 10  2  0  0  0  0
 25 28  1  0  0  0  0
  8 11  1  0  0  0  0
 34 35  1  0  0  0  0
 17 18  1  0  0  0  0
 24 25  1  0  0  0  0
  7  8  1  0  0  0  0
  3  4  1  0  0  0  0
  3  5  1  0  0  0  0
  3  6  1  0  0  0  0
 28 31  1  0  0  0  0
 28 32  1  0  0  0  0
 28 33  1  0  0  0  0
 11 14  1  0  0  0  0
 11 15  1  0  0  0  0
 11 16  1  0  0  0  0
 35 37  1  0  0  0  0
 35 38  1  0  0  0  0
 35 39  1  0  0  0  0
 18 22  1  0  0  0  0
 18 23  1  0  0  0  0
 25 30  1  0  0  0  0
  8 13  1  0  0  0  0
 34 36  1  0  0  0  0
 17 21  1  0  0  0  0
  7 12  1  0  0  0  0
 24 29  1  0  0  0  0
M  END
$$$$

  -OEChem-05262214473D

 39 38  0     1  0  0  0  0  0999 V2000
   -3.5200   -4.0268   -1.6943 C   0  0  0  0  0  0  0  0  0  0  0  0
   -2.8702   -4.8827   -1.1054 O   0  0  0  0  0  0  0  0  0  0  0  0
   -4.9704   -4.2579   -1.9614 C   0  0  0  0  0  0  0  0  0  0  0  0
   -5.1456   -4.7573   -2.9278 H   0  0  0  0  0  0  0  0  0  0  0  0
   -5.4379   -4.9112   -1.2072 H   0  0  0  0  0  0  0  0  0  0  0  0
   -5.5954   -3.3510   -1.9864 H   0  0  0  0  0  0  0  0  0  0  0  0
   -3.0424   -2.8131   -2.1606 N   0  0  0  0  0  0  0  0  0  0  0  0
   -1.6755   -2.3891   -2.0077 C   0  0  2  0  0  0  0  0  0  0  0  0
   -1.5782   -1.5673   -0.7292 C   0  0  0  0  0  0  0  0  0  0  0  0
   -2.5448   -1.0064   -0.2171 O   0  0  0  0  0  0  0  0  0  0  0  0
   -1.2087   -1.5823   -3.2094 C   0  0  0  0  0  0  0  0  0  0  0  0
   -3.6915   -2.1888   -2.6360 H   0  0  0  0  0  0  0  0  0  0  0  0
   -1.0721   -3.2977   -1.9053 H   0  0  0  0  0  0  0  0  0  0  0  0
   -1.8017   -0.6681   -3.3281 H   0  0  0  0  0  0  0  0  0  0  0  0
   -0.1601   -1.2849   -3.1045 H   0  0  0  0  0  0  0  0  0  0  0  0
   -1.3074   -2.1646   -4.1319 H   0  0  0  0  0  0  0  0  0  0  0  0
   -0.2835   -1.5112   -0.2725 N   0  0  0  0  0  0  0  0  0  0  0  0
    0.0769   -0.7658    0.9424 C   0  0  0  0  0  0  0  0  0  0  0  0
    1.0020   -1.5996    1.7916 C   0  0  0  0  0  0  0  0  0  0  0  0
    0.8135   -2.7901    2.0276 O   0  0  0  0  0  0  0  0  0  0  0  0
    0.4587   -2.0097   -0.7289 H   0  0  0  0  0  0  0  0  0  0  0  0
   -0.8319   -0.5342    1.5058 H   0  0  0  0  0  0  0  0  0  0  0  0
    0.5739    0.1662    0.6578 H   0  0  0  0  0  0  0  0  0  0  0  0
    2.0752   -0.8524    2.2650 N   0  0  0  0  0  0  0  0  0  0  0  0
    3.1118   -1.3948    3.1033 C   0  0  2  0  0  0  0  0  0  0  0  0
    4.4451   -1.1850    2.3979 C   0  0  0  0  0  0  0  0  0  0  0  0
    4.5431   -1.0216    1.1835 O   0  0  0  0  0  0  0  0  0  0  0  0
    2.8754   -2.8692    3.3916 C   0  0  0  0  0  0  0  0  0  0  0  0
    2.1306    0.1309    2.0046 H   0  0  0  0  0  0  0  0  0  0  0  0
    3.0971   -0.8205    4.0361 H   0  0  0  0  0  0  0  0  0  0  0  0
    2.8867   -3.4607    2.4688 H   0  0  0  0  0  0  0  0  0  0  0  0
    3.6492   -3.2732    4.0526 H   0  0  0  0  0  0  0  0  0  0  0  0
    1.9029   -3.0213    3.8720 H   0  0  0  0  0  0  0  0  0  0  0  0
    5.5164   -1.2447    3.2782 N   0  0  0  0  0  0  0  0  0  0  0  0
    6.8869   -1.0882    2.8502 C   0  0  0  0  0  0  0  0  0  0  0  0
    5.3408   -1.3648    4.2715 H   0  0  0  0  0  0  0  0  0  0  0  0
    7.3184   -2.0761    2.6317 H   0  0  0  0  0  0  0  0  0  0  0  0
    6.9190   -0.4656    1.9439 H   0  0  0  0  0  0  0  0  0  0  0  0
    7.4672   -0.6032    3.6489 H   0  0  0  0  0  0  0  0  0  0  0  0
  1  3  1  0  0  0  0
  1  7  1  0  0  0  0
  1  2  2  0  0  0  0
 18 19  1  0  0  0  0
 19 24  1  0  0  0  0
 19 20  2  0  0  0  0
 25 26  1  0  0  0  0
 26 34  1  0  0  0  0
 26 27  2  0  0  0  0
  8  9  1  0  0  0  0
  9 17  1  0  0  0  0
  9 10  2  0  0  0  0
 25 28  1  0  0  0  0
  8 11  1  0  0  0  0
 34 35  1  0  0  0  0
 17 18  1  0  0  0  0
 24 25  1  0  0  0  0
  7  8  1  0  0  0  0
  3  4  1  0  0  0  0
  3  5  1  0  0  0  0
  3  6  1  0  0  0  0
 28 31  1  0  0  0  0
 28 32  1  0  0  0  0
 28 33  1  0  0  0  0
 11 14  1  0  0  0  0
 11 15  1  0  0  0  0
 11 16  1  0  0  0  0
 35 37  1  0  0  0  0
 35 38  1  0  0  0  0
 35 39  1  0  0  0  0
 18 22  1  0  0  0  0
 18 23  1  0  0  0  0
 25 30  1  0  0  0  0
  8 13  1  0  0  0  0
 34 36  1  0  0  0  0
 17 21  1  0  0  0  0
  7 12  1  0  0  0  0
 24 29  1  0  0  0  0
M  END
$$$$

  -OEChem-05262214473D

 39 38  0     1  0  0  0  0  0999 V2000
   -3.5200   -4.0268   -1.6943 C   0  0  0  0  0  0  0  0  0  0  0  0
   -2.8702   -4.8827   -1.1054 O   0  0  0  0  0  0  0  0  0  0  0  0
   -4.9704   -4.2579   -1.9614 C   0  0  0  0  0  0  0  0  0  0  0  0
   -5.1456   -4.7573   -2.9278 H   0  0  0  0  0  0  0  0  0  0  0  0
   -5.4379   -4.9112   -1.2072 H   0  0  0  0  0  0  0  0  0  0  0  0
   -5.5954   -3.3510   -1.9864 H   0  0  0  0  0  0  0  0  0  0  0  0
   -3.0424   -2.8131   -2.1606 N   0  0  0  0  0  0  0  0  0  0  0  0
   -1.6755   -2.3891   -2.0077 C   0  0  2  0  0  0  0  0  0  0  0  0
   -1.5782   -1.5673   -0.7292 C   0  0  0  0  0  0  0  0  0  0  0  0
   -2.5448   -1.0064   -0.2171 O   0  0  0  0  0  0  0  0  0  0  0  0
   -1.2087   -1.5823   -3.2094 C   0  0  0  0  0  0  0  0  0  0  0  0
   -3.6915   -2.1888   -2.6360 H   0  0  0  0  0  0  0  0  0  0  0  0
   -1.0721   -3.2977   -1.9053 H   0  0  0  0  0  0  0  0  0  0  0  0
   -1.8017   -0.6681   -3.3281 H   0  0  0  0  0  0  0  0  0  0  0  0
   -0.1601   -1.2849   -3.1045 H   0  0  0  0  0  0  0  0  0  0  0  0
   -1.3074   -2.1646   -4.1319 H   0  0  0  0  0  0  0  0  0  0  0  0
   -0.2835   -1.5112   -0.2725 N   0  0  0  0  0  0  0  0  0  0  0  0
    0.0769   -0.7658    0.9424 C   0  0  0  0  0  0  0  0  0  0  0  0
    1.0020   -1.5996    1.7916 C   0  0  0  0  0  0  0  0  0  0  0  0
    0.9738   -2.8272    1.8164 O   0  0  0  0  0  0  0  0  0  0  0  0
    0.4587   -2.0097   -0.7289 H   0  0  0  0  0  0  0  0  0  0  0  0
   -0.8319   -0.5342    1.5058 H   0  0  0  0  0  0  0  0  0  0  0  0
    0.5739    0.1662    0.6578 H   0  0  0  0  0  0  0  0  0  0  0  0
    1.8726   -0.8062    2.5311 N   0  0  0  0  0  0  0  0  0  0  0  0
    2.8624   -1.3387    3.4301 C   0  0  2  0  0  0  0  0  0  0  0  0
    4.2271   -0.8353    2.9788 C   0  0  0  0  0  0  0  0  0  0  0  0
    4.4568   -0.4569    1.8320 O   0  0  0  0  0  0  0  0  0  0  0  0
    2.8252   -2.8588    3.4565 C   0  0  0  0  0  0  0  0  0  0  0  0
    1.8063    0.2054    2.4311 H   0  0  0  0  0  0  0  0  0  0  0  0
    2.6350   -0.9380    4.4240 H   0  0  0  0  0  0  0  0  0  0  0  0
    3.0505   -3.2785    2.4693 H   0  0  0  0  0  0  0  0  0  0  0  0
    3.5593   -3.2615    4.1622 H   0  0  0  0  0  0  0  0  0  0  0  0
    1.8341   -3.2193    3.7525 H   0  0  0  0  0  0  0  0  0  0  0  0
    5.1693   -0.8990    3.9958 N   0  0  0  0  0  0  0  0  0  0  0  0
    6.5423   -0.4897    3.8133 C   0  0  0  0  0  0  0  0  0  0  0  0
    4.8859   -1.2082    4.9209 H   0  0  0  0  0  0  0  0  0  0  0  0
    7.1489   -1.3593    3.5203 H   0  0  0  0  0  0  0  0  0  0  0  0
    6.5949    0.2761    3.0253 H   0  0  0  0  0  0  0  0  0  0  0  0
    6.9291   -0.0736    4.7552 H   0  0  0  0  0  0  0  0  0  0  0  0
  1  3  1  0  0  0  0
  1  7  1  0  0  0  0
  1  2  2  0  0  0  0
 18 19  1  0  0  0  0
 19 24  1  0  0  0  0
 19 20  2  0  0  0  0
 25 26  1  0  0  0  0
 26 34  1  0  0  0  0
 26 27  2  0  0  0  0
  8  9  1  0  0  0  0
  9 17  1  0  0  0  0
  9 10  2  0  0  0  0
 25 28  1  0  0  0  0
  8 11  1  0  0  0  0
 34 35  1  0  0  0  0
 17 18  1  0  0  0  0
 24 25  1  0  0  0  0
  7  8  1  0  0  0  0
  3  4  1  0  0  0  0
  3  5  1  0  0  0  0
  3  6  1  0  0  0  0
 28 31  1  0  0  0  0
 28 32  1  0  0  0  0
 28 33  1  0  0  0  0
 11 14  1  0  0  0  0
 11 15  1  0  0  0  0
 11 16  1  0  0  0  0
 35 37  1  0  0  0  0
 35 38  1  0  0  0  0
 35 39  1  0  0  0  0
 18 22  1  0  0  0  0
 18 23  1  0  0  0  0
 25 30  1  0  0  0  0
  8 13  1  0  0  0  0
 34 36  1  0  0  0  0
 17 21  1  0  0  0  0
  7 12  1  0  0  0  0
 24 29  1  0  0  0  0
M  END
$$$$

  -OEChem-05262214473D

 39 38  0     1  0  0  0  0  0999 V2000
   -3.5200   -4.0268   -1.6943 C   0  0  0  0  0  0  0  0  0  0  0  0
   -2.8702   -4.8827   -1.1054 O   0  0  0  0  0  0  0  0  0  0  0  0
   -4.9704   -4.2579   -1.9614 C   0  0  0  0  0  0  0  0  0  0  0  0
   -5.1456   -4.7573   -2.9278 H   0  0  0  0  0  0  0  0  0  0  0  0
   -5.4379   -4.9112   -1.2072 H   0  0  0  0  0  0  0  0  0  0  0  0
   -5.5954   -3.3510   -1.9864 H   0  0  0  0  0  0  0  0  0  0  0  0
   -3.0424   -2.8131   -2.1606 N   0  0  0  0  0  0  0  0  0  0  0  0
   -1.6755   -2.3891   -2.0077 C   0  0  2  0  0  0  0  0  0  0  0  0
   -1.5782   -1.5673   -0.7292 C   0  0  0  0  0  0  0  0  0  0  0  0
   -2.5448   -1.0064   -0.2171 O   0  0  0  0  0  0  0  0  0  0  0  0
   -1.2087   -1.5823   -3.2094 C   0  0  0  0  0  0  0  0  0  0  0  0
   -3.6915   -2.1888   -2.6360 H   0  0  0  0  0  0  0  0  0  0  0  0
   -1.0721   -3.2977   -1.9053 H   0  0  0  0  0  0  0  0  0  0  0  0
   -1.8017   -0.6681   -3.3281 H   0  0  0  0  0  0  0  0  0  0  0  0
   -0.1601   -1.2849   -3.1045 H   0  0  0  0  0  0  0  0  0  0  0  0
   -1.3074   -2.1646   -4.1319 H   0  0  0  0  0  0  0  0  0  0  0  0
   -0.2835   -1.5112   -0.2725 N   0  0  0  0  0  0  0  0  0  0  0  0
    0.0769   -0.7658    0.9424 C   0  0  0  0  0  0  0  0  0  0  0  0
    1.0020   -1.5996    1.7916 C   0  0  0  0  0  0  0  0  0  0  0  0
    1.1643   -2.8062    1.6295 O   0  0  0  0  0  0  0  0  0  0  0  0
    0.4587   -2.0097   -0.7289 H   0  0  0  0  0  0  0  0  0  0  0  0
   -0.8319   -0.5342    1.5058 H   0  0  0  0  0  0  0  0  0  0  0  0
    0.5739    0.1662    0.6578 H   0  0  0  0  0  0  0  0  0  0  0  0
    1.6321   -0.8334    2.7664 N   0  0  0  0  0  0  0  0  0  0  0  0
    2.5665   -1.3728    3.7190 C   0  0  2  0  0  0  0  0  0  0  0  0
    3.8823   -0.6217    3.5642 C   0  0  0  0  0  0  0  0  0  0  0  0
    4.1983   -0.0270    2.5358 O   0  0  0  0  0  0  0  0  0  0  0  0
    2.7659   -2.8664    3.5136 C   0  0  0  0  0  0  0  0  0  0  0  0
    1.4212    0.1623    2.8084 H   0  0  0  0  0  0  0  0  0  0  0  0
    2.1504   -1.1805    4.7139 H   0  0  0  0  0  0  0  0  0  0  0  0
    3.1822   -3.0786    2.5221 H   0  0  0  0  0  0  0  0  0  0  0  0
    3.4550   -3.2806    4.2570 H   0  0  0  0  0  0  0  0  0  0  0  0
    1.8137   -3.4016    3.5958 H   0  0  0  0  0  0  0  0  0  0  0  0
    4.6809   -0.7296    4.6941 N   0  0  0  0  0  0  0  0  0  0  0  0
    5.9843   -0.1148    4.7893 C   0  0  0  0  0  0  0  0  0  0  0  0
    4.3306   -1.2263    5.5080 H   0  0  0  0  0  0  0  0  0  0  0  0
    6.7533   -0.8328    4.4682 H   0  0  0  0  0  0  0  0  0  0  0  0
    6.0188    0.7734    4.1413 H   0  0  0  0  0  0  0  0  0  0  0  0
    6.1736    0.1837    5.8309 H   0  0  0  0  0  0  0  0  0  0  0  0
  1  3  1  0  0  0  0
  1  7  1  0  0  0  0
  1  2  2  0  0  0  0
 18 19  1  0  0  0  0
 19 24  1  0  0  0  0
 19 20  2  0  0  0  0
 25 26  1  0  0  0  0
 26 34  1  0  0  0  0
 26 27  2  0  0  0  0
  8  9  1  0  0  0  0
  9 17  1  0  0  0  0
  9 10  2  0  0  0  0
 25 28  1  0  0  0  0
  8 11  1  0  0  0  0
 34 35  1  0  0  0  0
 17 18  1  0  0  0  0
 24 25  1  0  0  0  0
  7  8  1  0  0  0  0
  3  4  1  0  0  0  0
  3  5  1  0  0  0  0
  3  6  1  0  0  0  0
 28 31  1  0  0  0  0
 28 32  1  0  0  0  0
 28 33  1  0  0  0  0
 11 14  1  0  0  0  0
 11 15  1  0  0  0  0
 11 16  1  0  0  0  0
 35 37  1  0  0  0  0
 35 38  1  0  0  0  0
 35 39  1  0  0  0  0
 18 22  1  0  0  0  0
 18 23  1  0  0  0  0
 25 30  1  0  0  0  0
  8 13  1  0  0  0  0
 34 36  1  0  0  0  0
 17 21  1  0  0  0  0
  7 12  1  0  0  0  0
 24 29  1  0  0  0  0
M  END
$$$$

  -OEChem-05262214473D

 39 38  0     1  0  0  0  0  0999 V2000
   -3.5200   -4.0268   -1.6943 C   0  0  0  0  0  0  0  0  0  0  0  0
   -2.8702   -4.8827   -1.1054 O   0  0  0  0  0  0  0  0  0  0  0  0
   -4.9704   -4.2579   -1.9614 C   0  0  0  0  0  0  0  0  0  0  0  0
   -5.1456   -4.7573   -2.9278 H   0  0  0  0  0  0  0  0  0  0  0  0
   -5.4379   -4.9112   -1.2072 H   0  0  0  0  0  0  0  0  0  0  0  0
   -5.5954   -3.3510   -1.9864 H   0  0  0  0  0  0  0  0  0  0  0  0
   -3.0424   -2.8131   -2.1606 N   0  0  0  0  0  0  0  0  0  0  0  0
   -1.6755   -2.3891   -2.0077 C   0  0  2  0  0  0  0  0  0  0  0  0
   -1.5782   -1.5673   -0.7292 C   0  0  0  0  0  0  0  0  0  0  0  0
   -2.5448   -1.0064   -0.2171 O   0  0  0  0  0  0  0  0  0  0  0  0
   -1.2087   -1.5823   -3.2094 C   0  0  0  0  0  0  0  0  0  0  0  0
   -3.6915   -2.1888   -2.6360 H   0  0  0  0  0  0  0  0  0  0  0  0
   -1.0721   -3.2977   -1.9053 H   0  0  0  0  0  0  0  0  0  0  0  0
   -1.8017   -0.6681   -3.3281 H   0  0  0  0  0  0  0  0  0  0  0  0
   -0.1601   -1.2849   -3.1045 H   0  0  0  0  0  0  0  0  0  0  0  0
   -1.3074   -2.1646   -4.1319 H   0  0  0  0  0  0  0  0  0  0  0  0
   -0.2835   -1.5112   -0.2725 N   0  0  0  0  0  0  0  0  0  0  0  0
    0.0769   -0.7658    0.9424 C   0  0  0  0  0  0  0  0  0  0  0  0
    1.2644   -1.4185    1.6026 C   0  0  0  0  0  0  0  0  0  0  0  0
    1.8162   -2.4226    1.1603 O   0  0  0  0  0  0  0  0  0  0  0  0
    0.4587   -2.0097   -0.7289 H   0  0  0  0  0  0  0  0  0  0  0  0
   -0.7735   -0.7660    1.6307 H   0  0  0  0  0  0  0  0  0  0  0  0
    0.3233    0.2650    0.6715 H   0  0  0  0  0  0  0  0  0  0  0  0
    1.6415   -0.7448    2.7595 N   0  0  0  0  0  0  0  0  0  0  0  0
    2.7432   -1.1515    3.5915 C   0  0  2  0  0  0  0  0  0  0  0  0
    3.7215    0.0126    3.6786 C   0  0  0  0  0  0  0  0  0  0  0  0
    3.7741    0.9088    2.8390 O   0  0  0  0  0  0  0  0  0  0  0  0
    3.4245   -2.3939    3.0393 C   0  0  0  0  0  0  0  0  0  0  0  0
    1.1098    0.0801    3.0323 H   0  0  0  0  0  0  0  0  0  0  0  0
    2.3301   -1.3572    4.5850 H   0  0  0  0  0  0  0  0  0  0  0  0
    3.8447   -2.2070    2.0443 H   0  0  0  0  0  0  0  0  0  0  0  0
    4.2443   -2.7185    3.6886 H   0  0  0  0  0  0  0  0  0  0  0  0
    2.7125   -3.2214    2.9494 H   0  0  0  0  0  0  0  0  0  0  0  0
    4.5579   -0.0901    4.7814 N   0  0  0  0  0  0  0  0  0  0  0  0
    5.5812    0.8853    5.0772 C   0  0  0  0  0  0  0  0  0  0  0  0
    4.4308   -0.8569    5.4353 H   0  0  0  0  0  0  0  0  0  0  0  0
    6.5324    0.5684    4.6245 H   0  0  0  0  0  0  0  0  0  0  0  0
    5.2867    1.8619    4.6655 H   0  0  0  0  0  0  0  0  0  0  0  0
    5.7039    0.9687    6.1671 H   0  0  0  0  0  0  0  0  0  0  0  0
  1  3  1  0  0  0  0
  1  7  1  0  0  0  0
  1  2  2  0  0  0  0
 18 19  1  0  0  0  0
 19 24  1  0  0  0  0
 19 20  2  0  0  0  0
 25 26  1  0  0  0  0
 26 34  1  0  0  0  0
 26 27  2  0  0  0  0
  8  9  1  0  0  0  0
  9 17  1  0  0  0  0
  9 10  2  0  0  0  0
 25 28  1  0  0  0  0
  8 11  1  0  0  0  0
 34 35  1  0  0  0  0
 17 18  1  0  0  0  0
 24 25  1  0  0  0  0
  7  8  1  0  0  0  0
  3  4  1  0  0  0  0
  3  5  1  0  0  0  0
  3  6  1  0  0  0  0
 28 31  1  0  0  0  0
 28 32  1  0  0  0  0
 28 33  1  0  0  0  0
 11 14  1  0  0  0  0
 11 15  1  0  0  0  0
 11 16  1  0  0  0  0
 35 37  1  0  0  0  0
 35 38  1  0  0  0  0
 35 39  1  0  0  0  0
 18 22  1  0  0  0  0
 18 23  1  0  0  0  0
 25 30  1  0  0  0  0
  8 13  1  0  0  0  0
 34 36  1  0  0  0  0
 17 21  1  0  0  0  0
  7 12  1  0  0  0  0
 24 29  1  0  0  0  0
M  END
$$$$

  -OEChem-05262214473D

 39 38  0     1  0  0  0  0  0999 V2000
   -3.5200   -4.0268   -1.6943 C   0  0  0  0  0  0  0  0  0  0  0  0
   -2.8702   -4.8827   -1.1054 O   0  0  0  0  0  0  0  0  0  0  0  0
   -4.9704   -4.2579   -1.9614 C   0  0  0  0  0  0  0  0  0  0  0  0
   -5.1456   -4.7573   -2.9278 H   0  0  0  0  0  0  0  0  0  0  0  0
   -5.4379   -4.9112   -1.2072 H   0  0  0  0  0  0  0  0  0  0  0  0
   -5.5954   -3.3510   -1.9864 H   0  0  0  0  0  0  0  0  0  0  0  0
   -3.0424   -2.8131   -2.1606 N   0  0  0  0  0  0  0  0  0  0  0  0
   -1.6755   -2.3891   -2.0077 C   0  0  2  0  0  0  0  0  0  0  0  0
   -1.5782   -1.5673   -0.7292 C   0  0  0  0  0  0  0  0  0  0  0  0
   -2.5448   -1.0064   -0.2171 O   0  0  0  0  0  0  0  0  0  0  0  0
   -1.2087   -1.5823   -3.2094 C   0  0  0  0  0  0  0  0  0  0  0  0
   -3.6915   -2.1888   -2.6360 H   0  0  0  0  0  0  0  0  0  0  0  0
   -1.0721   -3.2977   -1.9053 H   0  0  0  0  0  0  0  0  0  0  0  0
   -1.8017   -0.6681   -3.3281 H   0  0  0  0  0  0  0  0  0  0  0  0
   -0.1601   -1.2849   -3.1045 H   0  0  0  0  0  0  0  0  0  0  0  0
   -1.3074   -2.1646   -4.1319 H   0  0  0  0  0  0  0  0  0  0  0  0
   -0.2835   -1.5112   -0.2725 N   0  0  0  0  0  0  0  0  0  0  0  0
    0.0769   -0.7658    0.9424 C   0  0  0  0  0  0  0  0  0  0  0  0
    1.2644   -1.4185    1.6026 C   0  0  0  0  0  0  0  0  0  0  0  0
    1.9789   -2.2456    1.0425 O   0  0  0  0  0  0  0  0  0  0  0  0
    0.4587   -2.0097   -0.7289 H   0  0  0  0  0  0  0  0  0  0  0  0
   -0.7735   -0.7660    1.6307 H   0  0  0  0  0  0  0  0  0  0  0  0
    0.3233    0.2650    0.6715 H   0  0  0  0  0  0  0  0  0  0  0  0
    1.4364   -0.9685    2.9073 N   0  0  0  0  0  0  0  0  0  0  0  0
    2.4912   -1.4268    3.7726 C   0  0  2  0  0  0  0  0  0  0  0  0
    3.3026   -0.2138    4.2083 C   0  0  0  0  0  0  0  0  0  0  0  0
    3.3268    0.8396    3.5752 O   0  0  0  0  0  0  0  0  0  0  0  0
    3.3744   -2.4494    3.0747 C   0  0  0  0  0  0  0  0  0  0  0  0
    0.7811   -0.2779    3.2697 H   0  0  0  0  0  0  0  0  0  0  0  0
    2.0095   -1.8779    4.6469 H   0  0  0  0  0  0  0  0  0  0  0  0
    3.8655   -2.0156    2.1960 H   0  0  0  0  0  0  0  0  0  0  0  0
    4.1590   -2.8182    3.7435 H   0  0  0  0  0  0  0  0  0  0  0  0
    2.7840   -3.3075    2.7357 H   0  0  0  0  0  0  0  0  0  0  0  0
    4.0304   -0.4606    5.3639 N   0  0  0  0  0  0  0  0  0  0  0  0
    4.8889    0.5297    5.9709 C   0  0  0  0  0  0  0  0  0  0  0  0
    3.9352   -1.3566    5.8327 H   0  0  0  0  0  0  0  0  0  0  0  0
    5.9128    0.4136    5.5859 H   0  0  0  0  0  0  0  0  0  0  0  0
    4.5175    1.5359    5.7269 H   0  0  0  0  0  0  0  0  0  0  0  0
    4.8902    0.3940    7.0625 H   0  0  0  0  0  0  0  0  0  0  0  0
  1  3  1  0  0  0  0
  1  7  1  0  0  0  0
  1  2  2  0  0  0  0
 18 19  1  0  0  0  0
 19 24  1  0  0  0  0
 19 20  2  0  0  0  0
 25 26  1  0  0  0  0
 26 34  1  0  0  0  0
 26 27  2  0  0  0  0
  8  9  1  0  0  0  0
  9 17  1  0  0  0  0
  9 10  2  0  0  0  0
 25 28  1  0  0  0  0
  8 11  1  0  0  0  0
 34 35  1  0  0  0  0
 17 18  1  0  0  0  0
 24 25  1  0  0  0  0
  7  8  1  0  0  0  0
  3  4  1  0  0  0  0
  3  5  1  0  0  0  0
  3  6  1  0  0  0  0
 28 31  1  0  0  0  0
 28 32  1  0  0  0  0
 28 33  1  0  0  0  0
 11 14  1  0  0  0  0
 11 15  1  0  0  0  0
 11 16  1  0  0  0  0
 35 37  1  0  0  0  0
 35 38  1  0  0  0  0
 35 39  1  0  0  0  0
 18 22  1  0  0  0  0
 18 23  1  0  0  0  0
 25 30  1  0  0  0  0
  8 13  1  0  0  0  0
 34 36  1  0  0  0  0
 17 21  1  0  0  0  0
  7 12  1  0  0  0  0
 24 29  1  0  0  0  0
M  END
$$$$

  -OEChem-05262214473D

 39 38  0     1  0  0  0  0  0999 V2000
   -3.5200   -4.0268   -1.6943 C   0  0  0  0  0  0  0  0  0  0  0  0
   -2.8702   -4.8827   -1.1054 O   0  0  0  0  0  0  0  0  0  0  0  0
   -4.9704   -4.2579   -1.9614 C   0  0  0  0  0  0  0  0  0  0  0  0
   -5.1456   -4.7573   -2.9278 H   0  0  0  0  0  0  0  0  0  0  0  0
   -5.4379   -4.9112   -1.2072 H   0  0  0  0  0  0  0  0  0  0  0  0
   -5.5954   -3.3510   -1.9864 H   0  0  0  0  0  0  0  0  0  0  0  0
   -3.0424   -2.8131   -2.1606 N   0  0  0  0  0  0  0  0  0  0  0  0
   -1.6755   -2.3891   -2.0077 C   0  0  2  0  0  0  0  0  0  0  0  0
   -1.5782   -1.5673   -0.7292 C   0  0  0  0  0  0  0  0  0  0  0  0
   -2.5448   -1.0064   -0.2171 O   0  0  0  0  0  0  0  0  0  0  0  0
   -1.2087   -1.5823   -3.2094 C   0  0  0  0  0  0  0  0  0  0  0  0
   -3.6915   -2.1888   -2.6360 H   0  0  0  0  0  0  0  0  0  0  0  0
   -1.0721   -3.2977   -1.9053 H   0  0  0  0  0  0  0  0  0  0  0  0
   -1.8017   -0.6681   -3.3281 H   0  0  0  0  0  0  0  0  0  0  0  0
   -0.1601   -1.2849   -3.1045 H   0  0  0  0  0  0  0  0  0  0  0  0
   -1.3074   -2.1646   -4.1319 H   0  0  0  0  0  0  0  0  0  0  0  0
   -0.2835   -1.5112   -0.2725 N   0  0  0  0  0  0  0  0  0  0  0  0
    0.0769   -0.7658    0.9424 C   0  0  0  0  0  0  0  0  0  0  0  0
    1.2644   -1.4185    1.6026 C   0  0  0  0  0  0  0  0  0  0  0  0
    2.1293   -2.0322    0.9831 O   0  0  0  0  0  0  0  0  0  0  0  0
    0.4587   -2.0097   -0.7289 H   0  0  0  0  0  0  0  0  0  0  0  0
   -0.7735   -0.7660    1.6307 H   0  0  0  0  0  0  0  0  0  0  0  0
    0.3233    0.2650    0.6715 H   0  0  0  0  0  0  0  0  0  0  0  0
    1.2471   -1.2379    2.9816 N   0  0  0  0  0  0  0  0  0  0  0  0
    2.2587   -1.7583    3.8631 C   0  0  2  0  0  0  0  0  0  0  0  0
    2.8643   -0.5880    4.6268 C   0  0  0  0  0  0  0  0  0  0  0  0
    2.8200    0.5719    4.2221 O   0  0  0  0  0  0  0  0  0  0  0  0
    3.3283   -2.5159    3.0919 C   0  0  0  0  0  0  0  0  0  0  0  0
    0.4775   -0.7093    3.3891 H   0  0  0  0  0  0  0  0  0  0  0  0
    1.7519   -2.4298    4.5647 H   0  0  0  0  0  0  0  0  0  0  0  0
    3.8470   -1.8593    2.3838 H   0  0  0  0  0  0  0  0  0  0  0  0
    4.0818   -2.9354    3.7666 H   0  0  0  0  0  0  0  0  0  0  0  0
    2.8868   -3.3390    2.5196 H   0  0  0  0  0  0  0  0  0  0  0  0
    3.4977   -0.9970    5.7920 N   0  0  0  0  0  0  0  0  0  0  0  0
    4.1604   -0.0745    6.6841 C   0  0  0  0  0  0  0  0  0  0  0  0
    3.4686   -1.9765    6.0592 H   0  0  0  0  0  0  0  0  0  0  0  0
    5.2242   -0.0022    6.4136 H   0  0  0  0  0  0  0  0  0  0  0  0
    3.6925    0.9174    6.5995 H   0  0  0  0  0  0  0  0  0  0  0  0
    4.0691   -0.4359    7.7190 H   0  0  0  0  0  0  0  0  0  0  0  0
  1  3  1  0  0  0  0
  1  7  1  0  0  0  0
  1  2  2  0  0  0  0
 18 19  1  0  0  0  0
 19 24  1  0  0  0  0
 19 20  2  0  0  0  0
 25 26  1  0  0  0  0
 26 34  1  0  0  0  0
 26 27  2  0  0  0  0
  8  9  1  0  0  0  0
  9 17  1  0  0  0  0
  9 10  2  0  0  0  0
 25 28  1  0  0  0  0
  8 11  1  0  0  0  0
 34 35  1  0  0  0  0
 17 18  1  0  0  0  0
 24 25  1  0  0  0  0
  7  8  1  0  0  0  0
  3  4  1  0  0  0  0
  3  5  1  0  0  0  0
  3  6  1  0  0  0  0
 28 31  1  0  0  0  0
 28 32  1  0  0  0  0
 28 33  1  0  0  0  0
 11 14  1  0  0  0  0
 11 15  1  0  0  0  0
 11 16  1  0  0  0  0
 35 37  1  0  0  0  0
 35 38  1  0  0  0  0
 35 39  1  0  0  0  0
 18 22  1  0  0  0  0
 18 23  1  0  0  0  0
 25 30  1  0  0  0  0
  8 13  1  0  0  0  0
 34 36  1  0  0  0  0
 17 21  1  0  0  0  0
  7 12  1  0  0  0  0
 24 29  1  0  0  0  0
M  END
$$$$

  -OEChem-05262214473D

 39 38  0     1  0  0  0  0  0999 V2000
   -3.5200   -4.0268   -1.6943 C   0  0  0  0  0  0  0  0  0  0  0  0
   -2.8702   -4.8827   -1.1054 O   0  0  0  0  0  0  0  0  0  0  0  0
   -4.9704   -4.2579   -1.9614 C   0  0  0  0  0  0  0  0  0  0  0  0
   -5.1456   -4.7573   -2.9278 H   0  0  0  0  0  0  0  0  0  0  0  0
   -5.4379   -4.9112   -1.2072 H   0  0  0  0  0  0  0  0  0  0  0  0
   -5.5954   -3.3510   -1.9864 H   0  0  0  0  0  0  0  0  0  0  0  0
   -3.0424   -2.8131   -2.1606 N   0  0  0  0  0  0  0  0  0  0  0  0
   -1.6755   -2.3891   -2.0077 C   0  0  2  0  0  0  0  0  0  0  0  0
   -1.5782   -1.5673   -0.7292 C   0  0  0  0  0  0  0  0  0  0  0  0
   -2.5448   -1.0064   -0.2171 O   0  0  0  0  0  0  0  0  0  0  0  0
   -1.2087   -1.5823   -3.2094 C   0  0  0  0  0  0  0  0  0  0  0  0
   -3.6915   -2.1888   -2.6360 H   0  0  0  0  0  0  0  0  0  0  0  0
   -1.0721   -3.2977   -1.9053 H   0  0  0  0  0  0  0  0  0  0  0  0
   -1.8017   -0.6681   -3.3281 H   0  0  0  0  0  0  0  0  0  0  0  0
   -0.1601   -1.2849   -3.1045 H   0  0  0  0  0  0  0  0  0  0  0  0
   -1.3074   -2.1646   -4.1319 H   0  0  0  0  0  0  0  0  0  0  0  0
   -0.2835   -1.5112   -0.2725 N   0  0  0  0  0  0  0  0  0  0  0  0
    0.0769   -0.7658    0.9424 C   0  0  0  0  0  0  0  0  0  0  0  0
    1.2644   -1.4185    1.6026 C   0  0  0  0  0  0  0  0  0  0  0  0
    2.2569   -1.7969    0.9861 O   0  0  0  0  0  0  0  0  0  0  0  0
    0.4587   -2.0097   -0.7289 H   0  0  0  0  0  0  0  0  0  0  0  0
   -0.7735   -0.7660    1.6307 H   0  0  0  0  0  0  0  0  0  0  0  0
    0.3233    0.2650    0.6715 H   0  0  0  0  0  0  0  0  0  0  0  0
    1.0864   -1.5347    2.9771 N   0  0  0  0  0  0  0  0  0  0  0  0
    2.0615   -2.1233    3.8569 C   0  0  2  0  0  0  0  0  0  0  0  0
    2.4365   -1.0844    4.9056 C   0  0  0  0  0  0  0  0  0  0  0  0
    2.2884    0.1240    4.7356 O   0  0  0  0  0  0  0  0  0  0  0  0
    3.2893   -2.5888    3.0897 C   0  0  0  0  0  0  0  0  0  0  0  0
    0.2199   -1.1848    3.3825 H   0  0  0  0  0  0  0  0  0  0  0  0
    1.5748   -2.9754    4.3438 H   0  0  0  0  0  0  0  0  0  0  0  0
    3.7904   -1.7487    2.5951 H   0  0  0  0  0  0  0  0  0  0  0  0
    4.0179   -3.0620    3.7564 H   0  0  0  0  0  0  0  0  0  0  0  0
    3.0138   -3.3137    2.3161 H   0  0  0  0  0  0  0  0  0  0  0  0
    2.9958   -1.6628    6.0364 N   0  0  0  0  0  0  0  0  0  0  0  0
    3.4452   -0.8861    7.1681 C   0  0  0  0  0  0  0  0  0  0  0  0
    3.0627   -2.6744    6.0992 H   0  0  0  0  0  0  0  0  0  0  0  0
    4.5134   -0.6507    7.0511 H   0  0  0  0  0  0  0  0  0  0  0  0
    2.8679    0.0485    7.2238 H   0  0  0  0  0  0  0  0  0  0  0  0
    3.2965   -1.4645    8.0919 H   0  0  0  0  0  0  0  0  0  0  0  0
  1  3  1  0  0  0  0
  1  7  1  0  0  0  0
  1  2  2  0  0  0  0
 18 19  1  0  0  0  0
 19 24  1  0  0  0  0
 19 20  2  0  0  0  0
 25 26  1  0  0  0  0
 26 34  1  0  0  0  0
 26 27  2  0  0  0  0
  8  9  1  0  0  0  0
  9 17  1  0  0  0  0
  9 10  2  0  0  0  0
 25 28  1  0  0  0  0
  8 11  1  0  0  0  0
 34 35  1  0  0  0  0
 17 18  1  0  0  0  0
 24 25  1  0  0  0  0
  7  8  1  0  0  0  0
  3  4  1  0  0  0  0
  3  5  1  0  0  0  0
  3  6  1  0  0  0  0
 28 31  1  0  0  0  0
 28 32  1  0  0  0  0
 28 33  1  0  0  0  0
 11 14  1  0  0  0  0
 11 15  1  0  0  0  0
 11 16  1  0  0  0  0
 35 37  1  0  0  0  0
 35 38  1  0  0  0  0
 35 39  1  0  0  0  0
 18 22  1  0  0  0  0
 18 23  1  0  0  0  0
 25 30  1  0  0  0  0
  8 13  1  0  0  0  0
 34 36  1  0  0  0  0
 17 21  1  0  0  0  0
  7 12  1  0  0  0  0
 24 29  1  0  0  0  0
M  END
$$$$

  -OEChem-05262214473D

 39 38  0     1  0  0  0  0  0999 V2000
   -3.5200   -4.0268   -1.6943 C   0  0  0  0  0  0  0  0  0  0  0  0
   -2.8702   -4.8827   -1.1054 O   0  0  0  0  0  0  0  0  0  0  0  0
   -4.9704   -4.2579   -1.9614 C   0  0  0  0  0  0  0  0  0  0  0  0
   -5.1456   -4.7573   -2.9278 H   0  0  0  0  0  0  0  0  0  0  0  0
   -5.4379   -4.9112   -1.2072 H   0  0  0  0  0  0  0  0  0  0  0  0
   -5.5954   -3.3510   -1.9864 H   0  0  0  0  0  0  0  0  0  0  0  0
   -3.0424   -2.8131   -2.1606 N   0  0  0  0  0  0  0  0  0  0  0  0
   -1.6755   -2.3891   -2.0077 C   0  0  2  0  0  0  0  0  0  0  0  0
   -1.5782   -1.5673   -0.7292 C   0  0  0  0  0  0  0  0  0  0  0  0
   -2.5448   -1.0064   -0.2171 O   0  0  0  0  0  0  0  0  0  0  0  0
   -1.2087   -1.5823   -3.2094 C   0  0  0  0  0  0  0  0  0  0  0  0
   -3.6915   -2.1888   -2.6360 H   0  0  0  0  0  0  0  0  0  0  0  0
   -1.0721   -3.2977   -1.9053 H   0  0  0  0  0  0  0  0  0  0  0  0
   -1.8017   -0.6681   -3.3281 H   0  0  0  0  0  0  0  0  0  0  0  0
   -0.1601   -1.2849   -3.1045 H   0  0  0  0  0  0  0  0  0  0  0  0
   -1.3074   -2.1646   -4.1319 H   0  0  0  0  0  0  0  0  0  0  0  0
   -0.2835   -1.5112   -0.2725 N   0  0  0  0  0  0  0  0  0  0  0  0
    0.0769   -0.7658    0.9424 C   0  0  0  0  0  0  0  0  0  0  0  0
    1.2644   -1.4185    1.6026 C   0  0  0  0  0  0  0  0  0  0  0  0
    2.3533   -1.5558    1.0512 O   0  0  0  0  0  0  0  0  0  0  0  0
    0.4587   -2.0097   -0.7289 H   0  0  0  0  0  0  0  0  0  0  0  0
   -0.7735   -0.7660    1.6307 H   0  0  0  0  0  0  0  0  0  0  0  0
    0.3233    0.2650    0.6715 H   0  0  0  0  0  0  0  0  0  0  0  0
    0.9653   -1.8388    2.8942 N   0  0  0  0  0  0  0  0  0  0  0  0
    1.9132   -2.4969    3.7544 C   0  0  2  0  0  0  0  0  0  0  0  0
    2.0482   -1.6693    5.0257 C   0  0  0  0  0  0  0  0  0  0  0  0
    1.7681   -0.4737    5.0807 O   0  0  0  0  0  0  0  0  0  0  0  0
    3.2602   -2.6633    3.0685 C   0  0  0  0  0  0  0  0  0  0  0  0
    0.0256   -1.6720    3.2503 H   0  0  0  0  0  0  0  0  0  0  0  0
    1.4904   -3.4773    3.9993 H   0  0  0  0  0  0  0  0  0  0  0  0
    3.6994   -1.6914    2.8153 H   0  0  0  0  0  0  0  0  0  0  0  0
    3.9716   -3.1895    3.7135 H   0  0  0  0  0  0  0  0  0  0  0  0
    3.1565   -3.2333    2.1389 H   0  0  0  0  0  0  0  0  0  0  0  0
    2.5592   -2.4126    6.0805 N   0  0  0  0  0  0  0  0  0  0  0  0
    2.7922   -1.8498    7.3901 C   0  0  0  0  0  0  0  0  0  0  0  0
    2.7454   -3.4026    5.9501 H   0  0  0  0  0  0  0  0  0  0  0  0
    3.8288   -1.4876    7.4549 H   0  0  0  0  0  0  0  0  0  0  0  0
    2.0999   -1.0115    7.5572 H   0  0  0  0  0  0  0  0  0  0  0  0
    2.6250   -2.6217    8.1558 H   0  0  0  0  0  0  0  0  0  0  0  0
  1  3  1  0  0  0  0
  1  7  1  0  0  0  0
  1  2  2  0  0  0  0
 18 19  1  0  0  0  0
 19 24  1  0  0  0  0
 19 20  2  0  0  0  0
 25 26  1  0  0  0  0
 26 34  1  0  0  0  0
 26 27  2  0  0  0  0
  8  9  1  0  0  0  0
  9 17  1  0  0  0  0
  9 10  2  0  0  0  0
 25 28  1  0  0  0  0
  8 11  1  0  0  0  0
 34 35  1  0  0  0  0
 17 18  1  0  0  0  0
 24 25  1  0  0  0  0
  7  8  1  0  0  0  0
  3  4  1  0  0  0  0
  3  5  1  0  0  0  0
  3  6  1  0  0  0  0
 28 31  1  0  0  0  0
 28 32  1  0  0  0  0
 28 33  1  0  0  0  0
 11 14  1  0  0  0  0
 11 15  1  0  0  0  0
 11 16  1  0  0  0  0
 35 37  1  0  0  0  0
 35 38  1  0  0  0  0
 35 39  1  0  0  0  0
 18 22  1  0  0  0  0
 18 23  1  0  0  0  0
 25 30  1  0  0  0  0
  8 13  1  0  0  0  0
 34 36  1  0  0  0  0
 17 21  1  0  0  0  0
  7 12  1  0  0  0  0
 24 29  1  0  0  0  0
M  END
$$$$

  -OEChem-05262214473D

 39 38  0     1  0  0  0  0  0999 V2000
   -3.5200   -4.0268   -1.6943 C   0  0  0  0  0  0  0  0  0  0  0  0
   -2.8702   -4.8827   -1.1054 O   0  0  0  0  0  0  0  0  0  0  0  0
   -4.9704   -4.2579   -1.9614 C   0  0  0  0  0  0  0  0  0  0  0  0
   -5.1456   -4.7573   -2.9278 H   0  0  0  0  0  0  0  0  0  0  0  0
   -5.4379   -4.9112   -1.2072 H   0  0  0  0  0  0  0  0  0  0  0  0
   -5.5954   -3.3510   -1.9864 H   0  0  0  0  0  0  0  0  0  0  0  0
   -3.0424   -2.8131   -2.1606 N   0  0  0  0  0  0  0  0  0  0  0  0
   -1.6755   -2.3891   -2.0077 C   0  0  2  0  0  0  0  0  0  0  0  0
   -1.5782   -1.5673   -0.7292 C   0  0  0  0  0  0  0  0  0  0  0  0
   -2.5448   -1.0064   -0.2171 O   0  0  0  0  0  0  0  0  0  0  0  0
   -1.2087   -1.5823   -3.2094 C   0  0  0  0  0  0  0  0  0  0  0  0
   -3.6915   -2.1888   -2.6360 H   0  0  0  0  0  0  0  0  0  0  0  0
   -1.0721   -3.2977   -1.9053 H   0  0  0  0  0  0  0  0  0  0  0  0
   -1.8017   -0.6681   -3.3281 H   0  0  0  0  0  0  0  0  0  0  0  0
   -0.1601   -1.2849   -3.1045 H   0  0  0  0  0  0  0  0  0  0  0  0
   -1.3074   -2.1646   -4.1319 H   0  0  0  0  0  0  0  0  0  0  0  0
   -0.2835   -1.5112   -0.2725 N   0  0  0  0  0  0  0  0  0  0  0  0
    0.0769   -0.7658    0.9424 C   0  0  0  0  0  0  0  0  0  0  0  0
    1.2644   -1.4185    1.6026 C   0  0  0  0  0  0  0  0  0  0  0  0
    2.4117   -1.3252    1.1741 O   0  0  0  0  0  0  0  0  0  0  0  0
    0.4587   -2.0097   -0.7289 H   0  0  0  0  0  0  0  0  0  0  0  0
   -0.7735   -0.7660    1.6307 H   0  0  0  0  0  0  0  0  0  0  0  0
    0.3233    0.2650    0.6715 H   0  0  0  0  0  0  0  0  0  0  0  0
    0.8921   -2.1293    2.7386 N   0  0  0  0  0  0  0  0  0  0  0  0
    1.8237   -2.8537    3.5625 C   0  0  2  0  0  0  0  0  0  0  0  0
    1.7260   -2.3027    4.9790 C   0  0  0  0  0  0  0  0  0  0  0  0
    1.2946   -1.1803    5.2338 O   0  0  0  0  0  0  0  0  0  0  0  0
    3.2430   -2.7342    3.0295 C   0  0  0  0  0  0  0  0  0  0  0  0
   -0.0920   -2.1376    3.0015 H   0  0  0  0  0  0  0  0  0  0  0  0
    1.5043   -3.9016    3.5548 H   0  0  0  0  0  0  0  0  0  0  0  0
    3.5804   -1.6913    3.0296 H   0  0  0  0  0  0  0  0  0  0  0  0
    3.9462   -3.3092    3.6409 H   0  0  0  0  0  0  0  0  0  0  0  0
    3.3051   -3.1034    2.0001 H   0  0  0  0  0  0  0  0  0  0  0  0
    2.2175   -3.1954    5.9212 N   0  0  0  0  0  0  0  0  0  0  0  0
    2.2458   -2.8999    7.3347 C   0  0  0  0  0  0  0  0  0  0  0  0
    2.5381   -4.1116    5.6220 H   0  0  0  0  0  0  0  0  0  0  0  0
    3.2172   -2.4560    7.5977 H   0  0  0  0  0  0  0  0  0  0  0  0
    1.4409   -2.1904    7.5770 H   0  0  0  0  0  0  0  0  0  0  0  0
    2.1004   -3.8285    7.9062 H   0  0  0  0  0  0  0  0  0  0  0  0
  1  3  1  0  0  0  0
  1  7  1  0  0  0  0
  1  2  2  0  0  0  0
 18 19  1  0  0  0  0
 19 24  1  0  0  0  0
 19 20  2  0  0  0  0
 25 26  1  0  0  0  0
 26 34  1  0  0  0  0
 26 27  2  0  0  0  0
  8  9  1  0  0  0  0
  9 17  1  0  0  0  0
  9 10  2  0  0  0  0
 25 28  1  0  0  0  0
  8 11  1  0  0  0  0
 34 35  1  0  0  0  0
 17 18  1  0  0  0  0
 24 25  1  0  0  0  0
  7  8  1  0  0  0  0
  3  4  1  0  0  0  0
  3  5  1  0  0  0  0
  3  6  1  0  0  0  0
 28 31  1  0  0  0  0
 28 32  1  0  0  0  0
 28 33  1  0  0  0  0
 11 14  1  0  0  0  0
 11 15  1  0  0  0  0
 11 16  1  0  0  0  0
 35 37  1  0  0  0  0
 35 38  1  0  0  0  0
 35 39  1  0  0  0  0
 18 22  1  0  0  0  0
 18 23  1  0  0  0  0
 25 30  1  0  0  0  0
  8 13  1  0  0  0  0
 34 36  1  0  0  0  0
 17 21  1  0  0  0  0
  7 12  1  0  0  0  0
 24 29  1  0  0  0  0
M  END
$$$$

  -OEChem-05262214473D

 39 38  0     1  0  0  0  0  0999 V2000
   -3.5200   -4.0268   -1.6943 C   0  0  0  0  0  0  0  0  0  0  0  0
   -2.8702   -4.8827   -1.1054 O   0  0  0  0  0  0  0  0  0  0  0  0
   -4.9704   -4.2579   -1.9614 C   0  0  0  0  0  0  0  0  0  0  0  0
   -5.1456   -4.7573   -2.9278 H   0  0  0  0  0  0  0  0  0  0  0  0
   -5.4379   -4.9112   -1.2072 H   0  0  0  0  0  0  0  0  0  0  0  0
   -5.5954   -3.3510   -1.9864 H   0  0  0  0  0  0  0  0  0  0  0  0
   -3.0424   -2.8131   -2.1606 N   0  0  0  0  0  0  0  0  0  0  0  0
   -1.6755   -2.3891   -2.0077 C   0  0  2  0  0  0  0  0  0  0  0  0
   -1.5782   -1.5673   -0.7292 C   0  0  0  0  0  0  0  0  0  0  0  0
   -2.5448   -1.0064   -0.2171 O   0  0  0  0  0  0  0  0  0  0  0  0
   -1.2087   -1.5823   -3.2094 C   0  0  0  0  0  0  0  0  0  0  0  0
   -3.6915   -2.1888   -2.6360 H   0  0  0  0  0  0  0  0  0  0  0  0
   -1.0721   -3.2977   -1.9053 H   0  0  0  0  0  0  0  0  0  0  0  0
   -1.8017   -0.6681   -3.3281 H   0  0  0  0  0  0  0  0  0  0  0  0
   -0.1601   -1.2849   -3.1045 H   0  0  0  0  0  0  0  0  0  0  0  0
   -1.3074   -2.1646   -4.1319 H   0  0  0  0  0  0  0  0  0  0  0  0
   -0.2835   -1.5112   -0.2725 N   0  0  0  0  0  0  0  0  0  0  0  0
    0.0769   -0.7658    0.9424 C   0  0  0  0  0  0  0  0  0  0  0  0
    1.2644   -1.4185    1.6026 C   0  0  0  0  0  0  0  0  0  0  0  0
    2.4282   -1.1210    1.3464 O   0  0  0  0  0  0  0  0  0  0  0  0
    0.4587   -2.0097   -0.7289 H   0  0  0  0  0  0  0  0  0  0  0  0
   -0.7735   -0.7660    1.6307 H   0  0  0  0  0  0  0  0  0  0  0  0
    0.3233    0.2650    0.6715 H   0  0  0  0  0  0  0  0  0  0  0  0
    0.8718   -2.3865    2.5209 N   0  0  0  0  0  0  0  0  0  0  0  0
    1.7992   -3.1694    3.2944 C   0  0  2  0  0  0  0  0  0  0  0  0
    1.4919   -2.9416    4.7686 C   0  0  0  0  0  0  0  0  0  0  0  0
    0.9001   -1.9477    5.1846 O   0  0  0  0  0  0  0  0  0  0  0  0
    3.2387   -2.7966    2.9754 C   0  0  0  0  0  0  0  0  0  0  0  0
   -0.1249   -2.5500    2.6530 H   0  0  0  0  0  0  0  0  0  0  0  0
    1.6157   -4.2191    3.0405 H   0  0  0  0  0  0  0  0  0  0  0  0
    3.4414   -1.7483    3.2232 H   0  0  0  0  0  0  0  0  0  0  0  0
    3.9434   -3.4128    3.5436 H   0  0  0  0  0  0  0  0  0  0  0  0
    3.4494   -2.9328    1.9092 H   0  0  0  0  0  0  0  0  0  0  0  0
    1.9940   -3.9577    5.5695 N   0  0  0  0  0  0  0  0  0  0  0  0
    1.8432   -3.9650    7.0059 C   0  0  0  0  0  0  0  0  0  0  0  0
    2.4550   -4.7530    5.1373 H   0  0  0  0  0  0  0  0  0  0  0  0
    2.7202   -3.4898    7.4695 H   0  0  0  0  0  0  0  0  0  0  0  0
    0.9357   -3.4079    7.2819 H   0  0  0  0  0  0  0  0  0  0  0  0
    1.7584   -5.0028    7.3603 H   0  0  0  0  0  0  0  0  0  0  0  0
  1  3  1  0  0  0  0
  1  7  1  0  0  0  0
  1  2  2  0  0  0  0
 18 19  1  0  0  0  0
 19 24  1  0  0  0  0
 19 20  2  0  0  0  0
 25 26  1  0  0  0  0
 26 34  1  0  0  0  0
 26 27  2  0  0  0  0
  8  9  1  0  0  0  0
  9 17  1  0  0  0  0
  9 10  2  0  0  0  0
 25 28  1  0  0  0  0
  8 11  1  0  0  0  0
 34 35  1  0  0  0  0
 17 18  1  0  0  0  0
 24 25  1  0  0  0  0
  7  8  1  0  0  0  0
  3  4  1  0  0  0  0
  3  5  1  0  0  0  0
  3  6  1  0  0  0  0
 28 31  1  0  0  0  0
 28 32  1  0  0  0  0
 28 33  1  0  0  0  0
 11 14  1  0  0  0  0
 11 15  1  0  0  0  0
 11 16  1  0  0  0  0
 35 37  1  0  0  0  0
 35 38  1  0  0  0  0
 35 39  1  0  0  0  0
 18 22  1  0  0  0  0
 18 23  1  0  0  0  0
 25 30  1  0  0  0  0
  8 13  1  0  0  0  0
 34 36  1  0  0  0  0
 17 21  1  0  0  0  0
  7 12  1  0  0  0  0
 24 29  1  0  0  0  0
M  END
$$$$

  -OEChem-05262214473D

 39 38  0     1  0  0  0  0  0999 V2000
   -3.5200   -4.0268   -1.6943 C   0  0  0  0  0  0  0  0  0  0  0  0
   -2.8702   -4.8827   -1.1054 O   0  0  0  0  0  0  0  0  0  0  0  0
   -4.9704   -4.2579   -1.9614 C   0  0  0  0  0  0  0  0  0  0  0  0
   -5.1456   -4.7573   -2.9278 H   0  0  0  0  0  0  0  0  0  0  0  0
   -5.4379   -4.9112   -1.2072 H   0  0  0  0  0  0  0  0  0  0  0  0
   -5.5954   -3.3510   -1.9864 H   0  0  0  0  0  0  0  0  0  0  0  0
   -3.0424   -2.8131   -2.1606 N   0  0  0  0  0  0  0  0  0  0  0  0
   -1.6755   -2.3891   -2.0077 C   0  0  2  0  0  0  0  0  0  0  0  0
   -1.5782   -1.5673   -0.7292 C   0  0  0  0  0  0  0  0  0  0  0  0
   -2.5448   -1.0064   -0.2171 O   0  0  0  0  0  0  0  0  0  0  0  0
   -1.2087   -1.5823   -3.2094 C   0  0  0  0  0  0  0  0  0  0  0  0
   -3.6915   -2.1888   -2.6360 H   0  0  0  0  0  0  0  0  0  0  0  0
   -1.0721   -3.2977   -1.9053 H   0  0  0  0  0  0  0  0  0  0  0  0
   -1.8017   -0.6681   -3.3281 H   0  0  0  0  0  0  0  0  0  0  0  0
   -0.1601   -1.2849   -3.1045 H   0  0  0  0  0  0  0  0  0  0  0  0
   -1.3074   -2.1646   -4.1319 H   0  0  0  0  0  0  0  0  0  0  0  0
   -0.2835   -1.5112   -0.2725 N   0  0  0  0  0  0  0  0  0  0  0  0
    0.0769   -0.7658    0.9424 C   0  0  0  0  0  0  0  0  0  0  0  0
    1.2644   -1.4185    1.6026 C   0  0  0  0  0  0  0  0  0  0  0  0
    2.4016   -0.9569    1.5563 O   0  0  0  0  0  0  0  0  0  0  0  0
    0.4587   -2.0097   -0.7289 H   0  0  0  0  0  0  0  0  0  0  0  0
   -0.7735   -0.7660    1.6307 H   0  0  0  0  0  0  0  0  0  0  0  0
    0.3233    0.2650    0.6715 H   0  0  0  0  0  0  0  0  0  0  0  0
    0.9058   -2.5928    2.2559 N   0  0  0  0  0  0  0  0  0  0  0  0
    1.8414   -3.4224    2.9683 C   0  0  2  0  0  0  0  0  0  0  0  0
    1.3617   -3.5423    4.4088 C   0  0  0  0  0  0  0  0  0  0  0  0
    0.6116   -2.7236    4.9364 O   0  0  0  0  0  0  0  0  0  0  0  0
    3.2477   -2.8464    2.9100 C   0  0  0  0  0  0  0  0  0  0  0  0
   -0.0709   -2.8810    2.2286 H   0  0  0  0  0  0  0  0  0  0  0  0
    1.8170   -4.4083    2.4914 H   0  0  0  0  0  0  0  0  0  0  0  0
    3.2919   -1.8587    3.3830 H   0  0  0  0  0  0  0  0  0  0  0  0
    3.9633   -3.4934    3.4281 H   0  0  0  0  0  0  0  0  0  0  0  0
    3.5797   -2.7331    1.8723 H   0  0  0  0  0  0  0  0  0  0  0  0
    1.9040   -4.6477    5.0492 N   0  0  0  0  0  0  0  0  0  0  0  0
    1.6119   -4.9723    6.4259 C   0  0  0  0  0  0  0  0  0  0  0  0
    2.5017   -5.2832    4.5290 H   0  0  0  0  0  0  0  0  0  0  0  0
    2.3717   -4.5186    7.0793 H   0  0  0  0  0  0  0  0  0  0  0  0
    0.6189   -4.5810    6.6920 H   0  0  0  0  0  0  0  0  0  0  0  0
    1.6224   -6.0646    6.5552 H   0  0  0  0  0  0  0  0  0  0  0  0
  1  3  1  0  0  0  0
  1  7  1  0  0  0  0
  1  2  2  0  0  0  0
 18 19  1  0  0  0  0
 19 24  1  0  0  0  0
 19 20  2  0  0  0  0
 25 26  1  0  0  0  0
 26 34  1  0  0  0  0
 26 27  2  0  0  0  0
  8  9  1  0  0  0  0
  9 17  1  0  0  0  0
  9 10  2  0  0  0  0
 25 28  1  0  0  0  0
  8 11  1  0  0  0  0
 34 35  1  0  0  0  0
 17 18  1  0  0  0  0
 24 25  1  0  0  0  0
  7  8  1  0  0  0  0
  3  4  1  0  0  0  0
  3  5  1  0  0  0  0
  3  6  1  0  0  0  0
 28 31  1  0  0  0  0
 28 32  1  0  0  0  0
 28 33  1  0  0  0  0
 11 14  1  0  0  0  0
 11 15  1  0  0  0  0
 11 16  1  0  0  0  0
 35 37  1  0  0  0  0
 35 38  1  0  0  0  0
 35 39  1  0  0  0  0
 18 22  1  0  0  0  0
 18 23  1  0  0  0  0
 25 30  1  0  0  0  0
  8 13  1  0  0  0  0
 34 36  1  0  0  0  0
 17 21  1  0  0  0  0
  7 12  1  0  0  0  0
 24 29  1  0  0  0  0
M  END
$$$$

  -OEChem-05262214473D

 39 38  0     1  0  0  0  0  0999 V2000
   -3.5200   -4.0268   -1.6943 C   0  0  0  0  0  0  0  0  0  0  0  0
   -2.8702   -4.8827   -1.1054 O   0  0  0  0  0  0  0  0  0  0  0  0
   -4.9704   -4.2579   -1.9614 C   0  0  0  0  0  0  0  0  0  0  0  0
   -5.1456   -4.7573   -2.9278 H   0  0  0  0  0  0  0  0  0  0  0  0
   -5.4379   -4.9112   -1.2072 H   0  0  0  0  0  0  0  0  0  0  0  0
   -5.5954   -3.3510   -1.9864 H   0  0  0  0  0  0  0  0  0  0  0  0
   -3.0424   -2.8131   -2.1606 N   0  0  0  0  0  0  0  0  0  0  0  0
   -1.6755   -2.3891   -2.0077 C   0  0  2  0  0  0  0  0  0  0  0  0
   -1.5782   -1.5673   -0.7292 C   0  0  0  0  0  0  0  0  0  0  0  0
   -2.5448   -1.0064   -0.2171 O   0  0  0  0  0  0  0  0  0  0  0  0
   -1.2087   -1.5823   -3.2094 C   0  0  0  0  0  0  0  0  0  0  0  0
   -3.6915   -2.1888   -2.6360 H   0  0  0  0  0  0  0  0  0  0  0  0
   -1.0721   -3.2977   -1.9053 H   0  0  0  0  0  0  0  0  0  0  0  0
   -1.8017   -0.6681   -3.3281 H   0  0  0  0  0  0  0  0  0  0  0  0
   -0.1601   -1.2849   -3.1045 H   0  0  0  0  0  0  0  0  0  0  0  0
   -1.3074   -2.1646   -4.1319 H   0  0  0  0  0  0  0  0  0  0  0  0
   -0.2835   -1.5112   -0.2725 N   0  0  0  0  0  0  0  0  0  0  0  0
    0.0769   -0.7658    0.9424 C   0  0  0  0  0  0  0  0  0  0  0  0
    1.2644   -1.4185    1.6026 C   0  0  0  0  0  0  0  0  0  0  0  0
    2.3339   -0.8443    1.7895 O   0  0  0  0  0  0  0  0  0  0  0  0
    0.4587   -2.0097   -0.7289 H   0  0  0  0  0  0  0  0  0  0  0  0
   -0.7735   -0.7660    1.6307 H   0  0  0  0  0  0  0  0  0  0  0  0
    0.3233    0.2650    0.6715 H   0  0  0  0  0  0  0  0  0  0  0  0
    0.9916   -2.7342    1.9616 N   0  0  0  0  0  0  0  0  0  0  0  0
    1.9474   -3.5955    2.6065 C   0  0  2  0  0  0  0  0  0  0  0  0
    1.3443   -4.0639    3.9242 C   0  0  0  0  0  0  0  0  0  0  0  0
    0.4488   -3.4552    4.5060 O   0  0  0  0  0  0  0  0  0  0  0  0
    3.2694   -2.8802    2.8376 C   0  0  0  0  0  0  0  0  0  0  0  0
    0.0663   -3.1080    1.7573 H   0  0  0  0  0  0  0  0  0  0  0  0
    2.0943   -4.4563    1.9450 H   0  0  0  0  0  0  0  0  0  0  0  0
    3.1421   -2.0148    3.4982 H   0  0  0  0  0  0  0  0  0  0  0  0
    4.0046   -3.5454    3.3023 H   0  0  0  0  0  0  0  0  0  0  0  0
    3.6870   -2.5179    1.8920 H   0  0  0  0  0  0  0  0  0  0  0  0
    1.9535   -5.2183    4.3959 N   0  0  0  0  0  0  0  0  0  0  0  0
    1.5677   -5.8532    5.6345 C   0  0  0  0  0  0  0  0  0  0  0  0
    2.6752   -5.6660    3.8386 H   0  0  0  0  0  0  0  0  0  0  0  0
    2.1955   -5.4722    6.4535 H   0  0  0  0  0  0  0  0  0  0  0  0
    0.5119   -5.6298    5.8475 H   0  0  0  0  0  0  0  0  0  0  0  0
    1.7016   -6.9414    5.5458 H   0  0  0  0  0  0  0  0  0  0  0  0
  1  3  1  0  0  0  0
  1  7  1  0  0  0  0
  1  2  2  0  0  0  0
 18 19  1  0  0  0  0
 19 24  1  0  0  0  0
 19 20  2  0  0  0  0
 25 26  1  0  0  0  0
 26 34  1  0  0  0  0
 26 27  2  0  0  0  0
  8  9  1  0  0  0  0
  9 17  1  0  0  0  0
  9 10  2  0  0  0  0
 25 28  1  0  0  0  0
  8 11  1  0  0  0  0
 34 35  1  0  0  0  0
 17 18  1  0  0  0  0
 24 25  1  0  0  0  0
  7  8  1  0  0  0  0
  3  4  1  0  0  0  0
  3  5  1  0  0  0  0
  3  6  1  0  0  0  0
 28 31  1  0  0  0  0
 28 32  1  0  0  0  0
 28 33  1  0  0  0  0
 11 14  1  0  0  0  0
 11 15  1  0  0  0  0
 11 16  1  0  0  0  0
 35 37  1  0  0  0  0
 35 38  1  0  0  0  0
 35 39  1  0  0  0  0
 18 22  1  0  0  0  0
 18 23  1  0  0  0  0
 25 30  1  0  0  0  0
  8 13  1  0  0  0  0
 34 36  1  0  0  0  0
 17 21  1  0  0  0  0
  7 12  1  0  0  0  0
 24 29  1  0  0  0  0
M  END
$$$$

  -OEChem-05262214473D

 39 38  0     1  0  0  0  0  0999 V2000
   -3.5200   -4.0268   -1.6943 C   0  0  0  0  0  0  0  0  0  0  0  0
   -2.8702   -4.8827   -1.1054 O   0  0  0  0  0  0  0  0  0  0  0  0
   -4.9704   -4.2579   -1.9614 C   0  0  0  0  0  0  0  0  0  0  0  0
   -5.1456   -4.7573   -2.9278 H   0  0  0  0  0  0  0  0  0  0  0  0
   -5.4379   -4.9112   -1.2072 H   0  0  0  0  0  0  0  0  0  0  0  0
   -5.5954   -3.3510   -1.9864 H   0  0  0  0  0  0  0  0  0  0  0  0
   -3.0424   -2.8131   -2.1606 N   0  0  0  0  0  0  0  0  0  0  0  0
   -1.6755   -2.3891   -2.0077 C   0  0  2  0  0  0  0  0  0  0  0  0
   -1.5782   -1.5673   -0.7292 C   0  0  0  0  0  0  0  0  0  0  0  0
   -2.5448   -1.0064   -0.2171 O   0  0  0  0  0  0  0  0  0  0  0  0
   -1.2087   -1.5823   -3.2094 C   0  0  0  0  0  0  0  0  0  0  0  0
   -3.6915   -2.1888   -2.6360 H   0  0  0  0  0  0  0  0  0  0  0  0
   -1.0721   -3.2977   -1.9053 H   0  0  0  0  0  0  0  0  0  0  0  0
   -1.8017   -0.6681   -3.3281 H   0  0  0  0  0  0  0  0  0  0  0  0
   -0.1601   -1.2849   -3.1045 H   0  0  0  0  0  0  0  0  0  0  0  0
   -1.3074   -2.1646   -4.1319 H   0  0  0  0  0  0  0  0  0  0  0  0
   -0.2835   -1.5112   -0.2725 N   0  0  0  0  0  0  0  0  0  0  0  0
    0.0769   -0.7658    0.9424 C   0  0  0  0  0  0  0  0  0  0  0  0
    1.2644   -1.4185    1.6026 C   0  0  0  0  0  0  0  0  0  0  0  0
    2.2296   -0.7907    2.0302 O   0  0  0  0  0  0  0  0  0  0  0  0
    0.4587   -2.0097   -0.7289 H   0  0  0  0  0  0  0  0  0  0  0  0
   -0.7735   -0.7660    1.6307 H   0  0  0  0  0  0  0  0  0  0  0  0
    0.3233    0.2650    0.6715 H   0  0  0  0  0  0  0  0  0  0  0  0
    1.1236   -2.8010    1.6582 N   0  0  0  0  0  0  0  0  0  0  0  0
    2.1100   -3.6770    2.2336 C   0  0  2  0  0  0  0  0  0  0  0  0
    1.4410   -4.4710    3.3479 C   0  0  0  0  0  0  0  0  0  0  0  0
    0.4226   -4.0926    3.9229 O   0  0  0  0  0  0  0  0  0  0  0  0
    3.3022   -2.8956    2.7633 C   0  0  0  0  0  0  0  0  0  0  0  0
    0.2774   -3.2156    1.2710 H   0  0  0  0  0  0  0  0  0  0  0  0
    2.4289   -4.3598    1.4386 H   0  0  0  0  0  0  0  0  0  0  0  0
    3.0022   -2.2060    3.5608 H   0  0  0  0  0  0  0  0  0  0  0  0
    4.0645   -3.5654    3.1749 H   0  0  0  0  0  0  0  0  0  0  0  0
    3.7640   -2.3019    1.9669 H   0  0  0  0  0  0  0  0  0  0  0  0
    2.1393   -5.6306    3.6541 N   0  0  0  0  0  0  0  0  0  0  0  0
    1.7136   -6.5477    4.6854 C   0  0  0  0  0  0  0  0  0  0  0  0
    2.9635   -5.8752    3.1130 H   0  0  0  0  0  0  0  0  0  0  0  0
    2.2034   -6.2857    5.6348 H   0  0  0  0  0  0  0  0  0  0  0  0
    0.6221   -6.4828    4.8059 H   0  0  0  0  0  0  0  0  0  0  0  0
    1.9906   -7.5736    4.4009 H   0  0  0  0  0  0  0  0  0  0  0  0
  1  3  1  0  0  0  0
  1  7  1  0  0  0  0
  1  2  2  0  0  0  0
 18 19  1  0  0  0  0
 19 24  1  0  0  0  0
 19 20  2  0  0  0  0
 25 26  1  0  0  0  0
 26 34  1  0  0  0  0
 26 27  2  0  0  0  0
  8  9  1  0  0  0  0
  9 17  1  0  0  0  0
  9 10  2  0  0  0  0
 25 28  1  0  0  0  0
  8 11  1  0  0  0  0
 34 35  1  0  0  0  0
 17 18  1  0  0  0  0
 24 25  1  0  0  0  0
  7  8  1  0  0  0  0
  3  4  1  0  0  0  0
  3  5  1  0  0  0  0
  3  6  1  0  0  0  0
 28 31  1  0  0  0  0
 28 32  1  0  0  0  0
 28 33  1  0  0  0  0
 11 14  1  0  0  0  0
 11 15  1  0  0  0  0
 11 16  1  0  0  0  0
 35 37  1  0  0  0  0
 35 38  1  0  0  0  0
 35 39  1  0  0  0  0
 18 22  1  0  0  0  0
 18 23  1  0  0  0  0
 25 30  1  0  0  0  0
  8 13  1  0  0  0  0
 34 36  1  0  0  0  0
 17 21  1  0  0  0  0
  7 12  1  0  0  0  0
 24 29  1  0  0  0  0
M  END
$$$$

  -OEChem-05262214473D

 39 38  0     1  0  0  0  0  0999 V2000
   -3.5200   -4.0268   -1.6943 C   0  0  0  0  0  0  0  0  0  0  0  0
   -2.8702   -4.8827   -1.1054 O   0  0  0  0  0  0  0  0  0  0  0  0
   -4.9704   -4.2579   -1.9614 C   0  0  0  0  0  0  0  0  0  0  0  0
   -5.1456   -4.7573   -2.9278 H   0  0  0  0  0  0  0  0  0  0  0  0
   -5.4379   -4.9112   -1.2072 H   0  0  0  0  0  0  0  0  0  0  0  0
   -5.5954   -3.3510   -1.9864 H   0  0  0  0  0  0  0  0  0  0  0  0
   -3.0424   -2.8131   -2.1606 N   0  0  0  0  0  0  0  0  0  0  0  0
   -1.6755   -2.3891   -2.0077 C   0  0  2  0  0  0  0  0  0  0  0  0
   -1.5782   -1.5673   -0.7292 C   0  0  0  0  0  0  0  0  0  0  0  0
   -2.5448   -1.0064   -0.2171 O   0  0  0  0  0  0  0  0  0  0  0  0
   -1.2087   -1.5823   -3.2094 C   0  0  0  0  0  0  0  0  0  0  0  0
   -3.6915   -2.1888   -2.6360 H   0  0  0  0  0  0  0  0  0  0  0  0
   -1.0721   -3.2977   -1.9053 H   0  0  0  0  0  0  0  0  0  0  0  0
   -1.8017   -0.6681   -3.3281 H   0  0  0  0  0  0  0  0  0  0  0  0
   -0.1601   -1.2849   -3.1045 H   0  0  0  0  0  0  0  0  0  0  0  0
   -1.3074   -2.1646   -4.1319 H   0  0  0  0  0  0  0  0  0  0  0  0
   -0.2835   -1.5112   -0.2725 N   0  0  0  0  0  0  0  0  0  0  0  0
    0.0769   -0.7658    0.9424 C   0  0  0  0  0  0  0  0  0  0  0  0
    1.2644   -1.4185    1.6026 C   0  0  0  0  0  0  0  0  0  0  0  0
    2.0957   -0.7999    2.2619 O   0  0  0  0  0  0  0  0  0  0  0  0
    0.4587   -2.0097   -0.7289 H   0  0  0  0  0  0  0  0  0  0  0  0
   -0.7735   -0.7660    1.6307 H   0  0  0  0  0  0  0  0  0  0  0  0
    0.3233    0.2650    0.6715 H   0  0  0  0  0  0  0  0  0  0  0  0
    1.2926   -2.7888    1.3662 N   0  0  0  0  0  0  0  0  0  0  0  0
    2.3180   -3.6612    1.8750 C   0  0  2  0  0  0  0  0  0  0  0  0
    1.6452   -4.7357    2.7190 C   0  0  0  0  0  0  0  0  0  0  0  0
    0.5349   -4.5923    3.2268 O   0  0  0  0  0  0  0  0  0  0  0  0
    3.3441   -2.8915    2.6920 C   0  0  0  0  0  0  0  0  0  0  0  0
    0.5481   -3.1965    0.8031 H   0  0  0  0  0  0  0  0  0  0  0  0
    2.7979   -4.1254    1.0065 H   0  0  0  0  0  0  0  0  0  0  0  0
    2.8817   -2.4194    3.5665 H   0  0  0  0  0  0  0  0  0  0  0  0
    4.1388   -3.5518    3.0544 H   0  0  0  0  0  0  0  0  0  0  0  0
    3.8056   -2.0998    2.0920 H   0  0  0  0  0  0  0  0  0  0  0  0
    2.4486   -5.8566    2.8742 N   0  0  0  0  0  0  0  0  0  0  0  0
    2.0395   -7.0086    3.6434 C   0  0  0  0  0  0  0  0  0  0  0  0
    3.3470   -5.8968    2.4019 H   0  0  0  0  0  0  0  0  0  0  0  0
    2.3951   -6.9037    4.6790 H   0  0  0  0  0  0  0  0  0  0  0  0
    0.9420   -7.0818    3.6382 H   0  0  0  0  0  0  0  0  0  0  0  0
    2.4698   -7.9179    3.1984 H   0  0  0  0  0  0  0  0  0  0  0  0
  1  3  1  0  0  0  0
  1  7  1  0  0  0  0
  1  2  2  0  0  0  0
 18 19  1  0  0  0  0
 19 24  1  0  0  0  0
 19 20  2  0  0  0  0
 25 26  1  0  0  0  0
 26 34  1  0  0  0  0
 26 27  2  0  0  0  0
  8  9  1  0  0  0  0
  9 17  1  0  0  0  0
  9 10  2  0  0  0  0
 25 28  1  0  0  0  0
  8 11  1  0  0  0  0
 34 35  1  0  0  0  0
 17 18  1  0  0  0  0
 24 25  1  0  0  0  0
  7  8  1  0  0  0  0
  3  4  1  0  0  0  0
  3  5  1  0  0  0  0
  3  6  1  0  0  0  0
 28 31  1  0  0  0  0
 28 32  1  0  0  0  0
 28 33  1  0  0  0  0
 11 14  1  0  0  0  0
 11 15  1  0  0  0  0
 11 16  1  0  0  0  0
 35 37  1  0  0  0  0
 35 38  1  0  0  0  0
 35 39  1  0  0  0  0
 18 22  1  0  0  0  0
 18 23  1  0  0  0  0
 25 30  1  0  0  0  0
  8 13  1  0  0  0  0
 34 36  1  0  0  0  0
 17 21  1  0  0  0  0
  7 12  1  0  0  0  0
 24 29  1  0  0  0  0
M  END
$$$$

  -OEChem-05262214473D

 39 38  0     1  0  0  0  0  0999 V2000
   -3.5200   -4.0268   -1.6943 C   0  0  0  0  0  0  0  0  0  0  0  0
   -2.8702   -4.8827   -1.1054 O   0  0  0  0  0  0  0  0  0  0  0  0
   -4.9704   -4.2579   -1.9614 C   0  0  0  0  0  0  0  0  0  0  0  0
   -5.1456   -4.7573   -2.9278 H   0  0  0  0  0  0  0  0  0  0  0  0
   -5.4379   -4.9112   -1.2072 H   0  0  0  0  0  0  0  0  0  0  0  0
   -5.5954   -3.3510   -1.9864 H   0  0  0  0  0  0  0  0  0  0  0  0
   -3.0424   -2.8131   -2.1606 N   0  0  0  0  0  0  0  0  0  0  0  0
   -1.6755   -2.3891   -2.0077 C   0  0  2  0  0  0  0  0  0  0  0  0
   -1.5782   -1.5673   -0.7292 C   0  0  0  0  0  0  0  0  0  0  0  0
   -2.5448   -1.0064   -0.2171 O   0  0  0  0  0  0  0  0  0  0  0  0
   -1.2087   -1.5823   -3.2094 C   0  0  0  0  0  0  0  0  0  0  0  0
   -3.6915   -2.1888   -2.6360 H   0  0  0  0  0  0  0  0  0  0  0  0
   -1.0721   -3.2977   -1.9053 H   0  0  0  0  0  0  0  0  0  0  0  0
   -1.8017   -0.6681   -3.3281 H   0  0  0  0  0  0  0  0  0  0  0  0
   -0.1601   -1.2849   -3.1045 H   0  0  0  0  0  0  0  0  0  0  0  0
   -1.3074   -2.1646   -4.1319 H   0  0  0  0  0  0  0  0  0  0  0  0
   -0.2835   -1.5112   -0.2725 N   0  0  0  0  0  0  0  0  0  0  0  0
    0.0769   -0.7658    0.9424 C   0  0  0  0  0  0  0  0  0  0  0  0
    1.2644   -1.4185    1.6026 C   0  0  0  0  0  0  0  0  0  0  0  0
    1.9415   -0.8711    2.4688 O   0  0  0  0  0  0  0  0  0  0  0  0
    0.4587   -2.0097   -0.7289 H   0  0  0  0  0  0  0  0  0  0  0  0
   -0.7735   -0.7660    1.6307 H   0  0  0  0  0  0  0  0  0  0  0  0
    0.3233    0.2650    0.6715 H   0  0  0  0  0  0  0  0  0  0  0  0
    1.4872   -2.6983    1.1056 N   0  0  0  0  0  0  0  0  0  0  0  0
    2.5573   -3.5492    1.5552 C   0  0  2  0  0  0  0  0  0  0  0  0
    1.9428   -4.8399    2.0804 C   0  0  0  0  0  0  0  0  0  0  0  0
    0.7780   -4.9203    2.4651 O   0  0  0  0  0  0  0  0  0  0  0  0
    3.3920   -2.8684    2.6287 C   0  0  0  0  0  0  0  0  0  0  0  0
    0.8597   -3.0520    0.3854 H   0  0  0  0  0  0  0  0  0  0  0  0
    3.1762   -3.7691    0.6784 H   0  0  0  0  0  0  0  0  0  0  0  0
    2.7889   -2.6403    3.5151 H   0  0  0  0  0  0  0  0  0  0  0  0
    4.2227   -3.5058    2.9492 H   0  0  0  0  0  0  0  0  0  0  0  0
    3.8088   -1.9254    2.2587 H   0  0  0  0  0  0  0  0  0  0  0  0
    2.8604   -5.8808    2.1096 N   0  0  0  0  0  0  0  0  0  0  0  0
    2.5234   -7.2043    2.5794 C   0  0  0  0  0  0  0  0  0  0  0  0
    3.7995   -5.7291    1.7535 H   0  0  0  0  0  0  0  0  0  0  0  0
    2.7574   -7.2840    3.6513 H   0  0  0  0  0  0  0  0  0  0  0  0
    1.4497   -7.3860    2.4241 H   0  0  0  0  0  0  0  0  0  0  0  0
    3.1064   -7.9511    2.0205 H   0  0  0  0  0  0  0  0  0  0  0  0
  1  3  1  0  0  0  0
  1  7  1  0  0  0  0
  1  2  2  0  0  0  0
 18 19  1  0  0  0  0
 19 24  1  0  0  0  0
 19 20  2  0  0  0  0
 25 26  1  0  0  0  0
 26 34  1  0  0  0  0
 26 27  2  0  0  0  0
  8  9  1  0  0  0  0
  9 17  1  0  0  0  0
  9 10  2  0  0  0  0
 25 28  1  0  0  0  0
  8 11  1  0  0  0  0
 34 35  1  0  0  0  0
 17 18  1  0  0  0  0
 24 25  1  0  0  0  0
  7  8  1  0  0  0  0
  3  4  1  0  0  0  0
  3  5  1  0  0  0  0
  3  6  1  0  0  0  0
 28 31  1  0  0  0  0
 28 32  1  0  0  0  0
 28 33  1  0  0  0  0
 11 14  1  0  0  0  0
 11 15  1  0  0  0  0
 11 16  1  0  0  0  0
 35 37  1  0  0  0  0
 35 38  1  0  0  0  0
 35 39  1  0  0  0  0
 18 22  1  0  0  0  0
 18 23  1  0  0  0  0
 25 30  1  0  0  0  0
  8 13  1  0  0  0  0
 34 36  1  0  0  0  0
 17 21  1  0  0  0  0
  7 12  1  0  0  0  0
 24 29  1  0  0  0  0
M  END
$$$$

  -OEChem-05262214473D

 39 38  0     1  0  0  0  0  0999 V2000
   -3.5200   -4.0268   -1.6943 C   0  0  0  0  0  0  0  0  0  0  0  0
   -2.8702   -4.8827   -1.1054 O   0  0  0  0  0  0  0  0  0  0  0  0
   -4.9704   -4.2579   -1.9614 C   0  0  0  0  0  0  0  0  0  0  0  0
   -5.1456   -4.7573   -2.9278 H   0  0  0  0  0  0  0  0  0  0  0  0
   -5.4379   -4.9112   -1.2072 H   0  0  0  0  0  0  0  0  0  0  0  0
   -5.5954   -3.3510   -1.9864 H   0  0  0  0  0  0  0  0  0  0  0  0
   -3.0424   -2.8131   -2.1606 N   0  0  0  0  0  0  0  0  0  0  0  0
   -1.6755   -2.3891   -2.0077 C   0  0  2  0  0  0  0  0  0  0  0  0
   -1.5782   -1.5673   -0.7292 C   0  0  0  0  0  0  0  0  0  0  0  0
   -2.5448   -1.0064   -0.2171 O   0  0  0  0  0  0  0  0  0  0  0  0
   -1.2087   -1.5823   -3.2094 C   0  0  0  0  0  0  0  0  0  0  0  0
   -3.6915   -2.1888   -2.6360 H   0  0  0  0  0  0  0  0  0  0  0  0
   -1.0721   -3.2977   -1.9053 H   0  0  0  0  0  0  0  0  0  0  0  0
   -1.8017   -0.6681   -3.3281 H   0  0  0  0  0  0  0  0  0  0  0  0
   -0.1601   -1.2849   -3.1045 H   0  0  0  0  0  0  0  0  0  0  0  0
   -1.3074   -2.1646   -4.1319 H   0  0  0  0  0  0  0  0  0  0  0  0
   -0.2835   -1.5112   -0.2725 N   0  0  0  0  0  0  0  0  0  0  0  0
    0.0769   -0.7658    0.9424 C   0  0  0  0  0  0  0  0  0  0  0  0
    1.2644   -1.4185    1.6026 C   0  0  0  0  0  0  0  0  0  0  0  0
    1.7775   -0.9996    2.6369 O   0  0  0  0  0  0  0  0  0  0  0  0
    0.4587   -2.0097   -0.7289 H   0  0  0  0  0  0  0  0  0  0  0  0
   -0.7735   -0.7660    1.6307 H   0  0  0  0  0  0  0  0  0  0  0  0
    0.3233    0.2650    0.6715 H   0  0  0  0  0  0  0  0  0  0  0  0
    1.6941   -2.5356    0.8942 N   0  0  0  0  0  0  0  0  0  0  0  0
    2.8117   -3.3487    1.2959 C   0  0  2  0  0  0  0  0  0  0  0  0
    2.3137   -4.7767    1.4757 C   0  0  0  0  0  0  0  0  0  0  0  0
    1.1355   -5.0543    1.6897 O   0  0  0  0  0  0  0  0  0  0  0  0
    3.4428   -2.8276    2.5776 C   0  0  0  0  0  0  0  0  0  0  0  0
    1.1912   -2.7919    0.0462 H   0  0  0  0  0  0  0  0  0  0  0  0
    3.5379   -3.3151    0.4764 H   0  0  0  0  0  0  0  0  0  0  0  0
    2.7300   -2.8537    3.4100 H   0  0  0  0  0  0  0  0  0  0  0  0
    4.3102   -3.4303    2.8663 H   0  0  0  0  0  0  0  0  0  0  0  0
    3.7735   -1.7906    2.4556 H   0  0  0  0  0  0  0  0  0  0  0  0
    3.3466   -5.7015    1.4122 N   0  0  0  0  0  0  0  0  0  0  0  0
    3.1323   -7.1215    1.5660 C   0  0  0  0  0  0  0  0  0  0  0  0
    4.2904   -5.3836    1.2122 H   0  0  0  0  0  0  0  0  0  0  0  0
    3.2656   -7.4008    2.6216 H   0  0  0  0  0  0  0  0  0  0  0  0
    2.1107   -7.3748    1.2461 H   0  0  0  0  0  0  0  0  0  0  0  0
    3.8571   -7.6708    0.9472 H   0  0  0  0  0  0  0  0  0  0  0  0
  1  3  1  0  0  0  0
  1  7  1  0  0  0  0
  1  2  2  0  0  0  0
 18 19  1  0  0  0  0
 19 24  1  0  0  0  0
 19 20  2  0  0  0  0
 25 26  1  0  0  0  0
 26 34  1  0  0  0  0
 26 27  2  0  0  0  0
  8  9  1  0  0  0  0
  9 17  1  0  0  0  0
  9 10  2  0  0  0  0
 25 28  1  0  0  0  0
  8 11  1  0  0  0  0
 34 35  1  0  0  0  0
 17 18  1  0  0  0  0
 24 25  1  0  0  0  0
  7  8  1  0  0  0  0
  3  4  1  0  0  0  0
  3  5  1  0  0  0  0
  3  6  1  0  0  0  0
 28 31  1  0  0  0  0
 28 32  1  0  0  0  0
 28 33  1  0  0  0  0
 11 14  1  0  0  0  0
 11 15  1  0  0  0  0
 11 16  1  0  0  0  0
 35 37  1  0  0  0  0
 35 38  1  0  0  0  0
 35 39  1  0  0  0  0
 18 22  1  0  0  0  0
 18 23  1  0  0  0  0
 25 30  1  0  0  0  0
  8 13  1  0  0  0  0
 34 36  1  0  0  0  0
 17 21  1  0  0  0  0
  7 12  1  0  0  0  0
 24 29  1  0  0  0  0
M  END
$$$$

  -OEChem-05262214473D

 39 38  0     1  0  0  0  0  0999 V2000
   -3.5200   -4.0268   -1.6943 C   0  0  0  0  0  0  0  0  0  0  0  0
   -2.8702   -4.8827   -1.1054 O   0  0  0  0  0  0  0  0  0  0  0  0
   -4.9704   -4.2579   -1.9614 C   0  0  0  0  0  0  0  0  0  0  0  0
   -5.1456   -4.7573   -2.9278 H   0  0  0  0  0  0  0  0  0  0  0  0
   -5.4379   -4.9112   -1.2072 H   0  0  0  0  0  0  0  0  0  0  0  0
   -5.5954   -3.3510   -1.9864 H   0  0  0  0  0  0  0  0  0  0  0  0
   -3.0424   -2.8131   -2.1606 N   0  0  0  0  0  0  0  0  0  0  0  0
   -1.6755   -2.3891   -2.0077 C   0  0  2  0  0  0  0  0  0  0  0  0
   -1.5782   -1.5673   -0.7292 C   0  0  0  0  0  0  0  0  0  0  0  0
   -2.5448   -1.0064   -0.2171 O   0  0  0  0  0  0  0  0  0  0  0  0
   -1.2087   -1.5823   -3.2094 C   0  0  0  0  0  0  0  0  0  0  0  0
   -3.6915   -2.1888   -2.6360 H   0  0  0  0  0  0  0  0  0  0  0  0
   -1.0721   -3.2977   -1.9053 H   0  0  0  0  0  0  0  0  0  0  0  0
   -1.8017   -0.6681   -3.3281 H   0  0  0  0  0  0  0  0  0  0  0  0
   -0.1601   -1.2849   -3.1045 H   0  0  0  0  0  0  0  0  0  0  0  0
   -1.3074   -2.1646   -4.1319 H   0  0  0  0  0  0  0  0  0  0  0  0
   -0.2835   -1.5112   -0.2725 N   0  0  0  0  0  0  0  0  0  0  0  0
    0.0769   -0.7658    0.9424 C   0  0  0  0  0  0  0  0  0  0  0  0
    1.2644   -1.4185    1.6026 C   0  0  0  0  0  0  0  0  0  0  0  0
    1.6147   -1.1766    2.7546 O   0  0  0  0  0  0  0  0  0  0  0  0
    0.4587   -2.0097   -0.7289 H   0  0  0  0  0  0  0  0  0  0  0  0
   -0.7735   -0.7660    1.6307 H   0  0  0  0  0  0  0  0  0  0  0  0
    0.3233    0.2650    0.6715 H   0  0  0  0  0  0  0  0  0  0  0  0
    1.8992   -2.3120    0.7464 N   0  0  0  0  0  0  0  0  0  0  0  0
    3.0637   -3.0734    1.1148 C   0  0  2  0  0  0  0  0  0  0  0  0
    2.7326   -4.5503    0.9461 C   0  0  0  0  0  0  0  0  0  0  0  0
    1.5828   -4.9851    0.9534 O   0  0  0  0  0  0  0  0  0  0  0  0
    3.4929   -2.7721    2.5423 C   0  0  0  0  0  0  0  0  0  0  0  0
    1.5199   -2.4339   -0.1911 H   0  0  0  0  0  0  0  0  0  0  0  0
    3.8586   -2.7944    0.4145 H   0  0  0  0  0  0  0  0  0  0  0  0
    2.7092   -3.0451    3.2583 H   0  0  0  0  0  0  0  0  0  0  0  0
    4.3955   -3.3306    2.8114 H   0  0  0  0  0  0  0  0  0  0  0  0
    3.7020   -1.7045    2.6693 H   0  0  0  0  0  0  0  0  0  0  0  0
    3.8741   -5.3311    0.8296 N   0  0  0  0  0  0  0  0  0  0  0  0
    3.8245   -6.7659    0.6723 C   0  0  0  0  0  0  0  0  0  0  0  0
    4.7860   -4.8839    0.8148 H   0  0  0  0  0  0  0  0  0  0  0  0
    3.8852   -7.2459    1.6602 H   0  0  0  0  0  0  0  0  0  0  0  0
    2.8799   -7.0488    0.1847 H   0  0  0  0  0  0  0  0  0  0  0  0
    4.6707   -7.0961    0.0518 H   0  0  0  0  0  0  0  0  0  0  0  0
  1  3  1  0  0  0  0
  1  7  1  0  0  0  0
  1  2  2  0  0  0  0
 18 19  1  0  0  0  0
 19 24  1  0  0  0  0
 19 20  2  0  0  0  0
 25 26  1  0  0  0  0
 26 34  1  0  0  0  0
 26 27  2  0  0  0  0
  8  9  1  0  0  0  0
  9 17  1  0  0  0  0
  9 10  2  0  0  0  0
 25 28  1  0  0  0  0
  8 11  1  0  0  0  0
 34 35  1  0  0  0  0
 17 18  1  0  0  0  0
 24 25  1  0  0  0  0
  7  8  1  0  0  0  0
  3  4  1  0  0  0  0
  3  5  1  0  0  0  0
  3  6  1  0  0  0  0
 28 31  1  0  0  0  0
 28 32  1  0  0  0  0
 28 33  1  0  0  0  0
 11 14  1  0  0  0  0
 11 15  1  0  0  0  0
 11 16  1  0  0  0  0
 35 37  1  0  0  0  0
 35 38  1  0  0  0  0
 35 39  1  0  0  0  0
 18 22  1  0  0  0  0
 18 23  1  0  0  0  0
 25 30  1  0  0  0  0
  8 13  1  0  0  0  0
 34 36  1  0  0  0  0
 17 21  1  0  0  0  0
  7 12  1  0  0  0  0
 24 29  1  0  0  0  0
M  END
$$$$

  -OEChem-05262214473D

 39 38  0     1  0  0  0  0  0999 V2000
   -3.5200   -4.0268   -1.6943 C   0  0  0  0  0  0  0  0  0  0  0  0
   -2.8702   -4.8827   -1.1054 O   0  0  0  0  0  0  0  0  0  0  0  0
   -4.9704   -4.2579   -1.9614 C   0  0  0  0  0  0  0  0  0  0  0  0
   -5.1456   -4.7573   -2.9278 H   0  0  0  0  0  0  0  0  0  0  0  0
   -5.4379   -4.9112   -1.2072 H   0  0  0  0  0  0  0  0  0  0  0  0
   -5.5954   -3.3510   -1.9864 H   0  0  0  0  0  0  0  0  0  0  0  0
   -3.0424   -2.8131   -2.1606 N   0  0  0  0  0  0  0  0  0  0  0  0
   -1.6755   -2.3891   -2.0077 C   0  0  2  0  0  0  0  0  0  0  0  0
   -1.5782   -1.5673   -0.7292 C   0  0  0  0  0  0  0  0  0  0  0  0
   -2.5448   -1.0064   -0.2171 O   0  0  0  0  0  0  0  0  0  0  0  0
   -1.2087   -1.5823   -3.2094 C   0  0  0  0  0  0  0  0  0  0  0  0
   -3.6915   -2.1888   -2.6360 H   0  0  0  0  0  0  0  0  0  0  0  0
   -1.0721   -3.2977   -1.9053 H   0  0  0  0  0  0  0  0  0  0  0  0
   -1.8017   -0.6681   -3.3281 H   0  0  0  0  0  0  0  0  0  0  0  0
   -0.1601   -1.2849   -3.1045 H   0  0  0  0  0  0  0  0  0  0  0  0
   -1.3074   -2.1646   -4.1319 H   0  0  0  0  0  0  0  0  0  0  0  0
   -0.2835   -1.5112   -0.2725 N   0  0  0  0  0  0  0  0  0  0  0  0
    0.0769   -0.7658    0.9424 C   0  0  0  0  0  0  0  0  0  0  0  0
    1.2644   -1.4185    1.6026 C   0  0  0  0  0  0  0  0  0  0  0  0
    1.4644   -1.3900    2.8140 O   0  0  0  0  0  0  0  0  0  0  0  0
    0.4587   -2.0097   -0.7289 H   0  0  0  0  0  0  0  0  0  0  0  0
   -0.7735   -0.7660    1.6307 H   0  0  0  0  0  0  0  0  0  0  0  0
    0.3233    0.2650    0.6715 H   0  0  0  0  0  0  0  0  0  0  0  0
    2.0886   -2.0425    0.6722 N   0  0  0  0  0  0  0  0  0  0  0  0
    3.2962   -2.7419    1.0243 C   0  0  2  0  0  0  0  0  0  0  0  0
    3.1709   -4.1762    0.5276 C   0  0  0  0  0  0  0  0  0  0  0  0
    2.0895   -4.7174    0.3065 O   0  0  0  0  0  0  0  0  0  0  0  0
    3.5390   -2.7057    2.5251 C   0  0  0  0  0  0  0  0  0  0  0  0
    1.8235   -2.0024   -0.3106 H   0  0  0  0  0  0  0  0  0  0  0  0
    4.1162   -2.2425    0.4968 H   0  0  0  0  0  0  0  0  0  0  0  0
    2.7277   -3.2014    3.0705 H   0  0  0  0  0  0  0  0  0  0  0  0
    4.4727   -3.2135    2.7883 H   0  0  0  0  0  0  0  0  0  0  0  0
    3.5992   -1.6730    2.8853 H   0  0  0  0  0  0  0  0  0  0  0  0
    4.4069   -4.7947    0.4015 N   0  0  0  0  0  0  0  0  0  0  0  0
    4.5531   -6.1617   -0.0409 C   0  0  0  0  0  0  0  0  0  0  0  0
    5.2526   -4.2640    0.5883 H   0  0  0  0  0  0  0  0  0  0  0  0
    4.5738   -6.8301    0.8325 H   0  0  0  0  0  0  0  0  0  0  0  0
    3.7050   -6.4303   -0.6879 H   0  0  0  0  0  0  0  0  0  0  0  0
    5.4918   -6.2661   -0.6047 H   0  0  0  0  0  0  0  0  0  0  0  0
  1  3  1  0  0  0  0
  1  7  1  0  0  0  0
  1  2  2  0  0  0  0
 18 19  1  0  0  0  0
 19 24  1  0  0  0  0
 19 20  2  0  0  0  0
 25 26  1  0  0  0  0
 26 34  1  0  0  0  0
 26 27  2  0  0  0  0
  8  9  1  0  0  0  0
  9 17  1  0  0  0  0
  9 10  2  0  0  0  0
 25 28  1  0  0  0  0
  8 11  1  0  0  0  0
 34 35  1  0  0  0  0
 17 18  1  0  0  0  0
 24 25  1  0  0  0  0
  7  8  1  0  0  0  0
  3  4  1  0  0  0  0
  3  5  1  0  0  0  0
  3  6  1  0  0  0  0
 28 31  1  0  0  0  0
 28 32  1  0  0  0  0
 28 33  1  0  0  0  0
 11 14  1  0  0  0  0
 11 15  1  0  0  0  0
 11 16  1  0  0  0  0
 35 37  1  0  0  0  0
 35 38  1  0  0  0  0
 35 39  1  0  0  0  0
 18 22  1  0  0  0  0
 18 23  1  0  0  0  0
 25 30  1  0  0  0  0
  8 13  1  0  0  0  0
 34 36  1  0  0  0  0
 17 21  1  0  0  0  0
  7 12  1  0  0  0  0
 24 29  1  0  0  0  0
M  END
$$$$

  -OEChem-05262214473D

 39 38  0     1  0  0  0  0  0999 V2000
   -3.5200   -4.0268   -1.6943 C   0  0  0  0  0  0  0  0  0  0  0  0
   -2.8702   -4.8827   -1.1054 O   0  0  0  0  0  0  0  0  0  0  0  0
   -4.9704   -4.2579   -1.9614 C   0  0  0  0  0  0  0  0  0  0  0  0
   -5.1456   -4.7573   -2.9278 H   0  0  0  0  0  0  0  0  0  0  0  0
   -5.4379   -4.9112   -1.2072 H   0  0  0  0  0  0  0  0  0  0  0  0
   -5.5954   -3.3510   -1.9864 H   0  0  0  0  0  0  0  0  0  0  0  0
   -3.0424   -2.8131   -2.1606 N   0  0  0  0  0  0  0  0  0  0  0  0
   -1.6755   -2.3891   -2.0077 C   0  0  2  0  0  0  0  0  0  0  0  0
   -1.5782   -1.5673   -0.7292 C   0  0  0  0  0  0  0  0  0  0  0  0
   -2.5448   -1.0064   -0.2171 O   0  0  0  0  0  0  0  0  0  0  0  0
   -1.2087   -1.5823   -3.2094 C   0  0  0  0  0  0  0  0  0  0  0  0
   -3.6915   -2.1888   -2.6360 H   0  0  0  0  0  0  0  0  0  0  0  0
   -1.0721   -3.2977   -1.9053 H   0  0  0  0  0  0  0  0  0  0  0  0
   -1.8017   -0.6681   -3.3281 H   0  0  0  0  0  0  0  0  0  0  0  0
   -0.1601   -1.2849   -3.1045 H   0  0  0  0  0  0  0  0  0  0  0  0
   -1.3074   -2.1646   -4.1319 H   0  0  0  0  0  0  0  0  0  0  0  0
   -0.2835   -1.5112   -0.2725 N   0  0  0  0  0  0  0  0  0  0  0  0
    0.0769   -0.7658    0.9424 C   0  0  0  0  0  0  0  0  0  0  0  0
    1.2644   -1.4185    1.6026 C   0  0  0  0  0  0  0  0  0  0  0  0
    1.3367   -1.6253    2.8111 O   0  0  0  0  0  0  0  0  0  0  0  0
    0.4587   -2.0097   -0.7289 H   0  0  0  0  0  0  0  0  0  0  0  0
   -0.7735   -0.7660    1.6307 H   0  0  0  0  0  0  0  0  0  0  0  0
    0.3233    0.2650    0.6715 H   0  0  0  0  0  0  0  0  0  0  0  0
    2.2493   -1.7457    0.6766 N   0  0  0  0  0  0  0  0  0  0  0  0
    3.4933   -2.3769    1.0305 C   0  0  2  0  0  0  0  0  0  0  0  0
    3.5987   -3.6797    0.2488 C   0  0  0  0  0  0  0  0  0  0  0  0
    2.6212   -4.2695   -0.2070 O   0  0  0  0  0  0  0  0  0  0  0  0
    3.5779   -2.6327    2.5272 C   0  0  0  0  0  0  0  0  0  0  0  0
    2.0812   -1.5269   -0.3040 H   0  0  0  0  0  0  0  0  0  0  0  0
    4.2932   -1.6969    0.7177 H   0  0  0  0  0  0  0  0  0  0  0  0
    2.7843   -3.3120    2.8592 H   0  0  0  0  0  0  0  0  0  0  0  0
    4.5367   -3.0869    2.7985 H   0  0  0  0  0  0  0  0  0  0  0  0
    3.4721   -1.6983    3.0889 H   0  0  0  0  0  0  0  0  0  0  0  0
    4.9087   -4.1289    0.1571 N   0  0  0  0  0  0  0  0  0  0  0  0
    5.2682   -5.3501   -0.5249 C   0  0  0  0  0  0  0  0  0  0  0  0
    5.6584   -3.5661    0.5483 H   0  0  0  0  0  0  0  0  0  0  0  0
    5.2846   -6.1816    0.1951 H   0  0  0  0  0  0  0  0  0  0  0  0
    4.5295   -5.5614   -1.3121 H   0  0  0  0  0  0  0  0  0  0  0  0
    6.2644   -5.2375   -0.9775 H   0  0  0  0  0  0  0  0  0  0  0  0
  1  3  1  0  0  0  0
  1  7  1  0  0  0  0
  1  2  2  0  0  0  0
 18 19  1  0  0  0  0
 19 24  1  0  0  0  0
 19 20  2  0  0  0  0
 25 26  1  0  0  0  0
 26 34  1  0  0  0  0
 26 27  2  0  0  0  0
  8  9  1  0  0  0  0
  9 17  1  0  0  0  0
  9 10  2  0  0  0  0
 25 28  1  0  0  0  0
  8 11  1  0  0  0  0
 34 35  1  0  0  0  0
 17 18  1  0  0  0  0
 24 25  1  0  0  0  0
  7  8  1  0  0  0  0
  3  4  1  0  0  0  0
  3  5  1  0  0  0  0
  3  6  1  0  0  0  0
 28 31  1  0  0  0  0
 28 32  1  0  0  0  0
 28 33  1  0  0  0  0
 11 14  1  0  0  0  0
 11 15  1  0  0  0  0
 11 16  1  0  0  0  0
 35 37  1  0  0  0  0
 35 38  1  0  0  0  0
 35 39  1  0  0  0  0
 18 22  1  0  0  0  0
 18 23  1  0  0  0  0
 25 30  1  0  0  0  0
  8 13  1  0  0  0  0
 34 36  1  0  0  0  0
 17 21  1  0  0  0  0
  7 12  1  0  0  0  0
 24 29  1  0  0  0  0
M  END
$$$$

  -OEChem-05262214473D

 39 38  0     1  0  0  0  0  0999 V2000
   -3.5200   -4.0268   -1.6943 C   0  0  0  0  0  0  0  0  0  0  0  0
   -2.8702   -4.8827   -1.1054 O   0  0  0  0  0  0  0  0  0  0  0  0
   -4.9704   -4.2579   -1.9614 C   0  0  0  0  0  0  0  0  0  0  0  0
   -5.1456   -4.7573   -2.9278 H   0  0  0  0  0  0  0  0  0  0  0  0
   -5.4379   -4.9112   -1.2072 H   0  0  0  0  0  0  0  0  0  0  0  0
   -5.5954   -3.3510   -1.9864 H   0  0  0  0  0  0  0  0  0  0  0  0
   -3.0424   -2.8131   -2.1606 N   0  0  0  0  0  0  0  0  0  0  0  0
   -1.6755   -2.3891   -2.0077 C   0  0  2  0  0  0  0  0  0  0  0  0
   -1.5782   -1.5673   -0.7292 C   0  0  0  0  0  0  0  0  0  0  0  0
   -2.5448   -1.0064   -0.2171 O   0  0  0  0  0  0  0  0  0  0  0  0
   -1.2087   -1.5823   -3.2094 C   0  0  0  0  0  0  0  0  0  0  0  0
   -3.6915   -2.1888   -2.6360 H   0  0  0  0  0  0  0  0  0  0  0  0
   -1.0721   -3.2977   -1.9053 H   0  0  0  0  0  0  0  0  0  0  0  0
   -1.8017   -0.6681   -3.3281 H   0  0  0  0  0  0  0  0  0  0  0  0
   -0.1601   -1.2849   -3.1045 H   0  0  0  0  0  0  0  0  0  0  0  0
   -1.3074   -2.1646   -4.1319 H   0  0  0  0  0  0  0  0  0  0  0  0
   -0.2835   -1.5112   -0.2725 N   0  0  0  0  0  0  0  0  0  0  0  0
    0.0769   -0.7658    0.9424 C   0  0  0  0  0  0  0  0  0  0  0  0
    1.2644   -1.4185    1.6026 C   0  0  0  0  0  0  0  0  0  0  0  0
    1.2404   -1.8664    2.7459 O   0  0  0  0  0  0  0  0  0  0  0  0
    0.4587   -2.0097   -0.7289 H   0  0  0  0  0  0  0  0  0  0  0  0
   -0.7735   -0.7660    1.6307 H   0  0  0  0  0  0  0  0  0  0  0  0
    0.3233    0.2650    0.6715 H   0  0  0  0  0  0  0  0  0  0  0  0
    2.3703   -1.4416    0.7595 N   0  0  0  0  0  0  0  0  0  0  0  0
    3.6417   -2.0033    1.1330 C   0  0  2  0  0  0  0  0  0  0  0  0
    3.9869   -3.0949    0.1287 C   0  0  0  0  0  0  0  0  0  0  0  0
    3.1415   -3.6718   -0.5520 O   0  0  0  0  0  0  0  0  0  0  0  0
    3.6070   -2.5582    2.5485 C   0  0  0  0  0  0  0  0  0  0  0  0
    2.2754   -1.0398   -0.1717 H   0  0  0  0  0  0  0  0  0  0  0  0
    4.3776   -1.1950    1.0622 H   0  0  0  0  0  0  0  0  0  0  0  0
    2.8753   -3.3693    2.6390 H   0  0  0  0  0  0  0  0  0  0  0  0
    4.5829   -2.9594    2.8414 H   0  0  0  0  0  0  0  0  0  0  0  0
    3.3295   -1.7786    3.2661 H   0  0  0  0  0  0  0  0  0  0  0  0
    5.3453   -3.3790    0.1131 N   0  0  0  0  0  0  0  0  0  0  0  0
    5.9213   -4.3864   -0.7468 C   0  0  0  0  0  0  0  0  0  0  0  0
    5.9758   -2.8379    0.6974 H   0  0  0  0  0  0  0  0  0  0  0  0
    5.9691   -5.3447   -0.2088 H   0  0  0  0  0  0  0  0  0  0  0  0
    5.2975   -4.5014   -1.6455 H   0  0  0  0  0  0  0  0  0  0  0  0
    6.9359   -4.0804   -1.0414 H   0  0  0  0  0  0  0  0  0  0  0  0
  1  3  1  0  0  0  0
  1  7  1  0  0  0  0
  1  2  2  0  0  0  0
 18 19  1  0  0  0  0
 19 24  1  0  0  0  0
 19 20  2  0  0  0  0
 25 26  1  0  0  0  0
 26 34  1  0  0  0  0
 26 27  2  0  0  0  0
  8  9  1  0  0  0  0
  9 17  1  0  0  0  0
  9 10  2  0  0  0  0
 25 28  1  0  0  0  0
  8 11  1  0  0  0  0
 34 35  1  0  0  0  0
 17 18  1  0  0  0  0
 24 25  1  0  0  0  0
  7  8  1  0  0  0  0
  3  4  1  0  0  0  0
  3  5  1  0  0  0  0
  3  6  1  0  0  0  0
 28 31  1  0  0  0  0
 28 32  1  0  0  0  0
 28 33  1  0  0  0  0
 11 14  1  0  0  0  0
 11 15  1  0  0  0  0
 11 16  1  0  0  0  0
 35 37  1  0  0  0  0
 35 38  1  0  0  0  0
 35 39  1  0  0  0  0
 18 22  1  0  0  0  0
 18 23  1  0  0  0  0
 25 30  1  0  0  0  0
  8 13  1  0  0  0  0
 34 36  1  0  0  0  0
 17 21  1  0  0  0  0
  7 12  1  0  0  0  0
 24 29  1  0  0  0  0
M  END
$$$$

  -OEChem-05262214473D

 39 38  0     1  0  0  0  0  0999 V2000
   -3.5200   -4.0268   -1.6943 C   0  0  0  0  0  0  0  0  0  0  0  0
   -2.8702   -4.8827   -1.1054 O   0  0  0  0  0  0  0  0  0  0  0  0
   -4.9704   -4.2579   -1.9614 C   0  0  0  0  0  0  0  0  0  0  0  0
   -5.1456   -4.7573   -2.9278 H   0  0  0  0  0  0  0  0  0  0  0  0
   -5.4379   -4.9112   -1.2072 H   0  0  0  0  0  0  0  0  0  0  0  0
   -5.5954   -3.3510   -1.9864 H   0  0  0  0  0  0  0  0  0  0  0  0
   -3.0424   -2.8131   -2.1606 N   0  0  0  0  0  0  0  0  0  0  0  0
   -1.6755   -2.3891   -2.0077 C   0  0  2  0  0  0  0  0  0  0  0  0
   -1.5782   -1.5673   -0.7292 C   0  0  0  0  0  0  0  0  0  0  0  0
   -2.5448   -1.0064   -0.2171 O   0  0  0  0  0  0  0  0  0  0  0  0
   -1.2087   -1.5823   -3.2094 C   0  0  0  0  0  0  0  0  0  0  0  0
   -3.6915   -2.1888   -2.6360 H   0  0  0  0  0  0  0  0  0  0  0  0
   -1.0721   -3.2977   -1.9053 H   0  0  0  0  0  0  0  0  0  0  0  0
   -1.8017   -0.6681   -3.3281 H   0  0  0  0  0  0  0  0  0  0  0  0
   -0.1601   -1.2849   -3.1045 H   0  0  0  0  0  0  0  0  0  0  0  0
   -1.3074   -2.1646   -4.1319 H   0  0  0  0  0  0  0  0  0  0  0  0
   -0.2835   -1.5112   -0.2725 N   0  0  0  0  0  0  0  0  0  0  0  0
    0.0769   -0.7658    0.9424 C   0  0  0  0  0  0  0  0  0  0  0  0
    1.2644   -1.4185    1.6026 C   0  0  0  0  0  0  0  0  0  0  0  0
    1.1820   -2.0970    2.6230 O   0  0  0  0  0  0  0  0  0  0  0  0
    0.4587   -2.0097   -0.7289 H   0  0  0  0  0  0  0  0  0  0  0  0
   -0.7735   -0.7660    1.6307 H   0  0  0  0  0  0  0  0  0  0  0  0
    0.3233    0.2650    0.6715 H   0  0  0  0  0  0  0  0  0  0  0  0
    2.4435   -1.1511    0.9151 N   0  0  0  0  0  0  0  0  0  0  0  0
    3.7312   -1.6465    1.3249 C   0  0  2  0  0  0  0  0  0  0  0  0
    4.3091   -2.4614    0.1754 C   0  0  0  0  0  0  0  0  0  0  0  0
    3.6150   -2.9652   -0.7052 O   0  0  0  0  0  0  0  0  0  0  0  0
    3.6243   -2.4874    2.5875 C   0  0  0  0  0  0  0  0  0  0  0  0
    2.3930   -0.5741    0.0771 H   0  0  0  0  0  0  0  0  0  0  0  0
    4.3637   -0.7707    1.5067 H   0  0  0  0  0  0  0  0  0  0  0  0
    2.9943   -3.3694    2.4247 H   0  0  0  0  0  0  0  0  0  0  0  0
    4.6083   -2.8397    2.9140 H   0  0  0  0  0  0  0  0  0  0  0  0
    3.1809   -1.9085    3.4049 H   0  0  0  0  0  0  0  0  0  0  0  0
    5.6870   -2.5963    0.2723 N   0  0  0  0  0  0  0  0  0  0  0  0
    6.4677   -3.3363   -0.6915 C   0  0  0  0  0  0  0  0  0  0  0  0
    6.1831   -2.1289    1.0255 H   0  0  0  0  0  0  0  0  0  0  0  0
    6.5807   -4.3763   -0.3516 H   0  0  0  0  0  0  0  0  0  0  0  0
    5.9565   -3.3225   -1.6654 H   0  0  0  0  0  0  0  0  0  0  0  0
    7.4605   -2.8735   -0.7919 H   0  0  0  0  0  0  0  0  0  0  0  0
  1  3  1  0  0  0  0
  1  7  1  0  0  0  0
  1  2  2  0  0  0  0
 18 19  1  0  0  0  0
 19 24  1  0  0  0  0
 19 20  2  0  0  0  0
 25 26  1  0  0  0  0
 26 34  1  0  0  0  0
 26 27  2  0  0  0  0
  8  9  1  0  0  0  0
  9 17  1  0  0  0  0
  9 10  2  0  0  0  0
 25 28  1  0  0  0  0
  8 11  1  0  0  0  0
 34 35  1  0  0  0  0
 17 18  1  0  0  0  0
 24 25  1  0  0  0  0
  7  8  1  0  0  0  0
  3  4  1  0  0  0  0
  3  5  1  0  0  0  0
  3  6  1  0  0  0  0
 28 31  1  0  0  0  0
 28 32  1  0  0  0  0
 28 33  1  0  0  0  0
 11 14  1  0  0  0  0
 11 15  1  0  0  0  0
 11 16  1  0  0  0  0
 35 37  1  0  0  0  0
 35 38  1  0  0  0  0
 35 39  1  0  0  0  0
 18 22  1  0  0  0  0
 18 23  1  0  0  0  0
 25 30  1  0  0  0  0
  8 13  1  0  0  0  0
 34 36  1  0  0  0  0
 17 21  1  0  0  0  0
  7 12  1  0  0  0  0
 24 29  1  0  0  0  0
M  END
$$$$

  -OEChem-05262214473D

 39 38  0     1  0  0  0  0  0999 V2000
   -3.5200   -4.0268   -1.6943 C   0  0  0  0  0  0  0  0  0  0  0  0
   -2.8702   -4.8827   -1.1054 O   0  0  0  0  0  0  0  0  0  0  0  0
   -4.9704   -4.2579   -1.9614 C   0  0  0  0  0  0  0  0  0  0  0  0
   -5.1456   -4.7573   -2.9278 H   0  0  0  0  0  0  0  0  0  0  0  0
   -5.4379   -4.9112   -1.2072 H   0  0  0  0  0  0  0  0  0  0  0  0
   -5.5954   -3.3510   -1.9864 H   0  0  0  0  0  0  0  0  0  0  0  0
   -3.0424   -2.8131   -2.1606 N   0  0  0  0  0  0  0  0  0  0  0  0
   -1.6755   -2.3891   -2.0077 C   0  0  2  0  0  0  0  0  0  0  0  0
   -1.5782   -1.5673   -0.7292 C   0  0  0  0  0  0  0  0  0  0  0  0
   -2.5448   -1.0064   -0.2171 O   0  0  0  0  0  0  0  0  0  0  0  0
   -1.2087   -1.5823   -3.2094 C   0  0  0  0  0  0  0  0  0  0  0  0
   -3.6915   -2.1888   -2.6360 H   0  0  0  0  0  0  0  0  0  0  0  0
   -1.0721   -3.2977   -1.9053 H   0  0  0  0  0  0  0  0  0  0  0  0
   -1.8017   -0.6681   -3.3281 H   0  0  0  0  0  0  0  0  0  0  0  0
   -0.1601   -1.2849   -3.1045 H   0  0  0  0  0  0  0  0  0  0  0  0
   -1.3074   -2.1646   -4.1319 H   0  0  0  0  0  0  0  0  0  0  0  0
   -0.2835   -1.5112   -0.2725 N   0  0  0  0  0  0  0  0  0  0  0  0
    0.0769   -0.7658    0.9424 C   0  0  0  0  0  0  0  0  0  0  0  0
    1.2644   -1.4185    1.6026 C   0  0  0  0  0  0  0  0  0  0  0  0
    1.1655   -2.3013    2.4507 O   0  0  0  0  0  0  0  0  0  0  0  0
    0.4587   -2.0097   -0.7289 H   0  0  0  0  0  0  0  0  0  0  0  0
   -0.7735   -0.7660    1.6307 H   0  0  0  0  0  0  0  0  0  0  0  0
    0.3233    0.2650    0.6715 H   0  0  0  0  0  0  0  0  0  0  0  0
    2.4638   -0.8939    1.1328 N   0  0  0  0  0  0  0  0  0  0  0  0
    3.7556   -1.3308    1.5930 C   0  0  2  0  0  0  0  0  0  0  0  0
    4.5433   -1.8226    0.3858 C   0  0  0  0  0  0  0  0  0  0  0  0
    4.0094   -2.1978   -0.6559 O   0  0  0  0  0  0  0  0  0  0  0  0
    3.6286   -2.4249    2.6416 C   0  0  0  0  0  0  0  0  0  0  0  0
    2.4259   -0.1618    0.4256 H   0  0  0  0  0  0  0  0  0  0  0  0
    4.2523   -0.4532    2.0210 H   0  0  0  0  0  0  0  0  0  0  0  0
    3.1333   -3.3124    2.2311 H   0  0  0  0  0  0  0  0  0  0  0  0
    4.6112   -2.7361    3.0113 H   0  0  0  0  0  0  0  0  0  0  0  0
    3.0366   -2.0791    3.4958 H   0  0  0  0  0  0  0  0  0  0  0  0
    5.9105   -1.8339    0.6241 N   0  0  0  0  0  0  0  0  0  0  0  0
    6.8703   -2.2713   -0.3626 C   0  0  0  0  0  0  0  0  0  0  0  0
    6.2662   -1.4874    1.5102 H   0  0  0  0  0  0  0  0  0  0  0  0
    7.0777   -3.3425   -0.2234 H   0  0  0  0  0  0  0  0  0  0  0  0
    6.4617   -2.1050   -1.3703 H   0  0  0  0  0  0  0  0  0  0  0  0
    7.8025   -1.6992   -0.2459 H   0  0  0  0  0  0  0  0  0  0  0  0
  1  3  1  0  0  0  0
  1  7  1  0  0  0  0
  1  2  2  0  0  0  0
 18 19  1  0  0  0  0
 19 24  1  0  0  0  0
 19 20  2  0  0  0  0
 25 26  1  0  0  0  0
 26 34  1  0  0  0  0
 26 27  2  0  0  0  0
  8  9  1  0  0  0  0
  9 17  1  0  0  0  0
  9 10  2  0  0  0  0
 25 28  1  0  0  0  0
  8 11  1  0  0  0  0
 34 35  1  0  0  0  0
 17 18  1  0  0  0  0
 24 25  1  0  0  0  0
  7  8  1  0  0  0  0
  3  4  1  0  0  0  0
  3  5  1  0  0  0  0
  3  6  1  0  0  0  0
 28 31  1  0  0  0  0
 28 32  1  0  0  0  0
 28 33  1  0  0  0  0
 11 14  1  0  0  0  0
 11 15  1  0  0  0  0
 11 16  1  0  0  0  0
 35 37  1  0  0  0  0
 35 38  1  0  0  0  0
 35 39  1  0  0  0  0
 18 22  1  0  0  0  0
 18 23  1  0  0  0  0
 25 30  1  0  0  0  0
  8 13  1  0  0  0  0
 34 36  1  0  0  0  0
 17 21  1  0  0  0  0
  7 12  1  0  0  0  0
 24 29  1  0  0  0  0
M  END
$$$$

  -OEChem-05262214473D

 39 38  0     1  0  0  0  0  0999 V2000
   -3.5200   -4.0268   -1.6943 C   0  0  0  0  0  0  0  0  0  0  0  0
   -2.8702   -4.8827   -1.1054 O   0  0  0  0  0  0  0  0  0  0  0  0
   -4.9704   -4.2579   -1.9614 C   0  0  0  0  0  0  0  0  0  0  0  0
   -5.1456   -4.7573   -2.9278 H   0  0  0  0  0  0  0  0  0  0  0  0
   -5.4379   -4.9112   -1.2072 H   0  0  0  0  0  0  0  0  0  0  0  0
   -5.5954   -3.3510   -1.9864 H   0  0  0  0  0  0  0  0  0  0  0  0
   -3.0424   -2.8131   -2.1606 N   0  0  0  0  0  0  0  0  0  0  0  0
   -1.6755   -2.3891   -2.0077 C   0  0  2  0  0  0  0  0  0  0  0  0
   -1.5782   -1.5673   -0.7292 C   0  0  0  0  0  0  0  0  0  0  0  0
   -2.5448   -1.0064   -0.2171 O   0  0  0  0  0  0  0  0  0  0  0  0
   -1.2087   -1.5823   -3.2094 C   0  0  0  0  0  0  0  0  0  0  0  0
   -3.6915   -2.1888   -2.6360 H   0  0  0  0  0  0  0  0  0  0  0  0
   -1.0721   -3.2977   -1.9053 H   0  0  0  0  0  0  0  0  0  0  0  0
   -1.8017   -0.6681   -3.3281 H   0  0  0  0  0  0  0  0  0  0  0  0
   -0.1601   -1.2849   -3.1045 H   0  0  0  0  0  0  0  0  0  0  0  0
   -1.3074   -2.1646   -4.1319 H   0  0  0  0  0  0  0  0  0  0  0  0
   -0.2835   -1.5112   -0.2725 N   0  0  0  0  0  0  0  0  0  0  0  0
    0.0769   -0.7658    0.9424 C   0  0  0  0  0  0  0  0  0  0  0  0
    1.2644   -1.4185    1.6026 C   0  0  0  0  0  0  0  0  0  0  0  0
    1.1920   -2.4653    2.2408 O   0  0  0  0  0  0  0  0  0  0  0  0
    0.4587   -2.0097   -0.7289 H   0  0  0  0  0  0  0  0  0  0  0  0
   -0.7735   -0.7660    1.6307 H   0  0  0  0  0  0  0  0  0  0  0  0
    0.3233    0.2650    0.6715 H   0  0  0  0  0  0  0  0  0  0  0  0
    2.4299   -0.6876    1.3978 N   0  0  0  0  0  0  0  0  0  0  0  0
    3.7135   -1.0778    1.9190 C   0  0  2  0  0  0  0  0  0  0  0  0
    4.6735   -1.2219    0.7456 C   0  0  0  0  0  0  0  0  0  0  0  0
    4.2979   -1.4219   -0.4077 O   0  0  0  0  0  0  0  0  0  0  0  0
    3.6196   -2.3751    2.7070 C   0  0  0  0  0  0  0  0  0  0  0  0
    2.3720    0.1692    0.8500 H   0  0  0  0  0  0  0  0  0  0  0  0
    4.0511   -0.2640    2.5701 H   0  0  0  0  0  0  0  0  0  0  0  0
    3.2828   -3.2021    2.0713 H   0  0  0  0  0  0  0  0  0  0  0  0
    4.5913   -2.6555    3.1268 H   0  0  0  0  0  0  0  0  0  0  0  0
    2.9063   -2.2788    3.5327 H   0  0  0  0  0  0  0  0  0  0  0  0
    6.0005   -1.1439    1.1443 N   0  0  0  0  0  0  0  0  0  0  0  0
    7.1015   -1.2640    0.2173 C   0  0  0  0  0  0  0  0  0  0  0  0
    6.2194   -0.9573    2.1185 H   0  0  0  0  0  0  0  0  0  0  0  0
    7.4262   -2.3138    0.1668 H   0  0  0  0  0  0  0  0  0  0  0  0
    6.7785   -0.9319   -0.7804 H   0  0  0  0  0  0  0  0  0  0  0  0
    7.9385   -0.6375    0.5592 H   0  0  0  0  0  0  0  0  0  0  0  0
  1  3  1  0  0  0  0
  1  7  1  0  0  0  0
  1  2  2  0  0  0  0
 18 19  1  0  0  0  0
 19 24  1  0  0  0  0
 19 20  2  0  0  0  0
 25 26  1  0  0  0  0
 26 34  1  0  0  0  0
 26 27  2  0  0  0  0
  8  9  1  0  0  0  0
  9 17  1  0  0  0  0
  9 10  2  0  0  0  0
 25 28  1  0  0  0  0
  8 11  1  0  0  0  0
 34 35  1  0  0  0  0
 17 18  1  0  0  0  0
 24 25  1  0  0  0  0
  7  8  1  0  0  0  0
  3  4  1  0  0  0  0
  3  5  1  0  0  0  0
  3  6  1  0  0  0  0
 28 31  1  0  0  0  0
 28 32  1  0  0  0  0
 28 33  1  0  0  0  0
 11 14  1  0  0  0  0
 11 15  1  0  0  0  0
 11 16  1  0  0  0  0
 35 37  1  0  0  0  0
 35 38  1  0  0  0  0
 35 39  1  0  0  0  0
 18 22  1  0  0  0  0
 18 23  1  0  0  0  0
 25 30  1  0  0  0  0
  8 13  1  0  0  0  0
 34 36  1  0  0  0  0
 17 21  1  0  0  0  0
  7 12  1  0  0  0  0
 24 29  1  0  0  0  0
M  END
$$$$

  -OEChem-05262214473D

 39 38  0     1  0  0  0  0  0999 V2000
   -3.5200   -4.0268   -1.6943 C   0  0  0  0  0  0  0  0  0  0  0  0
   -2.8702   -4.8827   -1.1054 O   0  0  0  0  0  0  0  0  0  0  0  0
   -4.9704   -4.2579   -1.9614 C   0  0  0  0  0  0  0  0  0  0  0  0
   -5.1456   -4.7573   -2.9278 H   0  0  0  0  0  0  0  0  0  0  0  0
   -5.4379   -4.9112   -1.2072 H   0  0  0  0  0  0  0  0  0  0  0  0
   -5.5954   -3.3510   -1.9864 H   0  0  0  0  0  0  0  0  0  0  0  0
   -3.0424   -2.8131   -2.1606 N   0  0  0  0  0  0  0  0  0  0  0  0
   -1.6755   -2.3891   -2.0077 C   0  0  2  0  0  0  0  0  0  0  0  0
   -1.5782   -1.5673   -0.7292 C   0  0  0  0  0  0  0  0  0  0  0  0
   -2.5448   -1.0064   -0.2171 O   0  0  0  0  0  0  0  0  0  0  0  0
   -1.2087   -1.5823   -3.2094 C   0  0  0  0  0  0  0  0  0  0  0  0
   -3.6915   -2.1888   -2.6360 H   0  0  0  0  0  0  0  0  0  0  0  0
   -1.0721   -3.2977   -1.9053 H   0  0  0  0  0  0  0  0  0  0  0  0
   -1.8017   -0.6681   -3.3281 H   0  0  0  0  0  0  0  0  0  0  0  0
   -0.1601   -1.2849   -3.1045 H   0  0  0  0  0  0  0  0  0  0  0  0
   -1.3074   -2.1646   -4.1319 H   0  0  0  0  0  0  0  0  0  0  0  0
   -0.2835   -1.5112   -0.2725 N   0  0  0  0  0  0  0  0  0  0  0  0
    0.0769   -0.7658    0.9424 C   0  0  0  0  0  0  0  0  0  0  0  0
    1.2644   -1.4185    1.6026 C   0  0  0  0  0  0  0  0  0  0  0  0
    1.2598   -2.5779    2.0076 O   0  0  0  0  0  0  0  0  0  0  0  0
    0.4587   -2.0097   -0.7289 H   0  0  0  0  0  0  0  0  0  0  0  0
   -0.7735   -0.7660    1.6307 H   0  0  0  0  0  0  0  0  0  0  0  0
    0.3233    0.2650    0.6715 H   0  0  0  0  0  0  0  0  0  0  0  0
    2.3440   -0.5462    1.6921 N   0  0  0  0  0  0  0  0  0  0  0  0
    3.6075   -0.9046    2.2809 C   0  0  2  0  0  0  0  0  0  0  0  0
    4.6908   -0.7002    1.2301 C   0  0  0  0  0  0  0  0  0  0  0  0
    4.4608   -0.6903    0.0226 O   0  0  0  0  0  0  0  0  0  0  0  0
    3.5979   -2.3413    2.7793 C   0  0  0  0  0  0  0  0  0  0  0  0
    2.2347    0.3962    1.3213 H   0  0  0  0  0  0  0  0  0  0  0  0
    3.7737   -0.2160    3.1164 H   0  0  0  0  0  0  0  0  0  0  0  0
    3.4326   -3.0459    1.9561 H   0  0  0  0  0  0  0  0  0  0  0  0
    4.5500   -2.6035    3.2526 H   0  0  0  0  0  0  0  0  0  0  0  0
    2.7990   -2.4940    3.5130 H   0  0  0  0  0  0  0  0  0  0  0  0
    5.9510   -0.5733    1.7976 N   0  0  0  0  0  0  0  0  0  0  0  0
    7.1457   -0.3830    1.0088 C   0  0  0  0  0  0  0  0  0  0  0  0
    6.0460   -0.5745    2.8089 H   0  0  0  0  0  0  0  0  0  0  0  0
    7.6025   -1.3601    0.7926 H   0  0  0  0  0  0  0  0  0  0  0  0
    6.8855    0.1169    0.0641 H   0  0  0  0  0  0  0  0  0  0  0  0
    7.8593    0.2394    1.5686 H   0  0  0  0  0  0  0  0  0  0  0  0
  1  3  1  0  0  0  0
  1  7  1  0  0  0  0
  1  2  2  0  0  0  0
 18 19  1  0  0  0  0
 19 24  1  0  0  0  0
 19 20  2  0  0  0  0
 25 26  1  0  0  0  0
 26 34  1  0  0  0  0
 26 27  2  0  0  0  0
  8  9  1  0  0  0  0
  9 17  1  0  0  0  0
  9 10  2  0  0  0  0
 25 28  1  0  0  0  0
  8 11  1  0  0  0  0
 34 35  1  0  0  0  0
 17 18  1  0  0  0  0
 24 25  1  0  0  0  0
  7  8  1  0  0  0  0
  3  4  1  0  0  0  0
  3  5  1  0  0  0  0
  3  6  1  0  0  0  0
 28 31  1  0  0  0  0
 28 32  1  0  0  0  0
 28 33  1  0  0  0  0
 11 14  1  0  0  0  0
 11 15  1  0  0  0  0
 11 16  1  0  0  0  0
 35 37  1  0  0  0  0
 35 38  1  0  0  0  0
 35 39  1  0  0  0  0
 18 22  1  0  0  0  0
 18 23  1  0  0  0  0
 25 30  1  0  0  0  0
  8 13  1  0  0  0  0
 34 36  1  0  0  0  0
 17 21  1  0  0  0  0
  7 12  1  0  0  0  0
 24 29  1  0  0  0  0
M  END
$$$$

  -OEChem-05262214473D

 39 38  0     1  0  0  0  0  0999 V2000
   -3.5200   -4.0268   -1.6943 C   0  0  0  0  0  0  0  0  0  0  0  0
   -2.8702   -4.8827   -1.1054 O   0  0  0  0  0  0  0  0  0  0  0  0
   -4.9704   -4.2579   -1.9614 C   0  0  0  0  0  0  0  0  0  0  0  0
   -5.1456   -4.7573   -2.9278 H   0  0  0  0  0  0  0  0  0  0  0  0
   -5.4379   -4.9112   -1.2072 H   0  0  0  0  0  0  0  0  0  0  0  0
   -5.5954   -3.3510   -1.9864 H   0  0  0  0  0  0  0  0  0  0  0  0
   -3.0424   -2.8131   -2.1606 N   0  0  0  0  0  0  0  0  0  0  0  0
   -1.6755   -2.3891   -2.0077 C   0  0  2  0  0  0  0  0  0  0  0  0
   -1.5782   -1.5673   -0.7292 C   0  0  0  0  0  0  0  0  0  0  0  0
   -2.5448   -1.0064   -0.2171 O   0  0  0  0  0  0  0  0  0  0  0  0
   -1.2087   -1.5823   -3.2094 C   0  0  0  0  0  0  0  0  0  0  0  0
   -3.6915   -2.1888   -2.6360 H   0  0  0  0  0  0  0  0  0  0  0  0
   -1.0721   -3.2977   -1.9053 H   0  0  0  0  0  0  0  0  0  0  0  0
   -1.8017   -0.6681   -3.3281 H   0  0  0  0  0  0  0  0  0  0  0  0
   -0.1601   -1.2849   -3.1045 H   0  0  0  0  0  0  0  0  0  0  0  0
   -1.3074   -2.1646   -4.1319 H   0  0  0  0  0  0  0  0  0  0  0  0
   -0.2835   -1.5112   -0.2725 N   0  0  0  0  0  0  0  0  0  0  0  0
    0.0769   -0.7658    0.9424 C   0  0  0  0  0  0  0  0  0  0  0  0
    1.2644   -1.4185    1.6026 C   0  0  0  0  0  0  0  0  0  0  0  0
    1.3641   -2.6315    1.7670 O   0  0  0  0  0  0  0  0  0  0  0  0
    0.4587   -2.0097   -0.7289 H   0  0  0  0  0  0  0  0  0  0  0  0
   -0.7735   -0.7660    1.6307 H   0  0  0  0  0  0  0  0  0  0  0  0
    0.3233    0.2650    0.6715 H   0  0  0  0  0  0  0  0  0  0  0  0
    2.2121   -0.4794    1.9956 N   0  0  0  0  0  0  0  0  0  0  0  0
    3.4449   -0.8232    2.6538 C   0  0  2  0  0  0  0  0  0  0  0  0
    4.5941   -0.2932    1.8065 C   0  0  0  0  0  0  0  0  0  0  0  0
    4.4870   -0.0529    0.6057 O   0  0  0  0  0  0  0  0  0  0  0  0
    3.5650   -2.3260    2.8537 C   0  0  0  0  0  0  0  0  0  0  0  0
    2.0236    0.5039    1.8075 H   0  0  0  0  0  0  0  0  0  0  0  0
    3.4391   -0.3125    3.6229 H   0  0  0  0  0  0  0  0  0  0  0  0
    3.5725   -2.8547    1.8936 H   0  0  0  0  0  0  0  0  0  0  0  0
    4.4901   -2.5835    3.3800 H   0  0  0  0  0  0  0  0  0  0  0  0
    2.7219   -2.7100    3.4380 H   0  0  0  0  0  0  0  0  0  0  0  0
    5.7652   -0.1610    2.5395 N   0  0  0  0  0  0  0  0  0  0  0  0
    6.9999    0.3115    1.9579 C   0  0  0  0  0  0  0  0  0  0  0  0
    5.7577   -0.3652    3.5345 H   0  0  0  0  0  0  0  0  0  0  0  0
    7.5945   -0.5466    1.6113 H   0  0  0  0  0  0  0  0  0  0  0  0
    6.7753    0.9699    1.1057 H   0  0  0  0  0  0  0  0  0  0  0  0
    7.5703    0.8715    2.7135 H   0  0  0  0  0  0  0  0  0  0  0  0
  1  3  1  0  0  0  0
  1  7  1  0  0  0  0
  1  2  2  0  0  0  0
 18 19  1  0  0  0  0
 19 24  1  0  0  0  0
 19 20  2  0  0  0  0
 25 26  1  0  0  0  0
 26 34  1  0  0  0  0
 26 27  2  0  0  0  0
  8  9  1  0  0  0  0
  9 17  1  0  0  0  0
  9 10  2  0  0  0  0
 25 28  1  0  0  0  0
  8 11  1  0  0  0  0
 34 35  1  0  0  0  0
 17 18  1  0  0  0  0
 24 25  1  0  0  0  0
  7  8  1  0  0  0  0
  3  4  1  0  0  0  0
  3  5  1  0  0  0  0
  3  6  1  0  0  0  0
 28 31  1  0  0  0  0
 28 32  1  0  0  0  0
 28 33  1  0  0  0  0
 11 14  1  0  0  0  0
 11 15  1  0  0  0  0
 11 16  1  0  0  0  0
 35 37  1  0  0  0  0
 35 38  1  0  0  0  0
 35 39  1  0  0  0  0
 18 22  1  0  0  0  0
 18 23  1  0  0  0  0
 25 30  1  0  0  0  0
  8 13  1  0  0  0  0
 34 36  1  0  0  0  0
 17 21  1  0  0  0  0
  7 12  1  0  0  0  0
 24 29  1  0  0  0  0
M  END
$$$$

  -OEChem-05262214473D

 39 38  0     1  0  0  0  0  0999 V2000
   -3.5200   -4.0268   -1.6943 C   0  0  0  0  0  0  0  0  0  0  0  0
   -2.8702   -4.8827   -1.1054 O   0  0  0  0  0  0  0  0  0  0  0  0
   -4.9704   -4.2579   -1.9614 C   0  0  0  0  0  0  0  0  0  0  0  0
   -5.1456   -4.7573   -2.9278 H   0  0  0  0  0  0  0  0  0  0  0  0
   -5.4379   -4.9112   -1.2072 H   0  0  0  0  0  0  0  0  0  0  0  0
   -5.5954   -3.3510   -1.9864 H   0  0  0  0  0  0  0  0  0  0  0  0
   -3.0424   -2.8131   -2.1606 N   0  0  0  0  0  0  0  0  0  0  0  0
   -1.6755   -2.3891   -2.0077 C   0  0  2  0  0  0  0  0  0  0  0  0
   -1.5782   -1.5673   -0.7292 C   0  0  0  0  0  0  0  0  0  0  0  0
   -2.5448   -1.0064   -0.2171 O   0  0  0  0  0  0  0  0  0  0  0  0
   -1.2087   -1.5823   -3.2094 C   0  0  0  0  0  0  0  0  0  0  0  0
   -3.6915   -2.1888   -2.6360 H   0  0  0  0  0  0  0  0  0  0  0  0
   -1.0721   -3.2977   -1.9053 H   0  0  0  0  0  0  0  0  0  0  0  0
   -1.8017   -0.6681   -3.3281 H   0  0  0  0  0  0  0  0  0  0  0  0
   -0.1601   -1.2849   -3.1045 H   0  0  0  0  0  0  0  0  0  0  0  0
   -1.3074   -2.1646   -4.1319 H   0  0  0  0  0  0  0  0  0  0  0  0
   -0.2835   -1.5112   -0.2725 N   0  0  0  0  0  0  0  0  0  0  0  0
    0.0769   -0.7658    0.9424 C   0  0  0  0  0  0  0  0  0  0  0  0
    1.2644   -1.4185    1.6026 C   0  0  0  0  0  0  0  0  0  0  0  0
    1.4979   -2.6224    1.5353 O   0  0  0  0  0  0  0  0  0  0  0  0
    0.4587   -2.0097   -0.7289 H   0  0  0  0  0  0  0  0  0  0  0  0
   -0.7735   -0.7660    1.6307 H   0  0  0  0  0  0  0  0  0  0  0  0
    0.3233    0.2650    0.6715 H   0  0  0  0  0  0  0  0  0  0  0  0
    2.0430   -0.4916    2.2875 N   0  0  0  0  0  0  0  0  0  0  0  0
    3.2369   -0.8390    3.0124 C   0  0  2  0  0  0  0  0  0  0  0  0
    4.3900   -0.0285    2.4354 C   0  0  0  0  0  0  0  0  0  0  0  0
    4.3747    0.4468    1.3019 O   0  0  0  0  0  0  0  0  0  0  0  0
    3.5232   -2.3300    2.9249 C   0  0  0  0  0  0  0  0  0  0  0  0
    1.7530    0.4848    2.2754 H   0  0  0  0  0  0  0  0  0  0  0  0
    3.0701   -0.5469    4.0549 H   0  0  0  0  0  0  0  0  0  0  0  0
    3.6930   -2.6413    1.8878 H   0  0  0  0  0  0  0  0  0  0  0  0
    4.4157   -2.5971    3.5005 H   0  0  0  0  0  0  0  0  0  0  0  0
    2.6804   -2.9121    3.3130 H   0  0  0  0  0  0  0  0  0  0  0  0
    5.4559    0.0650    3.3193 N   0  0  0  0  0  0  0  0  0  0  0  0
    6.6739    0.7723    2.9999 C   0  0  0  0  0  0  0  0  0  0  0  0
    5.3742   -0.3437    4.2456 H   0  0  0  0  0  0  0  0  0  0  0  0
    7.4029    0.0714    2.5671 H   0  0  0  0  0  0  0  0  0  0  0  0
    6.4554    1.5689    2.2734 H   0  0  0  0  0  0  0  0  0  0  0  0
    7.0912    1.2159    3.9159 H   0  0  0  0  0  0  0  0  0  0  0  0
  1  3  1  0  0  0  0
  1  7  1  0  0  0  0
  1  2  2  0  0  0  0
 18 19  1  0  0  0  0
 19 24  1  0  0  0  0
 19 20  2  0  0  0  0
 25 26  1  0  0  0  0
 26 34  1  0  0  0  0
 26 27  2  0  0  0  0
  8  9  1  0  0  0  0
  9 17  1  0  0  0  0
  9 10  2  0  0  0  0
 25 28  1  0  0  0  0
  8 11  1  0  0  0  0
 34 35  1  0  0  0  0
 17 18  1  0  0  0  0
 24 25  1  0  0  0  0
  7  8  1  0  0  0  0
  3  4  1  0  0  0  0
  3  5  1  0  0  0  0
  3  6  1  0  0  0  0
 28 31  1  0  0  0  0
 28 32  1  0  0  0  0
 28 33  1  0  0  0  0
 11 14  1  0  0  0  0
 11 15  1  0  0  0  0
 11 16  1  0  0  0  0
 35 37  1  0  0  0  0
 35 38  1  0  0  0  0
 35 39  1  0  0  0  0
 18 22  1  0  0  0  0
 18 23  1  0  0  0  0
 25 30  1  0  0  0  0
  8 13  1  0  0  0  0
 34 36  1  0  0  0  0
 17 21  1  0  0  0  0
  7 12  1  0  0  0  0
 24 29  1  0  0  0  0
M  END
$$$$

  -OEChem-05262214473D

 39 38  0     1  0  0  0  0  0999 V2000
   -3.5200   -4.0268   -1.6943 C   0  0  0  0  0  0  0  0  0  0  0  0
   -2.8702   -4.8827   -1.1054 O   0  0  0  0  0  0  0  0  0  0  0  0
   -4.9704   -4.2579   -1.9614 C   0  0  0  0  0  0  0  0  0  0  0  0
   -5.1456   -4.7573   -2.9278 H   0  0  0  0  0  0  0  0  0  0  0  0
   -5.4379   -4.9112   -1.2072 H   0  0  0  0  0  0  0  0  0  0  0  0
   -5.5954   -3.3510   -1.9864 H   0  0  0  0  0  0  0  0  0  0  0  0
   -3.0424   -2.8131   -2.1606 N   0  0  0  0  0  0  0  0  0  0  0  0
   -1.6755   -2.3891   -2.0077 C   0  0  2  0  0  0  0  0  0  0  0  0
   -1.5782   -1.5673   -0.7292 C   0  0  0  0  0  0  0  0  0  0  0  0
   -2.5448   -1.0064   -0.2171 O   0  0  0  0  0  0  0  0  0  0  0  0
   -1.2087   -1.5823   -3.2094 C   0  0  0  0  0  0  0  0  0  0  0  0
   -3.6915   -2.1888   -2.6360 H   0  0  0  0  0  0  0  0  0  0  0  0
   -1.0721   -3.2977   -1.9053 H   0  0  0  0  0  0  0  0  0  0  0  0
   -1.8017   -0.6681   -3.3281 H   0  0  0  0  0  0  0  0  0  0  0  0
   -0.1601   -1.2849   -3.1045 H   0  0  0  0  0  0  0  0  0  0  0  0
   -1.3074   -2.1646   -4.1319 H   0  0  0  0  0  0  0  0  0  0  0  0
   -0.2835   -1.5112   -0.2725 N   0  0  0  0  0  0  0  0  0  0  0  0
    0.0769   -0.7658    0.9424 C   0  0  0  0  0  0  0  0  0  0  0  0
    1.2644   -1.4185    1.6026 C   0  0  0  0  0  0  0  0  0  0  0  0
    1.6521   -2.5511    1.3283 O   0  0  0  0  0  0  0  0  0  0  0  0
    0.4587   -2.0097   -0.7289 H   0  0  0  0  0  0  0  0  0  0  0  0
   -0.7735   -0.7660    1.6307 H   0  0  0  0  0  0  0  0  0  0  0  0
    0.3233    0.2650    0.6715 H   0  0  0  0  0  0  0  0  0  0  0  0
    1.8484   -0.5822    2.5481 N   0  0  0  0  0  0  0  0  0  0  0  0
    2.9976   -0.9510    3.3322 C   0  0  2  0  0  0  0  0  0  0  0  0
    4.0924    0.0758    3.0739 C   0  0  0  0  0  0  0  0  0  0  0  0
    4.1315    0.7749    2.0636 O   0  0  0  0  0  0  0  0  0  0  0  0
    3.4753   -2.3532    2.9883 C   0  0  0  0  0  0  0  0  0  0  0  0
    1.4413    0.3403    2.6932 H   0  0  0  0  0  0  0  0  0  0  0  0
    2.6919   -0.9032    4.3831 H   0  0  0  0  0  0  0  0  0  0  0  0
    3.7858   -2.4204    1.9392 H   0  0  0  0  0  0  0  0  0  0  0  0
    4.3319   -2.6431    3.6057 H   0  0  0  0  0  0  0  0  0  0  0  0
    2.6772   -3.0865    3.1463 H   0  0  0  0  0  0  0  0  0  0  0  0
    5.0441    0.0891    4.0840 N   0  0  0  0  0  0  0  0  0  0  0  0
    6.1900    0.9680    4.0638 C   0  0  0  0  0  0  0  0  0  0  0  0
    4.9216   -0.5114    4.8940 H   0  0  0  0  0  0  0  0  0  0  0  0
    7.0406    0.4517    3.5948 H   0  0  0  0  0  0  0  0  0  0  0  0
    5.9477    1.8731    3.4876 H   0  0  0  0  0  0  0  0  0  0  0  0
    6.4546    1.2491    5.0939 H   0  0  0  0  0  0  0  0  0  0  0  0
  1  3  1  0  0  0  0
  1  7  1  0  0  0  0
  1  2  2  0  0  0  0
 18 19  1  0  0  0  0
 19 24  1  0  0  0  0
 19 20  2  0  0  0  0
 25 26  1  0  0  0  0
 26 34  1  0  0  0  0
 26 27  2  0  0  0  0
  8  9  1  0  0  0  0
  9 17  1  0  0  0  0
  9 10  2  0  0  0  0
 25 28  1  0  0  0  0
  8 11  1  0  0  0  0
 34 35  1  0  0  0  0
 17 18  1  0  0  0  0
 24 25  1  0  0  0  0
  7  8  1  0  0  0  0
  3  4  1  0  0  0  0
  3  5  1  0  0  0  0
  3  6  1  0  0  0  0
 28 31  1  0  0  0  0
 28 32  1  0  0  0  0
 28 33  1  0  0  0  0
 11 14  1  0  0  0  0
 11 15  1  0  0  0  0
 11 16  1  0  0  0  0
 35 37  1  0  0  0  0
 35 38  1  0  0  0  0
 35 39  1  0  0  0  0
 18 22  1  0  0  0  0
 18 23  1  0  0  0  0
 25 30  1  0  0  0  0
  8 13  1  0  0  0  0
 34 36  1  0  0  0  0
 17 21  1  0  0  0  0
  7 12  1  0  0  0  0
 24 29  1  0  0  0  0
M  END
$$$$

  -OEChem-05262214473D

 39 38  0     1  0  0  0  0  0999 V2000
   -3.5200   -4.0268   -1.6943 C   0  0  0  0  0  0  0  0  0  0  0  0
   -2.8702   -4.8827   -1.1054 O   0  0  0  0  0  0  0  0  0  0  0  0
   -4.9704   -4.2579   -1.9614 C   0  0  0  0  0  0  0  0  0  0  0  0
   -5.1456   -4.7573   -2.9278 H   0  0  0  0  0  0  0  0  0  0  0  0
   -5.4379   -4.9112   -1.2072 H   0  0  0  0  0  0  0  0  0  0  0  0
   -5.5954   -3.3510   -1.9864 H   0  0  0  0  0  0  0  0  0  0  0  0
   -3.0424   -2.8131   -2.1606 N   0  0  0  0  0  0  0  0  0  0  0  0
   -1.6755   -2.3891   -2.0077 C   0  0  2  0  0  0  0  0  0  0  0  0
   -1.5782   -1.5673   -0.7292 C   0  0  0  0  0  0  0  0  0  0  0  0
   -2.5448   -1.0064   -0.2171 O   0  0  0  0  0  0  0  0  0  0  0  0
   -1.2087   -1.5823   -3.2094 C   0  0  0  0  0  0  0  0  0  0  0  0
   -3.6915   -2.1888   -2.6360 H   0  0  0  0  0  0  0  0  0  0  0  0
   -1.0721   -3.2977   -1.9053 H   0  0  0  0  0  0  0  0  0  0  0  0
   -1.8017   -0.6681   -3.3281 H   0  0  0  0  0  0  0  0  0  0  0  0
   -0.1601   -1.2849   -3.1045 H   0  0  0  0  0  0  0  0  0  0  0  0
   -1.3074   -2.1646   -4.1319 H   0  0  0  0  0  0  0  0  0  0  0  0
   -0.2835   -1.5112   -0.2725 N   0  0  0  0  0  0  0  0  0  0  0  0
    0.0769   -0.7658    0.9424 C   0  0  0  0  0  0  0  0  0  0  0  0
    1.4544   -1.1754    1.3971 C   0  0  0  0  0  0  0  0  0  0  0  0
    2.1379   -2.0120    0.8129 O   0  0  0  0  0  0  0  0  0  0  0  0
    0.4587   -2.0097   -0.7289 H   0  0  0  0  0  0  0  0  0  0  0  0
   -0.6512   -0.9853    1.7290 H   0  0  0  0  0  0  0  0  0  0  0  0
    0.0619    0.3060    0.7239 H   0  0  0  0  0  0  0  0  0  0  0  0
    1.8380   -0.4934    2.5469 N   0  0  0  0  0  0  0  0  0  0  0  0
    3.1046   -0.6904    3.2014 C   0  0  2  0  0  0  0  0  0  0  0  0
    3.8195    0.6532    3.2564 C   0  0  0  0  0  0  0  0  0  0  0  0
    3.5666    1.5796    2.4890 O   0  0  0  0  0  0  0  0  0  0  0  0
    3.9483   -1.7256    2.4739 C   0  0  0  0  0  0  0  0  0  0  0  0
    1.1881    0.1812    2.9471 H   0  0  0  0  0  0  0  0  0  0  0  0
    2.8851   -1.0299    4.2195 H   0  0  0  0  0  0  0  0  0  0  0  0
    4.1783   -1.4029    1.4520 H   0  0  0  0  0  0  0  0  0  0  0  0
    4.8996   -1.8952    2.9890 H   0  0  0  0  0  0  0  0  0  0  0  0
    3.4201   -2.6831    2.4092 H   0  0  0  0  0  0  0  0  0  0  0  0
    4.8030    0.6814    4.2353 N   0  0  0  0  0  0  0  0  0  0  0  0
    5.6300    1.8407    4.4765 C   0  0  0  0  0  0  0  0  0  0  0  0
    4.9310   -0.1259    4.8384 H   0  0  0  0  0  0  0  0  0  0  0  0
    6.5545    1.7616    3.8858 H   0  0  0  0  0  0  0  0  0  0  0  0
    5.0833    2.7486    4.1818 H   0  0  0  0  0  0  0  0  0  0  0  0
    5.8817    1.8952    5.5459 H   0  0  0  0  0  0  0  0  0  0  0  0
  1  3  1  0  0  0  0
  1  7  1  0  0  0  0
  1  2  2  0  0  0  0
 18 19  1  0  0  0  0
 19 24  1  0  0  0  0
 19 20  2  0  0  0  0
 25 26  1  0  0  0  0
 26 34  1  0  0  0  0
 26 27  2  0  0  0  0
  8  9  1  0  0  0  0
  9 17  1  0  0  0  0
  9 10  2  0  0  0  0
 25 28  1  0  0  0  0
  8 11  1  0  0  0  0
 34 35  1  0  0  0  0
 17 18  1  0  0  0  0
 24 25  1  0  0  0  0
  7  8  1  0  0  0  0
  3  4  1  0  0  0  0
  3  5  1  0  0  0  0
  3  6  1  0  0  0  0
 28 31  1  0  0  0  0
 28 32  1  0  0  0  0
 28 33  1  0  0  0  0
 11 14  1  0  0  0  0
 11 15  1  0  0  0  0
 11 16  1  0  0  0  0
 35 37  1  0  0  0  0
 35 38  1  0  0  0  0
 35 39  1  0  0  0  0
 18 22  1  0  0  0  0
 18 23  1  0  0  0  0
 25 30  1  0  0  0  0
  8 13  1  0  0  0  0
 34 36  1  0  0  0  0
 17 21  1  0  0  0  0
  7 12  1  0  0  0  0
 24 29  1  0  0  0  0
M  END
$$$$

  -OEChem-05262214473D

 39 38  0     1  0  0  0  0  0999 V2000
   -3.5200   -4.0268   -1.6943 C   0  0  0  0  0  0  0  0  0  0  0  0
   -2.8702   -4.8827   -1.1054 O   0  0  0  0  0  0  0  0  0  0  0  0
   -4.9704   -4.2579   -1.9614 C   0  0  0  0  0  0  0  0  0  0  0  0
   -5.1456   -4.7573   -2.9278 H   0  0  0  0  0  0  0  0  0  0  0  0
   -5.4379   -4.9112   -1.2072 H   0  0  0  0  0  0  0  0  0  0  0  0
   -5.5954   -3.3510   -1.9864 H   0  0  0  0  0  0  0  0  0  0  0  0
   -3.0424   -2.8131   -2.1606 N   0  0  0  0  0  0  0  0  0  0  0  0
   -1.6755   -2.3891   -2.0077 C   0  0  2  0  0  0  0  0  0  0  0  0
   -1.5782   -1.5673   -0.7292 C   0  0  0  0  0  0  0  0  0  0  0  0
   -2.5448   -1.0064   -0.2171 O   0  0  0  0  0  0  0  0  0  0  0  0
   -1.2087   -1.5823   -3.2094 C   0  0  0  0  0  0  0  0  0  0  0  0
   -3.6915   -2.1888   -2.6360 H   0  0  0  0  0  0  0  0  0  0  0  0
   -1.0721   -3.2977   -1.9053 H   0  0  0  0  0  0  0  0  0  0  0  0
   -1.8017   -0.6681   -3.3281 H   0  0  0  0  0  0  0  0  0  0  0  0
   -0.1601   -1.2849   -3.1045 H   0  0  0  0  0  0  0  0  0  0  0  0
   -1.3074   -2.1646   -4.1319 H   0  0  0  0  0  0  0  0  0  0  0  0
   -0.2835   -1.5112   -0.2725 N   0  0  0  0  0  0  0  0  0  0  0  0
    0.0769   -0.7658    0.9424 C   0  0  0  0  0  0  0  0  0  0  0  0
    1.4544   -1.1754    1.3971 C   0  0  0  0  0  0  0  0  0  0  0  0
    2.2421   -1.7982    0.6899 O   0  0  0  0  0  0  0  0  0  0  0  0
    0.4587   -2.0097   -0.7289 H   0  0  0  0  0  0  0  0  0  0  0  0
   -0.6512   -0.9853    1.7290 H   0  0  0  0  0  0  0  0  0  0  0  0
    0.0619    0.3060    0.7239 H   0  0  0  0  0  0  0  0  0  0  0  0
    1.7068   -0.7634    2.7013 N   0  0  0  0  0  0  0  0  0  0  0  0
    2.9434   -1.0227    3.3905 C   0  0  2  0  0  0  0  0  0  0  0  0
    3.5347    0.3152    3.8148 C   0  0  0  0  0  0  0  0  0  0  0  0
    3.2498    1.3783    3.2675 O   0  0  0  0  0  0  0  0  0  0  0  0
    3.9162   -1.7924    2.5108 C   0  0  0  0  0  0  0  0  0  0  0  0
    0.9777   -0.2510    3.1949 H   0  0  0  0  0  0  0  0  0  0  0  0
    2.6924   -1.6104    4.2802 H   0  0  0  0  0  0  0  0  0  0  0  0
    4.1794   -1.2193    1.6143 H   0  0  0  0  0  0  0  0  0  0  0  0
    4.8455   -2.0137    3.0461 H   0  0  0  0  0  0  0  0  0  0  0  0
    3.4778   -2.7409    2.1822 H   0  0  0  0  0  0  0  0  0  0  0  0
    4.4506    0.1766    4.8483 N   0  0  0  0  0  0  0  0  0  0  0  0
    5.1578    1.2992    5.4190 C   0  0  0  0  0  0  0  0  0  0  0  0
    4.6110   -0.7406    5.2543 H   0  0  0  0  0  0  0  0  0  0  0  0
    6.1201    1.4283    4.9018 H   0  0  0  0  0  0  0  0  0  0  0  0
    4.5536    2.2109    5.3020 H   0  0  0  0  0  0  0  0  0  0  0  0
    5.3383    1.1136    6.4881 H   0  0  0  0  0  0  0  0  0  0  0  0
  1  3  1  0  0  0  0
  1  7  1  0  0  0  0
  1  2  2  0  0  0  0
 18 19  1  0  0  0  0
 19 24  1  0  0  0  0
 19 20  2  0  0  0  0
 25 26  1  0  0  0  0
 26 34  1  0  0  0  0
 26 27  2  0  0  0  0
  8  9  1  0  0  0  0
  9 17  1  0  0  0  0
  9 10  2  0  0  0  0
 25 28  1  0  0  0  0
  8 11  1  0  0  0  0
 34 35  1  0  0  0  0
 17 18  1  0  0  0  0
 24 25  1  0  0  0  0
  7  8  1  0  0  0  0
  3  4  1  0  0  0  0
  3  5  1  0  0  0  0
  3  6  1  0  0  0  0
 28 31  1  0  0  0  0
 28 32  1  0  0  0  0
 28 33  1  0  0  0  0
 11 14  1  0  0  0  0
 11 15  1  0  0  0  0
 11 16  1  0  0  0  0
 35 37  1  0  0  0  0
 35 38  1  0  0  0  0
 35 39  1  0  0  0  0
 18 22  1  0  0  0  0
 18 23  1  0  0  0  0
 25 30  1  0  0  0  0
  8 13  1  0  0  0  0
 34 36  1  0  0  0  0
 17 21  1  0  0  0  0
  7 12  1  0  0  0  0
 24 29  1  0  0  0  0
M  END
$$$$

  -OEChem-05262214473D

 39 38  0     1  0  0  0  0  0999 V2000
   -3.5200   -4.0268   -1.6943 C   0  0  0  0  0  0  0  0  0  0  0  0
   -2.8702   -4.8827   -1.1054 O   0  0  0  0  0  0  0  0  0  0  0  0
   -4.9704   -4.2579   -1.9614 C   0  0  0  0  0  0  0  0  0  0  0  0
   -5.1456   -4.7573   -2.9278 H   0  0  0  0  0  0  0  0  0  0  0  0
   -5.4379   -4.9112   -1.2072 H   0  0  0  0  0  0  0  0  0  0  0  0
   -5.5954   -3.3510   -1.9864 H   0  0  0  0  0  0  0  0  0  0  0  0
   -3.0424   -2.8131   -2.1606 N   0  0  0  0  0  0  0  0  0  0  0  0
   -1.6755   -2.3891   -2.0077 C   0  0  2  0  0  0  0  0  0  0  0  0
   -1.5782   -1.5673   -0.7292 C   0  0  0  0  0  0  0  0  0  0  0  0
   -2.5448   -1.0064   -0.2171 O   0  0  0  0  0  0  0  0  0  0  0  0
   -1.2087   -1.5823   -3.2094 C   0  0  0  0  0  0  0  0  0  0  0  0
   -3.6915   -2.1888   -2.6360 H   0  0  0  0  0  0  0  0  0  0  0  0
   -1.0721   -3.2977   -1.9053 H   0  0  0  0  0  0  0  0  0  0  0  0
   -1.8017   -0.6681   -3.3281 H   0  0  0  0  0  0  0  0  0  0  0  0
   -0.1601   -1.2849   -3.1045 H   0  0  0  0  0  0  0  0  0  0  0  0
   -1.3074   -2.1646   -4.1319 H   0  0  0  0  0  0  0  0  0  0  0  0
   -0.2835   -1.5112   -0.2725 N   0  0  0  0  0  0  0  0  0  0  0  0
    0.0769   -0.7658    0.9424 C   0  0  0  0  0  0  0  0  0  0  0  0
    1.4544   -1.1754    1.3971 C   0  0  0  0  0  0  0  0  0  0  0  0
    2.3346   -1.5545    0.6291 O   0  0  0  0  0  0  0  0  0  0  0  0
    0.4587   -2.0097   -0.7289 H   0  0  0  0  0  0  0  0  0  0  0  0
   -0.6512   -0.9853    1.7290 H   0  0  0  0  0  0  0  0  0  0  0  0
    0.0619    0.3060    0.7239 H   0  0  0  0  0  0  0  0  0  0  0  0
    1.5902   -1.0710    2.7773 N   0  0  0  0  0  0  0  0  0  0  0  0
    2.8003   -1.4009    3.4831 C   0  0  2  0  0  0  0  0  0  0  0  0
    3.2467   -0.1657    4.2542 C   0  0  0  0  0  0  0  0  0  0  0  0
    2.9048    0.9751    3.9496 O   0  0  0  0  0  0  0  0  0  0  0  0
    3.8879   -1.8681    2.5284 C   0  0  0  0  0  0  0  0  0  0  0  0
    0.7908   -0.7437    3.3173 H   0  0  0  0  0  0  0  0  0  0  0  0
    2.5474   -2.2005    4.1879 H   0  0  0  0  0  0  0  0  0  0  0  0
    4.1546   -1.0802    1.8145 H   0  0  0  0  0  0  0  0  0  0  0  0
    4.7985   -2.1459    3.0695 H   0  0  0  0  0  0  0  0  0  0  0  0
    3.5541   -2.7385    1.9533 H   0  0  0  0  0  0  0  0  0  0  0  0
    4.1064   -0.4835    5.2963 N   0  0  0  0  0  0  0  0  0  0  0  0
    4.6778    0.5163    6.1681 C   0  0  0  0  0  0  0  0  0  0  0  0
    4.3205   -1.4577    5.4881 H   0  0  0  0  0  0  0  0  0  0  0  0
    5.6550    0.8321    5.7738 H   0  0  0  0  0  0  0  0  0  0  0  0
    4.0052    1.3852    6.2197 H   0  0  0  0  0  0  0  0  0  0  0  0
    4.8082    0.0933    7.1751 H   0  0  0  0  0  0  0  0  0  0  0  0
  1  3  1  0  0  0  0
  1  7  1  0  0  0  0
  1  2  2  0  0  0  0
 18 19  1  0  0  0  0
 19 24  1  0  0  0  0
 19 20  2  0  0  0  0
 25 26  1  0  0  0  0
 26 34  1  0  0  0  0
 26 27  2  0  0  0  0
  8  9  1  0  0  0  0
  9 17  1  0  0  0  0
  9 10  2  0  0  0  0
 25 28  1  0  0  0  0
  8 11  1  0  0  0  0
 34 35  1  0  0  0  0
 17 18  1  0  0  0  0
 24 25  1  0  0  0  0
  7  8  1  0  0  0  0
  3  4  1  0  0  0  0
  3  5  1  0  0  0  0
  3  6  1  0  0  0  0
 28 31  1  0  0  0  0
 28 32  1  0  0  0  0
 28 33  1  0  0  0  0
 11 14  1  0  0  0  0
 11 15  1  0  0  0  0
 11 16  1  0  0  0  0
 35 37  1  0  0  0  0
 35 38  1  0  0  0  0
 35 39  1  0  0  0  0
 18 22  1  0  0  0  0
 18 23  1  0  0  0  0
 25 30  1  0  0  0  0
  8 13  1  0  0  0  0
 34 36  1  0  0  0  0
 17 21  1  0  0  0  0
  7 12  1  0  0  0  0
 24 29  1  0  0  0  0
M  END
$$$$

  -OEChem-05262214473D

 39 38  0     1  0  0  0  0  0999 V2000
   -3.5200   -4.0268   -1.6943 C   0  0  0  0  0  0  0  0  0  0  0  0
   -2.8702   -4.8827   -1.1054 O   0  0  0  0  0  0  0  0  0  0  0  0
   -4.9704   -4.2579   -1.9614 C   0  0  0  0  0  0  0  0  0  0  0  0
   -5.1456   -4.7573   -2.9278 H   0  0  0  0  0  0  0  0  0  0  0  0
   -5.4379   -4.9112   -1.2072 H   0  0  0  0  0  0  0  0  0  0  0  0
   -5.5954   -3.3510   -1.9864 H   0  0  0  0  0  0  0  0  0  0  0  0
   -3.0424   -2.8131   -2.1606 N   0  0  0  0  0  0  0  0  0  0  0  0
   -1.6755   -2.3891   -2.0077 C   0  0  2  0  0  0  0  0  0  0  0  0
   -1.5782   -1.5673   -0.7292 C   0  0  0  0  0  0  0  0  0  0  0  0
   -2.5448   -1.0064   -0.2171 O   0  0  0  0  0  0  0  0  0  0  0  0
   -1.2087   -1.5823   -3.2094 C   0  0  0  0  0  0  0  0  0  0  0  0
   -3.6915   -2.1888   -2.6360 H   0  0  0  0  0  0  0  0  0  0  0  0
   -1.0721   -3.2977   -1.9053 H   0  0  0  0  0  0  0  0  0  0  0  0
   -1.8017   -0.6681   -3.3281 H   0  0  0  0  0  0  0  0  0  0  0  0
   -0.1601   -1.2849   -3.1045 H   0  0  0  0  0  0  0  0  0  0  0  0
   -1.3074   -2.1646   -4.1319 H   0  0  0  0  0  0  0  0  0  0  0  0
   -0.2835   -1.5112   -0.2725 N   0  0  0  0  0  0  0  0  0  0  0  0
    0.0769   -0.7658    0.9424 C   0  0  0  0  0  0  0  0  0  0  0  0
    1.4544   -1.1754    1.3971 C   0  0  0  0  0  0  0  0  0  0  0  0
    2.4093   -1.2975    0.6344 O   0  0  0  0  0  0  0  0  0  0  0  0
    0.4587   -2.0097   -0.7289 H   0  0  0  0  0  0  0  0  0  0  0  0
   -0.6512   -0.9853    1.7290 H   0  0  0  0  0  0  0  0  0  0  0  0
    0.0619    0.3060    0.7239 H   0  0  0  0  0  0  0  0  0  0  0  0
    1.4963   -1.3951    2.7698 N   0  0  0  0  0  0  0  0  0  0  0  0
    2.6851   -1.7993    3.4731 C   0  0  2  0  0  0  0  0  0  0  0  0
    2.9751   -0.7566    4.5446 C   0  0  0  0  0  0  0  0  0  0  0  0
    2.5550    0.3973    4.4888 O   0  0  0  0  0  0  0  0  0  0  0  0
    3.8652   -1.9476    2.5254 C   0  0  0  0  0  0  0  0  0  0  0  0
    0.6402   -1.2630    3.3058 H   0  0  0  0  0  0  0  0  0  0  0  0
    2.4599   -2.7600    3.9490 H   0  0  0  0  0  0  0  0  0  0  0  0
    4.1058   -0.9952    2.0391 H   0  0  0  0  0  0  0  0  0  0  0  0
    4.7617   -2.2827    3.0575 H   0  0  0  0  0  0  0  0  0  0  0  0
    3.6437   -2.6761    1.7381 H   0  0  0  0  0  0  0  0  0  0  0  0
    3.7940   -1.2539    5.5487 N   0  0  0  0  0  0  0  0  0  0  0  0
    4.2226   -0.4545    6.6727 C   0  0  0  0  0  0  0  0  0  0  0  0
    4.0795   -2.2284    5.5239 H   0  0  0  0  0  0  0  0  0  0  0  0
    5.1909    0.0137    6.4424 H   0  0  0  0  0  0  0  0  0  0  0  0
    3.4754    0.3278    6.8722 H   0  0  0  0  0  0  0  0  0  0  0  0
    4.3274   -1.0961    7.5600 H   0  0  0  0  0  0  0  0  0  0  0  0
  1  3  1  0  0  0  0
  1  7  1  0  0  0  0
  1  2  2  0  0  0  0
 18 19  1  0  0  0  0
 19 24  1  0  0  0  0
 19 20  2  0  0  0  0
 25 26  1  0  0  0  0
 26 34  1  0  0  0  0
 26 27  2  0  0  0  0
  8  9  1  0  0  0  0
  9 17  1  0  0  0  0
  9 10  2  0  0  0  0
 25 28  1  0  0  0  0
  8 11  1  0  0  0  0
 34 35  1  0  0  0  0
 17 18  1  0  0  0  0
 24 25  1  0  0  0  0
  7  8  1  0  0  0  0
  3  4  1  0  0  0  0
  3  5  1  0  0  0  0
  3  6  1  0  0  0  0
 28 31  1  0  0  0  0
 28 32  1  0  0  0  0
 28 33  1  0  0  0  0
 11 14  1  0  0  0  0
 11 15  1  0  0  0  0
 11 16  1  0  0  0  0
 35 37  1  0  0  0  0
 35 38  1  0  0  0  0
 35 39  1  0  0  0  0
 18 22  1  0  0  0  0
 18 23  1  0  0  0  0
 25 30  1  0  0  0  0
  8 13  1  0  0  0  0
 34 36  1  0  0  0  0
 17 21  1  0  0  0  0
  7 12  1  0  0  0  0
 24 29  1  0  0  0  0
M  END
$$$$

  -OEChem-05262214473D

 39 38  0     1  0  0  0  0  0999 V2000
   -3.5200   -4.0268   -1.6943 C   0  0  0  0  0  0  0  0  0  0  0  0
   -2.8702   -4.8827   -1.1054 O   0  0  0  0  0  0  0  0  0  0  0  0
   -4.9704   -4.2579   -1.9614 C   0  0  0  0  0  0  0  0  0  0  0  0
   -5.1456   -4.7573   -2.9278 H   0  0  0  0  0  0  0  0  0  0  0  0
   -5.4379   -4.9112   -1.2072 H   0  0  0  0  0  0  0  0  0  0  0  0
   -5.5954   -3.3510   -1.9864 H   0  0  0  0  0  0  0  0  0  0  0  0
   -3.0424   -2.8131   -2.1606 N   0  0  0  0  0  0  0  0  0  0  0  0
   -1.6755   -2.3891   -2.0077 C   0  0  2  0  0  0  0  0  0  0  0  0
   -1.5782   -1.5673   -0.7292 C   0  0  0  0  0  0  0  0  0  0  0  0
   -2.5448   -1.0064   -0.2171 O   0  0  0  0  0  0  0  0  0  0  0  0
   -1.2087   -1.5823   -3.2094 C   0  0  0  0  0  0  0  0  0  0  0  0
   -3.6915   -2.1888   -2.6360 H   0  0  0  0  0  0  0  0  0  0  0  0
   -1.0721   -3.2977   -1.9053 H   0  0  0  0  0  0  0  0  0  0  0  0
   -1.8017   -0.6681   -3.3281 H   0  0  0  0  0  0  0  0  0  0  0  0
   -0.1601   -1.2849   -3.1045 H   0  0  0  0  0  0  0  0  0  0  0  0
   -1.3074   -2.1646   -4.1319 H   0  0  0  0  0  0  0  0  0  0  0  0
   -0.2835   -1.5112   -0.2725 N   0  0  0  0  0  0  0  0  0  0  0  0
    0.0769   -0.7658    0.9424 C   0  0  0  0  0  0  0  0  0  0  0  0
    1.4544   -1.1754    1.3971 C   0  0  0  0  0  0  0  0  0  0  0  0
    2.4610   -1.0446    0.7056 O   0  0  0  0  0  0  0  0  0  0  0  0
    0.4587   -2.0097   -0.7289 H   0  0  0  0  0  0  0  0  0  0  0  0
   -0.6512   -0.9853    1.7290 H   0  0  0  0  0  0  0  0  0  0  0  0
    0.0619    0.3060    0.7239 H   0  0  0  0  0  0  0  0  0  0  0  0
    1.4314   -1.7138    2.6793 N   0  0  0  0  0  0  0  0  0  0  0  0
    2.6057   -2.1908    3.3611 C   0  0  2  0  0  0  0  0  0  0  0  0
    2.7385   -1.4172    4.6663 C   0  0  0  0  0  0  0  0  0  0  0  0
    2.2243   -0.3157    4.8484 O   0  0  0  0  0  0  0  0  0  0  0  0
    3.8498   -2.0255    2.5022 C   0  0  0  0  0  0  0  0  0  0  0  0
    0.5360   -1.7737    3.1613 H   0  0  0  0  0  0  0  0  0  0  0  0
    2.4358   -3.2507    3.5798 H   0  0  0  0  0  0  0  0  0  0  0  0
    4.0362   -0.9700    2.2728 H   0  0  0  0  0  0  0  0  0  0  0  0
    4.7378   -2.4149    3.0109 H   0  0  0  0  0  0  0  0  0  0  0  0
    3.7404   -2.5580    1.5513 H   0  0  0  0  0  0  0  0  0  0  0  0
    3.5347   -2.0821    5.5883 N   0  0  0  0  0  0  0  0  0  0  0  0
    3.8231   -1.5472    6.8985 C   0  0  0  0  0  0  0  0  0  0  0  0
    3.9044   -3.0001    5.3593 H   0  0  0  0  0  0  0  0  0  0  0  0
    4.7596   -0.9712    6.8620 H   0  0  0  0  0  0  0  0  0  0  0  0
    3.0003   -0.8893    7.2151 H   0  0  0  0  0  0  0  0  0  0  0  0
    3.9288   -2.3736    7.6167 H   0  0  0  0  0  0  0  0  0  0  0  0
  1  3  1  0  0  0  0
  1  7  1  0  0  0  0
  1  2  2  0  0  0  0
 18 19  1  0  0  0  0
 19 24  1  0  0  0  0
 19 20  2  0  0  0  0
 25 26  1  0  0  0  0
 26 34  1  0  0  0  0
 26 27  2  0  0  0  0
  8  9  1  0  0  0  0
  9 17  1  0  0  0  0
  9 10  2  0  0  0  0
 25 28  1  0  0  0  0
  8 11  1  0  0  0  0
 34 35  1  0  0  0  0
 17 18  1  0  0  0  0
 24 25  1  0  0  0  0
  7  8  1  0  0  0  0
  3  4  1  0  0  0  0
  3  5  1  0  0  0  0
  3  6  1  0  0  0  0
 28 31  1  0  0  0  0
 28 32  1  0  0  0  0
 28 33  1  0  0  0  0
 11 14  1  0  0  0  0
 11 15  1  0  0  0  0
 11 16  1  0  0  0  0
 35 37  1  0  0  0  0
 35 38  1  0  0  0  0
 35 39  1  0  0  0  0
 18 22  1  0  0  0  0
 18 23  1  0  0  0  0
 25 30  1  0  0  0  0
  8 13  1  0  0  0  0
 34 36  1  0  0  0  0
 17 21  1  0  0  0  0
  7 12  1  0  0  0  0
 24 29  1  0  0  0  0
M  END
$$$$

  -OEChem-05262214473D

 39 38  0     1  0  0  0  0  0999 V2000
   -3.5200   -4.0268   -1.6943 C   0  0  0  0  0  0  0  0  0  0  0  0
   -2.8702   -4.8827   -1.1054 O   0  0  0  0  0  0  0  0  0  0  0  0
   -4.9704   -4.2579   -1.9614 C   0  0  0  0  0  0  0  0  0  0  0  0
   -5.1456   -4.7573   -2.9278 H   0  0  0  0  0  0  0  0  0  0  0  0
   -5.4379   -4.9112   -1.2072 H   0  0  0  0  0  0  0  0  0  0  0  0
   -5.5954   -3.3510   -1.9864 H   0  0  0  0  0  0  0  0  0  0  0  0
   -3.0424   -2.8131   -2.1606 N   0  0  0  0  0  0  0  0  0  0  0  0
   -1.6755   -2.3891   -2.0077 C   0  0  2  0  0  0  0  0  0  0  0  0
   -1.5782   -1.5673   -0.7292 C   0  0  0  0  0  0  0  0  0  0  0  0
   -2.5448   -1.0064   -0.2171 O   0  0  0  0  0  0  0  0  0  0  0  0
   -1.2087   -1.5823   -3.2094 C   0  0  0  0  0  0  0  0  0  0  0  0
   -3.6915   -2.1888   -2.6360 H   0  0  0  0  0  0  0  0  0  0  0  0
   -1.0721   -3.2977   -1.9053 H   0  0  0  0  0  0  0  0  0  0  0  0
   -1.8017   -0.6681   -3.3281 H   0  0  0  0  0  0  0  0  0  0  0  0
   -0.1601   -1.2849   -3.1045 H   0  0  0  0  0  0  0  0  0  0  0  0
   -1.3074   -2.1646   -4.1319 H   0  0  0  0  0  0  0  0  0  0  0  0
   -0.2835   -1.5112   -0.2725 N   0  0  0  0  0  0  0  0  0  0  0  0
    0.0769   -0.7658    0.9424 C   0  0  0  0  0  0  0  0  0  0  0  0
    1.4544   -1.1754    1.3971 C   0  0  0  0  0  0  0  0  0  0  0  0
    2.4862   -0.8132    0.8379 O   0  0  0  0  0  0  0  0  0  0  0  0
    0.4587   -2.0097   -0.7289 H   0  0  0  0  0  0  0  0  0  0  0  0
   -0.6512   -0.9853    1.7290 H   0  0  0  0  0  0  0  0  0  0  0  0
    0.0619    0.3060    0.7239 H   0  0  0  0  0  0  0  0  0  0  0  0
    1.4000   -2.0053    2.5119 N   0  0  0  0  0  0  0  0  0  0  0  0
    2.5674   -2.5487    3.1547 C   0  0  2  0  0  0  0  0  0  0  0  0
    2.5530   -2.1026    4.6109 C   0  0  0  0  0  0  0  0  0  0  0  0
    1.9352   -1.1152    5.0038 O   0  0  0  0  0  0  0  0  0  0  0  0
    3.8425   -2.0964    2.4603 C   0  0  0  0  0  0  0  0  0  0  0  0
    0.4854   -2.2410    2.8936 H   0  0  0  0  0  0  0  0  0  0  0  0
    2.4768   -3.6393    3.1054 H   0  0  0  0  0  0  0  0  0  0  0  0
    3.9505   -1.0063    2.4995 H   0  0  0  0  0  0  0  0  0  0  0  0
    4.7282   -2.5335    2.9330 H   0  0  0  0  0  0  0  0  0  0  0  0
    3.8378   -2.3922    1.4056 H   0  0  0  0  0  0  0  0  0  0  0  0
    3.3460   -2.9118    5.4124 N   0  0  0  0  0  0  0  0  0  0  0  0
    3.5067   -2.6872    6.8301 C   0  0  0  0  0  0  0  0  0  0  0  0
    3.8070   -3.7202    5.0054 H   0  0  0  0  0  0  0  0  0  0  0  0
    4.3903   -2.0555    7.0039 H   0  0  0  0  0  0  0  0  0  0  0  0
    2.6123   -2.1831    7.2250 H   0  0  0  0  0  0  0  0  0  0  0  0
    3.6396   -3.6521    7.3413 H   0  0  0  0  0  0  0  0  0  0  0  0
  1  3  1  0  0  0  0
  1  7  1  0  0  0  0
  1  2  2  0  0  0  0
 18 19  1  0  0  0  0
 19 24  1  0  0  0  0
 19 20  2  0  0  0  0
 25 26  1  0  0  0  0
 26 34  1  0  0  0  0
 26 27  2  0  0  0  0
  8  9  1  0  0  0  0
  9 17  1  0  0  0  0
  9 10  2  0  0  0  0
 25 28  1  0  0  0  0
  8 11  1  0  0  0  0
 34 35  1  0  0  0  0
 17 18  1  0  0  0  0
 24 25  1  0  0  0  0
  7  8  1  0  0  0  0
  3  4  1  0  0  0  0
  3  5  1  0  0  0  0
  3  6  1  0  0  0  0
 28 31  1  0  0  0  0
 28 32  1  0  0  0  0
 28 33  1  0  0  0  0
 11 14  1  0  0  0  0
 11 15  1  0  0  0  0
 11 16  1  0  0  0  0
 35 37  1  0  0  0  0
 35 38  1  0  0  0  0
 35 39  1  0  0  0  0
 18 22  1  0  0  0  0
 18 23  1  0  0  0  0
 25 30  1  0  0  0  0
  8 13  1  0  0  0  0
 34 36  1  0  0  0  0
 17 21  1  0  0  0  0
  7 12  1  0  0  0  0
 24 29  1  0  0  0  0
M  END
$$$$

  -OEChem-05262214473D

 39 38  0     1  0  0  0  0  0999 V2000
   -3.5200   -4.0268   -1.6943 C   0  0  0  0  0  0  0  0  0  0  0  0
   -2.8702   -4.8827   -1.1054 O   0  0  0  0  0  0  0  0  0  0  0  0
   -4.9704   -4.2579   -1.9614 C   0  0  0  0  0  0  0  0  0  0  0  0
   -5.1456   -4.7573   -2.9278 H   0  0  0  0  0  0  0  0  0  0  0  0
   -5.4379   -4.9112   -1.2072 H   0  0  0  0  0  0  0  0  0  0  0  0
   -5.5954   -3.3510   -1.9864 H   0  0  0  0  0  0  0  0  0  0  0  0
   -3.0424   -2.8131   -2.1606 N   0  0  0  0  0  0  0  0  0  0  0  0
   -1.6755   -2.3891   -2.0077 C   0  0  2  0  0  0  0  0  0  0  0  0
   -1.5782   -1.5673   -0.7292 C   0  0  0  0  0  0  0  0  0  0  0  0
   -2.5448   -1.0064   -0.2171 O   0  0  0  0  0  0  0  0  0  0  0  0
   -1.2087   -1.5823   -3.2094 C   0  0  0  0  0  0  0  0  0  0  0  0
   -3.6915   -2.1888   -2.6360 H   0  0  0  0  0  0  0  0  0  0  0  0
   -1.0721   -3.2977   -1.9053 H   0  0  0  0  0  0  0  0  0  0  0  0
   -1.8017   -0.6681   -3.3281 H   0  0  0  0  0  0  0  0  0  0  0  0
   -0.1601   -1.2849   -3.1045 H   0  0  0  0  0  0  0  0  0  0  0  0
   -1.3074   -2.1646   -4.1319 H   0  0  0  0  0  0  0  0  0  0  0  0
   -0.2835   -1.5112   -0.2725 N   0  0  0  0  0  0  0  0  0  0  0  0
    0.0769   -0.7658    0.9424 C   0  0  0  0  0  0  0  0  0  0  0  0
    1.4544   -1.1754    1.3971 C   0  0  0  0  0  0  0  0  0  0  0  0
    2.4831   -0.6190    1.0221 O   0  0  0  0  0  0  0  0  0  0  0  0
    0.4587   -2.0097   -0.7289 H   0  0  0  0  0  0  0  0  0  0  0  0
   -0.6512   -0.9853    1.7290 H   0  0  0  0  0  0  0  0  0  0  0  0
    0.0619    0.3060    0.7239 H   0  0  0  0  0  0  0  0  0  0  0  0
    1.4042   -2.2497    2.2790 N   0  0  0  0  0  0  0  0  0  0  0  0
    2.5729   -2.8485    2.8680 C   0  0  2  0  0  0  0  0  0  0  0  0
    2.4312   -2.7660    4.3822 C   0  0  0  0  0  0  0  0  0  0  0  0
    1.7075   -1.9468    4.9445 O   0  0  0  0  0  0  0  0  0  0  0  0
    3.8440   -2.1556    2.4025 C   0  0  0  0  0  0  0  0  0  0  0  0
    0.4919   -2.6329    2.5209 H   0  0  0  0  0  0  0  0  0  0  0  0
    2.5802   -3.8992    2.5581 H   0  0  0  0  0  0  0  0  0  0  0  0
    3.8547   -1.1018    2.7039 H   0  0  0  0  0  0  0  0  0  0  0  0
    4.7337   -2.6304    2.8290 H   0  0  0  0  0  0  0  0  0  0  0  0
    3.9292   -2.1899    1.3110 H   0  0  0  0  0  0  0  0  0  0  0  0
    3.2409   -3.6863    5.0330 N   0  0  0  0  0  0  0  0  0  0  0  0
    3.2948   -3.7969    6.4721 C   0  0  0  0  0  0  0  0  0  0  0  0
    3.7941   -4.3397    4.4864 H   0  0  0  0  0  0  0  0  0  0  0  0
    4.1082   -3.1652    6.8586 H   0  0  0  0  0  0  0  0  0  0  0  0
    2.3378   -3.4654    6.9013 H   0  0  0  0  0  0  0  0  0  0  0  0
    3.4793   -4.8444    6.7525 H   0  0  0  0  0  0  0  0  0  0  0  0
  1  3  1  0  0  0  0
  1  7  1  0  0  0  0
  1  2  2  0  0  0  0
 18 19  1  0  0  0  0
 19 24  1  0  0  0  0
 19 20  2  0  0  0  0
 25 26  1  0  0  0  0
 26 34  1  0  0  0  0
 26 27  2  0  0  0  0
  8  9  1  0  0  0  0
  9 17  1  0  0  0  0
  9 10  2  0  0  0  0
 25 28  1  0  0  0  0
  8 11  1  0  0  0  0
 34 35  1  0  0  0  0
 17 18  1  0  0  0  0
 24 25  1  0  0  0  0
  7  8  1  0  0  0  0
  3  4  1  0  0  0  0
  3  5  1  0  0  0  0
  3  6  1  0  0  0  0
 28 31  1  0  0  0  0
 28 32  1  0  0  0  0
 28 33  1  0  0  0  0
 11 14  1  0  0  0  0
 11 15  1  0  0  0  0
 11 16  1  0  0  0  0
 35 37  1  0  0  0  0
 35 38  1  0  0  0  0
 35 39  1  0  0  0  0
 18 22  1  0  0  0  0
 18 23  1  0  0  0  0
 25 30  1  0  0  0  0
  8 13  1  0  0  0  0
 34 36  1  0  0  0  0
 17 21  1  0  0  0  0
  7 12  1  0  0  0  0
 24 29  1  0  0  0  0
M  END
$$$$

  -OEChem-05262214473D

 39 38  0     1  0  0  0  0  0999 V2000
   -3.5200   -4.0268   -1.6943 C   0  0  0  0  0  0  0  0  0  0  0  0
   -2.8702   -4.8827   -1.1054 O   0  0  0  0  0  0  0  0  0  0  0  0
   -4.9704   -4.2579   -1.9614 C   0  0  0  0  0  0  0  0  0  0  0  0
   -5.1456   -4.7573   -2.9278 H   0  0  0  0  0  0  0  0  0  0  0  0
   -5.4379   -4.9112   -1.2072 H   0  0  0  0  0  0  0  0  0  0  0  0
   -5.5954   -3.3510   -1.9864 H   0  0  0  0  0  0  0  0  0  0  0  0
   -3.0424   -2.8131   -2.1606 N   0  0  0  0  0  0  0  0  0  0  0  0
   -1.6755   -2.3891   -2.0077 C   0  0  2  0  0  0  0  0  0  0  0  0
   -1.5782   -1.5673   -0.7292 C   0  0  0  0  0  0  0  0  0  0  0  0
   -2.5448   -1.0064   -0.2171 O   0  0  0  0  0  0  0  0  0  0  0  0
   -1.2087   -1.5823   -3.2094 C   0  0  0  0  0  0  0  0  0  0  0  0
   -3.6915   -2.1888   -2.6360 H   0  0  0  0  0  0  0  0  0  0  0  0
   -1.0721   -3.2977   -1.9053 H   0  0  0  0  0  0  0  0  0  0  0  0
   -1.8017   -0.6681   -3.3281 H   0  0  0  0  0  0  0  0  0  0  0  0
   -0.1601   -1.2849   -3.1045 H   0  0  0  0  0  0  0  0  0  0  0  0
   -1.3074   -2.1646   -4.1319 H   0  0  0  0  0  0  0  0  0  0  0  0
   -0.2835   -1.5112   -0.2725 N   0  0  0  0  0  0  0  0  0  0  0  0
    0.0769   -0.7658    0.9424 C   0  0  0  0  0  0  0  0  0  0  0  0
    1.4544   -1.1754    1.3971 C   0  0  0  0  0  0  0  0  0  0  0  0
    2.4520   -0.4752    1.2458 O   0  0  0  0  0  0  0  0  0  0  0  0
    0.4587   -2.0097   -0.7289 H   0  0  0  0  0  0  0  0  0  0  0  0
   -0.6512   -0.9853    1.7290 H   0  0  0  0  0  0  0  0  0  0  0  0
    0.0619    0.3060    0.7239 H   0  0  0  0  0  0  0  0  0  0  0  0
    1.4436   -2.4303    1.9966 N   0  0  0  0  0  0  0  0  0  0  0  0
    2.6217   -3.0699    2.5206 C   0  0  2  0  0  0  0  0  0  0  0  0
    2.3814   -3.3622    3.9958 C   0  0  0  0  0  0  0  0  0  0  0  0
    1.5566   -2.7538    4.6745 O   0  0  0  0  0  0  0  0  0  0  0  0
    3.8541   -2.1989    2.3328 C   0  0  0  0  0  0  0  0  0  0  0  0
    0.5549   -2.9229    2.0687 H   0  0  0  0  0  0  0  0  0  0  0  0
    2.7388   -4.0127    1.9752 H   0  0  0  0  0  0  0  0  0  0  0  0
    3.7552   -1.2498    2.8720 H   0  0  0  0  0  0  0  0  0  0  0  0
    4.7539   -2.6989    2.7060 H   0  0  0  0  0  0  0  0  0  0  0  0
    4.0083   -1.9651    1.2738 H   0  0  0  0  0  0  0  0  0  0  0  0
    3.2265   -4.3529    4.4760 N   0  0  0  0  0  0  0  0  0  0  0  0
    3.2020   -4.8006    5.8489 C   0  0  0  0  0  0  0  0  0  0  0  0
    3.8665   -4.8163    3.8377 H   0  0  0  0  0  0  0  0  0  0  0  0
    3.9327   -4.2248    6.4360 H   0  0  0  0  0  0  0  0  0  0  0  0
    2.1955   -4.6490    6.2660 H   0  0  0  0  0  0  0  0  0  0  0  0
    3.4590   -5.8693    5.8905 H   0  0  0  0  0  0  0  0  0  0  0  0
  1  3  1  0  0  0  0
  1  7  1  0  0  0  0
  1  2  2  0  0  0  0
 18 19  1  0  0  0  0
 19 24  1  0  0  0  0
 19 20  2  0  0  0  0
 25 26  1  0  0  0  0
 26 34  1  0  0  0  0
 26 27  2  0  0  0  0
  8  9  1  0  0  0  0
  9 17  1  0  0  0  0
  9 10  2  0  0  0  0
 25 28  1  0  0  0  0
  8 11  1  0  0  0  0
 34 35  1  0  0  0  0
 17 18  1  0  0  0  0
 24 25  1  0  0  0  0
  7  8  1  0  0  0  0
  3  4  1  0  0  0  0
  3  5  1  0  0  0  0
  3  6  1  0  0  0  0
 28 31  1  0  0  0  0
 28 32  1  0  0  0  0
 28 33  1  0  0  0  0
 11 14  1  0  0  0  0
 11 15  1  0  0  0  0
 11 16  1  0  0  0  0
 35 37  1  0  0  0  0
 35 38  1  0  0  0  0
 35 39  1  0  0  0  0
 18 22  1  0  0  0  0
 18 23  1  0  0  0  0
 25 30  1  0  0  0  0
  8 13  1  0  0  0  0
 34 36  1  0  0  0  0
 17 21  1  0  0  0  0
  7 12  1  0  0  0  0
 24 29  1  0  0  0  0
M  END
$$$$

  -OEChem-05262214473D

 39 38  0     1  0  0  0  0  0999 V2000
   -3.5200   -4.0268   -1.6943 C   0  0  0  0  0  0  0  0  0  0  0  0
   -2.8702   -4.8827   -1.1054 O   0  0  0  0  0  0  0  0  0  0  0  0
   -4.9704   -4.2579   -1.9614 C   0  0  0  0  0  0  0  0  0  0  0  0
   -5.1456   -4.7573   -2.9278 H   0  0  0  0  0  0  0  0  0  0  0  0
   -5.4379   -4.9112   -1.2072 H   0  0  0  0  0  0  0  0  0  0  0  0
   -5.5954   -3.3510   -1.9864 H   0  0  0  0  0  0  0  0  0  0  0  0
   -3.0424   -2.8131   -2.1606 N   0  0  0  0  0  0  0  0  0  0  0  0
   -1.6755   -2.3891   -2.0077 C   0  0  2  0  0  0  0  0  0  0  0  0
   -1.5782   -1.5673   -0.7292 C   0  0  0  0  0  0  0  0  0  0  0  0
   -2.5448   -1.0064   -0.2171 O   0  0  0  0  0  0  0  0  0  0  0  0
   -1.2087   -1.5823   -3.2094 C   0  0  0  0  0  0  0  0  0  0  0  0
   -3.6915   -2.1888   -2.6360 H   0  0  0  0  0  0  0  0  0  0  0  0
   -1.0721   -3.2977   -1.9053 H   0  0  0  0  0  0  0  0  0  0  0  0
   -1.8017   -0.6681   -3.3281 H   0  0  0  0  0  0  0  0  0  0  0  0
   -0.1601   -1.2849   -3.1045 H   0  0  0  0  0  0  0  0  0  0  0  0
   -1.3074   -2.1646   -4.1319 H   0  0  0  0  0  0  0  0  0  0  0  0
   -0.2835   -1.5112   -0.2725 N   0  0  0  0  0  0  0  0  0  0  0  0
    0.0769   -0.7658    0.9424 C   0  0  0  0  0  0  0  0  0  0  0  0
    1.4544   -1.1754    1.3971 C   0  0  0  0  0  0  0  0  0  0  0  0
    2.3951   -0.3917    1.4937 O   0  0  0  0  0  0  0  0  0  0  0  0
    0.4587   -2.0097   -0.7289 H   0  0  0  0  0  0  0  0  0  0  0  0
   -0.6512   -0.9853    1.7290 H   0  0  0  0  0  0  0  0  0  0  0  0
    0.0619    0.3060    0.7239 H   0  0  0  0  0  0  0  0  0  0  0  0
    1.5158   -2.5350    1.6839 N   0  0  0  0  0  0  0  0  0  0  0  0
    2.7106   -3.1978    2.1360 C   0  0  2  0  0  0  0  0  0  0  0  0
    2.4070   -3.8506    3.4781 C   0  0  0  0  0  0  0  0  0  0  0  0
    1.4929   -3.4812    4.2122 O   0  0  0  0  0  0  0  0  0  0  0  0
    3.8722   -2.2235    2.2559 C   0  0  0  0  0  0  0  0  0  0  0  0
    0.6702   -3.0911    1.5677 H   0  0  0  0  0  0  0  0  0  0  0  0
    2.9419   -3.9721    1.3965 H   0  0  0  0  0  0  0  0  0  0  0  0
    3.6588   -1.4403    2.9924 H   0  0  0  0  0  0  0  0  0  0  0  0
    4.7875   -2.7344    2.5725 H   0  0  0  0  0  0  0  0  0  0  0  0
    4.0698   -1.7329    1.2967 H   0  0  0  0  0  0  0  0  0  0  0  0
    3.3039   -4.8661    3.7792 N   0  0  0  0  0  0  0  0  0  0  0  0
    3.2346   -5.6300    5.0030 C   0  0  0  0  0  0  0  0  0  0  0  0
    4.0193   -5.1176    3.1034 H   0  0  0  0  0  0  0  0  0  0  0  0
    3.8755   -5.1620    5.7647 H   0  0  0  0  0  0  0  0  0  0  0  0
    2.1952   -5.6530    5.3624 H   0  0  0  0  0  0  0  0  0  0  0  0
    3.5801   -6.6571    4.8140 H   0  0  0  0  0  0  0  0  0  0  0  0
  1  3  1  0  0  0  0
  1  7  1  0  0  0  0
  1  2  2  0  0  0  0
 18 19  1  0  0  0  0
 19 24  1  0  0  0  0
 19 20  2  0  0  0  0
 25 26  1  0  0  0  0
 26 34  1  0  0  0  0
 26 27  2  0  0  0  0
  8  9  1  0  0  0  0
  9 17  1  0  0  0  0
  9 10  2  0  0  0  0
 25 28  1  0  0  0  0
  8 11  1  0  0  0  0
 34 35  1  0  0  0  0
 17 18  1  0  0  0  0
 24 25  1  0  0  0  0
  7  8  1  0  0  0  0
  3  4  1  0  0  0  0
  3  5  1  0  0  0  0
  3  6  1  0  0  0  0
 28 31  1  0  0  0  0
 28 32  1  0  0  0  0
 28 33  1  0  0  0  0
 11 14  1  0  0  0  0
 11 15  1  0  0  0  0
 11 16  1  0  0  0  0
 35 37  1  0  0  0  0
 35 38  1  0  0  0  0
 35 39  1  0  0  0  0
 18 22  1  0  0  0  0
 18 23  1  0  0  0  0
 25 30  1  0  0  0  0
  8 13  1  0  0  0  0
 34 36  1  0  0  0  0
 17 21  1  0  0  0  0
  7 12  1  0  0  0  0
 24 29  1  0  0  0  0
M  END
$$$$

  -OEChem-05262214473D

 39 38  0     1  0  0  0  0  0999 V2000
   -3.5200   -4.0268   -1.6943 C   0  0  0  0  0  0  0  0  0  0  0  0
   -2.8702   -4.8827   -1.1054 O   0  0  0  0  0  0  0  0  0  0  0  0
   -4.9704   -4.2579   -1.9614 C   0  0  0  0  0  0  0  0  0  0  0  0
   -5.1456   -4.7573   -2.9278 H   0  0  0  0  0  0  0  0  0  0  0  0
   -5.4379   -4.9112   -1.2072 H   0  0  0  0  0  0  0  0  0  0  0  0
   -5.5954   -3.3510   -1.9864 H   0  0  0  0  0  0  0  0  0  0  0  0
   -3.0424   -2.8131   -2.1606 N   0  0  0  0  0  0  0  0  0  0  0  0
   -1.6755   -2.3891   -2.0077 C   0  0  2  0  0  0  0  0  0  0  0  0
   -1.5782   -1.5673   -0.7292 C   0  0  0  0  0  0  0  0  0  0  0  0
   -2.5448   -1.0064   -0.2171 O   0  0  0  0  0  0  0  0  0  0  0  0
   -1.2087   -1.5823   -3.2094 C   0  0  0  0  0  0  0  0  0  0  0  0
   -3.6915   -2.1888   -2.6360 H   0  0  0  0  0  0  0  0  0  0  0  0
   -1.0721   -3.2977   -1.9053 H   0  0  0  0  0  0  0  0  0  0  0  0
   -1.8017   -0.6681   -3.3281 H   0  0  0  0  0  0  0  0  0  0  0  0
   -0.1601   -1.2849   -3.1045 H   0  0  0  0  0  0  0  0  0  0  0  0
   -1.3074   -2.1646   -4.1319 H   0  0  0  0  0  0  0  0  0  0  0  0
   -0.2835   -1.5112   -0.2725 N   0  0  0  0  0  0  0  0  0  0  0  0
    0.0769   -0.7658    0.9424 C   0  0  0  0  0  0  0  0  0  0  0  0
    1.4544   -1.1754    1.3971 C   0  0  0  0  0  0  0  0  0  0  0  0
    2.3161   -0.3741    1.7489 O   0  0  0  0  0  0  0  0  0  0  0  0
    0.4587   -2.0097   -0.7289 H   0  0  0  0  0  0  0  0  0  0  0  0
   -0.6512   -0.9853    1.7290 H   0  0  0  0  0  0  0  0  0  0  0  0
    0.0619    0.3060    0.7239 H   0  0  0  0  0  0  0  0  0  0  0  0
    1.6156   -2.5564    1.3621 N   0  0  0  0  0  0  0  0  0  0  0  0
    2.8335   -3.2234    1.7406 C   0  0  2  0  0  0  0  0  0  0  0  0
    2.5064   -4.1979    2.8643 C   0  0  0  0  0  0  0  0  0  0  0  0
    1.5206   -4.0795    3.5892 O   0  0  0  0  0  0  0  0  0  0  0  0
    3.8969   -2.2277    2.1770 C   0  0  0  0  0  0  0  0  0  0  0  0
    0.8300   -3.1260    1.0521 H   0  0  0  0  0  0  0  0  0  0  0  0
    3.1755   -3.7802    0.8614 H   0  0  0  0  0  0  0  0  0  0  0  0
    3.5721   -1.6603    3.0568 H   0  0  0  0  0  0  0  0  0  0  0  0
    4.8320   -2.7345    2.4374 H   0  0  0  0  0  0  0  0  0  0  0  0
    4.1095   -1.5092    1.3780 H   0  0  0  0  0  0  0  0  0  0  0  0
    3.4677   -5.1910    2.9902 N   0  0  0  0  0  0  0  0  0  0  0  0
    3.3903   -6.2285    3.9921 C   0  0  0  0  0  0  0  0  0  0  0  0
    4.2420   -5.2230    2.3336 H   0  0  0  0  0  0  0  0  0  0  0  0
    3.9407   -5.9129    4.8907 H   0  0  0  0  0  0  0  0  0  0  0  0
    2.3368   -6.4091    4.2520 H   0  0  0  0  0  0  0  0  0  0  0  0
    3.8342   -7.1539    3.5964 H   0  0  0  0  0  0  0  0  0  0  0  0
  1  3  1  0  0  0  0
  1  7  1  0  0  0  0
  1  2  2  0  0  0  0
 18 19  1  0  0  0  0
 19 24  1  0  0  0  0
 19 20  2  0  0  0  0
 25 26  1  0  0  0  0
 26 34  1  0  0  0  0
 26 27  2  0  0  0  0
  8  9  1  0  0  0  0
  9 17  1  0  0  0  0
  9 10  2  0  0  0  0
 25 28  1  0  0  0  0
  8 11  1  0  0  0  0
 34 35  1  0  0  0  0
 17 18  1  0  0  0  0
 24 25  1  0  0  0  0
  7  8  1  0  0  0  0
  3  4  1  0  0  0  0
  3  5  1  0  0  0  0
  3  6  1  0  0  0  0
 28 31  1  0  0  0  0
 28 32  1  0  0  0  0
 28 33  1  0  0  0  0
 11 14  1  0  0  0  0
 11 15  1  0  0  0  0
 11 16  1  0  0  0  0
 35 37  1  0  0  0  0
 35 38  1  0  0  0  0
 35 39  1  0  0  0  0
 18 22  1  0  0  0  0
 18 23  1  0  0  0  0
 25 30  1  0  0  0  0
  8 13  1  0  0  0  0
 34 36  1  0  0  0  0
 17 21  1  0  0  0  0
  7 12  1  0  0  0  0
 24 29  1  0  0  0  0
M  END
$$$$

  -OEChem-05262214473D

 39 38  0     1  0  0  0  0  0999 V2000
   -3.5200   -4.0268   -1.6943 C   0  0  0  0  0  0  0  0  0  0  0  0
   -2.8702   -4.8827   -1.1054 O   0  0  0  0  0  0  0  0  0  0  0  0
   -4.9704   -4.2579   -1.9614 C   0  0  0  0  0  0  0  0  0  0  0  0
   -5.1456   -4.7573   -2.9278 H   0  0  0  0  0  0  0  0  0  0  0  0
   -5.4379   -4.9112   -1.2072 H   0  0  0  0  0  0  0  0  0  0  0  0
   -5.5954   -3.3510   -1.9864 H   0  0  0  0  0  0  0  0  0  0  0  0
   -3.0424   -2.8131   -2.1606 N   0  0  0  0  0  0  0  0  0  0  0  0
   -1.6755   -2.3891   -2.0077 C   0  0  2  0  0  0  0  0  0  0  0  0
   -1.5782   -1.5673   -0.7292 C   0  0  0  0  0  0  0  0  0  0  0  0
   -2.5448   -1.0064   -0.2171 O   0  0  0  0  0  0  0  0  0  0  0  0
   -1.2087   -1.5823   -3.2094 C   0  0  0  0  0  0  0  0  0  0  0  0
   -3.6915   -2.1888   -2.6360 H   0  0  0  0  0  0  0  0  0  0  0  0
   -1.0721   -3.2977   -1.9053 H   0  0  0  0  0  0  0  0  0  0  0  0
   -1.8017   -0.6681   -3.3281 H   0  0  0  0  0  0  0  0  0  0  0  0
   -0.1601   -1.2849   -3.1045 H   0  0  0  0  0  0  0  0  0  0  0  0
   -1.3074   -2.1646   -4.1319 H   0  0  0  0  0  0  0  0  0  0  0  0
   -0.2835   -1.5112   -0.2725 N   0  0  0  0  0  0  0  0  0  0  0  0
    0.0769   -0.7658    0.9424 C   0  0  0  0  0  0  0  0  0  0  0  0
    1.4544   -1.1754    1.3971 C   0  0  0  0  0  0  0  0  0  0  0  0
    2.2205   -0.4236    1.9940 O   0  0  0  0  0  0  0  0  0  0  0  0
    0.4587   -2.0097   -0.7289 H   0  0  0  0  0  0  0  0  0  0  0  0
   -0.6512   -0.9853    1.7290 H   0  0  0  0  0  0  0  0  0  0  0  0
    0.0619    0.3060    0.7239 H   0  0  0  0  0  0  0  0  0  0  0  0
    1.7363   -2.4933    1.0532 N   0  0  0  0  0  0  0  0  0  0  0  0
    2.9820   -3.1449    1.3613 C   0  0  2  0  0  0  0  0  0  0  0  0
    2.6726   -4.3805    2.1963 C   0  0  0  0  0  0  0  0  0  0  0  0
    1.6380   -4.5079    2.8477 O   0  0  0  0  0  0  0  0  0  0  0  0
    3.9267   -2.2111    2.1017 C   0  0  0  0  0  0  0  0  0  0  0  0
    1.0233   -3.0254    0.5571 H   0  0  0  0  0  0  0  0  0  0  0  0
    3.4239   -3.4500    0.4064 H   0  0  0  0  0  0  0  0  0  0  0  0
    3.5010   -1.8948    3.0609 H   0  0  0  0  0  0  0  0  0  0  0  0
    4.8845   -2.6992    2.3101 H   0  0  0  0  0  0  0  0  0  0  0  0
    4.1246   -1.3093    1.5123 H   0  0  0  0  0  0  0  0  0  0  0  0
    3.7067   -5.3054    2.1628 N   0  0  0  0  0  0  0  0  0  0  0  0
    3.6585   -6.5553    2.8850 C   0  0  0  0  0  0  0  0  0  0  0  0
    4.5195   -5.1254    1.5807 H   0  0  0  0  0  0  0  0  0  0  0  0
    4.1237   -6.4265    3.8734 H   0  0  0  0  0  0  0  0  0  0  0  0
    2.6107   -6.8658    3.0107 H   0  0  0  0  0  0  0  0  0  0  0  0
    4.2041   -7.3259    2.3207 H   0  0  0  0  0  0  0  0  0  0  0  0
  1  3  1  0  0  0  0
  1  7  1  0  0  0  0
  1  2  2  0  0  0  0
 18 19  1  0  0  0  0
 19 24  1  0  0  0  0
 19 20  2  0  0  0  0
 25 26  1  0  0  0  0
 26 34  1  0  0  0  0
 26 27  2  0  0  0  0
  8  9  1  0  0  0  0
  9 17  1  0  0  0  0
  9 10  2  0  0  0  0
 25 28  1  0  0  0  0
  8 11  1  0  0  0  0
 34 35  1  0  0  0  0
 17 18  1  0  0  0  0
 24 25  1  0  0  0  0
  7  8  1  0  0  0  0
  3  4  1  0  0  0  0
  3  5  1  0  0  0  0
  3  6  1  0  0  0  0
 28 31  1  0  0  0  0
 28 32  1  0  0  0  0
 28 33  1  0  0  0  0
 11 14  1  0  0  0  0
 11 15  1  0  0  0  0
 11 16  1  0  0  0  0
 35 37  1  0  0  0  0
 35 38  1  0  0  0  0
 35 39  1  0  0  0  0
 18 22  1  0  0  0  0
 18 23  1  0  0  0  0
 25 30  1  0  0  0  0
  8 13  1  0  0  0  0
 34 36  1  0  0  0  0
 17 21  1  0  0  0  0
  7 12  1  0  0  0  0
 24 29  1  0  0  0  0
M  END
$$$$

  -OEChem-05262214473D

 39 38  0     1  0  0  0  0  0999 V2000
   -3.5200   -4.0268   -1.6943 C   0  0  0  0  0  0  0  0  0  0  0  0
   -2.8702   -4.8827   -1.1054 O   0  0  0  0  0  0  0  0  0  0  0  0
   -4.9704   -4.2579   -1.9614 C   0  0  0  0  0  0  0  0  0  0  0  0
   -5.1456   -4.7573   -2.9278 H   0  0  0  0  0  0  0  0  0  0  0  0
   -5.4379   -4.9112   -1.2072 H   0  0  0  0  0  0  0  0  0  0  0  0
   -5.5954   -3.3510   -1.9864 H   0  0  0  0  0  0  0  0  0  0  0  0
   -3.0424   -2.8131   -2.1606 N   0  0  0  0  0  0  0  0  0  0  0  0
   -1.6755   -2.3891   -2.0077 C   0  0  2  0  0  0  0  0  0  0  0  0
   -1.5782   -1.5673   -0.7292 C   0  0  0  0  0  0  0  0  0  0  0  0
   -2.5448   -1.0064   -0.2171 O   0  0  0  0  0  0  0  0  0  0  0  0
   -1.2087   -1.5823   -3.2094 C   0  0  0  0  0  0  0  0  0  0  0  0
   -3.6915   -2.1888   -2.6360 H   0  0  0  0  0  0  0  0  0  0  0  0
   -1.0721   -3.2977   -1.9053 H   0  0  0  0  0  0  0  0  0  0  0  0
   -1.8017   -0.6681   -3.3281 H   0  0  0  0  0  0  0  0  0  0  0  0
   -0.1601   -1.2849   -3.1045 H   0  0  0  0  0  0  0  0  0  0  0  0
   -1.3074   -2.1646   -4.1319 H   0  0  0  0  0  0  0  0  0  0  0  0
   -0.2835   -1.5112   -0.2725 N   0  0  0  0  0  0  0  0  0  0  0  0
    0.0769   -0.7658    0.9424 C   0  0  0  0  0  0  0  0  0  0  0  0
    1.4544   -1.1754    1.3971 C   0  0  0  0  0  0  0  0  0  0  0  0
    2.1147   -0.5368    2.2123 O   0  0  0  0  0  0  0  0  0  0  0  0
    0.4587   -2.0097   -0.7289 H   0  0  0  0  0  0  0  0  0  0  0  0
   -0.6512   -0.9853    1.7290 H   0  0  0  0  0  0  0  0  0  0  0  0
    0.0619    0.3060    0.7239 H   0  0  0  0  0  0  0  0  0  0  0  0
    1.8697   -2.3498    0.7783 N   0  0  0  0  0  0  0  0  0  0  0  0
    3.1460   -2.9679    1.0238 C   0  0  2  0  0  0  0  0  0  0  0  0
    2.8943   -4.3858    1.5195 C   0  0  0  0  0  0  0  0  0  0  0  0
    1.8369   -4.7371    2.0385 O   0  0  0  0  0  0  0  0  0  0  0  0
    3.9595   -2.1750    2.0349 C   0  0  0  0  0  0  0  0  0  0  0  0
    1.2370   -2.7960    0.1164 H   0  0  0  0  0  0  0  0  0  0  0  0
    3.6700   -3.0041    0.0625 H   0  0  0  0  0  0  0  0  0  0  0  0
    3.4504   -2.1278    3.0044 H   0  0  0  0  0  0  0  0  0  0  0  0
    4.9415   -2.6309    2.1991 H   0  0  0  0  0  0  0  0  0  0  0  0
    4.1142   -1.1468    1.6903 H   0  0  0  0  0  0  0  0  0  0  0  0
    4.0048   -5.2016    1.3533 N   0  0  0  0  0  0  0  0  0  0  0  0
    4.0209   -6.5882    1.7571 C   0  0  0  0  0  0  0  0  0  0  0  0
    4.8328   -4.8314    0.8962 H   0  0  0  0  0  0  0  0  0  0  0  0
    4.4122   -6.6676    2.7821 H   0  0  0  0  0  0  0  0  0  0  0  0
    2.9983   -6.9919    1.7228 H   0  0  0  0  0  0  0  0  0  0  0  0
    4.6646   -7.1615    1.0737 H   0  0  0  0  0  0  0  0  0  0  0  0
  1  3  1  0  0  0  0
  1  7  1  0  0  0  0
  1  2  2  0  0  0  0
 18 19  1  0  0  0  0
 19 24  1  0  0  0  0
 19 20  2  0  0  0  0
 25 26  1  0  0  0  0
 26 34  1  0  0  0  0
 26 27  2  0  0  0  0
  8  9  1  0  0  0  0
  9 17  1  0  0  0  0
  9 10  2  0  0  0  0
 25 28  1  0  0  0  0
  8 11  1  0  0  0  0
 34 35  1  0  0  0  0
 17 18  1  0  0  0  0
 24 25  1  0  0  0  0
  7  8  1  0  0  0  0
  3  4  1  0  0  0  0
  3  5  1  0  0  0  0
  3  6  1  0  0  0  0
 28 31  1  0  0  0  0
 28 32  1  0  0  0  0
 28 33  1  0  0  0  0
 11 14  1  0  0  0  0
 11 15  1  0  0  0  0
 11 16  1  0  0  0  0
 35 37  1  0  0  0  0
 35 38  1  0  0  0  0
 35 39  1  0  0  0  0
 18 22  1  0  0  0  0
 18 23  1  0  0  0  0
 25 30  1  0  0  0  0
  8 13  1  0  0  0  0
 34 36  1  0  0  0  0
 17 21  1  0  0  0  0
  7 12  1  0  0  0  0
 24 29  1  0  0  0  0
M  END
$$$$

  -OEChem-05262214473D

 39 38  0     1  0  0  0  0  0999 V2000
   -3.5200   -4.0268   -1.6943 C   0  0  0  0  0  0  0  0  0  0  0  0
   -2.8702   -4.8827   -1.1054 O   0  0  0  0  0  0  0  0  0  0  0  0
   -4.9704   -4.2579   -1.9614 C   0  0  0  0  0  0  0  0  0  0  0  0
   -5.1456   -4.7573   -2.9278 H   0  0  0  0  0  0  0  0  0  0  0  0
   -5.4379   -4.9112   -1.2072 H   0  0  0  0  0  0  0  0  0  0  0  0
   -5.5954   -3.3510   -1.9864 H   0  0  0  0  0  0  0  0  0  0  0  0
   -3.0424   -2.8131   -2.1606 N   0  0  0  0  0  0  0  0  0  0  0  0
   -1.6755   -2.3891   -2.0077 C   0  0  2  0  0  0  0  0  0  0  0  0
   -1.5782   -1.5673   -0.7292 C   0  0  0  0  0  0  0  0  0  0  0  0
   -2.5448   -1.0064   -0.2171 O   0  0  0  0  0  0  0  0  0  0  0  0
   -1.2087   -1.5823   -3.2094 C   0  0  0  0  0  0  0  0  0  0  0  0
   -3.6915   -2.1888   -2.6360 H   0  0  0  0  0  0  0  0  0  0  0  0
   -1.0721   -3.2977   -1.9053 H   0  0  0  0  0  0  0  0  0  0  0  0
   -1.8017   -0.6681   -3.3281 H   0  0  0  0  0  0  0  0  0  0  0  0
   -0.1601   -1.2849   -3.1045 H   0  0  0  0  0  0  0  0  0  0  0  0
   -1.3074   -2.1646   -4.1319 H   0  0  0  0  0  0  0  0  0  0  0  0
   -0.2835   -1.5112   -0.2725 N   0  0  0  0  0  0  0  0  0  0  0  0
    0.0769   -0.7658    0.9424 C   0  0  0  0  0  0  0  0  0  0  0  0
    1.4544   -1.1754    1.3971 C   0  0  0  0  0  0  0  0  0  0  0  0
    2.0061   -0.7061    2.3890 O   0  0  0  0  0  0  0  0  0  0  0  0
    0.4587   -2.0097   -0.7289 H   0  0  0  0  0  0  0  0  0  0  0  0
   -0.6512   -0.9853    1.7290 H   0  0  0  0  0  0  0  0  0  0  0  0
    0.0619    0.3060    0.7239 H   0  0  0  0  0  0  0  0  0  0  0  0
    2.0067   -2.1357    0.5561 N   0  0  0  0  0  0  0  0  0  0  0  0
    3.3144   -2.7042    0.7513 C   0  0  2  0  0  0  0  0  0  0  0  0
    3.1566   -4.2135    0.8801 C   0  0  0  0  0  0  0  0  0  0  0  0
    2.1038   -4.7516    1.2167 O   0  0  0  0  0  0  0  0  0  0  0  0
    3.9931   -2.1217    1.9812 C   0  0  0  0  0  0  0  0  0  0  0  0
    1.4565   -2.4535   -0.2401 H   0  0  0  0  0  0  0  0  0  0  0  0
    3.8972   -2.4728   -0.1470 H   0  0  0  0  0  0  0  0  0  0  0  0
    3.4236   -2.3435    2.8912 H   0  0  0  0  0  0  0  0  0  0  0  0
    4.9990   -2.5342    2.1121 H   0  0  0  0  0  0  0  0  0  0  0  0
    4.0789   -1.0328    1.9000 H   0  0  0  0  0  0  0  0  0  0  0  0
    4.3415   -4.8865    0.6170 N   0  0  0  0  0  0  0  0  0  0  0  0
    4.4529   -6.3249    0.6854 C   0  0  0  0  0  0  0  0  0  0  0  0
    5.1607   -4.3610    0.3265 H   0  0  0  0  0  0  0  0  0  0  0  0
    4.7864   -6.6199    1.6913 H   0  0  0  0  0  0  0  0  0  0  0  0
    3.4730   -6.7788    0.4763 H   0  0  0  0  0  0  0  0  0  0  0  0
    5.1842   -6.6717   -0.0595 H   0  0  0  0  0  0  0  0  0  0  0  0
  1  3  1  0  0  0  0
  1  7  1  0  0  0  0
  1  2  2  0  0  0  0
 18 19  1  0  0  0  0
 19 24  1  0  0  0  0
 19 20  2  0  0  0  0
 25 26  1  0  0  0  0
 26 34  1  0  0  0  0
 26 27  2  0  0  0  0
  8  9  1  0  0  0  0
  9 17  1  0  0  0  0
  9 10  2  0  0  0  0
 25 28  1  0  0  0  0
  8 11  1  0  0  0  0
 34 35  1  0  0  0  0
 17 18  1  0  0  0  0
 24 25  1  0  0  0  0
  7  8  1  0  0  0  0
  3  4  1  0  0  0  0
  3  5  1  0  0  0  0
  3  6  1  0  0  0  0
 28 31  1  0  0  0  0
 28 32  1  0  0  0  0
 28 33  1  0  0  0  0
 11 14  1  0  0  0  0
 11 15  1  0  0  0  0
 11 16  1  0  0  0  0
 35 37  1  0  0  0  0
 35 38  1  0  0  0  0
 35 39  1  0  0  0  0
 18 22  1  0  0  0  0
 18 23  1  0  0  0  0
 25 30  1  0  0  0  0
  8 13  1  0  0  0  0
 34 36  1  0  0  0  0
 17 21  1  0  0  0  0
  7 12  1  0  0  0  0
 24 29  1  0  0  0  0
M  END
$$$$

  -OEChem-05262214473D

 39 38  0     1  0  0  0  0  0999 V2000
   -3.5200   -4.0268   -1.6943 C   0  0  0  0  0  0  0  0  0  0  0  0
   -2.8702   -4.8827   -1.1054 O   0  0  0  0  0  0  0  0  0  0  0  0
   -4.9704   -4.2579   -1.9614 C   0  0  0  0  0  0  0  0  0  0  0  0
   -5.1456   -4.7573   -2.9278 H   0  0  0  0  0  0  0  0  0  0  0  0
   -5.4379   -4.9112   -1.2072 H   0  0  0  0  0  0  0  0  0  0  0  0
   -5.5954   -3.3510   -1.9864 H   0  0  0  0  0  0  0  0  0  0  0  0
   -3.0424   -2.8131   -2.1606 N   0  0  0  0  0  0  0  0  0  0  0  0
   -1.6755   -2.3891   -2.0077 C   0  0  2  0  0  0  0  0  0  0  0  0
   -1.5782   -1.5673   -0.7292 C   0  0  0  0  0  0  0  0  0  0  0  0
   -2.5448   -1.0064   -0.2171 O   0  0  0  0  0  0  0  0  0  0  0  0
   -1.2087   -1.5823   -3.2094 C   0  0  0  0  0  0  0  0  0  0  0  0
   -3.6915   -2.1888   -2.6360 H   0  0  0  0  0  0  0  0  0  0  0  0
   -1.0721   -3.2977   -1.9053 H   0  0  0  0  0  0  0  0  0  0  0  0
   -1.8017   -0.6681   -3.3281 H   0  0  0  0  0  0  0  0  0  0  0  0
   -0.1601   -1.2849   -3.1045 H   0  0  0  0  0  0  0  0  0  0  0  0
   -1.3074   -2.1646   -4.1319 H   0  0  0  0  0  0  0  0  0  0  0  0
   -0.2835   -1.5112   -0.2725 N   0  0  0  0  0  0  0  0  0  0  0  0
    0.0769   -0.7658    0.9424 C   0  0  0  0  0  0  0  0  0  0  0  0
    1.4544   -1.1754    1.3971 C   0  0  0  0  0  0  0  0  0  0  0  0
    1.9019   -0.9199    2.5119 O   0  0  0  0  0  0  0  0  0  0  0  0
    0.4587   -2.0097   -0.7289 H   0  0  0  0  0  0  0  0  0  0  0  0
   -0.6512   -0.9853    1.7290 H   0  0  0  0  0  0  0  0  0  0  0  0
    0.0619    0.3060    0.7239 H   0  0  0  0  0  0  0  0  0  0  0  0
    2.1379   -1.8657    0.4017 N   0  0  0  0  0  0  0  0  0  0  0  0
    3.4756   -2.3720    0.5622 C   0  0  2  0  0  0  0  0  0  0  0  0
    3.4414   -3.8755    0.3217 C   0  0  0  0  0  0  0  0  0  0  0  0
    2.4206   -4.5504    0.4381 O   0  0  0  0  0  0  0  0  0  0  0  0
    4.0251   -2.0550    1.9443 C   0  0  0  0  0  0  0  0  0  0  0  0
    1.6668   -2.0212   -0.4880 H   0  0  0  0  0  0  0  0  0  0  0  0
    4.0898   -1.8923   -0.2076 H   0  0  0  0  0  0  0  0  0  0  0  0
    3.4226   -2.5271    2.7289 H   0  0  0  0  0  0  0  0  0  0  0  0
    5.0531   -2.4157    2.0550 H   0  0  0  0  0  0  0  0  0  0  0  0
    4.0212   -0.9750    2.1270 H   0  0  0  0  0  0  0  0  0  0  0  0
    4.6939   -4.3818    0.0039 N   0  0  0  0  0  0  0  0  0  0  0  0
    4.9250   -5.7834   -0.2571 C   0  0  0  0  0  0  0  0  0  0  0  0
    5.4808   -3.7463   -0.0894 H   0  0  0  0  0  0  0  0  0  0  0  0
    5.2208   -6.2866    0.6753 H   0  0  0  0  0  0  0  0  0  0  0  0
    4.0027   -6.2411   -0.6439 H   0  0  0  0  0  0  0  0  0  0  0  0
    5.7276   -5.8901   -1.0017 H   0  0  0  0  0  0  0  0  0  0  0  0
  1  3  1  0  0  0  0
  1  7  1  0  0  0  0
  1  2  2  0  0  0  0
 18 19  1  0  0  0  0
 19 24  1  0  0  0  0
 19 20  2  0  0  0  0
 25 26  1  0  0  0  0
 26 34  1  0  0  0  0
 26 27  2  0  0  0  0
  8  9  1  0  0  0  0
  9 17  1  0  0  0  0
  9 10  2  0  0  0  0
 25 28  1  0  0  0  0
  8 11  1  0  0  0  0
 34 35  1  0  0  0  0
 17 18  1  0  0  0  0
 24 25  1  0  0  0  0
  7  8  1  0  0  0  0
  3  4  1  0  0  0  0
  3  5  1  0  0  0  0
  3  6  1  0  0  0  0
 28 31  1  0  0  0  0
 28 32  1  0  0  0  0
 28 33  1  0  0  0  0
 11 14  1  0  0  0  0
 11 15  1  0  0  0  0
 11 16  1  0  0  0  0
 35 37  1  0  0  0  0
 35 38  1  0  0  0  0
 35 39  1  0  0  0  0
 18 22  1  0  0  0  0
 18 23  1  0  0  0  0
 25 30  1  0  0  0  0
  8 13  1  0  0  0  0
 34 36  1  0  0  0  0
 17 21  1  0  0  0  0
  7 12  1  0  0  0  0
 24 29  1  0  0  0  0
M  END
$$$$

  -OEChem-05262214473D

 39 38  0     1  0  0  0  0  0999 V2000
   -3.5200   -4.0268   -1.6943 C   0  0  0  0  0  0  0  0  0  0  0  0
   -2.8702   -4.8827   -1.1054 O   0  0  0  0  0  0  0  0  0  0  0  0
   -4.9704   -4.2579   -1.9614 C   0  0  0  0  0  0  0  0  0  0  0  0
   -5.1456   -4.7573   -2.9278 H   0  0  0  0  0  0  0  0  0  0  0  0
   -5.4379   -4.9112   -1.2072 H   0  0  0  0  0  0  0  0  0  0  0  0
   -5.5954   -3.3510   -1.9864 H   0  0  0  0  0  0  0  0  0  0  0  0
   -3.0424   -2.8131   -2.1606 N   0  0  0  0  0  0  0  0  0  0  0  0
   -1.6755   -2.3891   -2.0077 C   0  0  2  0  0  0  0  0  0  0  0  0
   -1.5782   -1.5673   -0.7292 C   0  0  0  0  0  0  0  0  0  0  0  0
   -2.5448   -1.0064   -0.2171 O   0  0  0  0  0  0  0  0  0  0  0  0
   -1.2087   -1.5823   -3.2094 C   0  0  0  0  0  0  0  0  0  0  0  0
   -3.6915   -2.1888   -2.6360 H   0  0  0  0  0  0  0  0  0  0  0  0
   -1.0721   -3.2977   -1.9053 H   0  0  0  0  0  0  0  0  0  0  0  0
   -1.8017   -0.6681   -3.3281 H   0  0  0  0  0  0  0  0  0  0  0  0
   -0.1601   -1.2849   -3.1045 H   0  0  0  0  0  0  0  0  0  0  0  0
   -1.3074   -2.1646   -4.1319 H   0  0  0  0  0  0  0  0  0  0  0  0
   -0.2835   -1.5112   -0.2725 N   0  0  0  0  0  0  0  0  0  0  0  0
    0.0769   -0.7658    0.9424 C   0  0  0  0  0  0  0  0  0  0  0  0
    1.4544   -1.1754    1.3971 C   0  0  0  0  0  0  0  0  0  0  0  0
    1.8094   -1.1636    2.5728 O   0  0  0  0  0  0  0  0  0  0  0  0
    0.4587   -2.0097   -0.7289 H   0  0  0  0  0  0  0  0  0  0  0  0
   -0.6512   -0.9853    1.7290 H   0  0  0  0  0  0  0  0  0  0  0  0
    0.0619    0.3060    0.7239 H   0  0  0  0  0  0  0  0  0  0  0  0
    2.2545   -1.5581    0.3257 N   0  0  0  0  0  0  0  0  0  0  0  0
    3.6187   -1.9937    0.4696 C   0  0  2  0  0  0  0  0  0  0  0  0
    3.7294   -3.3946   -0.1176 C   0  0  0  0  0  0  0  0  0  0  0  0
    2.7656   -4.1471   -0.2440 O   0  0  0  0  0  0  0  0  0  0  0  0
    4.0534   -1.9792    1.9268 C   0  0  0  0  0  0  0  0  0  0  0  0
    1.8537   -1.5286   -0.6103 H   0  0  0  0  0  0  0  0  0  0  0  0
    4.2348   -1.3022   -0.1153 H   0  0  0  0  0  0  0  0  0  0  0  0
    3.4473   -2.6662    2.5286 H   0  0  0  0  0  0  0  0  0  0  0  0
    5.1001   -2.2835    2.0316 H   0  0  0  0  0  0  0  0  0  0  0  0
    3.9449   -0.9773    2.3559 H   0  0  0  0  0  0  0  0  0  0  0  0
    5.0381   -3.7217   -0.4441 N   0  0  0  0  0  0  0  0  0  0  0  0
    5.4051   -5.0005   -1.0061 C   0  0  0  0  0  0  0  0  0  0  0  0
    5.7712   -3.0291   -0.3232 H   0  0  0  0  0  0  0  0  0  0  0  0
    5.6859   -5.6904   -0.1967 H   0  0  0  0  0  0  0  0  0  0  0  0
    4.5511   -5.4154   -1.5616 H   0  0  0  0  0  0  0  0  0  0  0  0
    6.2577   -4.8698   -1.6887 H   0  0  0  0  0  0  0  0  0  0  0  0
  1  3  1  0  0  0  0
  1  7  1  0  0  0  0
  1  2  2  0  0  0  0
 18 19  1  0  0  0  0
 19 24  1  0  0  0  0
 19 20  2  0  0  0  0
 25 26  1  0  0  0  0
 26 34  1  0  0  0  0
 26 27  2  0  0  0  0
  8  9  1  0  0  0  0
  9 17  1  0  0  0  0
  9 10  2  0  0  0  0
 25 28  1  0  0  0  0
  8 11  1  0  0  0  0
 34 35  1  0  0  0  0
 17 18  1  0  0  0  0
 24 25  1  0  0  0  0
  7  8  1  0  0  0  0
  3  4  1  0  0  0  0
  3  5  1  0  0  0  0
  3  6  1  0  0  0  0
 28 31  1  0  0  0  0
 28 32  1  0  0  0  0
 28 33  1  0  0  0  0
 11 14  1  0  0  0  0
 11 15  1  0  0  0  0
 11 16  1  0  0  0  0
 35 37  1  0  0  0  0
 35 38  1  0  0  0  0
 35 39  1  0  0  0  0
 18 22  1  0  0  0  0
 18 23  1  0  0  0  0
 25 30  1  0  0  0  0
  8 13  1  0  0  0  0
 34 36  1  0  0  0  0
 17 21  1  0  0  0  0
  7 12  1  0  0  0  0
 24 29  1  0  0  0  0
M  END
$$$$

  -OEChem-05262214473D

 39 38  0     1  0  0  0  0  0999 V2000
   -3.5200   -4.0268   -1.6943 C   0  0  0  0  0  0  0  0  0  0  0  0
   -2.8702   -4.8827   -1.1054 O   0  0  0  0  0  0  0  0  0  0  0  0
   -4.9704   -4.2579   -1.9614 C   0  0  0  0  0  0  0  0  0  0  0  0
   -5.1456   -4.7573   -2.9278 H   0  0  0  0  0  0  0  0  0  0  0  0
   -5.4379   -4.9112   -1.2072 H   0  0  0  0  0  0  0  0  0  0  0  0
   -5.5954   -3.3510   -1.9864 H   0  0  0  0  0  0  0  0  0  0  0  0
   -3.0424   -2.8131   -2.1606 N   0  0  0  0  0  0  0  0  0  0  0  0
   -1.6755   -2.3891   -2.0077 C   0  0  2  0  0  0  0  0  0  0  0  0
   -1.5782   -1.5673   -0.7292 C   0  0  0  0  0  0  0  0  0  0  0  0
   -2.5448   -1.0064   -0.2171 O   0  0  0  0  0  0  0  0  0  0  0  0
   -1.2087   -1.5823   -3.2094 C   0  0  0  0  0  0  0  0  0  0  0  0
   -3.6915   -2.1888   -2.6360 H   0  0  0  0  0  0  0  0  0  0  0  0
   -1.0721   -3.2977   -1.9053 H   0  0  0  0  0  0  0  0  0  0  0  0
   -1.8017   -0.6681   -3.3281 H   0  0  0  0  0  0  0  0  0  0  0  0
   -0.1601   -1.2849   -3.1045 H   0  0  0  0  0  0  0  0  0  0  0  0
   -1.3074   -2.1646   -4.1319 H   0  0  0  0  0  0  0  0  0  0  0  0
   -0.2835   -1.5112   -0.2725 N   0  0  0  0  0  0  0  0  0  0  0  0
    0.0769   -0.7658    0.9424 C   0  0  0  0  0  0  0  0  0  0  0  0
    1.4544   -1.1754    1.3971 C   0  0  0  0  0  0  0  0  0  0  0  0
    1.7347   -1.4206    2.5674 O   0  0  0  0  0  0  0  0  0  0  0  0
    0.4587   -2.0097   -0.7289 H   0  0  0  0  0  0  0  0  0  0  0  0
   -0.6512   -0.9853    1.7290 H   0  0  0  0  0  0  0  0  0  0  0  0
    0.0619    0.3060    0.7239 H   0  0  0  0  0  0  0  0  0  0  0  0
    2.3484   -1.2340    0.3332 N   0  0  0  0  0  0  0  0  0  0  0  0
    3.7338   -1.5953    0.4796 C   0  0  2  0  0  0  0  0  0  0  0  0
    4.0010   -2.8037   -0.4080 C   0  0  0  0  0  0  0  0  0  0  0  0
    3.1154   -3.5693   -0.7832 O   0  0  0  0  0  0  0  0  0  0  0  0
    4.0761   -1.8997    1.9297 C   0  0  0  0  0  0  0  0  0  0  0  0
    2.0044   -1.0092   -0.5988 H   0  0  0  0  0  0  0  0  0  0  0  0
    4.3223   -0.7427    0.1235 H   0  0  0  0  0  0  0  0  0  0  0  0
    3.4962   -2.7513    2.3040 H   0  0  0  0  0  0  0  0  0  0  0  0
    5.1368   -2.1467    2.0436 H   0  0  0  0  0  0  0  0  0  0  0  0
    3.8554   -1.0397    2.5711 H   0  0  0  0  0  0  0  0  0  0  0  0
    5.3505   -2.9513   -0.6965 N   0  0  0  0  0  0  0  0  0  0  0  0
    5.8603   -4.0297   -1.5108 C   0  0  0  0  0  0  0  0  0  0  0  0
    6.0122   -2.2585   -0.3590 H   0  0  0  0  0  0  0  0  0  0  0  0
    6.1499   -4.8720   -0.8653 H   0  0  0  0  0  0  0  0  0  0  0  0
    5.0809   -4.3580   -2.2141 H   0  0  0  0  0  0  0  0  0  0  0  0
    6.7385   -3.6804   -2.0736 H   0  0  0  0  0  0  0  0  0  0  0  0
  1  3  1  0  0  0  0
  1  7  1  0  0  0  0
  1  2  2  0  0  0  0
 18 19  1  0  0  0  0
 19 24  1  0  0  0  0
 19 20  2  0  0  0  0
 25 26  1  0  0  0  0
 26 34  1  0  0  0  0
 26 27  2  0  0  0  0
  8  9  1  0  0  0  0
  9 17  1  0  0  0  0
  9 10  2  0  0  0  0
 25 28  1  0  0  0  0
  8 11  1  0  0  0  0
 34 35  1  0  0  0  0
 17 18  1  0  0  0  0
 24 25  1  0  0  0  0
  7  8  1  0  0  0  0
  3  4  1  0  0  0  0
  3  5  1  0  0  0  0
  3  6  1  0  0  0  0
 28 31  1  0  0  0  0
 28 32  1  0  0  0  0
 28 33  1  0  0  0  0
 11 14  1  0  0  0  0
 11 15  1  0  0  0  0
 11 16  1  0  0  0  0
 35 37  1  0  0  0  0
 35 38  1  0  0  0  0
 35 39  1  0  0  0  0
 18 22  1  0  0  0  0
 18 23  1  0  0  0  0
 25 30  1  0  0  0  0
  8 13  1  0  0  0  0
 34 36  1  0  0  0  0
 17 21  1  0  0  0  0
  7 12  1  0  0  0  0
 24 29  1  0  0  0  0
M  END
$$$$

  -OEChem-05262214473D

 39 38  0     1  0  0  0  0  0999 V2000
   -3.5200   -4.0268   -1.6943 C   0  0  0  0  0  0  0  0  0  0  0  0
   -2.8702   -4.8827   -1.1054 O   0  0  0  0  0  0  0  0  0  0  0  0
   -4.9704   -4.2579   -1.9614 C   0  0  0  0  0  0  0  0  0  0  0  0
   -5.1456   -4.7573   -2.9278 H   0  0  0  0  0  0  0  0  0  0  0  0
   -5.4379   -4.9112   -1.2072 H   0  0  0  0  0  0  0  0  0  0  0  0
   -5.5954   -3.3510   -1.9864 H   0  0  0  0  0  0  0  0  0  0  0  0
   -3.0424   -2.8131   -2.1606 N   0  0  0  0  0  0  0  0  0  0  0  0
   -1.6755   -2.3891   -2.0077 C   0  0  2  0  0  0  0  0  0  0  0  0
   -1.5782   -1.5673   -0.7292 C   0  0  0  0  0  0  0  0  0  0  0  0
   -2.5448   -1.0064   -0.2171 O   0  0  0  0  0  0  0  0  0  0  0  0
   -1.2087   -1.5823   -3.2094 C   0  0  0  0  0  0  0  0  0  0  0  0
   -3.6915   -2.1888   -2.6360 H   0  0  0  0  0  0  0  0  0  0  0  0
   -1.0721   -3.2977   -1.9053 H   0  0  0  0  0  0  0  0  0  0  0  0
   -1.8017   -0.6681   -3.3281 H   0  0  0  0  0  0  0  0  0  0  0  0
   -0.1601   -1.2849   -3.1045 H   0  0  0  0  0  0  0  0  0  0  0  0
   -1.3074   -2.1646   -4.1319 H   0  0  0  0  0  0  0  0  0  0  0  0
   -0.2835   -1.5112   -0.2725 N   0  0  0  0  0  0  0  0  0  0  0  0
    0.0769   -0.7658    0.9424 C   0  0  0  0  0  0  0  0  0  0  0  0
    1.4544   -1.1754    1.3971 C   0  0  0  0  0  0  0  0  0  0  0  0
    1.6830   -1.6735    2.4962 O   0  0  0  0  0  0  0  0  0  0  0  0
    0.4587   -2.0097   -0.7289 H   0  0  0  0  0  0  0  0  0  0  0  0
   -0.6512   -0.9853    1.7290 H   0  0  0  0  0  0  0  0  0  0  0  0
    0.0619    0.3060    0.7239 H   0  0  0  0  0  0  0  0  0  0  0  0
    2.4133   -0.9153    0.4238 N   0  0  0  0  0  0  0  0  0  0  0  0
    3.8133   -1.2038    0.5916 C   0  0  2  0  0  0  0  0  0  0  0  0
    4.2376   -2.1431   -0.5297 C   0  0  0  0  0  0  0  0  0  0  0  0
    3.4461   -2.8564   -1.1428 O   0  0  0  0  0  0  0  0  0  0  0  0
    4.0916   -1.8219    1.9529 C   0  0  0  0  0  0  0  0  0  0  0  0
    2.1086   -0.4985   -0.4543 H   0  0  0  0  0  0  0  0  0  0  0  0
    4.3464   -0.2519    0.4928 H   0  0  0  0  0  0  0  0  0  0  0  0
    3.5658   -2.7764    2.0704 H   0  0  0  0  0  0  0  0  0  0  0  0
    5.1608   -2.0144    2.0902 H   0  0  0  0  0  0  0  0  0  0  0  0
    3.7586   -1.1578    2.7579 H   0  0  0  0  0  0  0  0  0  0  0  0
    5.6099   -2.1230   -0.7361 N   0  0  0  0  0  0  0  0  0  0  0  0
    6.2598   -2.9370   -1.7366 C   0  0  0  0  0  0  0  0  0  0  0  0
    6.1874   -1.4868   -0.1944 H   0  0  0  0  0  0  0  0  0  0  0  0
    6.5813   -3.8870   -1.2848 H   0  0  0  0  0  0  0  0  0  0  0  0
    5.5560   -3.1409   -2.5570 H   0  0  0  0  0  0  0  0  0  0  0  0
    7.1371   -2.4029   -2.1303 H   0  0  0  0  0  0  0  0  0  0  0  0
  1  3  1  0  0  0  0
  1  7  1  0  0  0  0
  1  2  2  0  0  0  0
 18 19  1  0  0  0  0
 19 24  1  0  0  0  0
 19 20  2  0  0  0  0
 25 26  1  0  0  0  0
 26 34  1  0  0  0  0
 26 27  2  0  0  0  0
  8  9  1  0  0  0  0
  9 17  1  0  0  0  0
  9 10  2  0  0  0  0
 25 28  1  0  0  0  0
  8 11  1  0  0  0  0
 34 35  1  0  0  0  0
 17 18  1  0  0  0  0
 24 25  1  0  0  0  0
  7  8  1  0  0  0  0
  3  4  1  0  0  0  0
  3  5  1  0  0  0  0
  3  6  1  0  0  0  0
 28 31  1  0  0  0  0
 28 32  1  0  0  0  0
 28 33  1  0  0  0  0
 11 14  1  0  0  0  0
 11 15  1  0  0  0  0
 11 16  1  0  0  0  0
 35 37  1  0  0  0  0
 35 38  1  0  0  0  0
 35 39  1  0  0  0  0
 18 22  1  0  0  0  0
 18 23  1  0  0  0  0
 25 30  1  0  0  0  0
  8 13  1  0  0  0  0
 34 36  1  0  0  0  0
 17 21  1  0  0  0  0
  7 12  1  0  0  0  0
 24 29  1  0  0  0  0
M  END
$$$$

  -OEChem-05262214473D

 39 38  0     1  0  0  0  0  0999 V2000
   -3.5200   -4.0268   -1.6943 C   0  0  0  0  0  0  0  0  0  0  0  0
   -2.8702   -4.8827   -1.1054 O   0  0  0  0  0  0  0  0  0  0  0  0
   -4.9704   -4.2579   -1.9614 C   0  0  0  0  0  0  0  0  0  0  0  0
   -5.1456   -4.7573   -2.9278 H   0  0  0  0  0  0  0  0  0  0  0  0
   -5.4379   -4.9112   -1.2072 H   0  0  0  0  0  0  0  0  0  0  0  0
   -5.5954   -3.3510   -1.9864 H   0  0  0  0  0  0  0  0  0  0  0  0
   -3.0424   -2.8131   -2.1606 N   0  0  0  0  0  0  0  0  0  0  0  0
   -1.6755   -2.3891   -2.0077 C   0  0  2  0  0  0  0  0  0  0  0  0
   -1.5782   -1.5673   -0.7292 C   0  0  0  0  0  0  0  0  0  0  0  0
   -2.5448   -1.0064   -0.2171 O   0  0  0  0  0  0  0  0  0  0  0  0
   -1.2087   -1.5823   -3.2094 C   0  0  0  0  0  0  0  0  0  0  0  0
   -3.6915   -2.1888   -2.6360 H   0  0  0  0  0  0  0  0  0  0  0  0
   -1.0721   -3.2977   -1.9053 H   0  0  0  0  0  0  0  0  0  0  0  0
   -1.8017   -0.6681   -3.3281 H   0  0  0  0  0  0  0  0  0  0  0  0
   -0.1601   -1.2849   -3.1045 H   0  0  0  0  0  0  0  0  0  0  0  0
   -1.3074   -2.1646   -4.1319 H   0  0  0  0  0  0  0  0  0  0  0  0
   -0.2835   -1.5112   -0.2725 N   0  0  0  0  0  0  0  0  0  0  0  0
    0.0769   -0.7658    0.9424 C   0  0  0  0  0  0  0  0  0  0  0  0
    1.4544   -1.1754    1.3971 C   0  0  0  0  0  0  0  0  0  0  0  0
    1.6578   -1.9049    2.3640 O   0  0  0  0  0  0  0  0  0  0  0  0
    0.4587   -2.0097   -0.7289 H   0  0  0  0  0  0  0  0  0  0  0  0
   -0.6512   -0.9853    1.7290 H   0  0  0  0  0  0  0  0  0  0  0  0
    0.0619    0.3060    0.7239 H   0  0  0  0  0  0  0  0  0  0  0  0
    2.4447   -0.6238    0.5912 N   0  0  0  0  0  0  0  0  0  0  0  0
    3.8516   -0.8460    0.7980 C   0  0  2  0  0  0  0  0  0  0  0  0
    4.4231   -1.4577   -0.4743 C   0  0  0  0  0  0  0  0  0  0  0  0
    3.7352   -2.0569   -1.2982 O   0  0  0  0  0  0  0  0  0  0  0  0
    4.0988   -1.7509    1.9949 C   0  0  0  0  0  0  0  0  0  0  0  0
    2.1591   -0.0313   -0.1866 H   0  0  0  0  0  0  0  0  0  0  0  0
    4.3054    0.1366    0.9672 H   0  0  0  0  0  0  0  0  0  0  0  0
    3.6514   -2.7401    1.8436 H   0  0  0  0  0  0  0  0  0  0  0  0
    5.1703   -1.8958    2.1681 H   0  0  0  0  0  0  0  0  0  0  0  0
    3.6612   -1.3236    2.9035 H   0  0  0  0  0  0  0  0  0  0  0  0
    5.7985   -1.2934   -0.5602 N   0  0  0  0  0  0  0  0  0  0  0  0
    6.5762   -1.7970   -1.6681 C   0  0  0  0  0  0  0  0  0  0  0  0
    6.2847   -0.7666    0.1595 H   0  0  0  0  0  0  0  0  0  0  0  0
    6.9506   -2.8028   -1.4268 H   0  0  0  0  0  0  0  0  0  0  0  0
    5.9440   -1.8471   -2.5669 H   0  0  0  0  0  0  0  0  0  0  0  0
    7.4264   -1.1245   -1.8549 H   0  0  0  0  0  0  0  0  0  0  0  0
  1  3  1  0  0  0  0
  1  7  1  0  0  0  0
  1  2  2  0  0  0  0
 18 19  1  0  0  0  0
 19 24  1  0  0  0  0
 19 20  2  0  0  0  0
 25 26  1  0  0  0  0
 26 34  1  0  0  0  0
 26 27  2  0  0  0  0
  8  9  1  0  0  0  0
  9 17  1  0  0  0  0
  9 10  2  0  0  0  0
 25 28  1  0  0  0  0
  8 11  1  0  0  0  0
 34 35  1  0  0  0  0
 17 18  1  0  0  0  0
 24 25  1  0  0  0  0
  7  8  1  0  0  0  0
  3  4  1  0  0  0  0
  3  5  1  0  0  0  0
  3  6  1  0  0  0  0
 28 31  1  0  0  0  0
 28 32  1  0  0  0  0
 28 33  1  0  0  0  0
 11 14  1  0  0  0  0
 11 15  1  0  0  0  0
 11 16  1  0  0  0  0
 35 37  1  0  0  0  0
 35 38  1  0  0  0  0
 35 39  1  0  0  0  0
 18 22  1  0  0  0  0
 18 23  1  0  0  0  0
 25 30  1  0  0  0  0
  8 13  1  0  0  0  0
 34 36  1  0  0  0  0
 17 21  1  0  0  0  0
  7 12  1  0  0  0  0
 24 29  1  0  0  0  0
M  END
$$$$

  -OEChem-05262214473D

 39 38  0     1  0  0  0  0  0999 V2000
   -3.5200   -4.0268   -1.6943 C   0  0  0  0  0  0  0  0  0  0  0  0
   -2.8702   -4.8827   -1.1054 O   0  0  0  0  0  0  0  0  0  0  0  0
   -4.9704   -4.2579   -1.9614 C   0  0  0  0  0  0  0  0  0  0  0  0
   -5.1456   -4.7573   -2.9278 H   0  0  0  0  0  0  0  0  0  0  0  0
   -5.4379   -4.9112   -1.2072 H   0  0  0  0  0  0  0  0  0  0  0  0
   -5.5954   -3.3510   -1.9864 H   0  0  0  0  0  0  0  0  0  0  0  0
   -3.0424   -2.8131   -2.1606 N   0  0  0  0  0  0  0  0  0  0  0  0
   -1.6755   -2.3891   -2.0077 C   0  0  2  0  0  0  0  0  0  0  0  0
   -1.5782   -1.5673   -0.7292 C   0  0  0  0  0  0  0  0  0  0  0  0
   -2.5448   -1.0064   -0.2171 O   0  0  0  0  0  0  0  0  0  0  0  0
   -1.2087   -1.5823   -3.2094 C   0  0  0  0  0  0  0  0  0  0  0  0
   -3.6915   -2.1888   -2.6360 H   0  0  0  0  0  0  0  0  0  0  0  0
   -1.0721   -3.2977   -1.9053 H   0  0  0  0  0  0  0  0  0  0  0  0
   -1.8017   -0.6681   -3.3281 H   0  0  0  0  0  0  0  0  0  0  0  0
   -0.1601   -1.2849   -3.1045 H   0  0  0  0  0  0  0  0  0  0  0  0
   -1.3074   -2.1646   -4.1319 H   0  0  0  0  0  0  0  0  0  0  0  0
   -0.2835   -1.5112   -0.2725 N   0  0  0  0  0  0  0  0  0  0  0  0
    0.0769   -0.7658    0.9424 C   0  0  0  0  0  0  0  0  0  0  0  0
    1.4544   -1.1754    1.3971 C   0  0  0  0  0  0  0  0  0  0  0  0
    1.6609   -2.0991    2.1797 O   0  0  0  0  0  0  0  0  0  0  0  0
    0.4587   -2.0097   -0.7289 H   0  0  0  0  0  0  0  0  0  0  0  0
   -0.6512   -0.9853    1.7290 H   0  0  0  0  0  0  0  0  0  0  0  0
    0.0619    0.3060    0.7239 H   0  0  0  0  0  0  0  0  0  0  0  0
    2.4405   -0.3794    0.8240 N   0  0  0  0  0  0  0  0  0  0  0  0
    3.8461   -0.5461    1.0847 C   0  0  2  0  0  0  0  0  0  0  0  0
    4.5449   -0.7943   -0.2456 C   0  0  0  0  0  0  0  0  0  0  0  0
    3.9629   -1.2253   -1.2389 O   0  0  0  0  0  0  0  0  0  0  0  0
    4.0974   -1.6918    2.0527 C   0  0  0  0  0  0  0  0  0  0  0  0
    2.1527    0.3607    0.1861 H   0  0  0  0  0  0  0  0  0  0  0  0
    4.2020    0.3965    1.5145 H   0  0  0  0  0  0  0  0  0  0  0  0
    3.7473   -2.6447    1.6392 H   0  0  0  0  0  0  0  0  0  0  0  0
    5.1648   -1.7990    2.2721 H   0  0  0  0  0  0  0  0  0  0  0  0
    3.5698   -1.5259    2.9982 H   0  0  0  0  0  0  0  0  0  0  0  0
    5.9036   -0.5189   -0.1808 N   0  0  0  0  0  0  0  0  0  0  0  0
    6.7880   -0.6873   -1.3101 C   0  0  0  0  0  0  0  0  0  0  0  0
    6.2977   -0.1472    0.6785 H   0  0  0  0  0  0  0  0  0  0  0  0
    7.2326   -1.6931   -1.2815 H   0  0  0  0  0  0  0  0  0  0  0  0
    6.2185   -0.5648   -2.2432 H   0  0  0  0  0  0  0  0  0  0  0  0
    7.5866    0.0679   -1.2661 H   0  0  0  0  0  0  0  0  0  0  0  0
  1  3  1  0  0  0  0
  1  7  1  0  0  0  0
  1  2  2  0  0  0  0
 18 19  1  0  0  0  0
 19 24  1  0  0  0  0
 19 20  2  0  0  0  0
 25 26  1  0  0  0  0
 26 34  1  0  0  0  0
 26 27  2  0  0  0  0
  8  9  1  0  0  0  0
  9 17  1  0  0  0  0
  9 10  2  0  0  0  0
 25 28  1  0  0  0  0
  8 11  1  0  0  0  0
 34 35  1  0  0  0  0
 17 18  1  0  0  0  0
 24 25  1  0  0  0  0
  7  8  1  0  0  0  0
  3  4  1  0  0  0  0
  3  5  1  0  0  0  0
  3  6  1  0  0  0  0
 28 31  1  0  0  0  0
 28 32  1  0  0  0  0
 28 33  1  0  0  0  0
 11 14  1  0  0  0  0
 11 15  1  0  0  0  0
 11 16  1  0  0  0  0
 35 37  1  0  0  0  0
 35 38  1  0  0  0  0
 35 39  1  0  0  0  0
 18 22  1  0  0  0  0
 18 23  1  0  0  0  0
 25 30  1  0  0  0  0
  8 13  1  0  0  0  0
 34 36  1  0  0  0  0
 17 21  1  0  0  0  0
  7 12  1  0  0  0  0
 24 29  1  0  0  0  0
M  END
$$$$

  -OEChem-05262214473D

 39 38  0     1  0  0  0  0  0999 V2000
   -3.5200   -4.0268   -1.6943 C   0  0  0  0  0  0  0  0  0  0  0  0
   -2.8702   -4.8827   -1.1054 O   0  0  0  0  0  0  0  0  0  0  0  0
   -4.9704   -4.2579   -1.9614 C   0  0  0  0  0  0  0  0  0  0  0  0
   -5.1456   -4.7573   -2.9278 H   0  0  0  0  0  0  0  0  0  0  0  0
   -5.4379   -4.9112   -1.2072 H   0  0  0  0  0  0  0  0  0  0  0  0
   -5.5954   -3.3510   -1.9864 H   0  0  0  0  0  0  0  0  0  0  0  0
   -3.0424   -2.8131   -2.1606 N   0  0  0  0  0  0  0  0  0  0  0  0
   -1.6755   -2.3891   -2.0077 C   0  0  2  0  0  0  0  0  0  0  0  0
   -1.5782   -1.5673   -0.7292 C   0  0  0  0  0  0  0  0  0  0  0  0
   -2.5448   -1.0064   -0.2171 O   0  0  0  0  0  0  0  0  0  0  0  0
   -1.2087   -1.5823   -3.2094 C   0  0  0  0  0  0  0  0  0  0  0  0
   -3.6915   -2.1888   -2.6360 H   0  0  0  0  0  0  0  0  0  0  0  0
   -1.0721   -3.2977   -1.9053 H   0  0  0  0  0  0  0  0  0  0  0  0
   -1.8017   -0.6681   -3.3281 H   0  0  0  0  0  0  0  0  0  0  0  0
   -0.1601   -1.2849   -3.1045 H   0  0  0  0  0  0  0  0  0  0  0  0
   -1.3074   -2.1646   -4.1319 H   0  0  0  0  0  0  0  0  0  0  0  0
   -0.2835   -1.5112   -0.2725 N   0  0  0  0  0  0  0  0  0  0  0  0
    0.0769   -0.7658    0.9424 C   0  0  0  0  0  0  0  0  0  0  0  0
    1.4544   -1.1754    1.3971 C   0  0  0  0  0  0  0  0  0  0  0  0
    1.6920   -2.2429    1.9561 O   0  0  0  0  0  0  0  0  0  0  0  0
    0.4587   -2.0097   -0.7289 H   0  0  0  0  0  0  0  0  0  0  0  0
   -0.6512   -0.9853    1.7290 H   0  0  0  0  0  0  0  0  0  0  0  0
    0.0619    0.3060    0.7239 H   0  0  0  0  0  0  0  0  0  0  0  0
    2.4011   -0.1988    1.1064 N   0  0  0  0  0  0  0  0  0  0  0  0
    3.7973   -0.3247    1.4321 C   0  0  2  0  0  0  0  0  0  0  0  0
    4.5947   -0.1981    0.1408 C   0  0  0  0  0  0  0  0  0  0  0  0
    4.1138   -0.4182   -0.9689 O   0  0  0  0  0  0  0  0  0  0  0  0
    4.0872   -1.6484    2.1224 C   0  0  0  0  0  0  0  0  0  0  0  0
    2.0897    0.6507    0.6383 H   0  0  0  0  0  0  0  0  0  0  0  0
    4.0434    0.5101    2.0974 H   0  0  0  0  0  0  0  0  0  0  0  0
    3.8468   -2.4967    1.4711 H   0  0  0  0  0  0  0  0  0  0  0  0
    5.1446   -1.7305    2.3951 H   0  0  0  0  0  0  0  0  0  0  0  0
    3.4907   -1.7508    3.0353 H   0  0  0  0  0  0  0  0  0  0  0  0
    5.9180    0.1477    0.3763 N   0  0  0  0  0  0  0  0  0  0  0  0
    6.8808    0.3164   -0.6869 C   0  0  0  0  0  0  0  0  0  0  0  0
    6.2253    0.3295    1.3272 H   0  0  0  0  0  0  0  0  0  0  0  0
    7.4082   -0.6335   -0.8588 H   0  0  0  0  0  0  0  0  0  0  0  0
    6.3607    0.6187   -1.6079 H   0  0  0  0  0  0  0  0  0  0  0  0
    7.6069    1.0928   -0.4041 H   0  0  0  0  0  0  0  0  0  0  0  0
  1  3  1  0  0  0  0
  1  7  1  0  0  0  0
  1  2  2  0  0  0  0
 18 19  1  0  0  0  0
 19 24  1  0  0  0  0
 19 20  2  0  0  0  0
 25 26  1  0  0  0  0
 26 34  1  0  0  0  0
 26 27  2  0  0  0  0
  8  9  1  0  0  0  0
  9 17  1  0  0  0  0
  9 10  2  0  0  0  0
 25 28  1  0  0  0  0
  8 11  1  0  0  0  0
 34 35  1  0  0  0  0
 17 18  1  0  0  0  0
 24 25  1  0  0  0  0
  7  8  1  0  0  0  0
  3  4  1  0  0  0  0
  3  5  1  0  0  0  0
  3  6  1  0  0  0  0
 28 31  1  0  0  0  0
 28 32  1  0  0  0  0
 28 33  1  0  0  0  0
 11 14  1  0  0  0  0
 11 15  1  0  0  0  0
 11 16  1  0  0  0  0
 35 37  1  0  0  0  0
 35 38  1  0  0  0  0
 35 39  1  0  0  0  0
 18 22  1  0  0  0  0
 18 23  1  0  0  0  0
 25 30  1  0  0  0  0
  8 13  1  0  0  0  0
 34 36  1  0  0  0  0
 17 21  1  0  0  0  0
  7 12  1  0  0  0  0
 24 29  1  0  0  0  0
M  END
$$$$

  -OEChem-05262214473D

 39 38  0     1  0  0  0  0  0999 V2000
   -3.5200   -4.0268   -1.6943 C   0  0  0  0  0  0  0  0  0  0  0  0
   -2.8702   -4.8827   -1.1054 O   0  0  0  0  0  0  0  0  0  0  0  0
   -4.9704   -4.2579   -1.9614 C   0  0  0  0  0  0  0  0  0  0  0  0
   -5.1456   -4.7573   -2.9278 H   0  0  0  0  0  0  0  0  0  0  0  0
   -5.4379   -4.9112   -1.2072 H   0  0  0  0  0  0  0  0  0  0  0  0
   -5.5954   -3.3510   -1.9864 H   0  0  0  0  0  0  0  0  0  0  0  0
   -3.0424   -2.8131   -2.1606 N   0  0  0  0  0  0  0  0  0  0  0  0
   -1.6755   -2.3891   -2.0077 C   0  0  2  0  0  0  0  0  0  0  0  0
   -1.5782   -1.5673   -0.7292 C   0  0  0  0  0  0  0  0  0  0  0  0
   -2.5448   -1.0064   -0.2171 O   0  0  0  0  0  0  0  0  0  0  0  0
   -1.2087   -1.5823   -3.2094 C   0  0  0  0  0  0  0  0  0  0  0  0
   -3.6915   -2.1888   -2.6360 H   0  0  0  0  0  0  0  0  0  0  0  0
   -1.0721   -3.2977   -1.9053 H   0  0  0  0  0  0  0  0  0  0  0  0
   -1.8017   -0.6681   -3.3281 H   0  0  0  0  0  0  0  0  0  0  0  0
   -0.1601   -1.2849   -3.1045 H   0  0  0  0  0  0  0  0  0  0  0  0
   -1.3074   -2.1646   -4.1319 H   0  0  0  0  0  0  0  0  0  0  0  0
   -0.2835   -1.5112   -0.2725 N   0  0  0  0  0  0  0  0  0  0  0  0
    0.0769   -0.7658    0.9424 C   0  0  0  0  0  0  0  0  0  0  0  0
    1.4544   -1.1754    1.3971 C   0  0  0  0  0  0  0  0  0  0  0  0
    1.7489   -2.3264    1.7082 O   0  0  0  0  0  0  0  0  0  0  0  0
    0.4587   -2.0097   -0.7289 H   0  0  0  0  0  0  0  0  0  0  0  0
   -0.6512   -0.9853    1.7290 H   0  0  0  0  0  0  0  0  0  0  0  0
    0.0619    0.3060    0.7239 H   0  0  0  0  0  0  0  0  0  0  0  0
    2.3290   -0.0941    1.4192 N   0  0  0  0  0  0  0  0  0  0  0  0
    3.7084   -0.1969    1.8167 C   0  0  2  0  0  0  0  0  0  0  0  0
    4.5691    0.2903    0.6585 C   0  0  0  0  0  0  0  0  0  0  0  0
    4.1775    0.3092   -0.5066 O   0  0  0  0  0  0  0  0  0  0  0  0
    4.0692   -1.6238    2.1993 C   0  0  0  0  0  0  0  0  0  0  0  0
    1.9743    0.8188    1.1392 H   0  0  0  0  0  0  0  0  0  0  0  0
    3.8404    0.4695    2.6760 H   0  0  0  0  0  0  0  0  0  0  0  0
    3.9431   -2.3062    1.3508 H   0  0  0  0  0  0  0  0  0  0  0  0
    5.1111   -1.6949    2.5286 H   0  0  0  0  0  0  0  0  0  0  0  0
    3.4292   -1.9829    3.0124 H   0  0  0  0  0  0  0  0  0  0  0  0
    5.8406    0.6609    1.0731 N   0  0  0  0  0  0  0  0  0  0  0  0
    6.8483    1.1458    0.1589 C   0  0  0  0  0  0  0  0  0  0  0  0
    6.0725    0.6308    2.0615 H   0  0  0  0  0  0  0  0  0  0  0  0
    7.4654    0.3037   -0.1876 H   0  0  0  0  0  0  0  0  0  0  0  0
    6.3611    1.6228   -0.7043 H   0  0  0  0  0  0  0  0  0  0  0  0
    7.4859    1.8805    0.6724 H   0  0  0  0  0  0  0  0  0  0  0  0
  1  3  1  0  0  0  0
  1  7  1  0  0  0  0
  1  2  2  0  0  0  0
 18 19  1  0  0  0  0
 19 24  1  0  0  0  0
 19 20  2  0  0  0  0
 25 26  1  0  0  0  0
 26 34  1  0  0  0  0
 26 27  2  0  0  0  0
  8  9  1  0  0  0  0
  9 17  1  0  0  0  0
  9 10  2  0  0  0  0
 25 28  1  0  0  0  0
  8 11  1  0  0  0  0
 34 35  1  0  0  0  0
 17 18  1  0  0  0  0
 24 25  1  0  0  0  0
  7  8  1  0  0  0  0
  3  4  1  0  0  0  0
  3  5  1  0  0  0  0
  3  6  1  0  0  0  0
 28 31  1  0  0  0  0
 28 32  1  0  0  0  0
 28 33  1  0  0  0  0
 11 14  1  0  0  0  0
 11 15  1  0  0  0  0
 11 16  1  0  0  0  0
 35 37  1  0  0  0  0
 35 38  1  0  0  0  0
 35 39  1  0  0  0  0
 18 22  1  0  0  0  0
 18 23  1  0  0  0  0
 25 30  1  0  0  0  0
  8 13  1  0  0  0  0
 34 36  1  0  0  0  0
 17 21  1  0  0  0  0
  7 12  1  0  0  0  0
 24 29  1  0  0  0  0
M  END
$$$$

  -OEChem-05262214473D

 39 38  0     1  0  0  0  0  0999 V2000
   -3.5200   -4.0268   -1.6943 C   0  0  0  0  0  0  0  0  0  0  0  0
   -2.8702   -4.8827   -1.1054 O   0  0  0  0  0  0  0  0  0  0  0  0
   -4.9704   -4.2579   -1.9614 C   0  0  0  0  0  0  0  0  0  0  0  0
   -5.1456   -4.7573   -2.9278 H   0  0  0  0  0  0  0  0  0  0  0  0
   -5.4379   -4.9112   -1.2072 H   0  0  0  0  0  0  0  0  0  0  0  0
   -5.5954   -3.3510   -1.9864 H   0  0  0  0  0  0  0  0  0  0  0  0
   -3.0424   -2.8131   -2.1606 N   0  0  0  0  0  0  0  0  0  0  0  0
   -1.6755   -2.3891   -2.0077 C   0  0  2  0  0  0  0  0  0  0  0  0
   -1.5782   -1.5673   -0.7292 C   0  0  0  0  0  0  0  0  0  0  0  0
   -2.5448   -1.0064   -0.2171 O   0  0  0  0  0  0  0  0  0  0  0  0
   -1.2087   -1.5823   -3.2094 C   0  0  0  0  0  0  0  0  0  0  0  0
   -3.6915   -2.1888   -2.6360 H   0  0  0  0  0  0  0  0  0  0  0  0
   -1.0721   -3.2977   -1.9053 H   0  0  0  0  0  0  0  0  0  0  0  0
   -1.8017   -0.6681   -3.3281 H   0  0  0  0  0  0  0  0  0  0  0  0
   -0.1601   -1.2849   -3.1045 H   0  0  0  0  0  0  0  0  0  0  0  0
   -1.3074   -2.1646   -4.1319 H   0  0  0  0  0  0  0  0  0  0  0  0
   -0.2835   -1.5112   -0.2725 N   0  0  0  0  0  0  0  0  0  0  0  0
    0.0769   -0.7658    0.9424 C   0  0  0  0  0  0  0  0  0  0  0  0
    1.4544   -1.1754    1.3971 C   0  0  0  0  0  0  0  0  0  0  0  0
    1.8279   -2.3441    1.4530 O   0  0  0  0  0  0  0  0  0  0  0  0
    0.4587   -2.0097   -0.7289 H   0  0  0  0  0  0  0  0  0  0  0  0
   -0.6512   -0.9853    1.7290 H   0  0  0  0  0  0  0  0  0  0  0  0
    0.0619    0.3060    0.7239 H   0  0  0  0  0  0  0  0  0  0  0  0
    2.2291   -0.0727    1.7410 N   0  0  0  0  0  0  0  0  0  0  0  0
    3.5855   -0.1713    2.2121 C   0  0  2  0  0  0  0  0  0  0  0  0
    4.4698    0.6376    1.2723 C   0  0  0  0  0  0  0  0  0  0  0  0
    4.1498    0.9075    0.1165 O   0  0  0  0  0  0  0  0  0  0  0  0
    4.0444   -1.6197    2.2781 C   0  0  0  0  0  0  0  0  0  0  0  0
    1.8146    0.8538    1.6548 H   0  0  0  0  0  0  0  0  0  0  0  0
    3.6067    0.2776    3.2111 H   0  0  0  0  0  0  0  0  0  0  0  0
    4.0298   -2.0862    1.2863 H   0  0  0  0  0  0  0  0  0  0  0  0
    5.0665   -1.6948    2.6637 H   0  0  0  0  0  0  0  0  0  0  0  0
    3.3895   -2.2066    2.9311 H   0  0  0  0  0  0  0  0  0  0  0  0
    5.6769    0.9858    1.8620 N   0  0  0  0  0  0  0  0  0  0  0  0
    6.6926    1.7443    1.1699 C   0  0  0  0  0  0  0  0  0  0  0  0
    5.8498    0.7362    2.8313 H   0  0  0  0  0  0  0  0  0  0  0  0
    7.4002    1.0546    0.6865 H   0  0  0  0  0  0  0  0  0  0  0  0
    6.2195    2.3789    0.4061 H   0  0  0  0  0  0  0  0  0  0  0  0
    7.2317    2.3773    1.8900 H   0  0  0  0  0  0  0  0  0  0  0  0
  1  3  1  0  0  0  0
  1  7  1  0  0  0  0
  1  2  2  0  0  0  0
 18 19  1  0  0  0  0
 19 24  1  0  0  0  0
 19 20  2  0  0  0  0
 25 26  1  0  0  0  0
 26 34  1  0  0  0  0
 26 27  2  0  0  0  0
  8  9  1  0  0  0  0
  9 17  1  0  0  0  0
  9 10  2  0  0  0  0
 25 28  1  0  0  0  0
  8 11  1  0  0  0  0
 34 35  1  0  0  0  0
 17 18  1  0  0  0  0
 24 25  1  0  0  0  0
  7  8  1  0  0  0  0
  3  4  1  0  0  0  0
  3  5  1  0  0  0  0
  3  6  1  0  0  0  0
 28 31  1  0  0  0  0
 28 32  1  0  0  0  0
 28 33  1  0  0  0  0
 11 14  1  0  0  0  0
 11 15  1  0  0  0  0
 11 16  1  0  0  0  0
 35 37  1  0  0  0  0
 35 38  1  0  0  0  0
 35 39  1  0  0  0  0
 18 22  1  0  0  0  0
 18 23  1  0  0  0  0
 25 30  1  0  0  0  0
  8 13  1  0  0  0  0
 34 36  1  0  0  0  0
 17 21  1  0  0  0  0
  7 12  1  0  0  0  0
 24 29  1  0  0  0  0
M  END
$$$$

  -OEChem-05262214473D

 39 38  0     1  0  0  0  0  0999 V2000
   -3.5200   -4.0268   -1.6943 C   0  0  0  0  0  0  0  0  0  0  0  0
   -2.8702   -4.8827   -1.1054 O   0  0  0  0  0  0  0  0  0  0  0  0
   -4.9704   -4.2579   -1.9614 C   0  0  0  0  0  0  0  0  0  0  0  0
   -5.1456   -4.7573   -2.9278 H   0  0  0  0  0  0  0  0  0  0  0  0
   -5.4379   -4.9112   -1.2072 H   0  0  0  0  0  0  0  0  0  0  0  0
   -5.5954   -3.3510   -1.9864 H   0  0  0  0  0  0  0  0  0  0  0  0
   -3.0424   -2.8131   -2.1606 N   0  0  0  0  0  0  0  0  0  0  0  0
   -1.6755   -2.3891   -2.0077 C   0  0  2  0  0  0  0  0  0  0  0  0
   -1.5782   -1.5673   -0.7292 C   0  0  0  0  0  0  0  0  0  0  0  0
   -2.5448   -1.0064   -0.2171 O   0  0  0  0  0  0  0  0  0  0  0  0
   -1.2087   -1.5823   -3.2094 C   0  0  0  0  0  0  0  0  0  0  0  0
   -3.6915   -2.1888   -2.6360 H   0  0  0  0  0  0  0  0  0  0  0  0
   -1.0721   -3.2977   -1.9053 H   0  0  0  0  0  0  0  0  0  0  0  0
   -1.8017   -0.6681   -3.3281 H   0  0  0  0  0  0  0  0  0  0  0  0
   -0.1601   -1.2849   -3.1045 H   0  0  0  0  0  0  0  0  0  0  0  0
   -1.3074   -2.1646   -4.1319 H   0  0  0  0  0  0  0  0  0  0  0  0
   -0.2835   -1.5112   -0.2725 N   0  0  0  0  0  0  0  0  0  0  0  0
    0.0769   -0.7658    0.9424 C   0  0  0  0  0  0  0  0  0  0  0  0
    1.4544   -1.1754    1.3971 C   0  0  0  0  0  0  0  0  0  0  0  0
    1.9235   -2.2946    1.2079 O   0  0  0  0  0  0  0  0  0  0  0  0
    0.4587   -2.0097   -0.7289 H   0  0  0  0  0  0  0  0  0  0  0  0
   -0.6512   -0.9853    1.7290 H   0  0  0  0  0  0  0  0  0  0  0  0
    0.0619    0.3060    0.7239 H   0  0  0  0  0  0  0  0  0  0  0  0
    2.1084   -0.1359    2.0498 N   0  0  0  0  0  0  0  0  0  0  0  0
    3.4370   -0.2497    2.5914 C   0  0  2  0  0  0  0  0  0  0  0  0
    4.3036    0.8201    1.9403 C   0  0  0  0  0  0  0  0  0  0  0  0
    4.0325    1.3358    0.8579 O   0  0  0  0  0  0  0  0  0  0  0  0
    4.0146   -1.6362    2.3535 C   0  0  0  0  0  0  0  0  0  0  0  0
    1.6213    0.7532    2.1498 H   0  0  0  0  0  0  0  0  0  0  0  0
    3.3583   -0.0526    3.6662 H   0  0  0  0  0  0  0  0  0  0  0  0
    4.1009   -1.8517    1.2822 H   0  0  0  0  0  0  0  0  0  0  0  0
    5.0140   -1.7302    2.7910 H   0  0  0  0  0  0  0  0  0  0  0  0
    3.3744   -2.4065    2.7969 H   0  0  0  0  0  0  0  0  0  0  0  0
    5.4378    1.1003    2.6894 N   0  0  0  0  0  0  0  0  0  0  0  0
    6.4244    2.0711    2.2770 C   0  0  0  0  0  0  0  0  0  0  0  0
    5.5723    0.6386    3.5841 H   0  0  0  0  0  0  0  0  0  0  0  0
    7.2172    1.5682    1.7038 H   0  0  0  0  0  0  0  0  0  0  0  0
    5.9456    2.8355    1.6474 H   0  0  0  0  0  0  0  0  0  0  0  0
    6.8618    2.5494    3.1657 H   0  0  0  0  0  0  0  0  0  0  0  0
  1  3  1  0  0  0  0
  1  7  1  0  0  0  0
  1  2  2  0  0  0  0
 18 19  1  0  0  0  0
 19 24  1  0  0  0  0
 19 20  2  0  0  0  0
 25 26  1  0  0  0  0
 26 34  1  0  0  0  0
 26 27  2  0  0  0  0
  8  9  1  0  0  0  0
  9 17  1  0  0  0  0
  9 10  2  0  0  0  0
 25 28  1  0  0  0  0
  8 11  1  0  0  0  0
 34 35  1  0  0  0  0
 17 18  1  0  0  0  0
 24 25  1  0  0  0  0
  7  8  1  0  0  0  0
  3  4  1  0  0  0  0
  3  5  1  0  0  0  0
  3  6  1  0  0  0  0
 28 31  1  0  0  0  0
 28 32  1  0  0  0  0
 28 33  1  0  0  0  0
 11 14  1  0  0  0  0
 11 15  1  0  0  0  0
 11 16  1  0  0  0  0
 35 37  1  0  0  0  0
 35 38  1  0  0  0  0
 35 39  1  0  0  0  0
 18 22  1  0  0  0  0
 18 23  1  0  0  0  0
 25 30  1  0  0  0  0
  8 13  1  0  0  0  0
 34 36  1  0  0  0  0
 17 21  1  0  0  0  0
  7 12  1  0  0  0  0
 24 29  1  0  0  0  0
M  END
$$$$

  -OEChem-05262214473D

 39 38  0     1  0  0  0  0  0999 V2000
   -3.5200   -4.0268   -1.6943 C   0  0  0  0  0  0  0  0  0  0  0  0
   -2.8702   -4.8827   -1.1054 O   0  0  0  0  0  0  0  0  0  0  0  0
   -4.9704   -4.2579   -1.9614 C   0  0  0  0  0  0  0  0  0  0  0  0
   -5.1456   -4.7573   -2.9278 H   0  0  0  0  0  0  0  0  0  0  0  0
   -5.4379   -4.9112   -1.2072 H   0  0  0  0  0  0  0  0  0  0  0  0
   -5.5954   -3.3510   -1.9864 H   0  0  0  0  0  0  0  0  0  0  0  0
   -3.0424   -2.8131   -2.1606 N   0  0  0  0  0  0  0  0  0  0  0  0
   -1.6755   -2.3891   -2.0077 C   0  0  2  0  0  0  0  0  0  0  0  0
   -1.5782   -1.5673   -0.7292 C   0  0  0  0  0  0  0  0  0  0  0  0
   -2.5448   -1.0064   -0.2171 O   0  0  0  0  0  0  0  0  0  0  0  0
   -1.2087   -1.5823   -3.2094 C   0  0  0  0  0  0  0  0  0  0  0  0
   -3.6915   -2.1888   -2.6360 H   0  0  0  0  0  0  0  0  0  0  0  0
   -1.0721   -3.2977   -1.9053 H   0  0  0  0  0  0  0  0  0  0  0  0
   -1.8017   -0.6681   -3.3281 H   0  0  0  0  0  0  0  0  0  0  0  0
   -0.1601   -1.2849   -3.1045 H   0  0  0  0  0  0  0  0  0  0  0  0
   -1.3074   -2.1646   -4.1319 H   0  0  0  0  0  0  0  0  0  0  0  0
   -0.2835   -1.5112   -0.2725 N   0  0  0  0  0  0  0  0  0  0  0  0
    0.0769   -0.7658    0.9424 C   0  0  0  0  0  0  0  0  0  0  0  0
    1.4544   -1.1754    1.3971 C   0  0  0  0  0  0  0  0  0  0  0  0
    2.0293   -2.1813    0.9896 O   0  0  0  0  0  0  0  0  0  0  0  0
    0.4587   -2.0097   -0.7289 H   0  0  0  0  0  0  0  0  0  0  0  0
   -0.6512   -0.9853    1.7290 H   0  0  0  0  0  0  0  0  0  0  0  0
    0.0619    0.3060    0.7239 H   0  0  0  0  0  0  0  0  0  0  0  0
    1.9750   -0.2794    2.3247 N   0  0  0  0  0  0  0  0  0  0  0  0
    3.2729   -0.4268    2.9289 C   0  0  2  0  0  0  0  0  0  0  0  0
    4.0818    0.8255    2.6171 C   0  0  0  0  0  0  0  0  0  0  0  0
    3.8336    1.5651    1.6671 O   0  0  0  0  0  0  0  0  0  0  0  0
    3.9818   -1.6724    2.4203 C   0  0  0  0  0  0  0  0  0  0  0  0
    1.4076    0.5238    2.5906 H   0  0  0  0  0  0  0  0  0  0  0  0
    3.1122   -0.4986    4.0101 H   0  0  0  0  0  0  0  0  0  0  0  0
    4.1516   -1.6186    1.3387 H   0  0  0  0  0  0  0  0  0  0  0  0
    4.9570   -1.7985    2.9020 H   0  0  0  0  0  0  0  0  0  0  0  0
    3.3848   -2.5690    2.6188 H   0  0  0  0  0  0  0  0  0  0  0  0
    5.1398    0.9964    3.4989 N   0  0  0  0  0  0  0  0  0  0  0  0
    6.0619    2.1040    3.4048 C   0  0  0  0  0  0  0  0  0  0  0  0
    5.2589    0.3445    4.2687 H   0  0  0  0  0  0  0  0  0  0  0  0
    6.9287    1.8093    2.7950 H   0  0  0  0  0  0  0  0  0  0  0  0
    5.5580    2.9616    2.9353 H   0  0  0  0  0  0  0  0  0  0  0  0
    6.4014    2.3849    4.4127 H   0  0  0  0  0  0  0  0  0  0  0  0
  1  3  1  0  0  0  0
  1  7  1  0  0  0  0
  1  2  2  0  0  0  0
 18 19  1  0  0  0  0
 19 24  1  0  0  0  0
 19 20  2  0  0  0  0
 25 26  1  0  0  0  0
 26 34  1  0  0  0  0
 26 27  2  0  0  0  0
  8  9  1  0  0  0  0
  9 17  1  0  0  0  0
  9 10  2  0  0  0  0
 25 28  1  0  0  0  0
  8 11  1  0  0  0  0
 34 35  1  0  0  0  0
 17 18  1  0  0  0  0
 24 25  1  0  0  0  0
  7  8  1  0  0  0  0
  3  4  1  0  0  0  0
  3  5  1  0  0  0  0
  3  6  1  0  0  0  0
 28 31  1  0  0  0  0
 28 32  1  0  0  0  0
 28 33  1  0  0  0  0
 11 14  1  0  0  0  0
 11 15  1  0  0  0  0
 11 16  1  0  0  0  0
 35 37  1  0  0  0  0
 35 38  1  0  0  0  0
 35 39  1  0  0  0  0
 18 22  1  0  0  0  0
 18 23  1  0  0  0  0
 25 30  1  0  0  0  0
  8 13  1  0  0  0  0
 34 36  1  0  0  0  0
 17 21  1  0  0  0  0
  7 12  1  0  0  0  0
 24 29  1  0  0  0  0
M  END
$$$$
