
  -OEChem-01062216093D

 34 33  0     1  0  0  0  0  0999 V2000
   -4.0711   -2.1215    1.2160 H   0  0  0  0  0  0  0  0  0  0  0  0
   -3.9384   -1.1272    0.7807 C   0  0  0  0  0  0  0  0  0  0  0  0
   -4.6934   -0.4565    1.1988 H   0  0  0  0  0  0  0  0  0  0  0  0
   -4.0818   -1.1942   -0.3004 H   0  0  0  0  0  0  0  0  0  0  0  0
   -2.5508   -0.5993    1.0914 C   0  0  0  0  0  0  0  0  0  0  0  0
   -1.8540   -1.1773    1.9108 O   0  0  0  0  0  0  0  0  0  0  0  0
   -2.1435    0.6002    0.5467 N   0  0  0  0  0  0  0  0  0  0  0  0
   -2.8340    1.0852   -0.0317 H   0  0  0  0  0  0  0  0  0  0  0  0
   -0.8078    1.2323    0.5674 C   0  0  1  0  0  0  0  0  0  0  0  0
   -0.5027    1.4204    1.6019 H   0  0  0  0  0  0  0  0  0  0  0  0
    0.3003    0.4375   -0.1945 C   0  0  0  0  0  0  0  0  0  0  0  0
   -0.0492    0.2654   -1.2188 H   0  0  0  0  0  0  0  0  0  0  0  0
    1.1997    1.0580   -0.2565 H   0  0  0  0  0  0  0  0  0  0  0  0
    0.7303   -0.9071    0.4092 C   0  0  0  0  0  0  0  0  0  0  0  0
    1.0445   -0.7649    1.4493 H   0  0  0  0  0  0  0  0  0  0  0  0
   -0.1110   -1.5995    0.3898 H   0  0  0  0  0  0  0  0  0  0  0  0
    1.8394   -1.5691   -0.4135 C   0  0  0  0  0  0  0  0  0  0  0  0
    1.4931   -1.7210   -1.4418 H   0  0  0  0  0  0  0  0  0  0  0  0
    2.7188   -0.9164   -0.4409 H   0  0  0  0  0  0  0  0  0  0  0  0
    2.1978   -2.9085    0.2286 C   0  0  0  0  0  0  0  0  0  0  0  0
    2.5318   -2.7348    1.2624 H   0  0  0  0  0  0  0  0  0  0  0  0
    1.2933   -3.5325    0.2850 H   0  0  0  0  0  0  0  0  0  0  0  0
    3.2517   -3.5716   -0.5688 N   0  3  0  0  0  0  0  0  0  0  0  0
    4.0856   -2.9828   -0.6045 H   0  0  0  0  0  0  0  0  0  0  0  0
    3.4975   -4.4694   -0.1456 H   0  0  0  0  0  0  0  0  0  0  0  0
    2.9182   -3.7344   -1.5208 H   0  0  0  0  0  0  0  0  0  0  0  0
   -0.9213    2.5853   -0.1921 C   0  0  0  0  0  0  0  0  0  0  0  0
   -1.9730    2.8850   -0.7474 O   0  0  0  0  0  0  0  0  0  0  0  0
    0.1661    3.4292   -0.3489 N   0  0  0  0  0  0  0  0  0  0  0  0
    1.0024    3.2249    0.1893 H   0  0  0  0  0  0  0  0  0  0  0  0
    0.0806    4.7134   -1.0393 C   0  0  0  0  0  0  0  0  0  0  0  0
   -0.6059    5.3862   -0.5141 H   0  0  0  0  0  0  0  0  0  0  0  0
    1.0654    5.1889   -1.0829 H   0  0  0  0  0  0  0  0  0  0  0  0
   -0.2787    4.5761   -2.0650 H   0  0  0  0  0  0  0  0  0  0  0  0
  1  2  1  0  0  0  0
  2  3  1  0  0  0  0
  2  4  1  0  0  0  0
  2  5  1  0  0  0  0
  5  6  2  0  0  0  0
  5  7  1  0  0  0  0
  7  8  1  0  0  0  0
  7  9  1  0  0  0  0
  9 10  1  0  0  0  0
  9 11  1  0  0  0  0
  9 27  1  0  0  0  0
 11 12  1  0  0  0  0
 11 13  1  0  0  0  0
 11 14  1  0  0  0  0
 14 15  1  0  0  0  0
 14 16  1  0  0  0  0
 14 17  1  0  0  0  0
 17 18  1  0  0  0  0
 17 19  1  0  0  0  0
 17 20  1  0  0  0  0
 20 21  1  0  0  0  0
 20 22  1  0  0  0  0
 20 23  1  0  0  0  0
 23 24  1  0  0  0  0
 23 25  1  0  0  0  0
 23 26  1  0  0  0  0
 27 28  2  0  0  0  0
 27 29  1  0  0  0  0
 29 30  1  0  0  0  0
 29 31  1  0  0  0  0
 31 32  1  0  0  0  0
 31 33  1  0  0  0  0
 31 34  1  0  0  0  0
M  CHG  1  23   1
M  END
$$$$

  -OEChem-01062216093D

 34 33  0     1  0  0  0  0  0999 V2000
   -4.1096   -2.0774    1.2095 H   0  0  0  0  0  0  0  0  0  0  0  0
   -3.9548   -1.0855    0.7756 C   0  0  0  0  0  0  0  0  0  0  0  0
   -4.6823   -0.3945    1.2093 H   0  0  0  0  0  0  0  0  0  0  0  0
   -4.1184   -1.1439   -0.3032 H   0  0  0  0  0  0  0  0  0  0  0  0
   -2.5474   -0.5997    1.0643 C   0  0  0  0  0  0  0  0  0  0  0  0
   -1.8531   -1.2076    1.8635 O   0  0  0  0  0  0  0  0  0  0  0  0
   -2.1253    0.6005    0.5321 N   0  0  0  0  0  0  0  0  0  0  0  0
   -2.8334    1.1315    0.0186 H   0  0  0  0  0  0  0  0  0  0  0  0
   -0.7863    1.2276    0.5507 C   0  0  1  0  0  0  0  0  0  0  0  0
   -0.4793    1.4163    1.5847 H   0  0  0  0  0  0  0  0  0  0  0  0
    0.3221    0.4228   -0.2048 C   0  0  0  0  0  0  0  0  0  0  0  0
   -0.0234    0.2482   -1.2300 H   0  0  0  0  0  0  0  0  0  0  0  0
    1.2267    1.0354   -0.2610 H   0  0  0  0  0  0  0  0  0  0  0  0
    0.7493   -0.9203    0.4044 C   0  0  0  0  0  0  0  0  0  0  0  0
    1.0598   -0.7750    1.4453 H   0  0  0  0  0  0  0  0  0  0  0  0
   -0.0914   -1.6123    0.3828 H   0  0  0  0  0  0  0  0  0  0  0  0
    1.8578   -1.5891   -0.4137 C   0  0  0  0  0  0  0  0  0  0  0  0
    1.5125   -1.7462   -1.4415 H   0  0  0  0  0  0  0  0  0  0  0  0
    2.7386   -0.9384   -0.4432 H   0  0  0  0  0  0  0  0  0  0  0  0
    2.2109   -2.9261    0.2363 C   0  0  0  0  0  0  0  0  0  0  0  0
    2.5432   -2.7476    1.2697 H   0  0  0  0  0  0  0  0  0  0  0  0
    1.3039   -3.5463    0.2948 H   0  0  0  0  0  0  0  0  0  0  0  0
    3.2642   -3.5988   -0.5544 N   0  3  0  0  0  0  0  0  0  0  0  0
    4.1011   -3.0143   -0.5915 H   0  0  0  0  0  0  0  0  0  0  0  0
    3.5044   -4.4956   -0.1255 H   0  0  0  0  0  0  0  0  0  0  0  0
    2.9325   -3.7658   -1.5063 H   0  0  0  0  0  0  0  0  0  0  0  0
   -0.9164    2.5885   -0.2017 C   0  0  0  0  0  0  0  0  0  0  0  0
   -2.0287    3.0001   -0.5143 O   0  0  0  0  0  0  0  0  0  0  0  0
    0.1804    3.3124   -0.6429 N   0  0  0  0  0  0  0  0  0  0  0  0
    1.0963    3.0284   -0.3108 H   0  0  0  0  0  0  0  0  0  0  0  0
    0.0606    4.5890   -1.3435 C   0  0  0  0  0  0  0  0  0  0  0  0
   -0.4244    5.3339   -0.7035 H   0  0  0  0  0  0  0  0  0  0  0  0
    1.0496    4.9645   -1.6233 H   0  0  0  0  0  0  0  0  0  0  0  0
   -0.5328    4.4733   -2.2570 H   0  0  0  0  0  0  0  0  0  0  0  0
  1  2  1  0  0  0  0
  2  3  1  0  0  0  0
  2  4  1  0  0  0  0
  2  5  1  0  0  0  0
  5  6  2  0  0  0  0
  5  7  1  0  0  0  0
  7  8  1  0  0  0  0
  7  9  1  0  0  0  0
  9 10  1  0  0  0  0
  9 11  1  0  0  0  0
  9 27  1  0  0  0  0
 11 12  1  0  0  0  0
 11 13  1  0  0  0  0
 11 14  1  0  0  0  0
 14 15  1  0  0  0  0
 14 16  1  0  0  0  0
 14 17  1  0  0  0  0
 17 18  1  0  0  0  0
 17 19  1  0  0  0  0
 17 20  1  0  0  0  0
 20 21  1  0  0  0  0
 20 22  1  0  0  0  0
 20 23  1  0  0  0  0
 23 24  1  0  0  0  0
 23 25  1  0  0  0  0
 23 26  1  0  0  0  0
 27 28  2  0  0  0  0
 27 29  1  0  0  0  0
 29 30  1  0  0  0  0
 29 31  1  0  0  0  0
 31 32  1  0  0  0  0
 31 33  1  0  0  0  0
 31 34  1  0  0  0  0
M  CHG  1  23   1
M  END
$$$$

  -OEChem-01062216093D

 34 33  0     1  0  0  0  0  0999 V2000
   -4.1569   -2.0266    1.2045 H   0  0  0  0  0  0  0  0  0  0  0  0
   -3.9802   -1.0370    0.7740 C   0  0  0  0  0  0  0  0  0  0  0  0
   -4.6758   -0.3269    1.2287 H   0  0  0  0  0  0  0  0  0  0  0  0
   -4.1697   -1.0820   -0.3011 H   0  0  0  0  0  0  0  0  0  0  0  0
   -2.5515   -0.5982    1.0328 C   0  0  0  0  0  0  0  0  0  0  0  0
   -1.8568   -1.2418    1.8024 O   0  0  0  0  0  0  0  0  0  0  0  0
   -2.1139    0.6027    0.5141 N   0  0  0  0  0  0  0  0  0  0  0  0
   -2.8350    1.1772    0.0710 H   0  0  0  0  0  0  0  0  0  0  0  0
   -0.7675    1.2155    0.5247 C   0  0  1  0  0  0  0  0  0  0  0  0
   -0.4567    1.4017    1.5579 H   0  0  0  0  0  0  0  0  0  0  0  0
    0.3445    0.4074   -0.2238 C   0  0  0  0  0  0  0  0  0  0  0  0
    0.0064    0.2308   -1.2509 H   0  0  0  0  0  0  0  0  0  0  0  0
    1.2499    1.0193   -0.2705 H   0  0  0  0  0  0  0  0  0  0  0  0
    0.7698   -0.9329    0.3927 C   0  0  0  0  0  0  0  0  0  0  0  0
    1.0739   -0.7833    1.4349 H   0  0  0  0  0  0  0  0  0  0  0  0
   -0.0703   -1.6250    0.3675 H   0  0  0  0  0  0  0  0  0  0  0  0
    1.8817   -1.6090   -0.4145 C   0  0  0  0  0  0  0  0  0  0  0  0
    1.5427   -1.7730   -1.4433 H   0  0  0  0  0  0  0  0  0  0  0  0
    2.7639   -0.9605   -0.4427 H   0  0  0  0  0  0  0  0  0  0  0  0
    2.2276   -2.9420    0.2481 C   0  0  0  0  0  0  0  0  0  0  0  0
    2.5543   -2.7566    1.2823 H   0  0  0  0  0  0  0  0  0  0  0  0
    1.3185   -3.5594    0.3061 H   0  0  0  0  0  0  0  0  0  0  0  0
    3.2842   -3.6229   -0.5310 N   0  3  0  0  0  0  0  0  0  0  0  0
    4.1233   -3.0414   -0.5656 H   0  0  0  0  0  0  0  0  0  0  0  0
    3.5187   -4.5174   -0.0945 H   0  0  0  0  0  0  0  0  0  0  0  0
    2.9588   -3.7952   -1.4841 H   0  0  0  0  0  0  0  0  0  0  0  0
   -0.9126    2.5847   -0.2121 C   0  0  0  0  0  0  0  0  0  0  0  0
   -2.0161    3.1169   -0.2593 O   0  0  0  0  0  0  0  0  0  0  0  0
    0.1093    3.1847   -0.9323 N   0  0  0  0  0  0  0  0  0  0  0  0
    1.0390    2.7869   -0.8569 H   0  0  0  0  0  0  0  0  0  0  0  0
   -0.0483    4.4573   -1.6321 C   0  0  0  0  0  0  0  0  0  0  0  0
   -0.2997    5.2553   -0.9250 H   0  0  0  0  0  0  0  0  0  0  0  0
    0.8806    4.7285   -2.1431 H   0  0  0  0  0  0  0  0  0  0  0  0
   -0.8443    4.3888   -2.3816 H   0  0  0  0  0  0  0  0  0  0  0  0
  1  2  1  0  0  0  0
  2  3  1  0  0  0  0
  2  4  1  0  0  0  0
  2  5  1  0  0  0  0
  5  6  2  0  0  0  0
  5  7  1  0  0  0  0
  7  8  1  0  0  0  0
  7  9  1  0  0  0  0
  9 10  1  0  0  0  0
  9 11  1  0  0  0  0
  9 27  1  0  0  0  0
 11 12  1  0  0  0  0
 11 13  1  0  0  0  0
 11 14  1  0  0  0  0
 14 15  1  0  0  0  0
 14 16  1  0  0  0  0
 14 17  1  0  0  0  0
 17 18  1  0  0  0  0
 17 19  1  0  0  0  0
 17 20  1  0  0  0  0
 20 21  1  0  0  0  0
 20 22  1  0  0  0  0
 20 23  1  0  0  0  0
 23 24  1  0  0  0  0
 23 25  1  0  0  0  0
 23 26  1  0  0  0  0
 27 28  2  0  0  0  0
 27 29  1  0  0  0  0
 29 30  1  0  0  0  0
 29 31  1  0  0  0  0
 31 32  1  0  0  0  0
 31 33  1  0  0  0  0
 31 34  1  0  0  0  0
M  CHG  1  23   1
M  END
$$$$

  -OEChem-01062216093D

 34 33  0     1  0  0  0  0  0999 V2000
   -4.2140   -1.9703    1.2178 H   0  0  0  0  0  0  0  0  0  0  0  0
   -4.0164   -0.9868    0.7822 C   0  0  0  0  0  0  0  0  0  0  0  0
   -4.6750   -0.2543    1.2560 H   0  0  0  0  0  0  0  0  0  0  0  0
   -4.2366   -1.0249   -0.2873 H   0  0  0  0  0  0  0  0  0  0  0  0
   -2.5674   -0.5960    1.0015 C   0  0  0  0  0  0  0  0  0  0  0  0
   -1.8693   -1.2779    1.7333 O   0  0  0  0  0  0  0  0  0  0  0  0
   -2.1160    0.6049    0.4941 N   0  0  0  0  0  0  0  0  0  0  0  0
   -2.8440    1.2141    0.1149 H   0  0  0  0  0  0  0  0  0  0  0  0
   -0.7610    1.1987    0.4982 C   0  0  1  0  0  0  0  0  0  0  0  0
   -0.4498    1.3801    1.5324 H   0  0  0  0  0  0  0  0  0  0  0  0
    0.3593    0.3946   -0.2408 C   0  0  0  0  0  0  0  0  0  0  0  0
    0.0295    0.2125   -1.2697 H   0  0  0  0  0  0  0  0  0  0  0  0
    1.2601    1.0157   -0.2792 H   0  0  0  0  0  0  0  0  0  0  0  0
    0.7853   -0.9436    0.3801 C   0  0  0  0  0  0  0  0  0  0  0  0
    1.0789   -0.7926    1.4251 H   0  0  0  0  0  0  0  0  0  0  0  0
   -0.0509   -1.6394    0.3463 H   0  0  0  0  0  0  0  0  0  0  0  0
    1.9063   -1.6184   -0.4156 C   0  0  0  0  0  0  0  0  0  0  0  0
    1.5768   -1.7861   -1.4469 H   0  0  0  0  0  0  0  0  0  0  0  0
    2.7870   -0.9677   -0.4374 H   0  0  0  0  0  0  0  0  0  0  0  0
    2.2492   -2.9491    0.2545 C   0  0  0  0  0  0  0  0  0  0  0  0
    2.5655   -2.7593    1.2909 H   0  0  0  0  0  0  0  0  0  0  0  0
    1.3412   -3.5688    0.3066 H   0  0  0  0  0  0  0  0  0  0  0  0
    3.3145   -3.6306   -0.5117 N   0  3  0  0  0  0  0  0  0  0  0  0
    4.1529   -3.0477   -0.5396 H   0  0  0  0  0  0  0  0  0  0  0  0
    3.5459   -4.5232   -0.0698 H   0  0  0  0  0  0  0  0  0  0  0  0
    2.9991   -3.8068   -1.4673 H   0  0  0  0  0  0  0  0  0  0  0  0
   -0.9075    2.5747   -0.2207 C   0  0  0  0  0  0  0  0  0  0  0  0
   -1.9238    3.2282   -0.0217 O   0  0  0  0  0  0  0  0  0  0  0  0
   -0.0292    3.0472   -1.1844 N   0  0  0  0  0  0  0  0  0  0  0  0
    0.8089    2.5080   -1.3709 H   0  0  0  0  0  0  0  0  0  0  0  0
   -0.2195    4.3113   -1.8914 C   0  0  0  0  0  0  0  0  0  0  0  0
   -0.2316    5.1487   -1.1852 H   0  0  0  0  0  0  0  0  0  0  0  0
    0.5939    4.4743   -2.6051 H   0  0  0  0  0  0  0  0  0  0  0  0
   -1.1656    4.3046   -2.4434 H   0  0  0  0  0  0  0  0  0  0  0  0
  1  2  1  0  0  0  0
  2  3  1  0  0  0  0
  2  4  1  0  0  0  0
  2  5  1  0  0  0  0
  5  6  2  0  0  0  0
  5  7  1  0  0  0  0
  7  8  1  0  0  0  0
  7  9  1  0  0  0  0
  9 10  1  0  0  0  0
  9 11  1  0  0  0  0
  9 27  1  0  0  0  0
 11 12  1  0  0  0  0
 11 13  1  0  0  0  0
 11 14  1  0  0  0  0
 14 15  1  0  0  0  0
 14 16  1  0  0  0  0
 14 17  1  0  0  0  0
 17 18  1  0  0  0  0
 17 19  1  0  0  0  0
 17 20  1  0  0  0  0
 20 21  1  0  0  0  0
 20 22  1  0  0  0  0
 20 23  1  0  0  0  0
 23 24  1  0  0  0  0
 23 25  1  0  0  0  0
 23 26  1  0  0  0  0
 27 28  2  0  0  0  0
 27 29  1  0  0  0  0
 29 30  1  0  0  0  0
 29 31  1  0  0  0  0
 31 32  1  0  0  0  0
 31 33  1  0  0  0  0
 31 34  1  0  0  0  0
M  CHG  1  23   1
M  END
$$$$

  -OEChem-01062216093D

 34 33  0     1  0  0  0  0  0999 V2000
   -4.2360   -1.9488    1.2308 H   0  0  0  0  0  0  0  0  0  0  0  0
   -4.0354   -0.9674    0.7918 C   0  0  0  0  0  0  0  0  0  0  0  0
   -4.6789   -0.2283    1.2761 H   0  0  0  0  0  0  0  0  0  0  0  0
   -4.2737   -1.0037   -0.2738 H   0  0  0  0  0  0  0  0  0  0  0  0
   -2.5787   -0.5922    0.9871 C   0  0  0  0  0  0  0  0  0  0  0  0
   -1.8753   -1.2889    1.6989 O   0  0  0  0  0  0  0  0  0  0  0  0
   -2.1245    0.6082    0.4793 N   0  0  0  0  0  0  0  0  0  0  0  0
   -2.8573    1.2286    0.1318 H   0  0  0  0  0  0  0  0  0  0  0  0
   -0.7641    1.1901    0.4728 C   0  0  1  0  0  0  0  0  0  0  0  0
   -0.4514    1.3710    1.5070 H   0  0  0  0  0  0  0  0  0  0  0  0
    0.3603    0.3863   -0.2585 C   0  0  0  0  0  0  0  0  0  0  0  0
    0.0301    0.1889   -1.2841 H   0  0  0  0  0  0  0  0  0  0  0  0
    1.2537    1.0185   -0.3049 H   0  0  0  0  0  0  0  0  0  0  0  0
    0.7912   -0.9465    0.3698 C   0  0  0  0  0  0  0  0  0  0  0  0
    1.0833   -0.7875    1.4141 H   0  0  0  0  0  0  0  0  0  0  0  0
   -0.0414   -1.6461    0.3394 H   0  0  0  0  0  0  0  0  0  0  0  0
    1.9164   -1.6211   -0.4198 C   0  0  0  0  0  0  0  0  0  0  0  0
    1.5898   -1.7964   -1.4509 H   0  0  0  0  0  0  0  0  0  0  0  0
    2.7950   -0.9672   -0.4432 H   0  0  0  0  0  0  0  0  0  0  0  0
    2.2621   -2.9460    0.2599 C   0  0  0  0  0  0  0  0  0  0  0  0
    2.5761   -2.7477    1.2955 H   0  0  0  0  0  0  0  0  0  0  0  0
    1.3563   -3.5687    0.3140 H   0  0  0  0  0  0  0  0  0  0  0  0
    3.3316   -3.6293   -0.4990 N   0  3  0  0  0  0  0  0  0  0  0  0
    4.1677   -3.0432   -0.5300 H   0  0  0  0  0  0  0  0  0  0  0  0
    3.5660   -4.5172   -0.0492 H   0  0  0  0  0  0  0  0  0  0  0  0
    3.0186   -3.8145   -1.4536 H   0  0  0  0  0  0  0  0  0  0  0  0
   -0.9002    2.5677   -0.2366 C   0  0  0  0  0  0  0  0  0  0  0  0
   -1.7610    3.3371    0.1666 O   0  0  0  0  0  0  0  0  0  0  0  0
   -0.2232    2.9145   -1.3961 N   0  0  0  0  0  0  0  0  0  0  0  0
    0.4390    2.2485   -1.7782 H   0  0  0  0  0  0  0  0  0  0  0  0
   -0.4385    4.1746   -2.1028 C   0  0  0  0  0  0  0  0  0  0  0  0
   -0.2096    5.0243   -1.4502 H   0  0  0  0  0  0  0  0  0  0  0  0
    0.2083    4.2329   -2.9837 H   0  0  0  0  0  0  0  0  0  0  0  0
   -1.4796    4.2574   -2.4336 H   0  0  0  0  0  0  0  0  0  0  0  0
  1  2  1  0  0  0  0
  2  3  1  0  0  0  0
  2  4  1  0  0  0  0
  2  5  1  0  0  0  0
  5  6  2  0  0  0  0
  5  7  1  0  0  0  0
  7  8  1  0  0  0  0
  7  9  1  0  0  0  0
  9 10  1  0  0  0  0
  9 11  1  0  0  0  0
  9 27  1  0  0  0  0
 11 12  1  0  0  0  0
 11 13  1  0  0  0  0
 11 14  1  0  0  0  0
 14 15  1  0  0  0  0
 14 16  1  0  0  0  0
 14 17  1  0  0  0  0
 17 18  1  0  0  0  0
 17 19  1  0  0  0  0
 17 20  1  0  0  0  0
 20 21  1  0  0  0  0
 20 22  1  0  0  0  0
 20 23  1  0  0  0  0
 23 24  1  0  0  0  0
 23 25  1  0  0  0  0
 23 26  1  0  0  0  0
 27 28  2  0  0  0  0
 27 29  1  0  0  0  0
 29 30  1  0  0  0  0
 29 31  1  0  0  0  0
 31 32  1  0  0  0  0
 31 33  1  0  0  0  0
 31 34  1  0  0  0  0
M  CHG  1  23   1
M  END
$$$$

  -OEChem-01062216093D

 34 33  0     1  0  0  0  0  0999 V2000
   -4.2263   -1.9627    1.2388 H   0  0  0  0  0  0  0  0  0  0  0  0
   -4.0367   -0.9786    0.8009 C   0  0  0  0  0  0  0  0  0  0  0  0
   -4.6833   -0.2463    1.2911 H   0  0  0  0  0  0  0  0  0  0  0  0
   -4.2804   -1.0147   -0.2636 H   0  0  0  0  0  0  0  0  0  0  0  0
   -2.5827   -0.5913    0.9902 C   0  0  0  0  0  0  0  0  0  0  0  0
   -1.8724   -1.2795    1.7029 O   0  0  0  0  0  0  0  0  0  0  0  0
   -2.1378    0.6083    0.4720 N   0  0  0  0  0  0  0  0  0  0  0  0
   -2.8749    1.2146    0.1128 H   0  0  0  0  0  0  0  0  0  0  0  0
   -0.7759    1.1860    0.4500 C   0  0  1  0  0  0  0  0  0  0  0  0
   -0.4580    1.3680    1.4827 H   0  0  0  0  0  0  0  0  0  0  0  0
    0.3492    0.3828   -0.2788 C   0  0  0  0  0  0  0  0  0  0  0  0
    0.0143    0.1676   -1.2989 H   0  0  0  0  0  0  0  0  0  0  0  0
    1.2358    1.0239   -0.3426 H   0  0  0  0  0  0  0  0  0  0  0  0
    0.7866   -0.9420    0.3606 C   0  0  0  0  0  0  0  0  0  0  0  0
    1.0813   -0.7717    1.4023 H   0  0  0  0  0  0  0  0  0  0  0  0
   -0.0436   -1.6453    0.3393 H   0  0  0  0  0  0  0  0  0  0  0  0
    1.9121   -1.6182   -0.4263 C   0  0  0  0  0  0  0  0  0  0  0  0
    1.5835   -1.8041   -1.4546 H   0  0  0  0  0  0  0  0  0  0  0  0
    2.7877   -0.9606   -0.4580 H   0  0  0  0  0  0  0  0  0  0  0  0
    2.2649   -2.9349    0.2644 C   0  0  0  0  0  0  0  0  0  0  0  0
    2.5808   -2.7248    1.2970 H   0  0  0  0  0  0  0  0  0  0  0  0
    1.3620   -3.5606    0.3279 H   0  0  0  0  0  0  0  0  0  0  0  0
    3.3351   -3.6210   -0.4904 N   0  3  0  0  0  0  0  0  0  0  0  0
    4.1638   -3.0257   -0.5408 H   0  0  0  0  0  0  0  0  0  0  0  0
    3.5841   -4.4968   -0.0251 H   0  0  0  0  0  0  0  0  0  0  0  0
    3.0157   -3.8287   -1.4382 H   0  0  0  0  0  0  0  0  0  0  0  0
   -0.8979    2.5613   -0.2577 C   0  0  0  0  0  0  0  0  0  0  0  0
   -1.5324    3.4406    0.3040 O   0  0  0  0  0  0  0  0  0  0  0  0
   -0.4728    2.7975   -1.5558 N   0  0  0  0  0  0  0  0  0  0  0  0
   -0.0244    2.0375   -2.0558 H   0  0  0  0  0  0  0  0  0  0  0  0
   -0.6965    4.0620   -2.2517 C   0  0  0  0  0  0  0  0  0  0  0  0
   -0.2063    4.8846   -1.7196 H   0  0  0  0  0  0  0  0  0  0  0  0
   -0.2886    4.0165   -3.2661 H   0  0  0  0  0  0  0  0  0  0  0  0
   -1.7681    4.2790   -2.3209 H   0  0  0  0  0  0  0  0  0  0  0  0
  1  2  1  0  0  0  0
  2  3  1  0  0  0  0
  2  4  1  0  0  0  0
  2  5  1  0  0  0  0
  5  6  2  0  0  0  0
  5  7  1  0  0  0  0
  7  8  1  0  0  0  0
  7  9  1  0  0  0  0
  9 10  1  0  0  0  0
  9 11  1  0  0  0  0
  9 27  1  0  0  0  0
 11 12  1  0  0  0  0
 11 13  1  0  0  0  0
 11 14  1  0  0  0  0
 14 15  1  0  0  0  0
 14 16  1  0  0  0  0
 14 17  1  0  0  0  0
 17 18  1  0  0  0  0
 17 19  1  0  0  0  0
 17 20  1  0  0  0  0
 20 21  1  0  0  0  0
 20 22  1  0  0  0  0
 20 23  1  0  0  0  0
 23 24  1  0  0  0  0
 23 25  1  0  0  0  0
 23 26  1  0  0  0  0
 27 28  2  0  0  0  0
 27 29  1  0  0  0  0
 29 30  1  0  0  0  0
 29 31  1  0  0  0  0
 31 32  1  0  0  0  0
 31 33  1  0  0  0  0
 31 34  1  0  0  0  0
M  CHG  1  23   1
M  END
$$$$

  -OEChem-01062216093D

 34 33  0     1  0  0  0  0  0999 V2000
   -4.2313   -1.9762    1.2712 H   0  0  0  0  0  0  0  0  0  0  0  0
   -4.0513   -0.9951    0.8225 C   0  0  0  0  0  0  0  0  0  0  0  0
   -4.7042   -0.2639    1.3059 H   0  0  0  0  0  0  0  0  0  0  0  0
   -4.2962   -1.0450   -0.2411 H   0  0  0  0  0  0  0  0  0  0  0  0
   -2.6002   -0.5929    1.0042 C   0  0  0  0  0  0  0  0  0  0  0  0
   -1.8796   -1.2709    1.7157 O   0  0  0  0  0  0  0  0  0  0  0  0
   -2.1656    0.6046    0.4716 N   0  0  0  0  0  0  0  0  0  0  0  0
   -2.9065    1.1944    0.0952 H   0  0  0  0  0  0  0  0  0  0  0  0
   -0.8025    1.1804    0.4385 C   0  0  1  0  0  0  0  0  0  0  0  0
   -0.4827    1.3646    1.4706 H   0  0  0  0  0  0  0  0  0  0  0  0
    0.3266    0.3819   -0.2879 C   0  0  0  0  0  0  0  0  0  0  0  0
   -0.0056    0.1581   -1.3064 H   0  0  0  0  0  0  0  0  0  0  0  0
    1.2062    1.0319   -0.3584 H   0  0  0  0  0  0  0  0  0  0  0  0
    0.7746   -0.9375    0.3560 C   0  0  0  0  0  0  0  0  0  0  0  0
    1.0718   -0.7604    1.3960 H   0  0  0  0  0  0  0  0  0  0  0  0
   -0.0513   -1.6464    0.3419 H   0  0  0  0  0  0  0  0  0  0  0  0
    1.9043   -1.6069   -0.4321 C   0  0  0  0  0  0  0  0  0  0  0  0
    1.5756   -1.7980   -1.4595 H   0  0  0  0  0  0  0  0  0  0  0  0
    2.7733   -0.9406   -0.4670 H   0  0  0  0  0  0  0  0  0  0  0  0
    2.2723   -2.9196    0.2586 C   0  0  0  0  0  0  0  0  0  0  0  0
    2.5899   -2.7055    1.2900 H   0  0  0  0  0  0  0  0  0  0  0  0
    1.3755   -3.5537    0.3255 H   0  0  0  0  0  0  0  0  0  0  0  0
    3.3468   -3.5956   -0.5002 N   0  3  0  0  0  0  0  0  0  0  0  0
    4.1672   -2.9895   -0.5590 H   0  0  0  0  0  0  0  0  0  0  0  0
    3.6108   -4.4656   -0.0324 H   0  0  0  0  0  0  0  0  0  0  0  0
    3.0244   -3.8125   -1.4450 H   0  0  0  0  0  0  0  0  0  0  0  0
   -0.9069    2.5503   -0.2757 C   0  0  0  0  0  0  0  0  0  0  0  0
   -1.2245    3.5286    0.3808 O   0  0  0  0  0  0  0  0  0  0  0  0
   -0.7638    2.6941   -1.6463 N   0  0  0  0  0  0  0  0  0  0  0  0
   -0.6026    1.8570   -2.1964 H   0  0  0  0  0  0  0  0  0  0  0  0
   -0.9645    3.9637   -2.3395 C   0  0  0  0  0  0  0  0  0  0  0  0
   -0.2548    4.7153   -1.9769 H   0  0  0  0  0  0  0  0  0  0  0  0
   -0.8133    3.8384   -3.4162 H   0  0  0  0  0  0  0  0  0  0  0  0
   -1.9818    4.3354   -2.1749 H   0  0  0  0  0  0  0  0  0  0  0  0
  1  2  1  0  0  0  0
  2  3  1  0  0  0  0
  2  4  1  0  0  0  0
  2  5  1  0  0  0  0
  5  6  2  0  0  0  0
  5  7  1  0  0  0  0
  7  8  1  0  0  0  0
  7  9  1  0  0  0  0
  9 10  1  0  0  0  0
  9 11  1  0  0  0  0
  9 27  1  0  0  0  0
 11 12  1  0  0  0  0
 11 13  1  0  0  0  0
 11 14  1  0  0  0  0
 14 15  1  0  0  0  0
 14 16  1  0  0  0  0
 14 17  1  0  0  0  0
 17 18  1  0  0  0  0
 17 19  1  0  0  0  0
 17 20  1  0  0  0  0
 20 21  1  0  0  0  0
 20 22  1  0  0  0  0
 20 23  1  0  0  0  0
 23 24  1  0  0  0  0
 23 25  1  0  0  0  0
 23 26  1  0  0  0  0
 27 28  2  0  0  0  0
 27 29  1  0  0  0  0
 29 30  1  0  0  0  0
 29 31  1  0  0  0  0
 31 32  1  0  0  0  0
 31 33  1  0  0  0  0
 31 34  1  0  0  0  0
M  CHG  1  23   1
M  END
$$$$

  -OEChem-01062216093D

 34 33  0     1  0  0  0  0  0999 V2000
   -4.2299   -2.0019    1.3111 H   0  0  0  0  0  0  0  0  0  0  0  0
   -4.0632   -1.0232    0.8520 C   0  0  0  0  0  0  0  0  0  0  0  0
   -4.7236   -0.2952    1.3301 H   0  0  0  0  0  0  0  0  0  0  0  0
   -4.3120   -1.0876   -0.2100 H   0  0  0  0  0  0  0  0  0  0  0  0
   -2.6160   -0.6020    1.0264 C   0  0  0  0  0  0  0  0  0  0  0  0
   -1.8855   -1.2654    1.7414 O   0  0  0  0  0  0  0  0  0  0  0  0
   -2.1940    0.5941    0.4796 N   0  0  0  0  0  0  0  0  0  0  0  0
   -2.9372    1.1617    0.0764 H   0  0  0  0  0  0  0  0  0  0  0  0
   -0.8329    1.1759    0.4423 C   0  0  1  0  0  0  0  0  0  0  0  0
   -0.5124    1.3636    1.4736 H   0  0  0  0  0  0  0  0  0  0  0  0
    0.2991    0.3871   -0.2871 C   0  0  0  0  0  0  0  0  0  0  0  0
   -0.0307    0.1665   -1.3073 H   0  0  0  0  0  0  0  0  0  0  0  0
    1.1748    1.0431   -0.3566 H   0  0  0  0  0  0  0  0  0  0  0  0
    0.7556   -0.9297    0.3558 C   0  0  0  0  0  0  0  0  0  0  0  0
    1.0545   -0.7520    1.3951 H   0  0  0  0  0  0  0  0  0  0  0  0
   -0.0672   -1.6428    0.3442 H   0  0  0  0  0  0  0  0  0  0  0  0
    1.8879   -1.5877   -0.4376 C   0  0  0  0  0  0  0  0  0  0  0  0
    1.5564   -1.7776   -1.4642 H   0  0  0  0  0  0  0  0  0  0  0  0
    2.7513   -0.9144   -0.4743 H   0  0  0  0  0  0  0  0  0  0  0  0
    2.2710   -2.8995    0.2457 C   0  0  0  0  0  0  0  0  0  0  0  0
    2.5923   -2.6868    1.2764 H   0  0  0  0  0  0  0  0  0  0  0  0
    1.3813   -3.5433    0.3141 H   0  0  0  0  0  0  0  0  0  0  0  0
    3.3484   -3.5597   -0.5223 N   0  3  0  0  0  0  0  0  0  0  0  0
    4.1619   -2.9443   -0.5814 H   0  0  0  0  0  0  0  0  0  0  0  0
    3.6239   -4.4295   -0.0606 H   0  0  0  0  0  0  0  0  0  0  0  0
    3.0237   -3.7741   -1.4667 H   0  0  0  0  0  0  0  0  0  0  0  0
   -0.9262    2.5378   -0.2828 C   0  0  0  0  0  0  0  0  0  0  0  0
   -0.8987    3.5659    0.3733 O   0  0  0  0  0  0  0  0  0  0  0  0
   -1.0784    2.6238   -1.6566 N   0  0  0  0  0  0  0  0  0  0  0  0
   -1.1588    1.7575   -2.1791 H   0  0  0  0  0  0  0  0  0  0  0  0
   -1.2372    3.8918   -2.3632 C   0  0  0  0  0  0  0  0  0  0  0  0
   -0.3598    4.5296   -2.2101 H   0  0  0  0  0  0  0  0  0  0  0  0
   -1.3528    3.7175   -3.4374 H   0  0  0  0  0  0  0  0  0  0  0  0
   -2.1242    4.4245   -2.0030 H   0  0  0  0  0  0  0  0  0  0  0  0
  1  2  1  0  0  0  0
  2  3  1  0  0  0  0
  2  4  1  0  0  0  0
  2  5  1  0  0  0  0
  5  6  2  0  0  0  0
  5  7  1  0  0  0  0
  7  8  1  0  0  0  0
  7  9  1  0  0  0  0
  9 10  1  0  0  0  0
  9 11  1  0  0  0  0
  9 27  1  0  0  0  0
 11 12  1  0  0  0  0
 11 13  1  0  0  0  0
 11 14  1  0  0  0  0
 14 15  1  0  0  0  0
 14 16  1  0  0  0  0
 14 17  1  0  0  0  0
 17 18  1  0  0  0  0
 17 19  1  0  0  0  0
 17 20  1  0  0  0  0
 20 21  1  0  0  0  0
 20 22  1  0  0  0  0
 20 23  1  0  0  0  0
 23 24  1  0  0  0  0
 23 25  1  0  0  0  0
 23 26  1  0  0  0  0
 27 28  2  0  0  0  0
 27 29  1  0  0  0  0
 29 30  1  0  0  0  0
 29 31  1  0  0  0  0
 31 32  1  0  0  0  0
 31 33  1  0  0  0  0
 31 34  1  0  0  0  0
M  CHG  1  23   1
M  END
$$$$

  -OEChem-01062216093D

 34 33  0     1  0  0  0  0  0999 V2000
   -4.2527   -2.0157    1.3869 H   0  0  0  0  0  0  0  0  0  0  0  0
   -4.0896   -1.0495    0.9008 C   0  0  0  0  0  0  0  0  0  0  0  0
   -4.7453   -0.3089    1.3660 H   0  0  0  0  0  0  0  0  0  0  0  0
   -4.3481   -1.1410   -0.1568 H   0  0  0  0  0  0  0  0  0  0  0  0
   -2.6407   -0.6247    1.0511 C   0  0  0  0  0  0  0  0  0  0  0  0
   -1.8979   -1.2815    1.7591 O   0  0  0  0  0  0  0  0  0  0  0  0
   -2.2316    0.5717    0.4944 N   0  0  0  0  0  0  0  0  0  0  0  0
   -2.9813    1.1318    0.0934 H   0  0  0  0  0  0  0  0  0  0  0  0
   -0.8750    1.1662    0.4639 C   0  0  1  0  0  0  0  0  0  0  0  0
   -0.5590    1.3565    1.4961 H   0  0  0  0  0  0  0  0  0  0  0  0
    0.2641    0.3964   -0.2719 C   0  0  0  0  0  0  0  0  0  0  0  0
   -0.0608    0.1901   -1.2971 H   0  0  0  0  0  0  0  0  0  0  0  0
    1.1342    1.0608   -0.3306 H   0  0  0  0  0  0  0  0  0  0  0  0
    0.7329   -0.9228    0.3563 C   0  0  0  0  0  0  0  0  0  0  0  0
    1.0324   -0.7523    1.3966 H   0  0  0  0  0  0  0  0  0  0  0  0
   -0.0832   -1.6438    0.3398 H   0  0  0  0  0  0  0  0  0  0  0  0
    1.8720   -1.5576   -0.4464 C   0  0  0  0  0  0  0  0  0  0  0  0
    1.5424   -1.7370   -1.4757 H   0  0  0  0  0  0  0  0  0  0  0  0
    2.7273   -0.8732   -0.4742 H   0  0  0  0  0  0  0  0  0  0  0  0
    2.2708   -2.8740    0.2192 C   0  0  0  0  0  0  0  0  0  0  0  0
    2.5894   -2.6717    1.2526 H   0  0  0  0  0  0  0  0  0  0  0  0
    1.3881   -3.5280    0.2787 H   0  0  0  0  0  0  0  0  0  0  0  0
    3.3551   -3.5132   -0.5570 N   0  3  0  0  0  0  0  0  0  0  0  0
    4.1660   -2.8929   -0.5990 H   0  0  0  0  0  0  0  0  0  0  0  0
    3.6322   -4.3913   -0.1125 H   0  0  0  0  0  0  0  0  0  0  0  0
    3.0364   -3.7086   -1.5075 H   0  0  0  0  0  0  0  0  0  0  0  0
   -0.9598    2.5205   -0.2724 C   0  0  0  0  0  0  0  0  0  0  0  0
   -0.6011    3.5390    0.2955 O   0  0  0  0  0  0  0  0  0  0  0  0
   -1.3959    2.5939   -1.5845 N   0  0  0  0  0  0  0  0  0  0  0  0
   -1.6691    1.7300   -2.0427 H   0  0  0  0  0  0  0  0  0  0  0  0
   -1.4793    3.8476   -2.3277 C   0  0  0  0  0  0  0  0  0  0  0  0
   -0.4931    4.3191   -2.3975 H   0  0  0  0  0  0  0  0  0  0  0  0
   -1.8471    3.6653   -3.3423 H   0  0  0  0  0  0  0  0  0  0  0  0
   -2.1654    4.5429   -1.8318 H   0  0  0  0  0  0  0  0  0  0  0  0
  1  2  1  0  0  0  0
  2  3  1  0  0  0  0
  2  4  1  0  0  0  0
  2  5  1  0  0  0  0
  5  6  2  0  0  0  0
  5  7  1  0  0  0  0
  7  8  1  0  0  0  0
  7  9  1  0  0  0  0
  9 10  1  0  0  0  0
  9 11  1  0  0  0  0
  9 27  1  0  0  0  0
 11 12  1  0  0  0  0
 11 13  1  0  0  0  0
 11 14  1  0  0  0  0
 14 15  1  0  0  0  0
 14 16  1  0  0  0  0
 14 17  1  0  0  0  0
 17 18  1  0  0  0  0
 17 19  1  0  0  0  0
 17 20  1  0  0  0  0
 20 21  1  0  0  0  0
 20 22  1  0  0  0  0
 20 23  1  0  0  0  0
 23 24  1  0  0  0  0
 23 25  1  0  0  0  0
 23 26  1  0  0  0  0
 27 28  2  0  0  0  0
 27 29  1  0  0  0  0
 29 30  1  0  0  0  0
 29 31  1  0  0  0  0
 31 32  1  0  0  0  0
 31 33  1  0  0  0  0
 31 34  1  0  0  0  0
M  CHG  1  23   1
M  END
$$$$

  -OEChem-01062216093D

 34 33  0     1  0  0  0  0  0999 V2000
   -4.2330   -2.0588    1.4126 H   0  0  0  0  0  0  0  0  0  0  0  0
   -4.0857   -1.0901    0.9266 C   0  0  0  0  0  0  0  0  0  0  0  0
   -4.7534   -0.3607    1.3920 H   0  0  0  0  0  0  0  0  0  0  0  0
   -4.3420   -1.1859   -0.1311 H   0  0  0  0  0  0  0  0  0  0  0  0
   -2.6439   -0.6422    1.0772 C   0  0  0  0  0  0  0  0  0  0  0  0
   -1.8937   -1.2814    1.7936 O   0  0  0  0  0  0  0  0  0  0  0  0
   -2.2499    0.5556    0.5119 N   0  0  0  0  0  0  0  0  0  0  0  0
   -3.0089    1.1122    0.1246 H   0  0  0  0  0  0  0  0  0  0  0  0
   -0.8992    1.1664    0.4865 C   0  0  1  0  0  0  0  0  0  0  0  0
   -0.5847    1.3599    1.5186 H   0  0  0  0  0  0  0  0  0  0  0  0
    0.2393    0.4040   -0.2569 C   0  0  0  0  0  0  0  0  0  0  0  0
   -0.0904    0.2053   -1.2821 H   0  0  0  0  0  0  0  0  0  0  0  0
    1.1082    1.0701   -0.3160 H   0  0  0  0  0  0  0  0  0  0  0  0
    0.7158   -0.9166    0.3620 C   0  0  0  0  0  0  0  0  0  0  0  0
    1.0198   -0.7502    1.4017 H   0  0  0  0  0  0  0  0  0  0  0  0
   -0.0983   -1.6402    0.3452 H   0  0  0  0  0  0  0  0  0  0  0  0
    1.8541   -1.5426   -0.4494 C   0  0  0  0  0  0  0  0  0  0  0  0
    1.5207   -1.7177   -1.4782 H   0  0  0  0  0  0  0  0  0  0  0  0
    2.7066   -0.8548   -0.4783 H   0  0  0  0  0  0  0  0  0  0  0  0
    2.2615   -2.8609    0.2063 C   0  0  0  0  0  0  0  0  0  0  0  0
    2.5843   -2.6631    1.2393 H   0  0  0  0  0  0  0  0  0  0  0  0
    1.3818   -3.5189    0.2663 H   0  0  0  0  0  0  0  0  0  0  0  0
    3.3449   -3.4896   -0.5799 N   0  3  0  0  0  0  0  0  0  0  0  0
    4.1502   -2.8623   -0.6267 H   0  0  0  0  0  0  0  0  0  0  0  0
    3.6331   -4.3662   -0.1398 H   0  0  0  0  0  0  0  0  0  0  0  0
    3.0204   -3.6853   -1.5283 H   0  0  0  0  0  0  0  0  0  0  0  0
   -0.9771    2.5162   -0.2590 C   0  0  0  0  0  0  0  0  0  0  0  0
   -0.3705    3.4813    0.1770 O   0  0  0  0  0  0  0  0  0  0  0  0
   -1.6733    2.6336   -1.4506 N   0  0  0  0  0  0  0  0  0  0  0  0
   -2.0825    1.7922   -1.8447 H   0  0  0  0  0  0  0  0  0  0  0  0
   -1.7390    3.8762   -2.2145 C   0  0  0  0  0  0  0  0  0  0  0  0
   -0.7369    4.1909   -2.5251 H   0  0  0  0  0  0  0  0  0  0  0  0
   -2.3516    3.7402   -3.1112 H   0  0  0  0  0  0  0  0  0  0  0  0
   -2.1855    4.6742   -1.6112 H   0  0  0  0  0  0  0  0  0  0  0  0
  1  2  1  0  0  0  0
  2  3  1  0  0  0  0
  2  4  1  0  0  0  0
  2  5  1  0  0  0  0
  5  6  2  0  0  0  0
  5  7  1  0  0  0  0
  7  8  1  0  0  0  0
  7  9  1  0  0  0  0
  9 10  1  0  0  0  0
  9 11  1  0  0  0  0
  9 27  1  0  0  0  0
 11 12  1  0  0  0  0
 11 13  1  0  0  0  0
 11 14  1  0  0  0  0
 14 15  1  0  0  0  0
 14 16  1  0  0  0  0
 14 17  1  0  0  0  0
 17 18  1  0  0  0  0
 17 19  1  0  0  0  0
 17 20  1  0  0  0  0
 20 21  1  0  0  0  0
 20 22  1  0  0  0  0
 20 23  1  0  0  0  0
 23 24  1  0  0  0  0
 23 25  1  0  0  0  0
 23 26  1  0  0  0  0
 27 28  2  0  0  0  0
 27 29  1  0  0  0  0
 29 30  1  0  0  0  0
 29 31  1  0  0  0  0
 31 32  1  0  0  0  0
 31 33  1  0  0  0  0
 31 34  1  0  0  0  0
M  CHG  1  23   1
M  END
$$$$

  -OEChem-01062216093D

 34 33  0     1  0  0  0  0  0999 V2000
   -4.2177   -2.0978    1.4386 H   0  0  0  0  0  0  0  0  0  0  0  0
   -4.0816   -1.1289    0.9496 C   0  0  0  0  0  0  0  0  0  0  0  0
   -4.7590   -0.4061    1.4117 H   0  0  0  0  0  0  0  0  0  0  0  0
   -4.3355   -1.2317   -0.1081 H   0  0  0  0  0  0  0  0  0  0  0  0
   -2.6457   -0.6631    1.0999 C   0  0  0  0  0  0  0  0  0  0  0  0
   -1.8905   -1.2870    1.8242 O   0  0  0  0  0  0  0  0  0  0  0  0
   -2.2655    0.5355    0.5268 N   0  0  0  0  0  0  0  0  0  0  0  0
   -3.0358    1.0951    0.1689 H   0  0  0  0  0  0  0  0  0  0  0  0
   -0.9212    1.1629    0.5034 C   0  0  1  0  0  0  0  0  0  0  0  0
   -0.6074    1.3604    1.5348 H   0  0  0  0  0  0  0  0  0  0  0  0
    0.2165    0.3993   -0.2426 C   0  0  0  0  0  0  0  0  0  0  0  0
   -0.1194    0.1999   -1.2658 H   0  0  0  0  0  0  0  0  0  0  0  0
    1.0858    1.0642   -0.3084 H   0  0  0  0  0  0  0  0  0  0  0  0
    0.7028   -0.9189    0.3735 C   0  0  0  0  0  0  0  0  0  0  0  0
    1.0145   -0.7504    1.4107 H   0  0  0  0  0  0  0  0  0  0  0  0
   -0.1068   -1.6477    0.3627 H   0  0  0  0  0  0  0  0  0  0  0  0
    1.8381   -1.5364   -0.4481 C   0  0  0  0  0  0  0  0  0  0  0  0
    1.4968   -1.7113   -1.4743 H   0  0  0  0  0  0  0  0  0  0  0  0
    2.6856   -0.8429   -0.4823 H   0  0  0  0  0  0  0  0  0  0  0  0
    2.2611   -2.8534    0.1997 C   0  0  0  0  0  0  0  0  0  0  0  0
    2.5932   -2.6561    1.2299 H   0  0  0  0  0  0  0  0  0  0  0  0
    1.3873   -3.5186    0.2665 H   0  0  0  0  0  0  0  0  0  0  0  0
    3.3416   -3.4695   -0.6002 N   0  3  0  0  0  0  0  0  0  0  0  0
    4.1404   -2.8345   -0.6534 H   0  0  0  0  0  0  0  0  0  0  0  0
    3.6424   -4.3451   -0.1666 H   0  0  0  0  0  0  0  0  0  0  0  0
    3.0083   -3.6643   -1.5458 H   0  0  0  0  0  0  0  0  0  0  0  0
   -0.9907    2.5111   -0.2505 C   0  0  0  0  0  0  0  0  0  0  0  0
   -0.2104    3.4034    0.0438 O   0  0  0  0  0  0  0  0  0  0  0  0
   -1.9033    2.7213   -1.2716 N   0  0  0  0  0  0  0  0  0  0  0  0
   -2.4163    1.9162   -1.6155 H   0  0  0  0  0  0  0  0  0  0  0  0
   -1.9657    3.9668   -2.0313 C   0  0  0  0  0  0  0  0  0  0  0  0
   -1.0240    4.1413   -2.5627 H   0  0  0  0  0  0  0  0  0  0  0  0
   -2.7755    3.9247   -2.7663 H   0  0  0  0  0  0  0  0  0  0  0  0
   -2.1533    4.8147   -1.3631 H   0  0  0  0  0  0  0  0  0  0  0  0
  1  2  1  0  0  0  0
  2  3  1  0  0  0  0
  2  4  1  0  0  0  0
  2  5  1  0  0  0  0
  5  6  2  0  0  0  0
  5  7  1  0  0  0  0
  7  8  1  0  0  0  0
  7  9  1  0  0  0  0
  9 10  1  0  0  0  0
  9 11  1  0  0  0  0
  9 27  1  0  0  0  0
 11 12  1  0  0  0  0
 11 13  1  0  0  0  0
 11 14  1  0  0  0  0
 14 15  1  0  0  0  0
 14 16  1  0  0  0  0
 14 17  1  0  0  0  0
 17 18  1  0  0  0  0
 17 19  1  0  0  0  0
 17 20  1  0  0  0  0
 20 21  1  0  0  0  0
 20 22  1  0  0  0  0
 20 23  1  0  0  0  0
 23 24  1  0  0  0  0
 23 25  1  0  0  0  0
 23 26  1  0  0  0  0
 27 28  2  0  0  0  0
 27 29  1  0  0  0  0
 29 30  1  0  0  0  0
 29 31  1  0  0  0  0
 31 32  1  0  0  0  0
 31 33  1  0  0  0  0
 31 34  1  0  0  0  0
M  CHG  1  23   1
M  END
$$$$

  -OEChem-01062216093D

 34 33  0     1  0  0  0  0  0999 V2000
   -4.1737   -2.1487    1.4673 H   0  0  0  0  0  0  0  0  0  0  0  0
   -4.0549   -1.1855    0.9627 C   0  0  0  0  0  0  0  0  0  0  0  0
   -4.7559   -0.4717    1.4027 H   0  0  0  0  0  0  0  0  0  0  0  0
   -4.2908   -1.3135   -0.0963 H   0  0  0  0  0  0  0  0  0  0  0  0
   -2.6326   -0.6828    1.1233 C   0  0  0  0  0  0  0  0  0  0  0  0
   -1.8751   -1.2744    1.8720 O   0  0  0  0  0  0  0  0  0  0  0  0
   -2.2728    0.5175    0.5399 N   0  0  0  0  0  0  0  0  0  0  0  0
   -3.0535    1.0599    0.1819 H   0  0  0  0  0  0  0  0  0  0  0  0
   -0.9372    1.1660    0.5193 C   0  0  1  0  0  0  0  0  0  0  0  0
   -0.6244    1.3696    1.5496 H   0  0  0  0  0  0  0  0  0  0  0  0
    0.1972    0.3936   -0.2282 C   0  0  0  0  0  0  0  0  0  0  0  0
   -0.1454    0.1913   -1.2486 H   0  0  0  0  0  0  0  0  0  0  0  0
    1.0705    1.0521   -0.3024 H   0  0  0  0  0  0  0  0  0  0  0  0
    0.6911   -0.9219    0.3881 C   0  0  0  0  0  0  0  0  0  0  0  0
    1.0111   -0.7511    1.4222 H   0  0  0  0  0  0  0  0  0  0  0  0
   -0.1157   -1.6539    0.3842 H   0  0  0  0  0  0  0  0  0  0  0  0
    1.8198   -1.5359   -0.4444 C   0  0  0  0  0  0  0  0  0  0  0  0
    1.4679   -1.7124   -1.4669 H   0  0  0  0  0  0  0  0  0  0  0  0
    2.6642   -0.8390   -0.4884 H   0  0  0  0  0  0  0  0  0  0  0  0
    2.2552   -2.8507    0.1984 C   0  0  0  0  0  0  0  0  0  0  0  0
    2.5986   -2.6520    1.2245 H   0  0  0  0  0  0  0  0  0  0  0  0
    1.3862   -3.5210    0.2748 H   0  0  0  0  0  0  0  0  0  0  0  0
    3.3291   -3.4583   -0.6161 N   0  3  0  0  0  0  0  0  0  0  0  0
    4.1201   -2.8149   -0.6838 H   0  0  0  0  0  0  0  0  0  0  0  0
    3.6458   -4.3293   -0.1847 H   0  0  0  0  0  0  0  0  0  0  0  0
    2.9831   -3.6593   -1.5559 H   0  0  0  0  0  0  0  0  0  0  0  0
   -1.0003    2.5137   -0.2449 C   0  0  0  0  0  0  0  0  0  0  0  0
   -0.1006    3.3276   -0.0964 O   0  0  0  0  0  0  0  0  0  0  0  0
   -2.0701    2.8473   -1.0612 N   0  0  0  0  0  0  0  0  0  0  0  0
   -2.7002    2.1022   -1.3353 H   0  0  0  0  0  0  0  0  0  0  0  0
   -2.1399    4.1115   -1.7895 C   0  0  0  0  0  0  0  0  0  0  0  0
   -1.3153    4.1892   -2.5061 H   0  0  0  0  0  0  0  0  0  0  0  0
   -3.0843    4.1833   -2.3382 H   0  0  0  0  0  0  0  0  0  0  0  0
   -2.0818    4.9579   -1.0963 H   0  0  0  0  0  0  0  0  0  0  0  0
  1  2  1  0  0  0  0
  2  3  1  0  0  0  0
  2  4  1  0  0  0  0
  2  5  1  0  0  0  0
  5  6  2  0  0  0  0
  5  7  1  0  0  0  0
  7  8  1  0  0  0  0
  7  9  1  0  0  0  0
  9 10  1  0  0  0  0
  9 11  1  0  0  0  0
  9 27  1  0  0  0  0
 11 12  1  0  0  0  0
 11 13  1  0  0  0  0
 11 14  1  0  0  0  0
 14 15  1  0  0  0  0
 14 16  1  0  0  0  0
 14 17  1  0  0  0  0
 17 18  1  0  0  0  0
 17 19  1  0  0  0  0
 17 20  1  0  0  0  0
 20 21  1  0  0  0  0
 20 22  1  0  0  0  0
 20 23  1  0  0  0  0
 23 24  1  0  0  0  0
 23 25  1  0  0  0  0
 23 26  1  0  0  0  0
 27 28  2  0  0  0  0
 27 29  1  0  0  0  0
 29 30  1  0  0  0  0
 29 31  1  0  0  0  0
 31 32  1  0  0  0  0
 31 33  1  0  0  0  0
 31 34  1  0  0  0  0
M  CHG  1  23   1
M  END
$$$$

  -OEChem-01062216093D

 34 33  0     1  0  0  0  0  0999 V2000
   -3.9029   -2.2806    1.3780 H   0  0  0  0  0  0  0  0  0  0  0  0
   -3.8399   -1.3323    0.8364 C   0  0  0  0  0  0  0  0  0  0  0  0
   -4.6934   -0.7107    1.1190 H   0  0  0  0  0  0  0  0  0  0  0  0
   -3.8857   -1.5372   -0.2357 H   0  0  0  0  0  0  0  0  0  0  0  0
   -2.5456   -0.6195    1.1800 C   0  0  0  0  0  0  0  0  0  0  0  0
   -1.8324   -1.0574    2.0668 O   0  0  0  0  0  0  0  0  0  0  0  0
   -2.2471    0.5844    0.5732 N   0  0  0  0  0  0  0  0  0  0  0  0
   -2.8914    0.8260   -0.1740 H   0  0  0  0  0  0  0  0  0  0  0  0
   -0.9100    1.2259    0.5016 C   0  0  1  0  0  0  0  0  0  0  0  0
   -0.5655    1.4392    1.5194 H   0  0  0  0  0  0  0  0  0  0  0  0
    0.1869    0.4007   -0.2498 C   0  0  0  0  0  0  0  0  0  0  0  0
   -0.1879    0.1715   -1.2529 H   0  0  0  0  0  0  0  0  0  0  0  0
    1.0775    1.0272   -0.3708 H   0  0  0  0  0  0  0  0  0  0  0  0
    0.6679   -0.8996    0.4094 C   0  0  0  0  0  0  0  0  0  0  0  0
    1.0277   -0.6901    1.4231 H   0  0  0  0  0  0  0  0  0  0  0  0
   -0.1555   -1.6111    0.4705 H   0  0  0  0  0  0  0  0  0  0  0  0
    1.7587   -1.5691   -0.4321 C   0  0  0  0  0  0  0  0  0  0  0  0
    1.3729   -1.7756   -1.4364 H   0  0  0  0  0  0  0  0  0  0  0  0
    2.6143   -0.8911   -0.5281 H   0  0  0  0  0  0  0  0  0  0  0  0
    2.1916   -2.8677    0.2436 C   0  0  0  0  0  0  0  0  0  0  0  0
    2.5706   -2.6408    1.2514 H   0  0  0  0  0  0  0  0  0  0  0  0
    1.3143   -3.5193    0.3698 H   0  0  0  0  0  0  0  0  0  0  0  0
    3.2276   -3.5218   -0.5841 N   0  3  0  0  0  0  0  0  0  0  0  0
    4.0334   -2.9016   -0.6858 H   0  0  0  0  0  0  0  0  0  0  0  0
    3.5322   -4.3915   -0.1418 H   0  0  0  0  0  0  0  0  0  0  0  0
    2.8527   -3.7330   -1.5106 H   0  0  0  0  0  0  0  0  0  0  0  0
   -1.0062    2.5801   -0.2587 C   0  0  0  0  0  0  0  0  0  0  0  0
    0.0045    3.2223   -0.5101 O   0  0  0  0  0  0  0  0  0  0  0  0
   -2.2137    3.0421   -0.7600 N   0  0  0  0  0  0  0  0  0  0  0  0
   -3.0503    2.6770   -0.3171 H   0  0  0  0  0  0  0  0  0  0  0  0
   -2.3273    4.3164   -1.4657 C   0  0  0  0  0  0  0  0  0  0  0  0
   -1.6708    4.3313   -2.3426 H   0  0  0  0  0  0  0  0  0  0  0  0
   -3.3556    4.4718   -1.8068 H   0  0  0  0  0  0  0  0  0  0  0  0
   -2.0504    5.1470   -0.8074 H   0  0  0  0  0  0  0  0  0  0  0  0
  1  2  1  0  0  0  0
  2  3  1  0  0  0  0
  2  4  1  0  0  0  0
  2  5  1  0  0  0  0
  5  6  2  0  0  0  0
  5  7  1  0  0  0  0
  7  8  1  0  0  0  0
  7  9  1  0  0  0  0
  9 10  1  0  0  0  0
  9 11  1  0  0  0  0
  9 27  1  0  0  0  0
 11 12  1  0  0  0  0
 11 13  1  0  0  0  0
 11 14  1  0  0  0  0
 14 15  1  0  0  0  0
 14 16  1  0  0  0  0
 14 17  1  0  0  0  0
 17 18  1  0  0  0  0
 17 19  1  0  0  0  0
 17 20  1  0  0  0  0
 20 21  1  0  0  0  0
 20 22  1  0  0  0  0
 20 23  1  0  0  0  0
 23 24  1  0  0  0  0
 23 25  1  0  0  0  0
 23 26  1  0  0  0  0
 27 28  2  0  0  0  0
 27 29  1  0  0  0  0
 29 30  1  0  0  0  0
 29 31  1  0  0  0  0
 31 32  1  0  0  0  0
 31 33  1  0  0  0  0
 31 34  1  0  0  0  0
M  CHG  1  23   1
M  END
$$$$

  -OEChem-01062216093D

 34 33  0     1  0  0  0  0  0999 V2000
   -3.9118   -2.2656    1.3211 H   0  0  0  0  0  0  0  0  0  0  0  0
   -3.8465   -1.3007    0.8101 C   0  0  0  0  0  0  0  0  0  0  0  0
   -4.6922   -0.6823    1.1210 H   0  0  0  0  0  0  0  0  0  0  0  0
   -3.9043   -1.4701   -0.2678 H   0  0  0  0  0  0  0  0  0  0  0  0
   -2.5440   -0.6086    1.1628 C   0  0  0  0  0  0  0  0  0  0  0  0
   -1.8387   -1.0615    2.0485 O   0  0  0  0  0  0  0  0  0  0  0  0
   -2.2297    0.5966    0.5676 N   0  0  0  0  0  0  0  0  0  0  0  0
   -2.8796    0.8694   -0.1661 H   0  0  0  0  0  0  0  0  0  0  0  0
   -0.8886    1.2286    0.4996 C   0  0  1  0  0  0  0  0  0  0  0  0
   -0.5453    1.4413    1.5178 H   0  0  0  0  0  0  0  0  0  0  0  0
    0.2070    0.3957   -0.2464 C   0  0  0  0  0  0  0  0  0  0  0  0
   -0.1617    0.1714   -1.2530 H   0  0  0  0  0  0  0  0  0  0  0  0
    1.1025    1.0168   -0.3571 H   0  0  0  0  0  0  0  0  0  0  0  0
    0.6795   -0.9074    0.4142 C   0  0  0  0  0  0  0  0  0  0  0  0
    1.0372   -0.6999    1.4289 H   0  0  0  0  0  0  0  0  0  0  0  0
   -0.1470   -1.6155    0.4728 H   0  0  0  0  0  0  0  0  0  0  0  0
    1.7693   -1.5809   -0.4255 C   0  0  0  0  0  0  0  0  0  0  0  0
    1.3837   -1.7849   -1.4305 H   0  0  0  0  0  0  0  0  0  0  0  0
    2.6276   -0.9062   -0.5197 H   0  0  0  0  0  0  0  0  0  0  0  0
    2.1968   -2.8826    0.2479 C   0  0  0  0  0  0  0  0  0  0  0  0
    2.5772   -2.6583    1.2554 H   0  0  0  0  0  0  0  0  0  0  0  0
    1.3175   -3.5313    0.3738 H   0  0  0  0  0  0  0  0  0  0  0  0
    3.2316   -3.5382   -0.5806 N   0  3  0  0  0  0  0  0  0  0  0  0
    4.0382   -2.9191   -0.6833 H   0  0  0  0  0  0  0  0  0  0  0  0
    3.5356   -4.4086   -0.1389 H   0  0  0  0  0  0  0  0  0  0  0  0
    2.8554   -3.7488   -1.5068 H   0  0  0  0  0  0  0  0  0  0  0  0
   -1.0087    2.5860   -0.2554 C   0  0  0  0  0  0  0  0  0  0  0  0
   -0.0319    3.1314   -0.7512 O   0  0  0  0  0  0  0  0  0  0  0  0
   -2.2500    3.1676   -0.4607 N   0  0  0  0  0  0  0  0  0  0  0  0
   -2.9965    2.8544    0.1530 H   0  0  0  0  0  0  0  0  0  0  0  0
   -2.4133    4.4560   -1.1299 C   0  0  0  0  0  0  0  0  0  0  0  0
   -1.9868    4.4231   -2.1385 H   0  0  0  0  0  0  0  0  0  0  0  0
   -3.4749    4.7076   -1.2167 H   0  0  0  0  0  0  0  0  0  0  0  0
   -1.9132    5.2493   -0.5639 H   0  0  0  0  0  0  0  0  0  0  0  0
  1  2  1  0  0  0  0
  2  3  1  0  0  0  0
  2  4  1  0  0  0  0
  2  5  1  0  0  0  0
  5  6  2  0  0  0  0
  5  7  1  0  0  0  0
  7  8  1  0  0  0  0
  7  9  1  0  0  0  0
  9 10  1  0  0  0  0
  9 11  1  0  0  0  0
  9 27  1  0  0  0  0
 11 12  1  0  0  0  0
 11 13  1  0  0  0  0
 11 14  1  0  0  0  0
 14 15  1  0  0  0  0
 14 16  1  0  0  0  0
 14 17  1  0  0  0  0
 17 18  1  0  0  0  0
 17 19  1  0  0  0  0
 17 20  1  0  0  0  0
 20 21  1  0  0  0  0
 20 22  1  0  0  0  0
 20 23  1  0  0  0  0
 23 24  1  0  0  0  0
 23 25  1  0  0  0  0
 23 26  1  0  0  0  0
 27 28  2  0  0  0  0
 27 29  1  0  0  0  0
 29 30  1  0  0  0  0
 29 31  1  0  0  0  0
 31 32  1  0  0  0  0
 31 33  1  0  0  0  0
 31 34  1  0  0  0  0
M  CHG  1  23   1
M  END
$$$$

  -OEChem-01062216093D

 34 33  0     1  0  0  0  0  0999 V2000
   -3.9588   -2.2238    1.3112 H   0  0  0  0  0  0  0  0  0  0  0  0
   -3.8723   -1.2611    0.7995 C   0  0  0  0  0  0  0  0  0  0  0  0
   -4.7021   -0.6227    1.1128 H   0  0  0  0  0  0  0  0  0  0  0  0
   -3.9371   -1.4290   -0.2782 H   0  0  0  0  0  0  0  0  0  0  0  0
   -2.5520   -0.6004    1.1477 C   0  0  0  0  0  0  0  0  0  0  0  0
   -1.8507   -1.0732    2.0263 O   0  0  0  0  0  0  0  0  0  0  0  0
   -2.2183    0.6044    0.5628 N   0  0  0  0  0  0  0  0  0  0  0  0
   -2.8779    0.9150   -0.1481 H   0  0  0  0  0  0  0  0  0  0  0  0
   -0.8726    1.2252    0.5015 C   0  0  1  0  0  0  0  0  0  0  0  0
   -0.5312    1.4350    1.5206 H   0  0  0  0  0  0  0  0  0  0  0  0
    0.2245    0.3901   -0.2383 C   0  0  0  0  0  0  0  0  0  0  0  0
   -0.1389    0.1687   -1.2477 H   0  0  0  0  0  0  0  0  0  0  0  0
    1.1206    1.0120   -0.3414 H   0  0  0  0  0  0  0  0  0  0  0  0
    0.6893   -0.9165    0.4208 C   0  0  0  0  0  0  0  0  0  0  0  0
    1.0428   -0.7148    1.4384 H   0  0  0  0  0  0  0  0  0  0  0  0
   -0.1394   -1.6228    0.4727 H   0  0  0  0  0  0  0  0  0  0  0  0
    1.7820   -1.5866   -0.4180 C   0  0  0  0  0  0  0  0  0  0  0  0
    1.3996   -1.7841   -1.4255 H   0  0  0  0  0  0  0  0  0  0  0  0
    2.6408   -0.9118   -0.5059 H   0  0  0  0  0  0  0  0  0  0  0  0
    2.2073   -2.8932    0.2471 C   0  0  0  0  0  0  0  0  0  0  0  0
    2.5839   -2.6778    1.2581 H   0  0  0  0  0  0  0  0  0  0  0  0
    1.3271   -3.5429    0.3631 H   0  0  0  0  0  0  0  0  0  0  0  0
    3.2444   -3.5410   -0.5842 N   0  3  0  0  0  0  0  0  0  0  0  0
    4.0521   -2.9218   -0.6766 H   0  0  0  0  0  0  0  0  0  0  0  0
    3.5453   -4.4167   -0.1514 H   0  0  0  0  0  0  0  0  0  0  0  0
    2.8718   -3.7405   -1.5142 H   0  0  0  0  0  0  0  0  0  0  0  0
   -1.0070    2.5835   -0.2489 C   0  0  0  0  0  0  0  0  0  0  0  0
   -0.1223    3.0223   -0.9720 O   0  0  0  0  0  0  0  0  0  0  0  0
   -2.1935    3.2942   -0.1701 N   0  0  0  0  0  0  0  0  0  0  0  0
   -2.8435    3.0137    0.5596 H   0  0  0  0  0  0  0  0  0  0  0  0
   -2.3862    4.5949   -0.8064 C   0  0  0  0  0  0  0  0  0  0  0  0
   -2.2234    4.5228   -1.8873 H   0  0  0  0  0  0  0  0  0  0  0  0
   -3.4067    4.9529   -0.6380 H   0  0  0  0  0  0  0  0  0  0  0  0
   -1.6882    5.3320   -0.3949 H   0  0  0  0  0  0  0  0  0  0  0  0
  1  2  1  0  0  0  0
  2  3  1  0  0  0  0
  2  4  1  0  0  0  0
  2  5  1  0  0  0  0
  5  6  2  0  0  0  0
  5  7  1  0  0  0  0
  7  8  1  0  0  0  0
  7  9  1  0  0  0  0
  9 10  1  0  0  0  0
  9 11  1  0  0  0  0
  9 27  1  0  0  0  0
 11 12  1  0  0  0  0
 11 13  1  0  0  0  0
 11 14  1  0  0  0  0
 14 15  1  0  0  0  0
 14 16  1  0  0  0  0
 14 17  1  0  0  0  0
 17 18  1  0  0  0  0
 17 19  1  0  0  0  0
 17 20  1  0  0  0  0
 20 21  1  0  0  0  0
 20 22  1  0  0  0  0
 20 23  1  0  0  0  0
 23 24  1  0  0  0  0
 23 25  1  0  0  0  0
 23 26  1  0  0  0  0
 27 28  2  0  0  0  0
 27 29  1  0  0  0  0
 29 30  1  0  0  0  0
 29 31  1  0  0  0  0
 31 32  1  0  0  0  0
 31 33  1  0  0  0  0
 31 34  1  0  0  0  0
M  CHG  1  23   1
M  END
$$$$

  -OEChem-01062216093D

 34 33  0     1  0  0  0  0  0999 V2000
   -3.9809   -2.2086    1.2898 H   0  0  0  0  0  0  0  0  0  0  0  0
   -3.8914   -1.2369    0.7955 C   0  0  0  0  0  0  0  0  0  0  0  0
   -4.7108   -0.5962    1.1311 H   0  0  0  0  0  0  0  0  0  0  0  0
   -3.9722   -1.3842   -0.2842 H   0  0  0  0  0  0  0  0  0  0  0  0
   -2.5597   -0.5962    1.1382 C   0  0  0  0  0  0  0  0  0  0  0  0
   -1.8584   -1.0861    2.0076 O   0  0  0  0  0  0  0  0  0  0  0  0
   -2.2134    0.6094    0.5625 N   0  0  0  0  0  0  0  0  0  0  0  0
   -2.8801    0.9495   -0.1283 H   0  0  0  0  0  0  0  0  0  0  0  0
   -0.8651    1.2220    0.5115 C   0  0  1  0  0  0  0  0  0  0  0  0
   -0.5264    1.4280    1.5322 H   0  0  0  0  0  0  0  0  0  0  0  0
    0.2348    0.3906   -0.2260 C   0  0  0  0  0  0  0  0  0  0  0  0
   -0.1224    0.1737   -1.2388 H   0  0  0  0  0  0  0  0  0  0  0  0
    1.1281    1.0187   -0.3199 H   0  0  0  0  0  0  0  0  0  0  0  0
    0.6944   -0.9216    0.4247 C   0  0  0  0  0  0  0  0  0  0  0  0
    1.0419   -0.7295    1.4460 H   0  0  0  0  0  0  0  0  0  0  0  0
   -0.1359   -1.6269    0.4645 H   0  0  0  0  0  0  0  0  0  0  0  0
    1.7912   -1.5851   -0.4142 C   0  0  0  0  0  0  0  0  0  0  0  0
    1.4143   -1.7732   -1.4257 H   0  0  0  0  0  0  0  0  0  0  0  0
    2.6513   -0.9107   -0.4911 H   0  0  0  0  0  0  0  0  0  0  0  0
    2.2111   -2.8974    0.2424 C   0  0  0  0  0  0  0  0  0  0  0  0
    2.5820   -2.6901    1.2571 H   0  0  0  0  0  0  0  0  0  0  0  0
    1.3296   -3.5469    0.3484 H   0  0  0  0  0  0  0  0  0  0  0  0
    3.2522   -3.5399   -0.5880 N   0  3  0  0  0  0  0  0  0  0  0  0
    4.0617   -2.9218   -0.6706 H   0  0  0  0  0  0  0  0  0  0  0  0
    3.5482   -4.4201   -0.1611 H   0  0  0  0  0  0  0  0  0  0  0  0
    2.8843   -3.7304   -1.5218 H   0  0  0  0  0  0  0  0  0  0  0  0
   -1.0026    2.5807   -0.2333 C   0  0  0  0  0  0  0  0  0  0  0  0
   -0.2643    2.9086   -1.1534 O   0  0  0  0  0  0  0  0  0  0  0  0
   -2.0508    3.4231    0.0940 N   0  0  0  0  0  0  0  0  0  0  0  0
   -2.5966    3.1837    0.9180 H   0  0  0  0  0  0  0  0  0  0  0  0
   -2.2514    4.7309   -0.5242 C   0  0  0  0  0  0  0  0  0  0  0  0
   -2.3750    4.6292   -1.6078 H   0  0  0  0  0  0  0  0  0  0  0  0
   -3.1492    5.2089   -0.1200 H   0  0  0  0  0  0  0  0  0  0  0  0
   -1.3940    5.3839   -0.3287 H   0  0  0  0  0  0  0  0  0  0  0  0
  1  2  1  0  0  0  0
  2  3  1  0  0  0  0
  2  4  1  0  0  0  0
  2  5  1  0  0  0  0
  5  6  2  0  0  0  0
  5  7  1  0  0  0  0
  7  8  1  0  0  0  0
  7  9  1  0  0  0  0
  9 10  1  0  0  0  0
  9 11  1  0  0  0  0
  9 27  1  0  0  0  0
 11 12  1  0  0  0  0
 11 13  1  0  0  0  0
 11 14  1  0  0  0  0
 14 15  1  0  0  0  0
 14 16  1  0  0  0  0
 14 17  1  0  0  0  0
 17 18  1  0  0  0  0
 17 19  1  0  0  0  0
 17 20  1  0  0  0  0
 20 21  1  0  0  0  0
 20 22  1  0  0  0  0
 20 23  1  0  0  0  0
 23 24  1  0  0  0  0
 23 25  1  0  0  0  0
 23 26  1  0  0  0  0
 27 28  2  0  0  0  0
 27 29  1  0  0  0  0
 29 30  1  0  0  0  0
 29 31  1  0  0  0  0
 31 32  1  0  0  0  0
 31 33  1  0  0  0  0
 31 34  1  0  0  0  0
M  CHG  1  23   1
M  END
$$$$

  -OEChem-01062216093D

 34 33  0     1  0  0  0  0  0999 V2000
   -3.9842   -2.2049    1.2614 H   0  0  0  0  0  0  0  0  0  0  0  0
   -3.8952   -1.2242    0.7853 C   0  0  0  0  0  0  0  0  0  0  0  0
   -4.7112   -0.5880    1.1373 H   0  0  0  0  0  0  0  0  0  0  0  0
   -3.9820   -1.3505   -0.2965 H   0  0  0  0  0  0  0  0  0  0  0  0
   -2.5606   -0.5931    1.1336 C   0  0  0  0  0  0  0  0  0  0  0  0
   -1.8633   -1.0917    2.0014 O   0  0  0  0  0  0  0  0  0  0  0  0
   -2.2073    0.6147    0.5674 N   0  0  0  0  0  0  0  0  0  0  0  0
   -2.8718    0.9656   -0.1204 H   0  0  0  0  0  0  0  0  0  0  0  0
   -0.8578    1.2214    0.5249 C   0  0  1  0  0  0  0  0  0  0  0  0
   -0.5202    1.4161    1.5483 H   0  0  0  0  0  0  0  0  0  0  0  0
    0.2424    0.3953   -0.2149 C   0  0  0  0  0  0  0  0  0  0  0  0
   -0.1176    0.1784   -1.2268 H   0  0  0  0  0  0  0  0  0  0  0  0
    1.1319    1.0285   -0.3117 H   0  0  0  0  0  0  0  0  0  0  0  0
    0.6958   -0.9220    0.4289 C   0  0  0  0  0  0  0  0  0  0  0  0
    1.0401   -0.7368    1.4527 H   0  0  0  0  0  0  0  0  0  0  0  0
   -0.1364   -1.6254    0.4622 H   0  0  0  0  0  0  0  0  0  0  0  0
    1.7940   -1.5820   -0.4096 C   0  0  0  0  0  0  0  0  0  0  0  0
    1.4202   -1.7614   -1.4238 H   0  0  0  0  0  0  0  0  0  0  0  0
    2.6560   -0.9092   -0.4779 H   0  0  0  0  0  0  0  0  0  0  0  0
    2.2075   -2.8994    0.2398 C   0  0  0  0  0  0  0  0  0  0  0  0
    2.5754   -2.7003    1.2572 H   0  0  0  0  0  0  0  0  0  0  0  0
    1.3238   -3.5473    0.3379 H   0  0  0  0  0  0  0  0  0  0  0  0
    3.2503   -3.5380   -0.5912 N   0  3  0  0  0  0  0  0  0  0  0  0
    4.0632   -2.9229   -0.6629 H   0  0  0  0  0  0  0  0  0  0  0  0
    3.5398   -4.4240   -0.1716 H   0  0  0  0  0  0  0  0  0  0  0  0
    2.8868   -3.7174   -1.5290 H   0  0  0  0  0  0  0  0  0  0  0  0
   -0.9894    2.5827   -0.2100 C   0  0  0  0  0  0  0  0  0  0  0  0
   -0.4444    2.8079   -1.2833 O   0  0  0  0  0  0  0  0  0  0  0  0
   -1.8248    3.5489    0.3197 N   0  0  0  0  0  0  0  0  0  0  0  0
   -2.2603    3.3516    1.2174 H   0  0  0  0  0  0  0  0  0  0  0  0
   -2.0364    4.8558   -0.2953 C   0  0  0  0  0  0  0  0  0  0  0  0
   -2.4505    4.7434   -1.3029 H   0  0  0  0  0  0  0  0  0  0  0  0
   -2.7377    5.4474    0.3015 H   0  0  0  0  0  0  0  0  0  0  0  0
   -1.0917    5.4058   -0.3638 H   0  0  0  0  0  0  0  0  0  0  0  0
  1  2  1  0  0  0  0
  2  3  1  0  0  0  0
  2  4  1  0  0  0  0
  2  5  1  0  0  0  0
  5  6  2  0  0  0  0
  5  7  1  0  0  0  0
  7  8  1  0  0  0  0
  7  9  1  0  0  0  0
  9 10  1  0  0  0  0
  9 11  1  0  0  0  0
  9 27  1  0  0  0  0
 11 12  1  0  0  0  0
 11 13  1  0  0  0  0
 11 14  1  0  0  0  0
 14 15  1  0  0  0  0
 14 16  1  0  0  0  0
 14 17  1  0  0  0  0
 17 18  1  0  0  0  0
 17 19  1  0  0  0  0
 17 20  1  0  0  0  0
 20 21  1  0  0  0  0
 20 22  1  0  0  0  0
 20 23  1  0  0  0  0
 23 24  1  0  0  0  0
 23 25  1  0  0  0  0
 23 26  1  0  0  0  0
 27 28  2  0  0  0  0
 27 29  1  0  0  0  0
 29 30  1  0  0  0  0
 29 31  1  0  0  0  0
 31 32  1  0  0  0  0
 31 33  1  0  0  0  0
 31 34  1  0  0  0  0
M  CHG  1  23   1
M  END
$$$$

  -OEChem-01062216093D

 34 33  0     1  0  0  0  0  0999 V2000
   -4.0115   -2.1843    1.2693 H   0  0  0  0  0  0  0  0  0  0  0  0
   -3.9058   -1.2118    0.7802 C   0  0  0  0  0  0  0  0  0  0  0  0
   -4.7164   -0.5605    1.1166 H   0  0  0  0  0  0  0  0  0  0  0  0
   -3.9858   -1.3520   -0.3004 H   0  0  0  0  0  0  0  0  0  0  0  0
   -2.5659   -0.5929    1.1305 C   0  0  0  0  0  0  0  0  0  0  0  0
   -1.8699   -1.1029    1.9931 O   0  0  0  0  0  0  0  0  0  0  0  0
   -2.2044    0.6164    0.5730 N   0  0  0  0  0  0  0  0  0  0  0  0
   -2.8626    0.9756   -0.1169 H   0  0  0  0  0  0  0  0  0  0  0  0
   -0.8541    1.2187    0.5449 C   0  0  1  0  0  0  0  0  0  0  0  0
   -0.5210    1.4017    1.5717 H   0  0  0  0  0  0  0  0  0  0  0  0
    0.2501    0.4023   -0.1990 C   0  0  0  0  0  0  0  0  0  0  0  0
   -0.1051    0.1920   -1.2141 H   0  0  0  0  0  0  0  0  0  0  0  0
    1.1368    1.0405   -0.2881 H   0  0  0  0  0  0  0  0  0  0  0  0
    0.6974   -0.9236    0.4314 C   0  0  0  0  0  0  0  0  0  0  0  0
    1.0340   -0.7522    1.4600 H   0  0  0  0  0  0  0  0  0  0  0  0
   -0.1375   -1.6248    0.4497 H   0  0  0  0  0  0  0  0  0  0  0  0
    1.8008   -1.5765   -0.4062 C   0  0  0  0  0  0  0  0  0  0  0  0
    1.4348   -1.7440   -1.4253 H   0  0  0  0  0  0  0  0  0  0  0  0
    2.6651   -0.9056   -0.4603 H   0  0  0  0  0  0  0  0  0  0  0  0
    2.2059   -2.9023    0.2319 C   0  0  0  0  0  0  0  0  0  0  0  0
    2.5648   -2.7164    1.2551 H   0  0  0  0  0  0  0  0  0  0  0  0
    1.3196   -3.5489    0.3138 H   0  0  0  0  0  0  0  0  0  0  0  0
    3.2540   -3.5354   -0.5968 N   0  3  0  0  0  0  0  0  0  0  0  0
    4.0718   -2.9251   -0.6499 H   0  0  0  0  0  0  0  0  0  0  0  0
    3.5328   -4.4296   -0.1876 H   0  0  0  0  0  0  0  0  0  0  0  0
    2.9002   -3.6981   -1.5413 H   0  0  0  0  0  0  0  0  0  0  0  0
   -0.9735    2.5823   -0.1835 C   0  0  0  0  0  0  0  0  0  0  0  0
   -0.6629    2.7180   -1.3602 O   0  0  0  0  0  0  0  0  0  0  0  0
   -1.5441    3.6533    0.4785 N   0  0  0  0  0  0  0  0  0  0  0  0
   -1.8436    3.5088    1.4395 H   0  0  0  0  0  0  0  0  0  0  0  0
   -1.7578    4.9594   -0.1376 C   0  0  0  0  0  0  0  0  0  0  0  0
   -2.4359    4.8741   -0.9934 H   0  0  0  0  0  0  0  0  0  0  0  0
   -2.1993    5.6528    0.5851 H   0  0  0  0  0  0  0  0  0  0  0  0
   -0.8079    5.3814   -0.4832 H   0  0  0  0  0  0  0  0  0  0  0  0
  1  2  1  0  0  0  0
  2  3  1  0  0  0  0
  2  4  1  0  0  0  0
  2  5  1  0  0  0  0
  5  6  2  0  0  0  0
  5  7  1  0  0  0  0
  7  8  1  0  0  0  0
  7  9  1  0  0  0  0
  9 10  1  0  0  0  0
  9 11  1  0  0  0  0
  9 27  1  0  0  0  0
 11 12  1  0  0  0  0
 11 13  1  0  0  0  0
 11 14  1  0  0  0  0
 14 15  1  0  0  0  0
 14 16  1  0  0  0  0
 14 17  1  0  0  0  0
 17 18  1  0  0  0  0
 17 19  1  0  0  0  0
 17 20  1  0  0  0  0
 20 21  1  0  0  0  0
 20 22  1  0  0  0  0
 20 23  1  0  0  0  0
 23 24  1  0  0  0  0
 23 25  1  0  0  0  0
 23 26  1  0  0  0  0
 27 28  2  0  0  0  0
 27 29  1  0  0  0  0
 29 30  1  0  0  0  0
 29 31  1  0  0  0  0
 31 32  1  0  0  0  0
 31 33  1  0  0  0  0
 31 34  1  0  0  0  0
M  CHG  1  23   1
M  END
$$$$

  -OEChem-01062216093D

 34 33  0     1  0  0  0  0  0999 V2000
   -4.0094   -2.1808    1.2412 H   0  0  0  0  0  0  0  0  0  0  0  0
   -3.9031   -1.2005    0.7683 C   0  0  0  0  0  0  0  0  0  0  0  0
   -4.7162   -0.5556    1.1111 H   0  0  0  0  0  0  0  0  0  0  0  0
   -3.9778   -1.3232   -0.3148 H   0  0  0  0  0  0  0  0  0  0  0  0
   -2.5656   -0.5852    1.1341 C   0  0  0  0  0  0  0  0  0  0  0  0
   -1.8745   -1.1034    1.9963 O   0  0  0  0  0  0  0  0  0  0  0  0
   -2.1948    0.6229    0.5812 N   0  0  0  0  0  0  0  0  0  0  0  0
   -2.8419    0.9847   -0.1184 H   0  0  0  0  0  0  0  0  0  0  0  0
   -0.8434    1.2197    0.5664 C   0  0  1  0  0  0  0  0  0  0  0  0
   -0.5153    1.3922    1.5966 H   0  0  0  0  0  0  0  0  0  0  0  0
    0.2611    0.4123   -0.1835 C   0  0  0  0  0  0  0  0  0  0  0  0
   -0.0900    0.2126   -1.2023 H   0  0  0  0  0  0  0  0  0  0  0  0
    1.1484    1.0504   -0.2634 H   0  0  0  0  0  0  0  0  0  0  0  0
    0.6980   -0.9225    0.4352 C   0  0  0  0  0  0  0  0  0  0  0  0
    1.0301   -0.7631    1.4672 H   0  0  0  0  0  0  0  0  0  0  0  0
   -0.1409   -1.6193    0.4430 H   0  0  0  0  0  0  0  0  0  0  0  0
    1.8037   -1.5727   -0.4016 C   0  0  0  0  0  0  0  0  0  0  0  0
    1.4438   -1.7280   -1.4249 H   0  0  0  0  0  0  0  0  0  0  0  0
    2.6717   -0.9054   -0.4429 H   0  0  0  0  0  0  0  0  0  0  0  0
    2.1971   -2.9074    0.2261 C   0  0  0  0  0  0  0  0  0  0  0  0
    2.5494   -2.7338    1.2536 H   0  0  0  0  0  0  0  0  0  0  0  0
    1.3064   -3.5495    0.2955 H   0  0  0  0  0  0  0  0  0  0  0  0
    3.2473   -3.5388   -0.6011 N   0  3  0  0  0  0  0  0  0  0  0  0
    4.0694   -2.9336   -0.6419 H   0  0  0  0  0  0  0  0  0  0  0  0
    3.5168   -4.4391   -0.1989 H   0  0  0  0  0  0  0  0  0  0  0  0
    2.8995   -3.6896   -1.5499 H   0  0  0  0  0  0  0  0  0  0  0  0
   -0.9491    2.5822   -0.1609 C   0  0  0  0  0  0  0  0  0  0  0  0
   -0.9113    2.6482   -1.3830 O   0  0  0  0  0  0  0  0  0  0  0  0
   -1.2221    3.7286    0.5615 N   0  0  0  0  0  0  0  0  0  0  0  0
   -1.3460    3.6367    1.5664 H   0  0  0  0  0  0  0  0  0  0  0  0
   -1.4484    5.0309   -0.0580 C   0  0  0  0  0  0  0  0  0  0  0  0
   -2.3286    4.9986   -0.7088 H   0  0  0  0  0  0  0  0  0  0  0  0
   -1.6137    5.7935    0.7095 H   0  0  0  0  0  0  0  0  0  0  0  0
   -0.5802    5.3279   -0.6561 H   0  0  0  0  0  0  0  0  0  0  0  0
  1  2  1  0  0  0  0
  2  3  1  0  0  0  0
  2  4  1  0  0  0  0
  2  5  1  0  0  0  0
  5  6  2  0  0  0  0
  5  7  1  0  0  0  0
  7  8  1  0  0  0  0
  7  9  1  0  0  0  0
  9 10  1  0  0  0  0
  9 11  1  0  0  0  0
  9 27  1  0  0  0  0
 11 12  1  0  0  0  0
 11 13  1  0  0  0  0
 11 14  1  0  0  0  0
 14 15  1  0  0  0  0
 14 16  1  0  0  0  0
 14 17  1  0  0  0  0
 17 18  1  0  0  0  0
 17 19  1  0  0  0  0
 17 20  1  0  0  0  0
 20 21  1  0  0  0  0
 20 22  1  0  0  0  0
 20 23  1  0  0  0  0
 23 24  1  0  0  0  0
 23 25  1  0  0  0  0
 23 26  1  0  0  0  0
 27 28  2  0  0  0  0
 27 29  1  0  0  0  0
 29 30  1  0  0  0  0
 29 31  1  0  0  0  0
 31 32  1  0  0  0  0
 31 33  1  0  0  0  0
 31 34  1  0  0  0  0
M  CHG  1  23   1
M  END
$$$$

  -OEChem-01062216093D

 34 33  0     1  0  0  0  0  0999 V2000
   -4.0200   -2.1657    1.2407 H   0  0  0  0  0  0  0  0  0  0  0  0
   -3.9050   -1.1863    0.7676 C   0  0  0  0  0  0  0  0  0  0  0  0
   -4.7113   -0.5334    1.1118 H   0  0  0  0  0  0  0  0  0  0  0  0
   -3.9825   -1.3077   -0.3155 H   0  0  0  0  0  0  0  0  0  0  0  0
   -2.5617   -0.5830    1.1315 C   0  0  0  0  0  0  0  0  0  0  0  0
   -1.8710   -1.1098    1.9893 O   0  0  0  0  0  0  0  0  0  0  0  0
   -2.1829    0.6231    0.5802 N   0  0  0  0  0  0  0  0  0  0  0  0
   -2.8221    0.9917   -0.1241 H   0  0  0  0  0  0  0  0  0  0  0  0
   -0.8329    1.2201    0.5802 C   0  0  1  0  0  0  0  0  0  0  0  0
   -0.5123    1.3884    1.6134 H   0  0  0  0  0  0  0  0  0  0  0  0
    0.2732    0.4239   -0.1760 C   0  0  0  0  0  0  0  0  0  0  0  0
   -0.0731    0.2389   -1.1991 H   0  0  0  0  0  0  0  0  0  0  0  0
    1.1617    1.0618   -0.2439 H   0  0  0  0  0  0  0  0  0  0  0  0
    0.7021   -0.9192    0.4309 C   0  0  0  0  0  0  0  0  0  0  0  0
    1.0264   -0.7721    1.4672 H   0  0  0  0  0  0  0  0  0  0  0  0
   -0.1408   -1.6114    0.4246 H   0  0  0  0  0  0  0  0  0  0  0  0
    1.8112   -1.5689   -0.4016 C   0  0  0  0  0  0  0  0  0  0  0  0
    1.4592   -1.7147   -1.4291 H   0  0  0  0  0  0  0  0  0  0  0  0
    2.6833   -0.9064   -0.4303 H   0  0  0  0  0  0  0  0  0  0  0  0
    2.1897   -2.9107    0.2211 C   0  0  0  0  0  0  0  0  0  0  0  0
    2.5325   -2.7462    1.2534 H   0  0  0  0  0  0  0  0  0  0  0  0
    1.2935   -3.5462    0.2778 H   0  0  0  0  0  0  0  0  0  0  0  0
    3.2436   -3.5464   -0.5983 N   0  3  0  0  0  0  0  0  0  0  0  0
    4.0724   -2.9496   -0.6246 H   0  0  0  0  0  0  0  0  0  0  0  0
    3.4990   -4.4524   -0.1998 H   0  0  0  0  0  0  0  0  0  0  0  0
    2.9057   -3.6865   -1.5523 H   0  0  0  0  0  0  0  0  0  0  0  0
   -0.9322    2.5779   -0.1521 C   0  0  0  0  0  0  0  0  0  0  0  0
   -1.1471    2.6112   -1.3573 O   0  0  0  0  0  0  0  0  0  0  0  0
   -0.9051    3.7616    0.5613 N   0  0  0  0  0  0  0  0  0  0  0  0
   -0.8509    3.7021    1.5747 H   0  0  0  0  0  0  0  0  0  0  0  0
   -1.1194    5.0685   -0.0525 C   0  0  0  0  0  0  0  0  0  0  0  0
   -2.1272    5.1335   -0.4766 H   0  0  0  0  0  0  0  0  0  0  0  0
   -1.0060    5.8615    0.6934 H   0  0  0  0  0  0  0  0  0  0  0  0
   -0.3905    5.2417   -0.8515 H   0  0  0  0  0  0  0  0  0  0  0  0
  1  2  1  0  0  0  0
  2  3  1  0  0  0  0
  2  4  1  0  0  0  0
  2  5  1  0  0  0  0
  5  6  2  0  0  0  0
  5  7  1  0  0  0  0
  7  8  1  0  0  0  0
  7  9  1  0  0  0  0
  9 10  1  0  0  0  0
  9 11  1  0  0  0  0
  9 27  1  0  0  0  0
 11 12  1  0  0  0  0
 11 13  1  0  0  0  0
 11 14  1  0  0  0  0
 14 15  1  0  0  0  0
 14 16  1  0  0  0  0
 14 17  1  0  0  0  0
 17 18  1  0  0  0  0
 17 19  1  0  0  0  0
 17 20  1  0  0  0  0
 20 21  1  0  0  0  0
 20 22  1  0  0  0  0
 20 23  1  0  0  0  0
 23 24  1  0  0  0  0
 23 25  1  0  0  0  0
 23 26  1  0  0  0  0
 27 28  2  0  0  0  0
 27 29  1  0  0  0  0
 29 30  1  0  0  0  0
 29 31  1  0  0  0  0
 31 32  1  0  0  0  0
 31 33  1  0  0  0  0
 31 34  1  0  0  0  0
M  CHG  1  23   1
M  END
$$$$

  -OEChem-01062216093D

 34 33  0     1  0  0  0  0  0999 V2000
   -4.0295   -2.1577    1.2340 H   0  0  0  0  0  0  0  0  0  0  0  0
   -3.9115   -1.1747    0.7694 C   0  0  0  0  0  0  0  0  0  0  0  0
   -4.7129   -0.5204    1.1220 H   0  0  0  0  0  0  0  0  0  0  0  0
   -3.9930   -1.2856   -0.3146 H   0  0  0  0  0  0  0  0  0  0  0  0
   -2.5640   -0.5814    1.1332 C   0  0  0  0  0  0  0  0  0  0  0  0
   -1.8739   -1.1155    1.9872 O   0  0  0  0  0  0  0  0  0  0  0  0
   -2.1763    0.6205    0.5795 N   0  0  0  0  0  0  0  0  0  0  0  0
   -2.8107    0.9978   -0.1255 H   0  0  0  0  0  0  0  0  0  0  0  0
   -0.8280    1.2197    0.5921 C   0  0  1  0  0  0  0  0  0  0  0  0
   -0.5164    1.3895    1.6276 H   0  0  0  0  0  0  0  0  0  0  0  0
    0.2796    0.4313   -0.1666 C   0  0  0  0  0  0  0  0  0  0  0  0
   -0.0623    0.2585   -1.1933 H   0  0  0  0  0  0  0  0  0  0  0  0
    1.1699    1.0676   -0.2229 H   0  0  0  0  0  0  0  0  0  0  0  0
    0.7027   -0.9171    0.4321 C   0  0  0  0  0  0  0  0  0  0  0  0
    1.0217   -0.7778    1.4713 H   0  0  0  0  0  0  0  0  0  0  0  0
   -0.1427   -1.6063    0.4168 H   0  0  0  0  0  0  0  0  0  0  0  0
    1.8150   -1.5645   -0.3986 C   0  0  0  0  0  0  0  0  0  0  0  0
    1.4686   -1.7032   -1.4290 H   0  0  0  0  0  0  0  0  0  0  0  0
    2.6897   -0.9050   -0.4179 H   0  0  0  0  0  0  0  0  0  0  0  0
    2.1864   -2.9117    0.2171 C   0  0  0  0  0  0  0  0  0  0  0  0
    2.5234   -2.7555    1.2526 H   0  0  0  0  0  0  0  0  0  0  0  0
    1.2880   -3.5451    0.2640 H   0  0  0  0  0  0  0  0  0  0  0  0
    3.2433   -3.5454   -0.6004 N   0  3  0  0  0  0  0  0  0  0  0  0
    4.0743   -2.9514   -0.6175 H   0  0  0  0  0  0  0  0  0  0  0  0
    3.4931   -4.4552   -0.2069 H   0  0  0  0  0  0  0  0  0  0  0  0
    2.9109   -3.6782   -1.5574 H   0  0  0  0  0  0  0  0  0  0  0  0
   -0.9204    2.5709   -0.1511 C   0  0  0  0  0  0  0  0  0  0  0  0
   -1.3594    2.6015   -1.2942 O   0  0  0  0  0  0  0  0  0  0  0  0
   -0.6013    3.7555    0.4863 N   0  0  0  0  0  0  0  0  0  0  0  0
   -0.3584    3.7126    1.4723 H   0  0  0  0  0  0  0  0  0  0  0  0
   -0.7833    5.0653   -0.1324 C   0  0  0  0  0  0  0  0  0  0  0  0
   -1.8434    5.2500   -0.3371 H   0  0  0  0  0  0  0  0  0  0  0  0
   -0.4168    5.8535    0.5328 H   0  0  0  0  0  0  0  0  0  0  0  0
   -0.2286    5.1263   -1.0751 H   0  0  0  0  0  0  0  0  0  0  0  0
  1  2  1  0  0  0  0
  2  3  1  0  0  0  0
  2  4  1  0  0  0  0
  2  5  1  0  0  0  0
  5  6  2  0  0  0  0
  5  7  1  0  0  0  0
  7  8  1  0  0  0  0
  7  9  1  0  0  0  0
  9 10  1  0  0  0  0
  9 11  1  0  0  0  0
  9 27  1  0  0  0  0
 11 12  1  0  0  0  0
 11 13  1  0  0  0  0
 11 14  1  0  0  0  0
 14 15  1  0  0  0  0
 14 16  1  0  0  0  0
 14 17  1  0  0  0  0
 17 18  1  0  0  0  0
 17 19  1  0  0  0  0
 17 20  1  0  0  0  0
 20 21  1  0  0  0  0
 20 22  1  0  0  0  0
 20 23  1  0  0  0  0
 23 24  1  0  0  0  0
 23 25  1  0  0  0  0
 23 26  1  0  0  0  0
 27 28  2  0  0  0  0
 27 29  1  0  0  0  0
 29 30  1  0  0  0  0
 29 31  1  0  0  0  0
 31 32  1  0  0  0  0
 31 33  1  0  0  0  0
 31 34  1  0  0  0  0
M  CHG  1  23   1
M  END
$$$$

  -OEChem-01062216093D

 34 33  0     1  0  0  0  0  0999 V2000
   -4.0299   -2.1584    1.2315 H   0  0  0  0  0  0  0  0  0  0  0  0
   -3.9145   -1.1721    0.7737 C   0  0  0  0  0  0  0  0  0  0  0  0
   -4.7110   -0.5193    1.1397 H   0  0  0  0  0  0  0  0  0  0  0  0
   -4.0074   -1.2743   -0.3102 H   0  0  0  0  0  0  0  0  0  0  0  0
   -2.5626   -0.5839    1.1295 C   0  0  0  0  0  0  0  0  0  0  0  0
   -1.8701   -1.1212    1.9797 O   0  0  0  0  0  0  0  0  0  0  0  0
   -2.1723    0.6158    0.5733 N   0  0  0  0  0  0  0  0  0  0  0  0
   -2.8138    1.0088   -0.1178 H   0  0  0  0  0  0  0  0  0  0  0  0
   -0.8273    1.2227    0.5888 C   0  0  1  0  0  0  0  0  0  0  0  0
   -0.5193    1.3961    1.6249 H   0  0  0  0  0  0  0  0  0  0  0  0
    0.2808    0.4393   -0.1734 C   0  0  0  0  0  0  0  0  0  0  0  0
   -0.0631    0.2707   -1.2003 H   0  0  0  0  0  0  0  0  0  0  0  0
    1.1711    1.0755   -0.2291 H   0  0  0  0  0  0  0  0  0  0  0  0
    0.7051   -0.9095    0.4242 C   0  0  0  0  0  0  0  0  0  0  0  0
    1.0217   -0.7713    1.4642 H   0  0  0  0  0  0  0  0  0  0  0  0
   -0.1400   -1.5990    0.4070 H   0  0  0  0  0  0  0  0  0  0  0  0
    1.8180   -1.5594   -0.4034 C   0  0  0  0  0  0  0  0  0  0  0  0
    1.4739   -1.6994   -1.4343 H   0  0  0  0  0  0  0  0  0  0  0  0
    2.6939   -0.9020   -0.4222 H   0  0  0  0  0  0  0  0  0  0  0  0
    2.1834   -2.9055    0.2188 C   0  0  0  0  0  0  0  0  0  0  0  0
    2.5178   -2.7455    1.2546 H   0  0  0  0  0  0  0  0  0  0  0  0
    1.2828   -3.5359    0.2664 H   0  0  0  0  0  0  0  0  0  0  0  0
    3.2410   -3.5476   -0.5910 N   0  3  0  0  0  0  0  0  0  0  0  0
    4.0734   -2.9558   -0.6108 H   0  0  0  0  0  0  0  0  0  0  0  0
    3.4880   -4.4546   -0.1891 H   0  0  0  0  0  0  0  0  0  0  0  0
    2.9104   -3.6878   -1.5476 H   0  0  0  0  0  0  0  0  0  0  0  0
   -0.9178    2.5702   -0.1615 C   0  0  0  0  0  0  0  0  0  0  0  0
   -1.5477    2.6334   -1.2106 O   0  0  0  0  0  0  0  0  0  0  0  0
   -0.3260    3.7107    0.3493 N   0  0  0  0  0  0  0  0  0  0  0  0
    0.0920    3.6541    1.2738 H   0  0  0  0  0  0  0  0  0  0  0  0
   -0.4664    5.0231   -0.2743 C   0  0  0  0  0  0  0  0  0  0  0  0
   -1.5147    5.3405   -0.2691 H   0  0  0  0  0  0  0  0  0  0  0  0
    0.1232    5.7676    0.2697 H   0  0  0  0  0  0  0  0  0  0  0  0
   -0.1127    4.9962   -1.3106 H   0  0  0  0  0  0  0  0  0  0  0  0
  1  2  1  0  0  0  0
  2  3  1  0  0  0  0
  2  4  1  0  0  0  0
  2  5  1  0  0  0  0
  5  6  2  0  0  0  0
  5  7  1  0  0  0  0
  7  8  1  0  0  0  0
  7  9  1  0  0  0  0
  9 10  1  0  0  0  0
  9 11  1  0  0  0  0
  9 27  1  0  0  0  0
 11 12  1  0  0  0  0
 11 13  1  0  0  0  0
 11 14  1  0  0  0  0
 14 15  1  0  0  0  0
 14 16  1  0  0  0  0
 14 17  1  0  0  0  0
 17 18  1  0  0  0  0
 17 19  1  0  0  0  0
 17 20  1  0  0  0  0
 20 21  1  0  0  0  0
 20 22  1  0  0  0  0
 20 23  1  0  0  0  0
 23 24  1  0  0  0  0
 23 25  1  0  0  0  0
 23 26  1  0  0  0  0
 27 28  2  0  0  0  0
 27 29  1  0  0  0  0
 29 30  1  0  0  0  0
 29 31  1  0  0  0  0
 31 32  1  0  0  0  0
 31 33  1  0  0  0  0
 31 34  1  0  0  0  0
M  CHG  1  23   1
M  END
$$$$

  -OEChem-01062216093D

 34 33  0     1  0  0  0  0  0999 V2000
   -4.0482   -2.1499    1.2322 H   0  0  0  0  0  0  0  0  0  0  0  0
   -3.9280   -1.1615    0.7803 C   0  0  0  0  0  0  0  0  0  0  0  0
   -4.7146   -0.5040    1.1591 H   0  0  0  0  0  0  0  0  0  0  0  0
   -4.0329   -1.2549   -0.3031 H   0  0  0  0  0  0  0  0  0  0  0  0
   -2.5664   -0.5888    1.1252 C   0  0  0  0  0  0  0  0  0  0  0  0
   -1.8711   -1.1386    1.9652 O   0  0  0  0  0  0  0  0  0  0  0  0
   -2.1697    0.6082    0.5672 N   0  0  0  0  0  0  0  0  0  0  0  0
   -2.8225    1.0236   -0.1007 H   0  0  0  0  0  0  0  0  0  0  0  0
   -0.8286    1.2250    0.5870 C   0  0  1  0  0  0  0  0  0  0  0  0
   -0.5253    1.4065    1.6233 H   0  0  0  0  0  0  0  0  0  0  0  0
    0.2805    0.4415   -0.1741 C   0  0  0  0  0  0  0  0  0  0  0  0
   -0.0645    0.2723   -1.2005 H   0  0  0  0  0  0  0  0  0  0  0  0
    1.1714    1.0766   -0.2299 H   0  0  0  0  0  0  0  0  0  0  0  0
    0.7079   -0.9061    0.4238 C   0  0  0  0  0  0  0  0  0  0  0  0
    1.0241   -0.7665    1.4637 H   0  0  0  0  0  0  0  0  0  0  0  0
   -0.1352   -1.5974    0.4059 H   0  0  0  0  0  0  0  0  0  0  0  0
    1.8213   -1.5556   -0.4034 C   0  0  0  0  0  0  0  0  0  0  0  0
    1.4760   -1.6981   -1.4334 H   0  0  0  0  0  0  0  0  0  0  0  0
    2.6964   -0.8969   -0.4235 H   0  0  0  0  0  0  0  0  0  0  0  0
    2.1893   -2.9009    0.2196 C   0  0  0  0  0  0  0  0  0  0  0  0
    2.5231   -2.7403    1.2554 H   0  0  0  0  0  0  0  0  0  0  0  0
    1.2896   -3.5327    0.2668 H   0  0  0  0  0  0  0  0  0  0  0  0
    3.2475   -3.5425   -0.5900 N   0  3  0  0  0  0  0  0  0  0  0  0
    4.0789   -2.9492   -0.6119 H   0  0  0  0  0  0  0  0  0  0  0  0
    3.4965   -4.4485   -0.1867 H   0  0  0  0  0  0  0  0  0  0  0  0
    2.9163   -3.6854   -1.5460 H   0  0  0  0  0  0  0  0  0  0  0  0
   -0.9183    2.5698   -0.1735 C   0  0  0  0  0  0  0  0  0  0  0  0
   -1.7129    2.6894   -1.0991 O   0  0  0  0  0  0  0  0  0  0  0  0
   -0.0973    3.6329    0.1571 N   0  0  0  0  0  0  0  0  0  0  0  0
    0.4762    3.5460    0.9911 H   0  0  0  0  0  0  0  0  0  0  0  0
   -0.1943    4.9388   -0.4891 C   0  0  0  0  0  0  0  0  0  0  0  0
   -1.1705    5.3941   -0.2906 H   0  0  0  0  0  0  0  0  0  0  0  0
    0.5836    5.6092   -0.1105 H   0  0  0  0  0  0  0  0  0  0  0  0
   -0.0664    4.8438   -1.5728 H   0  0  0  0  0  0  0  0  0  0  0  0
  1  2  1  0  0  0  0
  2  3  1  0  0  0  0
  2  4  1  0  0  0  0
  2  5  1  0  0  0  0
  5  6  2  0  0  0  0
  5  7  1  0  0  0  0
  7  8  1  0  0  0  0
  7  9  1  0  0  0  0
  9 10  1  0  0  0  0
  9 11  1  0  0  0  0
  9 27  1  0  0  0  0
 11 12  1  0  0  0  0
 11 13  1  0  0  0  0
 11 14  1  0  0  0  0
 14 15  1  0  0  0  0
 14 16  1  0  0  0  0
 14 17  1  0  0  0  0
 17 18  1  0  0  0  0
 17 19  1  0  0  0  0
 17 20  1  0  0  0  0
 20 21  1  0  0  0  0
 20 22  1  0  0  0  0
 20 23  1  0  0  0  0
 23 24  1  0  0  0  0
 23 25  1  0  0  0  0
 23 26  1  0  0  0  0
 27 28  2  0  0  0  0
 27 29  1  0  0  0  0
 29 30  1  0  0  0  0
 29 31  1  0  0  0  0
 31 32  1  0  0  0  0
 31 33  1  0  0  0  0
 31 34  1  0  0  0  0
M  CHG  1  23   1
M  END
$$$$

  -OEChem-01062216093D

 34 33  0     1  0  0  0  0  0999 V2000
   -4.0634   -2.1375    1.2336 H   0  0  0  0  0  0  0  0  0  0  0  0
   -3.9357   -1.1489    0.7840 C   0  0  0  0  0  0  0  0  0  0  0  0
   -4.7077   -0.4820    1.1762 H   0  0  0  0  0  0  0  0  0  0  0  0
   -4.0572   -1.2361   -0.2984 H   0  0  0  0  0  0  0  0  0  0  0  0
   -2.5619   -0.5960    1.1120 C   0  0  0  0  0  0  0  0  0  0  0  0
   -1.8649   -1.1573    1.9430 O   0  0  0  0  0  0  0  0  0  0  0  0
   -2.1615    0.6016    0.5580 N   0  0  0  0  0  0  0  0  0  0  0  0
   -2.8327    1.0485   -0.0709 H   0  0  0  0  0  0  0  0  0  0  0  0
   -0.8249    1.2293    0.5784 C   0  0  1  0  0  0  0  0  0  0  0  0
   -0.5219    1.4153    1.6137 H   0  0  0  0  0  0  0  0  0  0  0  0
    0.2844    0.4420   -0.1834 C   0  0  0  0  0  0  0  0  0  0  0  0
   -0.0644    0.2693   -1.2081 H   0  0  0  0  0  0  0  0  0  0  0  0
    1.1774    1.0730   -0.2448 H   0  0  0  0  0  0  0  0  0  0  0  0
    0.7157   -0.9033    0.4178 C   0  0  0  0  0  0  0  0  0  0  0  0
    1.0321   -0.7606    1.4572 H   0  0  0  0  0  0  0  0  0  0  0  0
   -0.1254   -1.5965    0.4009 H   0  0  0  0  0  0  0  0  0  0  0  0
    1.8274   -1.5571   -0.4080 C   0  0  0  0  0  0  0  0  0  0  0  0
    1.4808   -1.7052   -1.4367 H   0  0  0  0  0  0  0  0  0  0  0  0
    2.7026   -0.8989   -0.4332 H   0  0  0  0  0  0  0  0  0  0  0  0
    2.1948   -2.8990    0.2231 C   0  0  0  0  0  0  0  0  0  0  0  0
    2.5300   -2.7320    1.2575 H   0  0  0  0  0  0  0  0  0  0  0  0
    1.2943   -3.5292    0.2755 H   0  0  0  0  0  0  0  0  0  0  0  0
    3.2514   -3.5477   -0.5831 N   0  3  0  0  0  0  0  0  0  0  0  0
    4.0830   -2.9552   -0.6114 H   0  0  0  0  0  0  0  0  0  0  0  0
    3.5006   -4.4504   -0.1725 H   0  0  0  0  0  0  0  0  0  0  0  0
    2.9185   -3.6987   -1.5373 H   0  0  0  0  0  0  0  0  0  0  0  0
   -0.9227    2.5760   -0.1842 C   0  0  0  0  0  0  0  0  0  0  0  0
   -1.8615    2.7772   -0.9468 O   0  0  0  0  0  0  0  0  0  0  0  0
    0.0705    3.5342   -0.0767 N   0  0  0  0  0  0  0  0  0  0  0  0
    0.7857    3.3948    0.6310 H   0  0  0  0  0  0  0  0  0  0  0  0
   -0.0019    4.8290   -0.7484 C   0  0  0  0  0  0  0  0  0  0  0  0
   -0.8556    5.4069   -0.3780 H   0  0  0  0  0  0  0  0  0  0  0  0
    0.9111    5.4041   -0.5650 H   0  0  0  0  0  0  0  0  0  0  0  0
   -0.1117    4.6969   -1.8303 H   0  0  0  0  0  0  0  0  0  0  0  0
  1  2  1  0  0  0  0
  2  3  1  0  0  0  0
  2  4  1  0  0  0  0
  2  5  1  0  0  0  0
  5  6  2  0  0  0  0
  5  7  1  0  0  0  0
  7  8  1  0  0  0  0
  7  9  1  0  0  0  0
  9 10  1  0  0  0  0
  9 11  1  0  0  0  0
  9 27  1  0  0  0  0
 11 12  1  0  0  0  0
 11 13  1  0  0  0  0
 11 14  1  0  0  0  0
 14 15  1  0  0  0  0
 14 16  1  0  0  0  0
 14 17  1  0  0  0  0
 17 18  1  0  0  0  0
 17 19  1  0  0  0  0
 17 20  1  0  0  0  0
 20 21  1  0  0  0  0
 20 22  1  0  0  0  0
 20 23  1  0  0  0  0
 23 24  1  0  0  0  0
 23 25  1  0  0  0  0
 23 26  1  0  0  0  0
 27 28  2  0  0  0  0
 27 29  1  0  0  0  0
 29 30  1  0  0  0  0
 29 31  1  0  0  0  0
 31 32  1  0  0  0  0
 31 33  1  0  0  0  0
 31 34  1  0  0  0  0
M  CHG  1  23   1
M  END
$$$$

  -OEChem-01062216093D

 34 33  0     1  0  0  0  0  0999 V2000
   -3.9374   -2.1708    1.3405 H   0  0  0  0  0  0  0  0  0  0  0  0
   -3.8544   -1.1781    0.8893 C   0  0  0  0  0  0  0  0  0  0  0  0
   -4.5303   -0.4972    1.4128 H   0  0  0  0  0  0  0  0  0  0  0  0
   -4.1548   -1.2417   -0.1592 H   0  0  0  0  0  0  0  0  0  0  0  0
   -2.4285   -0.6714    0.9937 C   0  0  0  0  0  0  0  0  0  0  0  0
   -1.5974   -1.3180    1.6133 O   0  0  0  0  0  0  0  0  0  0  0  0
   -2.0987    0.5548    0.4538 N   0  0  0  0  0  0  0  0  0  0  0  0
   -2.8684    1.1135    0.0779 H   0  0  0  0  0  0  0  0  0  0  0  0
   -0.7819    1.2198    0.4735 C   0  0  1  0  0  0  0  0  0  0  0  0
   -0.3480    1.1617    1.4774 H   0  0  0  0  0  0  0  0  0  0  0  0
    0.2005    0.6308   -0.5806 C   0  0  0  0  0  0  0  0  0  0  0  0
   -0.2815    0.6722   -1.5638 H   0  0  0  0  0  0  0  0  0  0  0  0
    1.0938    1.2617   -0.6268 H   0  0  0  0  0  0  0  0  0  0  0  0
    0.6657   -0.8074   -0.3125 C   0  0  0  0  0  0  0  0  0  0  0  0
    1.1156   -0.8695    0.6850 H   0  0  0  0  0  0  0  0  0  0  0  0
   -0.1958   -1.4769   -0.3457 H   0  0  0  0  0  0  0  0  0  0  0  0
    1.6484   -1.2955   -1.3800 C   0  0  0  0  0  0  0  0  0  0  0  0
    1.1749   -1.2408   -2.3666 H   0  0  0  0  0  0  0  0  0  0  0  0
    2.5340   -0.6507   -1.3885 H   0  0  0  0  0  0  0  0  0  0  0  0
    2.0471   -2.7361   -1.0640 C   0  0  0  0  0  0  0  0  0  0  0  0
    2.5092   -2.7718   -0.0662 H   0  0  0  0  0  0  0  0  0  0  0  0
    1.1400   -3.3573   -1.0186 H   0  0  0  0  0  0  0  0  0  0  0  0
    2.9784   -3.2290   -2.1017 N   0  3  0  0  0  0  0  0  0  0  0  0
    3.8175   -2.6467   -2.1239 H   0  0  0  0  0  0  0  0  0  0  0  0
    3.2492   -4.1939   -1.8987 H   0  0  0  0  0  0  0  0  0  0  0  0
    2.5275   -3.1975   -3.0180 H   0  0  0  0  0  0  0  0  0  0  0  0
   -0.9818    2.7140    0.1005 C   0  0  0  0  0  0  0  0  0  0  0  0
   -2.0934    3.1164   -0.2250 O   0  0  0  0  0  0  0  0  0  0  0  0
    0.0842    3.5959    0.0397 N   0  0  0  0  0  0  0  0  0  0  0  0
    0.9791    3.2790    0.3998 H   0  0  0  0  0  0  0  0  0  0  0  0
   -0.0756    5.0126   -0.2779 C   0  0  0  0  0  0  0  0  0  0  0  0
   -0.6944    5.5080    0.4781 H   0  0  0  0  0  0  0  0  0  0  0  0
    0.8995    5.5087   -0.3063 H   0  0  0  0  0  0  0  0  0  0  0  0
   -0.5522    5.1373   -1.2563 H   0  0  0  0  0  0  0  0  0  0  0  0
  1  2  1  0  0  0  0
  2  3  1  0  0  0  0
  2  4  1  0  0  0  0
  2  5  1  0  0  0  0
  5  6  2  0  0  0  0
  5  7  1  0  0  0  0
  7  8  1  0  0  0  0
  7  9  1  0  0  0  0
  9 10  1  0  0  0  0
  9 11  1  0  0  0  0
  9 27  1  0  0  0  0
 11 12  1  0  0  0  0
 11 13  1  0  0  0  0
 11 14  1  0  0  0  0
 14 15  1  0  0  0  0
 14 16  1  0  0  0  0
 14 17  1  0  0  0  0
 17 18  1  0  0  0  0
 17 19  1  0  0  0  0
 17 20  1  0  0  0  0
 20 21  1  0  0  0  0
 20 22  1  0  0  0  0
 20 23  1  0  0  0  0
 23 24  1  0  0  0  0
 23 25  1  0  0  0  0
 23 26  1  0  0  0  0
 27 28  2  0  0  0  0
 27 29  1  0  0  0  0
 29 30  1  0  0  0  0
 29 31  1  0  0  0  0
 31 32  1  0  0  0  0
 31 33  1  0  0  0  0
 31 34  1  0  0  0  0
M  CHG  1  23   1
M  END
$$$$

  -OEChem-01062216093D

 34 33  0     1  0  0  0  0  0999 V2000
   -3.9570   -2.1367    1.3516 H   0  0  0  0  0  0  0  0  0  0  0  0
   -3.8633   -1.1463    0.8973 C   0  0  0  0  0  0  0  0  0  0  0  0
   -4.5121   -0.4505    1.4352 H   0  0  0  0  0  0  0  0  0  0  0  0
   -4.1883   -1.2035   -0.1442 H   0  0  0  0  0  0  0  0  0  0  0  0
   -2.4252   -0.6703    0.9691 C   0  0  0  0  0  0  0  0  0  0  0  0
   -1.5954   -1.3376    1.5681 O   0  0  0  0  0  0  0  0  0  0  0  0
   -2.0891    0.5581    0.4377 N   0  0  0  0  0  0  0  0  0  0  0  0
   -2.8664    1.1470    0.1295 H   0  0  0  0  0  0  0  0  0  0  0  0
   -0.7690    1.2183    0.4591 C   0  0  1  0  0  0  0  0  0  0  0  0
   -0.3354    1.1594    1.4630 H   0  0  0  0  0  0  0  0  0  0  0  0
    0.2166    0.6213   -0.5915 C   0  0  0  0  0  0  0  0  0  0  0  0
   -0.2593    0.6659   -1.5776 H   0  0  0  0  0  0  0  0  0  0  0  0
    1.1164    1.2421   -0.6317 H   0  0  0  0  0  0  0  0  0  0  0  0
    0.6782   -0.8181   -0.3220 C   0  0  0  0  0  0  0  0  0  0  0  0
    1.1218   -0.8830    0.6781 H   0  0  0  0  0  0  0  0  0  0  0  0
   -0.1843   -1.4858   -0.3633 H   0  0  0  0  0  0  0  0  0  0  0  0
    1.6632   -1.3108   -1.3854 C   0  0  0  0  0  0  0  0  0  0  0  0
    1.1940   -1.2562   -2.3739 H   0  0  0  0  0  0  0  0  0  0  0  0
    2.5511   -0.6697   -1.3914 H   0  0  0  0  0  0  0  0  0  0  0  0
    2.0547   -2.7522   -1.0635 C   0  0  0  0  0  0  0  0  0  0  0  0
    2.5121   -2.7866   -0.0635 H   0  0  0  0  0  0  0  0  0  0  0  0
    1.1450   -3.3698   -1.0206 H   0  0  0  0  0  0  0  0  0  0  0  0
    2.9885   -3.2533   -2.0952 N   0  3  0  0  0  0  0  0  0  0  0  0
    3.8307   -2.6755   -2.1150 H   0  0  0  0  0  0  0  0  0  0  0  0
    3.2534   -4.2190   -1.8878 H   0  0  0  0  0  0  0  0  0  0  0  0
    2.5422   -3.2226   -3.0138 H   0  0  0  0  0  0  0  0  0  0  0  0
   -0.9824    2.7170    0.0948 C   0  0  0  0  0  0  0  0  0  0  0  0
   -2.1221    3.1642    0.0288 O   0  0  0  0  0  0  0  0  0  0  0  0
    0.0624    3.5520   -0.2672 N   0  0  0  0  0  0  0  0  0  0  0  0
    1.0080    3.2089   -0.1334 H   0  0  0  0  0  0  0  0  0  0  0  0
   -0.1252    4.9606   -0.6058 C   0  0  0  0  0  0  0  0  0  0  0  0
   -0.5298    5.5112    0.2504 H   0  0  0  0  0  0  0  0  0  0  0  0
    0.8295    5.4145   -0.8889 H   0  0  0  0  0  0  0  0  0  0  0  0
   -0.8171    5.0653   -1.4487 H   0  0  0  0  0  0  0  0  0  0  0  0
  1  2  1  0  0  0  0
  2  3  1  0  0  0  0
  2  4  1  0  0  0  0
  2  5  1  0  0  0  0
  5  6  2  0  0  0  0
  5  7  1  0  0  0  0
  7  8  1  0  0  0  0
  7  9  1  0  0  0  0
  9 10  1  0  0  0  0
  9 11  1  0  0  0  0
  9 27  1  0  0  0  0
 11 12  1  0  0  0  0
 11 13  1  0  0  0  0
 11 14  1  0  0  0  0
 14 15  1  0  0  0  0
 14 16  1  0  0  0  0
 14 17  1  0  0  0  0
 17 18  1  0  0  0  0
 17 19  1  0  0  0  0
 17 20  1  0  0  0  0
 20 21  1  0  0  0  0
 20 22  1  0  0  0  0
 20 23  1  0  0  0  0
 23 24  1  0  0  0  0
 23 25  1  0  0  0  0
 23 26  1  0  0  0  0
 27 28  2  0  0  0  0
 27 29  1  0  0  0  0
 29 30  1  0  0  0  0
 29 31  1  0  0  0  0
 31 32  1  0  0  0  0
 31 33  1  0  0  0  0
 31 34  1  0  0  0  0
M  CHG  1  23   1
M  END
$$$$

  -OEChem-01062216093D

 34 33  0     1  0  0  0  0  0999 V2000
   -3.9815   -2.0984    1.3624 H   0  0  0  0  0  0  0  0  0  0  0  0
   -3.8768   -1.1096    0.9074 C   0  0  0  0  0  0  0  0  0  0  0  0
   -4.4967   -0.4007    1.4622 H   0  0  0  0  0  0  0  0  0  0  0  0
   -4.2283   -1.1579   -0.1260 H   0  0  0  0  0  0  0  0  0  0  0  0
   -2.4272   -0.6653    0.9444 C   0  0  0  0  0  0  0  0  0  0  0  0
   -1.5988   -1.3540    1.5201 O   0  0  0  0  0  0  0  0  0  0  0  0
   -2.0843    0.5647    0.4209 N   0  0  0  0  0  0  0  0  0  0  0  0
   -2.8654    1.1789    0.1799 H   0  0  0  0  0  0  0  0  0  0  0  0
   -0.7578    1.2133    0.4362 C   0  0  1  0  0  0  0  0  0  0  0  0
   -0.3240    1.1538    1.4402 H   0  0  0  0  0  0  0  0  0  0  0  0
    0.2329    0.6112   -0.6084 C   0  0  0  0  0  0  0  0  0  0  0  0
   -0.2358    0.6566   -1.5979 H   0  0  0  0  0  0  0  0  0  0  0  0
    1.1363    1.2274   -0.6377 H   0  0  0  0  0  0  0  0  0  0  0  0
    0.6914   -0.8280   -0.3350 C   0  0  0  0  0  0  0  0  0  0  0  0
    1.1274   -0.8918    0.6684 H   0  0  0  0  0  0  0  0  0  0  0  0
   -0.1716   -1.4940   -0.3826 H   0  0  0  0  0  0  0  0  0  0  0  0
    1.6814   -1.3269   -1.3907 C   0  0  0  0  0  0  0  0  0  0  0  0
    1.2189   -1.2751   -2.3824 H   0  0  0  0  0  0  0  0  0  0  0  0
    2.5718   -0.6889   -1.3931 H   0  0  0  0  0  0  0  0  0  0  0  0
    2.0661   -2.7684   -1.0603 C   0  0  0  0  0  0  0  0  0  0  0  0
    2.5168   -2.8002   -0.0572 H   0  0  0  0  0  0  0  0  0  0  0  0
    1.1540   -3.3827   -1.0203 H   0  0  0  0  0  0  0  0  0  0  0  0
    3.0047   -3.2776   -2.0835 N   0  3  0  0  0  0  0  0  0  0  0  0
    3.8498   -2.7039   -2.0992 H   0  0  0  0  0  0  0  0  0  0  0  0
    3.2635   -4.2436   -1.8701 H   0  0  0  0  0  0  0  0  0  0  0  0
    2.5654   -3.2487   -3.0055 H   0  0  0  0  0  0  0  0  0  0  0  0
   -0.9819    2.7151    0.0853 C   0  0  0  0  0  0  0  0  0  0  0  0
   -2.0831    3.2127    0.2899 O   0  0  0  0  0  0  0  0  0  0  0  0
   -0.0393    3.4954   -0.5660 N   0  0  0  0  0  0  0  0  0  0  0  0
    0.8892    3.1084   -0.6950 H   0  0  0  0  0  0  0  0  0  0  0  0
   -0.2639    4.8973   -0.9094 C   0  0  0  0  0  0  0  0  0  0  0  0
   -0.4328    5.4919   -0.0052 H   0  0  0  0  0  0  0  0  0  0  0  0
    0.6060    5.3048   -1.4335 H   0  0  0  0  0  0  0  0  0  0  0  0
   -1.1369    4.9989   -1.5633 H   0  0  0  0  0  0  0  0  0  0  0  0
  1  2  1  0  0  0  0
  2  3  1  0  0  0  0
  2  4  1  0  0  0  0
  2  5  1  0  0  0  0
  5  6  2  0  0  0  0
  5  7  1  0  0  0  0
  7  8  1  0  0  0  0
  7  9  1  0  0  0  0
  9 10  1  0  0  0  0
  9 11  1  0  0  0  0
  9 27  1  0  0  0  0
 11 12  1  0  0  0  0
 11 13  1  0  0  0  0
 11 14  1  0  0  0  0
 14 15  1  0  0  0  0
 14 16  1  0  0  0  0
 14 17  1  0  0  0  0
 17 18  1  0  0  0  0
 17 19  1  0  0  0  0
 17 20  1  0  0  0  0
 20 21  1  0  0  0  0
 20 22  1  0  0  0  0
 20 23  1  0  0  0  0
 23 24  1  0  0  0  0
 23 25  1  0  0  0  0
 23 26  1  0  0  0  0
 27 28  2  0  0  0  0
 27 29  1  0  0  0  0
 29 30  1  0  0  0  0
 29 31  1  0  0  0  0
 31 32  1  0  0  0  0
 31 33  1  0  0  0  0
 31 34  1  0  0  0  0
M  CHG  1  23   1
M  END
$$$$

  -OEChem-01062216093D

 34 33  0     1  0  0  0  0  0999 V2000
   -4.0046   -2.0663    1.3770 H   0  0  0  0  0  0  0  0  0  0  0  0
   -3.8937   -1.0784    0.9213 C   0  0  0  0  0  0  0  0  0  0  0  0
   -4.4899   -0.3609    1.4911 H   0  0  0  0  0  0  0  0  0  0  0  0
   -4.2687   -1.1193   -0.1040 H   0  0  0  0  0  0  0  0  0  0  0  0
   -2.4364   -0.6582    0.9266 C   0  0  0  0  0  0  0  0  0  0  0  0
   -1.6072   -1.3667    1.4757 O   0  0  0  0  0  0  0  0  0  0  0  0
   -2.0886    0.5731    0.4083 N   0  0  0  0  0  0  0  0  0  0  0  0
   -2.8697    1.2042    0.2198 H   0  0  0  0  0  0  0  0  0  0  0  0
   -0.7546    1.2068    0.4119 C   0  0  1  0  0  0  0  0  0  0  0  0
   -0.3194    1.1442    1.4153 H   0  0  0  0  0  0  0  0  0  0  0  0
    0.2428    0.6043   -0.6256 C   0  0  0  0  0  0  0  0  0  0  0  0
   -0.2186    0.6457   -1.6185 H   0  0  0  0  0  0  0  0  0  0  0  0
    1.1447    1.2242   -0.6450 H   0  0  0  0  0  0  0  0  0  0  0  0
    0.7009   -0.8342   -0.3478 C   0  0  0  0  0  0  0  0  0  0  0  0
    1.1288   -0.8977    0.6594 H   0  0  0  0  0  0  0  0  0  0  0  0
   -0.1614   -1.5005   -0.4027 H   0  0  0  0  0  0  0  0  0  0  0  0
    1.6984   -1.3362   -1.3952 C   0  0  0  0  0  0  0  0  0  0  0  0
    1.2436   -1.2869   -2.3906 H   0  0  0  0  0  0  0  0  0  0  0  0
    2.5890   -0.6985   -1.3922 H   0  0  0  0  0  0  0  0  0  0  0  0
    2.0796   -2.7770   -1.0569 C   0  0  0  0  0  0  0  0  0  0  0  0
    2.5229   -2.8053   -0.0504 H   0  0  0  0  0  0  0  0  0  0  0  0
    1.1667   -3.3905   -1.0215 H   0  0  0  0  0  0  0  0  0  0  0  0
    3.0256   -3.2912   -2.0706 N   0  3  0  0  0  0  0  0  0  0  0  0
    3.8709   -2.7177   -2.0827 H   0  0  0  0  0  0  0  0  0  0  0  0
    3.2831   -4.2559   -1.8504 H   0  0  0  0  0  0  0  0  0  0  0  0
    2.5934   -3.2669   -2.9959 H   0  0  0  0  0  0  0  0  0  0  0  0
   -0.9788    2.7104    0.0761 C   0  0  0  0  0  0  0  0  0  0  0  0
   -1.9691    3.2658    0.5340 O   0  0  0  0  0  0  0  0  0  0  0  0
   -0.2070    3.4243   -0.8276 N   0  0  0  0  0  0  0  0  0  0  0  0
    0.6077    2.9687   -1.2237 H   0  0  0  0  0  0  0  0  0  0  0  0
   -0.4678    4.8188   -1.1760 C   0  0  0  0  0  0  0  0  0  0  0  0
   -0.3955    5.4562   -0.2881 H   0  0  0  0  0  0  0  0  0  0  0  0
    0.2611    5.1701   -1.9128 H   0  0  0  0  0  0  0  0  0  0  0  0
   -1.4700    4.9281   -1.6045 H   0  0  0  0  0  0  0  0  0  0  0  0
  1  2  1  0  0  0  0
  2  3  1  0  0  0  0
  2  4  1  0  0  0  0
  2  5  1  0  0  0  0
  5  6  2  0  0  0  0
  5  7  1  0  0  0  0
  7  8  1  0  0  0  0
  7  9  1  0  0  0  0
  9 10  1  0  0  0  0
  9 11  1  0  0  0  0
  9 27  1  0  0  0  0
 11 12  1  0  0  0  0
 11 13  1  0  0  0  0
 11 14  1  0  0  0  0
 14 15  1  0  0  0  0
 14 16  1  0  0  0  0
 14 17  1  0  0  0  0
 17 18  1  0  0  0  0
 17 19  1  0  0  0  0
 17 20  1  0  0  0  0
 20 21  1  0  0  0  0
 20 22  1  0  0  0  0
 20 23  1  0  0  0  0
 23 24  1  0  0  0  0
 23 25  1  0  0  0  0
 23 26  1  0  0  0  0
 27 28  2  0  0  0  0
 27 29  1  0  0  0  0
 29 30  1  0  0  0  0
 29 31  1  0  0  0  0
 31 32  1  0  0  0  0
 31 33  1  0  0  0  0
 31 34  1  0  0  0  0
M  CHG  1  23   1
M  END
$$$$

  -OEChem-01062216093D

 34 33  0     1  0  0  0  0  0999 V2000
   -4.0106   -2.0590    1.3869 H   0  0  0  0  0  0  0  0  0  0  0  0
   -3.9019   -1.0708    0.9311 C   0  0  0  0  0  0  0  0  0  0  0  0
   -4.4914   -0.3528    1.5071 H   0  0  0  0  0  0  0  0  0  0  0  0
   -4.2871   -1.1107   -0.0906 H   0  0  0  0  0  0  0  0  0  0  0  0
   -2.4435   -0.6535    0.9223 C   0  0  0  0  0  0  0  0  0  0  0  0
   -1.6106   -1.3679    1.4575 O   0  0  0  0  0  0  0  0  0  0  0  0
   -2.0989    0.5785    0.4024 N   0  0  0  0  0  0  0  0  0  0  0  0
   -2.8827    1.2088    0.2294 H   0  0  0  0  0  0  0  0  0  0  0  0
   -0.7616    1.2057    0.3910 C   0  0  1  0  0  0  0  0  0  0  0  0
   -0.3225    1.1430    1.3930 H   0  0  0  0  0  0  0  0  0  0  0  0
    0.2391    0.6026   -0.6425 C   0  0  0  0  0  0  0  0  0  0  0  0
   -0.2242    0.6299   -1.6348 H   0  0  0  0  0  0  0  0  0  0  0  0
    1.1336    1.2344   -0.6679 H   0  0  0  0  0  0  0  0  0  0  0  0
    0.7035   -0.8324   -0.3574 C   0  0  0  0  0  0  0  0  0  0  0  0
    1.1303   -0.8884    0.6506 H   0  0  0  0  0  0  0  0  0  0  0  0
   -0.1562   -1.5021   -0.4101 H   0  0  0  0  0  0  0  0  0  0  0  0
    1.7044   -1.3374   -1.4002 C   0  0  0  0  0  0  0  0  0  0  0  0
    1.2512   -1.2968   -2.3966 H   0  0  0  0  0  0  0  0  0  0  0  0
    2.5928   -0.6967   -1.4003 H   0  0  0  0  0  0  0  0  0  0  0  0
    2.0896   -2.7748   -1.0512 C   0  0  0  0  0  0  0  0  0  0  0  0
    2.5312   -2.7947   -0.0436 H   0  0  0  0  0  0  0  0  0  0  0  0
    1.1787   -3.3910   -1.0125 H   0  0  0  0  0  0  0  0  0  0  0  0
    3.0392   -3.2937   -2.0593 N   0  3  0  0  0  0  0  0  0  0  0  0
    3.8808   -2.7148   -2.0771 H   0  0  0  0  0  0  0  0  0  0  0  0
    3.3027   -4.2544   -1.8286 H   0  0  0  0  0  0  0  0  0  0  0  0
    2.6074   -3.2824   -2.9851 H   0  0  0  0  0  0  0  0  0  0  0  0
   -0.9765    2.7092    0.0636 C   0  0  0  0  0  0  0  0  0  0  0  0
   -1.7901    3.3315    0.7310 O   0  0  0  0  0  0  0  0  0  0  0  0
   -0.4280    3.3443   -1.0400 N   0  0  0  0  0  0  0  0  0  0  0  0
    0.2012    2.8132   -1.6320 H   0  0  0  0  0  0  0  0  0  0  0  0
   -0.7142    4.7338   -1.3878 C   0  0  0  0  0  0  0  0  0  0  0  0
   -0.3995    5.4038   -0.5802 H   0  0  0  0  0  0  0  0  0  0  0  0
   -0.1777    5.0164   -2.2989 H   0  0  0  0  0  0  0  0  0  0  0  0
   -1.7866    4.8747   -1.5616 H   0  0  0  0  0  0  0  0  0  0  0  0
  1  2  1  0  0  0  0
  2  3  1  0  0  0  0
  2  4  1  0  0  0  0
  2  5  1  0  0  0  0
  5  6  2  0  0  0  0
  5  7  1  0  0  0  0
  7  8  1  0  0  0  0
  7  9  1  0  0  0  0
  9 10  1  0  0  0  0
  9 11  1  0  0  0  0
  9 27  1  0  0  0  0
 11 12  1  0  0  0  0
 11 13  1  0  0  0  0
 11 14  1  0  0  0  0
 14 15  1  0  0  0  0
 14 16  1  0  0  0  0
 14 17  1  0  0  0  0
 17 18  1  0  0  0  0
 17 19  1  0  0  0  0
 17 20  1  0  0  0  0
 20 21  1  0  0  0  0
 20 22  1  0  0  0  0
 20 23  1  0  0  0  0
 23 24  1  0  0  0  0
 23 25  1  0  0  0  0
 23 26  1  0  0  0  0
 27 28  2  0  0  0  0
 27 29  1  0  0  0  0
 29 30  1  0  0  0  0
 29 31  1  0  0  0  0
 31 32  1  0  0  0  0
 31 33  1  0  0  0  0
 31 34  1  0  0  0  0
M  CHG  1  23   1
M  END
$$$$

  -OEChem-01062216093D

 34 33  0     1  0  0  0  0  0999 V2000
   -4.0051   -2.0678    1.4090 H   0  0  0  0  0  0  0  0  0  0  0  0
   -3.9064   -1.0821    0.9453 C   0  0  0  0  0  0  0  0  0  0  0  0
   -4.4974   -0.3647    1.5203 H   0  0  0  0  0  0  0  0  0  0  0  0
   -4.2971   -1.1311   -0.0738 H   0  0  0  0  0  0  0  0  0  0  0  0
   -2.4510   -0.6555    0.9251 C   0  0  0  0  0  0  0  0  0  0  0  0
   -1.6113   -1.3641    1.4565 O   0  0  0  0  0  0  0  0  0  0  0  0
   -2.1172    0.5767    0.3974 N   0  0  0  0  0  0  0  0  0  0  0  0
   -2.9069    1.1934    0.2097 H   0  0  0  0  0  0  0  0  0  0  0  0
   -0.7803    1.2043    0.3710 C   0  0  1  0  0  0  0  0  0  0  0  0
   -0.3376    1.1426    1.3716 H   0  0  0  0  0  0  0  0  0  0  0  0
    0.2229    0.6020   -0.6589 C   0  0  0  0  0  0  0  0  0  0  0  0
   -0.2423    0.6132   -1.6503 H   0  0  0  0  0  0  0  0  0  0  0  0
    1.1085    1.2464   -0.6938 H   0  0  0  0  0  0  0  0  0  0  0  0
    0.6973   -0.8278   -0.3635 C   0  0  0  0  0  0  0  0  0  0  0  0
    1.1265   -0.8733    0.6442 H   0  0  0  0  0  0  0  0  0  0  0  0
   -0.1576   -1.5043   -0.4088 H   0  0  0  0  0  0  0  0  0  0  0  0
    1.7008   -1.3320   -1.4042 C   0  0  0  0  0  0  0  0  0  0  0  0
    1.2467   -1.3004   -2.4006 H   0  0  0  0  0  0  0  0  0  0  0  0
    2.5842   -0.6843   -1.4082 H   0  0  0  0  0  0  0  0  0  0  0  0
    2.0973   -2.7641   -1.0465 C   0  0  0  0  0  0  0  0  0  0  0  0
    2.5401   -2.7729   -0.0393 H   0  0  0  0  0  0  0  0  0  0  0  0
    1.1914   -3.3870   -1.0023 H   0  0  0  0  0  0  0  0  0  0  0  0
    3.0496   -3.2832   -2.0517 N   0  3  0  0  0  0  0  0  0  0  0  0
    3.8844   -2.6950   -2.0779 H   0  0  0  0  0  0  0  0  0  0  0  0
    3.3248   -4.2383   -1.8114 H   0  0  0  0  0  0  0  0  0  0  0  0
    2.6150   -3.2866   -2.9761 H   0  0  0  0  0  0  0  0  0  0  0  0
   -0.9809    2.7063    0.0440 C   0  0  0  0  0  0  0  0  0  0  0  0
   -1.5464    3.4056    0.8701 O   0  0  0  0  0  0  0  0  0  0  0  0
   -0.6980    3.2614   -1.1940 N   0  0  0  0  0  0  0  0  0  0  0  0
   -0.3042    2.6576   -1.9075 H   0  0  0  0  0  0  0  0  0  0  0  0
   -0.9866    4.6535   -1.5299 C   0  0  0  0  0  0  0  0  0  0  0  0
   -0.4384    5.3306   -0.8657 H   0  0  0  0  0  0  0  0  0  0  0  0
   -0.6883    4.8667   -2.5610 H   0  0  0  0  0  0  0  0  0  0  0  0
   -2.0582    4.8590   -1.4318 H   0  0  0  0  0  0  0  0  0  0  0  0
  1  2  1  0  0  0  0
  2  3  1  0  0  0  0
  2  4  1  0  0  0  0
  2  5  1  0  0  0  0
  5  6  2  0  0  0  0
  5  7  1  0  0  0  0
  7  8  1  0  0  0  0
  7  9  1  0  0  0  0
  9 10  1  0  0  0  0
  9 11  1  0  0  0  0
  9 27  1  0  0  0  0
 11 12  1  0  0  0  0
 11 13  1  0  0  0  0
 11 14  1  0  0  0  0
 14 15  1  0  0  0  0
 14 16  1  0  0  0  0
 14 17  1  0  0  0  0
 17 18  1  0  0  0  0
 17 19  1  0  0  0  0
 17 20  1  0  0  0  0
 20 21  1  0  0  0  0
 20 22  1  0  0  0  0
 20 23  1  0  0  0  0
 23 24  1  0  0  0  0
 23 25  1  0  0  0  0
 23 26  1  0  0  0  0
 27 28  2  0  0  0  0
 27 29  1  0  0  0  0
 29 30  1  0  0  0  0
 29 31  1  0  0  0  0
 31 32  1  0  0  0  0
 31 33  1  0  0  0  0
 31 34  1  0  0  0  0
M  CHG  1  23   1
M  END
$$$$

  -OEChem-01062216093D

 34 33  0     1  0  0  0  0  0999 V2000
   -4.0038   -2.0876    1.4360 H   0  0  0  0  0  0  0  0  0  0  0  0
   -3.9164   -1.1041    0.9656 C   0  0  0  0  0  0  0  0  0  0  0  0
   -4.5120   -0.3885    1.5381 H   0  0  0  0  0  0  0  0  0  0  0  0
   -4.3109   -1.1647   -0.0514 H   0  0  0  0  0  0  0  0  0  0  0  0
   -2.4652   -0.6633    0.9385 C   0  0  0  0  0  0  0  0  0  0  0  0
   -1.6168   -1.3616    1.4690 O   0  0  0  0  0  0  0  0  0  0  0  0
   -2.1433    0.5678    0.3999 N   0  0  0  0  0  0  0  0  0  0  0  0
   -2.9387    1.1660    0.1824 H   0  0  0  0  0  0  0  0  0  0  0  0
   -0.8078    1.1990    0.3604 C   0  0  1  0  0  0  0  0  0  0  0  0
   -0.3616    1.1398    1.3600 H   0  0  0  0  0  0  0  0  0  0  0  0
    0.1990    0.6018   -0.6673 C   0  0  0  0  0  0  0  0  0  0  0  0
   -0.2656    0.6024   -1.6586 H   0  0  0  0  0  0  0  0  0  0  0  0
    1.0765    1.2571   -0.7076 H   0  0  0  0  0  0  0  0  0  0  0  0
    0.6853   -0.8221   -0.3650 C   0  0  0  0  0  0  0  0  0  0  0  0
    1.1175   -0.8579    0.6417 H   0  0  0  0  0  0  0  0  0  0  0  0
   -0.1638   -1.5060   -0.4039 H   0  0  0  0  0  0  0  0  0  0  0  0
    1.6920   -1.3203   -1.4052 C   0  0  0  0  0  0  0  0  0  0  0  0
    1.2359   -1.2962   -2.4009 H   0  0  0  0  0  0  0  0  0  0  0  0
    2.5686   -0.6636   -1.4127 H   0  0  0  0  0  0  0  0  0  0  0  0
    2.1047   -2.7471   -1.0457 C   0  0  0  0  0  0  0  0  0  0  0  0
    2.5506   -2.7495   -0.0399 H   0  0  0  0  0  0  0  0  0  0  0  0
    1.2060   -3.3804   -0.9989 H   0  0  0  0  0  0  0  0  0  0  0  0
    3.0604   -3.2548   -2.0538 N   0  3  0  0  0  0  0  0  0  0  0  0
    3.8879   -2.6560   -2.0828 H   0  0  0  0  0  0  0  0  0  0  0  0
    3.3484   -4.2061   -1.8139 H   0  0  0  0  0  0  0  0  0  0  0  0
    2.6233   -3.2637   -2.9770 H   0  0  0  0  0  0  0  0  0  0  0  0
   -0.9935    2.6988    0.0274 C   0  0  0  0  0  0  0  0  0  0  0  0
   -1.2397    3.4749    0.9363 O   0  0  0  0  0  0  0  0  0  0  0  0
   -1.0025    3.1798   -1.2719 N   0  0  0  0  0  0  0  0  0  0  0  0
   -0.8863    2.5118   -2.0266 H   0  0  0  0  0  0  0  0  0  0  0  0
   -1.2684    4.5773   -1.6032 C   0  0  0  0  0  0  0  0  0  0  0  0
   -0.5223    5.2305   -1.1377 H   0  0  0  0  0  0  0  0  0  0  0  0
   -1.2284    4.7268   -2.6867 H   0  0  0  0  0  0  0  0  0  0  0  0
   -2.2621    4.8744   -1.2507 H   0  0  0  0  0  0  0  0  0  0  0  0
  1  2  1  0  0  0  0
  2  3  1  0  0  0  0
  2  4  1  0  0  0  0
  2  5  1  0  0  0  0
  5  6  2  0  0  0  0
  5  7  1  0  0  0  0
  7  8  1  0  0  0  0
  7  9  1  0  0  0  0
  9 10  1  0  0  0  0
  9 11  1  0  0  0  0
  9 27  1  0  0  0  0
 11 12  1  0  0  0  0
 11 13  1  0  0  0  0
 11 14  1  0  0  0  0
 14 15  1  0  0  0  0
 14 16  1  0  0  0  0
 14 17  1  0  0  0  0
 17 18  1  0  0  0  0
 17 19  1  0  0  0  0
 17 20  1  0  0  0  0
 20 21  1  0  0  0  0
 20 22  1  0  0  0  0
 20 23  1  0  0  0  0
 23 24  1  0  0  0  0
 23 25  1  0  0  0  0
 23 26  1  0  0  0  0
 27 28  2  0  0  0  0
 27 29  1  0  0  0  0
 29 30  1  0  0  0  0
 29 31  1  0  0  0  0
 31 32  1  0  0  0  0
 31 33  1  0  0  0  0
 31 34  1  0  0  0  0
M  CHG  1  23   1
M  END
$$$$

  -OEChem-01062216093D

 34 33  0     1  0  0  0  0  0999 V2000
   -3.9985   -2.1200    1.4621 H   0  0  0  0  0  0  0  0  0  0  0  0
   -3.9238   -1.1381    0.9860 C   0  0  0  0  0  0  0  0  0  0  0  0
   -4.5316   -0.4283    1.5532 H   0  0  0  0  0  0  0  0  0  0  0  0
   -4.3147   -1.2106   -0.0316 H   0  0  0  0  0  0  0  0  0  0  0  0
   -2.4786   -0.6776    0.9592 C   0  0  0  0  0  0  0  0  0  0  0  0
   -1.6207   -1.3620    1.4918 O   0  0  0  0  0  0  0  0  0  0  0  0
   -2.1704    0.5527    0.4104 N   0  0  0  0  0  0  0  0  0  0  0  0
   -2.9715    1.1324    0.1675 H   0  0  0  0  0  0  0  0  0  0  0  0
   -0.8382    1.1922    0.3664 C   0  0  1  0  0  0  0  0  0  0  0  0
   -0.3897    1.1349    1.3655 H   0  0  0  0  0  0  0  0  0  0  0  0
    0.1711    0.6073   -0.6634 C   0  0  0  0  0  0  0  0  0  0  0  0
   -0.2918    0.6097   -1.6553 H   0  0  0  0  0  0  0  0  0  0  0  0
    1.0429    1.2705   -0.7015 H   0  0  0  0  0  0  0  0  0  0  0  0
    0.6685   -0.8128   -0.3631 C   0  0  0  0  0  0  0  0  0  0  0  0
    1.1037   -0.8451    0.6424 H   0  0  0  0  0  0  0  0  0  0  0  0
   -0.1756   -1.5034   -0.3991 H   0  0  0  0  0  0  0  0  0  0  0  0
    1.6778   -1.2991   -1.4062 C   0  0  0  0  0  0  0  0  0  0  0  0
    1.2198   -1.2762   -2.4010 H   0  0  0  0  0  0  0  0  0  0  0  0
    2.5484   -0.6339   -1.4138 H   0  0  0  0  0  0  0  0  0  0  0  0
    2.1043   -2.7228   -1.0518 C   0  0  0  0  0  0  0  0  0  0  0  0
    2.5521   -2.7241   -0.0469 H   0  0  0  0  0  0  0  0  0  0  0  0
    1.2117   -3.3645   -1.0050 H   0  0  0  0  0  0  0  0  0  0  0  0
    3.0627   -3.2177   -2.0634 N   0  3  0  0  0  0  0  0  0  0  0  0
    3.8839   -2.6103   -2.0918 H   0  0  0  0  0  0  0  0  0  0  0  0
    3.3609   -4.1668   -1.8274 H   0  0  0  0  0  0  0  0  0  0  0  0
    2.6240   -3.2276   -2.9858 H   0  0  0  0  0  0  0  0  0  0  0  0
   -1.0163    2.6881    0.0239 C   0  0  0  0  0  0  0  0  0  0  0  0
   -0.9104    3.5207    0.9093 O   0  0  0  0  0  0  0  0  0  0  0  0
   -1.3234    3.1084   -1.2592 N   0  0  0  0  0  0  0  0  0  0  0  0
   -1.4593    2.3983   -1.9715 H   0  0  0  0  0  0  0  0  0  0  0  0
   -1.5457    4.5091   -1.6066 C   0  0  0  0  0  0  0  0  0  0  0  0
   -0.6512    5.1042   -1.3933 H   0  0  0  0  0  0  0  0  0  0  0  0
   -1.7774    4.6053   -2.6719 H   0  0  0  0  0  0  0  0  0  0  0  0
   -2.3837    4.9194   -1.0326 H   0  0  0  0  0  0  0  0  0  0  0  0
  1  2  1  0  0  0  0
  2  3  1  0  0  0  0
  2  4  1  0  0  0  0
  2  5  1  0  0  0  0
  5  6  2  0  0  0  0
  5  7  1  0  0  0  0
  7  8  1  0  0  0  0
  7  9  1  0  0  0  0
  9 10  1  0  0  0  0
  9 11  1  0  0  0  0
  9 27  1  0  0  0  0
 11 12  1  0  0  0  0
 11 13  1  0  0  0  0
 11 14  1  0  0  0  0
 14 15  1  0  0  0  0
 14 16  1  0  0  0  0
 14 17  1  0  0  0  0
 17 18  1  0  0  0  0
 17 19  1  0  0  0  0
 17 20  1  0  0  0  0
 20 21  1  0  0  0  0
 20 22  1  0  0  0  0
 20 23  1  0  0  0  0
 23 24  1  0  0  0  0
 23 25  1  0  0  0  0
 23 26  1  0  0  0  0
 27 28  2  0  0  0  0
 27 29  1  0  0  0  0
 29 30  1  0  0  0  0
 29 31  1  0  0  0  0
 31 32  1  0  0  0  0
 31 33  1  0  0  0  0
 31 34  1  0  0  0  0
M  CHG  1  23   1
M  END
$$$$

  -OEChem-01062216093D

 34 33  0     1  0  0  0  0  0999 V2000
   -3.9941   -2.1569    1.4847 H   0  0  0  0  0  0  0  0  0  0  0  0
   -3.9312   -1.1748    1.0073 C   0  0  0  0  0  0  0  0  0  0  0  0
   -4.5501   -0.4724    1.5715 H   0  0  0  0  0  0  0  0  0  0  0  0
   -4.3173   -1.2540   -0.0115 H   0  0  0  0  0  0  0  0  0  0  0  0
   -2.4921   -0.6957    0.9843 C   0  0  0  0  0  0  0  0  0  0  0  0
   -1.6271   -1.3693    1.5189 O   0  0  0  0  0  0  0  0  0  0  0  0
   -2.1952    0.5343    0.4279 N   0  0  0  0  0  0  0  0  0  0  0  0
   -3.0010    1.1050    0.1808 H   0  0  0  0  0  0  0  0  0  0  0  0
   -0.8669    1.1839    0.3883 C   0  0  1  0  0  0  0  0  0  0  0  0
   -0.4194    1.1287    1.3880 H   0  0  0  0  0  0  0  0  0  0  0  0
    0.1439    0.6130   -0.6453 C   0  0  0  0  0  0  0  0  0  0  0  0
   -0.3193    0.6244   -1.6372 H   0  0  0  0  0  0  0  0  0  0  0  0
    1.0123    1.2814   -0.6779 H   0  0  0  0  0  0  0  0  0  0  0  0
    0.6502   -0.8059   -0.3552 C   0  0  0  0  0  0  0  0  0  0  0  0
    1.0891   -0.8415    0.6487 H   0  0  0  0  0  0  0  0  0  0  0  0
   -0.1899   -1.5020   -0.3921 H   0  0  0  0  0  0  0  0  0  0  0  0
    1.6611   -1.2754   -1.4044 C   0  0  0  0  0  0  0  0  0  0  0  0
    1.2001   -1.2476   -2.3978 H   0  0  0  0  0  0  0  0  0  0  0  0
    2.5261   -0.6031   -1.4083 H   0  0  0  0  0  0  0  0  0  0  0  0
    2.0997   -2.6987   -1.0640 C   0  0  0  0  0  0  0  0  0  0  0  0
    2.5501   -2.7049   -0.0603 H   0  0  0  0  0  0  0  0  0  0  0  0
    1.2126   -3.3480   -1.0204 H   0  0  0  0  0  0  0  0  0  0  0  0
    3.0598   -3.1763   -2.0825 N   0  3  0  0  0  0  0  0  0  0  0  0
    3.8761   -2.5620   -2.1063 H   0  0  0  0  0  0  0  0  0  0  0  0
    3.3664   -4.1253   -1.8568 H   0  0  0  0  0  0  0  0  0  0  0  0
    2.6193   -3.1800   -3.0041 H   0  0  0  0  0  0  0  0  0  0  0  0
   -1.0390    2.6762    0.0357 C   0  0  0  0  0  0  0  0  0  0  0  0
   -0.6184    3.5301    0.7989 O   0  0  0  0  0  0  0  0  0  0  0  0
   -1.6272    3.0628   -1.1566 N   0  0  0  0  0  0  0  0  0  0  0  0
   -1.9459    2.3341   -1.7874 H   0  0  0  0  0  0  0  0  0  0  0  0
   -1.8091    4.4599   -1.5391 C   0  0  0  0  0  0  0  0  0  0  0  0
   -0.8419    4.9693   -1.6065 H   0  0  0  0  0  0  0  0  0  0  0  0
   -2.3025    4.5269   -2.5137 H   0  0  0  0  0  0  0  0  0  0  0  0
   -2.4290    4.9818   -0.8021 H   0  0  0  0  0  0  0  0  0  0  0  0
  1  2  1  0  0  0  0
  2  3  1  0  0  0  0
  2  4  1  0  0  0  0
  2  5  1  0  0  0  0
  5  6  2  0  0  0  0
  5  7  1  0  0  0  0
  7  8  1  0  0  0  0
  7  9  1  0  0  0  0
  9 10  1  0  0  0  0
  9 11  1  0  0  0  0
  9 27  1  0  0  0  0
 11 12  1  0  0  0  0
 11 13  1  0  0  0  0
 11 14  1  0  0  0  0
 14 15  1  0  0  0  0
 14 16  1  0  0  0  0
 14 17  1  0  0  0  0
 17 18  1  0  0  0  0
 17 19  1  0  0  0  0
 17 20  1  0  0  0  0
 20 21  1  0  0  0  0
 20 22  1  0  0  0  0
 20 23  1  0  0  0  0
 23 24  1  0  0  0  0
 23 25  1  0  0  0  0
 23 26  1  0  0  0  0
 27 28  2  0  0  0  0
 27 29  1  0  0  0  0
 29 30  1  0  0  0  0
 29 31  1  0  0  0  0
 31 32  1  0  0  0  0
 31 33  1  0  0  0  0
 31 34  1  0  0  0  0
M  CHG  1  23   1
M  END
$$$$

  -OEChem-01062216093D

 34 33  0     1  0  0  0  0  0999 V2000
   -4.0019   -2.1880    1.5195 H   0  0  0  0  0  0  0  0  0  0  0  0
   -3.9452   -1.2076    1.0379 C   0  0  0  0  0  0  0  0  0  0  0  0
   -4.5636   -0.5052    1.6025 H   0  0  0  0  0  0  0  0  0  0  0  0
   -4.3370   -1.2924    0.0217 H   0  0  0  0  0  0  0  0  0  0  0  0
   -2.5080   -0.7229    1.0052 C   0  0  0  0  0  0  0  0  0  0  0  0
   -1.6368   -1.3889    1.5388 O   0  0  0  0  0  0  0  0  0  0  0  0
   -2.2213    0.5075    0.4436 N   0  0  0  0  0  0  0  0  0  0  0  0
   -3.0332    1.0778    0.2176 H   0  0  0  0  0  0  0  0  0  0  0  0
   -0.8975    1.1694    0.4145 C   0  0  1  0  0  0  0  0  0  0  0  0
   -0.4539    1.1161    1.4159 H   0  0  0  0  0  0  0  0  0  0  0  0
    0.1166    0.6096   -0.6207 C   0  0  0  0  0  0  0  0  0  0  0  0
   -0.3477    0.6288   -1.6123 H   0  0  0  0  0  0  0  0  0  0  0  0
    0.9824    1.2814   -0.6496 H   0  0  0  0  0  0  0  0  0  0  0  0
    0.6326   -0.8079   -0.3418 C   0  0  0  0  0  0  0  0  0  0  0  0
    1.0751   -0.8484    0.6602 H   0  0  0  0  0  0  0  0  0  0  0  0
   -0.2023   -1.5103   -0.3813 H   0  0  0  0  0  0  0  0  0  0  0  0
    1.6458   -1.2562   -1.3986 C   0  0  0  0  0  0  0  0  0  0  0  0
    1.1823   -1.2208   -2.3905 H   0  0  0  0  0  0  0  0  0  0  0  0
    2.5039   -0.5751   -1.3968 H   0  0  0  0  0  0  0  0  0  0  0  0
    2.1010   -2.6782   -1.0788 C   0  0  0  0  0  0  0  0  0  0  0  0
    2.5561   -2.6925   -0.0771 H   0  0  0  0  0  0  0  0  0  0  0  0
    1.2219   -3.3387   -1.0414 H   0  0  0  0  0  0  0  0  0  0  0  0
    3.0625   -3.1285   -2.1080 N   0  3  0  0  0  0  0  0  0  0  0  0
    3.8720   -2.5049   -2.1244 H   0  0  0  0  0  0  0  0  0  0  0  0
    3.3798   -4.0776   -1.8986 H   0  0  0  0  0  0  0  0  0  0  0  0
    2.6189   -3.1217   -3.0280 H   0  0  0  0  0  0  0  0  0  0  0  0
   -1.0608    2.6602    0.0527 C   0  0  0  0  0  0  0  0  0  0  0  0
   -0.4014    3.4998    0.6442 O   0  0  0  0  0  0  0  0  0  0  0  0
   -1.8920    3.0540   -0.9825 N   0  0  0  0  0  0  0  0  0  0  0  0
   -2.3340    2.3276   -1.5368 H   0  0  0  0  0  0  0  0  0  0  0  0
   -2.0362    4.4458   -1.3990 C   0  0  0  0  0  0  0  0  0  0  0  0
   -1.0772    4.8446   -1.7468 H   0  0  0  0  0  0  0  0  0  0  0  0
   -2.7610    4.5268   -2.2149 H   0  0  0  0  0  0  0  0  0  0  0  0
   -2.3892    5.0612   -0.5642 H   0  0  0  0  0  0  0  0  0  0  0  0
  1  2  1  0  0  0  0
  2  3  1  0  0  0  0
  2  4  1  0  0  0  0
  2  5  1  0  0  0  0
  5  6  2  0  0  0  0
  5  7  1  0  0  0  0
  7  8  1  0  0  0  0
  7  9  1  0  0  0  0
  9 10  1  0  0  0  0
  9 11  1  0  0  0  0
  9 27  1  0  0  0  0
 11 12  1  0  0  0  0
 11 13  1  0  0  0  0
 11 14  1  0  0  0  0
 14 15  1  0  0  0  0
 14 16  1  0  0  0  0
 14 17  1  0  0  0  0
 17 18  1  0  0  0  0
 17 19  1  0  0  0  0
 17 20  1  0  0  0  0
 20 21  1  0  0  0  0
 20 22  1  0  0  0  0
 20 23  1  0  0  0  0
 23 24  1  0  0  0  0
 23 25  1  0  0  0  0
 23 26  1  0  0  0  0
 27 28  2  0  0  0  0
 27 29  1  0  0  0  0
 29 30  1  0  0  0  0
 29 31  1  0  0  0  0
 31 32  1  0  0  0  0
 31 33  1  0  0  0  0
 31 34  1  0  0  0  0
M  CHG  1  23   1
M  END
$$$$

  -OEChem-01062216093D

 34 33  0     1  0  0  0  0  0999 V2000
   -3.9713   -2.2352    1.5268 H   0  0  0  0  0  0  0  0  0  0  0  0
   -3.9283   -1.2549    1.0432 C   0  0  0  0  0  0  0  0  0  0  0  0
   -4.5619   -0.5621    1.6027 H   0  0  0  0  0  0  0  0  0  0  0  0
   -4.3127   -1.3488    0.0249 H   0  0  0  0  0  0  0  0  0  0  0  0
   -2.4993   -0.7463    1.0172 C   0  0  0  0  0  0  0  0  0  0  0  0
   -1.6221   -1.3943    1.5630 O   0  0  0  0  0  0  0  0  0  0  0  0
   -2.2292    0.4864    0.4520 N   0  0  0  0  0  0  0  0  0  0  0  0
   -3.0495    1.0480    0.2394 H   0  0  0  0  0  0  0  0  0  0  0  0
   -0.9129    1.1662    0.4268 C   0  0  1  0  0  0  0  0  0  0  0  0
   -0.4674    1.1160    1.4275 H   0  0  0  0  0  0  0  0  0  0  0  0
    0.0986    0.6083   -0.6140 C   0  0  0  0  0  0  0  0  0  0  0  0
   -0.3721    0.6258   -1.6026 H   0  0  0  0  0  0  0  0  0  0  0  0
    0.9630    1.2816   -0.6502 H   0  0  0  0  0  0  0  0  0  0  0  0
    0.6237   -0.8061   -0.3366 C   0  0  0  0  0  0  0  0  0  0  0  0
    1.0717   -0.8422    0.6629 H   0  0  0  0  0  0  0  0  0  0  0  0
   -0.2071   -1.5133   -0.3707 H   0  0  0  0  0  0  0  0  0  0  0  0
    1.6327   -1.2519   -1.3984 C   0  0  0  0  0  0  0  0  0  0  0  0
    1.1628   -1.2204   -2.3877 H   0  0  0  0  0  0  0  0  0  0  0  0
    2.4877   -0.5666   -1.4028 H   0  0  0  0  0  0  0  0  0  0  0  0
    2.0963   -2.6715   -1.0782 C   0  0  0  0  0  0  0  0  0  0  0  0
    2.5567   -2.6817   -0.0790 H   0  0  0  0  0  0  0  0  0  0  0  0
    1.2204   -3.3355   -1.0337 H   0  0  0  0  0  0  0  0  0  0  0  0
    3.0539   -3.1208   -2.1114 N   0  3  0  0  0  0  0  0  0  0  0  0
    3.8558   -2.4881   -2.1410 H   0  0  0  0  0  0  0  0  0  0  0  0
    3.3838   -4.0641   -1.8960 H   0  0  0  0  0  0  0  0  0  0  0  0
    2.6022   -3.1278   -3.0274 H   0  0  0  0  0  0  0  0  0  0  0  0
   -1.0719    2.6590    0.0606 C   0  0  0  0  0  0  0  0  0  0  0  0
   -0.2537    3.4658    0.4738 O   0  0  0  0  0  0  0  0  0  0  0  0
   -2.1003    3.0983   -0.7575 N   0  0  0  0  0  0  0  0  0  0  0  0
   -2.6571    2.3959   -1.2325 H   0  0  0  0  0  0  0  0  0  0  0  0
   -2.2482    4.4948   -1.1586 C   0  0  0  0  0  0  0  0  0  0  0  0
   -1.3802    4.8225   -1.7407 H   0  0  0  0  0  0  0  0  0  0  0  0
   -3.1453    4.6221   -1.7726 H   0  0  0  0  0  0  0  0  0  0  0  0
   -2.3425    5.1390   -0.2774 H   0  0  0  0  0  0  0  0  0  0  0  0
  1  2  1  0  0  0  0
  2  3  1  0  0  0  0
  2  4  1  0  0  0  0
  2  5  1  0  0  0  0
  5  6  2  0  0  0  0
  5  7  1  0  0  0  0
  7  8  1  0  0  0  0
  7  9  1  0  0  0  0
  9 10  1  0  0  0  0
  9 11  1  0  0  0  0
  9 27  1  0  0  0  0
 11 12  1  0  0  0  0
 11 13  1  0  0  0  0
 11 14  1  0  0  0  0
 14 15  1  0  0  0  0
 14 16  1  0  0  0  0
 14 17  1  0  0  0  0
 17 18  1  0  0  0  0
 17 19  1  0  0  0  0
 17 20  1  0  0  0  0
 20 21  1  0  0  0  0
 20 22  1  0  0  0  0
 20 23  1  0  0  0  0
 23 24  1  0  0  0  0
 23 25  1  0  0  0  0
 23 26  1  0  0  0  0
 27 28  2  0  0  0  0
 27 29  1  0  0  0  0
 29 30  1  0  0  0  0
 29 31  1  0  0  0  0
 31 32  1  0  0  0  0
 31 33  1  0  0  0  0
 31 34  1  0  0  0  0
M  CHG  1  23   1
M  END
$$$$

  -OEChem-01062216093D

 34 33  0     1  0  0  0  0  0999 V2000
   -3.7729   -2.3766    1.4042 H   0  0  0  0  0  0  0  0  0  0  0  0
   -3.7839   -1.3972    0.9173 C   0  0  0  0  0  0  0  0  0  0  0  0
   -4.5659   -0.7877    1.3772 H   0  0  0  0  0  0  0  0  0  0  0  0
   -4.0130   -1.5339   -0.1421 H   0  0  0  0  0  0  0  0  0  0  0  0
   -2.4374   -0.7179    1.0801 C   0  0  0  0  0  0  0  0  0  0  0  0
   -1.5741   -1.2408    1.7651 O   0  0  0  0  0  0  0  0  0  0  0  0
   -2.2188    0.5141    0.4931 N   0  0  0  0  0  0  0  0  0  0  0  0
   -2.9623    0.8343   -0.1183 H   0  0  0  0  0  0  0  0  0  0  0  0
   -0.9144    1.2141    0.4193 C   0  0  1  0  0  0  0  0  0  0  0  0
   -0.4434    1.1824    1.4086 H   0  0  0  0  0  0  0  0  0  0  0  0
    0.0639    0.6075   -0.6284 C   0  0  0  0  0  0  0  0  0  0  0  0
   -0.4395    0.5844   -1.6006 H   0  0  0  0  0  0  0  0  0  0  0  0
    0.9313    1.2701   -0.7265 H   0  0  0  0  0  0  0  0  0  0  0  0
    0.5985   -0.7939   -0.3022 C   0  0  0  0  0  0  0  0  0  0  0  0
    1.0858   -0.7820    0.6795 H   0  0  0  0  0  0  0  0  0  0  0  0
   -0.2299   -1.5043   -0.2665 H   0  0  0  0  0  0  0  0  0  0  0  0
    1.5709   -1.2782   -1.3814 C   0  0  0  0  0  0  0  0  0  0  0  0
    1.0647   -1.2867   -2.3529 H   0  0  0  0  0  0  0  0  0  0  0  0
    2.4206   -0.5890   -1.4445 H   0  0  0  0  0  0  0  0  0  0  0  0
    2.0583   -2.6817   -1.0299 C   0  0  0  0  0  0  0  0  0  0  0  0
    2.5589   -2.6544   -0.0504 H   0  0  0  0  0  0  0  0  0  0  0  0
    1.1914   -3.3513   -0.9292 H   0  0  0  0  0  0  0  0  0  0  0  0
    2.9783   -3.1531   -2.0871 N   0  3  0  0  0  0  0  0  0  0  0  0
    3.7734   -2.5156   -2.1652 H   0  0  0  0  0  0  0  0  0  0  0  0
    3.3243   -4.0878   -1.8600 H   0  0  0  0  0  0  0  0  0  0  0  0
    2.4915   -3.1873   -2.9843 H   0  0  0  0  0  0  0  0  0  0  0  0
   -1.0702    2.7116    0.0479 C   0  0  0  0  0  0  0  0  0  0  0  0
   -0.0925    3.4438    0.1025 O   0  0  0  0  0  0  0  0  0  0  0  0
   -2.2487    3.2235   -0.4720 N   0  0  0  0  0  0  0  0  0  0  0  0
   -3.0889    2.6722   -0.3490 H   0  0  0  0  0  0  0  0  0  0  0  0
   -2.4024    4.6321   -0.8264 C   0  0  0  0  0  0  0  0  0  0  0  0
   -1.6601    4.9232   -1.5776 H   0  0  0  0  0  0  0  0  0  0  0  0
   -3.3983    4.8131   -1.2425 H   0  0  0  0  0  0  0  0  0  0  0  0
   -2.2750    5.2670    0.0571 H   0  0  0  0  0  0  0  0  0  0  0  0
  1  2  1  0  0  0  0
  2  3  1  0  0  0  0
  2  4  1  0  0  0  0
  2  5  1  0  0  0  0
  5  6  2  0  0  0  0
  5  7  1  0  0  0  0
  7  8  1  0  0  0  0
  7  9  1  0  0  0  0
  9 10  1  0  0  0  0
  9 11  1  0  0  0  0
  9 27  1  0  0  0  0
 11 12  1  0  0  0  0
 11 13  1  0  0  0  0
 11 14  1  0  0  0  0
 14 15  1  0  0  0  0
 14 16  1  0  0  0  0
 14 17  1  0  0  0  0
 17 18  1  0  0  0  0
 17 19  1  0  0  0  0
 17 20  1  0  0  0  0
 20 21  1  0  0  0  0
 20 22  1  0  0  0  0
 20 23  1  0  0  0  0
 23 24  1  0  0  0  0
 23 25  1  0  0  0  0
 23 26  1  0  0  0  0
 27 28  2  0  0  0  0
 27 29  1  0  0  0  0
 29 30  1  0  0  0  0
 29 31  1  0  0  0  0
 31 32  1  0  0  0  0
 31 33  1  0  0  0  0
 31 34  1  0  0  0  0
M  CHG  1  23   1
M  END
$$$$

  -OEChem-01062216093D

 34 33  0     1  0  0  0  0  0999 V2000
   -3.7321   -2.3845    1.3486 H   0  0  0  0  0  0  0  0  0  0  0  0
   -3.7484   -1.4017    0.8687 C   0  0  0  0  0  0  0  0  0  0  0  0
   -4.5565   -0.8118    1.3084 H   0  0  0  0  0  0  0  0  0  0  0  0
   -3.9423   -1.5347   -0.1982 H   0  0  0  0  0  0  0  0  0  0  0  0
   -2.4215   -0.6967    1.0767 C   0  0  0  0  0  0  0  0  0  0  0  0
   -1.5701   -1.2040    1.7879 O   0  0  0  0  0  0  0  0  0  0  0  0
   -2.2022    0.5373    0.4948 N   0  0  0  0  0  0  0  0  0  0  0  0
   -2.9190    0.8327   -0.1624 H   0  0  0  0  0  0  0  0  0  0  0  0
   -0.8947    1.2318    0.4218 C   0  0  1  0  0  0  0  0  0  0  0  0
   -0.4213    1.2015    1.4097 H   0  0  0  0  0  0  0  0  0  0  0  0
    0.0770    0.6117   -0.6265 C   0  0  0  0  0  0  0  0  0  0  0  0
   -0.4282    0.5913   -1.5979 H   0  0  0  0  0  0  0  0  0  0  0  0
    0.9529    1.2621   -0.7279 H   0  0  0  0  0  0  0  0  0  0  0  0
    0.6011   -0.7933   -0.2971 C   0  0  0  0  0  0  0  0  0  0  0  0
    1.0933   -0.7796    0.6820 H   0  0  0  0  0  0  0  0  0  0  0  0
   -0.2316   -1.4980   -0.2543 H   0  0  0  0  0  0  0  0  0  0  0  0
    1.5664   -1.2880   -1.3786 C   0  0  0  0  0  0  0  0  0  0  0  0
    1.0577   -1.2939   -2.3488 H   0  0  0  0  0  0  0  0  0  0  0  0
    2.4212   -0.6054   -1.4452 H   0  0  0  0  0  0  0  0  0  0  0  0
    2.0444   -2.6946   -1.0260 C   0  0  0  0  0  0  0  0  0  0  0  0
    2.5474   -2.6686   -0.0479 H   0  0  0  0  0  0  0  0  0  0  0  0
    1.1724   -3.3570   -0.9220 H   0  0  0  0  0  0  0  0  0  0  0  0
    2.9574   -3.1772   -2.0845 N   0  3  0  0  0  0  0  0  0  0  0  0
    3.7572   -2.5463   -2.1673 H   0  0  0  0  0  0  0  0  0  0  0  0
    3.2965   -4.1139   -1.8548 H   0  0  0  0  0  0  0  0  0  0  0  0
    2.4677   -3.2112   -2.9803 H   0  0  0  0  0  0  0  0  0  0  0  0
   -1.0740    2.7301    0.0571 C   0  0  0  0  0  0  0  0  0  0  0  0
   -0.0947    3.4349   -0.1434 O   0  0  0  0  0  0  0  0  0  0  0  0
   -2.3311    3.2730   -0.1550 N   0  0  0  0  0  0  0  0  0  0  0  0
   -3.1138    2.7614    0.2387 H   0  0  0  0  0  0  0  0  0  0  0  0
   -2.5301    4.6857   -0.4687 C   0  0  0  0  0  0  0  0  0  0  0  0
   -1.9957    4.9555   -1.3861 H   0  0  0  0  0  0  0  0  0  0  0  0
   -3.5938    4.8956   -0.6190 H   0  0  0  0  0  0  0  0  0  0  0  0
   -2.1638    5.3165    0.3485 H   0  0  0  0  0  0  0  0  0  0  0  0
  1  2  1  0  0  0  0
  2  3  1  0  0  0  0
  2  4  1  0  0  0  0
  2  5  1  0  0  0  0
  5  6  2  0  0  0  0
  5  7  1  0  0  0  0
  7  8  1  0  0  0  0
  7  9  1  0  0  0  0
  9 10  1  0  0  0  0
  9 11  1  0  0  0  0
  9 27  1  0  0  0  0
 11 12  1  0  0  0  0
 11 13  1  0  0  0  0
 11 14  1  0  0  0  0
 14 15  1  0  0  0  0
 14 16  1  0  0  0  0
 14 17  1  0  0  0  0
 17 18  1  0  0  0  0
 17 19  1  0  0  0  0
 17 20  1  0  0  0  0
 20 21  1  0  0  0  0
 20 22  1  0  0  0  0
 20 23  1  0  0  0  0
 23 24  1  0  0  0  0
 23 25  1  0  0  0  0
 23 26  1  0  0  0  0
 27 28  2  0  0  0  0
 27 29  1  0  0  0  0
 29 30  1  0  0  0  0
 29 31  1  0  0  0  0
 31 32  1  0  0  0  0
 31 33  1  0  0  0  0
 31 34  1  0  0  0  0
M  CHG  1  23   1
M  END
$$$$

  -OEChem-01062216093D

 34 33  0     1  0  0  0  0  0999 V2000
   -3.7579   -2.3543    1.3316 H   0  0  0  0  0  0  0  0  0  0  0  0
   -3.7601   -1.3692    0.8562 C   0  0  0  0  0  0  0  0  0  0  0  0
   -4.5568   -0.7681    1.3015 H   0  0  0  0  0  0  0  0  0  0  0  0
   -3.9608   -1.4949   -0.2103 H   0  0  0  0  0  0  0  0  0  0  0  0
   -2.4213   -0.6863    1.0615 C   0  0  0  0  0  0  0  0  0  0  0  0
   -1.5763   -1.2071    1.7706 O   0  0  0  0  0  0  0  0  0  0  0  0
   -2.1863    0.5489    0.4892 N   0  0  0  0  0  0  0  0  0  0  0  0
   -2.9102    0.8769   -0.1462 H   0  0  0  0  0  0  0  0  0  0  0  0
   -0.8748    1.2356    0.4225 C   0  0  1  0  0  0  0  0  0  0  0  0
   -0.4036    1.2037    1.4113 H   0  0  0  0  0  0  0  0  0  0  0  0
    0.0968    0.6095   -0.6234 C   0  0  0  0  0  0  0  0  0  0  0  0
   -0.4037    0.5961   -1.5971 H   0  0  0  0  0  0  0  0  0  0  0  0
    0.9788    1.2521   -0.7181 H   0  0  0  0  0  0  0  0  0  0  0  0
    0.6113   -0.7993   -0.2957 C   0  0  0  0  0  0  0  0  0  0  0  0
    1.1010   -0.7920    0.6850 H   0  0  0  0  0  0  0  0  0  0  0  0
   -0.2257   -1.4991   -0.2583 H   0  0  0  0  0  0  0  0  0  0  0  0
    1.5763   -1.2955   -1.3766 C   0  0  0  0  0  0  0  0  0  0  0  0
    1.0693   -1.2951   -2.3476 H   0  0  0  0  0  0  0  0  0  0  0  0
    2.4342   -0.6170   -1.4399 H   0  0  0  0  0  0  0  0  0  0  0  0
    2.0466   -2.7056   -1.0290 C   0  0  0  0  0  0  0  0  0  0  0  0
    2.5485   -2.6866   -0.0502 H   0  0  0  0  0  0  0  0  0  0  0  0
    1.1713   -3.3644   -0.9291 H   0  0  0  0  0  0  0  0  0  0  0  0
    2.9590   -3.1867   -2.0888 N   0  3  0  0  0  0  0  0  0  0  0  0
    3.7622   -2.5596   -2.1665 H   0  0  0  0  0  0  0  0  0  0  0  0
    3.2926   -4.1267   -1.8648 H   0  0  0  0  0  0  0  0  0  0  0  0
    2.4707   -3.2122   -2.9857 H   0  0  0  0  0  0  0  0  0  0  0  0
   -1.0743    2.7347    0.0645 C   0  0  0  0  0  0  0  0  0  0  0  0
   -0.1531    3.4078   -0.3769 O   0  0  0  0  0  0  0  0  0  0  0  0
   -2.3261    3.3191    0.1633 N   0  0  0  0  0  0  0  0  0  0  0  0
   -3.0132    2.8186    0.7193 H   0  0  0  0  0  0  0  0  0  0  0  0
   -2.5584    4.7354   -0.1074 C   0  0  0  0  0  0  0  0  0  0  0  0
   -2.2630    4.9852   -1.1323 H   0  0  0  0  0  0  0  0  0  0  0  0
   -3.6195    4.9758    0.0108 H   0  0  0  0  0  0  0  0  0  0  0  0
   -1.9822    5.3588    0.5848 H   0  0  0  0  0  0  0  0  0  0  0  0
  1  2  1  0  0  0  0
  2  3  1  0  0  0  0
  2  4  1  0  0  0  0
  2  5  1  0  0  0  0
  5  6  2  0  0  0  0
  5  7  1  0  0  0  0
  7  8  1  0  0  0  0
  7  9  1  0  0  0  0
  9 10  1  0  0  0  0
  9 11  1  0  0  0  0
  9 27  1  0  0  0  0
 11 12  1  0  0  0  0
 11 13  1  0  0  0  0
 11 14  1  0  0  0  0
 14 15  1  0  0  0  0
 14 16  1  0  0  0  0
 14 17  1  0  0  0  0
 17 18  1  0  0  0  0
 17 19  1  0  0  0  0
 17 20  1  0  0  0  0
 20 21  1  0  0  0  0
 20 22  1  0  0  0  0
 20 23  1  0  0  0  0
 23 24  1  0  0  0  0
 23 25  1  0  0  0  0
 23 26  1  0  0  0  0
 27 28  2  0  0  0  0
 27 29  1  0  0  0  0
 29 30  1  0  0  0  0
 29 31  1  0  0  0  0
 31 32  1  0  0  0  0
 31 33  1  0  0  0  0
 31 34  1  0  0  0  0
M  CHG  1  23   1
M  END
$$$$

  -OEChem-01062216093D

 34 33  0     1  0  0  0  0  0999 V2000
   -3.7641   -2.3461    1.2825 H   0  0  0  0  0  0  0  0  0  0  0  0
   -3.7699   -1.3434    0.8455 C   0  0  0  0  0  0  0  0  0  0  0  0
   -4.5563   -0.7564    1.3266 H   0  0  0  0  0  0  0  0  0  0  0  0
   -3.9887   -1.4270   -0.2218 H   0  0  0  0  0  0  0  0  0  0  0  0
   -2.4241   -0.6748    1.0526 C   0  0  0  0  0  0  0  0  0  0  0  0
   -1.5821   -1.2070    1.7572 O   0  0  0  0  0  0  0  0  0  0  0  0
   -2.1774    0.5611    0.4873 N   0  0  0  0  0  0  0  0  0  0  0  0
   -2.9142    0.9230   -0.1150 H   0  0  0  0  0  0  0  0  0  0  0  0
   -0.8620    1.2379    0.4180 C   0  0  1  0  0  0  0  0  0  0  0  0
   -0.3891    1.2042    1.4057 H   0  0  0  0  0  0  0  0  0  0  0  0
    0.1099    0.6077   -0.6253 C   0  0  0  0  0  0  0  0  0  0  0  0
   -0.3877    0.5960   -1.6009 H   0  0  0  0  0  0  0  0  0  0  0  0
    0.9940    1.2484   -0.7153 H   0  0  0  0  0  0  0  0  0  0  0  0
    0.6184   -0.8027   -0.2958 C   0  0  0  0  0  0  0  0  0  0  0  0
    1.1047   -0.7984    0.6863 H   0  0  0  0  0  0  0  0  0  0  0  0
   -0.2216   -1.4991   -0.2624 H   0  0  0  0  0  0  0  0  0  0  0  0
    1.5841   -1.3016   -1.3743 C   0  0  0  0  0  0  0  0  0  0  0  0
    1.0783   -1.2992   -2.3462 H   0  0  0  0  0  0  0  0  0  0  0  0
    2.4442   -0.6253   -1.4356 H   0  0  0  0  0  0  0  0  0  0  0  0
    2.0498   -2.7134   -1.0270 C   0  0  0  0  0  0  0  0  0  0  0  0
    2.5496   -2.6985   -0.0469 H   0  0  0  0  0  0  0  0  0  0  0  0
    1.1722   -3.3700   -0.9312 H   0  0  0  0  0  0  0  0  0  0  0  0
    2.9627   -3.1941   -2.0861 N   0  3  0  0  0  0  0  0  0  0  0  0
    3.7728   -2.5747   -2.1538 H   0  0  0  0  0  0  0  0  0  0  0  0
    3.2853   -4.1396   -1.8695 H   0  0  0  0  0  0  0  0  0  0  0  0
    2.4785   -3.2056   -2.9855 H   0  0  0  0  0  0  0  0  0  0  0  0
   -1.0760    2.7370    0.0680 C   0  0  0  0  0  0  0  0  0  0  0  0
   -0.2744    3.3623   -0.6130 O   0  0  0  0  0  0  0  0  0  0  0  0
   -2.2357    3.3779    0.4698 N   0  0  0  0  0  0  0  0  0  0  0  0
   -2.8118    2.8922    1.1520 H   0  0  0  0  0  0  0  0  0  0  0  0
   -2.4805    4.7985    0.2368 C   0  0  0  0  0  0  0  0  0  0  0  0
   -2.4722    5.0194   -0.8360 H   0  0  0  0  0  0  0  0  0  0  0  0
   -3.4567    5.0870    0.6385 H   0  0  0  0  0  0  0  0  0  0  0  0
   -1.7116    5.4062    0.7259 H   0  0  0  0  0  0  0  0  0  0  0  0
  1  2  1  0  0  0  0
  2  3  1  0  0  0  0
  2  4  1  0  0  0  0
  2  5  1  0  0  0  0
  5  6  2  0  0  0  0
  5  7  1  0  0  0  0
  7  8  1  0  0  0  0
  7  9  1  0  0  0  0
  9 10  1  0  0  0  0
  9 11  1  0  0  0  0
  9 27  1  0  0  0  0
 11 12  1  0  0  0  0
 11 13  1  0  0  0  0
 11 14  1  0  0  0  0
 14 15  1  0  0  0  0
 14 16  1  0  0  0  0
 14 17  1  0  0  0  0
 17 18  1  0  0  0  0
 17 19  1  0  0  0  0
 17 20  1  0  0  0  0
 20 21  1  0  0  0  0
 20 22  1  0  0  0  0
 20 23  1  0  0  0  0
 23 24  1  0  0  0  0
 23 25  1  0  0  0  0
 23 26  1  0  0  0  0
 27 28  2  0  0  0  0
 27 29  1  0  0  0  0
 29 30  1  0  0  0  0
 29 31  1  0  0  0  0
 31 32  1  0  0  0  0
 31 33  1  0  0  0  0
 31 34  1  0  0  0  0
M  CHG  1  23   1
M  END
$$$$

  -OEChem-01062216093D

 34 33  0     1  0  0  0  0  0999 V2000
   -3.8161   -2.2997    1.3146 H   0  0  0  0  0  0  0  0  0  0  0  0
   -3.7949   -1.3082    0.8532 C   0  0  0  0  0  0  0  0  0  0  0  0
   -4.5671   -0.6897    1.3177 H   0  0  0  0  0  0  0  0  0  0  0  0
   -4.0133   -1.4121   -0.2123 H   0  0  0  0  0  0  0  0  0  0  0  0
   -2.4327   -0.6698    1.0475 C   0  0  0  0  0  0  0  0  0  0  0  0
   -1.5946   -1.2235    1.7403 O   0  0  0  0  0  0  0  0  0  0  0  0
   -2.1682    0.5664    0.4917 N   0  0  0  0  0  0  0  0  0  0  0  0
   -2.9083    0.9571   -0.0885 H   0  0  0  0  0  0  0  0  0  0  0  0
   -0.8480    1.2316    0.4363 C   0  0  1  0  0  0  0  0  0  0  0  0
   -0.3803    1.1894    1.4261 H   0  0  0  0  0  0  0  0  0  0  0  0
    0.1267    0.6053   -0.6052 C   0  0  0  0  0  0  0  0  0  0  0  0
   -0.3649    0.6049   -1.5841 H   0  0  0  0  0  0  0  0  0  0  0  0
    1.0120    1.2467   -0.6816 H   0  0  0  0  0  0  0  0  0  0  0  0
    0.6254   -0.8113   -0.2896 C   0  0  0  0  0  0  0  0  0  0  0  0
    1.1058   -0.8219    0.6953 H   0  0  0  0  0  0  0  0  0  0  0  0
   -0.2185   -1.5039   -0.2694 H   0  0  0  0  0  0  0  0  0  0  0  0
    1.5944   -1.2991   -1.3704 C   0  0  0  0  0  0  0  0  0  0  0  0
    1.0933   -1.2810   -2.3446 H   0  0  0  0  0  0  0  0  0  0  0  0
    2.4573   -0.6255   -1.4185 H   0  0  0  0  0  0  0  0  0  0  0  0
    2.0526   -2.7171   -1.0413 C   0  0  0  0  0  0  0  0  0  0  0  0
    2.5475   -2.7173   -0.0589 H   0  0  0  0  0  0  0  0  0  0  0  0
    1.1721   -3.3712   -0.9586 H   0  0  0  0  0  0  0  0  0  0  0  0
    2.9686   -3.1864   -2.1030 N   0  3  0  0  0  0  0  0  0  0  0  0
    3.7795   -2.5671   -2.1612 H   0  0  0  0  0  0  0  0  0  0  0  0
    3.2889   -4.1349   -1.8963 H   0  0  0  0  0  0  0  0  0  0  0  0
    2.4871   -3.1868   -3.0041 H   0  0  0  0  0  0  0  0  0  0  0  0
   -1.0622    2.7304    0.0923 C   0  0  0  0  0  0  0  0  0  0  0  0
   -0.4257    3.2955   -0.7874 O   0  0  0  0  0  0  0  0  0  0  0  0
   -2.0553    3.4389    0.7447 N   0  0  0  0  0  0  0  0  0  0  0  0
   -2.5187    2.9779    1.5235 H   0  0  0  0  0  0  0  0  0  0  0  0
   -2.3136    4.8567    0.5112 C   0  0  0  0  0  0  0  0  0  0  0  0
   -2.5747    5.0322   -0.5380 H   0  0  0  0  0  0  0  0  0  0  0  0
   -3.1456    5.1994    1.1342 H   0  0  0  0  0  0  0  0  0  0  0  0
   -1.4289    5.4541    0.7566 H   0  0  0  0  0  0  0  0  0  0  0  0
  1  2  1  0  0  0  0
  2  3  1  0  0  0  0
  2  4  1  0  0  0  0
  2  5  1  0  0  0  0
  5  6  2  0  0  0  0
  5  7  1  0  0  0  0
  7  8  1  0  0  0  0
  7  9  1  0  0  0  0
  9 10  1  0  0  0  0
  9 11  1  0  0  0  0
  9 27  1  0  0  0  0
 11 12  1  0  0  0  0
 11 13  1  0  0  0  0
 11 14  1  0  0  0  0
 14 15  1  0  0  0  0
 14 16  1  0  0  0  0
 14 17  1  0  0  0  0
 17 18  1  0  0  0  0
 17 19  1  0  0  0  0
 17 20  1  0  0  0  0
 20 21  1  0  0  0  0
 20 22  1  0  0  0  0
 20 23  1  0  0  0  0
 23 24  1  0  0  0  0
 23 25  1  0  0  0  0
 23 26  1  0  0  0  0
 27 28  2  0  0  0  0
 27 29  1  0  0  0  0
 29 30  1  0  0  0  0
 29 31  1  0  0  0  0
 31 32  1  0  0  0  0
 31 33  1  0  0  0  0
 31 34  1  0  0  0  0
M  CHG  1  23   1
M  END
$$$$

  -OEChem-01062216093D

 34 33  0     1  0  0  0  0  0999 V2000
   -3.8125   -2.2970    1.2777 H   0  0  0  0  0  0  0  0  0  0  0  0
   -3.7923   -1.2941    0.8419 C   0  0  0  0  0  0  0  0  0  0  0  0
   -4.5634   -0.6872    1.3228 H   0  0  0  0  0  0  0  0  0  0  0  0
   -4.0121   -1.3708   -0.2256 H   0  0  0  0  0  0  0  0  0  0  0  0
   -2.4302   -0.6607    1.0509 C   0  0  0  0  0  0  0  0  0  0  0  0
   -1.5976   -1.2211    1.7454 O   0  0  0  0  0  0  0  0  0  0  0  0
   -2.1560    0.5757    0.5013 N   0  0  0  0  0  0  0  0  0  0  0  0
   -2.8925    0.9774   -0.0762 H   0  0  0  0  0  0  0  0  0  0  0  0
   -0.8332    1.2328    0.4554 C   0  0  1  0  0  0  0  0  0  0  0  0
   -0.3661    1.1821    1.4451 H   0  0  0  0  0  0  0  0  0  0  0  0
    0.1396    0.6093   -0.5885 C   0  0  0  0  0  0  0  0  0  0  0  0
   -0.3507    0.6145   -1.5683 H   0  0  0  0  0  0  0  0  0  0  0  0
    1.0235    1.2533   -0.6607 H   0  0  0  0  0  0  0  0  0  0  0  0
    0.6281   -0.8133   -0.2822 C   0  0  0  0  0  0  0  0  0  0  0  0
    1.1068   -0.8352    0.7032 H   0  0  0  0  0  0  0  0  0  0  0  0
   -0.2211   -1.4997   -0.2681 H   0  0  0  0  0  0  0  0  0  0  0  0
    1.5963   -1.2997   -1.3643 C   0  0  0  0  0  0  0  0  0  0  0  0
    1.0974   -1.2708   -2.3394 H   0  0  0  0  0  0  0  0  0  0  0  0
    2.4639   -0.6317   -1.4051 H   0  0  0  0  0  0  0  0  0  0  0  0
    2.0453   -2.7236   -1.0467 C   0  0  0  0  0  0  0  0  0  0  0  0
    2.5387   -2.7363   -0.0634 H   0  0  0  0  0  0  0  0  0  0  0  0
    1.1609   -3.3733   -0.9709 H   0  0  0  0  0  0  0  0  0  0  0  0
    2.9603   -3.1882   -2.1117 N   0  3  0  0  0  0  0  0  0  0  0  0
    3.7742   -2.5724   -2.1638 H   0  0  0  0  0  0  0  0  0  0  0  0
    3.2759   -4.1401   -1.9132 H   0  0  0  0  0  0  0  0  0  0  0  0
    2.4795   -3.1784   -3.0133 H   0  0  0  0  0  0  0  0  0  0  0  0
   -1.0455    2.7312    0.1159 C   0  0  0  0  0  0  0  0  0  0  0  0
   -0.6182    3.2302   -0.9172 O   0  0  0  0  0  0  0  0  0  0  0  0
   -1.8080    3.5136    0.9636 N   0  0  0  0  0  0  0  0  0  0  0  0
   -2.1475    3.0840    1.8204 H   0  0  0  0  0  0  0  0  0  0  0  0
   -2.0779    4.9290    0.7282 C   0  0  0  0  0  0  0  0  0  0  0  0
   -2.6150    5.0663   -0.2164 H   0  0  0  0  0  0  0  0  0  0  0  0
   -2.6923    5.3387    1.5361 H   0  0  0  0  0  0  0  0  0  0  0  0
   -1.1420    5.4965    0.6854 H   0  0  0  0  0  0  0  0  0  0  0  0
  1  2  1  0  0  0  0
  2  3  1  0  0  0  0
  2  4  1  0  0  0  0
  2  5  1  0  0  0  0
  5  6  2  0  0  0  0
  5  7  1  0  0  0  0
  7  8  1  0  0  0  0
  7  9  1  0  0  0  0
  9 10  1  0  0  0  0
  9 11  1  0  0  0  0
  9 27  1  0  0  0  0
 11 12  1  0  0  0  0
 11 13  1  0  0  0  0
 11 14  1  0  0  0  0
 14 15  1  0  0  0  0
 14 16  1  0  0  0  0
 14 17  1  0  0  0  0
 17 18  1  0  0  0  0
 17 19  1  0  0  0  0
 17 20  1  0  0  0  0
 20 21  1  0  0  0  0
 20 22  1  0  0  0  0
 20 23  1  0  0  0  0
 23 24  1  0  0  0  0
 23 25  1  0  0  0  0
 23 26  1  0  0  0  0
 27 28  2  0  0  0  0
 27 29  1  0  0  0  0
 29 30  1  0  0  0  0
 29 31  1  0  0  0  0
 31 32  1  0  0  0  0
 31 33  1  0  0  0  0
 31 34  1  0  0  0  0
M  CHG  1  23   1
M  END
$$$$

  -OEChem-01062216093D

 34 33  0     1  0  0  0  0  0999 V2000
   -3.8358   -2.2749    1.2902 H   0  0  0  0  0  0  0  0  0  0  0  0
   -3.8016   -1.2770    0.8441 C   0  0  0  0  0  0  0  0  0  0  0  0
   -4.5660   -0.6552    1.3168 H   0  0  0  0  0  0  0  0  0  0  0  0
   -4.0199   -1.3618   -0.2230 H   0  0  0  0  0  0  0  0  0  0  0  0
   -2.4321   -0.6587    1.0499 C   0  0  0  0  0  0  0  0  0  0  0  0
   -1.6020   -1.2305    1.7386 O   0  0  0  0  0  0  0  0  0  0  0  0
   -2.1481    0.5780    0.5064 N   0  0  0  0  0  0  0  0  0  0  0  0
   -2.8804    0.9913   -0.0686 H   0  0  0  0  0  0  0  0  0  0  0  0
   -0.8226    1.2271    0.4732 C   0  0  1  0  0  0  0  0  0  0  0  0
   -0.3603    1.1635    1.4642 H   0  0  0  0  0  0  0  0  0  0  0  0
    0.1519    0.6139   -0.5736 C   0  0  0  0  0  0  0  0  0  0  0  0
   -0.3355    0.6280   -1.5549 H   0  0  0  0  0  0  0  0  0  0  0  0
    1.0347    1.2601   -0.6370 H   0  0  0  0  0  0  0  0  0  0  0  0
    0.6315   -0.8145   -0.2820 C   0  0  0  0  0  0  0  0  0  0  0  0
    1.1042   -0.8506    0.7059 H   0  0  0  0  0  0  0  0  0  0  0  0
   -0.2222   -1.4957   -0.2805 H   0  0  0  0  0  0  0  0  0  0  0  0
    1.6033   -1.2949   -1.3636 C   0  0  0  0  0  0  0  0  0  0  0  0
    1.1115   -1.2525   -2.3417 H   0  0  0  0  0  0  0  0  0  0  0  0
    2.4755   -0.6324   -1.3920 H   0  0  0  0  0  0  0  0  0  0  0  0
    2.0403   -2.7249   -1.0562 C   0  0  0  0  0  0  0  0  0  0  0  0
    2.5266   -2.7501   -0.0697 H   0  0  0  0  0  0  0  0  0  0  0  0
    1.1504   -3.3686   -0.9924 H   0  0  0  0  0  0  0  0  0  0  0  0
    2.9591   -3.1876   -2.1185 N   0  3  0  0  0  0  0  0  0  0  0  0
    3.7784   -2.5784   -2.1592 H   0  0  0  0  0  0  0  0  0  0  0  0
    3.2654   -4.1438   -1.9261 H   0  0  0  0  0  0  0  0  0  0  0  0
    2.4852   -3.1661   -3.0235 H   0  0  0  0  0  0  0  0  0  0  0  0
   -1.0214    2.7261    0.1377 C   0  0  0  0  0  0  0  0  0  0  0  0
   -0.8316    3.1607   -0.9911 O   0  0  0  0  0  0  0  0  0  0  0  0
   -1.5064    3.5819    1.1088 N   0  0  0  0  0  0  0  0  0  0  0  0
   -1.7128    3.1889    2.0236 H   0  0  0  0  0  0  0  0  0  0  0  0
   -1.7849    4.9946    0.8688 C   0  0  0  0  0  0  0  0  0  0  0  0
   -2.5526    5.1091    0.0961 H   0  0  0  0  0  0  0  0  0  0  0  0
   -2.1442    5.4721    1.7858 H   0  0  0  0  0  0  0  0  0  0  0  0
   -0.8782    5.5152    0.5423 H   0  0  0  0  0  0  0  0  0  0  0  0
  1  2  1  0  0  0  0
  2  3  1  0  0  0  0
  2  4  1  0  0  0  0
  2  5  1  0  0  0  0
  5  6  2  0  0  0  0
  5  7  1  0  0  0  0
  7  8  1  0  0  0  0
  7  9  1  0  0  0  0
  9 10  1  0  0  0  0
  9 11  1  0  0  0  0
  9 27  1  0  0  0  0
 11 12  1  0  0  0  0
 11 13  1  0  0  0  0
 11 14  1  0  0  0  0
 14 15  1  0  0  0  0
 14 16  1  0  0  0  0
 14 17  1  0  0  0  0
 17 18  1  0  0  0  0
 17 19  1  0  0  0  0
 17 20  1  0  0  0  0
 20 21  1  0  0  0  0
 20 22  1  0  0  0  0
 20 23  1  0  0  0  0
 23 24  1  0  0  0  0
 23 25  1  0  0  0  0
 23 26  1  0  0  0  0
 27 28  2  0  0  0  0
 27 29  1  0  0  0  0
 29 30  1  0  0  0  0
 29 31  1  0  0  0  0
 31 32  1  0  0  0  0
 31 33  1  0  0  0  0
 31 34  1  0  0  0  0
M  CHG  1  23   1
M  END
$$$$

  -OEChem-01062216093D

 34 33  0     1  0  0  0  0  0999 V2000
   -3.8588   -2.2540    1.2924 H   0  0  0  0  0  0  0  0  0  0  0  0
   -3.8108   -1.2577    0.8438 C   0  0  0  0  0  0  0  0  0  0  0  0
   -4.5686   -0.6248    1.3126 H   0  0  0  0  0  0  0  0  0  0  0  0
   -4.0270   -1.3420   -0.2238 H   0  0  0  0  0  0  0  0  0  0  0  0
   -2.4345   -0.6554    1.0518 C   0  0  0  0  0  0  0  0  0  0  0  0
   -1.6091   -1.2390    1.7369 O   0  0  0  0  0  0  0  0  0  0  0  0
   -2.1371    0.5789    0.5110 N   0  0  0  0  0  0  0  0  0  0  0  0
   -2.8631    1.0036   -0.0644 H   0  0  0  0  0  0  0  0  0  0  0  0
   -0.8095    1.2210    0.4910 C   0  0  1  0  0  0  0  0  0  0  0  0
   -0.3522    1.1488    1.4836 H   0  0  0  0  0  0  0  0  0  0  0  0
    0.1657    0.6161   -0.5578 C   0  0  0  0  0  0  0  0  0  0  0  0
   -0.3173    0.6402   -1.5412 H   0  0  0  0  0  0  0  0  0  0  0  0
    1.0502    1.2605   -0.6122 H   0  0  0  0  0  0  0  0  0  0  0  0
    0.6350   -0.8181   -0.2778 C   0  0  0  0  0  0  0  0  0  0  0  0
    1.1032   -0.8676    0.7117 H   0  0  0  0  0  0  0  0  0  0  0  0
   -0.2238   -1.4933   -0.2859 H   0  0  0  0  0  0  0  0  0  0  0  0
    1.6092   -1.2928   -1.3595 C   0  0  0  0  0  0  0  0  0  0  0  0
    1.1224   -1.2368   -2.3394 H   0  0  0  0  0  0  0  0  0  0  0  0
    2.4852   -0.6351   -1.3757 H   0  0  0  0  0  0  0  0  0  0  0  0
    2.0363   -2.7284   -1.0651 C   0  0  0  0  0  0  0  0  0  0  0  0
    2.5169   -2.7670   -0.0762 H   0  0  0  0  0  0  0  0  0  0  0  0
    1.1417   -3.3667   -1.0135 H   0  0  0  0  0  0  0  0  0  0  0  0
    2.9579   -3.1864   -2.1272 N   0  3  0  0  0  0  0  0  0  0  0  0
    3.7830   -2.5843   -2.1556 H   0  0  0  0  0  0  0  0  0  0  0  0
    3.2542   -4.1476   -1.9449 H   0  0  0  0  0  0  0  0  0  0  0  0
    2.4898   -3.1497   -3.0347 H   0  0  0  0  0  0  0  0  0  0  0  0
   -0.9963    2.7187    0.1524 C   0  0  0  0  0  0  0  0  0  0  0  0
   -1.0703    3.0922   -1.0111 O   0  0  0  0  0  0  0  0  0  0  0  0
   -1.1831    3.6398    1.1660 N   0  0  0  0  0  0  0  0  0  0  0  0
   -1.2154    3.2917    2.1207 H   0  0  0  0  0  0  0  0  0  0  0  0
   -1.4655    5.0513    0.9225 C   0  0  0  0  0  0  0  0  0  0  0  0
   -2.4079    5.1655    0.3762 H   0  0  0  0  0  0  0  0  0  0  0  0
   -1.5482    5.5919    1.8706 H   0  0  0  0  0  0  0  0  0  0  0  0
   -0.6616    5.5083    0.3353 H   0  0  0  0  0  0  0  0  0  0  0  0
  1  2  1  0  0  0  0
  2  3  1  0  0  0  0
  2  4  1  0  0  0  0
  2  5  1  0  0  0  0
  5  6  2  0  0  0  0
  5  7  1  0  0  0  0
  7  8  1  0  0  0  0
  7  9  1  0  0  0  0
  9 10  1  0  0  0  0
  9 11  1  0  0  0  0
  9 27  1  0  0  0  0
 11 12  1  0  0  0  0
 11 13  1  0  0  0  0
 11 14  1  0  0  0  0
 14 15  1  0  0  0  0
 14 16  1  0  0  0  0
 14 17  1  0  0  0  0
 17 18  1  0  0  0  0
 17 19  1  0  0  0  0
 17 20  1  0  0  0  0
 20 21  1  0  0  0  0
 20 22  1  0  0  0  0
 20 23  1  0  0  0  0
 23 24  1  0  0  0  0
 23 25  1  0  0  0  0
 23 26  1  0  0  0  0
 27 28  2  0  0  0  0
 27 29  1  0  0  0  0
 29 30  1  0  0  0  0
 29 31  1  0  0  0  0
 31 32  1  0  0  0  0
 31 33  1  0  0  0  0
 31 34  1  0  0  0  0
M  CHG  1  23   1
M  END
$$$$

  -OEChem-01062216093D

 34 33  0     1  0  0  0  0  0999 V2000
   -3.8814   -2.2294    1.3076 H   0  0  0  0  0  0  0  0  0  0  0  0
   -3.8216   -1.2375    0.8507 C   0  0  0  0  0  0  0  0  0  0  0  0
   -4.5671   -0.5904    1.3197 H   0  0  0  0  0  0  0  0  0  0  0  0
   -4.0463   -1.3267   -0.2147 H   0  0  0  0  0  0  0  0  0  0  0  0
   -2.4351   -0.6539    1.0456 C   0  0  0  0  0  0  0  0  0  0  0  0
   -1.6107   -1.2504    1.7209 O   0  0  0  0  0  0  0  0  0  0  0  0
   -2.1258    0.5780    0.5060 N   0  0  0  0  0  0  0  0  0  0  0  0
   -2.8491    1.0188   -0.0617 H   0  0  0  0  0  0  0  0  0  0  0  0
   -0.7972    1.2165    0.4964 C   0  0  1  0  0  0  0  0  0  0  0  0
   -0.3455    1.1393    1.4913 H   0  0  0  0  0  0  0  0  0  0  0  0
    0.1796    0.6229   -0.5551 C   0  0  0  0  0  0  0  0  0  0  0  0
   -0.3008    0.6575   -1.5393 H   0  0  0  0  0  0  0  0  0  0  0  0
    1.0662    1.2653   -0.6015 H   0  0  0  0  0  0  0  0  0  0  0  0
    0.6409   -0.8154   -0.2832 C   0  0  0  0  0  0  0  0  0  0  0  0
    1.1025   -0.8731    0.7091 H   0  0  0  0  0  0  0  0  0  0  0  0
   -0.2216   -1.4857   -0.3002 H   0  0  0  0  0  0  0  0  0  0  0  0
    1.6189   -1.2913   -1.3610 C   0  0  0  0  0  0  0  0  0  0  0  0
    1.1379   -1.2290   -2.3434 H   0  0  0  0  0  0  0  0  0  0  0  0
    2.4996   -0.6398   -1.3700 H   0  0  0  0  0  0  0  0  0  0  0  0
    2.0334   -2.7311   -1.0686 C   0  0  0  0  0  0  0  0  0  0  0  0
    2.5065   -2.7771   -0.0765 H   0  0  0  0  0  0  0  0  0  0  0  0
    1.1339   -3.3631   -1.0259 H   0  0  0  0  0  0  0  0  0  0  0  0
    2.9587   -3.1928   -2.1256 N   0  3  0  0  0  0  0  0  0  0  0  0
    3.7912   -2.6008   -2.1429 H   0  0  0  0  0  0  0  0  0  0  0  0
    3.2416   -4.1588   -1.9470 H   0  0  0  0  0  0  0  0  0  0  0  0
    2.4987   -3.1446   -3.0367 H   0  0  0  0  0  0  0  0  0  0  0  0
   -0.9797    2.7116    0.1530 C   0  0  0  0  0  0  0  0  0  0  0  0
   -1.3126    3.0420   -0.9779 O   0  0  0  0  0  0  0  0  0  0  0  0
   -0.8660    3.6773    1.1356 N   0  0  0  0  0  0  0  0  0  0  0  0
   -0.7046    3.3646    2.0893 H   0  0  0  0  0  0  0  0  0  0  0  0
   -1.1387    5.0916    0.8991 C   0  0  0  0  0  0  0  0  0  0  0  0
   -2.1843    5.2382    0.6074 H   0  0  0  0  0  0  0  0  0  0  0  0
   -0.9487    5.6721    1.8072 H   0  0  0  0  0  0  0  0  0  0  0  0
   -0.4941    5.4793    0.1029 H   0  0  0  0  0  0  0  0  0  0  0  0
  1  2  1  0  0  0  0
  2  3  1  0  0  0  0
  2  4  1  0  0  0  0
  2  5  1  0  0  0  0
  5  6  2  0  0  0  0
  5  7  1  0  0  0  0
  7  8  1  0  0  0  0
  7  9  1  0  0  0  0
  9 10  1  0  0  0  0
  9 11  1  0  0  0  0
  9 27  1  0  0  0  0
 11 12  1  0  0  0  0
 11 13  1  0  0  0  0
 11 14  1  0  0  0  0
 14 15  1  0  0  0  0
 14 16  1  0  0  0  0
 14 17  1  0  0  0  0
 17 18  1  0  0  0  0
 17 19  1  0  0  0  0
 17 20  1  0  0  0  0
 20 21  1  0  0  0  0
 20 22  1  0  0  0  0
 20 23  1  0  0  0  0
 23 24  1  0  0  0  0
 23 25  1  0  0  0  0
 23 26  1  0  0  0  0
 27 28  2  0  0  0  0
 27 29  1  0  0  0  0
 29 30  1  0  0  0  0
 29 31  1  0  0  0  0
 31 32  1  0  0  0  0
 31 33  1  0  0  0  0
 31 34  1  0  0  0  0
M  CHG  1  23   1
M  END
$$$$

  -OEChem-01062216093D

 34 33  0     1  0  0  0  0  0999 V2000
   -3.8845   -2.2208    1.2994 H   0  0  0  0  0  0  0  0  0  0  0  0
   -3.8226   -1.2243    0.8531 C   0  0  0  0  0  0  0  0  0  0  0  0
   -4.5613   -0.5782    1.3340 H   0  0  0  0  0  0  0  0  0  0  0  0
   -4.0545   -1.3003   -0.2119 H   0  0  0  0  0  0  0  0  0  0  0  0
   -2.4321   -0.6503    1.0443 C   0  0  0  0  0  0  0  0  0  0  0  0
   -1.6085   -1.2534    1.7153 O   0  0  0  0  0  0  0  0  0  0  0  0
   -2.1154    0.5775    0.5011 N   0  0  0  0  0  0  0  0  0  0  0  0
   -2.8393    1.0328   -0.0558 H   0  0  0  0  0  0  0  0  0  0  0  0
   -0.7873    1.2155    0.5007 C   0  0  1  0  0  0  0  0  0  0  0  0
   -0.3427    1.1379    1.4983 H   0  0  0  0  0  0  0  0  0  0  0  0
    0.1891    0.6279   -0.5526 C   0  0  0  0  0  0  0  0  0  0  0  0
   -0.2899    0.6721   -1.5374 H   0  0  0  0  0  0  0  0  0  0  0  0
    1.0783    1.2671   -0.5919 H   0  0  0  0  0  0  0  0  0  0  0  0
    0.6440   -0.8134   -0.2858 C   0  0  0  0  0  0  0  0  0  0  0  0
    1.1010   -0.8770    0.7081 H   0  0  0  0  0  0  0  0  0  0  0  0
   -0.2216   -1.4792   -0.3093 H   0  0  0  0  0  0  0  0  0  0  0  0
    1.6231   -1.2921   -1.3607 C   0  0  0  0  0  0  0  0  0  0  0  0
    1.1462   -1.2249   -2.3449 H   0  0  0  0  0  0  0  0  0  0  0  0
    2.5073   -0.6454   -1.3647 H   0  0  0  0  0  0  0  0  0  0  0  0
    2.0283   -2.7352   -1.0696 C   0  0  0  0  0  0  0  0  0  0  0  0
    2.4979   -2.7855   -0.0760 H   0  0  0  0  0  0  0  0  0  0  0  0
    1.1253   -3.3627   -1.0301 H   0  0  0  0  0  0  0  0  0  0  0  0
    2.9551   -3.2001   -2.1241 N   0  3  0  0  0  0  0  0  0  0  0  0
    3.7895   -2.6106   -2.1395 H   0  0  0  0  0  0  0  0  0  0  0  0
    3.2348   -4.1669   -1.9445 H   0  0  0  0  0  0  0  0  0  0  0  0
    2.4975   -3.1511   -3.0364 H   0  0  0  0  0  0  0  0  0  0  0  0
   -0.9655    2.7075    0.1463 C   0  0  0  0  0  0  0  0  0  0  0  0
   -1.5267    3.0147   -0.8979 O   0  0  0  0  0  0  0  0  0  0  0  0
   -0.5682    3.6991    1.0239 N   0  0  0  0  0  0  0  0  0  0  0  0
   -0.2143    3.4128    1.9327 H   0  0  0  0  0  0  0  0  0  0  0  0
   -0.8245    5.1170    0.7890 C   0  0  0  0  0  0  0  0  0  0  0  0
   -1.9017    5.3106    0.7473 H   0  0  0  0  0  0  0  0  0  0  0  0
   -0.3960    5.7189    1.5965 H   0  0  0  0  0  0  0  0  0  0  0  0
   -0.3736    5.4392   -0.1559 H   0  0  0  0  0  0  0  0  0  0  0  0
  1  2  1  0  0  0  0
  2  3  1  0  0  0  0
  2  4  1  0  0  0  0
  2  5  1  0  0  0  0
  5  6  2  0  0  0  0
  5  7  1  0  0  0  0
  7  8  1  0  0  0  0
  7  9  1  0  0  0  0
  9 10  1  0  0  0  0
  9 11  1  0  0  0  0
  9 27  1  0  0  0  0
 11 12  1  0  0  0  0
 11 13  1  0  0  0  0
 11 14  1  0  0  0  0
 14 15  1  0  0  0  0
 14 16  1  0  0  0  0
 14 17  1  0  0  0  0
 17 18  1  0  0  0  0
 17 19  1  0  0  0  0
 17 20  1  0  0  0  0
 20 21  1  0  0  0  0
 20 22  1  0  0  0  0
 20 23  1  0  0  0  0
 23 24  1  0  0  0  0
 23 25  1  0  0  0  0
 23 26  1  0  0  0  0
 27 28  2  0  0  0  0
 27 29  1  0  0  0  0
 29 30  1  0  0  0  0
 29 31  1  0  0  0  0
 31 32  1  0  0  0  0
 31 33  1  0  0  0  0
 31 34  1  0  0  0  0
M  CHG  1  23   1
M  END
$$$$

  -OEChem-01062216093D

 34 33  0     1  0  0  0  0  0999 V2000
   -3.9108   -2.2050    1.3177 H   0  0  0  0  0  0  0  0  0  0  0  0
   -3.8388   -1.2120    0.8649 C   0  0  0  0  0  0  0  0  0  0  0  0
   -4.5629   -0.5520    1.3493 H   0  0  0  0  0  0  0  0  0  0  0  0
   -4.0832   -1.2911   -0.1971 H   0  0  0  0  0  0  0  0  0  0  0  0
   -2.4380   -0.6564    1.0383 C   0  0  0  0  0  0  0  0  0  0  0  0
   -1.6125   -1.2724    1.6952 O   0  0  0  0  0  0  0  0  0  0  0  0
   -2.1132    0.5685    0.4930 N   0  0  0  0  0  0  0  0  0  0  0  0
   -2.8448    1.0486   -0.0333 H   0  0  0  0  0  0  0  0  0  0  0  0
   -0.7876    1.2121    0.4993 C   0  0  1  0  0  0  0  0  0  0  0  0
   -0.3490    1.1395    1.5001 H   0  0  0  0  0  0  0  0  0  0  0  0
    0.1908    0.6302   -0.5538 C   0  0  0  0  0  0  0  0  0  0  0  0
   -0.2884    0.6771   -1.5383 H   0  0  0  0  0  0  0  0  0  0  0  0
    1.0791    1.2703   -0.5914 H   0  0  0  0  0  0  0  0  0  0  0  0
    0.6480   -0.8110   -0.2899 C   0  0  0  0  0  0  0  0  0  0  0  0
    1.1027   -0.8768    0.7051 H   0  0  0  0  0  0  0  0  0  0  0  0
   -0.2167   -1.4783   -0.3168 H   0  0  0  0  0  0  0  0  0  0  0  0
    1.6299   -1.2877   -1.3638 C   0  0  0  0  0  0  0  0  0  0  0  0
    1.1546   -1.2211   -2.3488 H   0  0  0  0  0  0  0  0  0  0  0  0
    2.5140   -0.6408   -1.3664 H   0  0  0  0  0  0  0  0  0  0  0  0
    2.0339   -2.7308   -1.0706 C   0  0  0  0  0  0  0  0  0  0  0  0
    2.5004   -2.7800   -0.0755 H   0  0  0  0  0  0  0  0  0  0  0  0
    1.1300   -3.3569   -1.0331 H   0  0  0  0  0  0  0  0  0  0  0  0
    2.9635   -3.1999   -2.1206 N   0  3  0  0  0  0  0  0  0  0  0  0
    3.8007   -2.6145   -2.1325 H   0  0  0  0  0  0  0  0  0  0  0  0
    3.2375   -4.1679   -1.9390 H   0  0  0  0  0  0  0  0  0  0  0  0
    2.5102   -3.1495   -3.0350 H   0  0  0  0  0  0  0  0  0  0  0  0
   -0.9650    2.7020    0.1346 C   0  0  0  0  0  0  0  0  0  0  0  0
   -1.7128    3.0083   -0.7860 O   0  0  0  0  0  0  0  0  0  0  0  0
   -0.3149    3.6939    0.8458 N   0  0  0  0  0  0  0  0  0  0  0  0
    0.2154    3.4179    1.6675 H   0  0  0  0  0  0  0  0  0  0  0  0
   -0.5302    5.1165    0.5989 C   0  0  0  0  0  0  0  0  0  0  0  0
   -1.5724    5.3876    0.7990 H   0  0  0  0  0  0  0  0  0  0  0  0
    0.1140    5.7170    1.2488 H   0  0  0  0  0  0  0  0  0  0  0  0
   -0.2964    5.3663   -0.4417 H   0  0  0  0  0  0  0  0  0  0  0  0
  1  2  1  0  0  0  0
  2  3  1  0  0  0  0
  2  4  1  0  0  0  0
  2  5  1  0  0  0  0
  5  6  2  0  0  0  0
  5  7  1  0  0  0  0
  7  8  1  0  0  0  0
  7  9  1  0  0  0  0
  9 10  1  0  0  0  0
  9 11  1  0  0  0  0
  9 27  1  0  0  0  0
 11 12  1  0  0  0  0
 11 13  1  0  0  0  0
 11 14  1  0  0  0  0
 14 15  1  0  0  0  0
 14 16  1  0  0  0  0
 14 17  1  0  0  0  0
 17 18  1  0  0  0  0
 17 19  1  0  0  0  0
 17 20  1  0  0  0  0
 20 21  1  0  0  0  0
 20 22  1  0  0  0  0
 20 23  1  0  0  0  0
 23 24  1  0  0  0  0
 23 25  1  0  0  0  0
 23 26  1  0  0  0  0
 27 28  2  0  0  0  0
 27 29  1  0  0  0  0
 29 30  1  0  0  0  0
 29 31  1  0  0  0  0
 31 32  1  0  0  0  0
 31 33  1  0  0  0  0
 31 34  1  0  0  0  0
M  CHG  1  23   1
M  END
$$$$

  -OEChem-01062216093D

 34 33  0     1  0  0  0  0  0999 V2000
   -3.9287   -2.1896    1.3354 H   0  0  0  0  0  0  0  0  0  0  0  0
   -3.8516   -1.1982    0.8803 C   0  0  0  0  0  0  0  0  0  0  0  0
   -4.5591   -0.5288    1.3764 H   0  0  0  0  0  0  0  0  0  0  0  0
   -4.1144   -1.2743   -0.1775 H   0  0  0  0  0  0  0  0  0  0  0  0
   -2.4414   -0.6604    1.0291 C   0  0  0  0  0  0  0  0  0  0  0  0
   -1.6143   -1.2843    1.6768 O   0  0  0  0  0  0  0  0  0  0  0  0
   -2.1131    0.5615    0.4800 N   0  0  0  0  0  0  0  0  0  0  0  0
   -2.8549    1.0647   -0.0105 H   0  0  0  0  0  0  0  0  0  0  0  0
   -0.7906    1.2113    0.4938 C   0  0  1  0  0  0  0  0  0  0  0  0
   -0.3578    1.1456    1.4977 H   0  0  0  0  0  0  0  0  0  0  0  0
    0.1910    0.6295   -0.5569 C   0  0  0  0  0  0  0  0  0  0  0  0
   -0.2870    0.6761   -1.5420 H   0  0  0  0  0  0  0  0  0  0  0  0
    1.0799    1.2687   -0.5932 H   0  0  0  0  0  0  0  0  0  0  0  0
    0.6505   -0.8110   -0.2927 C   0  0  0  0  0  0  0  0  0  0  0  0
    1.1025   -0.8769    0.7033 H   0  0  0  0  0  0  0  0  0  0  0  0
   -0.2128   -1.4797   -0.3235 H   0  0  0  0  0  0  0  0  0  0  0  0
    1.6352   -1.2863   -1.3644 C   0  0  0  0  0  0  0  0  0  0  0  0
    1.1621   -1.2199   -2.3504 H   0  0  0  0  0  0  0  0  0  0  0  0
    2.5184   -0.6380   -1.3642 H   0  0  0  0  0  0  0  0  0  0  0  0
    2.0413   -2.7292   -1.0709 C   0  0  0  0  0  0  0  0  0  0  0  0
    2.5054   -2.7788   -0.0746 H   0  0  0  0  0  0  0  0  0  0  0  0
    1.1383   -3.3567   -1.0355 H   0  0  0  0  0  0  0  0  0  0  0  0
    2.9737   -3.1963   -2.1194 N   0  3  0  0  0  0  0  0  0  0  0  0
    3.8106   -2.6105   -2.1288 H   0  0  0  0  0  0  0  0  0  0  0  0
    3.2480   -4.1644   -1.9383 H   0  0  0  0  0  0  0  0  0  0  0  0
    2.5225   -3.1454   -3.0348 H   0  0  0  0  0  0  0  0  0  0  0  0
   -0.9693    2.6999    0.1175 C   0  0  0  0  0  0  0  0  0  0  0  0
   -1.8709    3.0255   -0.6460 O   0  0  0  0  0  0  0  0  0  0  0  0
   -0.1128    3.6676    0.6104 N   0  0  0  0  0  0  0  0  0  0  0  0
    0.5585    3.3879    1.3199 H   0  0  0  0  0  0  0  0  0  0  0  0
   -0.2909    5.0916    0.3416 C   0  0  0  0  0  0  0  0  0  0  0  0
   -1.2387    5.4459    0.7613 H   0  0  0  0  0  0  0  0  0  0  0  0
    0.5237    5.6678    0.7913 H   0  0  0  0  0  0  0  0  0  0  0  0
   -0.2917    5.2837   -0.7369 H   0  0  0  0  0  0  0  0  0  0  0  0
  1  2  1  0  0  0  0
  2  3  1  0  0  0  0
  2  4  1  0  0  0  0
  2  5  1  0  0  0  0
  5  6  2  0  0  0  0
  5  7  1  0  0  0  0
  7  8  1  0  0  0  0
  7  9  1  0  0  0  0
  9 10  1  0  0  0  0
  9 11  1  0  0  0  0
  9 27  1  0  0  0  0
 11 12  1  0  0  0  0
 11 13  1  0  0  0  0
 11 14  1  0  0  0  0
 14 15  1  0  0  0  0
 14 16  1  0  0  0  0
 14 17  1  0  0  0  0
 17 18  1  0  0  0  0
 17 19  1  0  0  0  0
 17 20  1  0  0  0  0
 20 21  1  0  0  0  0
 20 22  1  0  0  0  0
 20 23  1  0  0  0  0
 23 24  1  0  0  0  0
 23 25  1  0  0  0  0
 23 26  1  0  0  0  0
 27 28  2  0  0  0  0
 27 29  1  0  0  0  0
 29 30  1  0  0  0  0
 29 31  1  0  0  0  0
 31 32  1  0  0  0  0
 31 33  1  0  0  0  0
 31 34  1  0  0  0  0
M  CHG  1  23   1
M  END
$$$$

  -OEChem-01062216093D

 34 33  0     1  0  0  0  0  0999 V2000
   -3.9279   -2.1861    1.3336 H   0  0  0  0  0  0  0  0  0  0  0  0
   -3.8507   -1.1921    0.8843 C   0  0  0  0  0  0  0  0  0  0  0  0
   -4.5456   -0.5207    1.3950 H   0  0  0  0  0  0  0  0  0  0  0  0
   -4.1300   -1.2590   -0.1699 H   0  0  0  0  0  0  0  0  0  0  0  0
   -2.4348   -0.6656    1.0154 C   0  0  0  0  0  0  0  0  0  0  0  0
   -1.6044   -1.2982    1.6502 O   0  0  0  0  0  0  0  0  0  0  0  0
   -2.1073    0.5573    0.4682 N   0  0  0  0  0  0  0  0  0  0  0  0
   -2.8636    1.0867    0.0290 H   0  0  0  0  0  0  0  0  0  0  0  0
   -0.7893    1.2170    0.4843 C   0  0  1  0  0  0  0  0  0  0  0  0
   -0.3566    1.1570    1.4887 H   0  0  0  0  0  0  0  0  0  0  0  0
    0.1920    0.6332   -0.5690 C   0  0  0  0  0  0  0  0  0  0  0  0
   -0.2903    0.6762   -1.5520 H   0  0  0  0  0  0  0  0  0  0  0  0
    1.0807    1.2716   -0.6126 H   0  0  0  0  0  0  0  0  0  0  0  0
    0.6569   -0.8056   -0.3035 C   0  0  0  0  0  0  0  0  0  0  0  0
    1.1083   -0.8690    0.6929 H   0  0  0  0  0  0  0  0  0  0  0  0
   -0.2051   -1.4756   -0.3341 H   0  0  0  0  0  0  0  0  0  0  0  0
    1.6404   -1.2875   -1.3738 C   0  0  0  0  0  0  0  0  0  0  0  0
    1.1664   -1.2292   -2.3601 H   0  0  0  0  0  0  0  0  0  0  0  0
    2.5248   -0.6408   -1.3803 H   0  0  0  0  0  0  0  0  0  0  0  0
    2.0432   -2.7286   -1.0665 C   0  0  0  0  0  0  0  0  0  0  0  0
    2.5070   -2.7683   -0.0698 H   0  0  0  0  0  0  0  0  0  0  0  0
    1.1384   -3.3529   -1.0243 H   0  0  0  0  0  0  0  0  0  0  0  0
    2.9748   -3.2116   -2.1085 N   0  3  0  0  0  0  0  0  0  0  0  0
    3.8120   -2.6264   -2.1272 H   0  0  0  0  0  0  0  0  0  0  0  0
    3.2488   -4.1772   -1.9129 H   0  0  0  0  0  0  0  0  0  0  0  0
    2.5230   -3.1746   -3.0242 H   0  0  0  0  0  0  0  0  0  0  0  0
   -0.9765    2.7069    0.1062 C   0  0  0  0  0  0  0  0  0  0  0  0
   -2.0049    3.0672   -0.4554 O   0  0  0  0  0  0  0  0  0  0  0  0
    0.0245    3.6341    0.3365 N   0  0  0  0  0  0  0  0  0  0  0  0
    0.8231    3.3387    0.8902 H   0  0  0  0  0  0  0  0  0  0  0  0
   -0.1349    5.0563    0.0470 C   0  0  0  0  0  0  0  0  0  0  0  0
   -0.9378    5.4844    0.6570 H   0  0  0  0  0  0  0  0  0  0  0  0
    0.7917    5.5959    0.2666 H   0  0  0  0  0  0  0  0  0  0  0  0
   -0.3784    5.2094   -1.0101 H   0  0  0  0  0  0  0  0  0  0  0  0
  1  2  1  0  0  0  0
  2  3  1  0  0  0  0
  2  4  1  0  0  0  0
  2  5  1  0  0  0  0
  5  6  2  0  0  0  0
  5  7  1  0  0  0  0
  7  8  1  0  0  0  0
  7  9  1  0  0  0  0
  9 10  1  0  0  0  0
  9 11  1  0  0  0  0
  9 27  1  0  0  0  0
 11 12  1  0  0  0  0
 11 13  1  0  0  0  0
 11 14  1  0  0  0  0
 14 15  1  0  0  0  0
 14 16  1  0  0  0  0
 14 17  1  0  0  0  0
 17 18  1  0  0  0  0
 17 19  1  0  0  0  0
 17 20  1  0  0  0  0
 20 21  1  0  0  0  0
 20 22  1  0  0  0  0
 20 23  1  0  0  0  0
 23 24  1  0  0  0  0
 23 25  1  0  0  0  0
 23 26  1  0  0  0  0
 27 28  2  0  0  0  0
 27 29  1  0  0  0  0
 29 30  1  0  0  0  0
 29 31  1  0  0  0  0
 31 32  1  0  0  0  0
 31 33  1  0  0  0  0
 31 34  1  0  0  0  0
M  CHG  1  23   1
M  END
$$$$

  -OEChem-01062216093D

 34 33  0     1  0  0  0  0  0999 V2000
   -3.7929   -2.1969    1.4078 H   0  0  0  0  0  0  0  0  0  0  0  0
   -3.7677   -1.2037    0.9505 C   0  0  0  0  0  0  0  0  0  0  0  0
   -4.3580   -0.5197    1.5655 H   0  0  0  0  0  0  0  0  0  0  0  0
   -4.2134   -1.2615   -0.0452 H   0  0  0  0  0  0  0  0  0  0  0  0
   -2.3376   -0.7086    0.8519 C   0  0  0  0  0  0  0  0  0  0  0  0
   -1.4179   -1.4122    1.2430 O   0  0  0  0  0  0  0  0  0  0  0  0
   -2.0807    0.5455    0.3359 N   0  0  0  0  0  0  0  0  0  0  0  0
   -2.8918    1.1506    0.1887 H   0  0  0  0  0  0  0  0  0  0  0  0
   -0.7772    1.2324    0.3755 C   0  0  1  0  0  0  0  0  0  0  0  0
   -0.2233    0.9426    1.2751 H   0  0  0  0  0  0  0  0  0  0  0  0
    0.0525    0.9104   -0.8942 C   0  0  0  0  0  0  0  0  0  0  0  0
   -0.5476    1.1519   -1.7783 H   0  0  0  0  0  0  0  0  0  0  0  0
    0.9411    1.5492   -0.9150 H   0  0  0  0  0  0  0  0  0  0  0  0
    0.5137   -0.5528   -0.9731 C   0  0  0  0  0  0  0  0  0  0  0  0
    1.0862   -0.8049   -0.0731 H   0  0  0  0  0  0  0  0  0  0  0  0
   -0.3621   -1.2064   -1.0124 H   0  0  0  0  0  0  0  0  0  0  0  0
    1.3506   -0.8185   -2.2274 C   0  0  0  0  0  0  0  0  0  0  0  0
    0.7633   -0.5701   -3.1185 H   0  0  0  0  0  0  0  0  0  0  0  0
    2.2425   -0.1826   -2.2172 H   0  0  0  0  0  0  0  0  0  0  0  0
    1.7522   -2.2925   -2.2537 C   0  0  0  0  0  0  0  0  0  0  0  0
    2.3302   -2.5244   -1.3468 H   0  0  0  0  0  0  0  0  0  0  0  0
    0.8440   -2.9128   -2.2222 H   0  0  0  0  0  0  0  0  0  0  0  0
    2.5412   -2.5666   -3.4741 N   0  3  0  0  0  0  0  0  0  0  0  0
    3.3830   -1.9879   -3.4833 H   0  0  0  0  0  0  0  0  0  0  0  0
    2.8151   -3.5514   -3.5002 H   0  0  0  0  0  0  0  0  0  0  0  0
    1.9837   -2.3559   -4.3040 H   0  0  0  0  0  0  0  0  0  0  0  0
   -1.0116    2.7641    0.4314 C   0  0  0  0  0  0  0  0  0  0  0  0
   -2.1534    3.2052    0.3644 O   0  0  0  0  0  0  0  0  0  0  0  0
    0.0450    3.6572    0.4786 N   0  0  0  0  0  0  0  0  0  0  0  0
    0.9768    3.2808    0.6227 H   0  0  0  0  0  0  0  0  0  0  0  0
   -0.1448    5.1027    0.5646 C   0  0  0  0  0  0  0  0  0  0  0  0
   -0.6667    5.3667    1.4909 H   0  0  0  0  0  0  0  0  0  0  0  0
    0.8218    5.6158    0.5545 H   0  0  0  0  0  0  0  0  0  0  0  0
   -0.7338    5.4647   -0.2852 H   0  0  0  0  0  0  0  0  0  0  0  0
  1  2  1  0  0  0  0
  2  3  1  0  0  0  0
  2  4  1  0  0  0  0
  2  5  1  0  0  0  0
  5  6  2  0  0  0  0
  5  7  1  0  0  0  0
  7  8  1  0  0  0  0
  7  9  1  0  0  0  0
  9 10  1  0  0  0  0
  9 11  1  0  0  0  0
  9 27  1  0  0  0  0
 11 12  1  0  0  0  0
 11 13  1  0  0  0  0
 11 14  1  0  0  0  0
 14 15  1  0  0  0  0
 14 16  1  0  0  0  0
 14 17  1  0  0  0  0
 17 18  1  0  0  0  0
 17 19  1  0  0  0  0
 17 20  1  0  0  0  0
 20 21  1  0  0  0  0
 20 22  1  0  0  0  0
 20 23  1  0  0  0  0
 23 24  1  0  0  0  0
 23 25  1  0  0  0  0
 23 26  1  0  0  0  0
 27 28  2  0  0  0  0
 27 29  1  0  0  0  0
 29 30  1  0  0  0  0
 29 31  1  0  0  0  0
 31 32  1  0  0  0  0
 31 33  1  0  0  0  0
 31 34  1  0  0  0  0
M  CHG  1  23   1
M  END
$$$$

  -OEChem-01062216093D

 34 33  0     1  0  0  0  0  0999 V2000
   -3.7930   -2.1802    1.4172 H   0  0  0  0  0  0  0  0  0  0  0  0
   -3.7668   -1.1865    0.9614 C   0  0  0  0  0  0  0  0  0  0  0  0
   -4.3338   -0.4969    1.5917 H   0  0  0  0  0  0  0  0  0  0  0  0
   -4.2371   -1.2371   -0.0234 H   0  0  0  0  0  0  0  0  0  0  0  0
   -2.3340   -0.7066    0.8298 C   0  0  0  0  0  0  0  0  0  0  0  0
   -1.4146   -1.4203    1.2030 O   0  0  0  0  0  0  0  0  0  0  0  0
   -2.0792    0.5504    0.3185 N   0  0  0  0  0  0  0  0  0  0  0  0
   -2.8903    1.1672    0.2329 H   0  0  0  0  0  0  0  0  0  0  0  0
   -0.7732    1.2344    0.3591 C   0  0  1  0  0  0  0  0  0  0  0  0
   -0.2197    0.9456    1.2593 H   0  0  0  0  0  0  0  0  0  0  0  0
    0.0609    0.9051   -0.9093 C   0  0  0  0  0  0  0  0  0  0  0  0
   -0.5347    1.1474   -1.7964 H   0  0  0  0  0  0  0  0  0  0  0  0
    0.9554    1.5348   -0.9289 H   0  0  0  0  0  0  0  0  0  0  0  0
    0.5195   -0.5587   -0.9849 C   0  0  0  0  0  0  0  0  0  0  0  0
    1.0870   -0.8121   -0.0822 H   0  0  0  0  0  0  0  0  0  0  0  0
   -0.3581   -1.2090   -1.0295 H   0  0  0  0  0  0  0  0  0  0  0  0
    1.3596   -0.8303   -2.2354 C   0  0  0  0  0  0  0  0  0  0  0  0
    0.7765   -0.5829   -3.1295 H   0  0  0  0  0  0  0  0  0  0  0  0
    2.2539   -0.1979   -2.2236 H   0  0  0  0  0  0  0  0  0  0  0  0
    1.7557   -2.3060   -2.2537 C   0  0  0  0  0  0  0  0  0  0  0  0
    2.3286   -2.5363   -1.3431 H   0  0  0  0  0  0  0  0  0  0  0  0
    0.8446   -2.9223   -2.2232 H   0  0  0  0  0  0  0  0  0  0  0  0
    2.5483   -2.5893   -3.4696 N   0  3  0  0  0  0  0  0  0  0  0  0
    3.3945   -2.0171   -3.4766 H   0  0  0  0  0  0  0  0  0  0  0  0
    2.8150   -3.5762   -3.4913 H   0  0  0  0  0  0  0  0  0  0  0  0
    1.9965   -2.3771   -4.3028 H   0  0  0  0  0  0  0  0  0  0  0  0
   -1.0178    2.7673    0.4243 C   0  0  0  0  0  0  0  0  0  0  0  0
   -2.1534    3.1872    0.6160 O   0  0  0  0  0  0  0  0  0  0  0  0
   -0.0136    3.6871    0.1723 N   0  0  0  0  0  0  0  0  0  0  0  0
    0.9361    3.3391    0.0895 H   0  0  0  0  0  0  0  0  0  0  0  0
   -0.2238    5.1309    0.2413 C   0  0  0  0  0  0  0  0  0  0  0  0
   -0.5220    5.4273    1.2527 H   0  0  0  0  0  0  0  0  0  0  0  0
    0.6971    5.6627   -0.0171 H   0  0  0  0  0  0  0  0  0  0  0  0
   -1.0065    5.4405   -0.4598 H   0  0  0  0  0  0  0  0  0  0  0  0
  1  2  1  0  0  0  0
  2  3  1  0  0  0  0
  2  4  1  0  0  0  0
  2  5  1  0  0  0  0
  5  6  2  0  0  0  0
  5  7  1  0  0  0  0
  7  8  1  0  0  0  0
  7  9  1  0  0  0  0
  9 10  1  0  0  0  0
  9 11  1  0  0  0  0
  9 27  1  0  0  0  0
 11 12  1  0  0  0  0
 11 13  1  0  0  0  0
 11 14  1  0  0  0  0
 14 15  1  0  0  0  0
 14 16  1  0  0  0  0
 14 17  1  0  0  0  0
 17 18  1  0  0  0  0
 17 19  1  0  0  0  0
 17 20  1  0  0  0  0
 20 21  1  0  0  0  0
 20 22  1  0  0  0  0
 20 23  1  0  0  0  0
 23 24  1  0  0  0  0
 23 25  1  0  0  0  0
 23 26  1  0  0  0  0
 27 28  2  0  0  0  0
 27 29  1  0  0  0  0
 29 30  1  0  0  0  0
 29 31  1  0  0  0  0
 31 32  1  0  0  0  0
 31 33  1  0  0  0  0
 31 34  1  0  0  0  0
M  CHG  1  23   1
M  END
$$$$

  -OEChem-01062216093D

 34 33  0     1  0  0  0  0  0999 V2000
   -3.7931   -2.1606    1.4253 H   0  0  0  0  0  0  0  0  0  0  0  0
   -3.7669   -1.1659    0.9716 C   0  0  0  0  0  0  0  0  0  0  0  0
   -4.3130   -0.4725    1.6163 H   0  0  0  0  0  0  0  0  0  0  0  0
   -4.2595   -1.2093   -0.0027 H   0  0  0  0  0  0  0  0  0  0  0  0
   -2.3326   -0.7003    0.8100 C   0  0  0  0  0  0  0  0  0  0  0  0
   -1.4144   -1.4258    1.1625 O   0  0  0  0  0  0  0  0  0  0  0  0
   -2.0788    0.5594    0.3043 N   0  0  0  0  0  0  0  0  0  0  0  0
   -2.8865    1.1847    0.2721 H   0  0  0  0  0  0  0  0  0  0  0  0
   -0.7681    1.2356    0.3383 C   0  0  1  0  0  0  0  0  0  0  0  0
   -0.2138    0.9451    1.2376 H   0  0  0  0  0  0  0  0  0  0  0  0
    0.0709    0.9002   -0.9267 C   0  0  0  0  0  0  0  0  0  0  0  0
   -0.5183    1.1441   -1.8175 H   0  0  0  0  0  0  0  0  0  0  0  0
    0.9705    1.5227   -0.9399 H   0  0  0  0  0  0  0  0  0  0  0  0
    0.5262   -0.5646   -0.9978 C   0  0  0  0  0  0  0  0  0  0  0  0
    1.0870   -0.8183   -0.0909 H   0  0  0  0  0  0  0  0  0  0  0  0
   -0.3535   -1.2113   -1.0481 H   0  0  0  0  0  0  0  0  0  0  0  0
    1.3709   -0.8435   -2.2431 C   0  0  0  0  0  0  0  0  0  0  0  0
    0.7933   -0.5973   -3.1409 H   0  0  0  0  0  0  0  0  0  0  0  0
    2.2681   -0.2153   -2.2286 H   0  0  0  0  0  0  0  0  0  0  0  0
    1.7602   -2.3210   -2.2516 C   0  0  0  0  0  0  0  0  0  0  0  0
    2.3269   -2.5497   -1.3367 H   0  0  0  0  0  0  0  0  0  0  0  0
    0.8459   -2.9326   -2.2228 H   0  0  0  0  0  0  0  0  0  0  0  0
    2.5578   -2.6150   -3.4616 N   0  3  0  0  0  0  0  0  0  0  0  0
    3.4072   -2.0474   -3.4666 H   0  0  0  0  0  0  0  0  0  0  0  0
    2.8196   -3.6034   -3.4765 H   0  0  0  0  0  0  0  0  0  0  0  0
    2.0119   -2.4045   -4.2991 H   0  0  0  0  0  0  0  0  0  0  0  0
   -1.0203    2.7680    0.4169 C   0  0  0  0  0  0  0  0  0  0  0  0
   -2.0865    3.1690    0.8678 O   0  0  0  0  0  0  0  0  0  0  0  0
   -0.1491    3.7051   -0.1143 N   0  0  0  0  0  0  0  0  0  0  0  0
    0.7526    3.3802   -0.4462 H   0  0  0  0  0  0  0  0  0  0  0  0
   -0.3931    5.1439   -0.0534 C   0  0  0  0  0  0  0  0  0  0  0  0
   -0.4510    5.4795    0.9878 H   0  0  0  0  0  0  0  0  0  0  0  0
    0.4175    5.6886   -0.5471 H   0  0  0  0  0  0  0  0  0  0  0  0
   -1.3330    5.3976   -0.5560 H   0  0  0  0  0  0  0  0  0  0  0  0
  1  2  1  0  0  0  0
  2  3  1  0  0  0  0
  2  4  1  0  0  0  0
  2  5  1  0  0  0  0
  5  6  2  0  0  0  0
  5  7  1  0  0  0  0
  7  8  1  0  0  0  0
  7  9  1  0  0  0  0
  9 10  1  0  0  0  0
  9 11  1  0  0  0  0
  9 27  1  0  0  0  0
 11 12  1  0  0  0  0
 11 13  1  0  0  0  0
 11 14  1  0  0  0  0
 14 15  1  0  0  0  0
 14 16  1  0  0  0  0
 14 17  1  0  0  0  0
 17 18  1  0  0  0  0
 17 19  1  0  0  0  0
 17 20  1  0  0  0  0
 20 21  1  0  0  0  0
 20 22  1  0  0  0  0
 20 23  1  0  0  0  0
 23 24  1  0  0  0  0
 23 25  1  0  0  0  0
 23 26  1  0  0  0  0
 27 28  2  0  0  0  0
 27 29  1  0  0  0  0
 29 30  1  0  0  0  0
 29 31  1  0  0  0  0
 31 32  1  0  0  0  0
 31 33  1  0  0  0  0
 31 34  1  0  0  0  0
M  CHG  1  23   1
M  END
$$$$

  -OEChem-01062216093D

 34 33  0     1  0  0  0  0  0999 V2000
   -3.8048   -2.1401    1.4407 H   0  0  0  0  0  0  0  0  0  0  0  0
   -3.7782   -1.1412    0.9961 C   0  0  0  0  0  0  0  0  0  0  0  0
   -4.2954   -0.4473    1.6639 H   0  0  0  0  0  0  0  0  0  0  0  0
   -4.2996   -1.1681    0.0363 H   0  0  0  0  0  0  0  0  0  0  0  0
   -2.3428   -0.6938    0.7967 C   0  0  0  0  0  0  0  0  0  0  0  0
   -1.4260   -1.4336    1.1213 O   0  0  0  0  0  0  0  0  0  0  0  0
   -2.0888    0.5680    0.2952 N   0  0  0  0  0  0  0  0  0  0  0  0
   -2.8928    1.1977    0.2991 H   0  0  0  0  0  0  0  0  0  0  0  0
   -0.7720    1.2328    0.3184 C   0  0  1  0  0  0  0  0  0  0  0  0
   -0.2195    0.9400    1.2182 H   0  0  0  0  0  0  0  0  0  0  0  0
    0.0762    0.8948   -0.9401 C   0  0  0  0  0  0  0  0  0  0  0  0
   -0.5047    1.1389   -1.8363 H   0  0  0  0  0  0  0  0  0  0  0  0
    0.9766    1.5171   -0.9405 H   0  0  0  0  0  0  0  0  0  0  0  0
    0.5317   -0.5702   -1.0094 C   0  0  0  0  0  0  0  0  0  0  0  0
    1.0849   -0.8245   -0.0979 H   0  0  0  0  0  0  0  0  0  0  0  0
   -0.3485   -1.2155   -1.0679 H   0  0  0  0  0  0  0  0  0  0  0  0
    1.3859   -0.8521   -2.2482 C   0  0  0  0  0  0  0  0  0  0  0  0
    0.8161   -0.6067   -3.1511 H   0  0  0  0  0  0  0  0  0  0  0  0
    2.2839   -0.2254   -2.2278 H   0  0  0  0  0  0  0  0  0  0  0  0
    1.7738   -2.3302   -2.2525 C   0  0  0  0  0  0  0  0  0  0  0  0
    2.3340   -2.5585   -1.3335 H   0  0  0  0  0  0  0  0  0  0  0  0
    0.8587   -2.9410   -2.2297 H   0  0  0  0  0  0  0  0  0  0  0  0
    2.5802   -2.6262   -3.4563 N   0  3  0  0  0  0  0  0  0  0  0  0
    3.4325   -2.0629   -3.4532 H   0  0  0  0  0  0  0  0  0  0  0  0
    2.8373   -3.6158   -3.4706 H   0  0  0  0  0  0  0  0  0  0  0  0
    2.0425   -2.4118   -4.2981 H   0  0  0  0  0  0  0  0  0  0  0  0
   -1.0211    2.7638    0.4104 C   0  0  0  0  0  0  0  0  0  0  0  0
   -1.9511    3.1611    1.0998 O   0  0  0  0  0  0  0  0  0  0  0  0
   -0.3449    3.6958   -0.3604 N   0  0  0  0  0  0  0  0  0  0  0  0
    0.4118    3.3685   -0.9508 H   0  0  0  0  0  0  0  0  0  0  0  0
   -0.6269    5.1282   -0.3110 C   0  0  0  0  0  0  0  0  0  0  0  0
   -0.4591    5.5178    0.6990 H   0  0  0  0  0  0  0  0  0  0  0  0
    0.0269    5.6693   -1.0019 H   0  0  0  0  0  0  0  0  0  0  0  0
   -1.6665    5.3262   -0.5941 H   0  0  0  0  0  0  0  0  0  0  0  0
  1  2  1  0  0  0  0
  2  3  1  0  0  0  0
  2  4  1  0  0  0  0
  2  5  1  0  0  0  0
  5  6  2  0  0  0  0
  5  7  1  0  0  0  0
  7  8  1  0  0  0  0
  7  9  1  0  0  0  0
  9 10  1  0  0  0  0
  9 11  1  0  0  0  0
  9 27  1  0  0  0  0
 11 12  1  0  0  0  0
 11 13  1  0  0  0  0
 11 14  1  0  0  0  0
 14 15  1  0  0  0  0
 14 16  1  0  0  0  0
 14 17  1  0  0  0  0
 17 18  1  0  0  0  0
 17 19  1  0  0  0  0
 17 20  1  0  0  0  0
 20 21  1  0  0  0  0
 20 22  1  0  0  0  0
 20 23  1  0  0  0  0
 23 24  1  0  0  0  0
 23 25  1  0  0  0  0
 23 26  1  0  0  0  0
 27 28  2  0  0  0  0
 27 29  1  0  0  0  0
 29 30  1  0  0  0  0
 29 31  1  0  0  0  0
 31 32  1  0  0  0  0
 31 33  1  0  0  0  0
 31 34  1  0  0  0  0
M  CHG  1  23   1
M  END
$$$$

  -OEChem-01062216093D

 34 33  0     1  0  0  0  0  0999 V2000
   -3.8095   -2.1344    1.4500 H   0  0  0  0  0  0  0  0  0  0  0  0
   -3.7842   -1.1340    1.0088 C   0  0  0  0  0  0  0  0  0  0  0  0
   -4.2903   -0.4405    1.6855 H   0  0  0  0  0  0  0  0  0  0  0  0
   -4.3175   -1.1554    0.0555 H   0  0  0  0  0  0  0  0  0  0  0  0
   -2.3495   -0.6913    0.7935 C   0  0  0  0  0  0  0  0  0  0  0  0
   -1.4321   -1.4365    1.1025 O   0  0  0  0  0  0  0  0  0  0  0  0
   -2.0990    0.5718    0.2929 N   0  0  0  0  0  0  0  0  0  0  0  0
   -2.9045    1.1977    0.3039 H   0  0  0  0  0  0  0  0  0  0  0  0
   -0.7800    1.2331    0.3014 C   0  0  1  0  0  0  0  0  0  0  0  0
   -0.2245    0.9394    1.1996 H   0  0  0  0  0  0  0  0  0  0  0  0
    0.0723    0.8951   -0.9534 C   0  0  0  0  0  0  0  0  0  0  0  0
   -0.5085    1.1289   -1.8521 H   0  0  0  0  0  0  0  0  0  0  0  0
    0.9668    1.5270   -0.9533 H   0  0  0  0  0  0  0  0  0  0  0  0
    0.5329   -0.5681   -1.0166 C   0  0  0  0  0  0  0  0  0  0  0  0
    1.0839   -0.8180   -0.1027 H   0  0  0  0  0  0  0  0  0  0  0  0
   -0.3451   -1.2162   -1.0758 H   0  0  0  0  0  0  0  0  0  0  0  0
    1.3918   -0.8523   -2.2515 C   0  0  0  0  0  0  0  0  0  0  0  0
    0.8241   -0.6130   -3.1574 H   0  0  0  0  0  0  0  0  0  0  0  0
    2.2882   -0.2228   -2.2309 H   0  0  0  0  0  0  0  0  0  0  0  0
    1.7835   -2.3293   -2.2476 C   0  0  0  0  0  0  0  0  0  0  0  0
    2.3413   -2.5519   -1.3257 H   0  0  0  0  0  0  0  0  0  0  0  0
    0.8705   -2.9429   -2.2244 H   0  0  0  0  0  0  0  0  0  0  0  0
    2.5948   -2.6279   -3.4474 N   0  3  0  0  0  0  0  0  0  0  0  0
    3.4439   -2.0596   -3.4454 H   0  0  0  0  0  0  0  0  0  0  0  0
    2.8577   -3.6160   -3.4544 H   0  0  0  0  0  0  0  0  0  0  0  0
    2.0584   -2.4220   -4.2921 H   0  0  0  0  0  0  0  0  0  0  0  0
   -1.0193    2.7621    0.4016 C   0  0  0  0  0  0  0  0  0  0  0  0
   -1.7538    3.1738    1.2877 O   0  0  0  0  0  0  0  0  0  0  0  0
   -0.5885    3.6655   -0.5568 N   0  0  0  0  0  0  0  0  0  0  0  0
   -0.0325    3.3134   -1.3286 H   0  0  0  0  0  0  0  0  0  0  0  0
   -0.9046    5.0907   -0.5097 C   0  0  0  0  0  0  0  0  0  0  0  0
   -0.5109    5.5412    0.4079 H   0  0  0  0  0  0  0  0  0  0  0  0
   -0.4600    5.6080   -1.3654 H   0  0  0  0  0  0  0  0  0  0  0  0
   -1.9887    5.2453   -0.5382 H   0  0  0  0  0  0  0  0  0  0  0  0
  1  2  1  0  0  0  0
  2  3  1  0  0  0  0
  2  4  1  0  0  0  0
  2  5  1  0  0  0  0
  5  6  2  0  0  0  0
  5  7  1  0  0  0  0
  7  8  1  0  0  0  0
  7  9  1  0  0  0  0
  9 10  1  0  0  0  0
  9 11  1  0  0  0  0
  9 27  1  0  0  0  0
 11 12  1  0  0  0  0
 11 13  1  0  0  0  0
 11 14  1  0  0  0  0
 14 15  1  0  0  0  0
 14 16  1  0  0  0  0
 14 17  1  0  0  0  0
 17 18  1  0  0  0  0
 17 19  1  0  0  0  0
 17 20  1  0  0  0  0
 20 21  1  0  0  0  0
 20 22  1  0  0  0  0
 20 23  1  0  0  0  0
 23 24  1  0  0  0  0
 23 25  1  0  0  0  0
 23 26  1  0  0  0  0
 27 28  2  0  0  0  0
 27 29  1  0  0  0  0
 29 30  1  0  0  0  0
 29 31  1  0  0  0  0
 31 32  1  0  0  0  0
 31 33  1  0  0  0  0
 31 34  1  0  0  0  0
M  CHG  1  23   1
M  END
$$$$

  -OEChem-01062216093D

 34 33  0     1  0  0  0  0  0999 V2000
   -3.8015   -2.1510    1.4588 H   0  0  0  0  0  0  0  0  0  0  0  0
   -3.7857   -1.1529    1.0118 C   0  0  0  0  0  0  0  0  0  0  0  0
   -4.3050   -0.4624    1.6814 H   0  0  0  0  0  0  0  0  0  0  0  0
   -4.3126   -1.1868    0.0553 H   0  0  0  0  0  0  0  0  0  0  0  0
   -2.3550   -0.6945    0.8025 C   0  0  0  0  0  0  0  0  0  0  0  0
   -1.4317   -1.4318    1.1119 O   0  0  0  0  0  0  0  0  0  0  0  0
   -2.1154    0.5691    0.2962 N   0  0  0  0  0  0  0  0  0  0  0  0
   -2.9298    1.1815    0.2805 H   0  0  0  0  0  0  0  0  0  0  0  0
   -0.7990    1.2361    0.2884 C   0  0  1  0  0  0  0  0  0  0  0  0
   -0.2381    0.9444    1.1842 H   0  0  0  0  0  0  0  0  0  0  0  0
    0.0542    0.8984   -0.9647 C   0  0  0  0  0  0  0  0  0  0  0  0
   -0.5308    1.1154   -1.8647 H   0  0  0  0  0  0  0  0  0  0  0  0
    0.9392    1.5443   -0.9713 H   0  0  0  0  0  0  0  0  0  0  0  0
    0.5266   -0.5610   -1.0178 C   0  0  0  0  0  0  0  0  0  0  0  0
    1.0819   -0.7991   -0.1030 H   0  0  0  0  0  0  0  0  0  0  0  0
   -0.3454   -1.2176   -1.0699 H   0  0  0  0  0  0  0  0  0  0  0  0
    1.3866   -0.8446   -2.2519 C   0  0  0  0  0  0  0  0  0  0  0  0
    0.8162   -0.6156   -3.1588 H   0  0  0  0  0  0  0  0  0  0  0  0
    2.2771   -0.2067   -2.2355 H   0  0  0  0  0  0  0  0  0  0  0  0
    1.7914   -2.3180   -2.2390 C   0  0  0  0  0  0  0  0  0  0  0  0
    2.3513   -2.5289   -1.3157 H   0  0  0  0  0  0  0  0  0  0  0  0
    0.8837   -2.9390   -2.2111 H   0  0  0  0  0  0  0  0  0  0  0  0
    2.6043   -2.6191   -3.4369 N   0  3  0  0  0  0  0  0  0  0  0  0
    3.4450   -2.0385   -3.4432 H   0  0  0  0  0  0  0  0  0  0  0  0
    2.8816   -3.6033   -3.4321 H   0  0  0  0  0  0  0  0  0  0  0  0
    2.0636   -2.4315   -4.2830 H   0  0  0  0  0  0  0  0  0  0  0  0
   -1.0253    2.7643    0.3872 C   0  0  0  0  0  0  0  0  0  0  0  0
   -1.4931    3.2156    1.4208 O   0  0  0  0  0  0  0  0  0  0  0  0
   -0.8772    3.6180   -0.6937 N   0  0  0  0  0  0  0  0  0  0  0  0
   -0.5714    3.2211   -1.5757 H   0  0  0  0  0  0  0  0  0  0  0  0
   -1.1953    5.0421   -0.6344 C   0  0  0  0  0  0  0  0  0  0  0  0
   -0.5762    5.5417    0.1186 H   0  0  0  0  0  0  0  0  0  0  0  0
   -1.0087    5.5157   -1.6031 H   0  0  0  0  0  0  0  0  0  0  0  0
   -2.2494    5.1907   -0.3758 H   0  0  0  0  0  0  0  0  0  0  0  0
  1  2  1  0  0  0  0
  2  3  1  0  0  0  0
  2  4  1  0  0  0  0
  2  5  1  0  0  0  0
  5  6  2  0  0  0  0
  5  7  1  0  0  0  0
  7  8  1  0  0  0  0
  7  9  1  0  0  0  0
  9 10  1  0  0  0  0
  9 11  1  0  0  0  0
  9 27  1  0  0  0  0
 11 12  1  0  0  0  0
 11 13  1  0  0  0  0
 11 14  1  0  0  0  0
 14 15  1  0  0  0  0
 14 16  1  0  0  0  0
 14 17  1  0  0  0  0
 17 18  1  0  0  0  0
 17 19  1  0  0  0  0
 17 20  1  0  0  0  0
 20 21  1  0  0  0  0
 20 22  1  0  0  0  0
 20 23  1  0  0  0  0
 23 24  1  0  0  0  0
 23 25  1  0  0  0  0
 23 26  1  0  0  0  0
 27 28  2  0  0  0  0
 27 29  1  0  0  0  0
 29 30  1  0  0  0  0
 29 31  1  0  0  0  0
 31 32  1  0  0  0  0
 31 33  1  0  0  0  0
 31 34  1  0  0  0  0
M  CHG  1  23   1
M  END
$$$$

  -OEChem-01062216093D

 34 33  0     1  0  0  0  0  0999 V2000
   -3.7915   -2.1834    1.4662 H   0  0  0  0  0  0  0  0  0  0  0  0
   -3.7895   -1.1849    1.0196 C   0  0  0  0  0  0  0  0  0  0  0  0
   -4.3202   -0.5025    1.6883 H   0  0  0  0  0  0  0  0  0  0  0  0
   -4.3135   -1.2260    0.0618 H   0  0  0  0  0  0  0  0  0  0  0  0
   -2.3647   -0.7058    0.8152 C   0  0  0  0  0  0  0  0  0  0  0  0
   -1.4326   -1.4288    1.1306 O   0  0  0  0  0  0  0  0  0  0  0  0
   -2.1392    0.5576    0.3011 N   0  0  0  0  0  0  0  0  0  0  0  0
   -2.9640    1.1532    0.2519 H   0  0  0  0  0  0  0  0  0  0  0  0
   -0.8276    1.2352    0.2821 C   0  0  1  0  0  0  0  0  0  0  0  0
   -0.2614    0.9472    1.1762 H   0  0  0  0  0  0  0  0  0  0  0  0
    0.0271    0.9013   -0.9694 C   0  0  0  0  0  0  0  0  0  0  0  0
   -0.5599    1.1066   -1.8705 H   0  0  0  0  0  0  0  0  0  0  0  0
    0.9022    1.5606   -0.9804 H   0  0  0  0  0  0  0  0  0  0  0  0
    0.5147   -0.5536   -1.0150 C   0  0  0  0  0  0  0  0  0  0  0  0
    1.0748   -0.7798   -0.1004 H   0  0  0  0  0  0  0  0  0  0  0  0
   -0.3504   -1.2201   -1.0604 H   0  0  0  0  0  0  0  0  0  0  0  0
    1.3762   -0.8336   -2.2488 C   0  0  0  0  0  0  0  0  0  0  0  0
    0.8017   -0.6151   -3.1555 H   0  0  0  0  0  0  0  0  0  0  0  0
    2.2590   -0.1848   -2.2366 H   0  0  0  0  0  0  0  0  0  0  0  0
    1.7989   -2.3019   -2.2318 C   0  0  0  0  0  0  0  0  0  0  0  0
    2.3649   -2.5022   -1.3097 H   0  0  0  0  0  0  0  0  0  0  0  0
    0.8997   -2.9350   -2.1992 H   0  0  0  0  0  0  0  0  0  0  0  0
    2.6131   -2.5942   -3.4312 N   0  3  0  0  0  0  0  0  0  0  0  0
    3.4453   -2.0015   -3.4402 H   0  0  0  0  0  0  0  0  0  0  0  0
    2.9047   -3.5743   -3.4259 H   0  0  0  0  0  0  0  0  0  0  0  0
    2.0676   -2.4151   -4.2761 H   0  0  0  0  0  0  0  0  0  0  0  0
   -1.0423    2.7629    0.3739 C   0  0  0  0  0  0  0  0  0  0  0  0
   -1.1863    3.2732    1.4728 O   0  0  0  0  0  0  0  0  0  0  0  0
   -1.1947    3.5552   -0.7516 N   0  0  0  0  0  0  0  0  0  0  0  0
   -1.1475    3.1057   -1.6600 H   0  0  0  0  0  0  0  0  0  0  0  0
   -1.4881    4.9842   -0.6860 C   0  0  0  0  0  0  0  0  0  0  0  0
   -0.6909    5.5162   -0.1553 H   0  0  0  0  0  0  0  0  0  0  0  0
   -1.5696    5.4028   -1.6938 H   0  0  0  0  0  0  0  0  0  0  0  0
   -2.4342    5.1593   -0.1623 H   0  0  0  0  0  0  0  0  0  0  0  0
  1  2  1  0  0  0  0
  2  3  1  0  0  0  0
  2  4  1  0  0  0  0
  2  5  1  0  0  0  0
  5  6  2  0  0  0  0
  5  7  1  0  0  0  0
  7  8  1  0  0  0  0
  7  9  1  0  0  0  0
  9 10  1  0  0  0  0
  9 11  1  0  0  0  0
  9 27  1  0  0  0  0
 11 12  1  0  0  0  0
 11 13  1  0  0  0  0
 11 14  1  0  0  0  0
 14 15  1  0  0  0  0
 14 16  1  0  0  0  0
 14 17  1  0  0  0  0
 17 18  1  0  0  0  0
 17 19  1  0  0  0  0
 17 20  1  0  0  0  0
 20 21  1  0  0  0  0
 20 22  1  0  0  0  0
 20 23  1  0  0  0  0
 23 24  1  0  0  0  0
 23 25  1  0  0  0  0
 23 26  1  0  0  0  0
 27 28  2  0  0  0  0
 27 29  1  0  0  0  0
 29 30  1  0  0  0  0
 29 31  1  0  0  0  0
 31 32  1  0  0  0  0
 31 33  1  0  0  0  0
 31 34  1  0  0  0  0
M  CHG  1  23   1
M  END
$$$$

  -OEChem-01062216093D

 34 33  0     1  0  0  0  0  0999 V2000
   -3.7887   -2.2151    1.4858 H   0  0  0  0  0  0  0  0  0  0  0  0
   -3.7966   -1.2204    1.0308 C   0  0  0  0  0  0  0  0  0  0  0  0
   -4.3411   -0.5399    1.6905 H   0  0  0  0  0  0  0  0  0  0  0  0
   -4.3131   -1.2763    0.0697 H   0  0  0  0  0  0  0  0  0  0  0  0
   -2.3767   -0.7248    0.8316 C   0  0  0  0  0  0  0  0  0  0  0  0
   -1.4372   -1.4370    1.1484 O   0  0  0  0  0  0  0  0  0  0  0  0
   -2.1630    0.5384    0.3108 N   0  0  0  0  0  0  0  0  0  0  0  0
   -2.9947    1.1211    0.2398 H   0  0  0  0  0  0  0  0  0  0  0  0
   -0.8558    1.2255    0.2904 C   0  0  1  0  0  0  0  0  0  0  0  0
   -0.2878    0.9392    1.1841 H   0  0  0  0  0  0  0  0  0  0  0  0
    0.0016    0.9060   -0.9607 C   0  0  0  0  0  0  0  0  0  0  0  0
   -0.5831    1.1135   -1.8625 H   0  0  0  0  0  0  0  0  0  0  0  0
    0.8718    1.5722   -0.9659 H   0  0  0  0  0  0  0  0  0  0  0  0
    0.5006   -0.5448   -1.0096 C   0  0  0  0  0  0  0  0  0  0  0  0
    1.0633   -0.7676   -0.0956 H   0  0  0  0  0  0  0  0  0  0  0  0
   -0.3586   -1.2192   -1.0548 H   0  0  0  0  0  0  0  0  0  0  0  0
    1.3655   -0.8119   -2.2438 C   0  0  0  0  0  0  0  0  0  0  0  0
    0.7909   -0.5932   -3.1506 H   0  0  0  0  0  0  0  0  0  0  0  0
    2.2428   -0.1558   -2.2267 H   0  0  0  0  0  0  0  0  0  0  0  0
    1.8003   -2.2764   -2.2324 C   0  0  0  0  0  0  0  0  0  0  0  0
    2.3659   -2.4763   -1.3100 H   0  0  0  0  0  0  0  0  0  0  0  0
    0.9063   -2.9169   -2.2045 H   0  0  0  0  0  0  0  0  0  0  0  0
    2.6184   -2.5583   -3.4315 N   0  3  0  0  0  0  0  0  0  0  0  0
    3.4433   -1.9554   -3.4401 H   0  0  0  0  0  0  0  0  0  0  0  0
    2.9218   -3.5348   -3.4258 H   0  0  0  0  0  0  0  0  0  0  0  0
    2.0714   -2.3861   -4.2768 H   0  0  0  0  0  0  0  0  0  0  0  0
   -1.0674    2.7523    0.3734 C   0  0  0  0  0  0  0  0  0  0  0  0
   -0.8703    3.3302    1.4296 O   0  0  0  0  0  0  0  0  0  0  0  0
   -1.5173    3.4775   -0.7166 N   0  0  0  0  0  0  0  0  0  0  0  0
   -1.7116    2.9735   -1.5760 H   0  0  0  0  0  0  0  0  0  0  0  0
   -1.7701    4.9148   -0.6670 C   0  0  0  0  0  0  0  0  0  0  0  0
   -0.8515    5.4575   -0.4193 H   0  0  0  0  0  0  0  0  0  0  0  0
   -2.1308    5.2725   -1.6363 H   0  0  0  0  0  0  0  0  0  0  0  0
   -2.5282    5.1458    0.0891 H   0  0  0  0  0  0  0  0  0  0  0  0
  1  2  1  0  0  0  0
  2  3  1  0  0  0  0
  2  4  1  0  0  0  0
  2  5  1  0  0  0  0
  5  6  2  0  0  0  0
  5  7  1  0  0  0  0
  7  8  1  0  0  0  0
  7  9  1  0  0  0  0
  9 10  1  0  0  0  0
  9 11  1  0  0  0  0
  9 27  1  0  0  0  0
 11 12  1  0  0  0  0
 11 13  1  0  0  0  0
 11 14  1  0  0  0  0
 14 15  1  0  0  0  0
 14 16  1  0  0  0  0
 14 17  1  0  0  0  0
 17 18  1  0  0  0  0
 17 19  1  0  0  0  0
 17 20  1  0  0  0  0
 20 21  1  0  0  0  0
 20 22  1  0  0  0  0
 20 23  1  0  0  0  0
 23 24  1  0  0  0  0
 23 25  1  0  0  0  0
 23 26  1  0  0  0  0
 27 28  2  0  0  0  0
 27 29  1  0  0  0  0
 29 30  1  0  0  0  0
 29 31  1  0  0  0  0
 31 32  1  0  0  0  0
 31 33  1  0  0  0  0
 31 34  1  0  0  0  0
M  CHG  1  23   1
M  END
$$$$

  -OEChem-01062216093D

 34 33  0     1  0  0  0  0  0999 V2000
   -3.7889   -2.2483    1.5031 H   0  0  0  0  0  0  0  0  0  0  0  0
   -3.8043   -1.2561    1.0430 C   0  0  0  0  0  0  0  0  0  0  0  0
   -4.3575   -0.5772    1.6969 H   0  0  0  0  0  0  0  0  0  0  0  0
   -4.3168   -1.3225    0.0804 H   0  0  0  0  0  0  0  0  0  0  0  0
   -2.3886   -0.7481    0.8468 C   0  0  0  0  0  0  0  0  0  0  0  0
   -1.4434   -1.4506    1.1674 O   0  0  0  0  0  0  0  0  0  0  0  0
   -2.1853    0.5157    0.3239 N   0  0  0  0  0  0  0  0  0  0  0  0
   -3.0221    1.0904    0.2520 H   0  0  0  0  0  0  0  0  0  0  0  0
   -0.8822    1.2120    0.3066 C   0  0  1  0  0  0  0  0  0  0  0  0
   -0.3133    0.9256    1.1998 H   0  0  0  0  0  0  0  0  0  0  0  0
   -0.0227    0.9079   -0.9452 C   0  0  0  0  0  0  0  0  0  0  0  0
   -0.6090    1.1207   -1.8449 H   0  0  0  0  0  0  0  0  0  0  0  0
    0.8429    1.5802   -0.9450 H   0  0  0  0  0  0  0  0  0  0  0  0
    0.4861   -0.5390   -1.0018 C   0  0  0  0  0  0  0  0  0  0  0  0
    1.0492   -0.7637   -0.0884 H   0  0  0  0  0  0  0  0  0  0  0  0
   -0.3691   -1.2181   -1.0510 H   0  0  0  0  0  0  0  0  0  0  0  0
    1.3539   -0.7925   -2.2372 C   0  0  0  0  0  0  0  0  0  0  0  0
    0.7780   -0.5725   -3.1428 H   0  0  0  0  0  0  0  0  0  0  0  0
    2.2264   -0.1300   -2.2158 H   0  0  0  0  0  0  0  0  0  0  0  0
    1.8005   -2.2535   -2.2361 C   0  0  0  0  0  0  0  0  0  0  0  0
    2.3687   -2.4543   -1.3155 H   0  0  0  0  0  0  0  0  0  0  0  0
    0.9125   -2.9022   -2.2118 H   0  0  0  0  0  0  0  0  0  0  0  0
    2.6209   -2.5183   -3.4375 N   0  3  0  0  0  0  0  0  0  0  0  0
    3.4392   -1.9063   -3.4416 H   0  0  0  0  0  0  0  0  0  0  0  0
    2.9349   -3.4913   -3.4390 H   0  0  0  0  0  0  0  0  0  0  0  0
    2.0720   -2.3452   -4.2813 H   0  0  0  0  0  0  0  0  0  0  0  0
   -1.0908    2.7378    0.3857 C   0  0  0  0  0  0  0  0  0  0  0  0
   -0.5887    3.3720    1.2991 O   0  0  0  0  0  0  0  0  0  0  0  0
   -1.8161    3.4053   -0.5864 N   0  0  0  0  0  0  0  0  0  0  0  0
   -2.1912    2.8615   -1.3572 H   0  0  0  0  0  0  0  0  0  0  0  0
   -2.0298    4.8495   -0.5690 C   0  0  0  0  0  0  0  0  0  0  0  0
   -1.0732    5.3802   -0.6254 H   0  0  0  0  0  0  0  0  0  0  0  0
   -2.6442    5.1540   -1.4218 H   0  0  0  0  0  0  0  0  0  0  0  0
   -2.5437    5.1507    0.3503 H   0  0  0  0  0  0  0  0  0  0  0  0
  1  2  1  0  0  0  0
  2  3  1  0  0  0  0
  2  4  1  0  0  0  0
  2  5  1  0  0  0  0
  5  6  2  0  0  0  0
  5  7  1  0  0  0  0
  7  8  1  0  0  0  0
  7  9  1  0  0  0  0
  9 10  1  0  0  0  0
  9 11  1  0  0  0  0
  9 27  1  0  0  0  0
 11 12  1  0  0  0  0
 11 13  1  0  0  0  0
 11 14  1  0  0  0  0
 14 15  1  0  0  0  0
 14 16  1  0  0  0  0
 14 17  1  0  0  0  0
 17 18  1  0  0  0  0
 17 19  1  0  0  0  0
 17 20  1  0  0  0  0
 20 21  1  0  0  0  0
 20 22  1  0  0  0  0
 20 23  1  0  0  0  0
 23 24  1  0  0  0  0
 23 25  1  0  0  0  0
 23 26  1  0  0  0  0
 27 28  2  0  0  0  0
 27 29  1  0  0  0  0
 29 30  1  0  0  0  0
 29 31  1  0  0  0  0
 31 32  1  0  0  0  0
 31 33  1  0  0  0  0
 31 34  1  0  0  0  0
M  CHG  1  23   1
M  END
$$$$

  -OEChem-01062216093D

 34 33  0     1  0  0  0  0  0999 V2000
   -3.7892   -2.2904    1.5074 H   0  0  0  0  0  0  0  0  0  0  0  0
   -3.8125   -1.2931    1.0584 C   0  0  0  0  0  0  0  0  0  0  0  0
   -4.3709   -0.6259    1.7197 H   0  0  0  0  0  0  0  0  0  0  0  0
   -4.3245   -1.3530    0.0951 H   0  0  0  0  0  0  0  0  0  0  0  0
   -2.4005   -0.7730    0.8669 C   0  0  0  0  0  0  0  0  0  0  0  0
   -1.4509   -1.4674    1.1912 O   0  0  0  0  0  0  0  0  0  0  0  0
   -2.2045    0.4902    0.3389 N   0  0  0  0  0  0  0  0  0  0  0  0
   -3.0449    1.0597    0.2730 H   0  0  0  0  0  0  0  0  0  0  0  0
   -0.9049    1.1960    0.3327 C   0  0  1  0  0  0  0  0  0  0  0  0
   -0.3380    0.9126    1.2281 H   0  0  0  0  0  0  0  0  0  0  0  0
   -0.0442    0.8993   -0.9189 C   0  0  0  0  0  0  0  0  0  0  0  0
   -0.6316    1.1167   -1.8170 H   0  0  0  0  0  0  0  0  0  0  0  0
    0.8190    1.5748   -0.9155 H   0  0  0  0  0  0  0  0  0  0  0  0
    0.4721   -0.5441   -0.9844 C   0  0  0  0  0  0  0  0  0  0  0  0
    1.0401   -0.7702   -0.0745 H   0  0  0  0  0  0  0  0  0  0  0  0
   -0.3782   -1.2296   -1.0359 H   0  0  0  0  0  0  0  0  0  0  0  0
    1.3391   -0.7766   -2.2241 C   0  0  0  0  0  0  0  0  0  0  0  0
    0.7578   -0.5516   -3.1250 H   0  0  0  0  0  0  0  0  0  0  0  0
    2.2046   -0.1054   -2.1980 H   0  0  0  0  0  0  0  0  0  0  0  0
    1.8005   -2.2324   -2.2439 C   0  0  0  0  0  0  0  0  0  0  0  0
    2.3734   -2.4400   -1.3280 H   0  0  0  0  0  0  0  0  0  0  0  0
    0.9186   -2.8899   -2.2265 H   0  0  0  0  0  0  0  0  0  0  0  0
    2.6197   -2.4709   -3.4517 N   0  3  0  0  0  0  0  0  0  0  0  0
    3.4316   -1.8502   -3.4492 H   0  0  0  0  0  0  0  0  0  0  0  0
    2.9441   -3.4403   -3.4689 H   0  0  0  0  0  0  0  0  0  0  0  0
    2.0660   -2.2907   -4.2909 H   0  0  0  0  0  0  0  0  0  0  0  0
   -1.1058    2.7232    0.4011 C   0  0  0  0  0  0  0  0  0  0  0  0
   -0.3832    3.3961    1.1183 O   0  0  0  0  0  0  0  0  0  0  0  0
   -2.0551    3.3494   -0.3888 N   0  0  0  0  0  0  0  0  0  0  0  0
   -2.5496    2.7849   -1.0721 H   0  0  0  0  0  0  0  0  0  0  0  0
   -2.2460    4.7969   -0.4008 C   0  0  0  0  0  0  0  0  0  0  0  0
   -1.3405    5.3019   -0.7541 H   0  0  0  0  0  0  0  0  0  0  0  0
   -3.0739    5.0663   -1.0639 H   0  0  0  0  0  0  0  0  0  0  0  0
   -2.4801    5.1614    0.6055 H   0  0  0  0  0  0  0  0  0  0  0  0
  1  2  1  0  0  0  0
  2  3  1  0  0  0  0
  2  4  1  0  0  0  0
  2  5  1  0  0  0  0
  5  6  2  0  0  0  0
  5  7  1  0  0  0  0
  7  8  1  0  0  0  0
  7  9  1  0  0  0  0
  9 10  1  0  0  0  0
  9 11  1  0  0  0  0
  9 27  1  0  0  0  0
 11 12  1  0  0  0  0
 11 13  1  0  0  0  0
 11 14  1  0  0  0  0
 14 15  1  0  0  0  0
 14 16  1  0  0  0  0
 14 17  1  0  0  0  0
 17 18  1  0  0  0  0
 17 19  1  0  0  0  0
 17 20  1  0  0  0  0
 20 21  1  0  0  0  0
 20 22  1  0  0  0  0
 20 23  1  0  0  0  0
 23 24  1  0  0  0  0
 23 25  1  0  0  0  0
 23 26  1  0  0  0  0
 27 28  2  0  0  0  0
 27 29  1  0  0  0  0
 29 30  1  0  0  0  0
 29 31  1  0  0  0  0
 31 32  1  0  0  0  0
 31 33  1  0  0  0  0
 31 34  1  0  0  0  0
M  CHG  1  23   1
M  END
$$$$

  -OEChem-01062216093D

 34 33  0     1  0  0  0  0  0999 V2000
   -3.7747   -2.3347    1.5259 H   0  0  0  0  0  0  0  0  0  0  0  0
   -3.8122   -1.3409    1.0701 C   0  0  0  0  0  0  0  0  0  0  0  0
   -4.3770   -0.6768    1.7292 H   0  0  0  0  0  0  0  0  0  0  0  0
   -4.3271   -1.4143    0.1093 H   0  0  0  0  0  0  0  0  0  0  0  0
   -2.4072   -0.8041    0.8707 C   0  0  0  0  0  0  0  0  0  0  0  0
   -1.4492   -1.4833    1.2021 O   0  0  0  0  0  0  0  0  0  0  0  0
   -2.2273    0.4615    0.3413 N   0  0  0  0  0  0  0  0  0  0  0  0
   -3.0752    1.0182    0.2794 H   0  0  0  0  0  0  0  0  0  0  0  0
   -0.9341    1.1827    0.3413 C   0  0  1  0  0  0  0  0  0  0  0  0
   -0.3685    0.9011    1.2379 H   0  0  0  0  0  0  0  0  0  0  0  0
   -0.0706    0.8892   -0.9104 C   0  0  0  0  0  0  0  0  0  0  0  0
   -0.6615    1.1018   -1.8073 H   0  0  0  0  0  0  0  0  0  0  0  0
    0.7882    1.5707   -0.9113 H   0  0  0  0  0  0  0  0  0  0  0  0
    0.4608   -0.5490   -0.9777 C   0  0  0  0  0  0  0  0  0  0  0  0
    1.0339   -0.7685   -0.0695 H   0  0  0  0  0  0  0  0  0  0  0  0
   -0.3810   -1.2449   -1.0267 H   0  0  0  0  0  0  0  0  0  0  0  0
    1.3285   -0.7695   -2.2199 C   0  0  0  0  0  0  0  0  0  0  0  0
    0.7438   -0.5481   -3.1194 H   0  0  0  0  0  0  0  0  0  0  0  0
    2.1863   -0.0883   -2.1930 H   0  0  0  0  0  0  0  0  0  0  0  0
    1.8071   -2.2197   -2.2451 C   0  0  0  0  0  0  0  0  0  0  0  0
    2.3843   -2.4236   -1.3308 H   0  0  0  0  0  0  0  0  0  0  0  0
    0.9336   -2.8881   -2.2286 H   0  0  0  0  0  0  0  0  0  0  0  0
    2.6267   -2.4446   -3.4553 N   0  3  0  0  0  0  0  0  0  0  0  0
    3.4289   -1.8115   -3.4545 H   0  0  0  0  0  0  0  0  0  0  0  0
    2.9655   -3.4089   -3.4742 H   0  0  0  0  0  0  0  0  0  0  0  0
    2.0683   -2.2721   -4.2929 H   0  0  0  0  0  0  0  0  0  0  0  0
   -1.1206    2.7141    0.4071 C   0  0  0  0  0  0  0  0  0  0  0  0
   -0.2426    3.3993    0.9081 O   0  0  0  0  0  0  0  0  0  0  0  0
   -2.2352    3.3340   -0.1339 N   0  0  0  0  0  0  0  0  0  0  0  0
   -2.8538    2.7740   -0.7104 H   0  0  0  0  0  0  0  0  0  0  0  0
   -2.4035    4.7847   -0.1369 C   0  0  0  0  0  0  0  0  0  0  0  0
   -1.6158    5.2621   -0.7295 H   0  0  0  0  0  0  0  0  0  0  0  0
   -3.3730    5.0558   -0.5661 H   0  0  0  0  0  0  0  0  0  0  0  0
   -2.3600    5.1776    0.8848 H   0  0  0  0  0  0  0  0  0  0  0  0
  1  2  1  0  0  0  0
  2  3  1  0  0  0  0
  2  4  1  0  0  0  0
  2  5  1  0  0  0  0
  5  6  2  0  0  0  0
  5  7  1  0  0  0  0
  7  8  1  0  0  0  0
  7  9  1  0  0  0  0
  9 10  1  0  0  0  0
  9 11  1  0  0  0  0
  9 27  1  0  0  0  0
 11 12  1  0  0  0  0
 11 13  1  0  0  0  0
 11 14  1  0  0  0  0
 14 15  1  0  0  0  0
 14 16  1  0  0  0  0
 14 17  1  0  0  0  0
 17 18  1  0  0  0  0
 17 19  1  0  0  0  0
 17 20  1  0  0  0  0
 20 21  1  0  0  0  0
 20 22  1  0  0  0  0
 20 23  1  0  0  0  0
 23 24  1  0  0  0  0
 23 25  1  0  0  0  0
 23 26  1  0  0  0  0
 27 28  2  0  0  0  0
 27 29  1  0  0  0  0
 29 30  1  0  0  0  0
 29 31  1  0  0  0  0
 31 32  1  0  0  0  0
 31 33  1  0  0  0  0
 31 34  1  0  0  0  0
M  CHG  1  23   1
M  END
$$$$

  -OEChem-01062216093D

 34 33  0     1  0  0  0  0  0999 V2000
   -3.6354   -2.4426    1.3227 H   0  0  0  0  0  0  0  0  0  0  0  0
   -3.7000   -1.4454    0.8775 C   0  0  0  0  0  0  0  0  0  0  0  0
   -4.4328   -0.8601    1.4389 H   0  0  0  0  0  0  0  0  0  0  0  0
   -4.0363   -1.5434   -0.1573 H   0  0  0  0  0  0  0  0  0  0  0  0
   -2.3457   -0.7636    0.9252 C   0  0  0  0  0  0  0  0  0  0  0  0
   -1.3912   -1.3415    1.4184 O   0  0  0  0  0  0  0  0  0  0  0  0
   -2.1950    0.5017    0.3890 N   0  0  0  0  0  0  0  0  0  0  0  0
   -2.9963    0.8716   -0.1129 H   0  0  0  0  0  0  0  0  0  0  0  0
   -0.9181    1.2488    0.3293 C   0  0  1  0  0  0  0  0  0  0  0  0
   -0.3196    0.9910    1.2108 H   0  0  0  0  0  0  0  0  0  0  0  0
   -0.0960    0.9073   -0.9390 C   0  0  0  0  0  0  0  0  0  0  0  0
   -0.7205    1.0721   -1.8234 H   0  0  0  0  0  0  0  0  0  0  0  0
    0.7568    1.5920   -1.0073 H   0  0  0  0  0  0  0  0  0  0  0  0
    0.4485   -0.5285   -0.9487 C   0  0  0  0  0  0  0  0  0  0  0  0
    1.0594   -0.6914   -0.0532 H   0  0  0  0  0  0  0  0  0  0  0  0
   -0.3838   -1.2370   -0.9249 H   0  0  0  0  0  0  0  0  0  0  0  0
    1.2745   -0.8004   -2.2090 C   0  0  0  0  0  0  0  0  0  0  0  0
    0.6551   -0.6290   -3.0961 H   0  0  0  0  0  0  0  0  0  0  0  0
    2.1229   -0.1077   -2.2457 H   0  0  0  0  0  0  0  0  0  0  0  0
    1.7737   -2.2433   -2.1862 C   0  0  0  0  0  0  0  0  0  0  0  0
    2.3880   -2.3968   -1.2864 H   0  0  0  0  0  0  0  0  0  0  0  0
    0.9122   -2.9226   -2.1071 H   0  0  0  0  0  0  0  0  0  0  0  0
    2.5514   -2.5091   -3.4157 N   0  3  0  0  0  0  0  0  0  0  0  0
    3.3499   -1.8732   -3.4655 H   0  0  0  0  0  0  0  0  0  0  0  0
    2.8948   -3.4721   -3.4124 H   0  0  0  0  0  0  0  0  0  0  0  0
    1.9635   -2.3684   -4.2391 H   0  0  0  0  0  0  0  0  0  0  0  0
   -1.1066    2.7835    0.3978 C   0  0  0  0  0  0  0  0  0  0  0  0
   -0.1203    3.4993    0.4935 O   0  0  0  0  0  0  0  0  0  0  0  0
   -2.3419    3.3786    0.2003 N   0  0  0  0  0  0  0  0  0  0  0  0
   -3.1584    2.7869    0.2991 H   0  0  0  0  0  0  0  0  0  0  0  0
   -2.5322    4.8255    0.2651 C   0  0  0  0  0  0  0  0  0  0  0  0
   -1.9032    5.3302   -0.4762 H   0  0  0  0  0  0  0  0  0  0  0  0
   -3.5761    5.0819    0.0591 H   0  0  0  0  0  0  0  0  0  0  0  0
   -2.2722    5.2034    1.2599 H   0  0  0  0  0  0  0  0  0  0  0  0
  1  2  1  0  0  0  0
  2  3  1  0  0  0  0
  2  4  1  0  0  0  0
  2  5  1  0  0  0  0
  5  6  2  0  0  0  0
  5  7  1  0  0  0  0
  7  8  1  0  0  0  0
  7  9  1  0  0  0  0
  9 10  1  0  0  0  0
  9 11  1  0  0  0  0
  9 27  1  0  0  0  0
 11 12  1  0  0  0  0
 11 13  1  0  0  0  0
 11 14  1  0  0  0  0
 14 15  1  0  0  0  0
 14 16  1  0  0  0  0
 14 17  1  0  0  0  0
 17 18  1  0  0  0  0
 17 19  1  0  0  0  0
 17 20  1  0  0  0  0
 20 21  1  0  0  0  0
 20 22  1  0  0  0  0
 20 23  1  0  0  0  0
 23 24  1  0  0  0  0
 23 25  1  0  0  0  0
 23 26  1  0  0  0  0
 27 28  2  0  0  0  0
 27 29  1  0  0  0  0
 29 30  1  0  0  0  0
 29 31  1  0  0  0  0
 31 32  1  0  0  0  0
 31 33  1  0  0  0  0
 31 34  1  0  0  0  0
M  CHG  1  23   1
M  END
$$$$

  -OEChem-01062216093D

 34 33  0     1  0  0  0  0  0999 V2000
   -3.6296   -2.4355    1.2840 H   0  0  0  0  0  0  0  0  0  0  0  0
   -3.6913   -1.4348    0.8467 C   0  0  0  0  0  0  0  0  0  0  0  0
   -4.4348   -0.8573    1.4020 H   0  0  0  0  0  0  0  0  0  0  0  0
   -4.0121   -1.5255   -0.1937 H   0  0  0  0  0  0  0  0  0  0  0  0
   -2.3403   -0.7489    0.9207 C   0  0  0  0  0  0  0  0  0  0  0  0
   -1.3940   -1.3238    1.4329 O   0  0  0  0  0  0  0  0  0  0  0  0
   -2.1802    0.5177    0.3907 N   0  0  0  0  0  0  0  0  0  0  0  0
   -2.9699    0.8907   -0.1296 H   0  0  0  0  0  0  0  0  0  0  0  0
   -0.8995    1.2587    0.3385 C   0  0  1  0  0  0  0  0  0  0  0  0
   -0.3021    0.9999    1.2204 H   0  0  0  0  0  0  0  0  0  0  0  0
   -0.0805    0.9096   -0.9316 C   0  0  0  0  0  0  0  0  0  0  0  0
   -0.7042    1.0816   -1.8150 H   0  0  0  0  0  0  0  0  0  0  0  0
    0.7807    1.5834   -1.0019 H   0  0  0  0  0  0  0  0  0  0  0  0
    0.4524   -0.5302   -0.9431 C   0  0  0  0  0  0  0  0  0  0  0  0
    1.0634   -0.6990   -0.0489 H   0  0  0  0  0  0  0  0  0  0  0  0
   -0.3848   -1.2328   -0.9193 H   0  0  0  0  0  0  0  0  0  0  0  0
    1.2738   -0.8040   -2.2057 C   0  0  0  0  0  0  0  0  0  0  0  0
    0.6537   -0.6257   -3.0910 H   0  0  0  0  0  0  0  0  0  0  0  0
    2.1271   -0.1173   -2.2423 H   0  0  0  0  0  0  0  0  0  0  0  0
    1.7632   -2.2499   -2.1883 C   0  0  0  0  0  0  0  0  0  0  0  0
    2.3781   -2.4112   -1.2903 H   0  0  0  0  0  0  0  0  0  0  0  0
    0.8972   -2.9236   -2.1099 H   0  0  0  0  0  0  0  0  0  0  0  0
    2.5361   -2.5150   -3.4209 N   0  3  0  0  0  0  0  0  0  0  0  0
    3.3423   -1.8884   -3.4664 H   0  0  0  0  0  0  0  0  0  0  0  0
    2.8675   -3.4821   -3.4259 H   0  0  0  0  0  0  0  0  0  0  0  0
    1.9491   -2.3600   -4.2423 H   0  0  0  0  0  0  0  0  0  0  0  0
   -1.1057    2.7927    0.4140 C   0  0  0  0  0  0  0  0  0  0  0  0
   -0.1514    3.5438    0.2708 O   0  0  0  0  0  0  0  0  0  0  0  0
   -2.3725    3.3418    0.5201 N   0  0  0  0  0  0  0  0  0  0  0  0
   -3.1074    2.7213    0.8432 H   0  0  0  0  0  0  0  0  0  0  0  0
   -2.5964    4.7816    0.6203 C   0  0  0  0  0  0  0  0  0  0  0  0
   -2.1956    5.2958   -0.2601 H   0  0  0  0  0  0  0  0  0  0  0  0
   -3.6677    4.9966    0.6837 H   0  0  0  0  0  0  0  0  0  0  0  0
   -2.1082    5.1859    1.5137 H   0  0  0  0  0  0  0  0  0  0  0  0
  1  2  1  0  0  0  0
  2  3  1  0  0  0  0
  2  4  1  0  0  0  0
  2  5  1  0  0  0  0
  5  6  2  0  0  0  0
  5  7  1  0  0  0  0
  7  8  1  0  0  0  0
  7  9  1  0  0  0  0
  9 10  1  0  0  0  0
  9 11  1  0  0  0  0
  9 27  1  0  0  0  0
 11 12  1  0  0  0  0
 11 13  1  0  0  0  0
 11 14  1  0  0  0  0
 14 15  1  0  0  0  0
 14 16  1  0  0  0  0
 14 17  1  0  0  0  0
 17 18  1  0  0  0  0
 17 19  1  0  0  0  0
 17 20  1  0  0  0  0
 20 21  1  0  0  0  0
 20 22  1  0  0  0  0
 20 23  1  0  0  0  0
 23 24  1  0  0  0  0
 23 25  1  0  0  0  0
 23 26  1  0  0  0  0
 27 28  2  0  0  0  0
 27 29  1  0  0  0  0
 29 30  1  0  0  0  0
 29 31  1  0  0  0  0
 31 32  1  0  0  0  0
 31 33  1  0  0  0  0
 31 34  1  0  0  0  0
M  CHG  1  23   1
M  END
$$$$

  -OEChem-01062216093D

 34 33  0     1  0  0  0  0  0999 V2000
   -3.6537   -2.4056    1.2728 H   0  0  0  0  0  0  0  0  0  0  0  0
   -3.7013   -1.4019    0.8402 C   0  0  0  0  0  0  0  0  0  0  0  0
   -4.4350   -0.8156    1.3990 H   0  0  0  0  0  0  0  0  0  0  0  0
   -4.0256   -1.4827   -0.2000 H   0  0  0  0  0  0  0  0  0  0  0  0
   -2.3401   -0.7364    0.9137 C   0  0  0  0  0  0  0  0  0  0  0  0
   -1.4009   -1.3234    1.4252 O   0  0  0  0  0  0  0  0  0  0  0  0
   -2.1640    0.5307    0.3909 N   0  0  0  0  0  0  0  0  0  0  0  0
   -2.9585    0.9331   -0.1010 H   0  0  0  0  0  0  0  0  0  0  0  0
   -0.8787    1.2632    0.3466 C   0  0  1  0  0  0  0  0  0  0  0  0
   -0.2841    1.0012    1.2291 H   0  0  0  0  0  0  0  0  0  0  0  0
   -0.0606    0.9089   -0.9238 C   0  0  0  0  0  0  0  0  0  0  0  0
   -0.6812    1.0901   -1.8076 H   0  0  0  0  0  0  0  0  0  0  0  0
    0.8082    1.5728   -0.9909 H   0  0  0  0  0  0  0  0  0  0  0  0
    0.4613   -0.5348   -0.9405 C   0  0  0  0  0  0  0  0  0  0  0  0
    1.0714   -0.7116   -0.0471 H   0  0  0  0  0  0  0  0  0  0  0  0
   -0.3810   -1.2315   -0.9198 H   0  0  0  0  0  0  0  0  0  0  0  0
    1.2810   -0.8078   -2.2051 C   0  0  0  0  0  0  0  0  0  0  0  0
    0.6616   -0.6205   -3.0891 H   0  0  0  0  0  0  0  0  0  0  0  0
    2.1384   -0.1264   -2.2393 H   0  0  0  0  0  0  0  0  0  0  0  0
    1.7610   -2.2569   -2.1963 C   0  0  0  0  0  0  0  0  0  0  0  0
    2.3755   -2.4273   -1.2999 H   0  0  0  0  0  0  0  0  0  0  0  0
    0.8904   -2.9249   -2.1218 H   0  0  0  0  0  0  0  0  0  0  0  0
    2.5313   -2.5197   -3.4308 N   0  3  0  0  0  0  0  0  0  0  0  0
    3.3416   -1.8985   -3.4734 H   0  0  0  0  0  0  0  0  0  0  0  0
    2.8559   -3.4888   -3.4424 H   0  0  0  0  0  0  0  0  0  0  0  0
    1.9447   -2.3555   -4.2505 H   0  0  0  0  0  0  0  0  0  0  0  0
   -1.1018    2.7959    0.4290 C   0  0  0  0  0  0  0  0  0  0  0  0
   -0.2341    3.5749    0.0602 O   0  0  0  0  0  0  0  0  0  0  0  0
   -2.3217    3.3085    0.8367 N   0  0  0  0  0  0  0  0  0  0  0  0
   -2.9517    2.6630    1.3033 H   0  0  0  0  0  0  0  0  0  0  0  0
   -2.5711    4.7408    0.9726 C   0  0  0  0  0  0  0  0  0  0  0  0
   -2.4303    5.2478    0.0119 H   0  0  0  0  0  0  0  0  0  0  0  0
   -3.5982    4.9182    1.3063 H   0  0  0  0  0  0  0  0  0  0  0  0
   -1.8875    5.1827    1.7057 H   0  0  0  0  0  0  0  0  0  0  0  0
  1  2  1  0  0  0  0
  2  3  1  0  0  0  0
  2  4  1  0  0  0  0
  2  5  1  0  0  0  0
  5  6  2  0  0  0  0
  5  7  1  0  0  0  0
  7  8  1  0  0  0  0
  7  9  1  0  0  0  0
  9 10  1  0  0  0  0
  9 11  1  0  0  0  0
  9 27  1  0  0  0  0
 11 12  1  0  0  0  0
 11 13  1  0  0  0  0
 11 14  1  0  0  0  0
 14 15  1  0  0  0  0
 14 16  1  0  0  0  0
 14 17  1  0  0  0  0
 17 18  1  0  0  0  0
 17 19  1  0  0  0  0
 17 20  1  0  0  0  0
 20 21  1  0  0  0  0
 20 22  1  0  0  0  0
 20 23  1  0  0  0  0
 23 24  1  0  0  0  0
 23 25  1  0  0  0  0
 23 26  1  0  0  0  0
 27 28  2  0  0  0  0
 27 29  1  0  0  0  0
 29 30  1  0  0  0  0
 29 31  1  0  0  0  0
 31 32  1  0  0  0  0
 31 33  1  0  0  0  0
 31 34  1  0  0  0  0
M  CHG  1  23   1
M  END
$$$$

  -OEChem-01062216093D

 34 33  0     1  0  0  0  0  0999 V2000
   -3.6807   -2.3721    1.2788 H   0  0  0  0  0  0  0  0  0  0  0  0
   -3.7148   -1.3684    0.8458 C   0  0  0  0  0  0  0  0  0  0  0  0
   -4.4361   -0.7699    1.4079 H   0  0  0  0  0  0  0  0  0  0  0  0
   -4.0451   -1.4445   -0.1928 H   0  0  0  0  0  0  0  0  0  0  0  0
   -2.3432   -0.7244    0.9105 C   0  0  0  0  0  0  0  0  0  0  0  0
   -1.4088   -1.3252    1.4151 O   0  0  0  0  0  0  0  0  0  0  0  0
   -2.1532    0.5421    0.3922 N   0  0  0  0  0  0  0  0  0  0  0  0
   -2.9550    0.9743   -0.0622 H   0  0  0  0  0  0  0  0  0  0  0  0
   -0.8628    1.2638    0.3523 C   0  0  1  0  0  0  0  0  0  0  0  0
   -0.2713    0.9981    1.2357 H   0  0  0  0  0  0  0  0  0  0  0  0
   -0.0435    0.9058   -0.9166 C   0  0  0  0  0  0  0  0  0  0  0  0
   -0.6590    1.0958   -1.8021 H   0  0  0  0  0  0  0  0  0  0  0  0
    0.8304    1.5640   -0.9757 H   0  0  0  0  0  0  0  0  0  0  0  0
    0.4687   -0.5413   -0.9388 C   0  0  0  0  0  0  0  0  0  0  0  0
    1.0748   -0.7278   -0.0448 H   0  0  0  0  0  0  0  0  0  0  0  0
   -0.3787   -1.2320   -0.9247 H   0  0  0  0  0  0  0  0  0  0  0  0
    1.2889   -0.8108   -2.2038 C   0  0  0  0  0  0  0  0  0  0  0  0
    0.6721   -0.6142   -3.0876 H   0  0  0  0  0  0  0  0  0  0  0  0
    2.1502   -0.1340   -2.2317 H   0  0  0  0  0  0  0  0  0  0  0  0
    1.7611   -2.2622   -2.2049 C   0  0  0  0  0  0  0  0  0  0  0  0
    2.3735   -2.4429   -1.3090 H   0  0  0  0  0  0  0  0  0  0  0  0
    0.8869   -2.9264   -2.1368 H   0  0  0  0  0  0  0  0  0  0  0  0
    2.5315   -2.5186   -3.4407 N   0  3  0  0  0  0  0  0  0  0  0  0
    3.3440   -1.8999   -3.4780 H   0  0  0  0  0  0  0  0  0  0  0  0
    2.8524   -3.4889   -3.4600 H   0  0  0  0  0  0  0  0  0  0  0  0
    1.9459   -2.3455   -4.2595 H   0  0  0  0  0  0  0  0  0  0  0  0
   -1.0965    2.7950    0.4395 C   0  0  0  0  0  0  0  0  0  0  0  0
   -0.3679    3.5853   -0.1446 O   0  0  0  0  0  0  0  0  0  0  0  0
   -2.1902    3.2887    1.1290 N   0  0  0  0  0  0  0  0  0  0  0  0
   -2.7004    2.6305    1.7114 H   0  0  0  0  0  0  0  0  0  0  0  0
   -2.4499    4.7161    1.2938 C   0  0  0  0  0  0  0  0  0  0  0  0
   -2.5814    5.1976    0.3187 H   0  0  0  0  0  0  0  0  0  0  0  0
   -3.3614    4.8719    1.8792 H   0  0  0  0  0  0  0  0  0  0  0  0
   -1.6173    5.2010    1.8147 H   0  0  0  0  0  0  0  0  0  0  0  0
  1  2  1  0  0  0  0
  2  3  1  0  0  0  0
  2  4  1  0  0  0  0
  2  5  1  0  0  0  0
  5  6  2  0  0  0  0
  5  7  1  0  0  0  0
  7  8  1  0  0  0  0
  7  9  1  0  0  0  0
  9 10  1  0  0  0  0
  9 11  1  0  0  0  0
  9 27  1  0  0  0  0
 11 12  1  0  0  0  0
 11 13  1  0  0  0  0
 11 14  1  0  0  0  0
 14 15  1  0  0  0  0
 14 16  1  0  0  0  0
 14 17  1  0  0  0  0
 17 18  1  0  0  0  0
 17 19  1  0  0  0  0
 17 20  1  0  0  0  0
 20 21  1  0  0  0  0
 20 22  1  0  0  0  0
 20 23  1  0  0  0  0
 23 24  1  0  0  0  0
 23 25  1  0  0  0  0
 23 26  1  0  0  0  0
 27 28  2  0  0  0  0
 27 29  1  0  0  0  0
 29 30  1  0  0  0  0
 29 31  1  0  0  0  0
 31 32  1  0  0  0  0
 31 33  1  0  0  0  0
 31 34  1  0  0  0  0
M  CHG  1  23   1
M  END
$$$$

  -OEChem-01062216093D

 34 33  0     1  0  0  0  0  0999 V2000
   -3.7025   -2.3426    1.2876 H   0  0  0  0  0  0  0  0  0  0  0  0
   -3.7249   -1.3391    0.8530 C   0  0  0  0  0  0  0  0  0  0  0  0
   -4.4354   -0.7296    1.4170 H   0  0  0  0  0  0  0  0  0  0  0  0
   -4.0616   -1.4123   -0.1838 H   0  0  0  0  0  0  0  0  0  0  0  0
   -2.3443   -0.7135    0.9095 C   0  0  0  0  0  0  0  0  0  0  0  0
   -1.4140   -1.3271    1.4065 O   0  0  0  0  0  0  0  0  0  0  0  0
   -2.1409    0.5525    0.3962 N   0  0  0  0  0  0  0  0  0  0  0  0
   -2.9462    1.0101   -0.0268 H   0  0  0  0  0  0  0  0  0  0  0  0
   -0.8454    1.2622    0.3622 C   0  0  1  0  0  0  0  0  0  0  0  0
   -0.2555    0.9905    1.2445 H   0  0  0  0  0  0  0  0  0  0  0  0
   -0.0258    0.9056   -0.9061 C   0  0  0  0  0  0  0  0  0  0  0  0
   -0.6381    1.1050   -1.7923 H   0  0  0  0  0  0  0  0  0  0  0  0
    0.8510    1.5610   -0.9569 H   0  0  0  0  0  0  0  0  0  0  0  0
    0.4750   -0.5450   -0.9369 C   0  0  0  0  0  0  0  0  0  0  0  0
    1.0776   -0.7427   -0.0430 H   0  0  0  0  0  0  0  0  0  0  0  0
   -0.3780   -1.2290   -0.9300 H   0  0  0  0  0  0  0  0  0  0  0  0
    1.2959   -0.8113   -2.2018 C   0  0  0  0  0  0  0  0  0  0  0  0
    0.6821   -0.6032   -3.0852 H   0  0  0  0  0  0  0  0  0  0  0  0
    2.1621   -0.1405   -2.2233 H   0  0  0  0  0  0  0  0  0  0  0  0
    1.7577   -2.2660   -2.2136 C   0  0  0  0  0  0  0  0  0  0  0  0
    2.3671   -2.4582   -1.3182 H   0  0  0  0  0  0  0  0  0  0  0  0
    0.8785   -2.9244   -2.1529 H   0  0  0  0  0  0  0  0  0  0  0  0
    2.5287   -2.5176   -3.4500 N   0  3  0  0  0  0  0  0  0  0  0  0
    3.3443   -1.9028   -3.4820 H   0  0  0  0  0  0  0  0  0  0  0  0
    2.8446   -3.4894   -3.4755 H   0  0  0  0  0  0  0  0  0  0  0  0
    1.9447   -2.3360   -4.2683 H   0  0  0  0  0  0  0  0  0  0  0  0
   -1.0831    2.7910    0.4543 C   0  0  0  0  0  0  0  0  0  0  0  0
   -0.5439    3.5735   -0.3164 O   0  0  0  0  0  0  0  0  0  0  0  0
   -1.9808    3.2855    1.3833 N   0  0  0  0  0  0  0  0  0  0  0  0
   -2.3603    2.6277    2.0590 H   0  0  0  0  0  0  0  0  0  0  0  0
   -2.2507    4.7094    1.5590 C   0  0  0  0  0  0  0  0  0  0  0  0
   -2.6536    5.1411    0.6364 H   0  0  0  0  0  0  0  0  0  0  0  0
   -2.9831    4.8620    2.3579 H   0  0  0  0  0  0  0  0  0  0  0  0
   -1.3329    5.2446    1.8253 H   0  0  0  0  0  0  0  0  0  0  0  0
  1  2  1  0  0  0  0
  2  3  1  0  0  0  0
  2  4  1  0  0  0  0
  2  5  1  0  0  0  0
  5  6  2  0  0  0  0
  5  7  1  0  0  0  0
  7  8  1  0  0  0  0
  7  9  1  0  0  0  0
  9 10  1  0  0  0  0
  9 11  1  0  0  0  0
  9 27  1  0  0  0  0
 11 12  1  0  0  0  0
 11 13  1  0  0  0  0
 11 14  1  0  0  0  0
 14 15  1  0  0  0  0
 14 16  1  0  0  0  0
 14 17  1  0  0  0  0
 17 18  1  0  0  0  0
 17 19  1  0  0  0  0
 17 20  1  0  0  0  0
 20 21  1  0  0  0  0
 20 22  1  0  0  0  0
 20 23  1  0  0  0  0
 23 24  1  0  0  0  0
 23 25  1  0  0  0  0
 23 26  1  0  0  0  0
 27 28  2  0  0  0  0
 27 29  1  0  0  0  0
 29 30  1  0  0  0  0
 29 31  1  0  0  0  0
 31 32  1  0  0  0  0
 31 33  1  0  0  0  0
 31 34  1  0  0  0  0
M  CHG  1  23   1
M  END
$$$$

  -OEChem-01062216093D

 34 33  0     1  0  0  0  0  0999 V2000
   -3.7240   -2.3226    1.2957 H   0  0  0  0  0  0  0  0  0  0  0  0
   -3.7350   -1.3193    0.8604 C   0  0  0  0  0  0  0  0  0  0  0  0
   -4.4369   -0.7005    1.4250 H   0  0  0  0  0  0  0  0  0  0  0  0
   -4.0745   -1.3890   -0.1757 H   0  0  0  0  0  0  0  0  0  0  0  0
   -2.3473   -0.7099    0.9141 C   0  0  0  0  0  0  0  0  0  0  0  0
   -1.4218   -1.3349    1.4069 O   0  0  0  0  0  0  0  0  0  0  0  0
   -2.1318    0.5552    0.4044 N   0  0  0  0  0  0  0  0  0  0  0  0
   -2.9353    1.0270   -0.0068 H   0  0  0  0  0  0  0  0  0  0  0  0
   -0.8328    1.2554    0.3778 C   0  0  1  0  0  0  0  0  0  0  0  0
   -0.2454    0.9763    1.2594 H   0  0  0  0  0  0  0  0  0  0  0  0
   -0.0132    0.9027   -0.8904 C   0  0  0  0  0  0  0  0  0  0  0  0
   -0.6242    1.1079   -1.7762 H   0  0  0  0  0  0  0  0  0  0  0  0
    0.8626    1.5600   -0.9348 H   0  0  0  0  0  0  0  0  0  0  0  0
    0.4796   -0.5507   -0.9319 C   0  0  0  0  0  0  0  0  0  0  0  0
    1.0792   -0.7608   -0.0390 H   0  0  0  0  0  0  0  0  0  0  0  0
   -0.3777   -1.2294   -0.9317 H   0  0  0  0  0  0  0  0  0  0  0  0
    1.3009   -0.8105   -2.1982 C   0  0  0  0  0  0  0  0  0  0  0  0
    0.6886   -0.5921   -3.0803 H   0  0  0  0  0  0  0  0  0  0  0  0
    2.1700   -0.1433   -2.2134 H   0  0  0  0  0  0  0  0  0  0  0  0
    1.7559   -2.2672   -2.2236 C   0  0  0  0  0  0  0  0  0  0  0  0
    2.3637   -2.4710   -1.3296 H   0  0  0  0  0  0  0  0  0  0  0  0
    0.8741   -2.9223   -2.1695 H   0  0  0  0  0  0  0  0  0  0  0  0
    2.5269   -2.5097   -3.4620 N   0  3  0  0  0  0  0  0  0  0  0  0
    3.3459   -1.8992   -3.4873 H   0  0  0  0  0  0  0  0  0  0  0  0
    2.8372   -3.4829   -3.4978 H   0  0  0  0  0  0  0  0  0  0  0  0
    1.9448   -2.3163   -4.2790 H   0  0  0  0  0  0  0  0  0  0  0  0
   -1.0664    2.7830    0.4713 C   0  0  0  0  0  0  0  0  0  0  0  0
   -0.7507    3.5363   -0.4400 O   0  0  0  0  0  0  0  0  0  0  0  0
   -1.7115    3.3062    1.5766 N   0  0  0  0  0  0  0  0  0  0  0  0
   -1.9511    2.6648    2.3281 H   0  0  0  0  0  0  0  0  0  0  0  0
   -1.9810    4.7305    1.7494 C   0  0  0  0  0  0  0  0  0  0  0  0
   -2.6289    5.0987    0.9467 H   0  0  0  0  0  0  0  0  0  0  0  0
   -2.4817    4.9098    2.7059 H   0  0  0  0  0  0  0  0  0  0  0  0
   -1.0472    5.3029    1.7368 H   0  0  0  0  0  0  0  0  0  0  0  0
  1  2  1  0  0  0  0
  2  3  1  0  0  0  0
  2  4  1  0  0  0  0
  2  5  1  0  0  0  0
  5  6  2  0  0  0  0
  5  7  1  0  0  0  0
  7  8  1  0  0  0  0
  7  9  1  0  0  0  0
  9 10  1  0  0  0  0
  9 11  1  0  0  0  0
  9 27  1  0  0  0  0
 11 12  1  0  0  0  0
 11 13  1  0  0  0  0
 11 14  1  0  0  0  0
 14 15  1  0  0  0  0
 14 16  1  0  0  0  0
 14 17  1  0  0  0  0
 17 18  1  0  0  0  0
 17 19  1  0  0  0  0
 17 20  1  0  0  0  0
 20 21  1  0  0  0  0
 20 22  1  0  0  0  0
 20 23  1  0  0  0  0
 23 24  1  0  0  0  0
 23 25  1  0  0  0  0
 23 26  1  0  0  0  0
 27 28  2  0  0  0  0
 27 29  1  0  0  0  0
 29 30  1  0  0  0  0
 29 31  1  0  0  0  0
 31 32  1  0  0  0  0
 31 33  1  0  0  0  0
 31 34  1  0  0  0  0
M  CHG  1  23   1
M  END
$$$$

  -OEChem-01062216093D

 34 33  0     1  0  0  0  0  0999 V2000
   -3.7353   -2.3073    1.2972 H   0  0  0  0  0  0  0  0  0  0  0  0
   -3.7383   -1.3033    0.8635 C   0  0  0  0  0  0  0  0  0  0  0  0
   -4.4360   -0.6801    1.4285 H   0  0  0  0  0  0  0  0  0  0  0  0
   -4.0766   -1.3685   -0.1733 H   0  0  0  0  0  0  0  0  0  0  0  0
   -2.3459   -0.7050    0.9195 C   0  0  0  0  0  0  0  0  0  0  0  0
   -1.4248   -1.3394    1.4092 O   0  0  0  0  0  0  0  0  0  0  0  0
   -2.1189    0.5585    0.4115 N   0  0  0  0  0  0  0  0  0  0  0  0
   -2.9178    1.0412    0.0037 H   0  0  0  0  0  0  0  0  0  0  0  0
   -0.8161    1.2491    0.3941 C   0  0  1  0  0  0  0  0  0  0  0  0
   -0.2315    0.9601    1.2742 H   0  0  0  0  0  0  0  0  0  0  0  0
    0.0023    0.9029   -0.8754 C   0  0  0  0  0  0  0  0  0  0  0  0
   -0.6072    1.1160   -1.7606 H   0  0  0  0  0  0  0  0  0  0  0  0
    0.8790    1.5590   -0.9141 H   0  0  0  0  0  0  0  0  0  0  0  0
    0.4838   -0.5538   -0.9284 C   0  0  0  0  0  0  0  0  0  0  0  0
    1.0809   -0.7749   -0.0364 H   0  0  0  0  0  0  0  0  0  0  0  0
   -0.3789   -1.2261   -0.9335 H   0  0  0  0  0  0  0  0  0  0  0  0
    1.3049   -0.8094   -2.1956 C   0  0  0  0  0  0  0  0  0  0  0  0
    0.6958   -0.5789   -3.0767 H   0  0  0  0  0  0  0  0  0  0  0  0
    2.1794   -0.1493   -2.2034 H   0  0  0  0  0  0  0  0  0  0  0  0
    1.7484   -2.2693   -2.2325 C   0  0  0  0  0  0  0  0  0  0  0  0
    2.3532   -2.4856   -1.3393 H   0  0  0  0  0  0  0  0  0  0  0  0
    0.8612   -2.9179   -2.1852 H   0  0  0  0  0  0  0  0  0  0  0  0
    2.5193   -2.5074   -3.4720 N   0  3  0  0  0  0  0  0  0  0  0  0
    3.3417   -1.9013   -3.4920 H   0  0  0  0  0  0  0  0  0  0  0  0
    2.8239   -3.4823   -3.5144 H   0  0  0  0  0  0  0  0  0  0  0  0
    1.9389   -2.3049   -4.2881 H   0  0  0  0  0  0  0  0  0  0  0  0
   -1.0405    2.7764    0.4864 C   0  0  0  0  0  0  0  0  0  0  0  0
   -0.9727    3.4869   -0.5078 O   0  0  0  0  0  0  0  0  0  0  0  0
   -1.3981    3.3447    1.6946 N   0  0  0  0  0  0  0  0  0  0  0  0
   -1.4857    2.7290    2.4991 H   0  0  0  0  0  0  0  0  0  0  0  0
   -1.6766    4.7680    1.8614 C   0  0  0  0  0  0  0  0  0  0  0  0
   -2.5273    5.0684    1.2403 H   0  0  0  0  0  0  0  0  0  0  0  0
   -1.9173    4.9885    2.9062 H   0  0  0  0  0  0  0  0  0  0  0  0
   -0.8048    5.3665    1.5756 H   0  0  0  0  0  0  0  0  0  0  0  0
  1  2  1  0  0  0  0
  2  3  1  0  0  0  0
  2  4  1  0  0  0  0
  2  5  1  0  0  0  0
  5  6  2  0  0  0  0
  5  7  1  0  0  0  0
  7  8  1  0  0  0  0
  7  9  1  0  0  0  0
  9 10  1  0  0  0  0
  9 11  1  0  0  0  0
  9 27  1  0  0  0  0
 11 12  1  0  0  0  0
 11 13  1  0  0  0  0
 11 14  1  0  0  0  0
 14 15  1  0  0  0  0
 14 16  1  0  0  0  0
 14 17  1  0  0  0  0
 17 18  1  0  0  0  0
 17 19  1  0  0  0  0
 17 20  1  0  0  0  0
 20 21  1  0  0  0  0
 20 22  1  0  0  0  0
 20 23  1  0  0  0  0
 23 24  1  0  0  0  0
 23 25  1  0  0  0  0
 23 26  1  0  0  0  0
 27 28  2  0  0  0  0
 27 29  1  0  0  0  0
 29 30  1  0  0  0  0
 29 31  1  0  0  0  0
 31 32  1  0  0  0  0
 31 33  1  0  0  0  0
 31 34  1  0  0  0  0
M  CHG  1  23   1
M  END
$$$$

  -OEChem-01062216093D

 34 33  0     1  0  0  0  0  0999 V2000
   -3.7426   -2.2933    1.2959 H   0  0  0  0  0  0  0  0  0  0  0  0
   -3.7376   -1.2883    0.8644 C   0  0  0  0  0  0  0  0  0  0  0  0
   -4.4305   -0.6608    1.4306 H   0  0  0  0  0  0  0  0  0  0  0  0
   -4.0762   -1.3484   -0.1726 H   0  0  0  0  0  0  0  0  0  0  0  0
   -2.3407   -0.7008    0.9219 C   0  0  0  0  0  0  0  0  0  0  0  0
   -1.4236   -1.3448    1.4075 O   0  0  0  0  0  0  0  0  0  0  0  0
   -2.1029    0.5610    0.4150 N   0  0  0  0  0  0  0  0  0  0  0  0
   -2.8972    1.0550    0.0107 H   0  0  0  0  0  0  0  0  0  0  0  0
   -0.7974    1.2442    0.4067 C   0  0  1  0  0  0  0  0  0  0  0  0
   -0.2159    0.9470    1.2862 H   0  0  0  0  0  0  0  0  0  0  0  0
    0.0185    0.9069   -0.8655 C   0  0  0  0  0  0  0  0  0  0  0  0
   -0.5900    1.1293   -1.7491 H   0  0  0  0  0  0  0  0  0  0  0  0
    0.8974    1.5605   -0.8986 H   0  0  0  0  0  0  0  0  0  0  0  0
    0.4889   -0.5531   -0.9290 C   0  0  0  0  0  0  0  0  0  0  0  0
    1.0831   -0.7856   -0.0382 H   0  0  0  0  0  0  0  0  0  0  0  0
   -0.3792   -1.2180   -0.9396 H   0  0  0  0  0  0  0  0  0  0  0  0
    1.3095   -0.8085   -2.1962 C   0  0  0  0  0  0  0  0  0  0  0  0
    0.7037   -0.5681   -3.0771 H   0  0  0  0  0  0  0  0  0  0  0  0
    2.1900   -0.1564   -2.1996 H   0  0  0  0  0  0  0  0  0  0  0  0
    1.7392   -2.2727   -2.2392 C   0  0  0  0  0  0  0  0  0  0  0  0
    2.3401   -2.4986   -1.3459 H   0  0  0  0  0  0  0  0  0  0  0  0
    0.8456   -2.9127   -2.1960 H   0  0  0  0  0  0  0  0  0  0  0  0
    2.5101   -2.5141   -3.4781 N   0  3  0  0  0  0  0  0  0  0  0  0
    3.3366   -1.9134   -3.4968 H   0  0  0  0  0  0  0  0  0  0  0  0
    2.8084   -3.4909   -3.5211 H   0  0  0  0  0  0  0  0  0  0  0  0
    1.9320   -2.3071   -4.2948 H   0  0  0  0  0  0  0  0  0  0  0  0
   -1.0151    2.7713    0.4962 C   0  0  0  0  0  0  0  0  0  0  0  0
   -1.2106    3.4296   -0.5169 O   0  0  0  0  0  0  0  0  0  0  0  0
   -1.0718    3.3953    1.7285 N   0  0  0  0  0  0  0  0  0  0  0  0
   -0.9853    2.8137    2.5580 H   0  0  0  0  0  0  0  0  0  0  0  0
   -1.3567    4.8176    1.8926 C   0  0  0  0  0  0  0  0  0  0  0  0
   -2.3497    5.0584    1.4982 H   0  0  0  0  0  0  0  0  0  0  0  0
   -1.3304    5.0912    2.9520 H   0  0  0  0  0  0  0  0  0  0  0  0
   -0.6128    5.4223    1.3630 H   0  0  0  0  0  0  0  0  0  0  0  0
  1  2  1  0  0  0  0
  2  3  1  0  0  0  0
  2  4  1  0  0  0  0
  2  5  1  0  0  0  0
  5  6  2  0  0  0  0
  5  7  1  0  0  0  0
  7  8  1  0  0  0  0
  7  9  1  0  0  0  0
  9 10  1  0  0  0  0
  9 11  1  0  0  0  0
  9 27  1  0  0  0  0
 11 12  1  0  0  0  0
 11 13  1  0  0  0  0
 11 14  1  0  0  0  0
 14 15  1  0  0  0  0
 14 16  1  0  0  0  0
 14 17  1  0  0  0  0
 17 18  1  0  0  0  0
 17 19  1  0  0  0  0
 17 20  1  0  0  0  0
 20 21  1  0  0  0  0
 20 22  1  0  0  0  0
 20 23  1  0  0  0  0
 23 24  1  0  0  0  0
 23 25  1  0  0  0  0
 23 26  1  0  0  0  0
 27 28  2  0  0  0  0
 27 29  1  0  0  0  0
 29 30  1  0  0  0  0
 29 31  1  0  0  0  0
 31 32  1  0  0  0  0
 31 33  1  0  0  0  0
 31 34  1  0  0  0  0
M  CHG  1  23   1
M  END
$$$$

  -OEChem-01062216093D

 34 33  0     1  0  0  0  0  0999 V2000
   -3.7680   -2.2631    1.3231 H   0  0  0  0  0  0  0  0  0  0  0  0
   -3.7527   -1.2605    0.8862 C   0  0  0  0  0  0  0  0  0  0  0  0
   -4.4263   -0.6185    1.4594 H   0  0  0  0  0  0  0  0  0  0  0  0
   -4.1084   -1.3205   -0.1453 H   0  0  0  0  0  0  0  0  0  0  0  0
   -2.3450   -0.6967    0.9211 C   0  0  0  0  0  0  0  0  0  0  0  0
   -1.4320   -1.3541    1.3968 O   0  0  0  0  0  0  0  0  0  0  0  0
   -2.0910    0.5598    0.4098 N   0  0  0  0  0  0  0  0  0  0  0  0
   -2.8823    1.0773    0.0283 H   0  0  0  0  0  0  0  0  0  0  0  0
   -0.7810    1.2327    0.4148 C   0  0  1  0  0  0  0  0  0  0  0  0
   -0.2084    0.9298    1.2982 H   0  0  0  0  0  0  0  0  0  0  0  0
    0.0376    0.9024   -0.8554 C   0  0  0  0  0  0  0  0  0  0  0  0
   -0.5654    1.1379   -1.7395 H   0  0  0  0  0  0  0  0  0  0  0  0
    0.9215    1.5491   -0.8784 H   0  0  0  0  0  0  0  0  0  0  0  0
    0.4960   -0.5609   -0.9298 C   0  0  0  0  0  0  0  0  0  0  0  0
    1.0841   -0.8068   -0.0383 H   0  0  0  0  0  0  0  0  0  0  0  0
   -0.3784   -1.2179   -0.9498 H   0  0  0  0  0  0  0  0  0  0  0  0
    1.3208   -0.8108   -2.1956 C   0  0  0  0  0  0  0  0  0  0  0  0
    0.7206   -0.5560   -3.0763 H   0  0  0  0  0  0  0  0  0  0  0  0
    2.2065   -0.1657   -2.1878 H   0  0  0  0  0  0  0  0  0  0  0  0
    1.7397   -2.2777   -2.2527 C   0  0  0  0  0  0  0  0  0  0  0  0
    2.3340   -2.5191   -1.3591 H   0  0  0  0  0  0  0  0  0  0  0  0
    0.8406   -2.9108   -2.2219 H   0  0  0  0  0  0  0  0  0  0  0  0
    2.5144   -2.5111   -3.4906 N   0  3  0  0  0  0  0  0  0  0  0  0
    3.3470   -1.9189   -3.4975 H   0  0  0  0  0  0  0  0  0  0  0  0
    2.8027   -3.4904   -3.5451 H   0  0  0  0  0  0  0  0  0  0  0  0
    1.9421   -2.2875   -4.3072 H   0  0  0  0  0  0  0  0  0  0  0  0
   -0.9924    2.7597    0.4918 C   0  0  0  0  0  0  0  0  0  0  0  0
   -1.4396    3.3596   -0.4768 O   0  0  0  0  0  0  0  0  0  0  0  0
   -0.7603    3.4468    1.6686 N   0  0  0  0  0  0  0  0  0  0  0  0
   -0.4894    2.9076    2.4867 H   0  0  0  0  0  0  0  0  0  0  0  0
   -1.0424    4.8700    1.8288 C   0  0  0  0  0  0  0  0  0  0  0  0
   -2.1112    5.0675    1.6921 H   0  0  0  0  0  0  0  0  0  0  0  0
   -0.7546    5.2042    2.8306 H   0  0  0  0  0  0  0  0  0  0  0  0
   -0.4804    5.4589    1.0956 H   0  0  0  0  0  0  0  0  0  0  0  0
  1  2  1  0  0  0  0
  2  3  1  0  0  0  0
  2  4  1  0  0  0  0
  2  5  1  0  0  0  0
  5  6  2  0  0  0  0
  5  7  1  0  0  0  0
  7  8  1  0  0  0  0
  7  9  1  0  0  0  0
  9 10  1  0  0  0  0
  9 11  1  0  0  0  0
  9 27  1  0  0  0  0
 11 12  1  0  0  0  0
 11 13  1  0  0  0  0
 11 14  1  0  0  0  0
 14 15  1  0  0  0  0
 14 16  1  0  0  0  0
 14 17  1  0  0  0  0
 17 18  1  0  0  0  0
 17 19  1  0  0  0  0
 17 20  1  0  0  0  0
 20 21  1  0  0  0  0
 20 22  1  0  0  0  0
 20 23  1  0  0  0  0
 23 24  1  0  0  0  0
 23 25  1  0  0  0  0
 23 26  1  0  0  0  0
 27 28  2  0  0  0  0
 27 29  1  0  0  0  0
 29 30  1  0  0  0  0
 29 31  1  0  0  0  0
 31 32  1  0  0  0  0
 31 33  1  0  0  0  0
 31 34  1  0  0  0  0
M  CHG  1  23   1
M  END
$$$$

  -OEChem-01062216093D

 34 33  0     1  0  0  0  0  0999 V2000
   -3.7763   -2.2458    1.3360 H   0  0  0  0  0  0  0  0  0  0  0  0
   -3.7552   -1.2444    0.8970 C   0  0  0  0  0  0  0  0  0  0  0  0
   -4.4163   -0.5943    1.4755 H   0  0  0  0  0  0  0  0  0  0  0  0
   -4.1212   -1.3022   -0.1308 H   0  0  0  0  0  0  0  0  0  0  0  0
   -2.3417   -0.6953    0.9161 C   0  0  0  0  0  0  0  0  0  0  0  0
   -1.4294   -1.3636    1.3782 O   0  0  0  0  0  0  0  0  0  0  0  0
   -2.0807    0.5582    0.4015 N   0  0  0  0  0  0  0  0  0  0  0  0
   -2.8728    1.0942    0.0464 H   0  0  0  0  0  0  0  0  0  0  0  0
   -0.7704    1.2288    0.4139 C   0  0  1  0  0  0  0  0  0  0  0  0
   -0.2032    0.9248    1.3003 H   0  0  0  0  0  0  0  0  0  0  0  0
    0.0481    0.9072   -0.8571 C   0  0  0  0  0  0  0  0  0  0  0  0
   -0.5541    1.1511   -1.7395 H   0  0  0  0  0  0  0  0  0  0  0  0
    0.9342    1.5509   -0.8748 H   0  0  0  0  0  0  0  0  0  0  0  0
    0.5011   -0.5576   -0.9376 C   0  0  0  0  0  0  0  0  0  0  0  0
    1.0849   -0.8101   -0.0452 H   0  0  0  0  0  0  0  0  0  0  0  0
   -0.3769   -1.2096   -0.9632 H   0  0  0  0  0  0  0  0  0  0  0  0
    1.3278   -0.8105   -2.2012 C   0  0  0  0  0  0  0  0  0  0  0  0
    0.7320   -0.5522   -3.0837 H   0  0  0  0  0  0  0  0  0  0  0  0
    2.2179   -0.1716   -2.1908 H   0  0  0  0  0  0  0  0  0  0  0  0
    1.7363   -2.2808   -2.2554 C   0  0  0  0  0  0  0  0  0  0  0  0
    2.3256   -2.5257   -1.3594 H   0  0  0  0  0  0  0  0  0  0  0  0
    0.8326   -2.9076   -2.2268 H   0  0  0  0  0  0  0  0  0  0  0  0
    2.5137   -2.5225   -3.4901 N   0  3  0  0  0  0  0  0  0  0  0  0
    3.3494   -1.9347   -3.4966 H   0  0  0  0  0  0  0  0  0  0  0  0
    2.7973   -3.5035   -3.5399 H   0  0  0  0  0  0  0  0  0  0  0  0
    1.9452   -2.2994   -4.3093 H   0  0  0  0  0  0  0  0  0  0  0  0
   -0.9833    2.7553    0.4820 C   0  0  0  0  0  0  0  0  0  0  0  0
   -1.6540    3.3049   -0.3823 O   0  0  0  0  0  0  0  0  0  0  0  0
   -0.4818    3.4996    1.5335 N   0  0  0  0  0  0  0  0  0  0  0  0
   -0.0243    3.0012    2.2920 H   0  0  0  0  0  0  0  0  0  0  0  0
   -0.7466    4.9261    1.6933 C   0  0  0  0  0  0  0  0  0  0  0  0
   -1.8199    5.1062    1.8168 H   0  0  0  0  0  0  0  0  0  0  0  0
   -0.2275    5.3124    2.5759 H   0  0  0  0  0  0  0  0  0  0  0  0
   -0.3962    5.4831    0.8177 H   0  0  0  0  0  0  0  0  0  0  0  0
  1  2  1  0  0  0  0
  2  3  1  0  0  0  0
  2  4  1  0  0  0  0
  2  5  1  0  0  0  0
  5  6  2  0  0  0  0
  5  7  1  0  0  0  0
  7  8  1  0  0  0  0
  7  9  1  0  0  0  0
  9 10  1  0  0  0  0
  9 11  1  0  0  0  0
  9 27  1  0  0  0  0
 11 12  1  0  0  0  0
 11 13  1  0  0  0  0
 11 14  1  0  0  0  0
 14 15  1  0  0  0  0
 14 16  1  0  0  0  0
 14 17  1  0  0  0  0
 17 18  1  0  0  0  0
 17 19  1  0  0  0  0
 17 20  1  0  0  0  0
 20 21  1  0  0  0  0
 20 22  1  0  0  0  0
 20 23  1  0  0  0  0
 23 24  1  0  0  0  0
 23 25  1  0  0  0  0
 23 26  1  0  0  0  0
 27 28  2  0  0  0  0
 27 29  1  0  0  0  0
 29 30  1  0  0  0  0
 29 31  1  0  0  0  0
 31 32  1  0  0  0  0
 31 33  1  0  0  0  0
 31 34  1  0  0  0  0
M  CHG  1  23   1
M  END
$$$$

  -OEChem-01062216093D

 34 33  0     1  0  0  0  0  0999 V2000
   -3.7889   -2.2279    1.3596 H   0  0  0  0  0  0  0  0  0  0  0  0
   -3.7629   -1.2290    0.9152 C   0  0  0  0  0  0  0  0  0  0  0  0
   -4.4045   -0.5674    1.5027 H   0  0  0  0  0  0  0  0  0  0  0  0
   -4.1490   -1.2869   -0.1053 H   0  0  0  0  0  0  0  0  0  0  0  0
   -2.3426   -0.6976    0.9054 C   0  0  0  0  0  0  0  0  0  0  0  0
   -1.4291   -1.3757    1.3514 O   0  0  0  0  0  0  0  0  0  0  0  0
   -2.0787    0.5534    0.3870 N   0  0  0  0  0  0  0  0  0  0  0  0
   -2.8752    1.1090    0.0718 H   0  0  0  0  0  0  0  0  0  0  0  0
   -0.7697    1.2262    0.4061 C   0  0  1  0  0  0  0  0  0  0  0  0
   -0.2082    0.9254    1.2971 H   0  0  0  0  0  0  0  0  0  0  0  0
    0.0514    0.9089   -0.8638 C   0  0  0  0  0  0  0  0  0  0  0  0
   -0.5496    1.1553   -1.7463 H   0  0  0  0  0  0  0  0  0  0  0  0
    0.9376    1.5524   -0.8790 H   0  0  0  0  0  0  0  0  0  0  0  0
    0.5045   -0.5560   -0.9454 C   0  0  0  0  0  0  0  0  0  0  0  0
    1.0841   -0.8105   -0.0507 H   0  0  0  0  0  0  0  0  0  0  0  0
   -0.3739   -1.2076   -0.9754 H   0  0  0  0  0  0  0  0  0  0  0  0
    1.3348   -0.8111   -2.2063 C   0  0  0  0  0  0  0  0  0  0  0  0
    0.7421   -0.5528   -3.0911 H   0  0  0  0  0  0  0  0  0  0  0  0
    2.2257   -0.1737   -2.1941 H   0  0  0  0  0  0  0  0  0  0  0  0
    1.7406   -2.2824   -2.2567 C   0  0  0  0  0  0  0  0  0  0  0  0
    2.3262   -2.5267   -1.3581 H   0  0  0  0  0  0  0  0  0  0  0  0
    0.8351   -2.9066   -2.2299 H   0  0  0  0  0  0  0  0  0  0  0  0
    2.5217   -2.5293   -3.4880 N   0  3  0  0  0  0  0  0  0  0  0  0
    3.3599   -1.9449   -3.4925 H   0  0  0  0  0  0  0  0  0  0  0  0
    2.8015   -3.5116   -3.5352 H   0  0  0  0  0  0  0  0  0  0  0  0
    1.9568   -2.3054   -4.3095 H   0  0  0  0  0  0  0  0  0  0  0  0
   -0.9841    2.7529    0.4652 C   0  0  0  0  0  0  0  0  0  0  0  0
   -1.8361    3.2645   -0.2506 O   0  0  0  0  0  0  0  0  0  0  0  0
   -0.2503    3.5454    1.3285 N   0  0  0  0  0  0  0  0  0  0  0  0
    0.3729    3.0822    1.9841 H   0  0  0  0  0  0  0  0  0  0  0  0
   -0.4874    4.9777    1.4821 C   0  0  0  0  0  0  0  0  0  0  0  0
   -1.5000    5.1614    1.8568 H   0  0  0  0  0  0  0  0  0  0  0  0
    0.2266    5.4078    2.1914 H   0  0  0  0  0  0  0  0  0  0  0  0
   -0.3706    5.4918    0.5219 H   0  0  0  0  0  0  0  0  0  0  0  0
  1  2  1  0  0  0  0
  2  3  1  0  0  0  0
  2  4  1  0  0  0  0
  2  5  1  0  0  0  0
  5  6  2  0  0  0  0
  5  7  1  0  0  0  0
  7  8  1  0  0  0  0
  7  9  1  0  0  0  0
  9 10  1  0  0  0  0
  9 11  1  0  0  0  0
  9 27  1  0  0  0  0
 11 12  1  0  0  0  0
 11 13  1  0  0  0  0
 11 14  1  0  0  0  0
 14 15  1  0  0  0  0
 14 16  1  0  0  0  0
 14 17  1  0  0  0  0
 17 18  1  0  0  0  0
 17 19  1  0  0  0  0
 17 20  1  0  0  0  0
 20 21  1  0  0  0  0
 20 22  1  0  0  0  0
 20 23  1  0  0  0  0
 23 24  1  0  0  0  0
 23 25  1  0  0  0  0
 23 26  1  0  0  0  0
 27 28  2  0  0  0  0
 27 29  1  0  0  0  0
 29 30  1  0  0  0  0
 29 31  1  0  0  0  0
 31 32  1  0  0  0  0
 31 33  1  0  0  0  0
 31 34  1  0  0  0  0
M  CHG  1  23   1
M  END
$$$$

  -OEChem-01062216093D

 34 33  0     1  0  0  0  0  0999 V2000
   -3.7930   -2.2197    1.3800 H   0  0  0  0  0  0  0  0  0  0  0  0
   -3.7682   -1.2228    0.9311 C   0  0  0  0  0  0  0  0  0  0  0  0
   -4.3934   -0.5538    1.5277 H   0  0  0  0  0  0  0  0  0  0  0  0
   -4.1739   -1.2811   -0.0815 H   0  0  0  0  0  0  0  0  0  0  0  0
   -2.3445   -0.7022    0.8910 C   0  0  0  0  0  0  0  0  0  0  0  0
   -1.4274   -1.3882    1.3174 O   0  0  0  0  0  0  0  0  0  0  0  0
   -2.0827    0.5481    0.3695 N   0  0  0  0  0  0  0  0  0  0  0  0
   -2.8857    1.1219    0.1050 H   0  0  0  0  0  0  0  0  0  0  0  0
   -0.7763    1.2270    0.3951 C   0  0  1  0  0  0  0  0  0  0  0  0
   -0.2190    0.9310    1.2906 H   0  0  0  0  0  0  0  0  0  0  0  0
    0.0482    0.9109   -0.8732 C   0  0  0  0  0  0  0  0  0  0  0  0
   -0.5530    1.1548   -1.7561 H   0  0  0  0  0  0  0  0  0  0  0  0
    0.9336    1.5554   -0.8883 H   0  0  0  0  0  0  0  0  0  0  0  0
    0.5059   -0.5527   -0.9537 C   0  0  0  0  0  0  0  0  0  0  0  0
    1.0828   -0.8055   -0.0568 H   0  0  0  0  0  0  0  0  0  0  0  0
   -0.3712   -1.2056   -0.9872 H   0  0  0  0  0  0  0  0  0  0  0  0
    1.3396   -0.8096   -2.2118 C   0  0  0  0  0  0  0  0  0  0  0  0
    0.7488   -0.5552   -3.0988 H   0  0  0  0  0  0  0  0  0  0  0  0
    2.2300   -0.1715   -2.1992 H   0  0  0  0  0  0  0  0  0  0  0  0
    1.7458   -2.2811   -2.2543 C   0  0  0  0  0  0  0  0  0  0  0  0
    2.3285   -2.5211   -1.3526 H   0  0  0  0  0  0  0  0  0  0  0  0
    0.8401   -2.9050   -2.2269 H   0  0  0  0  0  0  0  0  0  0  0  0
    2.5307   -2.5357   -3.4815 N   0  3  0  0  0  0  0  0  0  0  0  0
    3.3696   -1.9526   -3.4871 H   0  0  0  0  0  0  0  0  0  0  0  0
    2.8093   -3.5185   -3.5218 H   0  0  0  0  0  0  0  0  0  0  0  0
    1.9686   -2.3165   -4.3062 H   0  0  0  0  0  0  0  0  0  0  0  0
   -0.9926    2.7553    0.4469 C   0  0  0  0  0  0  0  0  0  0  0  0
   -1.9874    3.2402   -0.0787 O   0  0  0  0  0  0  0  0  0  0  0  0
   -0.0779    3.5850    1.0695 N   0  0  0  0  0  0  0  0  0  0  0  0
    0.6856    3.1511    1.5802 H   0  0  0  0  0  0  0  0  0  0  0  0
   -0.2831    5.0236    1.2096 C   0  0  0  0  0  0  0  0  0  0  0  0
   -1.1763    5.2269    1.8103 H   0  0  0  0  0  0  0  0  0  0  0  0
    0.5780    5.4848    1.7032 H   0  0  0  0  0  0  0  0  0  0  0  0
   -0.4069    5.4927    0.2274 H   0  0  0  0  0  0  0  0  0  0  0  0
  1  2  1  0  0  0  0
  2  3  1  0  0  0  0
  2  4  1  0  0  0  0
  2  5  1  0  0  0  0
  5  6  2  0  0  0  0
  5  7  1  0  0  0  0
  7  8  1  0  0  0  0
  7  9  1  0  0  0  0
  9 10  1  0  0  0  0
  9 11  1  0  0  0  0
  9 27  1  0  0  0  0
 11 12  1  0  0  0  0
 11 13  1  0  0  0  0
 11 14  1  0  0  0  0
 14 15  1  0  0  0  0
 14 16  1  0  0  0  0
 14 17  1  0  0  0  0
 17 18  1  0  0  0  0
 17 19  1  0  0  0  0
 17 20  1  0  0  0  0
 20 21  1  0  0  0  0
 20 22  1  0  0  0  0
 20 23  1  0  0  0  0
 23 24  1  0  0  0  0
 23 25  1  0  0  0  0
 23 26  1  0  0  0  0
 27 28  2  0  0  0  0
 27 29  1  0  0  0  0
 29 30  1  0  0  0  0
 29 31  1  0  0  0  0
 31 32  1  0  0  0  0
 31 33  1  0  0  0  0
 31 34  1  0  0  0  0
M  CHG  1  23   1
M  END
$$$$

  -OEChem-01062216093D

 34 33  0     1  0  0  0  0  0999 V2000
   -3.8022   -2.2035    1.4034 H   0  0  0  0  0  0  0  0  0  0  0  0
   -3.7744   -1.2093    0.9487 C   0  0  0  0  0  0  0  0  0  0  0  0
   -4.3770   -0.5291    1.5559 H   0  0  0  0  0  0  0  0  0  0  0  0
   -4.2047   -1.2674   -0.0539 H   0  0  0  0  0  0  0  0  0  0  0  0
   -2.3452   -0.7071    0.8734 C   0  0  0  0  0  0  0  0  0  0  0  0
   -1.4273   -1.4024    1.2830 O   0  0  0  0  0  0  0  0  0  0  0  0
   -2.0846    0.5434    0.3520 N   0  0  0  0  0  0  0  0  0  0  0  0
   -2.8925    1.1348    0.1462 H   0  0  0  0  0  0  0  0  0  0  0  0
   -0.7807    1.2277    0.3839 C   0  0  1  0  0  0  0  0  0  0  0  0
   -0.2260    0.9369    1.2826 H   0  0  0  0  0  0  0  0  0  0  0  0
    0.0475    0.9095   -0.8841 C   0  0  0  0  0  0  0  0  0  0  0  0
   -0.5536    1.1500   -1.7680 H   0  0  0  0  0  0  0  0  0  0  0  0
    0.9322    1.5546   -0.9025 H   0  0  0  0  0  0  0  0  0  0  0  0
    0.5096   -0.5531   -0.9629 C   0  0  0  0  0  0  0  0  0  0  0  0
    1.0854   -0.8037   -0.0646 H   0  0  0  0  0  0  0  0  0  0  0  0
   -0.3654   -1.2082   -0.9981 H   0  0  0  0  0  0  0  0  0  0  0  0
    1.3459   -0.8126   -2.2191 C   0  0  0  0  0  0  0  0  0  0  0  0
    0.7563   -0.5628   -3.1082 H   0  0  0  0  0  0  0  0  0  0  0  0
    2.2354   -0.1735   -2.2079 H   0  0  0  0  0  0  0  0  0  0  0  0
    1.7539   -2.2842   -2.2547 C   0  0  0  0  0  0  0  0  0  0  0  0
    2.3354   -2.5193   -1.3508 H   0  0  0  0  0  0  0  0  0  0  0  0
    0.8489   -2.9093   -2.2254 H   0  0  0  0  0  0  0  0  0  0  0  0
    2.5415   -2.5437   -3.4792 N   0  3  0  0  0  0  0  0  0  0  0  0
    3.3821   -1.9632   -3.4834 H   0  0  0  0  0  0  0  0  0  0  0  0
    2.8171   -3.5275   -3.5167 H   0  0  0  0  0  0  0  0  0  0  0  0
    1.9825   -2.3246   -4.3058 H   0  0  0  0  0  0  0  0  0  0  0  0
   -1.0043    2.7576    0.4330 C   0  0  0  0  0  0  0  0  0  0  0  0
   -2.0961    3.2208    0.1243 O   0  0  0  0  0  0  0  0  0  0  0  0
    0.0223    3.6191    0.7769 N   0  0  0  0  0  0  0  0  0  0  0  0
    0.8862    3.2116    1.1222 H   0  0  0  0  0  0  0  0  0  0  0  0
   -0.1643    5.0625    0.8948 C   0  0  0  0  0  0  0  0  0  0  0  0
   -0.8906    5.2921    1.6820 H   0  0  0  0  0  0  0  0  0  0  0  0
    0.7828    5.5503    1.1454 H   0  0  0  0  0  0  0  0  0  0  0  0
   -0.5269    5.4823   -0.0498 H   0  0  0  0  0  0  0  0  0  0  0  0
  1  2  1  0  0  0  0
  2  3  1  0  0  0  0
  2  4  1  0  0  0  0
  2  5  1  0  0  0  0
  5  6  2  0  0  0  0
  5  7  1  0  0  0  0
  7  8  1  0  0  0  0
  7  9  1  0  0  0  0
  9 10  1  0  0  0  0
  9 11  1  0  0  0  0
  9 27  1  0  0  0  0
 11 12  1  0  0  0  0
 11 13  1  0  0  0  0
 11 14  1  0  0  0  0
 14 15  1  0  0  0  0
 14 16  1  0  0  0  0
 14 17  1  0  0  0  0
 17 18  1  0  0  0  0
 17 19  1  0  0  0  0
 17 20  1  0  0  0  0
 20 21  1  0  0  0  0
 20 22  1  0  0  0  0
 20 23  1  0  0  0  0
 23 24  1  0  0  0  0
 23 25  1  0  0  0  0
 23 26  1  0  0  0  0
 27 28  2  0  0  0  0
 27 29  1  0  0  0  0
 29 30  1  0  0  0  0
 29 31  1  0  0  0  0
 31 32  1  0  0  0  0
 31 33  1  0  0  0  0
 31 34  1  0  0  0  0
M  CHG  1  23   1
M  END
$$$$

  -OEChem-01062216093D

 34 33  0     1  0  0  0  0  0999 V2000
   -3.6485   -2.1986    1.4576 H   0  0  0  0  0  0  0  0  0  0  0  0
   -3.6858   -1.2074    0.9970 C   0  0  0  0  0  0  0  0  0  0  0  0
   -4.1945   -0.5228    1.6806 H   0  0  0  0  0  0  0  0  0  0  0  0
   -4.2552   -1.2704    0.0668 H   0  0  0  0  0  0  0  0  0  0  0  0
   -2.2821   -0.7088    0.7134 C   0  0  0  0  0  0  0  0  0  0  0  0
   -1.3212   -1.4466    0.8771 O   0  0  0  0  0  0  0  0  0  0  0  0
   -2.0895    0.5701    0.2315 N   0  0  0  0  0  0  0  0  0  0  0  0
   -2.9077    1.1810    0.2828 H   0  0  0  0  0  0  0  0  0  0  0  0
   -0.7941    1.2699    0.2917 C   0  0  1  0  0  0  0  0  0  0  0  0
   -0.1291    0.7867    1.0163 H   0  0  0  0  0  0  0  0  0  0  0  0
   -0.1404    1.2551   -1.1074 C   0  0  0  0  0  0  0  0  0  0  0  0
   -0.8461    1.6636   -1.8391 H   0  0  0  0  0  0  0  0  0  0  0  0
    0.7438    1.9004   -1.1031 H   0  0  0  0  0  0  0  0  0  0  0  0
    0.2852   -0.1610   -1.5267 C   0  0  0  0  0  0  0  0  0  0  0  0
    0.9683   -0.5726   -0.7750 H   0  0  0  0  0  0  0  0  0  0  0  0
   -0.5965   -0.8087   -1.5668 H   0  0  0  0  0  0  0  0  0  0  0  0
    0.9551   -0.1653   -2.9032 C   0  0  0  0  0  0  0  0  0  0  0  0
    0.2635    0.2471   -3.6464 H   0  0  0  0  0  0  0  0  0  0  0  0
    1.8495    0.4669   -2.8795 H   0  0  0  0  0  0  0  0  0  0  0  0
    1.3307   -1.5993   -3.2724 C   0  0  0  0  0  0  0  0  0  0  0  0
    2.0150   -2.0007   -2.5103 H   0  0  0  0  0  0  0  0  0  0  0  0
    0.4255   -2.2244   -3.2518 H   0  0  0  0  0  0  0  0  0  0  0  0
    1.9566   -1.6131   -4.6122 N   0  3  0  0  0  0  0  0  0  0  0  0
    2.7994   -1.0357   -4.6103 H   0  0  0  0  0  0  0  0  0  0  0  0
    2.2100   -2.5695   -4.8706 H   0  0  0  0  0  0  0  0  0  0  0  0
    1.3030   -1.2449   -5.3058 H   0  0  0  0  0  0  0  0  0  0  0  0
   -1.0042    2.7249    0.7771 C   0  0  0  0  0  0  0  0  0  0  0  0
   -2.1413    3.1377    0.9737 O   0  0  0  0  0  0  0  0  0  0  0  0
    0.0598    3.5977    0.9227 N   0  0  0  0  0  0  0  0  0  0  0  0
    0.9981    3.2197    0.8367 H   0  0  0  0  0  0  0  0  0  0  0  0
   -0.1003    4.9674    1.4029 C   0  0  0  0  0  0  0  0  0  0  0  0
   -0.5092    4.9726    2.4191 H   0  0  0  0  0  0  0  0  0  0  0  0
    0.8656    5.4820    1.4164 H   0  0  0  0  0  0  0  0  0  0  0  0
   -0.7781    5.5274    0.7493 H   0  0  0  0  0  0  0  0  0  0  0  0
  1  2  1  0  0  0  0
  2  3  1  0  0  0  0
  2  4  1  0  0  0  0
  2  5  1  0  0  0  0
  5  6  2  0  0  0  0
  5  7  1  0  0  0  0
  7  8  1  0  0  0  0
  7  9  1  0  0  0  0
  9 10  1  0  0  0  0
  9 11  1  0  0  0  0
  9 27  1  0  0  0  0
 11 12  1  0  0  0  0
 11 13  1  0  0  0  0
 11 14  1  0  0  0  0
 14 15  1  0  0  0  0
 14 16  1  0  0  0  0
 14 17  1  0  0  0  0
 17 18  1  0  0  0  0
 17 19  1  0  0  0  0
 17 20  1  0  0  0  0
 20 21  1  0  0  0  0
 20 22  1  0  0  0  0
 20 23  1  0  0  0  0
 23 24  1  0  0  0  0
 23 25  1  0  0  0  0
 23 26  1  0  0  0  0
 27 28  2  0  0  0  0
 27 29  1  0  0  0  0
 29 30  1  0  0  0  0
 29 31  1  0  0  0  0
 31 32  1  0  0  0  0
 31 33  1  0  0  0  0
 31 34  1  0  0  0  0
M  CHG  1  23   1
M  END
$$$$

  -OEChem-01062216093D

 34 33  0     1  0  0  0  0  0999 V2000
   -3.6298   -2.1932    1.4552 H   0  0  0  0  0  0  0  0  0  0  0  0
   -3.6758   -1.1955    1.0096 C   0  0  0  0  0  0  0  0  0  0  0  0
   -4.1574   -0.5173    1.7185 H   0  0  0  0  0  0  0  0  0  0  0  0
   -4.2754   -1.2424    0.0976 H   0  0  0  0  0  0  0  0  0  0  0  0
   -2.2787   -0.7019    0.6879 C   0  0  0  0  0  0  0  0  0  0  0  0
   -1.3180   -1.4447    0.8287 O   0  0  0  0  0  0  0  0  0  0  0  0
   -2.0945    0.5804    0.2104 N   0  0  0  0  0  0  0  0  0  0  0  0
   -2.9085    1.1908    0.3087 H   0  0  0  0  0  0  0  0  0  0  0  0
   -0.7968    1.2768    0.2741 C   0  0  1  0  0  0  0  0  0  0  0  0
   -0.1335    0.7936    1.0000 H   0  0  0  0  0  0  0  0  0  0  0  0
   -0.1370    1.2547   -1.1253 C   0  0  0  0  0  0  0  0  0  0  0  0
   -0.8385    1.6644   -1.8604 H   0  0  0  0  0  0  0  0  0  0  0  0
    0.7523    1.8922   -1.1223 H   0  0  0  0  0  0  0  0  0  0  0  0
    0.2862   -0.1635   -1.5410 C   0  0  0  0  0  0  0  0  0  0  0  0
    0.9638   -0.5767   -0.7849 H   0  0  0  0  0  0  0  0  0  0  0  0
   -0.5979   -0.8073   -1.5849 H   0  0  0  0  0  0  0  0  0  0  0  0
    0.9618   -0.1774   -2.9148 C   0  0  0  0  0  0  0  0  0  0  0  0
    0.2767    0.2357   -3.6634 H   0  0  0  0  0  0  0  0  0  0  0  0
    1.8600    0.4491   -2.8892 H   0  0  0  0  0  0  0  0  0  0  0  0
    1.3317   -1.6158   -3.2738 C   0  0  0  0  0  0  0  0  0  0  0  0
    2.0098   -2.0165   -2.5057 H   0  0  0  0  0  0  0  0  0  0  0  0
    0.4231   -2.2359   -3.2542 H   0  0  0  0  0  0  0  0  0  0  0  0
    1.9635   -1.6419   -4.6106 N   0  3  0  0  0  0  0  0  0  0  0  0
    2.8109   -1.0716   -4.6077 H   0  0  0  0  0  0  0  0  0  0  0  0
    2.2105   -2.6014   -4.8627 H   0  0  0  0  0  0  0  0  0  0  0  0
    1.3163   -1.2722   -5.3093 H   0  0  0  0  0  0  0  0  0  0  0  0
   -1.0144    2.7299    0.7706 C   0  0  0  0  0  0  0  0  0  0  0  0
   -2.1145    3.0589    1.1986 O   0  0  0  0  0  0  0  0  0  0  0  0
   -0.0366    3.7018    0.6446 N   0  0  0  0  0  0  0  0  0  0  0  0
    0.8899    3.4059    0.3549 H   0  0  0  0  0  0  0  0  0  0  0  0
   -0.2166    5.0732    1.1131 C   0  0  0  0  0  0  0  0  0  0  0  0
   -0.3918    5.0898    2.1943 H   0  0  0  0  0  0  0  0  0  0  0  0
    0.6759    5.6690    0.8987 H   0  0  0  0  0  0  0  0  0  0  0  0
   -1.0704    5.5420    0.6119 H   0  0  0  0  0  0  0  0  0  0  0  0
  1  2  1  0  0  0  0
  2  3  1  0  0  0  0
  2  4  1  0  0  0  0
  2  5  1  0  0  0  0
  5  6  2  0  0  0  0
  5  7  1  0  0  0  0
  7  8  1  0  0  0  0
  7  9  1  0  0  0  0
  9 10  1  0  0  0  0
  9 11  1  0  0  0  0
  9 27  1  0  0  0  0
 11 12  1  0  0  0  0
 11 13  1  0  0  0  0
 11 14  1  0  0  0  0
 14 15  1  0  0  0  0
 14 16  1  0  0  0  0
 14 17  1  0  0  0  0
 17 18  1  0  0  0  0
 17 19  1  0  0  0  0
 17 20  1  0  0  0  0
 20 21  1  0  0  0  0
 20 22  1  0  0  0  0
 20 23  1  0  0  0  0
 23 24  1  0  0  0  0
 23 25  1  0  0  0  0
 23 26  1  0  0  0  0
 27 28  2  0  0  0  0
 27 29  1  0  0  0  0
 29 30  1  0  0  0  0
 29 31  1  0  0  0  0
 31 32  1  0  0  0  0
 31 33  1  0  0  0  0
 31 34  1  0  0  0  0
M  CHG  1  23   1
M  END
$$$$

  -OEChem-01062216093D

 34 33  0     1  0  0  0  0  0999 V2000
   -3.6211   -2.1826    1.4580 H   0  0  0  0  0  0  0  0  0  0  0  0
   -3.6702   -1.1823    1.0186 C   0  0  0  0  0  0  0  0  0  0  0  0
   -4.1305   -0.5048    1.7425 H   0  0  0  0  0  0  0  0  0  0  0  0
   -4.2912   -1.2206    0.1206 H   0  0  0  0  0  0  0  0  0  0  0  0
   -2.2774   -0.6959    0.6674 C   0  0  0  0  0  0  0  0  0  0  0  0
   -1.3192   -1.4465    0.7812 O   0  0  0  0  0  0  0  0  0  0  0  0
   -2.0981    0.5902    0.1972 N   0  0  0  0  0  0  0  0  0  0  0  0
   -2.9073    1.1985    0.3344 H   0  0  0  0  0  0  0  0  0  0  0  0
   -0.7971    1.2824    0.2548 C   0  0  1  0  0  0  0  0  0  0  0  0
   -0.1341    0.7977    0.9805 H   0  0  0  0  0  0  0  0  0  0  0  0
   -0.1318    1.2557   -1.1436 C   0  0  0  0  0  0  0  0  0  0  0  0
   -0.8278    1.6676   -1.8827 H   0  0  0  0  0  0  0  0  0  0  0  0
    0.7627    1.8855   -1.1369 H   0  0  0  0  0  0  0  0  0  0  0  0
    0.2895   -0.1639   -1.5550 C   0  0  0  0  0  0  0  0  0  0  0  0
    0.9618   -0.5773   -0.7943 H   0  0  0  0  0  0  0  0  0  0  0  0
   -0.5972   -0.8036   -1.6030 H   0  0  0  0  0  0  0  0  0  0  0  0
    0.9707   -0.1878   -2.9260 C   0  0  0  0  0  0  0  0  0  0  0  0
    0.2904    0.2226   -3.6805 H   0  0  0  0  0  0  0  0  0  0  0  0
    1.8715    0.4348   -2.9011 H   0  0  0  0  0  0  0  0  0  0  0  0
    1.3348   -1.6308   -3.2725 C   0  0  0  0  0  0  0  0  0  0  0  0
    2.0071   -2.0293   -2.4982 H   0  0  0  0  0  0  0  0  0  0  0  0
    0.4224   -2.2452   -3.2509 H   0  0  0  0  0  0  0  0  0  0  0  0
    1.9726   -1.6736   -4.6060 N   0  3  0  0  0  0  0  0  0  0  0  0
    2.8244   -1.1097   -4.6045 H   0  0  0  0  0  0  0  0  0  0  0  0
    2.2133   -2.6376   -4.8474 H   0  0  0  0  0  0  0  0  0  0  0  0
    1.3315   -1.3059   -5.3114 H   0  0  0  0  0  0  0  0  0  0  0  0
   -1.0191    2.7308    0.7663 C   0  0  0  0  0  0  0  0  0  0  0  0
   -2.0209    2.9776    1.4264 O   0  0  0  0  0  0  0  0  0  0  0  0
   -0.2054    3.7875    0.3933 N   0  0  0  0  0  0  0  0  0  0  0  0
    0.6424    3.5753   -0.1218 H   0  0  0  0  0  0  0  0  0  0  0  0
   -0.4182    5.1568    0.8545 C   0  0  0  0  0  0  0  0  0  0  0  0
   -0.3511    5.2086    1.9466 H   0  0  0  0  0  0  0  0  0  0  0  0
    0.3386    5.8239    0.4303 H   0  0  0  0  0  0  0  0  0  0  0  0
   -1.4054    5.5178    0.5465 H   0  0  0  0  0  0  0  0  0  0  0  0
  1  2  1  0  0  0  0
  2  3  1  0  0  0  0
  2  4  1  0  0  0  0
  2  5  1  0  0  0  0
  5  6  2  0  0  0  0
  5  7  1  0  0  0  0
  7  8  1  0  0  0  0
  7  9  1  0  0  0  0
  9 10  1  0  0  0  0
  9 11  1  0  0  0  0
  9 27  1  0  0  0  0
 11 12  1  0  0  0  0
 11 13  1  0  0  0  0
 11 14  1  0  0  0  0
 14 15  1  0  0  0  0
 14 16  1  0  0  0  0
 14 17  1  0  0  0  0
 17 18  1  0  0  0  0
 17 19  1  0  0  0  0
 17 20  1  0  0  0  0
 20 21  1  0  0  0  0
 20 22  1  0  0  0  0
 20 23  1  0  0  0  0
 23 24  1  0  0  0  0
 23 25  1  0  0  0  0
 23 26  1  0  0  0  0
 27 28  2  0  0  0  0
 27 29  1  0  0  0  0
 29 30  1  0  0  0  0
 29 31  1  0  0  0  0
 31 32  1  0  0  0  0
 31 33  1  0  0  0  0
 31 34  1  0  0  0  0
M  CHG  1  23   1
M  END
$$$$

  -OEChem-01062216093D

 34 33  0     1  0  0  0  0  0999 V2000
   -3.6188   -2.1886    1.4391 H   0  0  0  0  0  0  0  0  0  0  0  0
   -3.6698   -1.1722    1.0385 C   0  0  0  0  0  0  0  0  0  0  0  0
   -4.0925   -0.5159    1.8037 H   0  0  0  0  0  0  0  0  0  0  0  0
   -4.3248   -1.1691    0.1641 H   0  0  0  0  0  0  0  0  0  0  0  0
   -2.2841   -0.6915    0.6531 C   0  0  0  0  0  0  0  0  0  0  0  0
   -1.3282   -1.4484    0.7413 O   0  0  0  0  0  0  0  0  0  0  0  0
   -2.1100    0.5977    0.1881 N   0  0  0  0  0  0  0  0  0  0  0  0
   -2.9174    1.2023    0.3443 H   0  0  0  0  0  0  0  0  0  0  0  0
   -0.8057    1.2850    0.2357 C   0  0  1  0  0  0  0  0  0  0  0  0
   -0.1438    0.7972    0.9605 H   0  0  0  0  0  0  0  0  0  0  0  0
   -0.1318    1.2543   -1.1583 C   0  0  0  0  0  0  0  0  0  0  0  0
   -0.8220    1.6652   -1.9032 H   0  0  0  0  0  0  0  0  0  0  0  0
    0.7645    1.8821   -1.1429 H   0  0  0  0  0  0  0  0  0  0  0  0
    0.2903   -0.1665   -1.5644 C   0  0  0  0  0  0  0  0  0  0  0  0
    0.9569   -0.5799   -0.7986 H   0  0  0  0  0  0  0  0  0  0  0  0
   -0.5971   -0.8049   -1.6177 H   0  0  0  0  0  0  0  0  0  0  0  0
    0.9802   -0.1941   -2.9306 C   0  0  0  0  0  0  0  0  0  0  0  0
    0.3061    0.2159   -3.6907 H   0  0  0  0  0  0  0  0  0  0  0  0
    1.8822    0.4269   -2.9005 H   0  0  0  0  0  0  0  0  0  0  0  0
    1.3439   -1.6391   -3.2697 C   0  0  0  0  0  0  0  0  0  0  0  0
    2.0108   -2.0352   -2.4895 H   0  0  0  0  0  0  0  0  0  0  0  0
    0.4307   -2.2525   -3.2514 H   0  0  0  0  0  0  0  0  0  0  0  0
    1.9907   -1.6883   -4.5987 N   0  3  0  0  0  0  0  0  0  0  0  0
    2.8458   -1.1295   -4.5921 H   0  0  0  0  0  0  0  0  0  0  0  0
    2.2280   -2.6541   -4.8366 H   0  0  0  0  0  0  0  0  0  0  0  0
    1.3566   -1.3185   -5.3092 H   0  0  0  0  0  0  0  0  0  0  0  0
   -1.0202    2.7290    0.7596 C   0  0  0  0  0  0  0  0  0  0  0  0
   -1.8592    2.9145    1.6307 O   0  0  0  0  0  0  0  0  0  0  0  0
   -0.4273    3.8383    0.1794 N   0  0  0  0  0  0  0  0  0  0  0  0
    0.2511    3.6862   -0.5592 H   0  0  0  0  0  0  0  0  0  0  0  0
   -0.6799    5.2046    0.6298 C   0  0  0  0  0  0  0  0  0  0  0  0
   -0.3962    5.3209    1.6815 H   0  0  0  0  0  0  0  0  0  0  0  0
   -0.0978    5.9158    0.0357 H   0  0  0  0  0  0  0  0  0  0  0  0
   -1.7410    5.4544    0.5235 H   0  0  0  0  0  0  0  0  0  0  0  0
  1  2  1  0  0  0  0
  2  3  1  0  0  0  0
  2  4  1  0  0  0  0
  2  5  1  0  0  0  0
  5  6  2  0  0  0  0
  5  7  1  0  0  0  0
  7  8  1  0  0  0  0
  7  9  1  0  0  0  0
  9 10  1  0  0  0  0
  9 11  1  0  0  0  0
  9 27  1  0  0  0  0
 11 12  1  0  0  0  0
 11 13  1  0  0  0  0
 11 14  1  0  0  0  0
 14 15  1  0  0  0  0
 14 16  1  0  0  0  0
 14 17  1  0  0  0  0
 17 18  1  0  0  0  0
 17 19  1  0  0  0  0
 17 20  1  0  0  0  0
 20 21  1  0  0  0  0
 20 22  1  0  0  0  0
 20 23  1  0  0  0  0
 23 24  1  0  0  0  0
 23 25  1  0  0  0  0
 23 26  1  0  0  0  0
 27 28  2  0  0  0  0
 27 29  1  0  0  0  0
 29 30  1  0  0  0  0
 29 31  1  0  0  0  0
 31 32  1  0  0  0  0
 31 33  1  0  0  0  0
 31 34  1  0  0  0  0
M  CHG  1  23   1
M  END
$$$$

  -OEChem-01062216093D

 34 33  0     1  0  0  0  0  0999 V2000
   -3.6219   -2.1895    1.4364 H   0  0  0  0  0  0  0  0  0  0  0  0
   -3.6724   -1.1662    1.0534 C   0  0  0  0  0  0  0  0  0  0  0  0
   -4.0735   -0.5191    1.8378 H   0  0  0  0  0  0  0  0  0  0  0  0
   -4.3459   -1.1439    0.1934 H   0  0  0  0  0  0  0  0  0  0  0  0
   -2.2905   -0.6900    0.6486 C   0  0  0  0  0  0  0  0  0  0  0  0
   -1.3368   -1.4510    0.7208 O   0  0  0  0  0  0  0  0  0  0  0  0
   -2.1194    0.6008    0.1860 N   0  0  0  0  0  0  0  0  0  0  0  0
   -2.9285    1.2011    0.3424 H   0  0  0  0  0  0  0  0  0  0  0  0
   -0.8138    1.2865    0.2220 C   0  0  1  0  0  0  0  0  0  0  0  0
   -0.1502    0.7973    0.9449 H   0  0  0  0  0  0  0  0  0  0  0  0
   -0.1340    1.2573   -1.1685 C   0  0  0  0  0  0  0  0  0  0  0  0
   -0.8212    1.6650   -1.9178 H   0  0  0  0  0  0  0  0  0  0  0  0
    0.7594    1.8902   -1.1451 H   0  0  0  0  0  0  0  0  0  0  0  0
    0.2919   -0.1629   -1.5718 C   0  0  0  0  0  0  0  0  0  0  0  0
    0.9548   -0.5751   -0.8022 H   0  0  0  0  0  0  0  0  0  0  0  0
   -0.5952   -0.8010   -1.6283 H   0  0  0  0  0  0  0  0  0  0  0  0
    0.9883   -0.1938   -2.9342 C   0  0  0  0  0  0  0  0  0  0  0  0
    0.3170    0.2127   -3.6986 H   0  0  0  0  0  0  0  0  0  0  0  0
    1.8898    0.4278   -2.9022 H   0  0  0  0  0  0  0  0  0  0  0  0
    1.3535   -1.6402   -3.2656 C   0  0  0  0  0  0  0  0  0  0  0  0
    2.0164   -2.0330   -2.4802 H   0  0  0  0  0  0  0  0  0  0  0  0
    0.4406   -2.2541   -3.2496 H   0  0  0  0  0  0  0  0  0  0  0  0
    2.0072   -1.6948   -4.5910 N   0  3  0  0  0  0  0  0  0  0  0  0
    2.8621   -1.1354   -4.5823 H   0  0  0  0  0  0  0  0  0  0  0  0
    2.2464   -2.6617   -4.8228 H   0  0  0  0  0  0  0  0  0  0  0  0
    1.3768   -1.3288   -5.3068 H   0  0  0  0  0  0  0  0  0  0  0  0
   -1.0203    2.7268    0.7519 C   0  0  0  0  0  0  0  0  0  0  0  0
   -1.6448    2.8779    1.7916 O   0  0  0  0  0  0  0  0  0  0  0  0
   -0.6937    3.8533    0.0152 N   0  0  0  0  0  0  0  0  0  0  0  0
   -0.2336    3.7223   -0.8792 H   0  0  0  0  0  0  0  0  0  0  0  0
   -0.9891    5.2119    0.4628 C   0  0  0  0  0  0  0  0  0  0  0  0
   -0.4987    5.4154    1.4210 H   0  0  0  0  0  0  0  0  0  0  0  0
   -0.6296    5.9414   -0.2694 H   0  0  0  0  0  0  0  0  0  0  0  0
   -2.0688    5.3502    0.5855 H   0  0  0  0  0  0  0  0  0  0  0  0
  1  2  1  0  0  0  0
  2  3  1  0  0  0  0
  2  4  1  0  0  0  0
  2  5  1  0  0  0  0
  5  6  2  0  0  0  0
  5  7  1  0  0  0  0
  7  8  1  0  0  0  0
  7  9  1  0  0  0  0
  9 10  1  0  0  0  0
  9 11  1  0  0  0  0
  9 27  1  0  0  0  0
 11 12  1  0  0  0  0
 11 13  1  0  0  0  0
 11 14  1  0  0  0  0
 14 15  1  0  0  0  0
 14 16  1  0  0  0  0
 14 17  1  0  0  0  0
 17 18  1  0  0  0  0
 17 19  1  0  0  0  0
 17 20  1  0  0  0  0
 20 21  1  0  0  0  0
 20 22  1  0  0  0  0
 20 23  1  0  0  0  0
 23 24  1  0  0  0  0
 23 25  1  0  0  0  0
 23 26  1  0  0  0  0
 27 28  2  0  0  0  0
 27 29  1  0  0  0  0
 29 30  1  0  0  0  0
 29 31  1  0  0  0  0
 31 32  1  0  0  0  0
 31 33  1  0  0  0  0
 31 34  1  0  0  0  0
M  CHG  1  23   1
M  END
$$$$

  -OEChem-01062216093D

 34 33  0     1  0  0  0  0  0999 V2000
   -3.6198   -2.2114    1.4208 H   0  0  0  0  0  0  0  0  0  0  0  0
   -3.6747   -1.1838    1.0502 C   0  0  0  0  0  0  0  0  0  0  0  0
   -4.0843   -0.5491    1.8404 H   0  0  0  0  0  0  0  0  0  0  0  0
   -4.3428   -1.1554    0.1863 H   0  0  0  0  0  0  0  0  0  0  0  0
   -2.2935   -0.6946    0.6585 C   0  0  0  0  0  0  0  0  0  0  0  0
   -1.3348   -1.4487    0.7329 O   0  0  0  0  0  0  0  0  0  0  0  0
   -2.1315    0.5965    0.1923 N   0  0  0  0  0  0  0  0  0  0  0  0
   -2.9513    1.1872    0.3219 H   0  0  0  0  0  0  0  0  0  0  0  0
   -0.8300    1.2903    0.2173 C   0  0  1  0  0  0  0  0  0  0  0  0
   -0.1619    0.8042    0.9387 H   0  0  0  0  0  0  0  0  0  0  0  0
   -0.1498    1.2620   -1.1719 C   0  0  0  0  0  0  0  0  0  0  0  0
   -0.8408    1.6568   -1.9243 H   0  0  0  0  0  0  0  0  0  0  0  0
    0.7345    1.9082   -1.1498 H   0  0  0  0  0  0  0  0  0  0  0  0
    0.2873   -0.1564   -1.5690 C   0  0  0  0  0  0  0  0  0  0  0  0
    0.9537   -0.5597   -0.7977 H   0  0  0  0  0  0  0  0  0  0  0  0
   -0.5943   -0.8026   -1.6223 H   0  0  0  0  0  0  0  0  0  0  0  0
    0.9852   -0.1869   -2.9307 C   0  0  0  0  0  0  0  0  0  0  0  0
    0.3122    0.2121   -3.6976 H   0  0  0  0  0  0  0  0  0  0  0  0
    1.8823    0.4411   -2.8994 H   0  0  0  0  0  0  0  0  0  0  0  0
    1.3616   -1.6318   -3.2557 C   0  0  0  0  0  0  0  0  0  0  0  0
    2.0259   -2.0167   -2.4676 H   0  0  0  0  0  0  0  0  0  0  0  0
    0.4528   -2.2517   -3.2385 H   0  0  0  0  0  0  0  0  0  0  0  0
    2.0171   -1.6874   -4.5802 N   0  3  0  0  0  0  0  0  0  0  0  0
    2.8640   -1.1158   -4.5748 H   0  0  0  0  0  0  0  0  0  0  0  0
    2.2705   -2.6524   -4.8044 H   0  0  0  0  0  0  0  0  0  0  0  0
    1.3827   -1.3358   -5.2995 H   0  0  0  0  0  0  0  0  0  0  0  0
   -1.0272    2.7307    0.7430 C   0  0  0  0  0  0  0  0  0  0  0  0
   -1.3794    2.8865    1.9016 O   0  0  0  0  0  0  0  0  0  0  0  0
   -0.9965    3.8349   -0.0921 N   0  0  0  0  0  0  0  0  0  0  0  0
   -0.7803    3.6854   -1.0719 H   0  0  0  0  0  0  0  0  0  0  0  0
   -1.3028    5.1885    0.3623 C   0  0  0  0  0  0  0  0  0  0  0  0
   -0.6155    5.4904    1.1601 H   0  0  0  0  0  0  0  0  0  0  0  0
   -1.2039    5.8990   -0.4643 H   0  0  0  0  0  0  0  0  0  0  0  0
   -2.3281    5.2435    0.7440 H   0  0  0  0  0  0  0  0  0  0  0  0
  1  2  1  0  0  0  0
  2  3  1  0  0  0  0
  2  4  1  0  0  0  0
  2  5  1  0  0  0  0
  5  6  2  0  0  0  0
  5  7  1  0  0  0  0
  7  8  1  0  0  0  0
  7  9  1  0  0  0  0
  9 10  1  0  0  0  0
  9 11  1  0  0  0  0
  9 27  1  0  0  0  0
 11 12  1  0  0  0  0
 11 13  1  0  0  0  0
 11 14  1  0  0  0  0
 14 15  1  0  0  0  0
 14 16  1  0  0  0  0
 14 17  1  0  0  0  0
 17 18  1  0  0  0  0
 17 19  1  0  0  0  0
 17 20  1  0  0  0  0
 20 21  1  0  0  0  0
 20 22  1  0  0  0  0
 20 23  1  0  0  0  0
 23 24  1  0  0  0  0
 23 25  1  0  0  0  0
 23 26  1  0  0  0  0
 27 28  2  0  0  0  0
 27 29  1  0  0  0  0
 29 30  1  0  0  0  0
 29 31  1  0  0  0  0
 31 32  1  0  0  0  0
 31 33  1  0  0  0  0
 31 34  1  0  0  0  0
M  CHG  1  23   1
M  END
$$$$

  -OEChem-01062216093D

 34 33  0     1  0  0  0  0  0999 V2000
   -3.6169   -2.2304    1.4403 H   0  0  0  0  0  0  0  0  0  0  0  0
   -3.6834   -1.2113    1.0490 C   0  0  0  0  0  0  0  0  0  0  0  0
   -4.1163   -0.5694    1.8204 H   0  0  0  0  0  0  0  0  0  0  0  0
   -4.3383   -1.2112    0.1747 H   0  0  0  0  0  0  0  0  0  0  0  0
   -2.3045   -0.7061    0.6695 C   0  0  0  0  0  0  0  0  0  0  0  0
   -1.3380   -1.4485    0.7538 O   0  0  0  0  0  0  0  0  0  0  0  0
   -2.1534    0.5848    0.1978 N   0  0  0  0  0  0  0  0  0  0  0  0
   -2.9841    1.1648    0.2974 H   0  0  0  0  0  0  0  0  0  0  0  0
   -0.8574    1.2899    0.2127 C   0  0  1  0  0  0  0  0  0  0  0  0
   -0.1846    0.8077    0.9326 H   0  0  0  0  0  0  0  0  0  0  0  0
   -0.1745    1.2639   -1.1739 C   0  0  0  0  0  0  0  0  0  0  0  0
   -0.8666    1.6478   -1.9308 H   0  0  0  0  0  0  0  0  0  0  0  0
    0.7013    1.9217   -1.1509 H   0  0  0  0  0  0  0  0  0  0  0  0
    0.2779   -0.1516   -1.5634 C   0  0  0  0  0  0  0  0  0  0  0  0
    0.9478   -0.5439   -0.7894 H   0  0  0  0  0  0  0  0  0  0  0  0
   -0.5968   -0.8075   -1.6145 H   0  0  0  0  0  0  0  0  0  0  0  0
    0.9787   -0.1778   -2.9237 C   0  0  0  0  0  0  0  0  0  0  0  0
    0.3028    0.2120   -3.6927 H   0  0  0  0  0  0  0  0  0  0  0  0
    1.8679    0.4613   -2.8914 H   0  0  0  0  0  0  0  0  0  0  0  0
    1.3737   -1.6180   -3.2472 C   0  0  0  0  0  0  0  0  0  0  0  0
    2.0424   -1.9931   -2.4580 H   0  0  0  0  0  0  0  0  0  0  0  0
    0.4737   -2.2504   -3.2306 H   0  0  0  0  0  0  0  0  0  0  0  0
    2.0321   -1.6653   -4.5705 N   0  3  0  0  0  0  0  0  0  0  0  0
    2.8683   -1.0783   -4.5649 H   0  0  0  0  0  0  0  0  0  0  0  0
    2.3036   -2.6261   -4.7913 H   0  0  0  0  0  0  0  0  0  0  0  0
    1.3927   -1.3273   -5.2919 H   0  0  0  0  0  0  0  0  0  0  0  0
   -1.0454    2.7319    0.7309 C   0  0  0  0  0  0  0  0  0  0  0  0
   -1.0690    2.9316    1.9344 O   0  0  0  0  0  0  0  0  0  0  0  0
   -1.3233    3.7833   -0.1257 N   0  0  0  0  0  0  0  0  0  0  0  0
   -1.3689    3.5880   -1.1204 H   0  0  0  0  0  0  0  0  0  0  0  0
   -1.6062    5.1374    0.3420 C   0  0  0  0  0  0  0  0  0  0  0  0
   -0.7513    5.5374    0.8980 H   0  0  0  0  0  0  0  0  0  0  0  0
   -1.8064    5.8001   -0.5056 H   0  0  0  0  0  0  0  0  0  0  0  0
   -2.4835    5.1421    0.9981 H   0  0  0  0  0  0  0  0  0  0  0  0
  1  2  1  0  0  0  0
  2  3  1  0  0  0  0
  2  4  1  0  0  0  0
  2  5  1  0  0  0  0
  5  6  2  0  0  0  0
  5  7  1  0  0  0  0
  7  8  1  0  0  0  0
  7  9  1  0  0  0  0
  9 10  1  0  0  0  0
  9 11  1  0  0  0  0
  9 27  1  0  0  0  0
 11 12  1  0  0  0  0
 11 13  1  0  0  0  0
 11 14  1  0  0  0  0
 14 15  1  0  0  0  0
 14 16  1  0  0  0  0
 14 17  1  0  0  0  0
 17 18  1  0  0  0  0
 17 19  1  0  0  0  0
 17 20  1  0  0  0  0
 20 21  1  0  0  0  0
 20 22  1  0  0  0  0
 20 23  1  0  0  0  0
 23 24  1  0  0  0  0
 23 25  1  0  0  0  0
 23 26  1  0  0  0  0
 27 28  2  0  0  0  0
 27 29  1  0  0  0  0
 29 30  1  0  0  0  0
 29 31  1  0  0  0  0
 31 32  1  0  0  0  0
 31 33  1  0  0  0  0
 31 34  1  0  0  0  0
M  CHG  1  23   1
M  END
$$$$

  -OEChem-01062216093D

 34 33  0     1  0  0  0  0  0999 V2000
   -3.6134   -2.2644    1.4627 H   0  0  0  0  0  0  0  0  0  0  0  0
   -3.6934   -1.2588    1.0400 C   0  0  0  0  0  0  0  0  0  0  0  0
   -4.1681   -0.6077    1.7784 H   0  0  0  0  0  0  0  0  0  0  0  0
   -4.3192   -1.3014    0.1456 H   0  0  0  0  0  0  0  0  0  0  0  0
   -2.3159   -0.7292    0.6886 C   0  0  0  0  0  0  0  0  0  0  0  0
   -1.3403   -1.4575    0.7847 O   0  0  0  0  0  0  0  0  0  0  0  0
   -2.1768    0.5617    0.2125 N   0  0  0  0  0  0  0  0  0  0  0  0
   -3.0184    1.1292    0.2852 H   0  0  0  0  0  0  0  0  0  0  0  0
   -0.8878    1.2817    0.2229 C   0  0  1  0  0  0  0  0  0  0  0  0
   -0.2096    0.8032    0.9407 H   0  0  0  0  0  0  0  0  0  0  0  0
   -0.2048    1.2653   -1.1623 C   0  0  0  0  0  0  0  0  0  0  0  0
   -0.9000    1.6430   -1.9190 H   0  0  0  0  0  0  0  0  0  0  0  0
    0.6624    1.9344   -1.1380 H   0  0  0  0  0  0  0  0  0  0  0  0
    0.2642   -0.1450   -1.5507 C   0  0  0  0  0  0  0  0  0  0  0  0
    0.9403   -0.5272   -0.7770 H   0  0  0  0  0  0  0  0  0  0  0  0
   -0.6017   -0.8126   -1.5994 H   0  0  0  0  0  0  0  0  0  0  0  0
    0.9657   -0.1615   -2.9109 C   0  0  0  0  0  0  0  0  0  0  0  0
    0.2850    0.2207   -3.6793 H   0  0  0  0  0  0  0  0  0  0  0  0
    1.8462    0.4895   -2.8777 H   0  0  0  0  0  0  0  0  0  0  0  0
    1.3803   -1.5953   -3.2387 C   0  0  0  0  0  0  0  0  0  0  0  0
    2.0549   -1.9634   -2.4511 H   0  0  0  0  0  0  0  0  0  0  0  0
    0.4893   -2.2407   -3.2243 H   0  0  0  0  0  0  0  0  0  0  0  0
    2.0387   -1.6272   -4.5625 N   0  3  0  0  0  0  0  0  0  0  0  0
    2.8646   -1.0256   -4.5549 H   0  0  0  0  0  0  0  0  0  0  0  0
    2.3269   -2.5822   -4.7869 H   0  0  0  0  0  0  0  0  0  0  0  0
    1.3935   -1.2975   -5.2824 H   0  0  0  0  0  0  0  0  0  0  0  0
   -1.0727    2.7258    0.7330 C   0  0  0  0  0  0  0  0  0  0  0  0
   -0.7524    3.0086    1.8758 O   0  0  0  0  0  0  0  0  0  0  0  0
   -1.6489    3.6978   -0.0664 N   0  0  0  0  0  0  0  0  0  0  0  0
   -1.9209    3.4394   -1.0094 H   0  0  0  0  0  0  0  0  0  0  0  0
   -1.8763    5.0678    0.3846 C   0  0  0  0  0  0  0  0  0  0  0  0
   -0.9262    5.5506    0.6377 H   0  0  0  0  0  0  0  0  0  0  0  0
   -2.3620    5.6533   -0.4024 H   0  0  0  0  0  0  0  0  0  0  0  0
   -2.5216    5.0796    1.2698 H   0  0  0  0  0  0  0  0  0  0  0  0
  1  2  1  0  0  0  0
  2  3  1  0  0  0  0
  2  4  1  0  0  0  0
  2  5  1  0  0  0  0
  5  6  2  0  0  0  0
  5  7  1  0  0  0  0
  7  8  1  0  0  0  0
  7  9  1  0  0  0  0
  9 10  1  0  0  0  0
  9 11  1  0  0  0  0
  9 27  1  0  0  0  0
 11 12  1  0  0  0  0
 11 13  1  0  0  0  0
 11 14  1  0  0  0  0
 14 15  1  0  0  0  0
 14 16  1  0  0  0  0
 14 17  1  0  0  0  0
 17 18  1  0  0  0  0
 17 19  1  0  0  0  0
 17 20  1  0  0  0  0
 20 21  1  0  0  0  0
 20 22  1  0  0  0  0
 20 23  1  0  0  0  0
 23 24  1  0  0  0  0
 23 25  1  0  0  0  0
 23 26  1  0  0  0  0
 27 28  2  0  0  0  0
 27 29  1  0  0  0  0
 29 30  1  0  0  0  0
 29 31  1  0  0  0  0
 31 32  1  0  0  0  0
 31 33  1  0  0  0  0
 31 34  1  0  0  0  0
M  CHG  1  23   1
M  END
$$$$

  -OEChem-01062216093D

 34 33  0     1  0  0  0  0  0999 V2000
   -3.6155   -2.3044    1.4683 H   0  0  0  0  0  0  0  0  0  0  0  0
   -3.7032   -1.3003    1.0431 C   0  0  0  0  0  0  0  0  0  0  0  0
   -4.1905   -0.6532    1.7768 H   0  0  0  0  0  0  0  0  0  0  0  0
   -4.3216   -1.3518    0.1438 H   0  0  0  0  0  0  0  0  0  0  0  0
   -2.3288   -0.7568    0.7011 C   0  0  0  0  0  0  0  0  0  0  0  0
   -1.3471   -1.4753    0.8043 O   0  0  0  0  0  0  0  0  0  0  0  0
   -2.1984    0.5350    0.2243 N   0  0  0  0  0  0  0  0  0  0  0  0
   -3.0461    1.0937    0.2892 H   0  0  0  0  0  0  0  0  0  0  0  0
   -0.9144    1.2656    0.2393 C   0  0  1  0  0  0  0  0  0  0  0  0
   -0.2350    0.7887    0.9569 H   0  0  0  0  0  0  0  0  0  0  0  0
   -0.2297    1.2624   -1.1434 C   0  0  0  0  0  0  0  0  0  0  0  0
   -0.9263    1.6413   -1.8983 H   0  0  0  0  0  0  0  0  0  0  0  0
    0.6323    1.9382   -1.1135 H   0  0  0  0  0  0  0  0  0  0  0  0
    0.2516   -0.1418   -1.5388 C   0  0  0  0  0  0  0  0  0  0  0  0
    0.9307   -0.5216   -0.7666 H   0  0  0  0  0  0  0  0  0  0  0  0
   -0.6080   -0.8174   -1.5911 H   0  0  0  0  0  0  0  0  0  0  0  0
    0.9552   -0.1425   -2.8982 C   0  0  0  0  0  0  0  0  0  0  0  0
    0.2716    0.2386   -3.6646 H   0  0  0  0  0  0  0  0  0  0  0  0
    1.8293    0.5169   -2.8599 H   0  0  0  0  0  0  0  0  0  0  0  0
    1.3835   -1.5696   -3.2362 C   0  0  0  0  0  0  0  0  0  0  0  0
    2.0605   -1.9374   -2.4505 H   0  0  0  0  0  0  0  0  0  0  0  0
    0.4984   -2.2230   -3.2279 H   0  0  0  0  0  0  0  0  0  0  0  0
    2.0440   -1.5856   -4.5593 N   0  3  0  0  0  0  0  0  0  0  0  0
    2.8643   -0.9763   -4.5464 H   0  0  0  0  0  0  0  0  0  0  0  0
    2.3415   -2.5363   -4.7902 H   0  0  0  0  0  0  0  0  0  0  0  0
    1.3969   -1.2566   -5.2778 H   0  0  0  0  0  0  0  0  0  0  0  0
   -1.0975    2.7104    0.7449 C   0  0  0  0  0  0  0  0  0  0  0  0
   -0.4876    3.0915    1.7305 O   0  0  0  0  0  0  0  0  0  0  0  0
   -1.9339    3.5912    0.0811 N   0  0  0  0  0  0  0  0  0  0  0  0
   -2.3728    3.2750   -0.7778 H   0  0  0  0  0  0  0  0  0  0  0  0
   -2.1188    4.9778    0.4998 C   0  0  0  0  0  0  0  0  0  0  0  0
   -1.1711    5.5243    0.4462 H   0  0  0  0  0  0  0  0  0  0  0  0
   -2.8443    5.4790   -0.1485 H   0  0  0  0  0  0  0  0  0  0  0  0
   -2.4902    5.0219    1.5294 H   0  0  0  0  0  0  0  0  0  0  0  0
  1  2  1  0  0  0  0
  2  3  1  0  0  0  0
  2  4  1  0  0  0  0
  2  5  1  0  0  0  0
  5  6  2  0  0  0  0
  5  7  1  0  0  0  0
  7  8  1  0  0  0  0
  7  9  1  0  0  0  0
  9 10  1  0  0  0  0
  9 11  1  0  0  0  0
  9 27  1  0  0  0  0
 11 12  1  0  0  0  0
 11 13  1  0  0  0  0
 11 14  1  0  0  0  0
 14 15  1  0  0  0  0
 14 16  1  0  0  0  0
 14 17  1  0  0  0  0
 17 18  1  0  0  0  0
 17 19  1  0  0  0  0
 17 20  1  0  0  0  0
 20 21  1  0  0  0  0
 20 22  1  0  0  0  0
 20 23  1  0  0  0  0
 23 24  1  0  0  0  0
 23 25  1  0  0  0  0
 23 26  1  0  0  0  0
 27 28  2  0  0  0  0
 27 29  1  0  0  0  0
 29 30  1  0  0  0  0
 29 31  1  0  0  0  0
 31 32  1  0  0  0  0
 31 33  1  0  0  0  0
 31 34  1  0  0  0  0
M  CHG  1  23   1
M  END
$$$$

  -OEChem-01062216093D

 34 33  0     1  0  0  0  0  0999 V2000
   -3.6176   -2.3442    1.4710 H   0  0  0  0  0  0  0  0  0  0  0  0
   -3.7116   -1.3393    1.0494 C   0  0  0  0  0  0  0  0  0  0  0  0
   -4.2030   -0.6982    1.7856 H   0  0  0  0  0  0  0  0  0  0  0  0
   -4.3300   -1.3918    0.1502 H   0  0  0  0  0  0  0  0  0  0  0  0
   -2.3408   -0.7855    0.7089 C   0  0  0  0  0  0  0  0  0  0  0  0
   -1.3534   -1.4948    0.8187 O   0  0  0  0  0  0  0  0  0  0  0  0
   -2.2194    0.5072    0.2319 N   0  0  0  0  0  0  0  0  0  0  0  0
   -3.0717    1.0577    0.2971 H   0  0  0  0  0  0  0  0  0  0  0  0
   -0.9389    1.2469    0.2523 C   0  0  1  0  0  0  0  0  0  0  0  0
   -0.2593    0.7710    0.9703 H   0  0  0  0  0  0  0  0  0  0  0  0
   -0.2515    1.2543   -1.1280 C   0  0  0  0  0  0  0  0  0  0  0  0
   -0.9492    1.6347   -1.8812 H   0  0  0  0  0  0  0  0  0  0  0  0
    0.6068    1.9350   -1.0930 H   0  0  0  0  0  0  0  0  0  0  0  0
    0.2401   -0.1439   -1.5288 C   0  0  0  0  0  0  0  0  0  0  0  0
    0.9207   -0.5228   -0.7575 H   0  0  0  0  0  0  0  0  0  0  0  0
   -0.6144   -0.8254   -1.5865 H   0  0  0  0  0  0  0  0  0  0  0  0
    0.9461   -0.1283   -2.8866 C   0  0  0  0  0  0  0  0  0  0  0  0
    0.2611    0.2540   -3.6513 H   0  0  0  0  0  0  0  0  0  0  0  0
    1.8148    0.5380   -2.8410 H   0  0  0  0  0  0  0  0  0  0  0  0
    1.3868   -1.5486   -3.2347 C   0  0  0  0  0  0  0  0  0  0  0  0
    2.0655   -1.9163   -2.4506 H   0  0  0  0  0  0  0  0  0  0  0  0
    0.5071   -2.2091   -3.2335 H   0  0  0  0  0  0  0  0  0  0  0  0
    2.0495   -1.5464   -4.5567 N   0  3  0  0  0  0  0  0  0  0  0  0
    2.8626   -0.9276   -4.5371 H   0  0  0  0  0  0  0  0  0  0  0  0
    2.3584   -2.4915   -4.7946 H   0  0  0  0  0  0  0  0  0  0  0  0
    1.3997   -1.2188   -5.2734 H   0  0  0  0  0  0  0  0  0  0  0  0
   -1.1112    2.6942    0.7540 C   0  0  0  0  0  0  0  0  0  0  0  0
   -0.2880    3.1686    1.5201 O   0  0  0  0  0  0  0  0  0  0  0  0
   -2.1503    3.4871    0.2971 N   0  0  0  0  0  0  0  0  0  0  0  0
   -2.7287    3.1244   -0.4535 H   0  0  0  0  0  0  0  0  0  0  0  0
   -2.3114    4.8826    0.6955 C   0  0  0  0  0  0  0  0  0  0  0  0
   -1.4564    5.4796    0.3607 H   0  0  0  0  0  0  0  0  0  0  0  0
   -3.2212    5.3024    0.2551 H   0  0  0  0  0  0  0  0  0  0  0  0
   -2.3887    4.9637    1.7855 H   0  0  0  0  0  0  0  0  0  0  0  0
  1  2  1  0  0  0  0
  2  3  1  0  0  0  0
  2  4  1  0  0  0  0
  2  5  1  0  0  0  0
  5  6  2  0  0  0  0
  5  7  1  0  0  0  0
  7  8  1  0  0  0  0
  7  9  1  0  0  0  0
  9 10  1  0  0  0  0
  9 11  1  0  0  0  0
  9 27  1  0  0  0  0
 11 12  1  0  0  0  0
 11 13  1  0  0  0  0
 11 14  1  0  0  0  0
 14 15  1  0  0  0  0
 14 16  1  0  0  0  0
 14 17  1  0  0  0  0
 17 18  1  0  0  0  0
 17 19  1  0  0  0  0
 17 20  1  0  0  0  0
 20 21  1  0  0  0  0
 20 22  1  0  0  0  0
 20 23  1  0  0  0  0
 23 24  1  0  0  0  0
 23 25  1  0  0  0  0
 23 26  1  0  0  0  0
 27 28  2  0  0  0  0
 27 29  1  0  0  0  0
 29 30  1  0  0  0  0
 29 31  1  0  0  0  0
 31 32  1  0  0  0  0
 31 33  1  0  0  0  0
 31 34  1  0  0  0  0
M  CHG  1  23   1
M  END
$$$$

  -OEChem-01062216093D

 34 33  0     1  0  0  0  0  0999 V2000
   -3.6049   -2.3954    1.4316 H   0  0  0  0  0  0  0  0  0  0  0  0
   -3.7058   -1.3891    1.0144 C   0  0  0  0  0  0  0  0  0  0  0  0
   -4.2307   -0.7629    1.7400 H   0  0  0  0  0  0  0  0  0  0  0  0
   -4.2964   -1.4466    0.0970 H   0  0  0  0  0  0  0  0  0  0  0  0
   -2.3363   -0.8078    0.7179 C   0  0  0  0  0  0  0  0  0  0  0  0
   -1.3399   -1.4985    0.8572 O   0  0  0  0  0  0  0  0  0  0  0  0
   -2.2254    0.4865    0.2423 N   0  0  0  0  0  0  0  0  0  0  0  0
   -3.0891    1.0193    0.2702 H   0  0  0  0  0  0  0  0  0  0  0  0
   -0.9531    1.2425    0.2668 C   0  0  1  0  0  0  0  0  0  0  0  0
   -0.2692    0.7722    0.9841 H   0  0  0  0  0  0  0  0  0  0  0  0
   -0.2719    1.2494   -1.1171 C   0  0  0  0  0  0  0  0  0  0  0  0
   -0.9767    1.6209   -1.8680 H   0  0  0  0  0  0  0  0  0  0  0  0
    0.5810    1.9377   -1.0909 H   0  0  0  0  0  0  0  0  0  0  0  0
    0.2327   -0.1453   -1.5148 C   0  0  0  0  0  0  0  0  0  0  0  0
    0.9222   -0.5130   -0.7459 H   0  0  0  0  0  0  0  0  0  0  0  0
   -0.6138   -0.8372   -1.5650 H   0  0  0  0  0  0  0  0  0  0  0  0
    0.9309   -0.1246   -2.8765 C   0  0  0  0  0  0  0  0  0  0  0  0
    0.2373    0.2482   -3.6378 H   0  0  0  0  0  0  0  0  0  0  0  0
    1.7918    0.5520   -2.8368 H   0  0  0  0  0  0  0  0  0  0  0  0
    1.3868   -1.5395   -3.2260 C   0  0  0  0  0  0  0  0  0  0  0  0
    2.0751   -1.8983   -2.4461 H   0  0  0  0  0  0  0  0  0  0  0  0
    0.5156   -2.2112   -3.2191 H   0  0  0  0  0  0  0  0  0  0  0  0
    2.0414   -1.5289   -4.5518 N   0  3  0  0  0  0  0  0  0  0  0  0
    2.8405   -0.8923   -4.5397 H   0  0  0  0  0  0  0  0  0  0  0  0
    2.3696   -2.4679   -4.7880 H   0  0  0  0  0  0  0  0  0  0  0  0
    1.3803   -1.2185   -5.2659 H   0  0  0  0  0  0  0  0  0  0  0  0
   -1.1155    2.6945    0.7651 C   0  0  0  0  0  0  0  0  0  0  0  0
   -0.1632    3.2516    1.2884 O   0  0  0  0  0  0  0  0  0  0  0  0
   -2.2886    3.4054    0.5708 N   0  0  0  0  0  0  0  0  0  0  0  0
   -3.0000    2.9956   -0.0235 H   0  0  0  0  0  0  0  0  0  0  0  0
   -2.4388    4.8006    0.9753 C   0  0  0  0  0  0  0  0  0  0  0  0
   -1.7428    5.4393    0.4209 H   0  0  0  0  0  0  0  0  0  0  0  0
   -3.4584    5.1468    0.7793 H   0  0  0  0  0  0  0  0  0  0  0  0
   -2.2393    4.9132    2.0467 H   0  0  0  0  0  0  0  0  0  0  0  0
  1  2  1  0  0  0  0
  2  3  1  0  0  0  0
  2  4  1  0  0  0  0
  2  5  1  0  0  0  0
  5  6  2  0  0  0  0
  5  7  1  0  0  0  0
  7  8  1  0  0  0  0
  7  9  1  0  0  0  0
  9 10  1  0  0  0  0
  9 11  1  0  0  0  0
  9 27  1  0  0  0  0
 11 12  1  0  0  0  0
 11 13  1  0  0  0  0
 11 14  1  0  0  0  0
 14 15  1  0  0  0  0
 14 16  1  0  0  0  0
 14 17  1  0  0  0  0
 17 18  1  0  0  0  0
 17 19  1  0  0  0  0
 17 20  1  0  0  0  0
 20 21  1  0  0  0  0
 20 22  1  0  0  0  0
 20 23  1  0  0  0  0
 23 24  1  0  0  0  0
 23 25  1  0  0  0  0
 23 26  1  0  0  0  0
 27 28  2  0  0  0  0
 27 29  1  0  0  0  0
 29 30  1  0  0  0  0
 29 31  1  0  0  0  0
 31 32  1  0  0  0  0
 31 33  1  0  0  0  0
 31 34  1  0  0  0  0
M  CHG  1  23   1
M  END
$$$$

  -OEChem-01062216093D

 34 33  0     1  0  0  0  0  0999 V2000
   -3.5720   -2.4457    1.2806 H   0  0  0  0  0  0  0  0  0  0  0  0
   -3.6639   -1.4484    0.8403 C   0  0  0  0  0  0  0  0  0  0  0  0
   -4.3449   -0.8569    1.4571 H   0  0  0  0  0  0  0  0  0  0  0  0
   -4.0827   -1.5444   -0.1642 H   0  0  0  0  0  0  0  0  0  0  0  0
   -2.3041   -0.7793    0.7783 C   0  0  0  0  0  0  0  0  0  0  0  0
   -1.3033   -1.4038    1.0884 O   0  0  0  0  0  0  0  0  0  0  0  0
   -2.1907    0.5127    0.2995 N   0  0  0  0  0  0  0  0  0  0  0  0
   -3.0396    0.9480   -0.0486 H   0  0  0  0  0  0  0  0  0  0  0  0
   -0.9323    1.2909    0.2845 C   0  0  1  0  0  0  0  0  0  0  0  0
   -0.2263    0.8421    0.9931 H   0  0  0  0  0  0  0  0  0  0  0  0
   -0.2865    1.2597   -1.1166 C   0  0  0  0  0  0  0  0  0  0  0  0
   -1.0157    1.5980   -1.8600 H   0  0  0  0  0  0  0  0  0  0  0  0
    0.5587    1.9570   -1.1407 H   0  0  0  0  0  0  0  0  0  0  0  0
    0.2281   -0.1416   -1.4783 C   0  0  0  0  0  0  0  0  0  0  0  0
    0.9465   -0.4707   -0.7185 H   0  0  0  0  0  0  0  0  0  0  0  0
   -0.6055   -0.8509   -1.4798 H   0  0  0  0  0  0  0  0  0  0  0  0
    0.8887   -0.1457   -2.8591 C   0  0  0  0  0  0  0  0  0  0  0  0
    0.1672    0.1960   -3.6094 H   0  0  0  0  0  0  0  0  0  0  0  0
    1.7367    0.5484   -2.8599 H   0  0  0  0  0  0  0  0  0  0  0  0
    1.3646   -1.5573   -3.1921 C   0  0  0  0  0  0  0  0  0  0  0  0
    2.0833   -1.8857   -2.4264 H   0  0  0  0  0  0  0  0  0  0  0  0
    0.5090   -2.2471   -3.1477 H   0  0  0  0  0  0  0  0  0  0  0  0
    1.9796   -1.5545   -4.5367 N   0  3  0  0  0  0  0  0  0  0  0  0
    2.7834   -0.9233   -4.5493 H   0  0  0  0  0  0  0  0  0  0  0  0
    2.2941   -2.4960   -4.7811 H   0  0  0  0  0  0  0  0  0  0  0  0
    1.3002   -1.2398   -5.2314 H   0  0  0  0  0  0  0  0  0  0  0  0
   -1.0907    2.7483    0.7761 C   0  0  0  0  0  0  0  0  0  0  0  0
   -0.0914    3.4386    0.9134 O   0  0  0  0  0  0  0  0  0  0  0  0
   -2.3343    3.3452    0.8977 N   0  0  0  0  0  0  0  0  0  0  0  0
   -3.1404    2.7321    0.9327 H   0  0  0  0  0  0  0  0  0  0  0  0
   -2.5013    4.7302    1.3298 C   0  0  0  0  0  0  0  0  0  0  0  0
   -1.9722    5.4100    0.6532 H   0  0  0  0  0  0  0  0  0  0  0  0
   -3.5609    5.0038    1.3294 H   0  0  0  0  0  0  0  0  0  0  0  0
   -2.1078    4.8675    2.3427 H   0  0  0  0  0  0  0  0  0  0  0  0
  1  2  1  0  0  0  0
  2  3  1  0  0  0  0
  2  4  1  0  0  0  0
  2  5  1  0  0  0  0
  5  6  2  0  0  0  0
  5  7  1  0  0  0  0
  7  8  1  0  0  0  0
  7  9  1  0  0  0  0
  9 10  1  0  0  0  0
  9 11  1  0  0  0  0
  9 27  1  0  0  0  0
 11 12  1  0  0  0  0
 11 13  1  0  0  0  0
 11 14  1  0  0  0  0
 14 15  1  0  0  0  0
 14 16  1  0  0  0  0
 14 17  1  0  0  0  0
 17 18  1  0  0  0  0
 17 19  1  0  0  0  0
 17 20  1  0  0  0  0
 20 21  1  0  0  0  0
 20 22  1  0  0  0  0
 20 23  1  0  0  0  0
 23 24  1  0  0  0  0
 23 25  1  0  0  0  0
 23 26  1  0  0  0  0
 27 28  2  0  0  0  0
 27 29  1  0  0  0  0
 29 30  1  0  0  0  0
 29 31  1  0  0  0  0
 31 32  1  0  0  0  0
 31 33  1  0  0  0  0
 31 34  1  0  0  0  0
M  CHG  1  23   1
M  END
$$$$

  -OEChem-01062216093D

 34 33  0     1  0  0  0  0  0999 V2000
   -3.5825   -2.4297    1.2466 H   0  0  0  0  0  0  0  0  0  0  0  0
   -3.6677   -1.4234    0.8262 C   0  0  0  0  0  0  0  0  0  0  0  0
   -4.3462   -0.8403    1.4536 H   0  0  0  0  0  0  0  0  0  0  0  0
   -4.0851   -1.4969   -0.1806 H   0  0  0  0  0  0  0  0  0  0  0  0
   -2.3043   -0.7607    0.7785 C   0  0  0  0  0  0  0  0  0  0  0  0
   -1.3098   -1.3860    1.1062 O   0  0  0  0  0  0  0  0  0  0  0  0
   -2.1802    0.5300    0.3003 N   0  0  0  0  0  0  0  0  0  0  0  0
   -3.0243    0.9742   -0.0517 H   0  0  0  0  0  0  0  0  0  0  0  0
   -0.9180    1.3015    0.2867 C   0  0  1  0  0  0  0  0  0  0  0  0
   -0.2134    0.8546    0.9977 H   0  0  0  0  0  0  0  0  0  0  0  0
   -0.2733    1.2592   -1.1165 C   0  0  0  0  0  0  0  0  0  0  0  0
   -1.0019    1.5996   -1.8596 H   0  0  0  0  0  0  0  0  0  0  0  0
    0.5769    1.9494   -1.1474 H   0  0  0  0  0  0  0  0  0  0  0  0
    0.2336   -0.1457   -1.4771 C   0  0  0  0  0  0  0  0  0  0  0  0
    0.9515   -0.4788   -0.7187 H   0  0  0  0  0  0  0  0  0  0  0  0
   -0.6035   -0.8507   -1.4766 H   0  0  0  0  0  0  0  0  0  0  0  0
    0.8912   -0.1516   -2.8600 C   0  0  0  0  0  0  0  0  0  0  0  0
    0.1693    0.1938   -3.6081 H   0  0  0  0  0  0  0  0  0  0  0  0
    1.7416    0.5394   -2.8621 H   0  0  0  0  0  0  0  0  0  0  0  0
    1.3617   -1.5640   -3.1975 C   0  0  0  0  0  0  0  0  0  0  0  0
    2.0810   -1.8962   -2.4340 H   0  0  0  0  0  0  0  0  0  0  0  0
    0.5042   -2.2515   -3.1529 H   0  0  0  0  0  0  0  0  0  0  0  0
    1.9735   -1.5609   -4.5440 N   0  3  0  0  0  0  0  0  0  0  0  0
    2.7716   -0.9225   -4.5611 H   0  0  0  0  0  0  0  0  0  0  0  0
    2.2959   -2.5006   -4.7856 H   0  0  0  0  0  0  0  0  0  0  0  0
    1.2895   -1.2548   -5.2383 H   0  0  0  0  0  0  0  0  0  0  0  0
   -1.0911    2.7577    0.7813 C   0  0  0  0  0  0  0  0  0  0  0  0
   -0.1512    3.5362    0.7110 O   0  0  0  0  0  0  0  0  0  0  0  0
   -2.3253    3.2372    1.1862 N   0  0  0  0  0  0  0  0  0  0  0  0
   -3.0309    2.5436    1.4105 H   0  0  0  0  0  0  0  0  0  0  0  0
   -2.5148    4.5989    1.6792 C   0  0  0  0  0  0  0  0  0  0  0  0
   -2.2222    5.3281    0.9160 H   0  0  0  0  0  0  0  0  0  0  0  0
   -3.5660    4.7703    1.9309 H   0  0  0  0  0  0  0  0  0  0  0  0
   -1.9108    4.7701    2.5769 H   0  0  0  0  0  0  0  0  0  0  0  0
  1  2  1  0  0  0  0
  2  3  1  0  0  0  0
  2  4  1  0  0  0  0
  2  5  1  0  0  0  0
  5  6  2  0  0  0  0
  5  7  1  0  0  0  0
  7  8  1  0  0  0  0
  7  9  1  0  0  0  0
  9 10  1  0  0  0  0
  9 11  1  0  0  0  0
  9 27  1  0  0  0  0
 11 12  1  0  0  0  0
 11 13  1  0  0  0  0
 11 14  1  0  0  0  0
 14 15  1  0  0  0  0
 14 16  1  0  0  0  0
 14 17  1  0  0  0  0
 17 18  1  0  0  0  0
 17 19  1  0  0  0  0
 17 20  1  0  0  0  0
 20 21  1  0  0  0  0
 20 22  1  0  0  0  0
 20 23  1  0  0  0  0
 23 24  1  0  0  0  0
 23 25  1  0  0  0  0
 23 26  1  0  0  0  0
 27 28  2  0  0  0  0
 27 29  1  0  0  0  0
 29 30  1  0  0  0  0
 29 31  1  0  0  0  0
 31 32  1  0  0  0  0
 31 33  1  0  0  0  0
 31 34  1  0  0  0  0
M  CHG  1  23   1
M  END
$$$$

  -OEChem-01062216093D

 34 33  0     1  0  0  0  0  0999 V2000
   -3.6009   -2.3985    1.2571 H   0  0  0  0  0  0  0  0  0  0  0  0
   -3.6764   -1.3936    0.8313 C   0  0  0  0  0  0  0  0  0  0  0  0
   -4.3459   -0.7988    1.4574 H   0  0  0  0  0  0  0  0  0  0  0  0
   -4.0990   -1.4683   -0.1734 H   0  0  0  0  0  0  0  0  0  0  0  0
   -2.3054   -0.7472    0.7741 C   0  0  0  0  0  0  0  0  0  0  0  0
   -1.3164   -1.3827    1.0994 O   0  0  0  0  0  0  0  0  0  0  0  0
   -2.1676    0.5436    0.2999 N   0  0  0  0  0  0  0  0  0  0  0  0
   -3.0138    1.0154   -0.0113 H   0  0  0  0  0  0  0  0  0  0  0  0
   -0.8989    1.3041    0.2933 C   0  0  1  0  0  0  0  0  0  0  0  0
   -0.1988    0.8526    1.0054 H   0  0  0  0  0  0  0  0  0  0  0  0
   -0.2536    1.2580   -1.1104 C   0  0  0  0  0  0  0  0  0  0  0  0
   -0.9775    1.6097   -1.8528 H   0  0  0  0  0  0  0  0  0  0  0  0
    0.6057    1.9371   -1.1388 H   0  0  0  0  0  0  0  0  0  0  0  0
    0.2399   -0.1496   -1.4752 C   0  0  0  0  0  0  0  0  0  0  0  0
    0.9546   -0.4919   -0.7177 H   0  0  0  0  0  0  0  0  0  0  0  0
   -0.6040   -0.8464   -1.4787 H   0  0  0  0  0  0  0  0  0  0  0  0
    0.8966   -0.1534   -2.8582 C   0  0  0  0  0  0  0  0  0  0  0  0
    0.1766    0.2021   -3.6034 H   0  0  0  0  0  0  0  0  0  0  0  0
    1.7520    0.5315   -2.8570 H   0  0  0  0  0  0  0  0  0  0  0  0
    1.3560   -1.5670   -3.2057 C   0  0  0  0  0  0  0  0  0  0  0  0
    2.0740   -1.9105   -2.4460 H   0  0  0  0  0  0  0  0  0  0  0  0
    0.4927   -2.2475   -3.1654 H   0  0  0  0  0  0  0  0  0  0  0  0
    1.9662   -1.5580   -4.5527 N   0  3  0  0  0  0  0  0  0  0  0  0
    2.7717   -0.9288   -4.5647 H   0  0  0  0  0  0  0  0  0  0  0  0
    2.2767   -2.4989   -4.8043 H   0  0  0  0  0  0  0  0  0  0  0  0
    1.2849   -1.2369   -5.2428 H   0  0  0  0  0  0  0  0  0  0  0  0
   -1.0840    2.7580    0.7943 C   0  0  0  0  0  0  0  0  0  0  0  0
   -0.2560    3.6168    0.5252 O   0  0  0  0  0  0  0  0  0  0  0  0
   -2.2332    3.1295    1.4702 N   0  0  0  0  0  0  0  0  0  0  0  0
   -2.8164    2.3775    1.8240 H   0  0  0  0  0  0  0  0  0  0  0  0
   -2.4385    4.4752    1.9980 C   0  0  0  0  0  0  0  0  0  0  0  0
   -2.4115    5.2133    1.1890 H   0  0  0  0  0  0  0  0  0  0  0  0
   -3.4119    4.5450    2.4933 H   0  0  0  0  0  0  0  0  0  0  0  0
   -1.6601    4.7252    2.7271 H   0  0  0  0  0  0  0  0  0  0  0  0
  1  2  1  0  0  0  0
  2  3  1  0  0  0  0
  2  4  1  0  0  0  0
  2  5  1  0  0  0  0
  5  6  2  0  0  0  0
  5  7  1  0  0  0  0
  7  8  1  0  0  0  0
  7  9  1  0  0  0  0
  9 10  1  0  0  0  0
  9 11  1  0  0  0  0
  9 27  1  0  0  0  0
 11 12  1  0  0  0  0
 11 13  1  0  0  0  0
 11 14  1  0  0  0  0
 14 15  1  0  0  0  0
 14 16  1  0  0  0  0
 14 17  1  0  0  0  0
 17 18  1  0  0  0  0
 17 19  1  0  0  0  0
 17 20  1  0  0  0  0
 20 21  1  0  0  0  0
 20 22  1  0  0  0  0
 20 23  1  0  0  0  0
 23 24  1  0  0  0  0
 23 25  1  0  0  0  0
 23 26  1  0  0  0  0
 27 28  2  0  0  0  0
 27 29  1  0  0  0  0
 29 30  1  0  0  0  0
 29 31  1  0  0  0  0
 31 32  1  0  0  0  0
 31 33  1  0  0  0  0
 31 34  1  0  0  0  0
M  CHG  1  23   1
M  END
$$$$

  -OEChem-01062216093D

 34 33  0     1  0  0  0  0  0999 V2000
   -3.6197   -2.3617    1.2772 H   0  0  0  0  0  0  0  0  0  0  0  0
   -3.6841   -1.3590    0.8447 C   0  0  0  0  0  0  0  0  0  0  0  0
   -4.3402   -0.7501    1.4715 H   0  0  0  0  0  0  0  0  0  0  0  0
   -4.1158   -1.4346   -0.1561 H   0  0  0  0  0  0  0  0  0  0  0  0
   -2.3043   -0.7328    0.7719 C   0  0  0  0  0  0  0  0  0  0  0  0
   -1.3203   -1.3800    1.0898 O   0  0  0  0  0  0  0  0  0  0  0  0
   -2.1536    0.5576    0.3018 N   0  0  0  0  0  0  0  0  0  0  0  0
   -3.0008    1.0518    0.0293 H   0  0  0  0  0  0  0  0  0  0  0  0
   -0.8787    1.3061    0.2995 C   0  0  1  0  0  0  0  0  0  0  0  0
   -0.1808    0.8498    1.0104 H   0  0  0  0  0  0  0  0  0  0  0  0
   -0.2333    1.2587   -1.1046 C   0  0  0  0  0  0  0  0  0  0  0  0
   -0.9533    1.6214   -1.8458 H   0  0  0  0  0  0  0  0  0  0  0  0
    0.6328    1.9292   -1.1289 H   0  0  0  0  0  0  0  0  0  0  0  0
    0.2475   -0.1520   -1.4763 C   0  0  0  0  0  0  0  0  0  0  0  0
    0.9595   -0.5048   -0.7213 H   0  0  0  0  0  0  0  0  0  0  0  0
   -0.6029   -0.8412   -1.4828 H   0  0  0  0  0  0  0  0  0  0  0  0
    0.9041   -0.1551   -2.8596 C   0  0  0  0  0  0  0  0  0  0  0  0
    0.1875    0.2109   -3.6030 H   0  0  0  0  0  0  0  0  0  0  0  0
    1.7661    0.5212   -2.8556 H   0  0  0  0  0  0  0  0  0  0  0  0
    1.3505   -1.5708   -3.2144 C   0  0  0  0  0  0  0  0  0  0  0  0
    2.0647   -1.9248   -2.4560 H   0  0  0  0  0  0  0  0  0  0  0  0
    0.4814   -2.2442   -3.1776 H   0  0  0  0  0  0  0  0  0  0  0  0
    1.9603   -1.5586   -4.5616 N   0  3  0  0  0  0  0  0  0  0  0  0
    2.7720   -0.9376   -4.5696 H   0  0  0  0  0  0  0  0  0  0  0  0
    2.2612   -2.5007   -4.8198 H   0  0  0  0  0  0  0  0  0  0  0  0
    1.2822   -1.2257   -5.2491 H   0  0  0  0  0  0  0  0  0  0  0  0
   -1.0750    2.7562    0.8077 C   0  0  0  0  0  0  0  0  0  0  0  0
   -0.4107    3.6782    0.3560 O   0  0  0  0  0  0  0  0  0  0  0  0
   -2.0659    3.0392    1.7312 N   0  0  0  0  0  0  0  0  0  0  0  0
   -2.5150    2.2468    2.1812 H   0  0  0  0  0  0  0  0  0  0  0  0
   -2.2815    4.3731    2.2842 C   0  0  0  0  0  0  0  0  0  0  0  0
   -2.5314    5.0828    1.4882 H   0  0  0  0  0  0  0  0  0  0  0  0
   -3.1073    4.3581    3.0024 H   0  0  0  0  0  0  0  0  0  0  0  0
   -1.3816    4.7265    2.7993 H   0  0  0  0  0  0  0  0  0  0  0  0
  1  2  1  0  0  0  0
  2  3  1  0  0  0  0
  2  4  1  0  0  0  0
  2  5  1  0  0  0  0
  5  6  2  0  0  0  0
  5  7  1  0  0  0  0
  7  8  1  0  0  0  0
  7  9  1  0  0  0  0
  9 10  1  0  0  0  0
  9 11  1  0  0  0  0
  9 27  1  0  0  0  0
 11 12  1  0  0  0  0
 11 13  1  0  0  0  0
 11 14  1  0  0  0  0
 14 15  1  0  0  0  0
 14 16  1  0  0  0  0
 14 17  1  0  0  0  0
 17 18  1  0  0  0  0
 17 19  1  0  0  0  0
 17 20  1  0  0  0  0
 20 21  1  0  0  0  0
 20 22  1  0  0  0  0
 20 23  1  0  0  0  0
 23 24  1  0  0  0  0
 23 25  1  0  0  0  0
 23 26  1  0  0  0  0
 27 28  2  0  0  0  0
 27 29  1  0  0  0  0
 29 30  1  0  0  0  0
 29 31  1  0  0  0  0
 31 32  1  0  0  0  0
 31 33  1  0  0  0  0
 31 34  1  0  0  0  0
M  CHG  1  23   1
M  END
$$$$

  -OEChem-01062216093D

 34 33  0     1  0  0  0  0  0999 V2000
   -3.6351   -2.3321    1.2983 H   0  0  0  0  0  0  0  0  0  0  0  0
   -3.6901   -1.3305    0.8620 C   0  0  0  0  0  0  0  0  0  0  0  0
   -4.3324   -0.7098    1.4917 H   0  0  0  0  0  0  0  0  0  0  0  0
   -4.1316   -1.4042   -0.1346 H   0  0  0  0  0  0  0  0  0  0  0  0
   -2.3035   -0.7228    0.7731 C   0  0  0  0  0  0  0  0  0  0  0  0
   -1.3235   -1.3812    1.0809 O   0  0  0  0  0  0  0  0  0  0  0  0
   -2.1429    0.5668    0.3057 N   0  0  0  0  0  0  0  0  0  0  0  0
   -2.9900    1.0790    0.0670 H   0  0  0  0  0  0  0  0  0  0  0  0
   -0.8634    1.3045    0.3047 C   0  0  1  0  0  0  0  0  0  0  0  0
   -0.1669    0.8426    1.0134 H   0  0  0  0  0  0  0  0  0  0  0  0
   -0.2177    1.2601   -1.0990 C   0  0  0  0  0  0  0  0  0  0  0  0
   -0.9350    1.6309   -1.8388 H   0  0  0  0  0  0  0  0  0  0  0  0
    0.6513    1.9274   -1.1164 H   0  0  0  0  0  0  0  0  0  0  0  0
    0.2535   -0.1513   -1.4790 C   0  0  0  0  0  0  0  0  0  0  0  0
    0.9626   -0.5132   -0.7257 H   0  0  0  0  0  0  0  0  0  0  0  0
   -0.6020   -0.8343   -1.4894 H   0  0  0  0  0  0  0  0  0  0  0  0
    0.9108   -0.1522   -2.8621 C   0  0  0  0  0  0  0  0  0  0  0  0
    0.1972    0.2222   -3.6043 H   0  0  0  0  0  0  0  0  0  0  0  0
    1.7777    0.5179   -2.8549 H   0  0  0  0  0  0  0  0  0  0  0  0
    1.3460   -1.5704   -3.2215 C   0  0  0  0  0  0  0  0  0  0  0  0
    2.0570   -1.9322   -2.4640 H   0  0  0  0  0  0  0  0  0  0  0  0
    0.4711   -2.2363   -3.1869 H   0  0  0  0  0  0  0  0  0  0  0  0
    1.9572   -1.5609   -4.5680 N   0  3  0  0  0  0  0  0  0  0  0  0
    2.7745   -0.9473   -4.5740 H   0  0  0  0  0  0  0  0  0  0  0  0
    2.2497   -2.5052   -4.8280 H   0  0  0  0  0  0  0  0  0  0  0  0
    1.2824   -1.2203   -5.2553 H   0  0  0  0  0  0  0  0  0  0  0  0
   -1.0648    2.7510    0.8177 C   0  0  0  0  0  0  0  0  0  0  0  0
   -0.6122    3.7103    0.2086 O   0  0  0  0  0  0  0  0  0  0  0  0
   -1.8311    2.9769    1.9467 N   0  0  0  0  0  0  0  0  0  0  0  0
   -2.1280    2.1627    2.4776 H   0  0  0  0  0  0  0  0  0  0  0  0
   -2.0480    4.3044    2.5139 C   0  0  0  0  0  0  0  0  0  0  0  0
   -2.5573    4.9521    1.7922 H   0  0  0  0  0  0  0  0  0  0  0  0
   -2.6685    4.2367    3.4129 H   0  0  0  0  0  0  0  0  0  0  0  0
   -1.0934    4.7665    2.7877 H   0  0  0  0  0  0  0  0  0  0  0  0
  1  2  1  0  0  0  0
  2  3  1  0  0  0  0
  2  4  1  0  0  0  0
  2  5  1  0  0  0  0
  5  6  2  0  0  0  0
  5  7  1  0  0  0  0
  7  8  1  0  0  0  0
  7  9  1  0  0  0  0
  9 10  1  0  0  0  0
  9 11  1  0  0  0  0
  9 27  1  0  0  0  0
 11 12  1  0  0  0  0
 11 13  1  0  0  0  0
 11 14  1  0  0  0  0
 14 15  1  0  0  0  0
 14 16  1  0  0  0  0
 14 17  1  0  0  0  0
 17 18  1  0  0  0  0
 17 19  1  0  0  0  0
 17 20  1  0  0  0  0
 20 21  1  0  0  0  0
 20 22  1  0  0  0  0
 20 23  1  0  0  0  0
 23 24  1  0  0  0  0
 23 25  1  0  0  0  0
 23 26  1  0  0  0  0
 27 28  2  0  0  0  0
 27 29  1  0  0  0  0
 29 30  1  0  0  0  0
 29 31  1  0  0  0  0
 31 32  1  0  0  0  0
 31 33  1  0  0  0  0
 31 34  1  0  0  0  0
M  CHG  1  23   1
M  END
$$$$

  -OEChem-01062216093D

 34 33  0     1  0  0  0  0  0999 V2000
   -3.6435   -2.3126    1.3173 H   0  0  0  0  0  0  0  0  0  0  0  0
   -3.6936   -1.3111    0.8801 C   0  0  0  0  0  0  0  0  0  0  0  0
   -4.3236   -0.6839    1.5157 H   0  0  0  0  0  0  0  0  0  0  0  0
   -4.1461   -1.3821   -0.1118 H   0  0  0  0  0  0  0  0  0  0  0  0
   -2.3021   -0.7165    0.7761 C   0  0  0  0  0  0  0  0  0  0  0  0
   -1.3248   -1.3841    1.0741 O   0  0  0  0  0  0  0  0  0  0  0  0
   -2.1329    0.5720    0.3094 N   0  0  0  0  0  0  0  0  0  0  0  0
   -2.9779    1.0972    0.0920 H   0  0  0  0  0  0  0  0  0  0  0  0
   -0.8489    1.2995    0.3114 C   0  0  1  0  0  0  0  0  0  0  0  0
   -0.1534    0.8319    1.0170 H   0  0  0  0  0  0  0  0  0  0  0  0
   -0.2030    1.2603   -1.0916 C   0  0  0  0  0  0  0  0  0  0  0  0
   -0.9180    1.6388   -1.8302 H   0  0  0  0  0  0  0  0  0  0  0  0
    0.6674    1.9259   -1.1021 H   0  0  0  0  0  0  0  0  0  0  0  0
    0.2581   -0.1520   -1.4799 C   0  0  0  0  0  0  0  0  0  0  0  0
    0.9638   -0.5239   -0.7284 H   0  0  0  0  0  0  0  0  0  0  0  0
   -0.6026   -0.8282   -1.4949 H   0  0  0  0  0  0  0  0  0  0  0  0
    0.9163   -0.1499   -2.8623 C   0  0  0  0  0  0  0  0  0  0  0  0
    0.2060    0.2338   -3.6030 H   0  0  0  0  0  0  0  0  0  0  0  0
    1.7883    0.5132   -2.8508 H   0  0  0  0  0  0  0  0  0  0  0  0
    1.3406   -1.5695   -3.2284 C   0  0  0  0  0  0  0  0  0  0  0  0
    2.0480   -1.9407   -2.4720 H   0  0  0  0  0  0  0  0  0  0  0  0
    0.4604   -2.2287   -3.1980 H   0  0  0  0  0  0  0  0  0  0  0  0
    1.9531   -1.5585   -4.5743 N   0  3  0  0  0  0  0  0  0  0  0  0
    2.7746   -0.9506   -4.5775 H   0  0  0  0  0  0  0  0  0  0  0  0
    2.2389   -2.5039   -4.8382 H   0  0  0  0  0  0  0  0  0  0  0  0
    1.2812   -1.2104   -5.2607 H   0  0  0  0  0  0  0  0  0  0  0  0
   -1.0498    2.7436    0.8256 C   0  0  0  0  0  0  0  0  0  0  0  0
   -0.8359    3.7089    0.1052 O   0  0  0  0  0  0  0  0  0  0  0  0
   -1.5443    2.9513    2.1000 N   0  0  0  0  0  0  0  0  0  0  0  0
   -1.6838    2.1341    2.6884 H   0  0  0  0  0  0  0  0  0  0  0  0
   -1.7598    4.2771    2.6715 C   0  0  0  0  0  0  0  0  0  0  0  0
   -2.4938    4.8355    2.0807 H   0  0  0  0  0  0  0  0  0  0  0  0
   -2.1350    4.1926    3.6962 H   0  0  0  0  0  0  0  0  0  0  0  0
   -0.8225    4.8434    2.6933 H   0  0  0  0  0  0  0  0  0  0  0  0
  1  2  1  0  0  0  0
  2  3  1  0  0  0  0
  2  4  1  0  0  0  0
  2  5  1  0  0  0  0
  5  6  2  0  0  0  0
  5  7  1  0  0  0  0
  7  8  1  0  0  0  0
  7  9  1  0  0  0  0
  9 10  1  0  0  0  0
  9 11  1  0  0  0  0
  9 27  1  0  0  0  0
 11 12  1  0  0  0  0
 11 13  1  0  0  0  0
 11 14  1  0  0  0  0
 14 15  1  0  0  0  0
 14 16  1  0  0  0  0
 14 17  1  0  0  0  0
 17 18  1  0  0  0  0
 17 19  1  0  0  0  0
 17 20  1  0  0  0  0
 20 21  1  0  0  0  0
 20 22  1  0  0  0  0
 20 23  1  0  0  0  0
 23 24  1  0  0  0  0
 23 25  1  0  0  0  0
 23 26  1  0  0  0  0
 27 28  2  0  0  0  0
 27 29  1  0  0  0  0
 29 30  1  0  0  0  0
 29 31  1  0  0  0  0
 31 32  1  0  0  0  0
 31 33  1  0  0  0  0
 31 34  1  0  0  0  0
M  CHG  1  23   1
M  END
$$$$

  -OEChem-01062216093D

 34 33  0     1  0  0  0  0  0999 V2000
   -3.6496   -2.2990    1.3234 H   0  0  0  0  0  0  0  0  0  0  0  0
   -3.6905   -1.2986    0.8834 C   0  0  0  0  0  0  0  0  0  0  0  0
   -4.3180   -0.6650    1.5151 H   0  0  0  0  0  0  0  0  0  0  0  0
   -4.1385   -1.3683   -0.1106 H   0  0  0  0  0  0  0  0  0  0  0  0
   -2.2949   -0.7139    0.7841 C   0  0  0  0  0  0  0  0  0  0  0  0
   -1.3223   -1.3883    1.0834 O   0  0  0  0  0  0  0  0  0  0  0  0
   -2.1155    0.5729    0.3173 N   0  0  0  0  0  0  0  0  0  0  0  0
   -2.9556    1.1061    0.0987 H   0  0  0  0  0  0  0  0  0  0  0  0
   -0.8282    1.2913    0.3264 C   0  0  1  0  0  0  0  0  0  0  0  0
   -0.1342    0.8164    1.0287 H   0  0  0  0  0  0  0  0  0  0  0  0
   -0.1862    1.2589   -1.0776 C   0  0  0  0  0  0  0  0  0  0  0  0
   -0.9019    1.6444   -1.8122 H   0  0  0  0  0  0  0  0  0  0  0  0
    0.6849    1.9233   -1.0840 H   0  0  0  0  0  0  0  0  0  0  0  0
    0.2637   -0.1540   -1.4774 C   0  0  0  0  0  0  0  0  0  0  0  0
    0.9681   -0.5364   -0.7298 H   0  0  0  0  0  0  0  0  0  0  0  0
   -0.6022   -0.8234   -1.4948 H   0  0  0  0  0  0  0  0  0  0  0  0
    0.9187   -0.1484   -2.8614 C   0  0  0  0  0  0  0  0  0  0  0  0
    0.2096    0.2451   -3.5980 H   0  0  0  0  0  0  0  0  0  0  0  0
    1.7959    0.5080   -2.8479 H   0  0  0  0  0  0  0  0  0  0  0  0
    1.3309   -1.5695   -3.2368 C   0  0  0  0  0  0  0  0  0  0  0  0
    2.0368   -1.9516   -2.4844 H   0  0  0  0  0  0  0  0  0  0  0  0
    0.4452   -2.2215   -3.2080 H   0  0  0  0  0  0  0  0  0  0  0  0
    1.9404   -1.5574   -4.5841 N   0  3  0  0  0  0  0  0  0  0  0  0
    2.7654   -0.9543   -4.5873 H   0  0  0  0  0  0  0  0  0  0  0  0
    2.2198   -2.5037   -4.8518 H   0  0  0  0  0  0  0  0  0  0  0  0
    1.2687   -1.2033   -5.2677 H   0  0  0  0  0  0  0  0  0  0  0  0
   -1.0250    2.7356    0.8381 C   0  0  0  0  0  0  0  0  0  0  0  0
   -1.0673    3.6765    0.0572 O   0  0  0  0  0  0  0  0  0  0  0  0
   -1.2237    2.9662    2.1866 N   0  0  0  0  0  0  0  0  0  0  0  0
   -1.2012    2.1646    2.8120 H   0  0  0  0  0  0  0  0  0  0  0  0
   -1.4454    4.2945    2.7497 C   0  0  0  0  0  0  0  0  0  0  0  0
   -2.3573    4.7396    2.3377 H   0  0  0  0  0  0  0  0  0  0  0  0
   -1.5528    4.2328    3.8372 H   0  0  0  0  0  0  0  0  0  0  0  0
   -0.6002    4.9535    2.5240 H   0  0  0  0  0  0  0  0  0  0  0  0
  1  2  1  0  0  0  0
  2  3  1  0  0  0  0
  2  4  1  0  0  0  0
  2  5  1  0  0  0  0
  5  6  2  0  0  0  0
  5  7  1  0  0  0  0
  7  8  1  0  0  0  0
  7  9  1  0  0  0  0
  9 10  1  0  0  0  0
  9 11  1  0  0  0  0
  9 27  1  0  0  0  0
 11 12  1  0  0  0  0
 11 13  1  0  0  0  0
 11 14  1  0  0  0  0
 14 15  1  0  0  0  0
 14 16  1  0  0  0  0
 14 17  1  0  0  0  0
 17 18  1  0  0  0  0
 17 19  1  0  0  0  0
 17 20  1  0  0  0  0
 20 21  1  0  0  0  0
 20 22  1  0  0  0  0
 20 23  1  0  0  0  0
 23 24  1  0  0  0  0
 23 25  1  0  0  0  0
 23 26  1  0  0  0  0
 27 28  2  0  0  0  0
 27 29  1  0  0  0  0
 29 30  1  0  0  0  0
 29 31  1  0  0  0  0
 31 32  1  0  0  0  0
 31 33  1  0  0  0  0
 31 34  1  0  0  0  0
M  CHG  1  23   1
M  END
$$$$

  -OEChem-01062216093D

 34 33  0     1  0  0  0  0  0999 V2000
   -3.6582   -2.2838    1.3402 H   0  0  0  0  0  0  0  0  0  0  0  0
   -3.6936   -1.2823    0.9017 C   0  0  0  0  0  0  0  0  0  0  0  0
   -4.3079   -0.6429    1.5406 H   0  0  0  0  0  0  0  0  0  0  0  0
   -4.1540   -1.3466   -0.0871 H   0  0  0  0  0  0  0  0  0  0  0  0
   -2.2927   -0.7117    0.7879 C   0  0  0  0  0  0  0  0  0  0  0  0
   -1.3241   -1.3973    1.0760 O   0  0  0  0  0  0  0  0  0  0  0  0
   -2.1024    0.5723    0.3179 N   0  0  0  0  0  0  0  0  0  0  0  0
   -2.9381    1.1202    0.1186 H   0  0  0  0  0  0  0  0  0  0  0  0
   -0.8103    1.2806    0.3336 C   0  0  1  0  0  0  0  0  0  0  0  0
   -0.1202    0.7983    1.0343 H   0  0  0  0  0  0  0  0  0  0  0  0
   -0.1689    1.2557   -1.0695 C   0  0  0  0  0  0  0  0  0  0  0  0
   -0.8822    1.6509   -1.8013 H   0  0  0  0  0  0  0  0  0  0  0  0
    0.7057    1.9155   -1.0709 H   0  0  0  0  0  0  0  0  0  0  0  0
    0.2698   -0.1581   -1.4792 C   0  0  0  0  0  0  0  0  0  0  0  0
    0.9709   -0.5517   -0.7344 H   0  0  0  0  0  0  0  0  0  0  0  0
   -0.6012   -0.8209   -1.5006 H   0  0  0  0  0  0  0  0  0  0  0  0
    0.9253   -0.1489   -2.8628 C   0  0  0  0  0  0  0  0  0  0  0  0
    0.2197    0.2553   -3.5971 H   0  0  0  0  0  0  0  0  0  0  0  0
    1.8080    0.4998   -2.8454 H   0  0  0  0  0  0  0  0  0  0  0  0
    1.3255   -1.5709   -3.2471 C   0  0  0  0  0  0  0  0  0  0  0  0
    2.0281   -1.9633   -2.4969 H   0  0  0  0  0  0  0  0  0  0  0  0
    0.4348   -2.2161   -3.2229 H   0  0  0  0  0  0  0  0  0  0  0  0
    1.9355   -1.5534   -4.5943 N   0  3  0  0  0  0  0  0  0  0  0  0
    2.7645   -0.9559   -4.5935 H   0  0  0  0  0  0  0  0  0  0  0  0
    2.2083   -2.4997   -4.8689 H   0  0  0  0  0  0  0  0  0  0  0  0
    1.2661   -1.1900   -5.2754 H   0  0  0  0  0  0  0  0  0  0  0  0
   -1.0009    2.7261    0.8391 C   0  0  0  0  0  0  0  0  0  0  0  0
   -1.3025    3.6174    0.0572 O   0  0  0  0  0  0  0  0  0  0  0  0
   -0.8988    3.0113    2.1878 N   0  0  0  0  0  0  0  0  0  0  0  0
   -0.7101    2.2397    2.8226 H   0  0  0  0  0  0  0  0  0  0  0  0
   -1.1232    4.3416    2.7447 C   0  0  0  0  0  0  0  0  0  0  0  0
   -2.1490    4.6721    2.5496 H   0  0  0  0  0  0  0  0  0  0  0  0
   -0.9635    4.3318    3.8275 H   0  0  0  0  0  0  0  0  0  0  0  0
   -0.4306    5.0651    2.3014 H   0  0  0  0  0  0  0  0  0  0  0  0
  1  2  1  0  0  0  0
  2  3  1  0  0  0  0
  2  4  1  0  0  0  0
  2  5  1  0  0  0  0
  5  6  2  0  0  0  0
  5  7  1  0  0  0  0
  7  8  1  0  0  0  0
  7  9  1  0  0  0  0
  9 10  1  0  0  0  0
  9 11  1  0  0  0  0
  9 27  1  0  0  0  0
 11 12  1  0  0  0  0
 11 13  1  0  0  0  0
 11 14  1  0  0  0  0
 14 15  1  0  0  0  0
 14 16  1  0  0  0  0
 14 17  1  0  0  0  0
 17 18  1  0  0  0  0
 17 19  1  0  0  0  0
 17 20  1  0  0  0  0
 20 21  1  0  0  0  0
 20 22  1  0  0  0  0
 20 23  1  0  0  0  0
 23 24  1  0  0  0  0
 23 25  1  0  0  0  0
 23 26  1  0  0  0  0
 27 28  2  0  0  0  0
 27 29  1  0  0  0  0
 29 30  1  0  0  0  0
 29 31  1  0  0  0  0
 31 32  1  0  0  0  0
 31 33  1  0  0  0  0
 31 34  1  0  0  0  0
M  CHG  1  23   1
M  END
$$$$

  -OEChem-01062216093D

 34 33  0     1  0  0  0  0  0999 V2000
   -3.6687   -2.2585    1.3696 H   0  0  0  0  0  0  0  0  0  0  0  0
   -3.6978   -1.2577    0.9291 C   0  0  0  0  0  0  0  0  0  0  0  0
   -4.2891   -0.6068    1.5779 H   0  0  0  0  0  0  0  0  0  0  0  0
   -4.1784   -1.3173   -0.0502 H   0  0  0  0  0  0  0  0  0  0  0  0
   -2.2910   -0.7093    0.7869 C   0  0  0  0  0  0  0  0  0  0  0  0
   -1.3271   -1.4091    1.0572 O   0  0  0  0  0  0  0  0  0  0  0  0
   -2.0900    0.5709    0.3119 N   0  0  0  0  0  0  0  0  0  0  0  0
   -2.9207    1.1368    0.1412 H   0  0  0  0  0  0  0  0  0  0  0  0
   -0.7938    1.2690    0.3349 C   0  0  1  0  0  0  0  0  0  0  0  0
   -0.1106    0.7798    1.0375 H   0  0  0  0  0  0  0  0  0  0  0  0
   -0.1510    1.2520   -1.0663 C   0  0  0  0  0  0  0  0  0  0  0  0
   -0.8613    1.6570   -1.7957 H   0  0  0  0  0  0  0  0  0  0  0  0
    0.7274    1.9062   -1.0617 H   0  0  0  0  0  0  0  0  0  0  0  0
    0.2771   -0.1623   -1.4858 C   0  0  0  0  0  0  0  0  0  0  0  0
    0.9731   -0.5676   -0.7426 H   0  0  0  0  0  0  0  0  0  0  0  0
   -0.6000   -0.8172   -1.5134 H   0  0  0  0  0  0  0  0  0  0  0  0
    0.9350   -0.1496   -2.8682 C   0  0  0  0  0  0  0  0  0  0  0  0
    0.2338    0.2651   -3.6009 H   0  0  0  0  0  0  0  0  0  0  0  0
    1.8232    0.4917   -2.8451 H   0  0  0  0  0  0  0  0  0  0  0  0
    1.3234   -1.5729   -3.2599 C   0  0  0  0  0  0  0  0  0  0  0  0
    2.0205   -1.9761   -2.5105 H   0  0  0  0  0  0  0  0  0  0  0  0
    0.4268   -2.2097   -3.2410 H   0  0  0  0  0  0  0  0  0  0  0  0
    1.9360   -1.5544   -4.6058 N   0  3  0  0  0  0  0  0  0  0  0  0
    2.7710   -0.9656   -4.6007 H   0  0  0  0  0  0  0  0  0  0  0  0
    2.1995   -2.5019   -4.8846 H   0  0  0  0  0  0  0  0  0  0  0  0
    1.2716   -1.1808   -5.2863 H   0  0  0  0  0  0  0  0  0  0  0  0
   -0.9819    2.7165    0.8320 C   0  0  0  0  0  0  0  0  0  0  0  0
   -1.5330    3.5363    0.1100 O   0  0  0  0  0  0  0  0  0  0  0  0
   -0.5966    3.0803    2.1087 N   0  0  0  0  0  0  0  0  0  0  0  0
   -0.2254    2.3552    2.7167 H   0  0  0  0  0  0  0  0  0  0  0  0
   -0.8218    4.4122    2.6611 C   0  0  0  0  0  0  0  0  0  0  0  0
   -1.8935    4.6342    2.7048 H   0  0  0  0  0  0  0  0  0  0  0  0
   -0.4137    4.4767    3.6745 H   0  0  0  0  0  0  0  0  0  0  0  0
   -0.3307    5.1722    2.0439 H   0  0  0  0  0  0  0  0  0  0  0  0
  1  2  1  0  0  0  0
  2  3  1  0  0  0  0
  2  4  1  0  0  0  0
  2  5  1  0  0  0  0
  5  6  2  0  0  0  0
  5  7  1  0  0  0  0
  7  8  1  0  0  0  0
  7  9  1  0  0  0  0
  9 10  1  0  0  0  0
  9 11  1  0  0  0  0
  9 27  1  0  0  0  0
 11 12  1  0  0  0  0
 11 13  1  0  0  0  0
 11 14  1  0  0  0  0
 14 15  1  0  0  0  0
 14 16  1  0  0  0  0
 14 17  1  0  0  0  0
 17 18  1  0  0  0  0
 17 19  1  0  0  0  0
 17 20  1  0  0  0  0
 20 21  1  0  0  0  0
 20 22  1  0  0  0  0
 20 23  1  0  0  0  0
 23 24  1  0  0  0  0
 23 25  1  0  0  0  0
 23 26  1  0  0  0  0
 27 28  2  0  0  0  0
 27 29  1  0  0  0  0
 29 30  1  0  0  0  0
 29 31  1  0  0  0  0
 31 32  1  0  0  0  0
 31 33  1  0  0  0  0
 31 34  1  0  0  0  0
M  CHG  1  23   1
M  END
$$$$

  -OEChem-01062216093D

 34 33  0     1  0  0  0  0  0999 V2000
   -3.6764   -2.2344    1.4024 H   0  0  0  0  0  0  0  0  0  0  0  0
   -3.7009   -1.2358    0.9565 C   0  0  0  0  0  0  0  0  0  0  0  0
   -4.2683   -0.5726    1.6143 H   0  0  0  0  0  0  0  0  0  0  0  0
   -4.2043   -1.2941   -0.0116 H   0  0  0  0  0  0  0  0  0  0  0  0
   -2.2899   -0.7082    0.7798 C   0  0  0  0  0  0  0  0  0  0  0  0
   -1.3297   -1.4215    1.0286 O   0  0  0  0  0  0  0  0  0  0  0  0
   -2.0812    0.5688    0.2998 N   0  0  0  0  0  0  0  0  0  0  0  0
   -2.9075    1.1518    0.1647 H   0  0  0  0  0  0  0  0  0  0  0  0
   -0.7820    1.2608    0.3304 C   0  0  1  0  0  0  0  0  0  0  0  0
   -0.1050    0.7684    1.0369 H   0  0  0  0  0  0  0  0  0  0  0  0
   -0.1374    1.2513   -1.0690 C   0  0  0  0  0  0  0  0  0  0  0  0
   -0.8451    1.6651   -1.7960 H   0  0  0  0  0  0  0  0  0  0  0  0
    0.7448    1.9006   -1.0593 H   0  0  0  0  0  0  0  0  0  0  0  0
    0.2832   -0.1633   -1.4952 C   0  0  0  0  0  0  0  0  0  0  0  0
    0.9744   -0.5768   -0.7519 H   0  0  0  0  0  0  0  0  0  0  0  0
   -0.5984   -0.8120   -1.5280 H   0  0  0  0  0  0  0  0  0  0  0  0
    0.9444   -0.1511   -2.8761 C   0  0  0  0  0  0  0  0  0  0  0  0
    0.2476    0.2701   -3.6093 H   0  0  0  0  0  0  0  0  0  0  0  0
    1.8369    0.4837   -2.8497 H   0  0  0  0  0  0  0  0  0  0  0  0
    1.3232   -1.5767   -3.2702 C   0  0  0  0  0  0  0  0  0  0  0  0
    2.0150   -1.9871   -2.5197 H   0  0  0  0  0  0  0  0  0  0  0  0
    0.4216   -2.2067   -3.2548 H   0  0  0  0  0  0  0  0  0  0  0  0
    1.9393   -1.5608   -4.6145 N   0  3  0  0  0  0  0  0  0  0  0  0
    2.7789   -0.9787   -4.6065 H   0  0  0  0  0  0  0  0  0  0  0  0
    2.1959   -2.5101   -4.8942 H   0  0  0  0  0  0  0  0  0  0  0  0
    1.2794   -1.1811   -5.2959 H   0  0  0  0  0  0  0  0  0  0  0  0
   -0.9718    2.7105    0.8191 C   0  0  0  0  0  0  0  0  0  0  0  0
   -1.7372    3.4483    0.2128 O   0  0  0  0  0  0  0  0  0  0  0  0
   -0.3362    3.1691    1.9579 N   0  0  0  0  0  0  0  0  0  0  0  0
    0.2095    2.5031    2.4981 H   0  0  0  0  0  0  0  0  0  0  0  0
   -0.5533    4.5043    2.5058 C   0  0  0  0  0  0  0  0  0  0  0  0
   -1.6022    4.6366    2.7922 H   0  0  0  0  0  0  0  0  0  0  0  0
    0.0692    4.6565    3.3932 H   0  0  0  0  0  0  0  0  0  0  0  0
   -0.2916    5.2698    1.7674 H   0  0  0  0  0  0  0  0  0  0  0  0
  1  2  1  0  0  0  0
  2  3  1  0  0  0  0
  2  4  1  0  0  0  0
  2  5  1  0  0  0  0
  5  6  2  0  0  0  0
  5  7  1  0  0  0  0
  7  8  1  0  0  0  0
  7  9  1  0  0  0  0
  9 10  1  0  0  0  0
  9 11  1  0  0  0  0
  9 27  1  0  0  0  0
 11 12  1  0  0  0  0
 11 13  1  0  0  0  0
 11 14  1  0  0  0  0
 14 15  1  0  0  0  0
 14 16  1  0  0  0  0
 14 17  1  0  0  0  0
 17 18  1  0  0  0  0
 17 19  1  0  0  0  0
 17 20  1  0  0  0  0
 20 21  1  0  0  0  0
 20 22  1  0  0  0  0
 20 23  1  0  0  0  0
 23 24  1  0  0  0  0
 23 25  1  0  0  0  0
 23 26  1  0  0  0  0
 27 28  2  0  0  0  0
 27 29  1  0  0  0  0
 29 30  1  0  0  0  0
 29 31  1  0  0  0  0
 31 32  1  0  0  0  0
 31 33  1  0  0  0  0
 31 34  1  0  0  0  0
M  CHG  1  23   1
M  END
$$$$

  -OEChem-01062216093D

 34 33  0     1  0  0  0  0  0999 V2000
   -3.6758   -2.2202    1.4239 H   0  0  0  0  0  0  0  0  0  0  0  0
   -3.7005   -1.2238    0.9734 C   0  0  0  0  0  0  0  0  0  0  0  0
   -4.2523   -0.5533    1.6370 H   0  0  0  0  0  0  0  0  0  0  0  0
   -4.2197   -1.2828    0.0139 H   0  0  0  0  0  0  0  0  0  0  0  0
   -2.2892   -0.7069    0.7708 C   0  0  0  0  0  0  0  0  0  0  0  0
   -1.3295   -1.4270    1.0026 O   0  0  0  0  0  0  0  0  0  0  0  0
   -2.0804    0.5677    0.2853 N   0  0  0  0  0  0  0  0  0  0  0  0
   -2.9048    1.1620    0.1878 H   0  0  0  0  0  0  0  0  0  0  0  0
   -0.7817    1.2599    0.3215 C   0  0  1  0  0  0  0  0  0  0  0  0
   -0.1097    0.7694    1.0339 H   0  0  0  0  0  0  0  0  0  0  0  0
   -0.1355    1.2519   -1.0765 C   0  0  0  0  0  0  0  0  0  0  0  0
   -0.8429    1.6665   -1.8034 H   0  0  0  0  0  0  0  0  0  0  0  0
    0.7471    1.9005   -1.0658 H   0  0  0  0  0  0  0  0  0  0  0  0
    0.2850   -0.1629   -1.5025 C   0  0  0  0  0  0  0  0  0  0  0  0
    0.9744   -0.5766   -0.7578 H   0  0  0  0  0  0  0  0  0  0  0  0
   -0.5972   -0.8106   -1.5367 H   0  0  0  0  0  0  0  0  0  0  0  0
    0.9484   -0.1535   -2.8823 C   0  0  0  0  0  0  0  0  0  0  0  0
    0.2531    0.2675   -3.6172 H   0  0  0  0  0  0  0  0  0  0  0  0
    1.8419    0.4800   -2.8553 H   0  0  0  0  0  0  0  0  0  0  0  0
    1.3257   -1.5806   -3.2734 C   0  0  0  0  0  0  0  0  0  0  0  0
    2.0156   -1.9908   -2.5210 H   0  0  0  0  0  0  0  0  0  0  0  0
    0.4229   -2.2089   -3.2580 H   0  0  0  0  0  0  0  0  0  0  0  0
    1.9441   -1.5688   -4.6166 N   0  3  0  0  0  0  0  0  0  0  0  0
    2.7850   -0.9886   -4.6087 H   0  0  0  0  0  0  0  0  0  0  0  0
    2.1990   -2.5194   -4.8936 H   0  0  0  0  0  0  0  0  0  0  0  0
    1.2859   -1.1895   -5.3000 H   0  0  0  0  0  0  0  0  0  0  0  0
   -0.9737    2.7123    0.8018 C   0  0  0  0  0  0  0  0  0  0  0  0
   -1.9055    3.3692    0.3553 O   0  0  0  0  0  0  0  0  0  0  0  0
   -0.1292    3.2708    1.7432 N   0  0  0  0  0  0  0  0  0  0  0  0
    0.5673    2.6684    2.1730 H   0  0  0  0  0  0  0  0  0  0  0  0
   -0.3247    4.6112    2.2868 C   0  0  0  0  0  0  0  0  0  0  0  0
   -1.2867    4.6786    2.8064 H   0  0  0  0  0  0  0  0  0  0  0  0
    0.4706    4.8520    2.9992 H   0  0  0  0  0  0  0  0  0  0  0  0
   -0.3056    5.3577    1.4855 H   0  0  0  0  0  0  0  0  0  0  0  0
  1  2  1  0  0  0  0
  2  3  1  0  0  0  0
  2  4  1  0  0  0  0
  2  5  1  0  0  0  0
  5  6  2  0  0  0  0
  5  7  1  0  0  0  0
  7  8  1  0  0  0  0
  7  9  1  0  0  0  0
  9 10  1  0  0  0  0
  9 11  1  0  0  0  0
  9 27  1  0  0  0  0
 11 12  1  0  0  0  0
 11 13  1  0  0  0  0
 11 14  1  0  0  0  0
 14 15  1  0  0  0  0
 14 16  1  0  0  0  0
 14 17  1  0  0  0  0
 17 18  1  0  0  0  0
 17 19  1  0  0  0  0
 17 20  1  0  0  0  0
 20 21  1  0  0  0  0
 20 22  1  0  0  0  0
 20 23  1  0  0  0  0
 23 24  1  0  0  0  0
 23 25  1  0  0  0  0
 23 26  1  0  0  0  0
 27 28  2  0  0  0  0
 27 29  1  0  0  0  0
 29 30  1  0  0  0  0
 29 31  1  0  0  0  0
 31 32  1  0  0  0  0
 31 33  1  0  0  0  0
 31 34  1  0  0  0  0
M  CHG  1  23   1
M  END
$$$$

  -OEChem-01062216093D

 34 33  0     1  0  0  0  0  0999 V2000
   -3.6699   -2.2115    1.4428 H   0  0  0  0  0  0  0  0  0  0  0  0
   -3.6981   -1.2174    0.9877 C   0  0  0  0  0  0  0  0  0  0  0  0
   -4.2337   -0.5408    1.6585 H   0  0  0  0  0  0  0  0  0  0  0  0
   -4.2360   -1.2782    0.0386 H   0  0  0  0  0  0  0  0  0  0  0  0
   -2.2887   -0.7086    0.7548 C   0  0  0  0  0  0  0  0  0  0  0  0
   -1.3285   -1.4355    0.9628 O   0  0  0  0  0  0  0  0  0  0  0  0
   -2.0850    0.5659    0.2672 N   0  0  0  0  0  0  0  0  0  0  0  0
   -2.9084    1.1685    0.2174 H   0  0  0  0  0  0  0  0  0  0  0  0
   -0.7880    1.2614    0.3109 C   0  0  1  0  0  0  0  0  0  0  0  0
   -0.1193    0.7739    1.0287 H   0  0  0  0  0  0  0  0  0  0  0  0
   -0.1387    1.2544   -1.0863 C   0  0  0  0  0  0  0  0  0  0  0  0
   -0.8449    1.6683   -1.8148 H   0  0  0  0  0  0  0  0  0  0  0  0
    0.7437    1.9032   -1.0745 H   0  0  0  0  0  0  0  0  0  0  0  0
    0.2845   -0.1605   -1.5108 C   0  0  0  0  0  0  0  0  0  0  0  0
    0.9717   -0.5738   -0.7636 H   0  0  0  0  0  0  0  0  0  0  0  0
   -0.5973   -0.8085   -1.5471 H   0  0  0  0  0  0  0  0  0  0  0  0
    0.9514   -0.1548   -2.8887 C   0  0  0  0  0  0  0  0  0  0  0  0
    0.2586    0.2641   -3.6270 H   0  0  0  0  0  0  0  0  0  0  0  0
    1.8452    0.4782   -2.8614 H   0  0  0  0  0  0  0  0  0  0  0  0
    1.3289   -1.5839   -3.2730 C   0  0  0  0  0  0  0  0  0  0  0  0
    2.0161   -1.9919   -2.5171 H   0  0  0  0  0  0  0  0  0  0  0  0
    0.4256   -2.2117   -3.2580 H   0  0  0  0  0  0  0  0  0  0  0  0
    1.9510   -1.5790   -4.6148 N   0  3  0  0  0  0  0  0  0  0  0  0
    2.7921   -0.9990   -4.6077 H   0  0  0  0  0  0  0  0  0  0  0  0
    2.2067   -2.5310   -4.8863 H   0  0  0  0  0  0  0  0  0  0  0  0
    1.2946   -1.2033   -5.3020 H   0  0  0  0  0  0  0  0  0  0  0  0
   -0.9843    2.7158    0.7878 C   0  0  0  0  0  0  0  0  0  0  0  0
   -2.0355    3.2922    0.5370 O   0  0  0  0  0  0  0  0  0  0  0  0
    0.0089    3.3774    1.4863 N   0  0  0  0  0  0  0  0  0  0  0  0
    0.8272    2.8446    1.7668 H   0  0  0  0  0  0  0  0  0  0  0  0
   -0.1609    4.7273    2.0152 C   0  0  0  0  0  0  0  0  0  0  0  0
   -0.9789    4.7545    2.7433 H   0  0  0  0  0  0  0  0  0  0  0  0
    0.7557    5.0592    2.5128 H   0  0  0  0  0  0  0  0  0  0  0  0
   -0.3873    5.4315    1.2073 H   0  0  0  0  0  0  0  0  0  0  0  0
  1  2  1  0  0  0  0
  2  3  1  0  0  0  0
  2  4  1  0  0  0  0
  2  5  1  0  0  0  0
  5  6  2  0  0  0  0
  5  7  1  0  0  0  0
  7  8  1  0  0  0  0
  7  9  1  0  0  0  0
  9 10  1  0  0  0  0
  9 11  1  0  0  0  0
  9 27  1  0  0  0  0
 11 12  1  0  0  0  0
 11 13  1  0  0  0  0
 11 14  1  0  0  0  0
 14 15  1  0  0  0  0
 14 16  1  0  0  0  0
 14 17  1  0  0  0  0
 17 18  1  0  0  0  0
 17 19  1  0  0  0  0
 17 20  1  0  0  0  0
 20 21  1  0  0  0  0
 20 22  1  0  0  0  0
 20 23  1  0  0  0  0
 23 24  1  0  0  0  0
 23 25  1  0  0  0  0
 23 26  1  0  0  0  0
 27 28  2  0  0  0  0
 27 29  1  0  0  0  0
 29 30  1  0  0  0  0
 29 31  1  0  0  0  0
 31 32  1  0  0  0  0
 31 33  1  0  0  0  0
 31 34  1  0  0  0  0
M  CHG  1  23   1
M  END
$$$$

  -OEChem-01062216093D

 34 33  0     1  0  0  0  0  0999 V2000
   -3.6634   -2.2016    1.4598 H   0  0  0  0  0  0  0  0  0  0  0  0
   -3.6955   -1.2087    1.0026 C   0  0  0  0  0  0  0  0  0  0  0  0
   -4.2101   -0.5264    1.6838 H   0  0  0  0  0  0  0  0  0  0  0  0
   -4.2566   -1.2683    0.0670 H   0  0  0  0  0  0  0  0  0  0  0  0
   -2.2887   -0.7099    0.7348 C   0  0  0  0  0  0  0  0  0  0  0  0
   -1.3284   -1.4433    0.9190 O   0  0  0  0  0  0  0  0  0  0  0  0
   -2.0903    0.5655    0.2474 N   0  0  0  0  0  0  0  0  0  0  0  0
   -2.9114    1.1741    0.2489 H   0  0  0  0  0  0  0  0  0  0  0  0
   -0.7946    1.2640    0.2995 C   0  0  1  0  0  0  0  0  0  0  0  0
   -0.1289    0.7804    1.0230 H   0  0  0  0  0  0  0  0  0  0  0  0
   -0.1415    1.2541   -1.0976 C   0  0  0  0  0  0  0  0  0  0  0  0
   -0.8474    1.6641   -1.8284 H   0  0  0  0  0  0  0  0  0  0  0  0
    0.7402    1.9034   -1.0879 H   0  0  0  0  0  0  0  0  0  0  0  0
    0.2851   -0.1605   -1.5199 C   0  0  0  0  0  0  0  0  0  0  0  0
    0.9704   -0.5722   -0.7702 H   0  0  0  0  0  0  0  0  0  0  0  0
   -0.5956   -0.8100   -1.5587 H   0  0  0  0  0  0  0  0  0  0  0  0
    0.9549   -0.1577   -2.8966 C   0  0  0  0  0  0  0  0  0  0  0  0
    0.2628    0.2577   -3.6375 H   0  0  0  0  0  0  0  0  0  0  0  0
    1.8479    0.4763   -2.8697 H   0  0  0  0  0  0  0  0  0  0  0  0
    1.3338   -1.5884   -3.2743 C   0  0  0  0  0  0  0  0  0  0  0  0
    2.0194   -1.9924   -2.5148 H   0  0  0  0  0  0  0  0  0  0  0  0
    0.4303   -2.2159   -3.2575 H   0  0  0  0  0  0  0  0  0  0  0  0
    1.9593   -1.5922   -4.6144 N   0  3  0  0  0  0  0  0  0  0  0  0
    2.8021   -1.0148   -4.6087 H   0  0  0  0  0  0  0  0  0  0  0  0
    2.2127   -2.5465   -4.8800 H   0  0  0  0  0  0  0  0  0  0  0  0
    1.3055   -1.2187   -5.3051 H   0  0  0  0  0  0  0  0  0  0  0  0
   -0.9972    2.7198    0.7763 C   0  0  0  0  0  0  0  0  0  0  0  0
   -2.1175    3.2153    0.7432 O   0  0  0  0  0  0  0  0  0  0  0  0
    0.0723    3.4866    1.2026 N   0  0  0  0  0  0  0  0  0  0  0  0
    0.9729    3.0284    1.3064 H   0  0  0  0  0  0  0  0  0  0  0  0
   -0.0836    4.8451    1.7138 C   0  0  0  0  0  0  0  0  0  0  0  0
   -0.7143    4.8473    2.6093 H   0  0  0  0  0  0  0  0  0  0  0  0
    0.8910    5.2679    1.9767 H   0  0  0  0  0  0  0  0  0  0  0  0
   -0.5449    5.4900    0.9581 H   0  0  0  0  0  0  0  0  0  0  0  0
  1  2  1  0  0  0  0
  2  3  1  0  0  0  0
  2  4  1  0  0  0  0
  2  5  1  0  0  0  0
  5  6  2  0  0  0  0
  5  7  1  0  0  0  0
  7  8  1  0  0  0  0
  7  9  1  0  0  0  0
  9 10  1  0  0  0  0
  9 11  1  0  0  0  0
  9 27  1  0  0  0  0
 11 12  1  0  0  0  0
 11 13  1  0  0  0  0
 11 14  1  0  0  0  0
 14 15  1  0  0  0  0
 14 16  1  0  0  0  0
 14 17  1  0  0  0  0
 17 18  1  0  0  0  0
 17 19  1  0  0  0  0
 17 20  1  0  0  0  0
 20 21  1  0  0  0  0
 20 22  1  0  0  0  0
 20 23  1  0  0  0  0
 23 24  1  0  0  0  0
 23 25  1  0  0  0  0
 23 26  1  0  0  0  0
 27 28  2  0  0  0  0
 27 29  1  0  0  0  0
 29 30  1  0  0  0  0
 29 31  1  0  0  0  0
 31 32  1  0  0  0  0
 31 33  1  0  0  0  0
 31 34  1  0  0  0  0
M  CHG  1  23   1
M  END
$$$$

  -OEChem-01062216093D

 34 33  0     1  0  0  0  0  0999 V2000
   -3.5349   -2.2157    1.4466 H   0  0  0  0  0  0  0  0  0  0  0  0
   -3.6195   -1.1927    1.0693 C   0  0  0  0  0  0  0  0  0  0  0  0
   -4.0051   -0.5559    1.8695 H   0  0  0  0  0  0  0  0  0  0  0  0
   -4.3229   -1.1811    0.2336 H   0  0  0  0  0  0  0  0  0  0  0  0
   -2.2630   -0.6891    0.6153 C   0  0  0  0  0  0  0  0  0  0  0  0
   -1.3004   -1.4420    0.5916 O   0  0  0  0  0  0  0  0  0  0  0  0
   -2.1186    0.6071    0.1642 N   0  0  0  0  0  0  0  0  0  0  0  0
   -2.9269    1.2019    0.3564 H   0  0  0  0  0  0  0  0  0  0  0  0
   -0.8256    1.3117    0.2385 C   0  0  1  0  0  0  0  0  0  0  0  0
   -0.0700    0.6901    0.7314 H   0  0  0  0  0  0  0  0  0  0  0  0
   -0.3575    1.6295   -1.1941 C   0  0  0  0  0  0  0  0  0  0  0  0
   -1.1485    2.1692   -1.7265 H   0  0  0  0  0  0  0  0  0  0  0  0
    0.5229    2.2790   -1.1573 H   0  0  0  0  0  0  0  0  0  0  0  0
    0.0027    0.3377   -1.9462 C   0  0  0  0  0  0  0  0  0  0  0  0
    0.7758   -0.2019   -1.3874 H   0  0  0  0  0  0  0  0  0  0  0  0
   -0.8791   -0.3101   -1.9999 H   0  0  0  0  0  0  0  0  0  0  0  0
    0.4952    0.6281   -3.3662 C   0  0  0  0  0  0  0  0  0  0  0  0
   -0.2803    1.1714   -3.9174 H   0  0  0  0  0  0  0  0  0  0  0  0
    1.3902    1.2584   -3.3237 H   0  0  0  0  0  0  0  0  0  0  0  0
    0.8115   -0.6924   -4.0661 C   0  0  0  0  0  0  0  0  0  0  0  0
    1.5825   -1.2291   -3.4935 H   0  0  0  0  0  0  0  0  0  0  0  0
   -0.0891   -1.3246   -4.0632 H   0  0  0  0  0  0  0  0  0  0  0  0
    1.2650   -0.4203   -5.4472 N   0  3  0  0  0  0  0  0  0  0  0  0
    2.1051    0.1608   -5.4313 H   0  0  0  0  0  0  0  0  0  0  0  0
    1.4781   -1.2986   -5.9256 H   0  0  0  0  0  0  0  0  0  0  0  0
    0.5323    0.0692   -5.9646 H   0  0  0  0  0  0  0  0  0  0  0  0
   -0.9569    2.5877    1.1028 C   0  0  0  0  0  0  0  0  0  0  0  0
   -2.0572    2.9141    1.5319 O   0  0  0  0  0  0  0  0  0  0  0  0
    0.1257    3.4200    1.3244 N   0  0  0  0  0  0  0  0  0  0  0  0
    1.0410    3.0972    1.0262 H   0  0  0  0  0  0  0  0  0  0  0  0
    0.0427    4.6253    2.1445 C   0  0  0  0  0  0  0  0  0  0  0  0
   -0.2461    4.3729    3.1705 H   0  0  0  0  0  0  0  0  0  0  0  0
    1.0118    5.1330    2.1739 H   0  0  0  0  0  0  0  0  0  0  0  0
   -0.6973    5.3206    1.7333 H   0  0  0  0  0  0  0  0  0  0  0  0
  1  2  1  0  0  0  0
  2  3  1  0  0  0  0
  2  4  1  0  0  0  0
  2  5  1  0  0  0  0
  5  6  2  0  0  0  0
  5  7  1  0  0  0  0
  7  8  1  0  0  0  0
  7  9  1  0  0  0  0
  9 10  1  0  0  0  0
  9 11  1  0  0  0  0
  9 27  1  0  0  0  0
 11 12  1  0  0  0  0
 11 13  1  0  0  0  0
 11 14  1  0  0  0  0
 14 15  1  0  0  0  0
 14 16  1  0  0  0  0
 14 17  1  0  0  0  0
 17 18  1  0  0  0  0
 17 19  1  0  0  0  0
 17 20  1  0  0  0  0
 20 21  1  0  0  0  0
 20 22  1  0  0  0  0
 20 23  1  0  0  0  0
 23 24  1  0  0  0  0
 23 25  1  0  0  0  0
 23 26  1  0  0  0  0
 27 28  2  0  0  0  0
 27 29  1  0  0  0  0
 29 30  1  0  0  0  0
 29 31  1  0  0  0  0
 31 32  1  0  0  0  0
 31 33  1  0  0  0  0
 31 34  1  0  0  0  0
M  CHG  1  23   1
M  END
$$$$

  -OEChem-01062216093D

 34 33  0     1  0  0  0  0  0999 V2000
   -3.5177   -2.2158    1.4156 H   0  0  0  0  0  0  0  0  0  0  0  0
   -3.6032   -1.1811    1.0720 C   0  0  0  0  0  0  0  0  0  0  0  0
   -3.9484   -0.5632    1.9050 H   0  0  0  0  0  0  0  0  0  0  0  0
   -4.3385   -1.1360    0.2652 H   0  0  0  0  0  0  0  0  0  0  0  0
   -2.2592   -0.6792    0.5809 C   0  0  0  0  0  0  0  0  0  0  0  0
   -1.3013   -1.4361    0.5159 O   0  0  0  0  0  0  0  0  0  0  0  0
   -2.1252    0.6225    0.1423 N   0  0  0  0  0  0  0  0  0  0  0  0
   -2.9280    1.2093    0.3754 H   0  0  0  0  0  0  0  0  0  0  0  0
   -0.8315    1.3260    0.2212 C   0  0  1  0  0  0  0  0  0  0  0  0
   -0.0771    0.7029    0.7142 H   0  0  0  0  0  0  0  0  0  0  0  0
   -0.3597    1.6359   -1.2144 C   0  0  0  0  0  0  0  0  0  0  0  0
   -1.1488    2.1742   -1.7511 H   0  0  0  0  0  0  0  0  0  0  0  0
    0.5236    2.2811   -1.1836 H   0  0  0  0  0  0  0  0  0  0  0  0
    0.0007    0.3384   -1.9577 C   0  0  0  0  0  0  0  0  0  0  0  0
    0.7716   -0.1990   -1.3935 H   0  0  0  0  0  0  0  0  0  0  0  0
   -0.8816   -0.3090   -2.0095 H   0  0  0  0  0  0  0  0  0  0  0  0
    0.4968    0.6159   -3.3789 C   0  0  0  0  0  0  0  0  0  0  0  0
   -0.2772    1.1545   -3.9368 H   0  0  0  0  0  0  0  0  0  0  0  0
    1.3926    1.2453   -3.3406 H   0  0  0  0  0  0  0  0  0  0  0  0
    0.8118   -0.7123   -4.0650 C   0  0  0  0  0  0  0  0  0  0  0  0
    1.5806   -1.2439   -3.4848 H   0  0  0  0  0  0  0  0  0  0  0  0
   -0.0892   -1.3437   -4.0569 H   0  0  0  0  0  0  0  0  0  0  0  0
    1.2692   -0.4551   -5.4478 N   0  3  0  0  0  0  0  0  0  0  0  0
    2.1122    0.1217   -5.4358 H   0  0  0  0  0  0  0  0  0  0  0  0
    1.4790   -1.3389   -5.9174 H   0  0  0  0  0  0  0  0  0  0  0  0
    0.5399    0.0329   -5.9714 H   0  0  0  0  0  0  0  0  0  0  0  0
   -0.9647    2.5926    1.1030 C   0  0  0  0  0  0  0  0  0  0  0  0
   -1.9977    2.7762    1.7357 O   0  0  0  0  0  0  0  0  0  0  0  0
   -0.0012    3.5862    1.1002 N   0  0  0  0  0  0  0  0  0  0  0  0
    0.8734    3.3975    0.6209 H   0  0  0  0  0  0  0  0  0  0  0  0
   -0.1072    4.7963    1.9106 C   0  0  0  0  0  0  0  0  0  0  0  0
   -0.1584    4.5427    2.9751 H   0  0  0  0  0  0  0  0  0  0  0  0
    0.7640    5.4390    1.7505 H   0  0  0  0  0  0  0  0  0  0  0  0
   -1.0058    5.3619    1.6411 H   0  0  0  0  0  0  0  0  0  0  0  0
  1  2  1  0  0  0  0
  2  3  1  0  0  0  0
  2  4  1  0  0  0  0
  2  5  1  0  0  0  0
  5  6  2  0  0  0  0
  5  7  1  0  0  0  0
  7  8  1  0  0  0  0
  7  9  1  0  0  0  0
  9 10  1  0  0  0  0
  9 11  1  0  0  0  0
  9 27  1  0  0  0  0
 11 12  1  0  0  0  0
 11 13  1  0  0  0  0
 11 14  1  0  0  0  0
 14 15  1  0  0  0  0
 14 16  1  0  0  0  0
 14 17  1  0  0  0  0
 17 18  1  0  0  0  0
 17 19  1  0  0  0  0
 17 20  1  0  0  0  0
 20 21  1  0  0  0  0
 20 22  1  0  0  0  0
 20 23  1  0  0  0  0
 23 24  1  0  0  0  0
 23 25  1  0  0  0  0
 23 26  1  0  0  0  0
 27 28  2  0  0  0  0
 27 29  1  0  0  0  0
 29 30  1  0  0  0  0
 29 31  1  0  0  0  0
 31 32  1  0  0  0  0
 31 33  1  0  0  0  0
 31 34  1  0  0  0  0
M  CHG  1  23   1
M  END
$$$$

  -OEChem-01062216093D

 34 33  0     1  0  0  0  0  0999 V2000
   -3.5062   -2.2195    1.3793 H   0  0  0  0  0  0  0  0  0  0  0  0
   -3.5918   -1.1729    1.0738 C   0  0  0  0  0  0  0  0  0  0  0  0
   -3.9033   -0.5803    1.9380 H   0  0  0  0  0  0  0  0  0  0  0  0
   -4.3523   -1.0936    0.2935 H   0  0  0  0  0  0  0  0  0  0  0  0
   -2.2582   -0.6683    0.5574 C   0  0  0  0  0  0  0  0  0  0  0  0
   -1.3053   -1.4281    0.4599 O   0  0  0  0  0  0  0  0  0  0  0  0
   -2.1314    0.6380    0.1293 N   0  0  0  0  0  0  0  0  0  0  0  0
   -2.9303    1.2175    0.3896 H   0  0  0  0  0  0  0  0  0  0  0  0
   -0.8350    1.3380    0.2044 C   0  0  1  0  0  0  0  0  0  0  0  0
   -0.0812    0.7118    0.6953 H   0  0  0  0  0  0  0  0  0  0  0  0
   -0.3576    1.6415   -1.2315 C   0  0  0  0  0  0  0  0  0  0  0  0
   -1.1420    2.1815   -1.7731 H   0  0  0  0  0  0  0  0  0  0  0  0
    0.5310    2.2791   -1.2012 H   0  0  0  0  0  0  0  0  0  0  0  0
   -0.0001    0.3393   -1.9681 C   0  0  0  0  0  0  0  0  0  0  0  0
    0.7659   -0.1996   -1.3987 H   0  0  0  0  0  0  0  0  0  0  0  0
   -0.8857   -0.3033   -2.0209 H   0  0  0  0  0  0  0  0  0  0  0  0
    0.5019    0.6051   -3.3893 C   0  0  0  0  0  0  0  0  0  0  0  0
   -0.2672    1.1440   -3.9534 H   0  0  0  0  0  0  0  0  0  0  0  0
    1.4013    1.2296   -3.3526 H   0  0  0  0  0  0  0  0  0  0  0  0
    0.8119   -0.7307   -4.0628 C   0  0  0  0  0  0  0  0  0  0  0  0
    1.5760   -1.2609   -3.4751 H   0  0  0  0  0  0  0  0  0  0  0  0
   -0.0927   -1.3570   -4.0522 H   0  0  0  0  0  0  0  0  0  0  0  0
    1.2755   -0.4893   -5.4461 N   0  3  0  0  0  0  0  0  0  0  0  0
    2.1204    0.0849   -5.4365 H   0  0  0  0  0  0  0  0  0  0  0  0
    1.4843   -1.3790   -5.9050 H   0  0  0  0  0  0  0  0  0  0  0  0
    0.5498   -0.0048   -5.9777 H   0  0  0  0  0  0  0  0  0  0  0  0
   -0.9661    2.5948    1.1018 C   0  0  0  0  0  0  0  0  0  0  0  0
   -1.8719    2.6448    1.9240 O   0  0  0  0  0  0  0  0  0  0  0  0
   -0.1932    3.7262    0.9049 N   0  0  0  0  0  0  0  0  0  0  0  0
    0.5700    3.6712    0.2388 H   0  0  0  0  0  0  0  0  0  0  0  0
   -0.3379    4.9390    1.7053 C   0  0  0  0  0  0  0  0  0  0  0  0
   -0.1538    4.7255    2.7639 H   0  0  0  0  0  0  0  0  0  0  0  0
    0.3779    5.6989    1.3770 H   0  0  0  0  0  0  0  0  0  0  0  0
   -1.3479    5.3501    1.6013 H   0  0  0  0  0  0  0  0  0  0  0  0
  1  2  1  0  0  0  0
  2  3  1  0  0  0  0
  2  4  1  0  0  0  0
  2  5  1  0  0  0  0
  5  6  2  0  0  0  0
  5  7  1  0  0  0  0
  7  8  1  0  0  0  0
  7  9  1  0  0  0  0
  9 10  1  0  0  0  0
  9 11  1  0  0  0  0
  9 27  1  0  0  0  0
 11 12  1  0  0  0  0
 11 13  1  0  0  0  0
 11 14  1  0  0  0  0
 14 15  1  0  0  0  0
 14 16  1  0  0  0  0
 14 17  1  0  0  0  0
 17 18  1  0  0  0  0
 17 19  1  0  0  0  0
 17 20  1  0  0  0  0
 20 21  1  0  0  0  0
 20 22  1  0  0  0  0
 20 23  1  0  0  0  0
 23 24  1  0  0  0  0
 23 25  1  0  0  0  0
 23 26  1  0  0  0  0
 27 28  2  0  0  0  0
 27 29  1  0  0  0  0
 29 30  1  0  0  0  0
 29 31  1  0  0  0  0
 31 32  1  0  0  0  0
 31 33  1  0  0  0  0
 31 34  1  0  0  0  0
M  CHG  1  23   1
M  END
$$$$

  -OEChem-01062216093D

 34 33  0     1  0  0  0  0  0999 V2000
   -3.4921   -2.2159    1.3814 H   0  0  0  0  0  0  0  0  0  0  0  0
   -3.5833   -1.1670    1.0850 C   0  0  0  0  0  0  0  0  0  0  0  0
   -3.8769   -0.5808    1.9598 H   0  0  0  0  0  0  0  0  0  0  0  0
   -4.3597   -1.0820    0.3210 H   0  0  0  0  0  0  0  0  0  0  0  0
   -2.2605   -0.6592    0.5448 C   0  0  0  0  0  0  0  0  0  0  0  0
   -1.3119   -1.4202    0.4183 O   0  0  0  0  0  0  0  0  0  0  0  0
   -2.1432    0.6500    0.1214 N   0  0  0  0  0  0  0  0  0  0  0  0
   -2.9422    1.2226    0.3922 H   0  0  0  0  0  0  0  0  0  0  0  0
   -0.8459    1.3495    0.1853 C   0  0  1  0  0  0  0  0  0  0  0  0
   -0.0925    0.7226    0.6763 H   0  0  0  0  0  0  0  0  0  0  0  0
   -0.3608    1.6475   -1.2493 C   0  0  0  0  0  0  0  0  0  0  0  0
   -1.1396    2.1879   -1.7984 H   0  0  0  0  0  0  0  0  0  0  0  0
    0.5311    2.2807   -1.2124 H   0  0  0  0  0  0  0  0  0  0  0  0
   -0.0014    0.3409   -1.9776 C   0  0  0  0  0  0  0  0  0  0  0  0
    0.7600   -0.1967   -1.4005 H   0  0  0  0  0  0  0  0  0  0  0  0
   -0.8882   -0.3000   -2.0315 H   0  0  0  0  0  0  0  0  0  0  0  0
    0.5090    0.5959   -3.3979 C   0  0  0  0  0  0  0  0  0  0  0  0
   -0.2562    1.1320   -3.9698 H   0  0  0  0  0  0  0  0  0  0  0  0
    1.4093    1.2188   -3.3599 H   0  0  0  0  0  0  0  0  0  0  0  0
    0.8199   -0.7451   -4.0614 C   0  0  0  0  0  0  0  0  0  0  0  0
    1.5795   -1.2737   -3.4664 H   0  0  0  0  0  0  0  0  0  0  0  0
   -0.0857   -1.3698   -4.0516 H   0  0  0  0  0  0  0  0  0  0  0  0
    1.2918   -0.5146   -5.4440 N   0  3  0  0  0  0  0  0  0  0  0  0
    2.1413    0.0530   -5.4336 H   0  0  0  0  0  0  0  0  0  0  0  0
    1.4960   -1.4082   -5.8973 H   0  0  0  0  0  0  0  0  0  0  0  0
    0.5726   -0.0274   -5.9819 H   0  0  0  0  0  0  0  0  0  0  0  0
   -0.9717    2.5993    1.0916 C   0  0  0  0  0  0  0  0  0  0  0  0
   -1.6861    2.5356    2.0826 O   0  0  0  0  0  0  0  0  0  0  0  0
   -0.4482    3.8316    0.7386 N   0  0  0  0  0  0  0  0  0  0  0  0
    0.1212    3.8869   -0.0991 H   0  0  0  0  0  0  0  0  0  0  0  0
   -0.6252    5.0347    1.5476 C   0  0  0  0  0  0  0  0  0  0  0  0
   -0.2208    4.8833    2.5543 H   0  0  0  0  0  0  0  0  0  0  0  0
   -0.1030    5.8812    1.0908 H   0  0  0  0  0  0  0  0  0  0  0  0
   -1.6873    5.2891    1.6314 H   0  0  0  0  0  0  0  0  0  0  0  0
  1  2  1  0  0  0  0
  2  3  1  0  0  0  0
  2  4  1  0  0  0  0
  2  5  1  0  0  0  0
  5  6  2  0  0  0  0
  5  7  1  0  0  0  0
  7  8  1  0  0  0  0
  7  9  1  0  0  0  0
  9 10  1  0  0  0  0
  9 11  1  0  0  0  0
  9 27  1  0  0  0  0
 11 12  1  0  0  0  0
 11 13  1  0  0  0  0
 11 14  1  0  0  0  0
 14 15  1  0  0  0  0
 14 16  1  0  0  0  0
 14 17  1  0  0  0  0
 17 18  1  0  0  0  0
 17 19  1  0  0  0  0
 17 20  1  0  0  0  0
 20 21  1  0  0  0  0
 20 22  1  0  0  0  0
 20 23  1  0  0  0  0
 23 24  1  0  0  0  0
 23 25  1  0  0  0  0
 23 26  1  0  0  0  0
 27 28  2  0  0  0  0
 27 29  1  0  0  0  0
 29 30  1  0  0  0  0
 29 31  1  0  0  0  0
 31 32  1  0  0  0  0
 31 33  1  0  0  0  0
 31 34  1  0  0  0  0
M  CHG  1  23   1
M  END
$$$$

  -OEChem-01062216093D

 34 33  0     1  0  0  0  0  0999 V2000
   -3.4887   -2.2239    1.3652 H   0  0  0  0  0  0  0  0  0  0  0  0
   -3.5802   -1.1692    1.0906 C   0  0  0  0  0  0  0  0  0  0  0  0
   -3.8592   -0.5994    1.9808 H   0  0  0  0  0  0  0  0  0  0  0  0
   -4.3664   -1.0666    0.3391 H   0  0  0  0  0  0  0  0  0  0  0  0
   -2.2630   -0.6559    0.5421 C   0  0  0  0  0  0  0  0  0  0  0  0
   -1.3150   -1.4152    0.4037 O   0  0  0  0  0  0  0  0  0  0  0  0
   -2.1526    0.6548    0.1199 N   0  0  0  0  0  0  0  0  0  0  0  0
   -2.9577    1.2224    0.3799 H   0  0  0  0  0  0  0  0  0  0  0  0
   -0.8559    1.3562    0.1751 C   0  0  1  0  0  0  0  0  0  0  0  0
   -0.1015    0.7299    0.6656 H   0  0  0  0  0  0  0  0  0  0  0  0
   -0.3654    1.6532   -1.2574 C   0  0  0  0  0  0  0  0  0  0  0  0
   -1.1441    2.1885   -1.8113 H   0  0  0  0  0  0  0  0  0  0  0  0
    0.5236    2.2912   -1.2145 H   0  0  0  0  0  0  0  0  0  0  0  0
   -0.0016    0.3461   -1.9825 C   0  0  0  0  0  0  0  0  0  0  0  0
    0.7575   -0.1905   -1.4014 H   0  0  0  0  0  0  0  0  0  0  0  0
   -0.8883   -0.2948   -2.0393 H   0  0  0  0  0  0  0  0  0  0  0  0
    0.5151    0.5966   -3.4012 C   0  0  0  0  0  0  0  0  0  0  0  0
   -0.2458    1.1316   -3.9799 H   0  0  0  0  0  0  0  0  0  0  0  0
    1.4163    1.2185   -3.3619 H   0  0  0  0  0  0  0  0  0  0  0  0
    0.8278   -0.7487   -4.0547 C   0  0  0  0  0  0  0  0  0  0  0  0
    1.5836   -1.2743   -3.4524 H   0  0  0  0  0  0  0  0  0  0  0  0
   -0.0791   -1.3717   -4.0448 H   0  0  0  0  0  0  0  0  0  0  0  0
    1.3064   -0.5274   -5.4363 N   0  3  0  0  0  0  0  0  0  0  0  0
    2.1565    0.0390   -5.4251 H   0  0  0  0  0  0  0  0  0  0  0  0
    1.5117   -1.4240   -5.8829 H   0  0  0  0  0  0  0  0  0  0  0  0
    0.5905   -0.0426   -5.9804 H   0  0  0  0  0  0  0  0  0  0  0  0
   -0.9741    2.6024    1.0834 C   0  0  0  0  0  0  0  0  0  0  0  0
   -1.4530    2.4682    2.1996 O   0  0  0  0  0  0  0  0  0  0  0  0
   -0.7351    3.8847    0.6192 N   0  0  0  0  0  0  0  0  0  0  0  0
   -0.3989    3.9942   -0.3315 H   0  0  0  0  0  0  0  0  0  0  0  0
   -0.9519    5.0791    1.4308 C   0  0  0  0  0  0  0  0  0  0  0  0
   -0.3509    5.0360    2.3457 H   0  0  0  0  0  0  0  0  0  0  0  0
   -0.6651    5.9760    0.8732 H   0  0  0  0  0  0  0  0  0  0  0  0
   -2.0077    5.1682    1.7087 H   0  0  0  0  0  0  0  0  0  0  0  0
  1  2  1  0  0  0  0
  2  3  1  0  0  0  0
  2  4  1  0  0  0  0
  2  5  1  0  0  0  0
  5  6  2  0  0  0  0
  5  7  1  0  0  0  0
  7  8  1  0  0  0  0
  7  9  1  0  0  0  0
  9 10  1  0  0  0  0
  9 11  1  0  0  0  0
  9 27  1  0  0  0  0
 11 12  1  0  0  0  0
 11 13  1  0  0  0  0
 11 14  1  0  0  0  0
 14 15  1  0  0  0  0
 14 16  1  0  0  0  0
 14 17  1  0  0  0  0
 17 18  1  0  0  0  0
 17 19  1  0  0  0  0
 17 20  1  0  0  0  0
 20 21  1  0  0  0  0
 20 22  1  0  0  0  0
 20 23  1  0  0  0  0
 23 24  1  0  0  0  0
 23 25  1  0  0  0  0
 23 26  1  0  0  0  0
 27 28  2  0  0  0  0
 27 29  1  0  0  0  0
 29 30  1  0  0  0  0
 29 31  1  0  0  0  0
 31 32  1  0  0  0  0
 31 33  1  0  0  0  0
 31 34  1  0  0  0  0
M  CHG  1  23   1
M  END
$$$$

  -OEChem-01062216093D

 34 33  0     1  0  0  0  0  0999 V2000
   -3.4859   -2.2448    1.3611 H   0  0  0  0  0  0  0  0  0  0  0  0
   -3.5892   -1.1952    1.0711 C   0  0  0  0  0  0  0  0  0  0  0  0
   -3.9056   -0.6209    1.9458 H   0  0  0  0  0  0  0  0  0  0  0  0
   -4.3543   -1.1173    0.2950 H   0  0  0  0  0  0  0  0  0  0  0  0
   -2.2656   -0.6640    0.5554 C   0  0  0  0  0  0  0  0  0  0  0  0
   -1.3089   -1.4140    0.4295 O   0  0  0  0  0  0  0  0  0  0  0  0
   -2.1631    0.6469    0.1306 N   0  0  0  0  0  0  0  0  0  0  0  0
   -2.9817    1.2072    0.3599 H   0  0  0  0  0  0  0  0  0  0  0  0
   -0.8729    1.3614    0.1768 C   0  0  1  0  0  0  0  0  0  0  0  0
   -0.1127    0.7400    0.6655 H   0  0  0  0  0  0  0  0  0  0  0  0
   -0.3838    1.6574   -1.2551 C   0  0  0  0  0  0  0  0  0  0  0  0
   -1.1667    2.1803   -1.8145 H   0  0  0  0  0  0  0  0  0  0  0  0
    0.4966    2.3078   -1.2102 H   0  0  0  0  0  0  0  0  0  0  0  0
   -0.0060    0.3509   -1.9731 C   0  0  0  0  0  0  0  0  0  0  0  0
    0.7587   -0.1743   -1.3888 H   0  0  0  0  0  0  0  0  0  0  0  0
   -0.8854   -0.3000   -2.0275 H   0  0  0  0  0  0  0  0  0  0  0  0
    0.5099    0.6022   -3.3915 C   0  0  0  0  0  0  0  0  0  0  0  0
   -0.2563    1.1270   -3.9726 H   0  0  0  0  0  0  0  0  0  0  0  0
    1.4042    1.2339   -3.3518 H   0  0  0  0  0  0  0  0  0  0  0  0
    0.8382   -0.7411   -4.0413 C   0  0  0  0  0  0  0  0  0  0  0  0
    1.5992   -1.2561   -3.4361 H   0  0  0  0  0  0  0  0  0  0  0  0
   -0.0614   -1.3746   -4.0315 H   0  0  0  0  0  0  0  0  0  0  0  0
    1.3165   -0.5192   -5.4229 N   0  3  0  0  0  0  0  0  0  0  0  0
    2.1592    0.0584   -5.4116 H   0  0  0  0  0  0  0  0  0  0  0  0
    1.5347   -1.4149   -5.8654 H   0  0  0  0  0  0  0  0  0  0  0  0
    0.5959   -0.0460   -5.9709 H   0  0  0  0  0  0  0  0  0  0  0  0
   -0.9820    2.6114    1.0776 C   0  0  0  0  0  0  0  0  0  0  0  0
   -1.1715    2.4614    2.2743 O   0  0  0  0  0  0  0  0  0  0  0  0
   -1.0521    3.8887    0.5486 N   0  0  0  0  0  0  0  0  0  0  0  0
   -0.9693    3.9932   -0.4572 H   0  0  0  0  0  0  0  0  0  0  0  0
   -1.2682    5.0798    1.3651 C   0  0  0  0  0  0  0  0  0  0  0  0
   -0.4792    5.1776    2.1187 H   0  0  0  0  0  0  0  0  0  0  0  0
   -1.2588    5.9773    0.7388 H   0  0  0  0  0  0  0  0  0  0  0  0
   -2.2355    5.0254    1.8760 H   0  0  0  0  0  0  0  0  0  0  0  0
  1  2  1  0  0  0  0
  2  3  1  0  0  0  0
  2  4  1  0  0  0  0
  2  5  1  0  0  0  0
  5  6  2  0  0  0  0
  5  7  1  0  0  0  0
  7  8  1  0  0  0  0
  7  9  1  0  0  0  0
  9 10  1  0  0  0  0
  9 11  1  0  0  0  0
  9 27  1  0  0  0  0
 11 12  1  0  0  0  0
 11 13  1  0  0  0  0
 11 14  1  0  0  0  0
 14 15  1  0  0  0  0
 14 16  1  0  0  0  0
 14 17  1  0  0  0  0
 17 18  1  0  0  0  0
 17 19  1  0  0  0  0
 17 20  1  0  0  0  0
 20 21  1  0  0  0  0
 20 22  1  0  0  0  0
 20 23  1  0  0  0  0
 23 24  1  0  0  0  0
 23 25  1  0  0  0  0
 23 26  1  0  0  0  0
 27 28  2  0  0  0  0
 27 29  1  0  0  0  0
 29 30  1  0  0  0  0
 29 31  1  0  0  0  0
 31 32  1  0  0  0  0
 31 33  1  0  0  0  0
 31 34  1  0  0  0  0
M  CHG  1  23   1
M  END
$$$$

  -OEChem-01062216093D

 34 33  0     1  0  0  0  0  0999 V2000
   -3.4918   -2.2696    1.3468 H   0  0  0  0  0  0  0  0  0  0  0  0
   -3.5980   -1.2178    1.0662 C   0  0  0  0  0  0  0  0  0  0  0  0
   -3.9238   -0.6540    1.9441 H   0  0  0  0  0  0  0  0  0  0  0  0
   -4.3577   -1.1362    0.2853 H   0  0  0  0  0  0  0  0  0  0  0  0
   -2.2731   -0.6759    0.5650 C   0  0  0  0  0  0  0  0  0  0  0  0
   -1.3101   -1.4186    0.4495 O   0  0  0  0  0  0  0  0  0  0  0  0
   -2.1776    0.6347    0.1365 N   0  0  0  0  0  0  0  0  0  0  0  0
   -3.0070    1.1889    0.3376 H   0  0  0  0  0  0  0  0  0  0  0  0
   -0.8933    1.3603    0.1777 C   0  0  1  0  0  0  0  0  0  0  0  0
   -0.1287    0.7428    0.6652 H   0  0  0  0  0  0  0  0  0  0  0  0
   -0.4021    1.6610   -1.2516 C   0  0  0  0  0  0  0  0  0  0  0  0
   -1.1866    2.1765   -1.8151 H   0  0  0  0  0  0  0  0  0  0  0  0
    0.4708    2.3212   -1.2022 H   0  0  0  0  0  0  0  0  0  0  0  0
   -0.0111    0.3573   -1.9670 C   0  0  0  0  0  0  0  0  0  0  0  0
    0.7567   -0.1601   -1.3799 H   0  0  0  0  0  0  0  0  0  0  0  0
   -0.8846   -0.3015   -2.0226 H   0  0  0  0  0  0  0  0  0  0  0  0
    0.5080    0.6120   -3.3838 C   0  0  0  0  0  0  0  0  0  0  0  0
   -0.2600    1.1305   -3.9684 H   0  0  0  0  0  0  0  0  0  0  0  0
    1.3970    1.2510   -3.3410 H   0  0  0  0  0  0  0  0  0  0  0  0
    0.8498   -0.7291   -4.0311 C   0  0  0  0  0  0  0  0  0  0  0  0
    1.6129   -1.2373   -3.4228 H   0  0  0  0  0  0  0  0  0  0  0  0
   -0.0444   -1.3701   -4.0240 H   0  0  0  0  0  0  0  0  0  0  0  0
    1.3314   -0.5042   -5.4110 N   0  3  0  0  0  0  0  0  0  0  0  0
    2.1700    0.0792   -5.3972 H   0  0  0  0  0  0  0  0  0  0  0  0
    1.5577   -1.3984   -5.8520 H   0  0  0  0  0  0  0  0  0  0  0  0
    0.6095   -0.0363   -5.9619 H   0  0  0  0  0  0  0  0  0  0  0  0
   -1.0002    2.6136    1.0712 C   0  0  0  0  0  0  0  0  0  0  0  0
   -0.8745    2.5002    2.2796 O   0  0  0  0  0  0  0  0  0  0  0  0
   -1.3813    3.8374    0.5490 N   0  0  0  0  0  0  0  0  0  0  0  0
   -1.5367    3.9008   -0.4518 H   0  0  0  0  0  0  0  0  0  0  0  0
   -1.5866    5.0265    1.3714 C   0  0  0  0  0  0  0  0  0  0  0  0
   -0.6696    5.2819    1.9134 H   0  0  0  0  0  0  0  0  0  0  0  0
   -1.8650    5.8798    0.7450 H   0  0  0  0  0  0  0  0  0  0  0  0
   -2.3879    4.8575    2.0989 H   0  0  0  0  0  0  0  0  0  0  0  0
  1  2  1  0  0  0  0
  2  3  1  0  0  0  0
  2  4  1  0  0  0  0
  2  5  1  0  0  0  0
  5  6  2  0  0  0  0
  5  7  1  0  0  0  0
  7  8  1  0  0  0  0
  7  9  1  0  0  0  0
  9 10  1  0  0  0  0
  9 11  1  0  0  0  0
  9 27  1  0  0  0  0
 11 12  1  0  0  0  0
 11 13  1  0  0  0  0
 11 14  1  0  0  0  0
 14 15  1  0  0  0  0
 14 16  1  0  0  0  0
 14 17  1  0  0  0  0
 17 18  1  0  0  0  0
 17 19  1  0  0  0  0
 17 20  1  0  0  0  0
 20 21  1  0  0  0  0
 20 22  1  0  0  0  0
 20 23  1  0  0  0  0
 23 24  1  0  0  0  0
 23 25  1  0  0  0  0
 23 26  1  0  0  0  0
 27 28  2  0  0  0  0
 27 29  1  0  0  0  0
 29 30  1  0  0  0  0
 29 31  1  0  0  0  0
 31 32  1  0  0  0  0
 31 33  1  0  0  0  0
 31 34  1  0  0  0  0
M  CHG  1  23   1
M  END
$$$$

  -OEChem-01062216093D

 34 33  0     1  0  0  0  0  0999 V2000
   -3.5008   -2.3010    1.3488 H   0  0  0  0  0  0  0  0  0  0  0  0
   -3.6141   -1.2520    1.0602 C   0  0  0  0  0  0  0  0  0  0  0  0
   -3.9593   -0.6869    1.9296 H   0  0  0  0  0  0  0  0  0  0  0  0
   -4.3631   -1.1838    0.2677 H   0  0  0  0  0  0  0  0  0  0  0  0
   -2.2876   -0.6984    0.5761 C   0  0  0  0  0  0  0  0  0  0  0  0
   -1.3156   -1.4314    0.4801 O   0  0  0  0  0  0  0  0  0  0  0  0
   -2.1987    0.6118    0.1442 N   0  0  0  0  0  0  0  0  0  0  0  0
   -3.0385    1.1580    0.3215 H   0  0  0  0  0  0  0  0  0  0  0  0
   -0.9206    1.3502    0.1847 C   0  0  1  0  0  0  0  0  0  0  0  0
   -0.1524    0.7364    0.6714 H   0  0  0  0  0  0  0  0  0  0  0  0
   -0.4264    1.6599   -1.2403 C   0  0  0  0  0  0  0  0  0  0  0  0
   -1.2125    2.1714   -1.8054 H   0  0  0  0  0  0  0  0  0  0  0  0
    0.4396    2.3289   -1.1841 H   0  0  0  0  0  0  0  0  0  0  0  0
   -0.0201    0.3611   -1.9562 C   0  0  0  0  0  0  0  0  0  0  0  0
    0.7498   -0.1497   -1.3663 H   0  0  0  0  0  0  0  0  0  0  0  0
   -0.8870   -0.3057   -2.0161 H   0  0  0  0  0  0  0  0  0  0  0  0
    0.5032    0.6240   -3.3701 C   0  0  0  0  0  0  0  0  0  0  0  0
   -0.2675    1.1363   -3.9563 H   0  0  0  0  0  0  0  0  0  0  0  0
    1.3853    1.2720   -3.3219 H   0  0  0  0  0  0  0  0  0  0  0  0
    0.8619   -0.7103   -4.0222 C   0  0  0  0  0  0  0  0  0  0  0  0
    1.6278   -1.2139   -3.4135 H   0  0  0  0  0  0  0  0  0  0  0  0
   -0.0256   -1.3606   -4.0225 H   0  0  0  0  0  0  0  0  0  0  0  0
    1.3470   -0.4712   -5.3986 N   0  3  0  0  0  0  0  0  0  0  0  0
    2.1792    0.1213   -5.3767 H   0  0  0  0  0  0  0  0  0  0  0  0
    1.5851   -1.3599   -5.8447 H   0  0  0  0  0  0  0  0  0  0  0  0
    0.6226   -0.0072   -5.9492 H   0  0  0  0  0  0  0  0  0  0  0  0
   -1.0273    2.6079    1.0701 C   0  0  0  0  0  0  0  0  0  0  0  0
   -0.5751    2.5928    2.2031 O   0  0  0  0  0  0  0  0  0  0  0  0
   -1.6972    3.7341    0.6247 N   0  0  0  0  0  0  0  0  0  0  0  0
   -2.0677    3.7269   -0.3203 H   0  0  0  0  0  0  0  0  0  0  0  0
   -1.8611    4.9352    1.4383 C   0  0  0  0  0  0  0  0  0  0  0  0
   -0.8848    5.3575    1.6998 H   0  0  0  0  0  0  0  0  0  0  0  0
   -2.4288    5.6930    0.8895 H   0  0  0  0  0  0  0  0  0  0  0  0
   -2.4011    4.7025    2.3626 H   0  0  0  0  0  0  0  0  0  0  0  0
  1  2  1  0  0  0  0
  2  3  1  0  0  0  0
  2  4  1  0  0  0  0
  2  5  1  0  0  0  0
  5  6  2  0  0  0  0
  5  7  1  0  0  0  0
  7  8  1  0  0  0  0
  7  9  1  0  0  0  0
  9 10  1  0  0  0  0
  9 11  1  0  0  0  0
  9 27  1  0  0  0  0
 11 12  1  0  0  0  0
 11 13  1  0  0  0  0
 11 14  1  0  0  0  0
 14 15  1  0  0  0  0
 14 16  1  0  0  0  0
 14 17  1  0  0  0  0
 17 18  1  0  0  0  0
 17 19  1  0  0  0  0
 17 20  1  0  0  0  0
 20 21  1  0  0  0  0
 20 22  1  0  0  0  0
 20 23  1  0  0  0  0
 23 24  1  0  0  0  0
 23 25  1  0  0  0  0
 23 26  1  0  0  0  0
 27 28  2  0  0  0  0
 27 29  1  0  0  0  0
 29 30  1  0  0  0  0
 29 31  1  0  0  0  0
 31 32  1  0  0  0  0
 31 33  1  0  0  0  0
 31 34  1  0  0  0  0
M  CHG  1  23   1
M  END
$$$$

  -OEChem-01062216093D

 34 33  0     1  0  0  0  0  0999 V2000
   -3.5178   -2.3330    1.3654 H   0  0  0  0  0  0  0  0  0  0  0  0
   -3.6383   -1.2947    1.0432 C   0  0  0  0  0  0  0  0  0  0  0  0
   -4.0307   -0.7132    1.8811 H   0  0  0  0  0  0  0  0  0  0  0  0
   -4.3538   -1.2630    0.2182 H   0  0  0  0  0  0  0  0  0  0  0  0
   -2.3028   -0.7289    0.5993 C   0  0  0  0  0  0  0  0  0  0  0  0
   -1.3217   -1.4524    0.5351 O   0  0  0  0  0  0  0  0  0  0  0  0
   -2.2149    0.5806    0.1650 N   0  0  0  0  0  0  0  0  0  0  0  0
   -3.0627    1.1206    0.3189 H   0  0  0  0  0  0  0  0  0  0  0  0
   -0.9411    1.3286    0.2073 C   0  0  1  0  0  0  0  0  0  0  0  0
   -0.1707    0.7176    0.6945 H   0  0  0  0  0  0  0  0  0  0  0  0
   -0.4469    1.6467   -1.2142 C   0  0  0  0  0  0  0  0  0  0  0  0
   -1.2349    2.1575   -1.7771 H   0  0  0  0  0  0  0  0  0  0  0  0
    0.4144    2.3211   -1.1522 H   0  0  0  0  0  0  0  0  0  0  0  0
   -0.0290    0.3559   -1.9372 C   0  0  0  0  0  0  0  0  0  0  0  0
    0.7463   -0.1506   -1.3503 H   0  0  0  0  0  0  0  0  0  0  0  0
   -0.8888   -0.3198   -2.0011 H   0  0  0  0  0  0  0  0  0  0  0  0
    0.4936    0.6381   -3.3481 C   0  0  0  0  0  0  0  0  0  0  0  0
   -0.2812    1.1500   -3.9293 H   0  0  0  0  0  0  0  0  0  0  0  0
    1.3690    1.2943   -3.2910 H   0  0  0  0  0  0  0  0  0  0  0  0
    0.8672   -0.6836   -4.0169 C   0  0  0  0  0  0  0  0  0  0  0  0
    1.6383   -1.1867   -3.4143 H   0  0  0  0  0  0  0  0  0  0  0  0
   -0.0128   -1.3439   -4.0271 H   0  0  0  0  0  0  0  0  0  0  0  0
    1.3509   -0.4198   -5.3894 N   0  3  0  0  0  0  0  0  0  0  0  0
    2.1719    0.1879   -5.3585 H   0  0  0  0  0  0  0  0  0  0  0  0
    1.6065   -1.2986   -5.8454 H   0  0  0  0  0  0  0  0  0  0  0  0
    0.6192    0.0372   -5.9363 H   0  0  0  0  0  0  0  0  0  0  0  0
   -1.0454    2.5911    1.0849 C   0  0  0  0  0  0  0  0  0  0  0  0
   -0.3066    2.7306    2.0458 O   0  0  0  0  0  0  0  0  0  0  0  0
   -1.9587    3.5848    0.7786 N   0  0  0  0  0  0  0  0  0  0  0  0
   -2.5027    3.4853   -0.0723 H   0  0  0  0  0  0  0  0  0  0  0  0
   -2.0805    4.8167    1.5525 C   0  0  0  0  0  0  0  0  0  0  0  0
   -1.1515    5.3949    1.5033 H   0  0  0  0  0  0  0  0  0  0  0  0
   -2.8939    5.4345    1.1592 H   0  0  0  0  0  0  0  0  0  0  0  0
   -2.2974    4.5912    2.6024 H   0  0  0  0  0  0  0  0  0  0  0  0
  1  2  1  0  0  0  0
  2  3  1  0  0  0  0
  2  4  1  0  0  0  0
  2  5  1  0  0  0  0
  5  6  2  0  0  0  0
  5  7  1  0  0  0  0
  7  8  1  0  0  0  0
  7  9  1  0  0  0  0
  9 10  1  0  0  0  0
  9 11  1  0  0  0  0
  9 27  1  0  0  0  0
 11 12  1  0  0  0  0
 11 13  1  0  0  0  0
 11 14  1  0  0  0  0
 14 15  1  0  0  0  0
 14 16  1  0  0  0  0
 14 17  1  0  0  0  0
 17 18  1  0  0  0  0
 17 19  1  0  0  0  0
 17 20  1  0  0  0  0
 20 21  1  0  0  0  0
 20 22  1  0  0  0  0
 20 23  1  0  0  0  0
 23 24  1  0  0  0  0
 23 25  1  0  0  0  0
 23 26  1  0  0  0  0
 27 28  2  0  0  0  0
 27 29  1  0  0  0  0
 29 30  1  0  0  0  0
 29 31  1  0  0  0  0
 31 32  1  0  0  0  0
 31 33  1  0  0  0  0
 31 34  1  0  0  0  0
M  CHG  1  23   1
M  END
$$$$

  -OEChem-01062216093D

 34 33  0     1  0  0  0  0  0999 V2000
   -3.5246   -2.3773    1.3555 H   0  0  0  0  0  0  0  0  0  0  0  0
   -3.6523   -1.3424    1.0247 C   0  0  0  0  0  0  0  0  0  0  0  0
   -4.0746   -0.7630    1.8496 H   0  0  0  0  0  0  0  0  0  0  0  0
   -4.3465   -1.3258    0.1812 H   0  0  0  0  0  0  0  0  0  0  0  0
   -2.3146   -0.7594    0.6117 C   0  0  0  0  0  0  0  0  0  0  0  0
   -1.3223   -1.4687    0.5794 O   0  0  0  0  0  0  0  0  0  0  0  0
   -2.2340    0.5509    0.1778 N   0  0  0  0  0  0  0  0  0  0  0  0
   -3.0927    1.0795    0.3005 H   0  0  0  0  0  0  0  0  0  0  0  0
   -0.9666    1.3123    0.2212 C   0  0  1  0  0  0  0  0  0  0  0  0
   -0.1926    0.7062    0.7084 H   0  0  0  0  0  0  0  0  0  0  0  0
   -0.4724    1.6341   -1.1987 C   0  0  0  0  0  0  0  0  0  0  0  0
   -1.2643    2.1391   -1.7612 H   0  0  0  0  0  0  0  0  0  0  0  0
    0.3825    2.3167   -1.1344 H   0  0  0  0  0  0  0  0  0  0  0  0
   -0.0389    0.3493   -1.9230 C   0  0  0  0  0  0  0  0  0  0  0  0
    0.7420   -0.1496   -1.3369 H   0  0  0  0  0  0  0  0  0  0  0  0
   -0.8903   -0.3368   -1.9905 H   0  0  0  0  0  0  0  0  0  0  0  0
    0.4825    0.6461   -3.3313 C   0  0  0  0  0  0  0  0  0  0  0  0
   -0.2977    1.1526   -3.9101 H   0  0  0  0  0  0  0  0  0  0  0  0
    1.3492    1.3135   -3.2675 H   0  0  0  0  0  0  0  0  0  0  0  0
    0.8750   -0.6649   -4.0102 C   0  0  0  0  0  0  0  0  0  0  0  0
    1.6520   -1.1624   -3.4107 H   0  0  0  0  0  0  0  0  0  0  0  0
    0.0043   -1.3370   -4.0282 H   0  0  0  0  0  0  0  0  0  0  0  0
    1.3569   -0.3812   -5.3793 N   0  3  0  0  0  0  0  0  0  0  0  0
    2.1711    0.2352   -5.3406 H   0  0  0  0  0  0  0  0  0  0  0  0
    1.6228   -1.2520   -5.8444 H   0  0  0  0  0  0  0  0  0  0  0  0
    0.6211    0.0741   -5.9221 H   0  0  0  0  0  0  0  0  0  0  0  0
   -1.0575    2.5809    1.0926 C   0  0  0  0  0  0  0  0  0  0  0  0
   -0.1236    2.8808    1.8189 O   0  0  0  0  0  0  0  0  0  0  0  0
   -2.1448    3.4334    0.9999 N   0  0  0  0  0  0  0  0  0  0  0  0
   -2.8391    3.2441    0.2853 H   0  0  0  0  0  0  0  0  0  0  0  0
   -2.2355    4.6828    1.7504 C   0  0  0  0  0  0  0  0  0  0  0  0
   -1.4414    5.3731    1.4459 H   0  0  0  0  0  0  0  0  0  0  0  0
   -3.2016    5.1651    1.5719 H   0  0  0  0  0  0  0  0  0  0  0  0
   -2.1408    4.4926    2.8251 H   0  0  0  0  0  0  0  0  0  0  0  0
  1  2  1  0  0  0  0
  2  3  1  0  0  0  0
  2  4  1  0  0  0  0
  2  5  1  0  0  0  0
  5  6  2  0  0  0  0
  5  7  1  0  0  0  0
  7  8  1  0  0  0  0
  7  9  1  0  0  0  0
  9 10  1  0  0  0  0
  9 11  1  0  0  0  0
  9 27  1  0  0  0  0
 11 12  1  0  0  0  0
 11 13  1  0  0  0  0
 11 14  1  0  0  0  0
 14 15  1  0  0  0  0
 14 16  1  0  0  0  0
 14 17  1  0  0  0  0
 17 18  1  0  0  0  0
 17 19  1  0  0  0  0
 17 20  1  0  0  0  0
 20 21  1  0  0  0  0
 20 22  1  0  0  0  0
 20 23  1  0  0  0  0
 23 24  1  0  0  0  0
 23 25  1  0  0  0  0
 23 26  1  0  0  0  0
 27 28  2  0  0  0  0
 27 29  1  0  0  0  0
 29 30  1  0  0  0  0
 29 31  1  0  0  0  0
 31 32  1  0  0  0  0
 31 33  1  0  0  0  0
 31 34  1  0  0  0  0
M  CHG  1  23   1
M  END
$$$$

  -OEChem-01062216093D

 34 33  0     1  0  0  0  0  0999 V2000
   -3.5413   -2.4202    1.2883 H   0  0  0  0  0  0  0  0  0  0  0  0
   -3.6618   -1.4060    0.8968 C   0  0  0  0  0  0  0  0  0  0  0  0
   -4.2336   -0.8196    1.6202 H   0  0  0  0  0  0  0  0  0  0  0  0
   -4.2161   -1.4556   -0.0433 H   0  0  0  0  0  0  0  0  0  0  0  0
   -2.3033   -0.7709    0.6692 C   0  0  0  0  0  0  0  0  0  0  0  0
   -1.2897   -1.4372    0.7932 O   0  0  0  0  0  0  0  0  0  0  0  0
   -2.2174    0.5358    0.2263 N   0  0  0  0  0  0  0  0  0  0  0  0
   -3.0992    1.0275    0.1264 H   0  0  0  0  0  0  0  0  0  0  0  0
   -0.9662    1.3257    0.2483 C   0  0  1  0  0  0  0  0  0  0  0  0
   -0.1782    0.7375    0.7338 H   0  0  0  0  0  0  0  0  0  0  0  0
   -0.4971    1.6274   -1.1848 C   0  0  0  0  0  0  0  0  0  0  0  0
   -1.3071    2.1056   -1.7450 H   0  0  0  0  0  0  0  0  0  0  0  0
    0.3433    2.3299   -1.1475 H   0  0  0  0  0  0  0  0  0  0  0  0
   -0.0426    0.3412   -1.8932 C   0  0  0  0  0  0  0  0  0  0  0  0
    0.7601   -0.1270   -1.3115 H   0  0  0  0  0  0  0  0  0  0  0  0
   -0.8763   -0.3680   -1.9379 H   0  0  0  0  0  0  0  0  0  0  0  0
    0.4509    0.6371   -3.3120 C   0  0  0  0  0  0  0  0  0  0  0  0
   -0.3511    1.1173   -3.8831 H   0  0  0  0  0  0  0  0  0  0  0  0
    1.2994    1.3289   -3.2661 H   0  0  0  0  0  0  0  0  0  0  0  0
    0.8704   -0.6649   -3.9902 C   0  0  0  0  0  0  0  0  0  0  0  0
    1.6713   -1.1363   -3.4012 H   0  0  0  0  0  0  0  0  0  0  0  0
    0.0198   -1.3621   -3.9927 H   0  0  0  0  0  0  0  0  0  0  0  0
    1.3229   -0.3705   -5.3671 N   0  3  0  0  0  0  0  0  0  0  0  0
    2.1192    0.2697   -5.3420 H   0  0  0  0  0  0  0  0  0  0  0  0
    1.6073   -1.2339   -5.8351 H   0  0  0  0  0  0  0  0  0  0  0  0
    0.5663    0.0624   -5.8995 H   0  0  0  0  0  0  0  0  0  0  0  0
   -1.0372    2.6137    1.0970 C   0  0  0  0  0  0  0  0  0  0  0  0
    0.0030    3.1091    1.5025 O   0  0  0  0  0  0  0  0  0  0  0  0
   -2.2200    3.3135    1.2675 N   0  0  0  0  0  0  0  0  0  0  0  0
   -3.0782    2.8932    0.9327 H   0  0  0  0  0  0  0  0  0  0  0  0
   -2.3009    4.5562    2.0298 C   0  0  0  0  0  0  0  0  0  0  0  0
   -1.6626    5.3251    1.5812 H   0  0  0  0  0  0  0  0  0  0  0  0
   -3.3299    4.9288    2.0432 H   0  0  0  0  0  0  0  0  0  0  0  0
   -1.9792    4.3932    3.0643 H   0  0  0  0  0  0  0  0  0  0  0  0
  1  2  1  0  0  0  0
  2  3  1  0  0  0  0
  2  4  1  0  0  0  0
  2  5  1  0  0  0  0
  5  6  2  0  0  0  0
  5  7  1  0  0  0  0
  7  8  1  0  0  0  0
  7  9  1  0  0  0  0
  9 10  1  0  0  0  0
  9 11  1  0  0  0  0
  9 27  1  0  0  0  0
 11 12  1  0  0  0  0
 11 13  1  0  0  0  0
 11 14  1  0  0  0  0
 14 15  1  0  0  0  0
 14 16  1  0  0  0  0
 14 17  1  0  0  0  0
 17 18  1  0  0  0  0
 17 19  1  0  0  0  0
 17 20  1  0  0  0  0
 20 21  1  0  0  0  0
 20 22  1  0  0  0  0
 20 23  1  0  0  0  0
 23 24  1  0  0  0  0
 23 25  1  0  0  0  0
 23 26  1  0  0  0  0
 27 28  2  0  0  0  0
 27 29  1  0  0  0  0
 29 30  1  0  0  0  0
 29 31  1  0  0  0  0
 31 32  1  0  0  0  0
 31 33  1  0  0  0  0
 31 34  1  0  0  0  0
M  CHG  1  23   1
M  END
$$$$

  -OEChem-01062216093D

 34 33  0     1  0  0  0  0  0999 V2000
   -3.5550   -2.4250    1.2338 H   0  0  0  0  0  0  0  0  0  0  0  0
   -3.6623   -1.4157    0.8251 C   0  0  0  0  0  0  0  0  0  0  0  0
   -4.2999   -0.8345    1.4958 H   0  0  0  0  0  0  0  0  0  0  0  0
   -4.1399   -1.4821   -0.1551 H   0  0  0  0  0  0  0  0  0  0  0  0
   -2.3012   -0.7579    0.6997 C   0  0  0  0  0  0  0  0  0  0  0  0
   -1.2907   -1.4025    0.9206 O   0  0  0  0  0  0  0  0  0  0  0  0
   -2.2004    0.5466    0.2537 N   0  0  0  0  0  0  0  0  0  0  0  0
   -3.0687    1.0168    0.0150 H   0  0  0  0  0  0  0  0  0  0  0  0
   -0.9492    1.3363    0.2689 C   0  0  1  0  0  0  0  0  0  0  0  0
   -0.1574    0.7540    0.7542 H   0  0  0  0  0  0  0  0  0  0  0  0
   -0.4913    1.6277   -1.1719 C   0  0  0  0  0  0  0  0  0  0  0  0
   -1.3065    2.1037   -1.7266 H   0  0  0  0  0  0  0  0  0  0  0  0
    0.3496    2.3300   -1.1500 H   0  0  0  0  0  0  0  0  0  0  0  0
   -0.0418    0.3393   -1.8795 C   0  0  0  0  0  0  0  0  0  0  0  0
    0.7668   -0.1268   -1.3041 H   0  0  0  0  0  0  0  0  0  0  0  0
   -0.8749   -0.3710   -1.9153 H   0  0  0  0  0  0  0  0  0  0  0  0
    0.4383    0.6354   -3.3034 C   0  0  0  0  0  0  0  0  0  0  0  0
   -0.3693    1.1147   -3.8676 H   0  0  0  0  0  0  0  0  0  0  0  0
    1.2859    1.3288   -3.2651 H   0  0  0  0  0  0  0  0  0  0  0  0
    0.8545   -0.6656   -3.9855 C   0  0  0  0  0  0  0  0  0  0  0  0
    1.6618   -1.1346   -3.4035 H   0  0  0  0  0  0  0  0  0  0  0  0
    0.0055   -1.3647   -3.9809 H   0  0  0  0  0  0  0  0  0  0  0  0
    1.2937   -0.3697   -5.3665 N   0  3  0  0  0  0  0  0  0  0  0  0
    2.0824    0.2803   -5.3479 H   0  0  0  0  0  0  0  0  0  0  0  0
    1.5855   -1.2306   -5.8347 H   0  0  0  0  0  0  0  0  0  0  0  0
    0.5282    0.0531   -5.8945 H   0  0  0  0  0  0  0  0  0  0  0  0
   -1.0261    2.6275    1.1145 C   0  0  0  0  0  0  0  0  0  0  0  0
   -0.0116    3.2891    1.2784 O   0  0  0  0  0  0  0  0  0  0  0  0
   -2.2384    3.1476    1.5351 N   0  0  0  0  0  0  0  0  0  0  0  0
   -3.0370    2.5236    1.5196 H   0  0  0  0  0  0  0  0  0  0  0  0
   -2.3354    4.3752    2.3204 C   0  0  0  0  0  0  0  0  0  0  0  0
   -1.8973    5.2173    1.7737 H   0  0  0  0  0  0  0  0  0  0  0  0
   -3.3831    4.6120    2.5302 H   0  0  0  0  0  0  0  0  0  0  0  0
   -1.8078    4.2640    3.2739 H   0  0  0  0  0  0  0  0  0  0  0  0
  1  2  1  0  0  0  0
  2  3  1  0  0  0  0
  2  4  1  0  0  0  0
  2  5  1  0  0  0  0
  5  6  2  0  0  0  0
  5  7  1  0  0  0  0
  7  8  1  0  0  0  0
  7  9  1  0  0  0  0
  9 10  1  0  0  0  0
  9 11  1  0  0  0  0
  9 27  1  0  0  0  0
 11 12  1  0  0  0  0
 11 13  1  0  0  0  0
 11 14  1  0  0  0  0
 14 15  1  0  0  0  0
 14 16  1  0  0  0  0
 14 17  1  0  0  0  0
 17 18  1  0  0  0  0
 17 19  1  0  0  0  0
 17 20  1  0  0  0  0
 20 21  1  0  0  0  0
 20 22  1  0  0  0  0
 20 23  1  0  0  0  0
 23 24  1  0  0  0  0
 23 25  1  0  0  0  0
 23 26  1  0  0  0  0
 27 28  2  0  0  0  0
 27 29  1  0  0  0  0
 29 30  1  0  0  0  0
 29 31  1  0  0  0  0
 31 32  1  0  0  0  0
 31 33  1  0  0  0  0
 31 34  1  0  0  0  0
M  CHG  1  23   1
M  END
$$$$

  -OEChem-01062216093D

 34 33  0     1  0  0  0  0  0999 V2000
   -3.5692   -2.4029    1.2285 H   0  0  0  0  0  0  0  0  0  0  0  0
   -3.6666   -1.3932    0.8186 C   0  0  0  0  0  0  0  0  0  0  0  0
   -4.3075   -0.8080    1.4826 H   0  0  0  0  0  0  0  0  0  0  0  0
   -4.1344   -1.4570   -0.1666 H   0  0  0  0  0  0  0  0  0  0  0  0
   -2.3008   -0.7438    0.7059 C   0  0  0  0  0  0  0  0  0  0  0  0
   -1.2960   -1.3892    0.9487 O   0  0  0  0  0  0  0  0  0  0  0  0
   -2.1886    0.5589    0.2589 N   0  0  0  0  0  0  0  0  0  0  0  0
   -3.0533    1.0410    0.0265 H   0  0  0  0  0  0  0  0  0  0  0  0
   -0.9331    1.3416    0.2761 C   0  0  1  0  0  0  0  0  0  0  0  0
   -0.1426    0.7597    0.7633 H   0  0  0  0  0  0  0  0  0  0  0  0
   -0.4777    1.6252   -1.1687 C   0  0  0  0  0  0  0  0  0  0  0  0
   -1.2926    2.1040   -1.7214 H   0  0  0  0  0  0  0  0  0  0  0  0
    0.3679    2.3217   -1.1556 H   0  0  0  0  0  0  0  0  0  0  0  0
   -0.0369    0.3339   -1.8764 C   0  0  0  0  0  0  0  0  0  0  0  0
    0.7720   -0.1352   -1.3044 H   0  0  0  0  0  0  0  0  0  0  0  0
   -0.8730   -0.3731   -1.9092 H   0  0  0  0  0  0  0  0  0  0  0  0
    0.4388    0.6304   -3.3020 C   0  0  0  0  0  0  0  0  0  0  0  0
   -0.3696    1.1139   -3.8614 H   0  0  0  0  0  0  0  0  0  0  0  0
    1.2887    1.3212   -3.2657 H   0  0  0  0  0  0  0  0  0  0  0  0
    0.8485   -0.6684   -3.9918 C   0  0  0  0  0  0  0  0  0  0  0  0
    1.6575   -1.1426   -3.4164 H   0  0  0  0  0  0  0  0  0  0  0  0
   -0.0023   -1.3656   -3.9873 H   0  0  0  0  0  0  0  0  0  0  0  0
    1.2820   -0.3644   -5.3729 N   0  3  0  0  0  0  0  0  0  0  0  0
    2.0753    0.2800   -5.3538 H   0  0  0  0  0  0  0  0  0  0  0  0
    1.5649   -1.2233   -5.8499 H   0  0  0  0  0  0  0  0  0  0  0  0
    0.5165    0.0683   -5.8929 H   0  0  0  0  0  0  0  0  0  0  0  0
   -1.0233    2.6316    1.1246 C   0  0  0  0  0  0  0  0  0  0  0  0
   -0.0948    3.4267    1.1143 O   0  0  0  0  0  0  0  0  0  0  0  0
   -2.1900    2.9735    1.7864 N   0  0  0  0  0  0  0  0  0  0  0  0
   -2.8715    2.2336    1.9170 H   0  0  0  0  0  0  0  0  0  0  0  0
   -2.3007    4.1700    2.6160 C   0  0  0  0  0  0  0  0  0  0  0  0
   -2.1015    5.0694    2.0232 H   0  0  0  0  0  0  0  0  0  0  0  0
   -3.3091    4.2521    3.0335 H   0  0  0  0  0  0  0  0  0  0  0  0
   -1.5848    4.1307    3.4442 H   0  0  0  0  0  0  0  0  0  0  0  0
  1  2  1  0  0  0  0
  2  3  1  0  0  0  0
  2  4  1  0  0  0  0
  2  5  1  0  0  0  0
  5  6  2  0  0  0  0
  5  7  1  0  0  0  0
  7  8  1  0  0  0  0
  7  9  1  0  0  0  0
  9 10  1  0  0  0  0
  9 11  1  0  0  0  0
  9 27  1  0  0  0  0
 11 12  1  0  0  0  0
 11 13  1  0  0  0  0
 11 14  1  0  0  0  0
 14 15  1  0  0  0  0
 14 16  1  0  0  0  0
 14 17  1  0  0  0  0
 17 18  1  0  0  0  0
 17 19  1  0  0  0  0
 17 20  1  0  0  0  0
 20 21  1  0  0  0  0
 20 22  1  0  0  0  0
 20 23  1  0  0  0  0
 23 24  1  0  0  0  0
 23 25  1  0  0  0  0
 23 26  1  0  0  0  0
 27 28  2  0  0  0  0
 27 29  1  0  0  0  0
 29 30  1  0  0  0  0
 29 31  1  0  0  0  0
 31 32  1  0  0  0  0
 31 33  1  0  0  0  0
 31 34  1  0  0  0  0
M  CHG  1  23   1
M  END
$$$$

  -OEChem-01062216093D

 34 33  0     1  0  0  0  0  0999 V2000
   -3.5810   -2.3764    1.2344 H   0  0  0  0  0  0  0  0  0  0  0  0
   -3.6705   -1.3640    0.8294 C   0  0  0  0  0  0  0  0  0  0  0  0
   -4.2945   -0.7728    1.5042 H   0  0  0  0  0  0  0  0  0  0  0  0
   -4.1534   -1.4182   -0.1492 H   0  0  0  0  0  0  0  0  0  0  0  0
   -2.2982   -0.7310    0.6992 C   0  0  0  0  0  0  0  0  0  0  0  0
   -1.2969   -1.3857    0.9319 O   0  0  0  0  0  0  0  0  0  0  0  0
   -2.1769    0.5727    0.2580 N   0  0  0  0  0  0  0  0  0  0  0  0
   -3.0421    1.0736    0.0687 H   0  0  0  0  0  0  0  0  0  0  0  0
   -0.9172    1.3482    0.2788 C   0  0  1  0  0  0  0  0  0  0  0  0
   -0.1284    0.7638    0.7655 H   0  0  0  0  0  0  0  0  0  0  0  0
   -0.4630    1.6294   -1.1684 C   0  0  0  0  0  0  0  0  0  0  0  0
   -1.2755    2.1146   -1.7191 H   0  0  0  0  0  0  0  0  0  0  0  0
    0.3883    2.3190   -1.1585 H   0  0  0  0  0  0  0  0  0  0  0  0
   -0.0311    0.3361   -1.8777 C   0  0  0  0  0  0  0  0  0  0  0  0
    0.7764   -0.1374   -1.3071 H   0  0  0  0  0  0  0  0  0  0  0  0
   -0.8714   -0.3659   -1.9088 H   0  0  0  0  0  0  0  0  0  0  0  0
    0.4425    0.6306   -3.3047 C   0  0  0  0  0  0  0  0  0  0  0  0
   -0.3653    1.1180   -3.8615 H   0  0  0  0  0  0  0  0  0  0  0  0
    1.2954    1.3175   -3.2709 H   0  0  0  0  0  0  0  0  0  0  0  0
    0.8435   -0.6702   -3.9962 C   0  0  0  0  0  0  0  0  0  0  0  0
    1.6517   -1.1490   -3.4233 H   0  0  0  0  0  0  0  0  0  0  0  0
   -0.0112   -1.3625   -3.9887 H   0  0  0  0  0  0  0  0  0  0  0  0
    1.2750   -0.3692   -5.3785 N   0  3  0  0  0  0  0  0  0  0  0  0
    2.0722    0.2702   -5.3621 H   0  0  0  0  0  0  0  0  0  0  0  0
    1.5508   -1.2300   -5.8563 H   0  0  0  0  0  0  0  0  0  0  0  0
    0.5106    0.0679   -5.8963 H   0  0  0  0  0  0  0  0  0  0  0  0
   -1.0194    2.6318    1.1375 C   0  0  0  0  0  0  0  0  0  0  0  0
   -0.2263    3.5477    0.9727 O   0  0  0  0  0  0  0  0  0  0  0  0
   -2.0651    2.8043    2.0275 N   0  0  0  0  0  0  0  0  0  0  0  0
   -2.6081    1.9777    2.2568 H   0  0  0  0  0  0  0  0  0  0  0  0
   -2.1826    3.9752    2.8919 C   0  0  0  0  0  0  0  0  0  0  0  0
   -2.2372    4.8916    2.2941 H   0  0  0  0  0  0  0  0  0  0  0  0
   -3.0900    3.9091    3.5003 H   0  0  0  0  0  0  0  0  0  0  0  0
   -1.3195    4.0455    3.5626 H   0  0  0  0  0  0  0  0  0  0  0  0
  1  2  1  0  0  0  0
  2  3  1  0  0  0  0
  2  4  1  0  0  0  0
  2  5  1  0  0  0  0
  5  6  2  0  0  0  0
  5  7  1  0  0  0  0
  7  8  1  0  0  0  0
  7  9  1  0  0  0  0
  9 10  1  0  0  0  0
  9 11  1  0  0  0  0
  9 27  1  0  0  0  0
 11 12  1  0  0  0  0
 11 13  1  0  0  0  0
 11 14  1  0  0  0  0
 14 15  1  0  0  0  0
 14 16  1  0  0  0  0
 14 17  1  0  0  0  0
 17 18  1  0  0  0  0
 17 19  1  0  0  0  0
 17 20  1  0  0  0  0
 20 21  1  0  0  0  0
 20 22  1  0  0  0  0
 20 23  1  0  0  0  0
 23 24  1  0  0  0  0
 23 25  1  0  0  0  0
 23 26  1  0  0  0  0
 27 28  2  0  0  0  0
 27 29  1  0  0  0  0
 29 30  1  0  0  0  0
 29 31  1  0  0  0  0
 31 32  1  0  0  0  0
 31 33  1  0  0  0  0
 31 34  1  0  0  0  0
M  CHG  1  23   1
M  END
$$$$

  -OEChem-01062216093D

 34 33  0     1  0  0  0  0  0999 V2000
   -3.5910   -2.3441    1.2805 H   0  0  0  0  0  0  0  0  0  0  0  0
   -3.6756   -1.3428    0.8483 C   0  0  0  0  0  0  0  0  0  0  0  0
   -4.2985   -0.7311    1.5054 H   0  0  0  0  0  0  0  0  0  0  0  0
   -4.1563   -1.4214   -0.1297 H   0  0  0  0  0  0  0  0  0  0  0  0
   -2.2998   -0.7204    0.7044 C   0  0  0  0  0  0  0  0  0  0  0  0
   -1.3021   -1.3812    0.9367 O   0  0  0  0  0  0  0  0  0  0  0  0
   -2.1690    0.5821    0.2626 N   0  0  0  0  0  0  0  0  0  0  0  0
   -3.0317    1.0997    0.1084 H   0  0  0  0  0  0  0  0  0  0  0  0
   -0.9022    1.3448    0.2845 C   0  0  1  0  0  0  0  0  0  0  0  0
   -0.1170    0.7554    0.7705 H   0  0  0  0  0  0  0  0  0  0  0  0
   -0.4458    1.6246   -1.1622 C   0  0  0  0  0  0  0  0  0  0  0  0
   -1.2532    2.1210   -1.7108 H   0  0  0  0  0  0  0  0  0  0  0  0
    0.4132    2.3046   -1.1491 H   0  0  0  0  0  0  0  0  0  0  0  0
   -0.0270    0.3305   -1.8769 C   0  0  0  0  0  0  0  0  0  0  0  0
    0.7759   -0.1547   -1.3099 H   0  0  0  0  0  0  0  0  0  0  0  0
   -0.8750   -0.3619   -1.9120 H   0  0  0  0  0  0  0  0  0  0  0  0
    0.4477    0.6304   -3.3020 C   0  0  0  0  0  0  0  0  0  0  0  0
   -0.3559    1.1297   -3.8545 H   0  0  0  0  0  0  0  0  0  0  0  0
    1.3072    1.3091   -3.2640 H   0  0  0  0  0  0  0  0  0  0  0  0
    0.8364   -0.6683   -4.0038 C   0  0  0  0  0  0  0  0  0  0  0  0
    1.6400   -1.1597   -3.4354 H   0  0  0  0  0  0  0  0  0  0  0  0
   -0.0248   -1.3525   -4.0023 H   0  0  0  0  0  0  0  0  0  0  0  0
    1.2687   -0.3583   -5.3838 N   0  3  0  0  0  0  0  0  0  0  0  0
    2.0772    0.2668   -5.3624 H   0  0  0  0  0  0  0  0  0  0  0  0
    1.5272   -1.2180   -5.8731 H   0  0  0  0  0  0  0  0  0  0  0  0
    0.5104    0.0990   -5.8934 H   0  0  0  0  0  0  0  0  0  0  0  0
   -1.0107    2.6254    1.1473 C   0  0  0  0  0  0  0  0  0  0  0  0
   -0.4011    3.6403    0.8407 O   0  0  0  0  0  0  0  0  0  0  0  0
   -1.8670    2.6624    2.2332 N   0  0  0  0  0  0  0  0  0  0  0  0
   -2.2597    1.7767    2.5387 H   0  0  0  0  0  0  0  0  0  0  0  0
   -1.9812    3.8203    3.1150 C   0  0  0  0  0  0  0  0  0  0  0  0
   -2.3148    4.6997    2.5535 H   0  0  0  0  0  0  0  0  0  0  0  0
   -2.7085    3.6237    3.9088 H   0  0  0  0  0  0  0  0  0  0  0  0
   -1.0151    4.0467    3.5791 H   0  0  0  0  0  0  0  0  0  0  0  0
  1  2  1  0  0  0  0
  2  3  1  0  0  0  0
  2  4  1  0  0  0  0
  2  5  1  0  0  0  0
  5  6  2  0  0  0  0
  5  7  1  0  0  0  0
  7  8  1  0  0  0  0
  7  9  1  0  0  0  0
  9 10  1  0  0  0  0
  9 11  1  0  0  0  0
  9 27  1  0  0  0  0
 11 12  1  0  0  0  0
 11 13  1  0  0  0  0
 11 14  1  0  0  0  0
 14 15  1  0  0  0  0
 14 16  1  0  0  0  0
 14 17  1  0  0  0  0
 17 18  1  0  0  0  0
 17 19  1  0  0  0  0
 17 20  1  0  0  0  0
 20 21  1  0  0  0  0
 20 22  1  0  0  0  0
 20 23  1  0  0  0  0
 23 24  1  0  0  0  0
 23 25  1  0  0  0  0
 23 26  1  0  0  0  0
 27 28  2  0  0  0  0
 27 29  1  0  0  0  0
 29 30  1  0  0  0  0
 29 31  1  0  0  0  0
 31 32  1  0  0  0  0
 31 33  1  0  0  0  0
 31 34  1  0  0  0  0
M  CHG  1  23   1
M  END
$$$$

  -OEChem-01062216093D

 34 33  0     1  0  0  0  0  0999 V2000
   -3.5983   -2.3184    1.2953 H   0  0  0  0  0  0  0  0  0  0  0  0
   -3.6746   -1.3140    0.8689 C   0  0  0  0  0  0  0  0  0  0  0  0
   -4.2831   -0.6974    1.5348 H   0  0  0  0  0  0  0  0  0  0  0  0
   -4.1661   -1.3812   -0.1044 H   0  0  0  0  0  0  0  0  0  0  0  0
   -2.2931   -0.7081    0.7135 C   0  0  0  0  0  0  0  0  0  0  0  0
   -1.3000   -1.3770    0.9436 O   0  0  0  0  0  0  0  0  0  0  0  0
   -2.1525    0.5921    0.2702 N   0  0  0  0  0  0  0  0  0  0  0  0
   -3.0120    1.1219    0.1387 H   0  0  0  0  0  0  0  0  0  0  0  0
   -0.8806    1.3431    0.2903 C   0  0  1  0  0  0  0  0  0  0  0  0
   -0.0966    0.7504    0.7739 H   0  0  0  0  0  0  0  0  0  0  0  0
   -0.4263    1.6237   -1.1563 C   0  0  0  0  0  0  0  0  0  0  0  0
   -1.2317    2.1280   -1.7011 H   0  0  0  0  0  0  0  0  0  0  0  0
    0.4367    2.2986   -1.1400 H   0  0  0  0  0  0  0  0  0  0  0  0
   -0.0203    0.3291   -1.8770 C   0  0  0  0  0  0  0  0  0  0  0  0
    0.7809   -0.1641   -1.3147 H   0  0  0  0  0  0  0  0  0  0  0  0
   -0.8736   -0.3567   -1.9114 H   0  0  0  0  0  0  0  0  0  0  0  0
    0.4522    0.6305   -3.3024 C   0  0  0  0  0  0  0  0  0  0  0  0
   -0.3497    1.1376   -3.8504 H   0  0  0  0  0  0  0  0  0  0  0  0
    1.3167    1.3026   -3.2654 H   0  0  0  0  0  0  0  0  0  0  0  0
    0.8282   -0.6685   -4.0102 C   0  0  0  0  0  0  0  0  0  0  0  0
    1.6303   -1.1676   -3.4465 H   0  0  0  0  0  0  0  0  0  0  0  0
   -0.0381   -1.3463   -4.0076 H   0  0  0  0  0  0  0  0  0  0  0  0
    1.2585   -0.3571   -5.3907 N   0  3  0  0  0  0  0  0  0  0  0  0
    2.0696    0.2646   -5.3702 H   0  0  0  0  0  0  0  0  0  0  0  0
    1.5119   -1.2166   -5.8828 H   0  0  0  0  0  0  0  0  0  0  0  0
    0.5007    0.1047   -5.8970 H   0  0  0  0  0  0  0  0  0  0  0  0
   -0.9975    2.6194    1.1557 C   0  0  0  0  0  0  0  0  0  0  0  0
   -0.6179    3.7036    0.7360 O   0  0  0  0  0  0  0  0  0  0  0  0
   -1.6088    2.5539    2.3943 N   0  0  0  0  0  0  0  0  0  0  0  0
   -1.8275    1.6288    2.7542 H   0  0  0  0  0  0  0  0  0  0  0  0
   -1.7284    3.7024    3.2870 C   0  0  0  0  0  0  0  0  0  0  0  0
   -2.3048    4.5021    2.8095 H   0  0  0  0  0  0  0  0  0  0  0  0
   -2.2401    3.4141    4.2105 H   0  0  0  0  0  0  0  0  0  0  0  0
   -0.7380    4.0912    3.5473 H   0  0  0  0  0  0  0  0  0  0  0  0
  1  2  1  0  0  0  0
  2  3  1  0  0  0  0
  2  4  1  0  0  0  0
  2  5  1  0  0  0  0
  5  6  2  0  0  0  0
  5  7  1  0  0  0  0
  7  8  1  0  0  0  0
  7  9  1  0  0  0  0
  9 10  1  0  0  0  0
  9 11  1  0  0  0  0
  9 27  1  0  0  0  0
 11 12  1  0  0  0  0
 11 13  1  0  0  0  0
 11 14  1  0  0  0  0
 14 15  1  0  0  0  0
 14 16  1  0  0  0  0
 14 17  1  0  0  0  0
 17 18  1  0  0  0  0
 17 19  1  0  0  0  0
 17 20  1  0  0  0  0
 20 21  1  0  0  0  0
 20 22  1  0  0  0  0
 20 23  1  0  0  0  0
 23 24  1  0  0  0  0
 23 25  1  0  0  0  0
 23 26  1  0  0  0  0
 27 28  2  0  0  0  0
 27 29  1  0  0  0  0
 29 30  1  0  0  0  0
 29 31  1  0  0  0  0
 31 32  1  0  0  0  0
 31 33  1  0  0  0  0
 31 34  1  0  0  0  0
M  CHG  1  23   1
M  END
$$$$

  -OEChem-01062216093D

 34 33  0     1  0  0  0  0  0999 V2000
   -3.6038   -2.2993    1.3204 H   0  0  0  0  0  0  0  0  0  0  0  0
   -3.6707   -1.2998    0.8808 C   0  0  0  0  0  0  0  0  0  0  0  0
   -4.2813   -0.6714    1.5338 H   0  0  0  0  0  0  0  0  0  0  0  0
   -4.1546   -1.3768   -0.0957 H   0  0  0  0  0  0  0  0  0  0  0  0
   -2.2846   -0.7028    0.7294 C   0  0  0  0  0  0  0  0  0  0  0  0
   -1.2961   -1.3767    0.9667 O   0  0  0  0  0  0  0  0  0  0  0  0
   -2.1336    0.5943    0.2813 N   0  0  0  0  0  0  0  0  0  0  0  0
   -2.9882    1.1329    0.1541 H   0  0  0  0  0  0  0  0  0  0  0  0
   -0.8563    1.3332    0.3012 C   0  0  1  0  0  0  0  0  0  0  0  0
   -0.0729    0.7364    0.7808 H   0  0  0  0  0  0  0  0  0  0  0  0
   -0.4054    1.6197   -1.1446 C   0  0  0  0  0  0  0  0  0  0  0  0
   -1.2089    2.1336   -1.6833 H   0  0  0  0  0  0  0  0  0  0  0  0
    0.4612    2.2902   -1.1237 H   0  0  0  0  0  0  0  0  0  0  0  0
   -0.0137    0.3269   -1.8764 C   0  0  0  0  0  0  0  0  0  0  0  0
    0.7847   -0.1780   -1.3207 H   0  0  0  0  0  0  0  0  0  0  0  0
   -0.8738   -0.3505   -1.9121 H   0  0  0  0  0  0  0  0  0  0  0  0
    0.4560    0.6326   -3.3021 C   0  0  0  0  0  0  0  0  0  0  0  0
   -0.3428    1.1512   -3.8439 H   0  0  0  0  0  0  0  0  0  0  0  0
    1.3274    1.2958   -3.2642 H   0  0  0  0  0  0  0  0  0  0  0  0
    0.8167   -0.6661   -4.0186 C   0  0  0  0  0  0  0  0  0  0  0  0
    1.6154   -1.1767   -3.4604 H   0  0  0  0  0  0  0  0  0  0  0  0
   -0.0567   -1.3349   -4.0164 H   0  0  0  0  0  0  0  0  0  0  0  0
    1.2446   -0.3520   -5.3991 N   0  3  0  0  0  0  0  0  0  0  0  0
    2.0629    0.2601   -5.3792 H   0  0  0  0  0  0  0  0  0  0  0  0
    1.4856   -1.2119   -5.8967 H   0  0  0  0  0  0  0  0  0  0  0  0
    0.4899    0.1212   -5.8997 H   0  0  0  0  0  0  0  0  0  0  0  0
   -0.9762    2.6092    1.1638 C   0  0  0  0  0  0  0  0  0  0  0  0
   -0.8463    3.7200    0.6682 O   0  0  0  0  0  0  0  0  0  0  0  0
   -1.3036    2.5000    2.5023 N   0  0  0  0  0  0  0  0  0  0  0  0
   -1.3666    1.5638    2.8943 H   0  0  0  0  0  0  0  0  0  0  0  0
   -1.4299    3.6488    3.3936 C   0  0  0  0  0  0  0  0  0  0  0  0
   -2.2239    4.3187    3.0468 H   0  0  0  0  0  0  0  0  0  0  0  0
   -1.6768    3.3179    4.4074 H   0  0  0  0  0  0  0  0  0  0  0  0
   -0.4900    4.2100    3.4328 H   0  0  0  0  0  0  0  0  0  0  0  0
  1  2  1  0  0  0  0
  2  3  1  0  0  0  0
  2  4  1  0  0  0  0
  2  5  1  0  0  0  0
  5  6  2  0  0  0  0
  5  7  1  0  0  0  0
  7  8  1  0  0  0  0
  7  9  1  0  0  0  0
  9 10  1  0  0  0  0
  9 11  1  0  0  0  0
  9 27  1  0  0  0  0
 11 12  1  0  0  0  0
 11 13  1  0  0  0  0
 11 14  1  0  0  0  0
 14 15  1  0  0  0  0
 14 16  1  0  0  0  0
 14 17  1  0  0  0  0
 17 18  1  0  0  0  0
 17 19  1  0  0  0  0
 17 20  1  0  0  0  0
 20 21  1  0  0  0  0
 20 22  1  0  0  0  0
 20 23  1  0  0  0  0
 23 24  1  0  0  0  0
 23 25  1  0  0  0  0
 23 26  1  0  0  0  0
 27 28  2  0  0  0  0
 27 29  1  0  0  0  0
 29 30  1  0  0  0  0
 29 31  1  0  0  0  0
 31 32  1  0  0  0  0
 31 33  1  0  0  0  0
 31 34  1  0  0  0  0
M  CHG  1  23   1
M  END
$$$$

  -OEChem-01062216093D

 34 33  0     1  0  0  0  0  0999 V2000
   -3.6059   -2.2854    1.3427 H   0  0  0  0  0  0  0  0  0  0  0  0
   -3.6676   -1.2863    0.9017 C   0  0  0  0  0  0  0  0  0  0  0  0
   -4.2663   -0.6507    1.5587 H   0  0  0  0  0  0  0  0  0  0  0  0
   -4.1615   -1.3602   -0.0699 H   0  0  0  0  0  0  0  0  0  0  0  0
   -2.2778   -0.7021    0.7357 C   0  0  0  0  0  0  0  0  0  0  0  0
   -1.2923   -1.3843    0.9638 O   0  0  0  0  0  0  0  0  0  0  0  0
   -2.1193    0.5928    0.2842 N   0  0  0  0  0  0  0  0  0  0  0  0
   -2.9698    1.1417    0.1724 H   0  0  0  0  0  0  0  0  0  0  0  0
   -0.8379    1.3220    0.3063 C   0  0  1  0  0  0  0  0  0  0  0  0
   -0.0558    0.7201    0.7813 H   0  0  0  0  0  0  0  0  0  0  0  0
   -0.3887    1.6153   -1.1379 C   0  0  0  0  0  0  0  0  0  0  0  0
   -1.1917    2.1352   -1.6720 H   0  0  0  0  0  0  0  0  0  0  0  0
    0.4793    2.2837   -1.1133 H   0  0  0  0  0  0  0  0  0  0  0  0
   -0.0078    0.3244   -1.8789 C   0  0  0  0  0  0  0  0  0  0  0  0
    0.7881   -0.1898   -1.3282 H   0  0  0  0  0  0  0  0  0  0  0  0
   -0.8727   -0.3467   -1.9166 H   0  0  0  0  0  0  0  0  0  0  0  0
    0.4606    0.6353   -3.3037 C   0  0  0  0  0  0  0  0  0  0  0  0
   -0.3360    1.1622   -3.8408 H   0  0  0  0  0  0  0  0  0  0  0  0
    1.3366    1.2923   -3.2647 H   0  0  0  0  0  0  0  0  0  0  0  0
    0.8098   -0.6628   -4.0269 C   0  0  0  0  0  0  0  0  0  0  0  0
    1.6059   -1.1814   -3.4723 H   0  0  0  0  0  0  0  0  0  0  0  0
   -0.0688   -1.3247   -4.0253 H   0  0  0  0  0  0  0  0  0  0  0  0
    1.2372   -0.3473   -5.4072 N   0  3  0  0  0  0  0  0  0  0  0  0
    2.0598    0.2588   -5.3871 H   0  0  0  0  0  0  0  0  0  0  0  0
    1.4712   -1.2072   -5.9083 H   0  0  0  0  0  0  0  0  0  0  0  0
    0.4847    0.1327   -5.9047 H   0  0  0  0  0  0  0  0  0  0  0  0
   -0.9558    2.5985    1.1656 C   0  0  0  0  0  0  0  0  0  0  0  0
   -1.0824    3.6959    0.6400 O   0  0  0  0  0  0  0  0  0  0  0  0
   -0.9796    2.4976    2.5437 N   0  0  0  0  0  0  0  0  0  0  0  0
   -0.8880    1.5698    2.9504 H   0  0  0  0  0  0  0  0  0  0  0  0
   -1.1074    3.6489    3.4312 C   0  0  0  0  0  0  0  0  0  0  0  0
   -2.0556    4.1675    3.2535 H   0  0  0  0  0  0  0  0  0  0  0  0
   -1.0808    3.3269    4.4769 H   0  0  0  0  0  0  0  0  0  0  0  0
   -0.2852    4.3538    3.2673 H   0  0  0  0  0  0  0  0  0  0  0  0
  1  2  1  0  0  0  0
  2  3  1  0  0  0  0
  2  4  1  0  0  0  0
  2  5  1  0  0  0  0
  5  6  2  0  0  0  0
  5  7  1  0  0  0  0
  7  8  1  0  0  0  0
  7  9  1  0  0  0  0
  9 10  1  0  0  0  0
  9 11  1  0  0  0  0
  9 27  1  0  0  0  0
 11 12  1  0  0  0  0
 11 13  1  0  0  0  0
 11 14  1  0  0  0  0
 14 15  1  0  0  0  0
 14 16  1  0  0  0  0
 14 17  1  0  0  0  0
 17 18  1  0  0  0  0
 17 19  1  0  0  0  0
 17 20  1  0  0  0  0
 20 21  1  0  0  0  0
 20 22  1  0  0  0  0
 20 23  1  0  0  0  0
 23 24  1  0  0  0  0
 23 25  1  0  0  0  0
 23 26  1  0  0  0  0
 27 28  2  0  0  0  0
 27 29  1  0  0  0  0
 29 30  1  0  0  0  0
 29 31  1  0  0  0  0
 31 32  1  0  0  0  0
 31 33  1  0  0  0  0
 31 34  1  0  0  0  0
M  CHG  1  23   1
M  END
$$$$

  -OEChem-01062216093D

 34 33  0     1  0  0  0  0  0999 V2000
   -3.6121   -2.2701    1.3595 H   0  0  0  0  0  0  0  0  0  0  0  0
   -3.6672   -1.2598    0.9438 C   0  0  0  0  0  0  0  0  0  0  0  0
   -4.2225   -0.6254    1.6392 H   0  0  0  0  0  0  0  0  0  0  0  0
   -4.2008   -1.2990   -0.0088 H   0  0  0  0  0  0  0  0  0  0  0  0
   -2.2715   -0.7042    0.7366 C   0  0  0  0  0  0  0  0  0  0  0  0
   -1.2931   -1.4043    0.9416 O   0  0  0  0  0  0  0  0  0  0  0  0
   -2.1008    0.5866    0.2791 N   0  0  0  0  0  0  0  0  0  0  0  0
   -2.9441    1.1515    0.1908 H   0  0  0  0  0  0  0  0  0  0  0  0
   -0.8136    1.3024    0.3076 C   0  0  1  0  0  0  0  0  0  0  0  0
   -0.0370    0.6919    0.7809 H   0  0  0  0  0  0  0  0  0  0  0  0
   -0.3646    1.6038   -1.1337 C   0  0  0  0  0  0  0  0  0  0  0  0
   -1.1650    2.1326   -1.6630 H   0  0  0  0  0  0  0  0  0  0  0  0
    0.5073    2.2667   -1.1044 H   0  0  0  0  0  0  0  0  0  0  0  0
    0.0022    0.3155   -1.8860 C   0  0  0  0  0  0  0  0  0  0  0  0
    0.7942   -0.2112   -1.3414 H   0  0  0  0  0  0  0  0  0  0  0  0
   -0.8696   -0.3465   -1.9276 H   0  0  0  0  0  0  0  0  0  0  0  0
    0.4706    0.6342   -3.3088 C   0  0  0  0  0  0  0  0  0  0  0  0
   -0.3225    1.1727   -3.8394 H   0  0  0  0  0  0  0  0  0  0  0  0
    1.3526    1.2828   -3.2661 H   0  0  0  0  0  0  0  0  0  0  0  0
    0.8058   -0.6608   -4.0437 C   0  0  0  0  0  0  0  0  0  0  0  0
    1.5981   -1.1920   -3.4958 H   0  0  0  0  0  0  0  0  0  0  0  0
   -0.0791   -1.3145   -4.0464 H   0  0  0  0  0  0  0  0  0  0  0  0
    1.2329   -0.3361   -5.4217 N   0  3  0  0  0  0  0  0  0  0  0  0
    2.0578    0.2663   -5.3977 H   0  0  0  0  0  0  0  0  0  0  0  0
    1.4624   -1.1928   -5.9298 H   0  0  0  0  0  0  0  0  0  0  0  0
    0.4818    0.1508   -5.9141 H   0  0  0  0  0  0  0  0  0  0  0  0
   -0.9286    2.5826    1.1597 C   0  0  0  0  0  0  0  0  0  0  0  0
   -1.3145    3.6257    0.6500 O   0  0  0  0  0  0  0  0  0  0  0  0
   -0.6589    2.5439    2.5146 N   0  0  0  0  0  0  0  0  0  0  0  0
   -0.4076    1.6464    2.9218 H   0  0  0  0  0  0  0  0  0  0  0  0
   -0.8045    3.7003    3.3931 C   0  0  0  0  0  0  0  0  0  0  0  0
   -1.8435    4.0466    3.4046 H   0  0  0  0  0  0  0  0  0  0  0  0
   -0.5167    3.4387    4.4163 H   0  0  0  0  0  0  0  0  0  0  0  0
   -0.1646    4.5227    3.0556 H   0  0  0  0  0  0  0  0  0  0  0  0
  1  2  1  0  0  0  0
  2  3  1  0  0  0  0
  2  4  1  0  0  0  0
  2  5  1  0  0  0  0
  5  6  2  0  0  0  0
  5  7  1  0  0  0  0
  7  8  1  0  0  0  0
  7  9  1  0  0  0  0
  9 10  1  0  0  0  0
  9 11  1  0  0  0  0
  9 27  1  0  0  0  0
 11 12  1  0  0  0  0
 11 13  1  0  0  0  0
 11 14  1  0  0  0  0
 14 15  1  0  0  0  0
 14 16  1  0  0  0  0
 14 17  1  0  0  0  0
 17 18  1  0  0  0  0
 17 19  1  0  0  0  0
 17 20  1  0  0  0  0
 20 21  1  0  0  0  0
 20 22  1  0  0  0  0
 20 23  1  0  0  0  0
 23 24  1  0  0  0  0
 23 25  1  0  0  0  0
 23 26  1  0  0  0  0
 27 28  2  0  0  0  0
 27 29  1  0  0  0  0
 29 30  1  0  0  0  0
 29 31  1  0  0  0  0
 31 32  1  0  0  0  0
 31 33  1  0  0  0  0
 31 34  1  0  0  0  0
M  CHG  1  23   1
M  END
$$$$

  -OEChem-01062216093D

 34 33  0     1  0  0  0  0  0999 V2000
   -3.6054   -2.2480    1.4101 H   0  0  0  0  0  0  0  0  0  0  0  0
   -3.6633   -1.2505    0.9652 C   0  0  0  0  0  0  0  0  0  0  0  0
   -4.2137   -0.5963    1.6459 H   0  0  0  0  0  0  0  0  0  0  0  0
   -4.2038   -1.3171    0.0181 H   0  0  0  0  0  0  0  0  0  0  0  0
   -2.2687   -0.7029    0.7307 C   0  0  0  0  0  0  0  0  0  0  0  0
   -1.2917   -1.4136    0.9055 O   0  0  0  0  0  0  0  0  0  0  0  0
   -2.0961    0.5869    0.2706 N   0  0  0  0  0  0  0  0  0  0  0  0
   -2.9345    1.1649    0.2239 H   0  0  0  0  0  0  0  0  0  0  0  0
   -0.8055    1.2961    0.3022 C   0  0  1  0  0  0  0  0  0  0  0  0
   -0.0332    0.6798    0.7745 H   0  0  0  0  0  0  0  0  0  0  0  0
   -0.3547    1.6077   -1.1357 C   0  0  0  0  0  0  0  0  0  0  0  0
   -1.1518    2.1450   -1.6617 H   0  0  0  0  0  0  0  0  0  0  0  0
    0.5206    2.2654   -1.1012 H   0  0  0  0  0  0  0  0  0  0  0  0
    0.0047    0.3208   -1.8944 C   0  0  0  0  0  0  0  0  0  0  0  0
    0.7919   -0.2145   -1.3510 H   0  0  0  0  0  0  0  0  0  0  0  0
   -0.8720   -0.3347   -1.9392 H   0  0  0  0  0  0  0  0  0  0  0  0
    0.4767    0.6381   -3.3162 C   0  0  0  0  0  0  0  0  0  0  0  0
   -0.3116    1.1833   -3.8472 H   0  0  0  0  0  0  0  0  0  0  0  0
    1.3639    1.2792   -3.2722 H   0  0  0  0  0  0  0  0  0  0  0  0
    0.8020   -0.6604   -4.0507 C   0  0  0  0  0  0  0  0  0  0  0  0
    1.5887   -1.1992   -3.5018 H   0  0  0  0  0  0  0  0  0  0  0  0
   -0.0886   -1.3062   -4.0536 H   0  0  0  0  0  0  0  0  0  0  0  0
    1.2332   -0.3418   -5.4289 N   0  3  0  0  0  0  0  0  0  0  0  0
    2.0652    0.2510   -5.4057 H   0  0  0  0  0  0  0  0  0  0  0  0
    1.4526   -1.2019   -5.9363 H   0  0  0  0  0  0  0  0  0  0  0  0
    0.4875    0.1532   -5.9218 H   0  0  0  0  0  0  0  0  0  0  0  0
   -0.9192    2.5767    1.1521 C   0  0  0  0  0  0  0  0  0  0  0  0
   -1.5430    3.5349    0.7164 O   0  0  0  0  0  0  0  0  0  0  0  0
   -0.3718    2.6332    2.4200 N   0  0  0  0  0  0  0  0  0  0  0  0
    0.0581    1.7884    2.7884 H   0  0  0  0  0  0  0  0  0  0  0  0
   -0.5030    3.7938    3.2947 C   0  0  0  0  0  0  0  0  0  0  0  0
   -1.5567    3.9875    3.5219 H   0  0  0  0  0  0  0  0  0  0  0  0
    0.0270    3.6212    4.2365 H   0  0  0  0  0  0  0  0  0  0  0  0
   -0.0770    4.6835    2.8186 H   0  0  0  0  0  0  0  0  0  0  0  0
  1  2  1  0  0  0  0
  2  3  1  0  0  0  0
  2  4  1  0  0  0  0
  2  5  1  0  0  0  0
  5  6  2  0  0  0  0
  5  7  1  0  0  0  0
  7  8  1  0  0  0  0
  7  9  1  0  0  0  0
  9 10  1  0  0  0  0
  9 11  1  0  0  0  0
  9 27  1  0  0  0  0
 11 12  1  0  0  0  0
 11 13  1  0  0  0  0
 11 14  1  0  0  0  0
 14 15  1  0  0  0  0
 14 16  1  0  0  0  0
 14 17  1  0  0  0  0
 17 18  1  0  0  0  0
 17 19  1  0  0  0  0
 17 20  1  0  0  0  0
 20 21  1  0  0  0  0
 20 22  1  0  0  0  0
 20 23  1  0  0  0  0
 23 24  1  0  0  0  0
 23 25  1  0  0  0  0
 23 26  1  0  0  0  0
 27 28  2  0  0  0  0
 27 29  1  0  0  0  0
 29 30  1  0  0  0  0
 29 31  1  0  0  0  0
 31 32  1  0  0  0  0
 31 33  1  0  0  0  0
 31 34  1  0  0  0  0
M  CHG  1  23   1
M  END
$$$$

  -OEChem-01062216093D

 34 33  0     1  0  0  0  0  0999 V2000
   -3.6157   -2.2324    1.4126 H   0  0  0  0  0  0  0  0  0  0  0  0
   -3.6622   -1.2187    1.0044 C   0  0  0  0  0  0  0  0  0  0  0  0
   -4.1676   -0.5737    1.7276 H   0  0  0  0  0  0  0  0  0  0  0  0
   -4.2405   -1.2378    0.0776 H   0  0  0  0  0  0  0  0  0  0  0  0
   -2.2632   -0.6993    0.7331 C   0  0  0  0  0  0  0  0  0  0  0  0
   -1.2943   -1.4273    0.8831 O   0  0  0  0  0  0  0  0  0  0  0  0
   -2.0802    0.5845    0.2616 N   0  0  0  0  0  0  0  0  0  0  0  0
   -2.9094    1.1786    0.2495 H   0  0  0  0  0  0  0  0  0  0  0  0
   -0.7847    1.2835    0.2961 C   0  0  1  0  0  0  0  0  0  0  0  0
   -0.0187    0.6635    0.7735 H   0  0  0  0  0  0  0  0  0  0  0  0
   -0.3339    1.5975   -1.1405 C   0  0  0  0  0  0  0  0  0  0  0  0
   -1.1286    2.1429   -1.6619 H   0  0  0  0  0  0  0  0  0  0  0  0
    0.5466    2.2481   -1.1049 H   0  0  0  0  0  0  0  0  0  0  0  0
    0.0146    0.3117   -1.9064 C   0  0  0  0  0  0  0  0  0  0  0  0
    0.7992   -0.2311   -1.3667 H   0  0  0  0  0  0  0  0  0  0  0  0
   -0.8666   -0.3377   -1.9522 H   0  0  0  0  0  0  0  0  0  0  0  0
    0.4865    0.6323   -3.3282 C   0  0  0  0  0  0  0  0  0  0  0  0
   -0.2991    1.1851   -3.8552 H   0  0  0  0  0  0  0  0  0  0  0  0
    1.3783    1.2671   -3.2834 H   0  0  0  0  0  0  0  0  0  0  0  0
    0.8011   -0.6644   -4.0701 C   0  0  0  0  0  0  0  0  0  0  0  0
    1.5857   -1.2105   -3.5256 H   0  0  0  0  0  0  0  0  0  0  0  0
   -0.0938   -1.3042   -4.0743 H   0  0  0  0  0  0  0  0  0  0  0  0
    1.2320   -0.3426   -5.4478 N   0  3  0  0  0  0  0  0  0  0  0  0
    2.0667    0.2462   -5.4234 H   0  0  0  0  0  0  0  0  0  0  0  0
    1.4467   -1.2019   -5.9585 H   0  0  0  0  0  0  0  0  0  0  0  0
    0.4881    0.1576   -5.9384 H   0  0  0  0  0  0  0  0  0  0  0  0
   -0.9031    2.5710    1.1343 C   0  0  0  0  0  0  0  0  0  0  0  0
   -1.7313    3.4129    0.8132 O   0  0  0  0  0  0  0  0  0  0  0  0
   -0.1275    2.7652    2.2621 N   0  0  0  0  0  0  0  0  0  0  0  0
    0.4700    2.0000    2.5637 H   0  0  0  0  0  0  0  0  0  0  0  0
   -0.2752    3.9245    3.1364 C   0  0  0  0  0  0  0  0  0  0  0  0
   -1.2804    3.9517    3.5705 H   0  0  0  0  0  0  0  0  0  0  0  0
    0.4530    3.8807    3.9522 H   0  0  0  0  0  0  0  0  0  0  0  0
   -0.1091    4.8519    2.5776 H   0  0  0  0  0  0  0  0  0  0  0  0
  1  2  1  0  0  0  0
  2  3  1  0  0  0  0
  2  4  1  0  0  0  0
  2  5  1  0  0  0  0
  5  6  2  0  0  0  0
  5  7  1  0  0  0  0
  7  8  1  0  0  0  0
  7  9  1  0  0  0  0
  9 10  1  0  0  0  0
  9 11  1  0  0  0  0
  9 27  1  0  0  0  0
 11 12  1  0  0  0  0
 11 13  1  0  0  0  0
 11 14  1  0  0  0  0
 14 15  1  0  0  0  0
 14 16  1  0  0  0  0
 14 17  1  0  0  0  0
 17 18  1  0  0  0  0
 17 19  1  0  0  0  0
 17 20  1  0  0  0  0
 20 21  1  0  0  0  0
 20 22  1  0  0  0  0
 20 23  1  0  0  0  0
 23 24  1  0  0  0  0
 23 25  1  0  0  0  0
 23 26  1  0  0  0  0
 27 28  2  0  0  0  0
 27 29  1  0  0  0  0
 29 30  1  0  0  0  0
 29 31  1  0  0  0  0
 31 32  1  0  0  0  0
 31 33  1  0  0  0  0
 31 34  1  0  0  0  0
M  CHG  1  23   1
M  END
$$$$

  -OEChem-01062216093D

 34 33  0     1  0  0  0  0  0999 V2000
   -3.5977   -2.2118    1.4649 H   0  0  0  0  0  0  0  0  0  0  0  0
   -3.6561   -1.2132    1.0229 C   0  0  0  0  0  0  0  0  0  0  0  0
   -4.1507   -0.5454    1.7327 H   0  0  0  0  0  0  0  0  0  0  0  0
   -4.2510   -1.2657    0.1080 H   0  0  0  0  0  0  0  0  0  0  0  0
   -2.2644   -0.6990    0.7087 C   0  0  0  0  0  0  0  0  0  0  0  0
   -1.2957   -1.4354    0.8140 O   0  0  0  0  0  0  0  0  0  0  0  0
   -2.0891    0.5865    0.2397 N   0  0  0  0  0  0  0  0  0  0  0  0
   -2.9142    1.1863    0.2794 H   0  0  0  0  0  0  0  0  0  0  0  0
   -0.7951    1.2879    0.2826 C   0  0  1  0  0  0  0  0  0  0  0  0
   -0.0328    0.6669    0.7652 H   0  0  0  0  0  0  0  0  0  0  0  0
   -0.3409    1.6032   -1.1514 C   0  0  0  0  0  0  0  0  0  0  0  0
   -1.1364    2.1459   -1.6744 H   0  0  0  0  0  0  0  0  0  0  0  0
    0.5383    2.2553   -1.1148 H   0  0  0  0  0  0  0  0  0  0  0  0
    0.0118    0.3162   -1.9139 C   0  0  0  0  0  0  0  0  0  0  0  0
    0.7947   -0.2253   -1.3708 H   0  0  0  0  0  0  0  0  0  0  0  0
   -0.8684   -0.3345   -1.9619 H   0  0  0  0  0  0  0  0  0  0  0  0
    0.4878    0.6325   -3.3346 C   0  0  0  0  0  0  0  0  0  0  0  0
   -0.2967    1.1825   -3.8662 H   0  0  0  0  0  0  0  0  0  0  0  0
    1.3792    1.2678   -3.2893 H   0  0  0  0  0  0  0  0  0  0  0  0
    0.8052   -0.6678   -4.0694 C   0  0  0  0  0  0  0  0  0  0  0  0
    1.5878   -1.2114   -3.5194 H   0  0  0  0  0  0  0  0  0  0  0  0
   -0.0897   -1.3079   -4.0733 H   0  0  0  0  0  0  0  0  0  0  0  0
    1.2406   -0.3519   -5.4469 N   0  3  0  0  0  0  0  0  0  0  0  0
    2.0777    0.2334   -5.4226 H   0  0  0  0  0  0  0  0  0  0  0  0
    1.4528   -1.2136   -5.9546 H   0  0  0  0  0  0  0  0  0  0  0  0
    0.4995    0.1497   -5.9401 H   0  0  0  0  0  0  0  0  0  0  0  0
   -0.9142    2.5752    1.1224 C   0  0  0  0  0  0  0  0  0  0  0  0
   -1.8881    3.2994    0.9614 O   0  0  0  0  0  0  0  0  0  0  0  0
    0.0468    2.9132    2.0573 N   0  0  0  0  0  0  0  0  0  0  0  0
    0.7904    2.2441    2.2367 H   0  0  0  0  0  0  0  0  0  0  0  0
   -0.0661    4.0821    2.9244 C   0  0  0  0  0  0  0  0  0  0  0  0
   -0.9578    4.0068    3.5558 H   0  0  0  0  0  0  0  0  0  0  0  0
    0.8116    4.1595    3.5737 H   0  0  0  0  0  0  0  0  0  0  0  0
   -0.1342    4.9987    2.3286 H   0  0  0  0  0  0  0  0  0  0  0  0
  1  2  1  0  0  0  0
  2  3  1  0  0  0  0
  2  4  1  0  0  0  0
  2  5  1  0  0  0  0
  5  6  2  0  0  0  0
  5  7  1  0  0  0  0
  7  8  1  0  0  0  0
  7  9  1  0  0  0  0
  9 10  1  0  0  0  0
  9 11  1  0  0  0  0
  9 27  1  0  0  0  0
 11 12  1  0  0  0  0
 11 13  1  0  0  0  0
 11 14  1  0  0  0  0
 14 15  1  0  0  0  0
 14 16  1  0  0  0  0
 14 17  1  0  0  0  0
 17 18  1  0  0  0  0
 17 19  1  0  0  0  0
 17 20  1  0  0  0  0
 20 21  1  0  0  0  0
 20 22  1  0  0  0  0
 20 23  1  0  0  0  0
 23 24  1  0  0  0  0
 23 25  1  0  0  0  0
 23 26  1  0  0  0  0
 27 28  2  0  0  0  0
 27 29  1  0  0  0  0
 29 30  1  0  0  0  0
 29 31  1  0  0  0  0
 31 32  1  0  0  0  0
 31 33  1  0  0  0  0
 31 34  1  0  0  0  0
M  CHG  1  23   1
M  END
$$$$

  -OEChem-01062216093D

 34 33  0     1  0  0  0  0  0999 V2000
   -3.5792   -2.2004    1.4877 H   0  0  0  0  0  0  0  0  0  0  0  0
   -3.6464   -1.2007    1.0495 C   0  0  0  0  0  0  0  0  0  0  0  0
   -4.1069   -0.5293    1.7788 H   0  0  0  0  0  0  0  0  0  0  0  0
   -4.2774   -1.2469    0.1588 H   0  0  0  0  0  0  0  0  0  0  0  0
   -2.2641   -0.6968    0.6819 C   0  0  0  0  0  0  0  0  0  0  0  0
   -1.2973   -1.4411    0.7442 O   0  0  0  0  0  0  0  0  0  0  0  0
   -2.0977    0.5904    0.2143 N   0  0  0  0  0  0  0  0  0  0  0  0
   -2.9166    1.1932    0.3105 H   0  0  0  0  0  0  0  0  0  0  0  0
   -0.8045    1.2933    0.2667 C   0  0  1  0  0  0  0  0  0  0  0  0
   -0.0456    0.6730    0.7556 H   0  0  0  0  0  0  0  0  0  0  0  0
   -0.3457    1.6098   -1.1659 C   0  0  0  0  0  0  0  0  0  0  0  0
   -1.1402    2.1507   -1.6921 H   0  0  0  0  0  0  0  0  0  0  0  0
    0.5327    2.2628   -1.1275 H   0  0  0  0  0  0  0  0  0  0  0  0
    0.0105    0.3217   -1.9255 C   0  0  0  0  0  0  0  0  0  0  0  0
    0.7914   -0.2181   -1.3776 H   0  0  0  0  0  0  0  0  0  0  0  0
   -0.8693   -0.3294   -1.9753 H   0  0  0  0  0  0  0  0  0  0  0  0
    0.4918    0.6315   -3.3456 C   0  0  0  0  0  0  0  0  0  0  0  0
   -0.2903    1.1794   -3.8828 H   0  0  0  0  0  0  0  0  0  0  0  0
    1.3836    1.2663   -3.3002 H   0  0  0  0  0  0  0  0  0  0  0  0
    0.8105   -0.6736   -4.0714 C   0  0  0  0  0  0  0  0  0  0  0  0
    1.5906   -1.2148   -3.5156 H   0  0  0  0  0  0  0  0  0  0  0  0
   -0.0849   -1.3128   -4.0744 H   0  0  0  0  0  0  0  0  0  0  0  0
    1.2511   -0.3667   -5.4492 N   0  3  0  0  0  0  0  0  0  0  0  0
    2.0894    0.2168   -5.4260 H   0  0  0  0  0  0  0  0  0  0  0  0
    1.4626   -1.2321   -5.9510 H   0  0  0  0  0  0  0  0  0  0  0  0
    0.5125    0.1334   -5.9479 H   0  0  0  0  0  0  0  0  0  0  0  0
   -0.9291    2.5795    1.1088 C   0  0  0  0  0  0  0  0  0  0  0  0
   -1.9989    3.1755    1.1323 O   0  0  0  0  0  0  0  0  0  0  0  0
    0.1488    3.0770    1.8175 N   0  0  0  0  0  0  0  0  0  0  0  0
    0.9927    2.5126    1.8559 H   0  0  0  0  0  0  0  0  0  0  0  0
    0.0558    4.2536    2.6765 C   0  0  0  0  0  0  0  0  0  0  0  0
   -0.6713    4.0881    3.4789 H   0  0  0  0  0  0  0  0  0  0  0  0
    1.0276    4.4706    3.1309 H   0  0  0  0  0  0  0  0  0  0  0  0
   -0.2555    5.1291    2.0965 H   0  0  0  0  0  0  0  0  0  0  0  0
  1  2  1  0  0  0  0
  2  3  1  0  0  0  0
  2  4  1  0  0  0  0
  2  5  1  0  0  0  0
  5  6  2  0  0  0  0
  5  7  1  0  0  0  0
  7  8  1  0  0  0  0
  7  9  1  0  0  0  0
  9 10  1  0  0  0  0
  9 11  1  0  0  0  0
  9 27  1  0  0  0  0
 11 12  1  0  0  0  0
 11 13  1  0  0  0  0
 11 14  1  0  0  0  0
 14 15  1  0  0  0  0
 14 16  1  0  0  0  0
 14 17  1  0  0  0  0
 17 18  1  0  0  0  0
 17 19  1  0  0  0  0
 17 20  1  0  0  0  0
 20 21  1  0  0  0  0
 20 22  1  0  0  0  0
 20 23  1  0  0  0  0
 23 24  1  0  0  0  0
 23 25  1  0  0  0  0
 23 26  1  0  0  0  0
 27 28  2  0  0  0  0
 27 29  1  0  0  0  0
 29 30  1  0  0  0  0
 29 31  1  0  0  0  0
 31 32  1  0  0  0  0
 31 33  1  0  0  0  0
 31 34  1  0  0  0  0
M  CHG  1  23   1
M  END
$$$$

  -OEChem-01062216093D

 34 33  0     1  0  0  0  0  0999 V2000
   -3.5553   -2.1927    1.5051 H   0  0  0  0  0  0  0  0  0  0  0  0
   -3.6349   -1.1953    1.0637 C   0  0  0  0  0  0  0  0  0  0  0  0
   -4.0712   -0.5195    1.8037 H   0  0  0  0  0  0  0  0  0  0  0  0
   -4.2937   -1.2451    0.1935 H   0  0  0  0  0  0  0  0  0  0  0  0
   -2.2642   -0.6949    0.6508 C   0  0  0  0  0  0  0  0  0  0  0  0
   -1.2989   -1.4440    0.6717 O   0  0  0  0  0  0  0  0  0  0  0  0
   -2.1085    0.5958    0.1893 N   0  0  0  0  0  0  0  0  0  0  0  0
   -2.9224    1.1961    0.3350 H   0  0  0  0  0  0  0  0  0  0  0  0
   -0.8164    1.3010    0.2530 C   0  0  1  0  0  0  0  0  0  0  0  0
   -0.0589    0.6816    0.7458 H   0  0  0  0  0  0  0  0  0  0  0  0
   -0.3533    1.6191   -1.1794 C   0  0  0  0  0  0  0  0  0  0  0  0
   -1.1472    2.1580   -1.7087 H   0  0  0  0  0  0  0  0  0  0  0  0
    0.5245    2.2725   -1.1412 H   0  0  0  0  0  0  0  0  0  0  0  0
    0.0067    0.3297   -1.9355 C   0  0  0  0  0  0  0  0  0  0  0  0
    0.7848   -0.2087   -1.3823 H   0  0  0  0  0  0  0  0  0  0  0  0
   -0.8732   -0.3213   -1.9869 H   0  0  0  0  0  0  0  0  0  0  0  0
    0.4932    0.6313   -3.3556 C   0  0  0  0  0  0  0  0  0  0  0  0
   -0.2866    1.1757   -3.8992 H   0  0  0  0  0  0  0  0  0  0  0  0
    1.3856    1.2653   -3.3112 H   0  0  0  0  0  0  0  0  0  0  0  0
    0.8132   -0.6800   -4.0703 C   0  0  0  0  0  0  0  0  0  0  0  0
    1.5896   -1.2186   -3.5069 H   0  0  0  0  0  0  0  0  0  0  0  0
   -0.0833   -1.3177   -4.0717 H   0  0  0  0  0  0  0  0  0  0  0  0
    1.2598   -0.3878   -5.4497 N   0  3  0  0  0  0  0  0  0  0  0  0
    2.0999    0.1933   -5.4297 H   0  0  0  0  0  0  0  0  0  0  0  0
    1.4705   -1.2590   -5.9418 H   0  0  0  0  0  0  0  0  0  0  0  0
    0.5244    0.1092   -5.9562 H   0  0  0  0  0  0  0  0  0  0  0  0
   -0.9452    2.5840    1.1031 C   0  0  0  0  0  0  0  0  0  0  0  0
   -2.0568    3.0474    1.3278 O   0  0  0  0  0  0  0  0  0  0  0  0
    0.1757    3.2481    1.5669 N   0  0  0  0  0  0  0  0  0  0  0  0
    1.0778    2.7979    1.4439 H   0  0  0  0  0  0  0  0  0  0  0  0
    0.0973    4.4379    2.4091 C   0  0  0  0  0  0  0  0  0  0  0  0
   -0.4270    4.2126    3.3440 H   0  0  0  0  0  0  0  0  0  0  0  0
    1.1014    4.7977    2.6540 H   0  0  0  0  0  0  0  0  0  0  0  0
   -0.4386    5.2405    1.8912 H   0  0  0  0  0  0  0  0  0  0  0  0
  1  2  1  0  0  0  0
  2  3  1  0  0  0  0
  2  4  1  0  0  0  0
  2  5  1  0  0  0  0
  5  6  2  0  0  0  0
  5  7  1  0  0  0  0
  7  8  1  0  0  0  0
  7  9  1  0  0  0  0
  9 10  1  0  0  0  0
  9 11  1  0  0  0  0
  9 27  1  0  0  0  0
 11 12  1  0  0  0  0
 11 13  1  0  0  0  0
 11 14  1  0  0  0  0
 14 15  1  0  0  0  0
 14 16  1  0  0  0  0
 14 17  1  0  0  0  0
 17 18  1  0  0  0  0
 17 19  1  0  0  0  0
 17 20  1  0  0  0  0
 20 21  1  0  0  0  0
 20 22  1  0  0  0  0
 20 23  1  0  0  0  0
 23 24  1  0  0  0  0
 23 25  1  0  0  0  0
 23 26  1  0  0  0  0
 27 28  2  0  0  0  0
 27 29  1  0  0  0  0
 29 30  1  0  0  0  0
 29 31  1  0  0  0  0
 31 32  1  0  0  0  0
 31 33  1  0  0  0  0
 31 34  1  0  0  0  0
M  CHG  1  23   1
M  END
$$$$

  -OEChem-01062216093D

 34 33  0     1  0  0  0  0  0999 V2000
   -3.4959   -2.2363    1.4395 H   0  0  0  0  0  0  0  0  0  0  0  0
   -3.5882   -1.1958    1.1155 C   0  0  0  0  0  0  0  0  0  0  0  0
   -3.9246   -0.5935    1.9633 H   0  0  0  0  0  0  0  0  0  0  0  0
   -4.3332   -1.1390    0.3185 H   0  0  0  0  0  0  0  0  0  0  0  0
   -2.2509   -0.6833    0.6166 C   0  0  0  0  0  0  0  0  0  0  0  0
   -1.2883   -1.4323    0.5505 O   0  0  0  0  0  0  0  0  0  0  0  0
   -2.1309    0.6157    0.1660 N   0  0  0  0  0  0  0  0  0  0  0  0
   -2.9355    1.1934    0.4115 H   0  0  0  0  0  0  0  0  0  0  0  0
   -0.8410    1.3274    0.2384 C   0  0  1  0  0  0  0  0  0  0  0  0
   -0.0217    0.6379    0.4690 H   0  0  0  0  0  0  0  0  0  0  0  0
   -0.5713    1.9652   -1.1358 C   0  0  0  0  0  0  0  0  0  0  0  0
   -1.4289    2.5808   -1.4289 H   0  0  0  0  0  0  0  0  0  0  0  0
    0.3028    2.6211   -1.0715 H   0  0  0  0  0  0  0  0  0  0  0  0
   -0.3092    0.8783   -2.1927 C   0  0  0  0  0  0  0  0  0  0  0  0
    0.5378    0.2599   -1.8741 H   0  0  0  0  0  0  0  0  0  0  0  0
   -1.1849    0.2239   -2.2699 H   0  0  0  0  0  0  0  0  0  0  0  0
   -0.0140    1.4934   -3.5642 C   0  0  0  0  0  0  0  0  0  0  0  0
   -0.8609    2.1166   -3.8720 H   0  0  0  0  0  0  0  0  0  0  0  0
    0.8735    2.1320   -3.4964 H   0  0  0  0  0  0  0  0  0  0  0  0
    0.2150    0.3808   -4.5856 C   0  0  0  0  0  0  0  0  0  0  0  0
    1.0617   -0.2413   -4.2590 H   0  0  0  0  0  0  0  0  0  0  0  0
   -0.6712   -0.2707   -4.6136 H   0  0  0  0  0  0  0  0  0  0  0  0
    0.4755    0.9819   -5.9117 N   0  3  0  0  0  0  0  0  0  0  0  0
    1.3050    1.5769   -5.8693 H   0  0  0  0  0  0  0  0  0  0  0  0
    0.6297    0.2471   -6.6058 H   0  0  0  0  0  0  0  0  0  0  0  0
   -0.3245    1.5479   -6.2012 H   0  0  0  0  0  0  0  0  0  0  0  0
   -0.8527    2.3703    1.3809 C   0  0  0  0  0  0  0  0  0  0  0  0
   -1.8936    2.5854    1.9902 O   0  0  0  0  0  0  0  0  0  0  0  0
    0.2539    3.1590    1.6413 N   0  0  0  0  0  0  0  0  0  0  0  0
    1.1275    2.9116    1.1867 H   0  0  0  0  0  0  0  0  0  0  0  0
    0.2816    4.1548    2.7089 C   0  0  0  0  0  0  0  0  0  0  0  0
    0.1264    3.6779    3.6827 H   0  0  0  0  0  0  0  0  0  0  0  0
    1.2479    4.6685    2.7259 H   0  0  0  0  0  0  0  0  0  0  0  0
   -0.5025    4.9045    2.5568 H   0  0  0  0  0  0  0  0  0  0  0  0
  1  2  1  0  0  0  0
  2  3  1  0  0  0  0
  2  4  1  0  0  0  0
  2  5  1  0  0  0  0
  5  6  2  0  0  0  0
  5  7  1  0  0  0  0
  7  8  1  0  0  0  0
  7  9  1  0  0  0  0
  9 10  1  0  0  0  0
  9 11  1  0  0  0  0
  9 27  1  0  0  0  0
 11 12  1  0  0  0  0
 11 13  1  0  0  0  0
 11 14  1  0  0  0  0
 14 15  1  0  0  0  0
 14 16  1  0  0  0  0
 14 17  1  0  0  0  0
 17 18  1  0  0  0  0
 17 19  1  0  0  0  0
 17 20  1  0  0  0  0
 20 21  1  0  0  0  0
 20 22  1  0  0  0  0
 20 23  1  0  0  0  0
 23 24  1  0  0  0  0
 23 25  1  0  0  0  0
 23 26  1  0  0  0  0
 27 28  2  0  0  0  0
 27 29  1  0  0  0  0
 29 30  1  0  0  0  0
 29 31  1  0  0  0  0
 31 32  1  0  0  0  0
 31 33  1  0  0  0  0
 31 34  1  0  0  0  0
M  CHG  1  23   1
M  END
$$$$

  -OEChem-01062216093D

 34 33  0     1  0  0  0  0  0999 V2000
   -3.4647   -2.2288    1.4208 H   0  0  0  0  0  0  0  0  0  0  0  0
   -3.5647   -1.1797    1.1290 C   0  0  0  0  0  0  0  0  0  0  0  0
   -3.8482   -0.5971    2.0095 H   0  0  0  0  0  0  0  0  0  0  0  0
   -4.3516   -1.0961    0.3759 H   0  0  0  0  0  0  0  0  0  0  0  0
   -2.2515   -0.6656    0.5716 C   0  0  0  0  0  0  0  0  0  0  0  0
   -1.2994   -1.4192    0.4362 O   0  0  0  0  0  0  0  0  0  0  0  0
   -2.1450    0.6413    0.1407 N   0  0  0  0  0  0  0  0  0  0  0  0
   -2.9433    1.2082    0.4267 H   0  0  0  0  0  0  0  0  0  0  0  0
   -0.8535    1.3507    0.2194 C   0  0  1  0  0  0  0  0  0  0  0  0
   -0.0356    0.6580    0.4469 H   0  0  0  0  0  0  0  0  0  0  0  0
   -0.5781    1.9846   -1.1573 C   0  0  0  0  0  0  0  0  0  0  0  0
   -1.4334    2.6008   -1.4560 H   0  0  0  0  0  0  0  0  0  0  0  0
    0.2991    2.6361   -1.0976 H   0  0  0  0  0  0  0  0  0  0  0  0
   -0.3147    0.8893   -2.2058 C   0  0  0  0  0  0  0  0  0  0  0  0
    0.5289    0.2709   -1.8784 H   0  0  0  0  0  0  0  0  0  0  0  0
   -1.1920    0.2368   -2.2810 H   0  0  0  0  0  0  0  0  0  0  0  0
   -0.0127    1.4884   -3.5824 C   0  0  0  0  0  0  0  0  0  0  0  0
   -0.8561    2.1107   -3.9012 H   0  0  0  0  0  0  0  0  0  0  0  0
    0.8774    2.1241   -3.5195 H   0  0  0  0  0  0  0  0  0  0  0  0
    0.2156    0.3597   -4.5866 C   0  0  0  0  0  0  0  0  0  0  0  0
    1.0583   -0.2607   -4.2469 H   0  0  0  0  0  0  0  0  0  0  0  0
   -0.6729   -0.2888   -4.6079 H   0  0  0  0  0  0  0  0  0  0  0  0
    0.4835    0.9372   -5.9215 N   0  3  0  0  0  0  0  0  0  0  0  0
    1.3151    1.5298   -5.8859 H   0  0  0  0  0  0  0  0  0  0  0  0
    0.6381    0.1898   -6.6022 H   0  0  0  0  0  0  0  0  0  0  0  0
   -0.3133    1.5008   -6.2243 H   0  0  0  0  0  0  0  0  0  0  0  0
   -0.8615    2.3737    1.3827 C   0  0  0  0  0  0  0  0  0  0  0  0
   -1.8078    2.3935    2.1602 O   0  0  0  0  0  0  0  0  0  0  0  0
    0.0980    3.3663    1.4814 N   0  0  0  0  0  0  0  0  0  0  0  0
    0.9082    3.3046    0.8731 H   0  0  0  0  0  0  0  0  0  0  0  0
    0.1017    4.3620    2.5498 C   0  0  0  0  0  0  0  0  0  0  0  0
    0.1897    3.8763    3.5277 H   0  0  0  0  0  0  0  0  0  0  0  0
    0.9452    5.0486    2.4278 H   0  0  0  0  0  0  0  0  0  0  0  0
   -0.8231    4.9487    2.5321 H   0  0  0  0  0  0  0  0  0  0  0  0
  1  2  1  0  0  0  0
  2  3  1  0  0  0  0
  2  4  1  0  0  0  0
  2  5  1  0  0  0  0
  5  6  2  0  0  0  0
  5  7  1  0  0  0  0
  7  8  1  0  0  0  0
  7  9  1  0  0  0  0
  9 10  1  0  0  0  0
  9 11  1  0  0  0  0
  9 27  1  0  0  0  0
 11 12  1  0  0  0  0
 11 13  1  0  0  0  0
 11 14  1  0  0  0  0
 14 15  1  0  0  0  0
 14 16  1  0  0  0  0
 14 17  1  0  0  0  0
 17 18  1  0  0  0  0
 17 19  1  0  0  0  0
 17 20  1  0  0  0  0
 20 21  1  0  0  0  0
 20 22  1  0  0  0  0
 20 23  1  0  0  0  0
 23 24  1  0  0  0  0
 23 25  1  0  0  0  0
 23 26  1  0  0  0  0
 27 28  2  0  0  0  0
 27 29  1  0  0  0  0
 29 30  1  0  0  0  0
 29 31  1  0  0  0  0
 31 32  1  0  0  0  0
 31 33  1  0  0  0  0
 31 34  1  0  0  0  0
M  CHG  1  23   1
M  END
$$$$

  -OEChem-01062216093D

 34 33  0     1  0  0  0  0  0999 V2000
   -3.4374   -2.2216    1.4046 H   0  0  0  0  0  0  0  0  0  0  0  0
   -3.5442   -1.1665    1.1370 C   0  0  0  0  0  0  0  0  0  0  0  0
   -3.7885   -0.5996    2.0392 H   0  0  0  0  0  0  0  0  0  0  0  0
   -4.3607   -1.0649    0.4184 H   0  0  0  0  0  0  0  0  0  0  0  0
   -2.2523   -0.6462    0.5370 C   0  0  0  0  0  0  0  0  0  0  0  0
   -1.3120   -1.4015    0.3405 O   0  0  0  0  0  0  0  0  0  0  0  0
   -2.1580    0.6675    0.1229 N   0  0  0  0  0  0  0  0  0  0  0  0
   -2.9529    1.2236    0.4357 H   0  0  0  0  0  0  0  0  0  0  0  0
   -0.8649    1.3751    0.1998 C   0  0  1  0  0  0  0  0  0  0  0  0
   -0.0488    0.6793    0.4249 H   0  0  0  0  0  0  0  0  0  0  0  0
   -0.5826    2.0033   -1.1789 C   0  0  0  0  0  0  0  0  0  0  0  0
   -1.4329    2.6228   -1.4846 H   0  0  0  0  0  0  0  0  0  0  0  0
    0.3004    2.6468   -1.1209 H   0  0  0  0  0  0  0  0  0  0  0  0
   -0.3195    0.8985   -2.2180 C   0  0  0  0  0  0  0  0  0  0  0  0
    0.5198    0.2786   -1.8819 H   0  0  0  0  0  0  0  0  0  0  0  0
   -1.1992    0.2488   -2.2911 H   0  0  0  0  0  0  0  0  0  0  0  0
   -0.0093    1.4808   -3.5999 C   0  0  0  0  0  0  0  0  0  0  0  0
   -0.8483    2.1034   -3.9296 H   0  0  0  0  0  0  0  0  0  0  0  0
    0.8840    2.1122   -3.5412 H   0  0  0  0  0  0  0  0  0  0  0  0
    0.2168    0.3368   -4.5871 C   0  0  0  0  0  0  0  0  0  0  0  0
    1.0545   -0.2829   -4.2343 H   0  0  0  0  0  0  0  0  0  0  0  0
   -0.6751   -0.3071   -4.6013 H   0  0  0  0  0  0  0  0  0  0  0  0
    0.4934    0.8912   -5.9301 N   0  3  0  0  0  0  0  0  0  0  0  0
    1.3279    1.4798   -5.9004 H   0  0  0  0  0  0  0  0  0  0  0  0
    0.6477    0.1317   -6.5973 H   0  0  0  0  0  0  0  0  0  0  0  0
   -0.2992    1.4534   -6.2458 H   0  0  0  0  0  0  0  0  0  0  0  0
   -0.8671    2.3797    1.3805 C   0  0  0  0  0  0  0  0  0  0  0  0
   -1.6578    2.2170    2.3008 O   0  0  0  0  0  0  0  0  0  0  0  0
   -0.1230    3.5468    1.3539 N   0  0  0  0  0  0  0  0  0  0  0  0
    0.5490    3.6663    0.6032 H   0  0  0  0  0  0  0  0  0  0  0  0
   -0.1516    4.5331    2.4307 C   0  0  0  0  0  0  0  0  0  0  0  0
    0.1755    4.0818    3.3737 H   0  0  0  0  0  0  0  0  0  0  0  0
    0.5151    5.3694    2.1991 H   0  0  0  0  0  0  0  0  0  0  0  0
   -1.1646    4.9280    2.5641 H   0  0  0  0  0  0  0  0  0  0  0  0
  1  2  1  0  0  0  0
  2  3  1  0  0  0  0
  2  4  1  0  0  0  0
  2  5  1  0  0  0  0
  5  6  2  0  0  0  0
  5  7  1  0  0  0  0
  7  8  1  0  0  0  0
  7  9  1  0  0  0  0
  9 10  1  0  0  0  0
  9 11  1  0  0  0  0
  9 27  1  0  0  0  0
 11 12  1  0  0  0  0
 11 13  1  0  0  0  0
 11 14  1  0  0  0  0
 14 15  1  0  0  0  0
 14 16  1  0  0  0  0
 14 17  1  0  0  0  0
 17 18  1  0  0  0  0
 17 19  1  0  0  0  0
 17 20  1  0  0  0  0
 20 21  1  0  0  0  0
 20 22  1  0  0  0  0
 20 23  1  0  0  0  0
 23 24  1  0  0  0  0
 23 25  1  0  0  0  0
 23 26  1  0  0  0  0
 27 28  2  0  0  0  0
 27 29  1  0  0  0  0
 29 30  1  0  0  0  0
 29 31  1  0  0  0  0
 31 32  1  0  0  0  0
 31 33  1  0  0  0  0
 31 34  1  0  0  0  0
M  CHG  1  23   1
M  END
$$$$

  -OEChem-01062216093D

 34 33  0     1  0  0  0  0  0999 V2000
   -3.4111   -2.2148    1.4087 H   0  0  0  0  0  0  0  0  0  0  0  0
   -3.5317   -1.1612    1.1408 C   0  0  0  0  0  0  0  0  0  0  0  0
   -3.7653   -0.5950    2.0463 H   0  0  0  0  0  0  0  0  0  0  0  0
   -4.3608   -1.0679    0.4359 H   0  0  0  0  0  0  0  0  0  0  0  0
   -2.2545   -0.6318    0.5185 C   0  0  0  0  0  0  0  0  0  0  0  0
   -1.3212   -1.3852    0.2848 O   0  0  0  0  0  0  0  0  0  0  0  0
   -2.1718    0.6863    0.1147 N   0  0  0  0  0  0  0  0  0  0  0  0
   -2.9693    1.2342    0.4325 H   0  0  0  0  0  0  0  0  0  0  0  0
   -0.8794    1.3958    0.1848 C   0  0  1  0  0  0  0  0  0  0  0  0
   -0.0641    0.6984    0.4084 H   0  0  0  0  0  0  0  0  0  0  0  0
   -0.5897    2.0190   -1.1949 C   0  0  0  0  0  0  0  0  0  0  0  0
   -1.4365    2.6390   -1.5090 H   0  0  0  0  0  0  0  0  0  0  0  0
    0.2963    2.6587   -1.1332 H   0  0  0  0  0  0  0  0  0  0  0  0
   -0.3231    0.9064   -2.2256 C   0  0  0  0  0  0  0  0  0  0  0  0
    0.5137    0.2882   -1.8802 H   0  0  0  0  0  0  0  0  0  0  0  0
   -1.2028    0.2565   -2.2965 H   0  0  0  0  0  0  0  0  0  0  0  0
   -0.0046    1.4737   -3.6119 C   0  0  0  0  0  0  0  0  0  0  0  0
   -0.8402    2.0949   -3.9529 H   0  0  0  0  0  0  0  0  0  0  0  0
    0.8901    2.1033   -3.5556 H   0  0  0  0  0  0  0  0  0  0  0  0
    0.2236    0.3181   -4.5858 C   0  0  0  0  0  0  0  0  0  0  0  0
    1.0582   -0.3000   -4.2224 H   0  0  0  0  0  0  0  0  0  0  0  0
   -0.6690   -0.3249   -4.5975 H   0  0  0  0  0  0  0  0  0  0  0  0
    0.5081    0.8578   -5.9333 N   0  3  0  0  0  0  0  0  0  0  0  0
    1.3454    1.4428   -5.9065 H   0  0  0  0  0  0  0  0  0  0  0  0
    0.6609    0.0909   -6.5923 H   0  0  0  0  0  0  0  0  0  0  0  0
   -0.2805    1.4204   -6.2579 H   0  0  0  0  0  0  0  0  0  0  0  0
   -0.8736    2.3878    1.3748 C   0  0  0  0  0  0  0  0  0  0  0  0
   -1.4504    2.0759    2.4071 O   0  0  0  0  0  0  0  0  0  0  0  0
   -0.3959    3.6819    1.2567 N   0  0  0  0  0  0  0  0  0  0  0  0
    0.0654    3.9443    0.3924 H   0  0  0  0  0  0  0  0  0  0  0  0
   -0.4542    4.6552    2.3440 C   0  0  0  0  0  0  0  0  0  0  0  0
    0.0925    4.2867    3.2190 H   0  0  0  0  0  0  0  0  0  0  0  0
   -0.0047    5.6029    2.0314 H   0  0  0  0  0  0  0  0  0  0  0  0
   -1.4933    4.8453    2.6343 H   0  0  0  0  0  0  0  0  0  0  0  0
  1  2  1  0  0  0  0
  2  3  1  0  0  0  0
  2  4  1  0  0  0  0
  2  5  1  0  0  0  0
  5  6  2  0  0  0  0
  5  7  1  0  0  0  0
  7  8  1  0  0  0  0
  7  9  1  0  0  0  0
  9 10  1  0  0  0  0
  9 11  1  0  0  0  0
  9 27  1  0  0  0  0
 11 12  1  0  0  0  0
 11 13  1  0  0  0  0
 11 14  1  0  0  0  0
 14 15  1  0  0  0  0
 14 16  1  0  0  0  0
 14 17  1  0  0  0  0
 17 18  1  0  0  0  0
 17 19  1  0  0  0  0
 17 20  1  0  0  0  0
 20 21  1  0  0  0  0
 20 22  1  0  0  0  0
 20 23  1  0  0  0  0
 23 24  1  0  0  0  0
 23 25  1  0  0  0  0
 23 26  1  0  0  0  0
 27 28  2  0  0  0  0
 27 29  1  0  0  0  0
 29 30  1  0  0  0  0
 29 31  1  0  0  0  0
 31 32  1  0  0  0  0
 31 33  1  0  0  0  0
 31 34  1  0  0  0  0
M  CHG  1  23   1
M  END
$$$$

  -OEChem-01062216093D

 34 33  0     1  0  0  0  0  0999 V2000
   -3.4123   -2.2245    1.3778 H   0  0  0  0  0  0  0  0  0  0  0  0
   -3.5242   -1.1599    1.1529 C   0  0  0  0  0  0  0  0  0  0  0  0
   -3.7172   -0.6242    2.0861 H   0  0  0  0  0  0  0  0  0  0  0  0
   -4.3755   -1.0283    0.4811 H   0  0  0  0  0  0  0  0  0  0  0  0
   -2.2594   -0.6269    0.5083 C   0  0  0  0  0  0  0  0  0  0  0  0
   -1.3313   -1.3791    0.2516 O   0  0  0  0  0  0  0  0  0  0  0  0
   -2.1843    0.6935    0.1095 N   0  0  0  0  0  0  0  0  0  0  0  0
   -2.9864    1.2364    0.4227 H   0  0  0  0  0  0  0  0  0  0  0  0
   -0.8937    1.4068    0.1732 C   0  0  1  0  0  0  0  0  0  0  0  0
   -0.0778    0.7093    0.3957 H   0  0  0  0  0  0  0  0  0  0  0  0
   -0.5967    2.0294   -1.2043 C   0  0  0  0  0  0  0  0  0  0  0  0
   -1.4427    2.6464   -1.5262 H   0  0  0  0  0  0  0  0  0  0  0  0
    0.2878    2.6712   -1.1345 H   0  0  0  0  0  0  0  0  0  0  0  0
   -0.3245    0.9140   -2.2296 C   0  0  0  0  0  0  0  0  0  0  0  0
    0.5098    0.2967   -1.8766 H   0  0  0  0  0  0  0  0  0  0  0  0
   -1.2044    0.2650   -2.3033 H   0  0  0  0  0  0  0  0  0  0  0  0
    0.0025    1.4745   -3.6162 C   0  0  0  0  0  0  0  0  0  0  0  0
   -0.8305    2.0944   -3.9654 H   0  0  0  0  0  0  0  0  0  0  0  0
    0.8976    2.1033   -3.5572 H   0  0  0  0  0  0  0  0  0  0  0  0
    0.2353    0.3122   -4.5811 C   0  0  0  0  0  0  0  0  0  0  0  0
    1.0672   -0.3036   -4.2077 H   0  0  0  0  0  0  0  0  0  0  0  0
   -0.6585   -0.3296   -4.5931 H   0  0  0  0  0  0  0  0  0  0  0  0
    0.5287    0.8401   -5.9310 N   0  3  0  0  0  0  0  0  0  0  0  0
    1.3697    1.4196   -5.9045 H   0  0  0  0  0  0  0  0  0  0  0  0
    0.6796    0.0674   -6.5836 H   0  0  0  0  0  0  0  0  0  0  0  0
   -0.2548    1.4053   -6.2630 H   0  0  0  0  0  0  0  0  0  0  0  0
   -0.8813    2.3924    1.3652 C   0  0  0  0  0  0  0  0  0  0  0  0
   -1.2099    1.9850    2.4692 O   0  0  0  0  0  0  0  0  0  0  0  0
   -0.7020    3.7542    1.1924 N   0  0  0  0  0  0  0  0  0  0  0  0
   -0.4806    4.0931    0.2623 H   0  0  0  0  0  0  0  0  0  0  0  0
   -0.7968    4.7162    2.2869 C   0  0  0  0  0  0  0  0  0  0  0  0
   -0.0714    4.4774    3.0723 H   0  0  0  0  0  0  0  0  0  0  0  0
   -0.5898    5.7277    1.9241 H   0  0  0  0  0  0  0  0  0  0  0  0
   -1.8018    4.7050    2.7226 H   0  0  0  0  0  0  0  0  0  0  0  0
  1  2  1  0  0  0  0
  2  3  1  0  0  0  0
  2  4  1  0  0  0  0
  2  5  1  0  0  0  0
  5  6  2  0  0  0  0
  5  7  1  0  0  0  0
  7  8  1  0  0  0  0
  7  9  1  0  0  0  0
  9 10  1  0  0  0  0
  9 11  1  0  0  0  0
  9 27  1  0  0  0  0
 11 12  1  0  0  0  0
 11 13  1  0  0  0  0
 11 14  1  0  0  0  0
 14 15  1  0  0  0  0
 14 16  1  0  0  0  0
 14 17  1  0  0  0  0
 17 18  1  0  0  0  0
 17 19  1  0  0  0  0
 17 20  1  0  0  0  0
 20 21  1  0  0  0  0
 20 22  1  0  0  0  0
 20 23  1  0  0  0  0
 23 24  1  0  0  0  0
 23 25  1  0  0  0  0
 23 26  1  0  0  0  0
 27 28  2  0  0  0  0
 27 29  1  0  0  0  0
 29 30  1  0  0  0  0
 29 31  1  0  0  0  0
 31 32  1  0  0  0  0
 31 33  1  0  0  0  0
 31 34  1  0  0  0  0
M  CHG  1  23   1
M  END
$$$$

  -OEChem-01062216093D

 34 33  0     1  0  0  0  0  0999 V2000
   -3.4245   -2.2382    1.3592 H   0  0  0  0  0  0  0  0  0  0  0  0
   -3.5362   -1.1731    1.1368 C   0  0  0  0  0  0  0  0  0  0  0  0
   -3.7566   -0.6432    2.0671 H   0  0  0  0  0  0  0  0  0  0  0  0
   -4.3704   -1.0431    0.4436 H   0  0  0  0  0  0  0  0  0  0  0  0
   -2.2583   -0.6312    0.5267 C   0  0  0  0  0  0  0  0  0  0  0  0
   -1.3223   -1.3789    0.2881 O   0  0  0  0  0  0  0  0  0  0  0  0
   -2.1860    0.6879    0.1220 N   0  0  0  0  0  0  0  0  0  0  0  0
   -3.0002    1.2295    0.4027 H   0  0  0  0  0  0  0  0  0  0  0  0
   -0.9004    1.4098    0.1778 C   0  0  1  0  0  0  0  0  0  0  0  0
   -0.0807    0.7166    0.4019 H   0  0  0  0  0  0  0  0  0  0  0  0
   -0.6039    2.0305   -1.1995 C   0  0  0  0  0  0  0  0  0  0  0  0
   -1.4529    2.6403   -1.5258 H   0  0  0  0  0  0  0  0  0  0  0  0
    0.2752    2.6798   -1.1251 H   0  0  0  0  0  0  0  0  0  0  0  0
   -0.3237    0.9151   -2.2227 C   0  0  0  0  0  0  0  0  0  0  0  0
    0.5138    0.3032   -1.8674 H   0  0  0  0  0  0  0  0  0  0  0  0
   -1.1998    0.2609   -2.2969 H   0  0  0  0  0  0  0  0  0  0  0  0
    0.0033    1.4767   -3.6090 C   0  0  0  0  0  0  0  0  0  0  0  0
   -0.8314    2.0927   -3.9606 H   0  0  0  0  0  0  0  0  0  0  0  0
    0.8951    2.1100   -3.5483 H   0  0  0  0  0  0  0  0  0  0  0  0
    0.2444    0.3155   -4.5730 C   0  0  0  0  0  0  0  0  0  0  0  0
    1.0776   -0.2975   -4.1977 H   0  0  0  0  0  0  0  0  0  0  0  0
   -0.6465   -0.3300   -4.5882 H   0  0  0  0  0  0  0  0  0  0  0  0
    0.5383    0.8447   -5.9225 N   0  3  0  0  0  0  0  0  0  0  0  0
    1.3761    1.4287   -5.8938 H   0  0  0  0  0  0  0  0  0  0  0  0
    0.6955    0.0726   -6.5744 H   0  0  0  0  0  0  0  0  0  0  0  0
   -0.2470    1.4056   -6.2574 H   0  0  0  0  0  0  0  0  0  0  0  0
   -0.8852    2.4025    1.3613 C   0  0  0  0  0  0  0  0  0  0  0  0
   -0.9268    1.9666    2.5008 O   0  0  0  0  0  0  0  0  0  0  0  0
   -1.0203    3.7666    1.1678 N   0  0  0  0  0  0  0  0  0  0  0  0
   -1.0516    4.1130    0.2147 H   0  0  0  0  0  0  0  0  0  0  0  0
   -1.1363    4.7202    2.2678 C   0  0  0  0  0  0  0  0  0  0  0  0
   -0.2584    4.6632    2.9205 H   0  0  0  0  0  0  0  0  0  0  0  0
   -1.2112    5.7411    1.8808 H   0  0  0  0  0  0  0  0  0  0  0  0
   -2.0309    4.5112    2.8645 H   0  0  0  0  0  0  0  0  0  0  0  0
  1  2  1  0  0  0  0
  2  3  1  0  0  0  0
  2  4  1  0  0  0  0
  2  5  1  0  0  0  0
  5  6  2  0  0  0  0
  5  7  1  0  0  0  0
  7  8  1  0  0  0  0
  7  9  1  0  0  0  0
  9 10  1  0  0  0  0
  9 11  1  0  0  0  0
  9 27  1  0  0  0  0
 11 12  1  0  0  0  0
 11 13  1  0  0  0  0
 11 14  1  0  0  0  0
 14 15  1  0  0  0  0
 14 16  1  0  0  0  0
 14 17  1  0  0  0  0
 17 18  1  0  0  0  0
 17 19  1  0  0  0  0
 17 20  1  0  0  0  0
 20 21  1  0  0  0  0
 20 22  1  0  0  0  0
 20 23  1  0  0  0  0
 23 24  1  0  0  0  0
 23 25  1  0  0  0  0
 23 26  1  0  0  0  0
 27 28  2  0  0  0  0
 27 29  1  0  0  0  0
 29 30  1  0  0  0  0
 29 31  1  0  0  0  0
 31 32  1  0  0  0  0
 31 33  1  0  0  0  0
 31 34  1  0  0  0  0
M  CHG  1  23   1
M  END
$$$$

  -OEChem-01062216093D

 34 33  0     1  0  0  0  0  0999 V2000
   -3.4395   -2.2590    1.3593 H   0  0  0  0  0  0  0  0  0  0  0  0
   -3.5596   -1.2003    1.1121 C   0  0  0  0  0  0  0  0  0  0  0  0
   -3.8301   -0.6586    2.0221 H   0  0  0  0  0  0  0  0  0  0  0  0
   -4.3650   -1.0988    0.3809 H   0  0  0  0  0  0  0  0  0  0  0  0
   -2.2654   -0.6470    0.5471 C   0  0  0  0  0  0  0  0  0  0  0  0
   -1.3141   -1.3862    0.3499 O   0  0  0  0  0  0  0  0  0  0  0  0
   -2.1946    0.6706    0.1359 N   0  0  0  0  0  0  0  0  0  0  0  0
   -3.0234    1.2084    0.3766 H   0  0  0  0  0  0  0  0  0  0  0  0
   -0.9166    1.4072    0.1855 C   0  0  1  0  0  0  0  0  0  0  0  0
   -0.0912    0.7202    0.4087 H   0  0  0  0  0  0  0  0  0  0  0  0
   -0.6211    2.0302   -1.1899 C   0  0  0  0  0  0  0  0  0  0  0  0
   -1.4742    2.6312   -1.5212 H   0  0  0  0  0  0  0  0  0  0  0  0
    0.2502    2.6896   -1.1100 H   0  0  0  0  0  0  0  0  0  0  0  0
   -0.3266    0.9178   -2.2112 C   0  0  0  0  0  0  0  0  0  0  0  0
    0.5156    0.3137   -1.8533 H   0  0  0  0  0  0  0  0  0  0  0  0
   -1.1961    0.2552   -2.2886 H   0  0  0  0  0  0  0  0  0  0  0  0
    0.0001    1.4845   -3.5950 C   0  0  0  0  0  0  0  0  0  0  0  0
   -0.8397    2.0924   -3.9488 H   0  0  0  0  0  0  0  0  0  0  0  0
    0.8854    2.1264   -3.5293 H   0  0  0  0  0  0  0  0  0  0  0  0
    0.2564    0.3274   -4.5591 C   0  0  0  0  0  0  0  0  0  0  0  0
    1.0952   -0.2767   -4.1817 H   0  0  0  0  0  0  0  0  0  0  0  0
   -0.6272   -0.3277   -4.5785 H   0  0  0  0  0  0  0  0  0  0  0  0
    0.5498    0.8638   -5.9056 N   0  3  0  0  0  0  0  0  0  0  0  0
    1.3815    1.4566   -5.8714 H   0  0  0  0  0  0  0  0  0  0  0  0
    0.7178    0.0957   -6.5594 H   0  0  0  0  0  0  0  0  0  0  0  0
   -0.2400    1.4178   -6.2413 H   0  0  0  0  0  0  0  0  0  0  0  0
   -0.8988    2.4108    1.3576 C   0  0  0  0  0  0  0  0  0  0  0  0
   -0.6117    2.0224    2.4780 O   0  0  0  0  0  0  0  0  0  0  0  0
   -1.3437    3.7111    1.1934 N   0  0  0  0  0  0  0  0  0  0  0  0
   -1.6198    4.0077    0.2632 H   0  0  0  0  0  0  0  0  0  0  0  0
   -1.4422    4.6631    2.2963 C   0  0  0  0  0  0  0  0  0  0  0  0
   -0.4603    4.8228    2.7548 H   0  0  0  0  0  0  0  0  0  0  0  0
   -1.8155    5.6268    1.9362 H   0  0  0  0  0  0  0  0  0  0  0  0
   -2.1304    4.2922    3.0635 H   0  0  0  0  0  0  0  0  0  0  0  0
  1  2  1  0  0  0  0
  2  3  1  0  0  0  0
  2  4  1  0  0  0  0
  2  5  1  0  0  0  0
  5  6  2  0  0  0  0
  5  7  1  0  0  0  0
  7  8  1  0  0  0  0
  7  9  1  0  0  0  0
  9 10  1  0  0  0  0
  9 11  1  0  0  0  0
  9 27  1  0  0  0  0
 11 12  1  0  0  0  0
 11 13  1  0  0  0  0
 11 14  1  0  0  0  0
 14 15  1  0  0  0  0
 14 16  1  0  0  0  0
 14 17  1  0  0  0  0
 17 18  1  0  0  0  0
 17 19  1  0  0  0  0
 17 20  1  0  0  0  0
 20 21  1  0  0  0  0
 20 22  1  0  0  0  0
 20 23  1  0  0  0  0
 23 24  1  0  0  0  0
 23 25  1  0  0  0  0
 23 26  1  0  0  0  0
 27 28  2  0  0  0  0
 27 29  1  0  0  0  0
 29 30  1  0  0  0  0
 29 31  1  0  0  0  0
 31 32  1  0  0  0  0
 31 33  1  0  0  0  0
 31 34  1  0  0  0  0
M  CHG  1  23   1
M  END
$$$$

  -OEChem-01062216093D

 34 33  0     1  0  0  0  0  0999 V2000
   -3.4637   -2.2965    1.3483 H   0  0  0  0  0  0  0  0  0  0  0  0
   -3.5899   -1.2436    1.0796 C   0  0  0  0  0  0  0  0  0  0  0  0
   -3.9154   -0.6943    1.9665 H   0  0  0  0  0  0  0  0  0  0  0  0
   -4.3592   -1.1668    0.3077 H   0  0  0  0  0  0  0  0  0  0  0  0
   -2.2788   -0.6759    0.5703 C   0  0  0  0  0  0  0  0  0  0  0  0
   -1.3114   -1.4040    0.4215 O   0  0  0  0  0  0  0  0  0  0  0  0
   -2.2090    0.6402    0.1537 N   0  0  0  0  0  0  0  0  0  0  0  0
   -3.0515    1.1719    0.3558 H   0  0  0  0  0  0  0  0  0  0  0  0
   -0.9388    1.3917    0.2033 C   0  0  1  0  0  0  0  0  0  0  0  0
   -0.1083    0.7108    0.4269 H   0  0  0  0  0  0  0  0  0  0  0  0
   -0.6437    2.0194   -1.1687 C   0  0  0  0  0  0  0  0  0  0  0  0
   -1.5006    2.6141   -1.5013 H   0  0  0  0  0  0  0  0  0  0  0  0
    0.2200    2.6879   -1.0817 H   0  0  0  0  0  0  0  0  0  0  0  0
   -0.3327    0.9147   -2.1931 C   0  0  0  0  0  0  0  0  0  0  0  0
    0.5163    0.3203   -1.8352 H   0  0  0  0  0  0  0  0  0  0  0  0
   -1.1937    0.2421   -2.2770 H   0  0  0  0  0  0  0  0  0  0  0  0
   -0.0067    1.4947   -3.5716 C   0  0  0  0  0  0  0  0  0  0  0  0
   -0.8516    2.0961   -3.9247 H   0  0  0  0  0  0  0  0  0  0  0  0
    0.8704    2.1470   -3.4975 H   0  0  0  0  0  0  0  0  0  0  0  0
    0.2678    0.3491   -4.5446 C   0  0  0  0  0  0  0  0  0  0  0  0
    1.1124   -0.2476   -4.1685 H   0  0  0  0  0  0  0  0  0  0  0  0
   -0.6074   -0.3167   -4.5739 H   0  0  0  0  0  0  0  0  0  0  0  0
    0.5605    0.9009   -5.8851 N   0  3  0  0  0  0  0  0  0  0  0  0
    1.3848    1.5034   -5.8417 H   0  0  0  0  0  0  0  0  0  0  0  0
    0.7409    0.1406   -6.5448 H   0  0  0  0  0  0  0  0  0  0  0  0
   -0.2342    1.4485   -6.2198 H   0  0  0  0  0  0  0  0  0  0  0  0
   -0.9231    2.4066    1.3644 C   0  0  0  0  0  0  0  0  0  0  0  0
   -0.3057    2.1566    2.3864 O   0  0  0  0  0  0  0  0  0  0  0  0
   -1.6472    3.5834    1.2830 N   0  0  0  0  0  0  0  0  0  0  0  0
   -2.1438    3.7802    0.4204 H   0  0  0  0  0  0  0  0  0  0  0  0
   -1.6927    4.5648    2.3632 C   0  0  0  0  0  0  0  0  0  0  0  0
   -0.6904    4.9553    2.5698 H   0  0  0  0  0  0  0  0  0  0  0  0
   -2.3401    5.4034    2.0891 H   0  0  0  0  0  0  0  0  0  0  0  0
   -2.0872    4.1107    3.2788 H   0  0  0  0  0  0  0  0  0  0  0  0
  1  2  1  0  0  0  0
  2  3  1  0  0  0  0
  2  4  1  0  0  0  0
  2  5  1  0  0  0  0
  5  6  2  0  0  0  0
  5  7  1  0  0  0  0
  7  8  1  0  0  0  0
  7  9  1  0  0  0  0
  9 10  1  0  0  0  0
  9 11  1  0  0  0  0
  9 27  1  0  0  0  0
 11 12  1  0  0  0  0
 11 13  1  0  0  0  0
 11 14  1  0  0  0  0
 14 15  1  0  0  0  0
 14 16  1  0  0  0  0
 14 17  1  0  0  0  0
 17 18  1  0  0  0  0
 17 19  1  0  0  0  0
 17 20  1  0  0  0  0
 20 21  1  0  0  0  0
 20 22  1  0  0  0  0
 20 23  1  0  0  0  0
 23 24  1  0  0  0  0
 23 25  1  0  0  0  0
 23 26  1  0  0  0  0
 27 28  2  0  0  0  0
 27 29  1  0  0  0  0
 29 30  1  0  0  0  0
 29 31  1  0  0  0  0
 31 32  1  0  0  0  0
 31 33  1  0  0  0  0
 31 34  1  0  0  0  0
M  CHG  1  23   1
M  END
$$$$

  -OEChem-01062216093D

 34 33  0     1  0  0  0  0  0999 V2000
   -3.4848   -2.3248    1.4005 H   0  0  0  0  0  0  0  0  0  0  0  0
   -3.6270   -1.3023    1.0386 C   0  0  0  0  0  0  0  0  0  0  0  0
   -4.0546   -0.7039    1.8468 H   0  0  0  0  0  0  0  0  0  0  0  0
   -4.3236   -1.3203    0.1974 H   0  0  0  0  0  0  0  0  0  0  0  0
   -2.2982   -0.7150    0.6032 C   0  0  0  0  0  0  0  0  0  0  0  0
   -1.3097   -1.4258    0.5376 O   0  0  0  0  0  0  0  0  0  0  0  0
   -2.2265    0.5993    0.1795 N   0  0  0  0  0  0  0  0  0  0  0  0
   -3.0853    1.1236    0.3193 H   0  0  0  0  0  0  0  0  0  0  0  0
   -0.9622    1.3642    0.2262 C   0  0  1  0  0  0  0  0  0  0  0  0
   -0.1282    0.6874    0.4497 H   0  0  0  0  0  0  0  0  0  0  0  0
   -0.6667    1.9987   -1.1416 C   0  0  0  0  0  0  0  0  0  0  0  0
   -1.5263    2.5903   -1.4723 H   0  0  0  0  0  0  0  0  0  0  0  0
    0.1915    2.6734   -1.0466 H   0  0  0  0  0  0  0  0  0  0  0  0
   -0.3422    0.9058   -2.1737 C   0  0  0  0  0  0  0  0  0  0  0  0
    0.5099    0.3148   -1.8178 H   0  0  0  0  0  0  0  0  0  0  0  0
   -1.1977    0.2278   -2.2675 H   0  0  0  0  0  0  0  0  0  0  0  0
   -0.0161    1.5043   -3.5453 C   0  0  0  0  0  0  0  0  0  0  0  0
   -0.8645    2.1029   -3.8943 H   0  0  0  0  0  0  0  0  0  0  0  0
    0.8551    2.1632   -3.4586 H   0  0  0  0  0  0  0  0  0  0  0  0
    0.2738    0.3760   -4.5341 C   0  0  0  0  0  0  0  0  0  0  0  0
    1.1236   -0.2170   -4.1640 H   0  0  0  0  0  0  0  0  0  0  0  0
   -0.5940   -0.2988   -4.5778 H   0  0  0  0  0  0  0  0  0  0  0  0
    0.5657    0.9530   -5.8640 N   0  3  0  0  0  0  0  0  0  0  0  0
    1.3717    1.5782   -5.8023 H   0  0  0  0  0  0  0  0  0  0  0  0
    0.7759    0.2073   -6.5313 H   0  0  0  0  0  0  0  0  0  0  0  0
   -0.2402    1.4823   -6.2011 H   0  0  0  0  0  0  0  0  0  0  0  0
   -0.9383    2.3938    1.3744 C   0  0  0  0  0  0  0  0  0  0  0  0
   -0.0476    2.3573    2.2076 O   0  0  0  0  0  0  0  0  0  0  0  0
   -1.8806    3.4062    1.4376 N   0  0  0  0  0  0  0  0  0  0  0  0
   -2.5614    3.4737    0.6889 H   0  0  0  0  0  0  0  0  0  0  0  0
   -1.8729    4.4318    2.4773 C   0  0  0  0  0  0  0  0  0  0  0  0
   -0.9631    5.0384    2.4126 H   0  0  0  0  0  0  0  0  0  0  0  0
   -2.7381    5.0931    2.3676 H   0  0  0  0  0  0  0  0  0  0  0  0
   -1.9169    3.9722    3.4708 H   0  0  0  0  0  0  0  0  0  0  0  0
  1  2  1  0  0  0  0
  2  3  1  0  0  0  0
  2  4  1  0  0  0  0
  2  5  1  0  0  0  0
  5  6  2  0  0  0  0
  5  7  1  0  0  0  0
  7  8  1  0  0  0  0
  7  9  1  0  0  0  0
  9 10  1  0  0  0  0
  9 11  1  0  0  0  0
  9 27  1  0  0  0  0
 11 12  1  0  0  0  0
 11 13  1  0  0  0  0
 11 14  1  0  0  0  0
 14 15  1  0  0  0  0
 14 16  1  0  0  0  0
 14 17  1  0  0  0  0
 17 18  1  0  0  0  0
 17 19  1  0  0  0  0
 17 20  1  0  0  0  0
 20 21  1  0  0  0  0
 20 22  1  0  0  0  0
 20 23  1  0  0  0  0
 23 24  1  0  0  0  0
 23 25  1  0  0  0  0
 23 26  1  0  0  0  0
 27 28  2  0  0  0  0
 27 29  1  0  0  0  0
 29 30  1  0  0  0  0
 29 31  1  0  0  0  0
 31 32  1  0  0  0  0
 31 33  1  0  0  0  0
 31 34  1  0  0  0  0
M  CHG  1  23   1
M  END
$$$$

  -OEChem-01062216093D

 34 33  0     1  0  0  0  0  0999 V2000
   -3.5240   -2.3848    1.3141 H   0  0  0  0  0  0  0  0  0  0  0  0
   -3.6534   -1.3558    0.9655 C   0  0  0  0  0  0  0  0  0  0  0  0
   -4.1424   -0.7798    1.7549 H   0  0  0  0  0  0  0  0  0  0  0  0
   -4.2910   -1.3627    0.0785 H   0  0  0  0  0  0  0  0  0  0  0  0
   -2.3053   -0.7445    0.6352 C   0  0  0  0  0  0  0  0  0  0  0  0
   -1.2989   -1.4302    0.6780 O   0  0  0  0  0  0  0  0  0  0  0  0
   -2.2291    0.5683    0.2078 N   0  0  0  0  0  0  0  0  0  0  0  0
   -3.1064    1.0776    0.2398 H   0  0  0  0  0  0  0  0  0  0  0  0
   -0.9745    1.3512    0.2497 C   0  0  1  0  0  0  0  0  0  0  0  0
   -0.1347    0.6822    0.4727 H   0  0  0  0  0  0  0  0  0  0  0  0
   -0.6878    1.9839   -1.1207 C   0  0  0  0  0  0  0  0  0  0  0  0
   -1.5551    2.5652   -1.4505 H   0  0  0  0  0  0  0  0  0  0  0  0
    0.1608    2.6711   -1.0282 H   0  0  0  0  0  0  0  0  0  0  0  0
   -0.3476    0.8964   -2.1528 C   0  0  0  0  0  0  0  0  0  0  0  0
    0.5149    0.3200   -1.7982 H   0  0  0  0  0  0  0  0  0  0  0  0
   -1.1922    0.2049   -2.2468 H   0  0  0  0  0  0  0  0  0  0  0  0
   -0.0320    1.5059   -3.5220 C   0  0  0  0  0  0  0  0  0  0  0  0
   -0.8909    2.0914   -3.8675 H   0  0  0  0  0  0  0  0  0  0  0  0
    0.8272    2.1800   -3.4327 H   0  0  0  0  0  0  0  0  0  0  0  0
    0.2761    0.3890   -4.5175 C   0  0  0  0  0  0  0  0  0  0  0  0
    1.1367   -0.1909   -4.1515 H   0  0  0  0  0  0  0  0  0  0  0  0
   -0.5799   -0.3004   -4.5651 H   0  0  0  0  0  0  0  0  0  0  0  0
    0.5573    0.9805   -5.8436 N   0  3  0  0  0  0  0  0  0  0  0  0
    1.3495    1.6227   -5.7767 H   0  0  0  0  0  0  0  0  0  0  0  0
    0.7848    0.2439   -6.5153 H   0  0  0  0  0  0  0  0  0  0  0  0
   -0.2592    1.4948   -6.1785 H   0  0  0  0  0  0  0  0  0  0  0  0
   -0.9340    2.3977    1.3825 C   0  0  0  0  0  0  0  0  0  0  0  0
    0.1169    2.6024    1.9691 O   0  0  0  0  0  0  0  0  0  0  0  0
   -2.0177    3.2192    1.6436 N   0  0  0  0  0  0  0  0  0  0  0  0
   -2.8598    3.0941    1.0941 H   0  0  0  0  0  0  0  0  0  0  0  0
   -1.9898    4.2671    2.6604 C   0  0  0  0  0  0  0  0  0  0  0  0
   -1.2422    5.0273    2.4091 H   0  0  0  0  0  0  0  0  0  0  0  0
   -2.9669    4.7544    2.7336 H   0  0  0  0  0  0  0  0  0  0  0  0
   -1.7429    3.8443    3.6406 H   0  0  0  0  0  0  0  0  0  0  0  0
  1  2  1  0  0  0  0
  2  3  1  0  0  0  0
  2  4  1  0  0  0  0
  2  5  1  0  0  0  0
  5  6  2  0  0  0  0
  5  7  1  0  0  0  0
  7  8  1  0  0  0  0
  7  9  1  0  0  0  0
  9 10  1  0  0  0  0
  9 11  1  0  0  0  0
  9 27  1  0  0  0  0
 11 12  1  0  0  0  0
 11 13  1  0  0  0  0
 11 14  1  0  0  0  0
 14 15  1  0  0  0  0
 14 16  1  0  0  0  0
 14 17  1  0  0  0  0
 17 18  1  0  0  0  0
 17 19  1  0  0  0  0
 17 20  1  0  0  0  0
 20 21  1  0  0  0  0
 20 22  1  0  0  0  0
 20 23  1  0  0  0  0
 23 24  1  0  0  0  0
 23 25  1  0  0  0  0
 23 26  1  0  0  0  0
 27 28  2  0  0  0  0
 27 29  1  0  0  0  0
 29 30  1  0  0  0  0
 29 31  1  0  0  0  0
 31 32  1  0  0  0  0
 31 33  1  0  0  0  0
 31 34  1  0  0  0  0
M  CHG  1  23   1
M  END
$$$$

  -OEChem-01062216093D

 34 33  0     1  0  0  0  0  0999 V2000
   -3.5644   -2.4095    1.2433 H   0  0  0  0  0  0  0  0  0  0  0  0
   -3.6693   -1.4003    0.8341 C   0  0  0  0  0  0  0  0  0  0  0  0
   -4.3038   -0.8169    1.5056 H   0  0  0  0  0  0  0  0  0  0  0  0
   -4.1486   -1.4666   -0.1453 H   0  0  0  0  0  0  0  0  0  0  0  0
   -2.3061   -0.7473    0.7050 C   0  0  0  0  0  0  0  0  0  0  0  0
   -1.2992   -1.3928    0.9344 O   0  0  0  0  0  0  0  0  0  0  0  0
   -2.2044    0.5581    0.2609 N   0  0  0  0  0  0  0  0  0  0  0  0
   -3.0778    1.0395    0.0702 H   0  0  0  0  0  0  0  0  0  0  0  0
   -0.9523    1.3459    0.2903 C   0  0  1  0  0  0  0  0  0  0  0  0
   -0.1085    0.6834    0.5161 H   0  0  0  0  0  0  0  0  0  0  0  0
   -0.6840    1.9664   -1.0906 C   0  0  0  0  0  0  0  0  0  0  0  0
   -1.5576    2.5429   -1.4123 H   0  0  0  0  0  0  0  0  0  0  0  0
    0.1621    2.6593   -1.0150 H   0  0  0  0  0  0  0  0  0  0  0  0
   -0.3483    0.8786   -2.1230 C   0  0  0  0  0  0  0  0  0  0  0  0
    0.5235    0.3100   -1.7787 H   0  0  0  0  0  0  0  0  0  0  0  0
   -1.1883    0.1806   -2.2075 H   0  0  0  0  0  0  0  0  0  0  0  0
   -0.0550    1.4977   -3.4932 C   0  0  0  0  0  0  0  0  0  0  0  0
   -0.9233    2.0783   -3.8233 H   0  0  0  0  0  0  0  0  0  0  0  0
    0.7988    2.1795   -3.4096 H   0  0  0  0  0  0  0  0  0  0  0  0
    0.2515    0.3942   -4.5030 C   0  0  0  0  0  0  0  0  0  0  0  0
    1.1223   -0.1809   -4.1543 H   0  0  0  0  0  0  0  0  0  0  0  0
   -0.5984   -0.3027   -4.5470 H   0  0  0  0  0  0  0  0  0  0  0  0
    0.5096    1.0044   -5.8253 N   0  3  0  0  0  0  0  0  0  0  0  0
    1.2972    1.6528   -5.7612 H   0  0  0  0  0  0  0  0  0  0  0  0
    0.7342    0.2785   -6.5093 H   0  0  0  0  0  0  0  0  0  0  0  0
   -0.3156    1.5160   -6.1427 H   0  0  0  0  0  0  0  0  0  0  0  0
   -0.9041    2.4162    1.4014 C   0  0  0  0  0  0  0  0  0  0  0  0
    0.1793    2.8739    1.7325 O   0  0  0  0  0  0  0  0  0  0  0  0
   -2.0573    3.0289    1.8607 N   0  0  0  0  0  0  0  0  0  0  0  0
   -2.9402    2.5819    1.6430 H   0  0  0  0  0  0  0  0  0  0  0  0
   -2.0410    4.0837    2.8703 C   0  0  0  0  0  0  0  0  0  0  0  0
   -1.4505    4.9389    2.5243 H   0  0  0  0  0  0  0  0  0  0  0  0
   -3.0587    4.4304    3.0742 H   0  0  0  0  0  0  0  0  0  0  0  0
   -1.6067    3.7140    3.8054 H   0  0  0  0  0  0  0  0  0  0  0  0
  1  2  1  0  0  0  0
  2  3  1  0  0  0  0
  2  4  1  0  0  0  0
  2  5  1  0  0  0  0
  5  6  2  0  0  0  0
  5  7  1  0  0  0  0
  7  8  1  0  0  0  0
  7  9  1  0  0  0  0
  9 10  1  0  0  0  0
  9 11  1  0  0  0  0
  9 27  1  0  0  0  0
 11 12  1  0  0  0  0
 11 13  1  0  0  0  0
 11 14  1  0  0  0  0
 14 15  1  0  0  0  0
 14 16  1  0  0  0  0
 14 17  1  0  0  0  0
 17 18  1  0  0  0  0
 17 19  1  0  0  0  0
 17 20  1  0  0  0  0
 20 21  1  0  0  0  0
 20 22  1  0  0  0  0
 20 23  1  0  0  0  0
 23 24  1  0  0  0  0
 23 25  1  0  0  0  0
 23 26  1  0  0  0  0
 27 28  2  0  0  0  0
 27 29  1  0  0  0  0
 29 30  1  0  0  0  0
 29 31  1  0  0  0  0
 31 32  1  0  0  0  0
 31 33  1  0  0  0  0
 31 34  1  0  0  0  0
M  CHG  1  23   1
M  END
$$$$

  -OEChem-01062216093D

 34 33  0     1  0  0  0  0  0999 V2000
   -3.5757   -2.4120    1.2184 H   0  0  0  0  0  0  0  0  0  0  0  0
   -3.6744   -1.4026    0.8078 C   0  0  0  0  0  0  0  0  0  0  0  0
   -4.3321   -0.8242    1.4610 H   0  0  0  0  0  0  0  0  0  0  0  0
   -4.1239   -1.4706   -0.1856 H   0  0  0  0  0  0  0  0  0  0  0  0
   -2.3118   -0.7414    0.7207 C   0  0  0  0  0  0  0  0  0  0  0  0
   -1.3109   -1.3727    1.0072 O   0  0  0  0  0  0  0  0  0  0  0  0
   -2.2013    0.5615    0.2716 N   0  0  0  0  0  0  0  0  0  0  0  0
   -3.0673    1.0400    0.0397 H   0  0  0  0  0  0  0  0  0  0  0  0
   -0.9479    1.3471    0.3005 C   0  0  1  0  0  0  0  0  0  0  0  0
   -0.1045    0.6859    0.5314 H   0  0  0  0  0  0  0  0  0  0  0  0
   -0.6819    1.9577   -1.0873 C   0  0  0  0  0  0  0  0  0  0  0  0
   -1.5565    2.5327   -1.4083 H   0  0  0  0  0  0  0  0  0  0  0  0
    0.1642    2.6510   -1.0208 H   0  0  0  0  0  0  0  0  0  0  0  0
   -0.3476    0.8693   -2.1199 C   0  0  0  0  0  0  0  0  0  0  0  0
    0.5264    0.3024   -1.7788 H   0  0  0  0  0  0  0  0  0  0  0  0
   -1.1861    0.1693   -2.2027 H   0  0  0  0  0  0  0  0  0  0  0  0
   -0.0591    1.4922   -3.4903 C   0  0  0  0  0  0  0  0  0  0  0  0
   -0.9293    2.0725   -3.8161 H   0  0  0  0  0  0  0  0  0  0  0  0
    0.7935    2.1757   -3.4067 H   0  0  0  0  0  0  0  0  0  0  0  0
    0.2476    0.3956   -4.5079 C   0  0  0  0  0  0  0  0  0  0  0  0
    1.1215   -0.1786   -4.1658 H   0  0  0  0  0  0  0  0  0  0  0  0
   -0.6003   -0.3034   -4.5544 H   0  0  0  0  0  0  0  0  0  0  0  0
    0.5000    1.0153   -5.8272 N   0  3  0  0  0  0  0  0  0  0  0  0
    1.2910    1.6598   -5.7626 H   0  0  0  0  0  0  0  0  0  0  0  0
    0.7169    0.2943   -6.5191 H   0  0  0  0  0  0  0  0  0  0  0  0
   -0.3249    1.5336   -6.1348 H   0  0  0  0  0  0  0  0  0  0  0  0
   -0.9042    2.4227    1.4093 C   0  0  0  0  0  0  0  0  0  0  0  0
    0.1256    3.0596    1.5770 O   0  0  0  0  0  0  0  0  0  0  0  0
   -2.0512    2.8164    2.0764 N   0  0  0  0  0  0  0  0  0  0  0  0
   -2.8461    2.1889    2.0249 H   0  0  0  0  0  0  0  0  0  0  0  0
   -2.0417    3.8382    3.1197 C   0  0  0  0  0  0  0  0  0  0  0  0
   -1.6642    4.7879    2.7252 H   0  0  0  0  0  0  0  0  0  0  0  0
   -3.0545    4.0043    3.4995 H   0  0  0  0  0  0  0  0  0  0  0  0
   -1.4050    3.5282    3.9554 H   0  0  0  0  0  0  0  0  0  0  0  0
  1  2  1  0  0  0  0
  2  3  1  0  0  0  0
  2  4  1  0  0  0  0
  2  5  1  0  0  0  0
  5  6  2  0  0  0  0
  5  7  1  0  0  0  0
  7  8  1  0  0  0  0
  7  9  1  0  0  0  0
  9 10  1  0  0  0  0
  9 11  1  0  0  0  0
  9 27  1  0  0  0  0
 11 12  1  0  0  0  0
 11 13  1  0  0  0  0
 11 14  1  0  0  0  0
 14 15  1  0  0  0  0
 14 16  1  0  0  0  0
 14 17  1  0  0  0  0
 17 18  1  0  0  0  0
 17 19  1  0  0  0  0
 17 20  1  0  0  0  0
 20 21  1  0  0  0  0
 20 22  1  0  0  0  0
 20 23  1  0  0  0  0
 23 24  1  0  0  0  0
 23 25  1  0  0  0  0
 23 26  1  0  0  0  0
 27 28  2  0  0  0  0
 27 29  1  0  0  0  0
 29 30  1  0  0  0  0
 29 31  1  0  0  0  0
 31 32  1  0  0  0  0
 31 33  1  0  0  0  0
 31 34  1  0  0  0  0
M  CHG  1  23   1
M  END
$$$$

  -OEChem-01062216093D

 34 33  0     1  0  0  0  0  0999 V2000
   -3.5875   -2.3912    1.2248 H   0  0  0  0  0  0  0  0  0  0  0  0
   -3.6763   -1.3850    0.8044 C   0  0  0  0  0  0  0  0  0  0  0  0
   -4.3397   -0.7975    1.4435 H   0  0  0  0  0  0  0  0  0  0  0  0
   -4.1132   -1.4589   -0.1941 H   0  0  0  0  0  0  0  0  0  0  0  0
   -2.3096   -0.7314    0.7275 C   0  0  0  0  0  0  0  0  0  0  0  0
   -1.3142   -1.3615    1.0356 O   0  0  0  0  0  0  0  0  0  0  0  0
   -2.1887    0.5686    0.2746 N   0  0  0  0  0  0  0  0  0  0  0  0
   -3.0518    1.0585    0.0536 H   0  0  0  0  0  0  0  0  0  0  0  0
   -0.9307    1.3465    0.3070 C   0  0  1  0  0  0  0  0  0  0  0  0
   -0.0888    0.6853    0.5415 H   0  0  0  0  0  0  0  0  0  0  0  0
   -0.6680    1.9517   -1.0851 C   0  0  0  0  0  0  0  0  0  0  0  0
   -1.5415    2.5303   -1.4031 H   0  0  0  0  0  0  0  0  0  0  0  0
    0.1820    2.6407   -1.0284 H   0  0  0  0  0  0  0  0  0  0  0  0
   -0.3428    0.8613   -2.1176 C   0  0  0  0  0  0  0  0  0  0  0  0
    0.5305    0.2908   -1.7806 H   0  0  0  0  0  0  0  0  0  0  0  0
   -1.1850    0.1654   -2.1976 H   0  0  0  0  0  0  0  0  0  0  0  0
   -0.0592    1.4881   -3.4872 C   0  0  0  0  0  0  0  0  0  0  0  0
   -0.9297    2.0721   -3.8056 H   0  0  0  0  0  0  0  0  0  0  0  0
    0.7953    2.1690   -3.4046 H   0  0  0  0  0  0  0  0  0  0  0  0
    0.2395    0.3962   -4.5117 C   0  0  0  0  0  0  0  0  0  0  0  0
    1.1132   -0.1831   -4.1778 H   0  0  0  0  0  0  0  0  0  0  0  0
   -0.6110   -0.2997   -4.5580 H   0  0  0  0  0  0  0  0  0  0  0  0
    0.4863    1.0247   -5.8277 N   0  3  0  0  0  0  0  0  0  0  0  0
    1.2831    1.6618   -5.7645 H   0  0  0  0  0  0  0  0  0  0  0  0
    0.6910    0.3077   -6.5271 H   0  0  0  0  0  0  0  0  0  0  0  0
   -0.3365    1.5527   -6.1242 H   0  0  0  0  0  0  0  0  0  0  0  0
   -0.9005    2.4223    1.4178 C   0  0  0  0  0  0  0  0  0  0  0  0
    0.0271    3.2177    1.4632 O   0  0  0  0  0  0  0  0  0  0  0  0
   -1.9744    2.5958    2.2728 N   0  0  0  0  0  0  0  0  0  0  0  0
   -2.6457    1.8359    2.3150 H   0  0  0  0  0  0  0  0  0  0  0  0
   -1.9692    3.5787    3.3521 C   0  0  0  0  0  0  0  0  0  0  0  0
   -1.8382    4.5895    2.9511 H   0  0  0  0  0  0  0  0  0  0  0  0
   -2.9162    3.5473    3.8996 H   0  0  0  0  0  0  0  0  0  0  0  0
   -1.1552    3.3725    4.0554 H   0  0  0  0  0  0  0  0  0  0  0  0
  1  2  1  0  0  0  0
  2  3  1  0  0  0  0
  2  4  1  0  0  0  0
  2  5  1  0  0  0  0
  5  6  2  0  0  0  0
  5  7  1  0  0  0  0
  7  8  1  0  0  0  0
  7  9  1  0  0  0  0
  9 10  1  0  0  0  0
  9 11  1  0  0  0  0
  9 27  1  0  0  0  0
 11 12  1  0  0  0  0
 11 13  1  0  0  0  0
 11 14  1  0  0  0  0
 14 15  1  0  0  0  0
 14 16  1  0  0  0  0
 14 17  1  0  0  0  0
 17 18  1  0  0  0  0
 17 19  1  0  0  0  0
 17 20  1  0  0  0  0
 20 21  1  0  0  0  0
 20 22  1  0  0  0  0
 20 23  1  0  0  0  0
 23 24  1  0  0  0  0
 23 25  1  0  0  0  0
 23 26  1  0  0  0  0
 27 28  2  0  0  0  0
 27 29  1  0  0  0  0
 29 30  1  0  0  0  0
 29 31  1  0  0  0  0
 31 32  1  0  0  0  0
 31 33  1  0  0  0  0
 31 34  1  0  0  0  0
M  CHG  1  23   1
M  END
$$$$

  -OEChem-01062216093D

 34 33  0     1  0  0  0  0  0999 V2000
   -3.5967   -2.3717    1.2403 H   0  0  0  0  0  0  0  0  0  0  0  0
   -3.6804   -1.3693    0.8098 C   0  0  0  0  0  0  0  0  0  0  0  0
   -4.3390   -0.7717    1.4446 H   0  0  0  0  0  0  0  0  0  0  0  0
   -4.1205   -1.4515   -0.1868 H   0  0  0  0  0  0  0  0  0  0  0  0
   -2.3101   -0.7240    0.7238 C   0  0  0  0  0  0  0  0  0  0  0  0
   -1.3181   -1.3573    1.0363 O   0  0  0  0  0  0  0  0  0  0  0  0
   -2.1813    0.5770    0.2759 N   0  0  0  0  0  0  0  0  0  0  0  0
   -3.0445    1.0828    0.0924 H   0  0  0  0  0  0  0  0  0  0  0  0
   -0.9189    1.3483    0.3105 C   0  0  1  0  0  0  0  0  0  0  0  0
   -0.0792    0.6843    0.5433 H   0  0  0  0  0  0  0  0  0  0  0  0
   -0.6571    1.9505   -1.0846 C   0  0  0  0  0  0  0  0  0  0  0  0
   -1.5279    2.5345   -1.4002 H   0  0  0  0  0  0  0  0  0  0  0  0
    0.1977    2.6340   -1.0331 H   0  0  0  0  0  0  0  0  0  0  0  0
   -0.3391    0.8584   -2.1174 C   0  0  0  0  0  0  0  0  0  0  0  0
    0.5334    0.2851   -1.7834 H   0  0  0  0  0  0  0  0  0  0  0  0
   -1.1839    0.1653   -2.1949 H   0  0  0  0  0  0  0  0  0  0  0  0
   -0.0576    1.4857   -3.4870 C   0  0  0  0  0  0  0  0  0  0  0  0
   -0.9269    2.0737   -3.8018 H   0  0  0  0  0  0  0  0  0  0  0  0
    0.7994    2.1640   -3.4062 H   0  0  0  0  0  0  0  0  0  0  0  0
    0.2345    0.3957   -4.5153 C   0  0  0  0  0  0  0  0  0  0  0  0
    1.1077   -0.1871   -4.1863 H   0  0  0  0  0  0  0  0  0  0  0  0
   -0.6177   -0.2979   -4.5618 H   0  0  0  0  0  0  0  0  0  0  0  0
    0.4786    1.0294   -5.8293 N   0  3  0  0  0  0  0  0  0  0  0  0
    1.2816    1.6590   -5.7678 H   0  0  0  0  0  0  0  0  0  0  0  0
    0.6718    0.3147   -6.5344 H   0  0  0  0  0  0  0  0  0  0  0  0
   -0.3415    1.5667   -6.1166 H   0  0  0  0  0  0  0  0  0  0  0  0
   -0.8946    2.4176    1.4299 C   0  0  0  0  0  0  0  0  0  0  0  0
   -0.1197    3.3616    1.3622 O   0  0  0  0  0  0  0  0  0  0  0  0
   -1.8184    2.3845    2.4588 N   0  0  0  0  0  0  0  0  0  0  0  0
   -2.3381    1.5197    2.5730 H   0  0  0  0  0  0  0  0  0  0  0  0
   -1.8102    3.3434    3.5592 C   0  0  0  0  0  0  0  0  0  0  0  0
   -1.9422    4.3632    3.1817 H   0  0  0  0  0  0  0  0  0  0  0  0
   -2.6251    3.1281    4.2573 H   0  0  0  0  0  0  0  0  0  0  0  0
   -0.8622    3.2918    4.1056 H   0  0  0  0  0  0  0  0  0  0  0  0
  1  2  1  0  0  0  0
  2  3  1  0  0  0  0
  2  4  1  0  0  0  0
  2  5  1  0  0  0  0
  5  6  2  0  0  0  0
  5  7  1  0  0  0  0
  7  8  1  0  0  0  0
  7  9  1  0  0  0  0
  9 10  1  0  0  0  0
  9 11  1  0  0  0  0
  9 27  1  0  0  0  0
 11 12  1  0  0  0  0
 11 13  1  0  0  0  0
 11 14  1  0  0  0  0
 14 15  1  0  0  0  0
 14 16  1  0  0  0  0
 14 17  1  0  0  0  0
 17 18  1  0  0  0  0
 17 19  1  0  0  0  0
 17 20  1  0  0  0  0
 20 21  1  0  0  0  0
 20 22  1  0  0  0  0
 20 23  1  0  0  0  0
 23 24  1  0  0  0  0
 23 25  1  0  0  0  0
 23 26  1  0  0  0  0
 27 28  2  0  0  0  0
 27 29  1  0  0  0  0
 29 30  1  0  0  0  0
 29 31  1  0  0  0  0
 31 32  1  0  0  0  0
 31 33  1  0  0  0  0
 31 34  1  0  0  0  0
M  CHG  1  23   1
M  END
$$$$

  -OEChem-01062216093D

 34 33  0     1  0  0  0  0  0999 V2000
   -3.6036   -2.3465    1.2574 H   0  0  0  0  0  0  0  0  0  0  0  0
   -3.6798   -1.3445    0.8246 C   0  0  0  0  0  0  0  0  0  0  0  0
   -4.3321   -0.7392    1.4587 H   0  0  0  0  0  0  0  0  0  0  0  0
   -4.1223   -1.4249   -0.1710 H   0  0  0  0  0  0  0  0  0  0  0  0
   -2.3047   -0.7106    0.7335 C   0  0  0  0  0  0  0  0  0  0  0  0
   -1.3165   -1.3449    1.0566 O   0  0  0  0  0  0  0  0  0  0  0  0
   -2.1677    0.5885    0.2847 N   0  0  0  0  0  0  0  0  0  0  0  0
   -3.0294    1.1059    0.1268 H   0  0  0  0  0  0  0  0  0  0  0  0
   -0.9005    1.3502    0.3130 C   0  0  1  0  0  0  0  0  0  0  0  0
   -0.0622    0.6836    0.5436 H   0  0  0  0  0  0  0  0  0  0  0  0
   -0.6397    1.9500   -1.0838 C   0  0  0  0  0  0  0  0  0  0  0  0
   -1.5073    2.5412   -1.3956 H   0  0  0  0  0  0  0  0  0  0  0  0
    0.2210    2.6265   -1.0347 H   0  0  0  0  0  0  0  0  0  0  0  0
   -0.3341    0.8569   -2.1190 C   0  0  0  0  0  0  0  0  0  0  0  0
    0.5351    0.2762   -1.7896 H   0  0  0  0  0  0  0  0  0  0  0  0
   -1.1851    0.1711   -2.1939 H   0  0  0  0  0  0  0  0  0  0  0  0
   -0.0539    1.4843   -3.4889 C   0  0  0  0  0  0  0  0  0  0  0  0
   -0.9205    2.0787   -3.7988 H   0  0  0  0  0  0  0  0  0  0  0  0
    0.8083    2.1562   -3.4108 H   0  0  0  0  0  0  0  0  0  0  0  0
    0.2258    0.3945   -4.5205 C   0  0  0  0  0  0  0  0  0  0  0  0
    1.0963   -0.1955   -4.1967 H   0  0  0  0  0  0  0  0  0  0  0  0
   -0.6322   -0.2925   -4.5647 H   0  0  0  0  0  0  0  0  0  0  0  0
    0.4687    1.0302   -5.8337 N   0  3  0  0  0  0  0  0  0  0  0  0
    1.2768    1.6532   -5.7740 H   0  0  0  0  0  0  0  0  0  0  0  0
    0.6526    0.3165   -6.5423 H   0  0  0  0  0  0  0  0  0  0  0  0
   -0.3485    1.5751   -6.1149 H   0  0  0  0  0  0  0  0  0  0  0  0
   -0.8849    2.4131    1.4389 C   0  0  0  0  0  0  0  0  0  0  0  0
   -0.3170    3.4849    1.2794 O   0  0  0  0  0  0  0  0  0  0  0  0
   -1.5967    2.2000    2.6053 N   0  0  0  0  0  0  0  0  0  0  0  0
   -1.9357    1.2551    2.7642 H   0  0  0  0  0  0  0  0  0  0  0  0
   -1.5891    3.1375    3.7238 C   0  0  0  0  0  0  0  0  0  0  0  0
   -1.9790    4.1120    3.4110 H   0  0  0  0  0  0  0  0  0  0  0  0
   -2.2159    2.7618    4.5384 H   0  0  0  0  0  0  0  0  0  0  0  0
   -0.5712    3.2730    4.1045 H   0  0  0  0  0  0  0  0  0  0  0  0
  1  2  1  0  0  0  0
  2  3  1  0  0  0  0
  2  4  1  0  0  0  0
  2  5  1  0  0  0  0
  5  6  2  0  0  0  0
  5  7  1  0  0  0  0
  7  8  1  0  0  0  0
  7  9  1  0  0  0  0
  9 10  1  0  0  0  0
  9 11  1  0  0  0  0
  9 27  1  0  0  0  0
 11 12  1  0  0  0  0
 11 13  1  0  0  0  0
 11 14  1  0  0  0  0
 14 15  1  0  0  0  0
 14 16  1  0  0  0  0
 14 17  1  0  0  0  0
 17 18  1  0  0  0  0
 17 19  1  0  0  0  0
 17 20  1  0  0  0  0
 20 21  1  0  0  0  0
 20 22  1  0  0  0  0
 20 23  1  0  0  0  0
 23 24  1  0  0  0  0
 23 25  1  0  0  0  0
 23 26  1  0  0  0  0
 27 28  2  0  0  0  0
 27 29  1  0  0  0  0
 29 30  1  0  0  0  0
 29 31  1  0  0  0  0
 31 32  1  0  0  0  0
 31 33  1  0  0  0  0
 31 34  1  0  0  0  0
M  CHG  1  23   1
M  END
$$$$

  -OEChem-01062216093D

 34 33  0     1  0  0  0  0  0999 V2000
   -3.6041   -2.3242    1.2850 H   0  0  0  0  0  0  0  0  0  0  0  0
   -3.6750   -1.3231    0.8497 C   0  0  0  0  0  0  0  0  0  0  0  0
   -4.3180   -0.7102    1.4864 H   0  0  0  0  0  0  0  0  0  0  0  0
   -4.1255   -1.4029   -0.1425 H   0  0  0  0  0  0  0  0  0  0  0  0
   -2.2958   -0.7002    0.7470 C   0  0  0  0  0  0  0  0  0  0  0  0
   -1.3100   -1.3357    1.0771 O   0  0  0  0  0  0  0  0  0  0  0  0
   -2.1519    0.5958    0.2927 N   0  0  0  0  0  0  0  0  0  0  0  0
   -3.0110    1.1226    0.1522 H   0  0  0  0  0  0  0  0  0  0  0  0
   -0.8799    1.3469    0.3150 C   0  0  1  0  0  0  0  0  0  0  0  0
   -0.0426    0.6784    0.5430 H   0  0  0  0  0  0  0  0  0  0  0  0
   -0.6204    1.9486   -1.0808 C   0  0  0  0  0  0  0  0  0  0  0  0
   -1.4849    2.5475   -1.3868 H   0  0  0  0  0  0  0  0  0  0  0  0
    0.2451    2.6189   -1.0291 H   0  0  0  0  0  0  0  0  0  0  0  0
   -0.3283    0.8570   -2.1215 C   0  0  0  0  0  0  0  0  0  0  0  0
    0.5375    0.2680   -1.7981 H   0  0  0  0  0  0  0  0  0  0  0  0
   -1.1854    0.1788   -2.1946 H   0  0  0  0  0  0  0  0  0  0  0  0
   -0.0491    1.4860   -3.4909 C   0  0  0  0  0  0  0  0  0  0  0  0
   -0.9124    2.0881   -3.7952 H   0  0  0  0  0  0  0  0  0  0  0  0
    0.8189    2.1506   -3.4153 H   0  0  0  0  0  0  0  0  0  0  0  0
    0.2169    0.3963   -4.5262 C   0  0  0  0  0  0  0  0  0  0  0  0
    1.0836   -0.2016   -4.2072 H   0  0  0  0  0  0  0  0  0  0  0  0
   -0.6470   -0.2833   -4.5676 H   0  0  0  0  0  0  0  0  0  0  0  0
    0.4592    1.0319   -5.8397 N   0  3  0  0  0  0  0  0  0  0  0  0
    1.2735    1.6472   -5.7834 H   0  0  0  0  0  0  0  0  0  0  0  0
    0.6326    0.3174   -6.5500 H   0  0  0  0  0  0  0  0  0  0  0  0
   -0.3542    1.5850   -6.1163 H   0  0  0  0  0  0  0  0  0  0  0  0
   -0.8740    2.4060    1.4425 C   0  0  0  0  0  0  0  0  0  0  0  0
   -0.5450    3.5632    1.2199 O   0  0  0  0  0  0  0  0  0  0  0  0
   -1.3252    2.0636    2.7035 N   0  0  0  0  0  0  0  0  0  0  0  0
   -1.4898    1.0751    2.8790 H   0  0  0  0  0  0  0  0  0  0  0  0
   -1.3150    2.9866    3.8337 C   0  0  0  0  0  0  0  0  0  0  0  0
   -1.9380    3.8618    3.6209 H   0  0  0  0  0  0  0  0  0  0  0  0
   -1.7080    2.4947    4.7288 H   0  0  0  0  0  0  0  0  0  0  0  0
   -0.2948    3.3248    4.0445 H   0  0  0  0  0  0  0  0  0  0  0  0
  1  2  1  0  0  0  0
  2  3  1  0  0  0  0
  2  4  1  0  0  0  0
  2  5  1  0  0  0  0
  5  6  2  0  0  0  0
  5  7  1  0  0  0  0
  7  8  1  0  0  0  0
  7  9  1  0  0  0  0
  9 10  1  0  0  0  0
  9 11  1  0  0  0  0
  9 27  1  0  0  0  0
 11 12  1  0  0  0  0
 11 13  1  0  0  0  0
 11 14  1  0  0  0  0
 14 15  1  0  0  0  0
 14 16  1  0  0  0  0
 14 17  1  0  0  0  0
 17 18  1  0  0  0  0
 17 19  1  0  0  0  0
 17 20  1  0  0  0  0
 20 21  1  0  0  0  0
 20 22  1  0  0  0  0
 20 23  1  0  0  0  0
 23 24  1  0  0  0  0
 23 25  1  0  0  0  0
 23 26  1  0  0  0  0
 27 28  2  0  0  0  0
 27 29  1  0  0  0  0
 29 30  1  0  0  0  0
 29 31  1  0  0  0  0
 31 32  1  0  0  0  0
 31 33  1  0  0  0  0
 31 34  1  0  0  0  0
M  CHG  1  23   1
M  END
$$$$

  -OEChem-01062216093D

 34 33  0     1  0  0  0  0  0999 V2000
   -3.5977   -2.3040    1.3208 H   0  0  0  0  0  0  0  0  0  0  0  0
   -3.6656   -1.3047    0.8810 C   0  0  0  0  0  0  0  0  0  0  0  0
   -4.2945   -0.6826    1.5229 H   0  0  0  0  0  0  0  0  0  0  0  0
   -4.1298   -1.3855   -0.1048 H   0  0  0  0  0  0  0  0  0  0  0  0
   -2.2827   -0.6944    0.7570 C   0  0  0  0  0  0  0  0  0  0  0  0
   -1.2973   -1.3366    1.0769 O   0  0  0  0  0  0  0  0  0  0  0  0
   -2.1339    0.5986    0.2964 N   0  0  0  0  0  0  0  0  0  0  0  0
   -2.9897    1.1357    0.1748 H   0  0  0  0  0  0  0  0  0  0  0  0
   -0.8569    1.3380    0.3154 C   0  0  1  0  0  0  0  0  0  0  0  0
   -0.0210    0.6667    0.5394 H   0  0  0  0  0  0  0  0  0  0  0  0
   -0.5990    1.9450   -1.0776 C   0  0  0  0  0  0  0  0  0  0  0  0
   -1.4610    2.5507   -1.3779 H   0  0  0  0  0  0  0  0  0  0  0  0
    0.2697    2.6109   -1.0222 H   0  0  0  0  0  0  0  0  0  0  0  0
   -0.3213    0.8564   -2.1253 C   0  0  0  0  0  0  0  0  0  0  0  0
    0.5406    0.2582   -1.8087 H   0  0  0  0  0  0  0  0  0  0  0  0
   -1.1848    0.1862   -2.1972 H   0  0  0  0  0  0  0  0  0  0  0  0
   -0.0433    1.4885   -3.4935 C   0  0  0  0  0  0  0  0  0  0  0  0
   -0.9028    2.0992   -3.7916 H   0  0  0  0  0  0  0  0  0  0  0  0
    0.8307    2.1454   -3.4200 H   0  0  0  0  0  0  0  0  0  0  0  0
    0.2077    0.3995   -4.5335 C   0  0  0  0  0  0  0  0  0  0  0  0
    1.0705   -0.2074   -4.2211 H   0  0  0  0  0  0  0  0  0  0  0  0
   -0.6627   -0.2719   -4.5726 H   0  0  0  0  0  0  0  0  0  0  0  0
    0.4494    1.0361   -5.8468 N   0  3  0  0  0  0  0  0  0  0  0  0
    1.2691    1.6443   -5.7933 H   0  0  0  0  0  0  0  0  0  0  0  0
    0.6127    0.3218   -6.5598 H   0  0  0  0  0  0  0  0  0  0  0  0
   -0.3605    1.5969   -6.1181 H   0  0  0  0  0  0  0  0  0  0  0  0
   -0.8571    2.3947    1.4423 C   0  0  0  0  0  0  0  0  0  0  0  0
   -0.7777    3.5892    1.1887 O   0  0  0  0  0  0  0  0  0  0  0  0
   -1.0157    1.9866    2.7530 N   0  0  0  0  0  0  0  0  0  0  0  0
   -1.0357    0.9842    2.9294 H   0  0  0  0  0  0  0  0  0  0  0  0
   -1.0111    2.9049    3.8869 C   0  0  0  0  0  0  0  0  0  0  0  0
   -1.8303    3.6267    3.8007 H   0  0  0  0  0  0  0  0  0  0  0  0
   -1.1361    2.3524    4.8234 H   0  0  0  0  0  0  0  0  0  0  0  0
   -0.0640    3.4532    3.9335 H   0  0  0  0  0  0  0  0  0  0  0  0
  1  2  1  0  0  0  0
  2  3  1  0  0  0  0
  2  4  1  0  0  0  0
  2  5  1  0  0  0  0
  5  6  2  0  0  0  0
  5  7  1  0  0  0  0
  7  8  1  0  0  0  0
  7  9  1  0  0  0  0
  9 10  1  0  0  0  0
  9 11  1  0  0  0  0
  9 27  1  0  0  0  0
 11 12  1  0  0  0  0
 11 13  1  0  0  0  0
 11 14  1  0  0  0  0
 14 15  1  0  0  0  0
 14 16  1  0  0  0  0
 14 17  1  0  0  0  0
 17 18  1  0  0  0  0
 17 19  1  0  0  0  0
 17 20  1  0  0  0  0
 20 21  1  0  0  0  0
 20 22  1  0  0  0  0
 20 23  1  0  0  0  0
 23 24  1  0  0  0  0
 23 25  1  0  0  0  0
 23 26  1  0  0  0  0
 27 28  2  0  0  0  0
 27 29  1  0  0  0  0
 29 30  1  0  0  0  0
 29 31  1  0  0  0  0
 31 32  1  0  0  0  0
 31 33  1  0  0  0  0
 31 34  1  0  0  0  0
M  CHG  1  23   1
M  END
$$$$

  -OEChem-01062216093D

 34 33  0     1  0  0  0  0  0999 V2000
   -3.5908   -2.2878    1.3558 H   0  0  0  0  0  0  0  0  0  0  0  0
   -3.6564   -1.2898    0.9130 C   0  0  0  0  0  0  0  0  0  0  0  0
   -4.2679   -0.6588    1.5627 H   0  0  0  0  0  0  0  0  0  0  0  0
   -4.1380   -1.3699   -0.0643 H   0  0  0  0  0  0  0  0  0  0  0  0
   -2.2698   -0.6936    0.7625 C   0  0  0  0  0  0  0  0  0  0  0  0
   -1.2841   -1.3473    1.0600 O   0  0  0  0  0  0  0  0  0  0  0  0
   -2.1168    0.5967    0.2959 N   0  0  0  0  0  0  0  0  0  0  0  0
   -2.9688    1.1454    0.1998 H   0  0  0  0  0  0  0  0  0  0  0  0
   -0.8353    1.3256    0.3139 C   0  0  1  0  0  0  0  0  0  0  0  0
   -0.0010    0.6507    0.5329 H   0  0  0  0  0  0  0  0  0  0  0  0
   -0.5792    1.9388   -1.0761 C   0  0  0  0  0  0  0  0  0  0  0  0
   -1.4397    2.5499   -1.3703 H   0  0  0  0  0  0  0  0  0  0  0  0
    0.2919    2.6013   -1.0176 H   0  0  0  0  0  0  0  0  0  0  0  0
   -0.3142    0.8543   -2.1313 C   0  0  0  0  0  0  0  0  0  0  0  0
    0.5449    0.2482   -1.8219 H   0  0  0  0  0  0  0  0  0  0  0  0
   -1.1827    0.1905   -2.2026 H   0  0  0  0  0  0  0  0  0  0  0  0
   -0.0377    1.4909   -3.4975 C   0  0  0  0  0  0  0  0  0  0  0  0
   -0.8942    2.1089   -3.7889 H   0  0  0  0  0  0  0  0  0  0  0  0
    0.8412    2.1413   -3.4253 H   0  0  0  0  0  0  0  0  0  0  0  0
    0.2001    0.4040   -4.5425 C   0  0  0  0  0  0  0  0  0  0  0  0
    1.0598   -0.2102   -4.2360 H   0  0  0  0  0  0  0  0  0  0  0  0
   -0.6755   -0.2608   -4.5795 H   0  0  0  0  0  0  0  0  0  0  0  0
    0.4406    1.0429   -5.8548 N   0  3  0  0  0  0  0  0  0  0  0  0
    1.2640    1.6463   -5.8030 H   0  0  0  0  0  0  0  0  0  0  0  0
    0.5970    0.3297   -6.5704 H   0  0  0  0  0  0  0  0  0  0  0  0
   -0.3672    1.6089   -6.1214 H   0  0  0  0  0  0  0  0  0  0  0  0
   -0.8352    2.3832    1.4374 C   0  0  0  0  0  0  0  0  0  0  0  0
   -1.0036    3.5683    1.1837 O   0  0  0  0  0  0  0  0  0  0  0  0
   -0.6880    1.9778    2.7500 N   0  0  0  0  0  0  0  0  0  0  0  0
   -0.5850    0.9798    2.9238 H   0  0  0  0  0  0  0  0  0  0  0  0
   -0.6938    2.8975    3.8825 C   0  0  0  0  0  0  0  0  0  0  0  0
   -1.6521    3.4239    3.9454 H   0  0  0  0  0  0  0  0  0  0  0  0
   -0.5388    2.3494    4.8171 H   0  0  0  0  0  0  0  0  0  0  0  0
    0.1073    3.6373    3.7806 H   0  0  0  0  0  0  0  0  0  0  0  0
  1  2  1  0  0  0  0
  2  3  1  0  0  0  0
  2  4  1  0  0  0  0
  2  5  1  0  0  0  0
  5  6  2  0  0  0  0
  5  7  1  0  0  0  0
  7  8  1  0  0  0  0
  7  9  1  0  0  0  0
  9 10  1  0  0  0  0
  9 11  1  0  0  0  0
  9 27  1  0  0  0  0
 11 12  1  0  0  0  0
 11 13  1  0  0  0  0
 11 14  1  0  0  0  0
 14 15  1  0  0  0  0
 14 16  1  0  0  0  0
 14 17  1  0  0  0  0
 17 18  1  0  0  0  0
 17 19  1  0  0  0  0
 17 20  1  0  0  0  0
 20 21  1  0  0  0  0
 20 22  1  0  0  0  0
 20 23  1  0  0  0  0
 23 24  1  0  0  0  0
 23 25  1  0  0  0  0
 23 26  1  0  0  0  0
 27 28  2  0  0  0  0
 27 29  1  0  0  0  0
 29 30  1  0  0  0  0
 29 31  1  0  0  0  0
 31 32  1  0  0  0  0
 31 33  1  0  0  0  0
 31 34  1  0  0  0  0
M  CHG  1  23   1
M  END
$$$$

  -OEChem-01062216093D

 34 33  0     1  0  0  0  0  0999 V2000
   -3.5806   -2.2696    1.4092 H   0  0  0  0  0  0  0  0  0  0  0  0
   -3.6496   -1.2731    0.9631 C   0  0  0  0  0  0  0  0  0  0  0  0
   -4.2246   -0.6290    1.6332 H   0  0  0  0  0  0  0  0  0  0  0  0
   -4.1719   -1.3512    0.0066 H   0  0  0  0  0  0  0  0  0  0  0  0
   -2.2616   -0.6986    0.7538 C   0  0  0  0  0  0  0  0  0  0  0  0
   -1.2744   -1.3736    0.9948 O   0  0  0  0  0  0  0  0  0  0  0  0
   -2.1082    0.5908    0.2843 N   0  0  0  0  0  0  0  0  0  0  0  0
   -2.9551    1.1547    0.2417 H   0  0  0  0  0  0  0  0  0  0  0  0
   -0.8231    1.3112    0.3050 C   0  0  1  0  0  0  0  0  0  0  0  0
    0.0081    0.6308    0.5187 H   0  0  0  0  0  0  0  0  0  0  0  0
   -0.5651    1.9338   -1.0794 C   0  0  0  0  0  0  0  0  0  0  0  0
   -1.4236    2.5502   -1.3692 H   0  0  0  0  0  0  0  0  0  0  0  0
    0.3080    2.5927   -1.0160 H   0  0  0  0  0  0  0  0  0  0  0  0
   -0.3086    0.8542   -2.1417 C   0  0  0  0  0  0  0  0  0  0  0  0
    0.5462    0.2397   -1.8370 H   0  0  0  0  0  0  0  0  0  0  0  0
   -1.1821    0.1971   -2.2159 H   0  0  0  0  0  0  0  0  0  0  0  0
   -0.0294    1.4954   -3.5051 C   0  0  0  0  0  0  0  0  0  0  0  0
   -0.8820    2.1208   -3.7927 H   0  0  0  0  0  0  0  0  0  0  0  0
    0.8544    2.1392   -3.4310 H   0  0  0  0  0  0  0  0  0  0  0  0
    0.1994    0.4102   -4.5543 C   0  0  0  0  0  0  0  0  0  0  0  0
    1.0544   -0.2116   -4.2504 H   0  0  0  0  0  0  0  0  0  0  0  0
   -0.6813   -0.2475   -4.5922 H   0  0  0  0  0  0  0  0  0  0  0  0
    0.4431    1.0505   -5.8651 N   0  3  0  0  0  0  0  0  0  0  0  0
    1.2710    1.6474   -5.8130 H   0  0  0  0  0  0  0  0  0  0  0  0
    0.5930    0.3377   -6.5826 H   0  0  0  0  0  0  0  0  0  0  0  0
   -0.3610    1.6232   -6.1293 H   0  0  0  0  0  0  0  0  0  0  0  0
   -0.8193    2.3696    1.4263 C   0  0  0  0  0  0  0  0  0  0  0  0
   -1.2375    3.4989    1.2091 O   0  0  0  0  0  0  0  0  0  0  0  0
   -0.3757    2.0311    2.6901 N   0  0  0  0  0  0  0  0  0  0  0  0
   -0.1216    1.0591    2.8539 H   0  0  0  0  0  0  0  0  0  0  0  0
   -0.3881    2.9563    3.8180 C   0  0  0  0  0  0  0  0  0  0  0  0
   -1.4117    3.2737    4.0438 H   0  0  0  0  0  0  0  0  0  0  0  0
    0.0288    2.4747    4.7080 H   0  0  0  0  0  0  0  0  0  0  0  0
    0.2137    3.8436    3.5937 H   0  0  0  0  0  0  0  0  0  0  0  0
  1  2  1  0  0  0  0
  2  3  1  0  0  0  0
  2  4  1  0  0  0  0
  2  5  1  0  0  0  0
  5  6  2  0  0  0  0
  5  7  1  0  0  0  0
  7  8  1  0  0  0  0
  7  9  1  0  0  0  0
  9 10  1  0  0  0  0
  9 11  1  0  0  0  0
  9 27  1  0  0  0  0
 11 12  1  0  0  0  0
 11 13  1  0  0  0  0
 11 14  1  0  0  0  0
 14 15  1  0  0  0  0
 14 16  1  0  0  0  0
 14 17  1  0  0  0  0
 17 18  1  0  0  0  0
 17 19  1  0  0  0  0
 17 20  1  0  0  0  0
 20 21  1  0  0  0  0
 20 22  1  0  0  0  0
 20 23  1  0  0  0  0
 23 24  1  0  0  0  0
 23 25  1  0  0  0  0
 23 26  1  0  0  0  0
 27 28  2  0  0  0  0
 27 29  1  0  0  0  0
 29 30  1  0  0  0  0
 29 31  1  0  0  0  0
 31 32  1  0  0  0  0
 31 33  1  0  0  0  0
 31 34  1  0  0  0  0
M  CHG  1  23   1
M  END
$$$$

  -OEChem-01062216093D

 34 33  0     1  0  0  0  0  0999 V2000
   -3.5808   -2.2521    1.4390 H   0  0  0  0  0  0  0  0  0  0  0  0
   -3.6436   -1.2439    1.0194 C   0  0  0  0  0  0  0  0  0  0  0  0
   -4.1665   -0.6007    1.7316 H   0  0  0  0  0  0  0  0  0  0  0  0
   -4.2146   -1.2853    0.0888 H   0  0  0  0  0  0  0  0  0  0  0  0
   -2.2524   -0.7012    0.7544 C   0  0  0  0  0  0  0  0  0  0  0  0
   -1.2716   -1.3976    0.9594 O   0  0  0  0  0  0  0  0  0  0  0  0
   -2.0897    0.5823    0.2726 N   0  0  0  0  0  0  0  0  0  0  0  0
   -2.9270    1.1627    0.2703 H   0  0  0  0  0  0  0  0  0  0  0  0
   -0.7983    1.2902    0.2944 C   0  0  1  0  0  0  0  0  0  0  0  0
    0.0272    0.6039    0.5098 H   0  0  0  0  0  0  0  0  0  0  0  0
   -0.5403    1.9185   -1.0865 C   0  0  0  0  0  0  0  0  0  0  0  0
   -1.3948    2.5433   -1.3695 H   0  0  0  0  0  0  0  0  0  0  0  0
    0.3383    2.5696   -1.0220 H   0  0  0  0  0  0  0  0  0  0  0  0
   -0.2978    0.8444   -2.1575 C   0  0  0  0  0  0  0  0  0  0  0  0
    0.5531    0.2206   -1.8605 H   0  0  0  0  0  0  0  0  0  0  0  0
   -1.1776    0.1959   -2.2326 H   0  0  0  0  0  0  0  0  0  0  0  0
   -0.0188    1.4933   -3.5173 C   0  0  0  0  0  0  0  0  0  0  0  0
   -0.8673    2.1284   -3.7960 H   0  0  0  0  0  0  0  0  0  0  0  0
    0.8710    2.1281   -3.4419 H   0  0  0  0  0  0  0  0  0  0  0  0
    0.1959    0.4150   -4.5767 C   0  0  0  0  0  0  0  0  0  0  0  0
    1.0471   -0.2168   -4.2825 H   0  0  0  0  0  0  0  0  0  0  0  0
   -0.6904   -0.2351   -4.6163 H   0  0  0  0  0  0  0  0  0  0  0  0
    0.4391    1.0644   -5.8831 N   0  3  0  0  0  0  0  0  0  0  0  0
    1.2679    1.6597   -5.8278 H   0  0  0  0  0  0  0  0  0  0  0  0
    0.5867    0.3566   -6.6059 H   0  0  0  0  0  0  0  0  0  0  0  0
   -0.3647    1.6400   -6.1419 H   0  0  0  0  0  0  0  0  0  0  0  0
   -0.7980    2.3566    1.4071 C   0  0  0  0  0  0  0  0  0  0  0  0
   -1.4522    3.3805    1.2609 O   0  0  0  0  0  0  0  0  0  0  0  0
   -0.0981    2.1478    2.5802 N   0  0  0  0  0  0  0  0  0  0  0  0
    0.3298    1.2346    2.7145 H   0  0  0  0  0  0  0  0  0  0  0  0
   -0.1362    3.0759    3.7056 C   0  0  0  0  0  0  0  0  0  0  0  0
   -1.1568    3.1709    4.0915 H   0  0  0  0  0  0  0  0  0  0  0  0
    0.5076    2.7172    4.5147 H   0  0  0  0  0  0  0  0  0  0  0  0
    0.2168    4.0665    3.3990 H   0  0  0  0  0  0  0  0  0  0  0  0
  1  2  1  0  0  0  0
  2  3  1  0  0  0  0
  2  4  1  0  0  0  0
  2  5  1  0  0  0  0
  5  6  2  0  0  0  0
  5  7  1  0  0  0  0
  7  8  1  0  0  0  0
  7  9  1  0  0  0  0
  9 10  1  0  0  0  0
  9 11  1  0  0  0  0
  9 27  1  0  0  0  0
 11 12  1  0  0  0  0
 11 13  1  0  0  0  0
 11 14  1  0  0  0  0
 14 15  1  0  0  0  0
 14 16  1  0  0  0  0
 14 17  1  0  0  0  0
 17 18  1  0  0  0  0
 17 19  1  0  0  0  0
 17 20  1  0  0  0  0
 20 21  1  0  0  0  0
 20 22  1  0  0  0  0
 20 23  1  0  0  0  0
 23 24  1  0  0  0  0
 23 25  1  0  0  0  0
 23 26  1  0  0  0  0
 27 28  2  0  0  0  0
 27 29  1  0  0  0  0
 29 30  1  0  0  0  0
 29 31  1  0  0  0  0
 31 32  1  0  0  0  0
 31 33  1  0  0  0  0
 31 34  1  0  0  0  0
M  CHG  1  23   1
M  END
$$$$

  -OEChem-01062216093D

 34 33  0     1  0  0  0  0  0999 V2000
   -3.5758   -2.2329    1.4716 H   0  0  0  0  0  0  0  0  0  0  0  0
   -3.6372   -1.2261    1.0489 C   0  0  0  0  0  0  0  0  0  0  0  0
   -4.1290   -0.5723    1.7734 H   0  0  0  0  0  0  0  0  0  0  0  0
   -4.2370   -1.2629    0.1364 H   0  0  0  0  0  0  0  0  0  0  0  0
   -2.2474   -0.7044    0.7380 C   0  0  0  0  0  0  0  0  0  0  0  0
   -1.2716   -1.4214    0.8903 O   0  0  0  0  0  0  0  0  0  0  0  0
   -2.0829    0.5780    0.2546 N   0  0  0  0  0  0  0  0  0  0  0  0
   -2.9111    1.1700    0.3066 H   0  0  0  0  0  0  0  0  0  0  0  0
   -0.7899    1.2822    0.2838 C   0  0  1  0  0  0  0  0  0  0  0  0
    0.0327    0.5928    0.5012 H   0  0  0  0  0  0  0  0  0  0  0  0
   -0.5326    1.9180   -1.0923 C   0  0  0  0  0  0  0  0  0  0  0  0
   -1.3870    2.5452   -1.3707 H   0  0  0  0  0  0  0  0  0  0  0  0
    0.3474    2.5673   -1.0265 H   0  0  0  0  0  0  0  0  0  0  0  0
   -0.2938    0.8458   -2.1666 C   0  0  0  0  0  0  0  0  0  0  0  0
    0.5552    0.2186   -1.8714 H   0  0  0  0  0  0  0  0  0  0  0  0
   -1.1749    0.1988   -2.2419 H   0  0  0  0  0  0  0  0  0  0  0  0
   -0.0148    1.4952   -3.5264 C   0  0  0  0  0  0  0  0  0  0  0  0
   -0.8625    2.1315   -3.8040 H   0  0  0  0  0  0  0  0  0  0  0  0
    0.8760    2.1290   -3.4527 H   0  0  0  0  0  0  0  0  0  0  0  0
    0.1956    0.4153   -4.5852 C   0  0  0  0  0  0  0  0  0  0  0  0
    1.0453   -0.2185   -4.2913 H   0  0  0  0  0  0  0  0  0  0  0  0
   -0.6928   -0.2325   -4.6218 H   0  0  0  0  0  0  0  0  0  0  0  0
    0.4392    1.0614   -5.8934 N   0  3  0  0  0  0  0  0  0  0  0  0
    1.2708    1.6530   -5.8413 H   0  0  0  0  0  0  0  0  0  0  0  0
    0.5819    0.3515   -6.6151 H   0  0  0  0  0  0  0  0  0  0  0  0
   -0.3628    1.6399   -6.1515 H   0  0  0  0  0  0  0  0  0  0  0  0
   -0.7949    2.3504    1.3946 C   0  0  0  0  0  0  0  0  0  0  0  0
   -1.6338    3.2411    1.3562 O   0  0  0  0  0  0  0  0  0  0  0  0
    0.1173    2.3074    2.4319 N   0  0  0  0  0  0  0  0  0  0  0  0
    0.7128    1.4861    2.5012 H   0  0  0  0  0  0  0  0  0  0  0  0
    0.0902    3.2467    3.5486 C   0  0  0  0  0  0  0  0  0  0  0  0
   -0.8516    3.1601    4.1010 H   0  0  0  0  0  0  0  0  0  0  0  0
    0.9155    3.0416    4.2376 H   0  0  0  0  0  0  0  0  0  0  0  0
    0.1918    4.2760    3.1877 H   0  0  0  0  0  0  0  0  0  0  0  0
  1  2  1  0  0  0  0
  2  3  1  0  0  0  0
  2  4  1  0  0  0  0
  2  5  1  0  0  0  0
  5  6  2  0  0  0  0
  5  7  1  0  0  0  0
  7  8  1  0  0  0  0
  7  9  1  0  0  0  0
  9 10  1  0  0  0  0
  9 11  1  0  0  0  0
  9 27  1  0  0  0  0
 11 12  1  0  0  0  0
 11 13  1  0  0  0  0
 11 14  1  0  0  0  0
 14 15  1  0  0  0  0
 14 16  1  0  0  0  0
 14 17  1  0  0  0  0
 17 18  1  0  0  0  0
 17 19  1  0  0  0  0
 17 20  1  0  0  0  0
 20 21  1  0  0  0  0
 20 22  1  0  0  0  0
 20 23  1  0  0  0  0
 23 24  1  0  0  0  0
 23 25  1  0  0  0  0
 23 26  1  0  0  0  0
 27 28  2  0  0  0  0
 27 29  1  0  0  0  0
 29 30  1  0  0  0  0
 29 31  1  0  0  0  0
 31 32  1  0  0  0  0
 31 33  1  0  0  0  0
 31 34  1  0  0  0  0
M  CHG  1  23   1
M  END
$$$$

  -OEChem-01062216093D

 34 33  0     1  0  0  0  0  0999 V2000
   -3.5612   -2.2218    1.4950 H   0  0  0  0  0  0  0  0  0  0  0  0
   -3.6277   -1.2133    1.0769 C   0  0  0  0  0  0  0  0  0  0  0  0
   -4.0866   -0.5562    1.8199 H   0  0  0  0  0  0  0  0  0  0  0  0
   -4.2591   -1.2417    0.1858 H   0  0  0  0  0  0  0  0  0  0  0  0
   -2.2453   -0.7035    0.7185 C   0  0  0  0  0  0  0  0  0  0  0  0
   -1.2720   -1.4324    0.8257 O   0  0  0  0  0  0  0  0  0  0  0  0
   -2.0872    0.5792    0.2342 N   0  0  0  0  0  0  0  0  0  0  0  0
   -2.9092    1.1750    0.3318 H   0  0  0  0  0  0  0  0  0  0  0  0
   -0.7943    1.2834    0.2713 C   0  0  1  0  0  0  0  0  0  0  0  0
    0.0262    0.5932    0.4935 H   0  0  0  0  0  0  0  0  0  0  0  0
   -0.5349    1.9238   -1.1012 C   0  0  0  0  0  0  0  0  0  0  0  0
   -1.3890    2.5516   -1.3790 H   0  0  0  0  0  0  0  0  0  0  0  0
    0.3454    2.5720   -1.0332 H   0  0  0  0  0  0  0  0  0  0  0  0
   -0.2943    0.8516   -2.1755 C   0  0  0  0  0  0  0  0  0  0  0  0
    0.5534    0.2235   -1.8787 H   0  0  0  0  0  0  0  0  0  0  0  0
   -1.1759    0.2051   -2.2523 H   0  0  0  0  0  0  0  0  0  0  0  0
   -0.0120    1.4970   -3.5358 C   0  0  0  0  0  0  0  0  0  0  0  0
   -0.8584    2.1334   -3.8173 H   0  0  0  0  0  0  0  0  0  0  0  0
    0.8799    2.1289   -3.4622 H   0  0  0  0  0  0  0  0  0  0  0  0
    0.1988    0.4123   -4.5896 C   0  0  0  0  0  0  0  0  0  0  0  0
    1.0464   -0.2221   -4.2910 H   0  0  0  0  0  0  0  0  0  0  0  0
   -0.6907   -0.2340   -4.6265 H   0  0  0  0  0  0  0  0  0  0  0  0
    0.4460    1.0523   -5.9000 N   0  3  0  0  0  0  0  0  0  0  0  0
    1.2787    1.6424   -5.8490 H   0  0  0  0  0  0  0  0  0  0  0  0
    0.5888    0.3387   -6.6181 H   0  0  0  0  0  0  0  0  0  0  0  0
   -0.3545    1.6309   -6.1625 H   0  0  0  0  0  0  0  0  0  0  0  0
   -0.8052    2.3520    1.3822 C   0  0  0  0  0  0  0  0  0  0  0  0
   -1.7770    3.0906    1.4809 O   0  0  0  0  0  0  0  0  0  0  0  0
    0.2638    2.5003    2.2460 N   0  0  0  0  0  0  0  0  0  0  0  0
    0.9963    1.7961    2.2145 H   0  0  0  0  0  0  0  0  0  0  0  0
    0.2577    3.4504    3.3540 C   0  0  0  0  0  0  0  0  0  0  0  0
   -0.5460    3.2130    4.0594 H   0  0  0  0  0  0  0  0  0  0  0  0
    1.2107    3.4138    3.8910 H   0  0  0  0  0  0  0  0  0  0  0  0
    0.1104    4.4712    2.9850 H   0  0  0  0  0  0  0  0  0  0  0  0
  1  2  1  0  0  0  0
  2  3  1  0  0  0  0
  2  4  1  0  0  0  0
  2  5  1  0  0  0  0
  5  6  2  0  0  0  0
  5  7  1  0  0  0  0
  7  8  1  0  0  0  0
  7  9  1  0  0  0  0
  9 10  1  0  0  0  0
  9 11  1  0  0  0  0
  9 27  1  0  0  0  0
 11 12  1  0  0  0  0
 11 13  1  0  0  0  0
 11 14  1  0  0  0  0
 14 15  1  0  0  0  0
 14 16  1  0  0  0  0
 14 17  1  0  0  0  0
 17 18  1  0  0  0  0
 17 19  1  0  0  0  0
 17 20  1  0  0  0  0
 20 21  1  0  0  0  0
 20 22  1  0  0  0  0
 20 23  1  0  0  0  0
 23 24  1  0  0  0  0
 23 25  1  0  0  0  0
 23 26  1  0  0  0  0
 27 28  2  0  0  0  0
 27 29  1  0  0  0  0
 29 30  1  0  0  0  0
 29 31  1  0  0  0  0
 31 32  1  0  0  0  0
 31 33  1  0  0  0  0
 31 34  1  0  0  0  0
M  CHG  1  23   1
M  END
$$$$

  -OEChem-01062216093D

 34 33  0     1  0  0  0  0  0999 V2000
   -3.5305   -2.2027    1.5454 H   0  0  0  0  0  0  0  0  0  0  0  0
   -3.6155   -1.2038    1.1083 C   0  0  0  0  0  0  0  0  0  0  0  0
   -4.0464   -0.5312    1.8545 H   0  0  0  0  0  0  0  0  0  0  0  0
   -4.2814   -1.2524    0.2435 H   0  0  0  0  0  0  0  0  0  0  0  0
   -2.2488   -0.7004    0.6862 C   0  0  0  0  0  0  0  0  0  0  0  0
   -1.2785   -1.4404    0.7284 O   0  0  0  0  0  0  0  0  0  0  0  0
   -2.1035    0.5864    0.2091 N   0  0  0  0  0  0  0  0  0  0  0  0
   -2.9173    1.1810    0.3690 H   0  0  0  0  0  0  0  0  0  0  0  0
   -0.8120    1.2938    0.2574 C   0  0  1  0  0  0  0  0  0  0  0  0
    0.0075    0.6041    0.4852 H   0  0  0  0  0  0  0  0  0  0  0  0
   -0.5476    1.9347   -1.1140 C   0  0  0  0  0  0  0  0  0  0  0  0
   -1.4034    2.5577   -1.3969 H   0  0  0  0  0  0  0  0  0  0  0  0
    0.3298    2.5867   -1.0434 H   0  0  0  0  0  0  0  0  0  0  0  0
   -0.2983    0.8596   -2.1838 C   0  0  0  0  0  0  0  0  0  0  0  0
    0.5489    0.2348   -1.8790 H   0  0  0  0  0  0  0  0  0  0  0  0
   -1.1777    0.2105   -2.2629 H   0  0  0  0  0  0  0  0  0  0  0  0
   -0.0105    1.4981   -3.5461 C   0  0  0  0  0  0  0  0  0  0  0  0
   -0.8572    2.1304   -3.8358 H   0  0  0  0  0  0  0  0  0  0  0  0
    0.8793    2.1329   -3.4719 H   0  0  0  0  0  0  0  0  0  0  0  0
    0.2084    0.4074   -4.5925 C   0  0  0  0  0  0  0  0  0  0  0  0
    1.0560   -0.2237   -4.2865 H   0  0  0  0  0  0  0  0  0  0  0  0
   -0.6794   -0.2413   -4.6291 H   0  0  0  0  0  0  0  0  0  0  0  0
    0.4608    1.0397   -5.9057 N   0  3  0  0  0  0  0  0  0  0  0  0
    1.2948    1.6279   -5.8558 H   0  0  0  0  0  0  0  0  0  0  0  0
    0.6035    0.3218   -6.6197 H   0  0  0  0  0  0  0  0  0  0  0  0
   -0.3377    1.6186   -6.1731 H   0  0  0  0  0  0  0  0  0  0  0  0
   -0.8249    2.3571    1.3748 C   0  0  0  0  0  0  0  0  0  0  0  0
   -1.8752    2.9299    1.6379 O   0  0  0  0  0  0  0  0  0  0  0  0
    0.3351    2.7120    2.0378 N   0  0  0  0  0  0  0  0  0  0  0  0
    1.1633    2.1463    1.8748 H   0  0  0  0  0  0  0  0  0  0  0  0
    0.3529    3.6734    3.1359 C   0  0  0  0  0  0  0  0  0  0  0  0
   -0.2730    3.3237    3.9640 H   0  0  0  0  0  0  0  0  0  0  0  0
    1.3737    3.8069    3.5074 H   0  0  0  0  0  0  0  0  0  0  0  0
   -0.0217    4.6468    2.8009 H   0  0  0  0  0  0  0  0  0  0  0  0
  1  2  1  0  0  0  0
  2  3  1  0  0  0  0
  2  4  1  0  0  0  0
  2  5  1  0  0  0  0
  5  6  2  0  0  0  0
  5  7  1  0  0  0  0
  7  8  1  0  0  0  0
  7  9  1  0  0  0  0
  9 10  1  0  0  0  0
  9 11  1  0  0  0  0
  9 27  1  0  0  0  0
 11 12  1  0  0  0  0
 11 13  1  0  0  0  0
 11 14  1  0  0  0  0
 14 15  1  0  0  0  0
 14 16  1  0  0  0  0
 14 17  1  0  0  0  0
 17 18  1  0  0  0  0
 17 19  1  0  0  0  0
 17 20  1  0  0  0  0
 20 21  1  0  0  0  0
 20 22  1  0  0  0  0
 20 23  1  0  0  0  0
 23 24  1  0  0  0  0
 23 25  1  0  0  0  0
 23 26  1  0  0  0  0
 27 28  2  0  0  0  0
 27 29  1  0  0  0  0
 29 30  1  0  0  0  0
 29 31  1  0  0  0  0
 31 32  1  0  0  0  0
 31 33  1  0  0  0  0
 31 34  1  0  0  0  0
M  CHG  1  23   1
M  END
$$$$

  -OEChem-01062216093D

 34 33  0     1  0  0  0  0  0999 V2000
   -3.5066   -2.1965    1.5522 H   0  0  0  0  0  0  0  0  0  0  0  0
   -3.6049   -1.2010    1.1102 C   0  0  0  0  0  0  0  0  0  0  0  0
   -4.0206   -0.5248    1.8617 H   0  0  0  0  0  0  0  0  0  0  0  0
   -4.2904   -1.2571    0.2612 H   0  0  0  0  0  0  0  0  0  0  0  0
   -2.2498   -0.6961    0.6536 C   0  0  0  0  0  0  0  0  0  0  0  0
   -1.2826   -1.4417    0.6485 O   0  0  0  0  0  0  0  0  0  0  0  0
   -2.1148    0.5959    0.1878 N   0  0  0  0  0  0  0  0  0  0  0  0
   -2.9241    1.1843    0.3897 H   0  0  0  0  0  0  0  0  0  0  0  0
   -0.8243    1.3059    0.2499 C   0  0  1  0  0  0  0  0  0  0  0  0
   -0.0047    0.6169    0.4803 H   0  0  0  0  0  0  0  0  0  0  0  0
   -0.5588    1.9487   -1.1212 C   0  0  0  0  0  0  0  0  0  0  0  0
   -1.4164    2.5677   -1.4075 H   0  0  0  0  0  0  0  0  0  0  0  0
    0.3161    2.6038   -1.0522 H   0  0  0  0  0  0  0  0  0  0  0  0
   -0.3030    0.8704   -2.1872 C   0  0  0  0  0  0  0  0  0  0  0  0
    0.5452    0.2493   -1.8774 H   0  0  0  0  0  0  0  0  0  0  0  0
   -1.1800    0.2179   -2.2660 H   0  0  0  0  0  0  0  0  0  0  0  0
   -0.0130    1.5000   -3.5533 C   0  0  0  0  0  0  0  0  0  0  0  0
   -0.8604    2.1278   -3.8504 H   0  0  0  0  0  0  0  0  0  0  0  0
    0.8753    2.1372   -3.4820 H   0  0  0  0  0  0  0  0  0  0  0  0
    0.2107    0.3993   -4.5885 C   0  0  0  0  0  0  0  0  0  0  0  0
    1.0582   -0.2269   -4.2729 H   0  0  0  0  0  0  0  0  0  0  0  0
   -0.6759   -0.2513   -4.6208 H   0  0  0  0  0  0  0  0  0  0  0  0
    0.4657    1.0168   -5.9081 N   0  3  0  0  0  0  0  0  0  0  0  0
    1.2987    1.6069   -5.8633 H   0  0  0  0  0  0  0  0  0  0  0  0
    0.6112    0.2907   -6.6132 H   0  0  0  0  0  0  0  0  0  0  0  0
   -0.3331    1.5912   -6.1845 H   0  0  0  0  0  0  0  0  0  0  0  0
   -0.8389    2.3611    1.3774 C   0  0  0  0  0  0  0  0  0  0  0  0
   -1.9127    2.7628    1.8095 O   0  0  0  0  0  0  0  0  0  0  0  0
    0.3347    2.9327    1.8340 N   0  0  0  0  0  0  0  0  0  0  0  0
    1.2108    2.5186    1.5295 H   0  0  0  0  0  0  0  0  0  0  0  0
    0.3658    3.9154    2.9132 C   0  0  0  0  0  0  0  0  0  0  0  0
   -0.0420    3.4868    3.8350 H   0  0  0  0  0  0  0  0  0  0  0  0
    1.3943    4.2357    3.1066 H   0  0  0  0  0  0  0  0  0  0  0  0
   -0.2249    4.7982    2.6459 H   0  0  0  0  0  0  0  0  0  0  0  0
  1  2  1  0  0  0  0
  2  3  1  0  0  0  0
  2  4  1  0  0  0  0
  2  5  1  0  0  0  0
  5  6  2  0  0  0  0
  5  7  1  0  0  0  0
  7  8  1  0  0  0  0
  7  9  1  0  0  0  0
  9 10  1  0  0  0  0
  9 11  1  0  0  0  0
  9 27  1  0  0  0  0
 11 12  1  0  0  0  0
 11 13  1  0  0  0  0
 11 14  1  0  0  0  0
 14 15  1  0  0  0  0
 14 16  1  0  0  0  0
 14 17  1  0  0  0  0
 17 18  1  0  0  0  0
 17 19  1  0  0  0  0
 17 20  1  0  0  0  0
 20 21  1  0  0  0  0
 20 22  1  0  0  0  0
 20 23  1  0  0  0  0
 23 24  1  0  0  0  0
 23 25  1  0  0  0  0
 23 26  1  0  0  0  0
 27 28  2  0  0  0  0
 27 29  1  0  0  0  0
 29 30  1  0  0  0  0
 29 31  1  0  0  0  0
 31 32  1  0  0  0  0
 31 33  1  0  0  0  0
 31 34  1  0  0  0  0
M  CHG  1  23   1
M  END
$$$$

  -OEChem-01062216093D

 34 33  0     1  0  0  0  0  0999 V2000
   -3.4435   -2.2484    1.5106 H   0  0  0  0  0  0  0  0  0  0  0  0
   -3.5568   -1.2193    1.1586 C   0  0  0  0  0  0  0  0  0  0  0  0
   -3.8998   -0.6010    1.9922 H   0  0  0  0  0  0  0  0  0  0  0  0
   -4.3065   -1.1983    0.3644 H   0  0  0  0  0  0  0  0  0  0  0  0
   -2.2315   -0.6963    0.6395 C   0  0  0  0  0  0  0  0  0  0  0  0
   -1.2554   -1.4283    0.5932 O   0  0  0  0  0  0  0  0  0  0  0  0
   -2.1347    0.6009    0.1747 N   0  0  0  0  0  0  0  0  0  0  0  0
   -2.9425    1.1641    0.4353 H   0  0  0  0  0  0  0  0  0  0  0  0
   -0.8481    1.3191    0.2442 C   0  0  1  0  0  0  0  0  0  0  0  0
   -0.0053    0.6208    0.2000 H   0  0  0  0  0  0  0  0  0  0  0  0
   -0.7643    2.2592   -0.9724 C   0  0  0  0  0  0  0  0  0  0  0  0
   -1.6539    2.8981   -1.0031 H   0  0  0  0  0  0  0  0  0  0  0  0
    0.1092    2.9114   -0.8711 H   0  0  0  0  0  0  0  0  0  0  0  0
   -0.6401    1.4563   -2.2784 C   0  0  0  0  0  0  0  0  0  0  0  0
    0.2453    0.8127   -2.2243 H   0  0  0  0  0  0  0  0  0  0  0  0
   -1.5154    0.8071   -2.3939 H   0  0  0  0  0  0  0  0  0  0  0  0
   -0.5314    2.3855   -3.4924 C   0  0  0  0  0  0  0  0  0  0  0  0
   -1.4146    3.0329   -3.5333 H   0  0  0  0  0  0  0  0  0  0  0  0
    0.3538    3.0227   -3.3890 H   0  0  0  0  0  0  0  0  0  0  0  0
   -0.4347    1.5528   -4.7698 C   0  0  0  0  0  0  0  0  0  0  0  0
    0.4499    0.9014   -4.7102 H   0  0  0  0  0  0  0  0  0  0  0  0
   -1.3142    0.8956   -4.8387 H   0  0  0  0  0  0  0  0  0  0  0  0
   -0.3543    2.4556   -5.9390 N   0  3  0  0  0  0  0  0  0  0  0  0
    0.4719    3.0521   -5.8640 H   0  0  0  0  0  0  0  0  0  0  0  0
   -0.2907    1.9088   -6.8008 H   0  0  0  0  0  0  0  0  0  0  0  0
   -1.1871    3.0463   -5.9827 H   0  0  0  0  0  0  0  0  0  0  0  0
   -0.7119    2.0899    1.5799 C   0  0  0  0  0  0  0  0  0  0  0  0
   -1.6773    2.1768    2.3293 O   0  0  0  0  0  0  0  0  0  0  0  0
    0.4209    2.8334    1.8608 N   0  0  0  0  0  0  0  0  0  0  0  0
    1.2384    2.6818    1.2779 H   0  0  0  0  0  0  0  0  0  0  0  0
    0.5828    3.5844    3.1025 C   0  0  0  0  0  0  0  0  0  0  0  0
    0.5419    2.9115    3.9660 H   0  0  0  0  0  0  0  0  0  0  0  0
    1.5477    4.1009    3.1116 H   0  0  0  0  0  0  0  0  0  0  0  0
   -0.2091    4.3344    3.2051 H   0  0  0  0  0  0  0  0  0  0  0  0
  1  2  1  0  0  0  0
  2  3  1  0  0  0  0
  2  4  1  0  0  0  0
  2  5  1  0  0  0  0
  5  6  2  0  0  0  0
  5  7  1  0  0  0  0
  7  8  1  0  0  0  0
  7  9  1  0  0  0  0
  9 10  1  0  0  0  0
  9 11  1  0  0  0  0
  9 27  1  0  0  0  0
 11 12  1  0  0  0  0
 11 13  1  0  0  0  0
 11 14  1  0  0  0  0
 14 15  1  0  0  0  0
 14 16  1  0  0  0  0
 14 17  1  0  0  0  0
 17 18  1  0  0  0  0
 17 19  1  0  0  0  0
 17 20  1  0  0  0  0
 20 21  1  0  0  0  0
 20 22  1  0  0  0  0
 20 23  1  0  0  0  0
 23 24  1  0  0  0  0
 23 25  1  0  0  0  0
 23 26  1  0  0  0  0
 27 28  2  0  0  0  0
 27 29  1  0  0  0  0
 29 30  1  0  0  0  0
 29 31  1  0  0  0  0
 31 32  1  0  0  0  0
 31 33  1  0  0  0  0
 31 34  1  0  0  0  0
M  CHG  1  23   1
M  END
$$$$

  -OEChem-01062216093D

 34 33  0     1  0  0  0  0  0999 V2000
   -3.4142   -2.2414    1.4845 H   0  0  0  0  0  0  0  0  0  0  0  0
   -3.5341   -1.2008    1.1700 C   0  0  0  0  0  0  0  0  0  0  0  0
   -3.8248   -0.6044    2.0389 H   0  0  0  0  0  0  0  0  0  0  0  0
   -4.3244   -1.1481    0.4179 H   0  0  0  0  0  0  0  0  0  0  0  0
   -2.2320   -0.6750    0.5983 C   0  0  0  0  0  0  0  0  0  0  0  0
   -1.2666   -1.4136    0.4806 O   0  0  0  0  0  0  0  0  0  0  0  0
   -2.1482    0.6310    0.1556 N   0  0  0  0  0  0  0  0  0  0  0  0
   -2.9536    1.1826    0.4451 H   0  0  0  0  0  0  0  0  0  0  0  0
   -0.8608    1.3487    0.2333 C   0  0  1  0  0  0  0  0  0  0  0  0
   -0.0181    0.6504    0.1850 H   0  0  0  0  0  0  0  0  0  0  0  0
   -0.7751    2.2856   -0.9872 C   0  0  0  0  0  0  0  0  0  0  0  0
   -1.6659    2.9223   -1.0241 H   0  0  0  0  0  0  0  0  0  0  0  0
    0.0980    2.9389   -0.8928 H   0  0  0  0  0  0  0  0  0  0  0  0
   -0.6458    1.4706   -2.2857 C   0  0  0  0  0  0  0  0  0  0  0  0
    0.2398    0.8277   -2.2226 H   0  0  0  0  0  0  0  0  0  0  0  0
   -1.5200    0.8194   -2.3973 H   0  0  0  0  0  0  0  0  0  0  0  0
   -0.5344    2.3837   -3.5108 C   0  0  0  0  0  0  0  0  0  0  0  0
   -1.4176    3.0299   -3.5638 H   0  0  0  0  0  0  0  0  0  0  0  0
    0.3509    3.0216   -3.4142 H   0  0  0  0  0  0  0  0  0  0  0  0
   -0.4332    1.5305   -4.7744 C   0  0  0  0  0  0  0  0  0  0  0  0
    0.4522    0.8815   -4.7014 H   0  0  0  0  0  0  0  0  0  0  0  0
   -1.3116    0.8707   -4.8351 H   0  0  0  0  0  0  0  0  0  0  0  0
   -0.3500    2.4130   -5.9585 N   0  3  0  0  0  0  0  0  0  0  0  0
    0.4751    3.0121   -5.8915 H   0  0  0  0  0  0  0  0  0  0  0  0
   -0.2831    1.8513   -6.8105 H   0  0  0  0  0  0  0  0  0  0  0  0
   -1.1836    3.0013   -6.0151 H   0  0  0  0  0  0  0  0  0  0  0  0
   -0.7190    2.0954    1.5854 C   0  0  0  0  0  0  0  0  0  0  0  0
   -1.5740    1.9499    2.4503 O   0  0  0  0  0  0  0  0  0  0  0  0
    0.2458    3.0705    1.7720 N   0  0  0  0  0  0  0  0  0  0  0  0
    0.9913    3.1319    1.0860 H   0  0  0  0  0  0  0  0  0  0  0  0
    0.3862    3.8163    3.0197 C   0  0  0  0  0  0  0  0  0  0  0  0
    0.5951    3.1357    3.8523 H   0  0  0  0  0  0  0  0  0  0  0  0
    1.2096    4.5330    2.9440 H   0  0  0  0  0  0  0  0  0  0  0  0
   -0.5318    4.3712    3.2419 H   0  0  0  0  0  0  0  0  0  0  0  0
  1  2  1  0  0  0  0
  2  3  1  0  0  0  0
  2  4  1  0  0  0  0
  2  5  1  0  0  0  0
  5  6  2  0  0  0  0
  5  7  1  0  0  0  0
  7  8  1  0  0  0  0
  7  9  1  0  0  0  0
  9 10  1  0  0  0  0
  9 11  1  0  0  0  0
  9 27  1  0  0  0  0
 11 12  1  0  0  0  0
 11 13  1  0  0  0  0
 11 14  1  0  0  0  0
 14 15  1  0  0  0  0
 14 16  1  0  0  0  0
 14 17  1  0  0  0  0
 17 18  1  0  0  0  0
 17 19  1  0  0  0  0
 17 20  1  0  0  0  0
 20 21  1  0  0  0  0
 20 22  1  0  0  0  0
 20 23  1  0  0  0  0
 23 24  1  0  0  0  0
 23 25  1  0  0  0  0
 23 26  1  0  0  0  0
 27 28  2  0  0  0  0
 27 29  1  0  0  0  0
 29 30  1  0  0  0  0
 29 31  1  0  0  0  0
 31 32  1  0  0  0  0
 31 33  1  0  0  0  0
 31 34  1  0  0  0  0
M  CHG  1  23   1
M  END
$$$$

  -OEChem-01062216093D

 34 33  0     1  0  0  0  0  0999 V2000
   -3.3831   -2.2328    1.4640 H   0  0  0  0  0  0  0  0  0  0  0  0
   -3.5126   -1.1842    1.1814 C   0  0  0  0  0  0  0  0  0  0  0  0
   -3.7608   -0.6094    2.0776 H   0  0  0  0  0  0  0  0  0  0  0  0
   -4.3355   -1.1095    0.4671 H   0  0  0  0  0  0  0  0  0  0  0  0
   -2.2346   -0.6492    0.5656 C   0  0  0  0  0  0  0  0  0  0  0  0
   -1.2842   -1.3917    0.3732 O   0  0  0  0  0  0  0  0  0  0  0  0
   -2.1636    0.6649    0.1439 N   0  0  0  0  0  0  0  0  0  0  0  0
   -2.9666    1.2061    0.4572 H   0  0  0  0  0  0  0  0  0  0  0  0
   -0.8762    1.3834    0.2209 C   0  0  1  0  0  0  0  0  0  0  0  0
   -0.0344    0.6836    0.1703 H   0  0  0  0  0  0  0  0  0  0  0  0
   -0.7854    2.3125   -1.0057 C   0  0  0  0  0  0  0  0  0  0  0  0
   -1.6739    2.9514   -1.0523 H   0  0  0  0  0  0  0  0  0  0  0  0
    0.0911    2.9614   -0.9165 H   0  0  0  0  0  0  0  0  0  0  0  0
   -0.6519    1.4819   -2.2947 C   0  0  0  0  0  0  0  0  0  0  0  0
    0.2318    0.8378   -2.2204 H   0  0  0  0  0  0  0  0  0  0  0  0
   -1.5265    0.8303   -2.4025 H   0  0  0  0  0  0  0  0  0  0  0  0
   -0.5345    2.3776   -3.5318 C   0  0  0  0  0  0  0  0  0  0  0  0
   -1.4159    3.0252   -3.5977 H   0  0  0  0  0  0  0  0  0  0  0  0
    0.3522    3.0147   -3.4411 H   0  0  0  0  0  0  0  0  0  0  0  0
   -0.4297    1.5045   -4.7815 C   0  0  0  0  0  0  0  0  0  0  0  0
    0.4547    0.8557   -4.6946 H   0  0  0  0  0  0  0  0  0  0  0  0
   -1.3084    0.8445   -4.8346 H   0  0  0  0  0  0  0  0  0  0  0  0
   -0.3406    2.3675   -5.9794 N   0  3  0  0  0  0  0  0  0  0  0  0
    0.4847    2.9668   -5.9187 H   0  0  0  0  0  0  0  0  0  0  0  0
   -0.2703    1.7917   -6.8216 H   0  0  0  0  0  0  0  0  0  0  0  0
   -1.1735    2.9553   -6.0494 H   0  0  0  0  0  0  0  0  0  0  0  0
   -0.7253    2.1061    1.5865 C   0  0  0  0  0  0  0  0  0  0  0  0
   -1.4042    1.7436    2.5383 O   0  0  0  0  0  0  0  0  0  0  0  0
    0.0073    3.2738    1.7190 N   0  0  0  0  0  0  0  0  0  0  0  0
    0.6005    3.5519    0.9445 H   0  0  0  0  0  0  0  0  0  0  0  0
    0.1224    3.9994    2.9816 C   0  0  0  0  0  0  0  0  0  0  0  0
    0.5724    3.3622    3.7509 H   0  0  0  0  0  0  0  0  0  0  0  0
    0.7516    4.8860    2.8559 H   0  0  0  0  0  0  0  0  0  0  0  0
   -0.8638    4.3250    3.3298 H   0  0  0  0  0  0  0  0  0  0  0  0
  1  2  1  0  0  0  0
  2  3  1  0  0  0  0
  2  4  1  0  0  0  0
  2  5  1  0  0  0  0
  5  6  2  0  0  0  0
  5  7  1  0  0  0  0
  7  8  1  0  0  0  0
  7  9  1  0  0  0  0
  9 10  1  0  0  0  0
  9 11  1  0  0  0  0
  9 27  1  0  0  0  0
 11 12  1  0  0  0  0
 11 13  1  0  0  0  0
 11 14  1  0  0  0  0
 14 15  1  0  0  0  0
 14 16  1  0  0  0  0
 14 17  1  0  0  0  0
 17 18  1  0  0  0  0
 17 19  1  0  0  0  0
 17 20  1  0  0  0  0
 20 21  1  0  0  0  0
 20 22  1  0  0  0  0
 20 23  1  0  0  0  0
 23 24  1  0  0  0  0
 23 25  1  0  0  0  0
 23 26  1  0  0  0  0
 27 28  2  0  0  0  0
 27 29  1  0  0  0  0
 29 30  1  0  0  0  0
 29 31  1  0  0  0  0
 31 32  1  0  0  0  0
 31 33  1  0  0  0  0
 31 34  1  0  0  0  0
M  CHG  1  23   1
M  END
$$$$

  -OEChem-01062216093D

 34 33  0     1  0  0  0  0  0999 V2000
   -3.3740   -2.2383    1.4311 H   0  0  0  0  0  0  0  0  0  0  0  0
   -3.4997   -1.1775    1.1969 C   0  0  0  0  0  0  0  0  0  0  0  0
   -3.7015   -0.6371    2.1255 H   0  0  0  0  0  0  0  0  0  0  0  0
   -4.3505   -1.0634    0.5215 H   0  0  0  0  0  0  0  0  0  0  0  0
   -2.2401   -0.6342    0.5507 C   0  0  0  0  0  0  0  0  0  0  0  0
   -1.3014   -1.3768    0.3087 O   0  0  0  0  0  0  0  0  0  0  0  0
   -2.1801    0.6851    0.1424 N   0  0  0  0  0  0  0  0  0  0  0  0
   -2.9858    1.2187    0.4595 H   0  0  0  0  0  0  0  0  0  0  0  0
   -0.8941    1.4075    0.2117 C   0  0  1  0  0  0  0  0  0  0  0  0
   -0.0537    0.7061    0.1586 H   0  0  0  0  0  0  0  0  0  0  0  0
   -0.7944    2.3319   -1.0179 C   0  0  0  0  0  0  0  0  0  0  0  0
   -1.6801    2.9740   -1.0733 H   0  0  0  0  0  0  0  0  0  0  0  0
    0.0866    2.9750   -0.9256 H   0  0  0  0  0  0  0  0  0  0  0  0
   -0.6561    1.4920   -2.3012 C   0  0  0  0  0  0  0  0  0  0  0  0
    0.2257    0.8462   -2.2164 H   0  0  0  0  0  0  0  0  0  0  0  0
   -1.5317    0.8414   -2.4074 H   0  0  0  0  0  0  0  0  0  0  0  0
   -0.5290    2.3745   -3.5472 C   0  0  0  0  0  0  0  0  0  0  0  0
   -1.4082    3.0233   -3.6251 H   0  0  0  0  0  0  0  0  0  0  0  0
    0.3590    3.0099   -3.4586 H   0  0  0  0  0  0  0  0  0  0  0  0
   -0.4201    1.4875   -4.7873 C   0  0  0  0  0  0  0  0  0  0  0  0
    0.4615    0.8367   -4.6891 H   0  0  0  0  0  0  0  0  0  0  0  0
   -1.3007    0.8300   -4.8383 H   0  0  0  0  0  0  0  0  0  0  0  0
   -0.3215    2.3365   -5.9947 N   0  3  0  0  0  0  0  0  0  0  0  0
    0.5050    2.9344   -5.9359 H   0  0  0  0  0  0  0  0  0  0  0  0
   -0.2472    1.7508   -6.8297 H   0  0  0  0  0  0  0  0  0  0  0  0
   -1.1525    2.9253   -6.0770 H   0  0  0  0  0  0  0  0  0  0  0  0
   -0.7318    2.1146    1.5834 C   0  0  0  0  0  0  0  0  0  0  0  0
   -1.1714    1.5775    2.5902 O   0  0  0  0  0  0  0  0  0  0  0  0
   -0.2774    3.4185    1.6903 N   0  0  0  0  0  0  0  0  0  0  0  0
    0.0765    3.8711    0.8546 H   0  0  0  0  0  0  0  0  0  0  0  0
   -0.1916    4.1304    2.9629 C   0  0  0  0  0  0  0  0  0  0  0  0
    0.4709    3.6003    3.6557 H   0  0  0  0  0  0  0  0  0  0  0  0
    0.2054    5.1386    2.8097 H   0  0  0  0  0  0  0  0  0  0  0  0
   -1.1821    4.2168    3.4226 H   0  0  0  0  0  0  0  0  0  0  0  0
  1  2  1  0  0  0  0
  2  3  1  0  0  0  0
  2  4  1  0  0  0  0
  2  5  1  0  0  0  0
  5  6  2  0  0  0  0
  5  7  1  0  0  0  0
  7  8  1  0  0  0  0
  7  9  1  0  0  0  0
  9 10  1  0  0  0  0
  9 11  1  0  0  0  0
  9 27  1  0  0  0  0
 11 12  1  0  0  0  0
 11 13  1  0  0  0  0
 11 14  1  0  0  0  0
 14 15  1  0  0  0  0
 14 16  1  0  0  0  0
 14 17  1  0  0  0  0
 17 18  1  0  0  0  0
 17 19  1  0  0  0  0
 17 20  1  0  0  0  0
 20 21  1  0  0  0  0
 20 22  1  0  0  0  0
 20 23  1  0  0  0  0
 23 24  1  0  0  0  0
 23 25  1  0  0  0  0
 23 26  1  0  0  0  0
 27 28  2  0  0  0  0
 27 29  1  0  0  0  0
 29 30  1  0  0  0  0
 29 31  1  0  0  0  0
 31 32  1  0  0  0  0
 31 33  1  0  0  0  0
 31 34  1  0  0  0  0
M  CHG  1  23   1
M  END
$$$$

  -OEChem-01062216093D

 34 33  0     1  0  0  0  0  0999 V2000
   -3.3719   -2.2442    1.4203 H   0  0  0  0  0  0  0  0  0  0  0  0
   -3.4981   -1.1801    1.2009 C   0  0  0  0  0  0  0  0  0  0  0  0
   -3.6917   -0.6516    2.1381 H   0  0  0  0  0  0  0  0  0  0  0  0
   -4.3542   -1.0560    0.5340 H   0  0  0  0  0  0  0  0  0  0  0  0
   -2.2432   -0.6301    0.5513 C   0  0  0  0  0  0  0  0  0  0  0  0
   -1.3076   -1.3704    0.2924 O   0  0  0  0  0  0  0  0  0  0  0  0
   -2.1912    0.6907    0.1464 N   0  0  0  0  0  0  0  0  0  0  0  0
   -3.0041    1.2197    0.4515 H   0  0  0  0  0  0  0  0  0  0  0  0
   -0.9095    1.4202    0.2076 C   0  0  1  0  0  0  0  0  0  0  0  0
   -0.0680    0.7197    0.1550 H   0  0  0  0  0  0  0  0  0  0  0  0
   -0.8032    2.3424   -1.0220 C   0  0  0  0  0  0  0  0  0  0  0  0
   -1.6894    2.9830   -1.0860 H   0  0  0  0  0  0  0  0  0  0  0  0
    0.0773    2.9858   -0.9218 H   0  0  0  0  0  0  0  0  0  0  0  0
   -0.6580    1.4985   -2.3011 C   0  0  0  0  0  0  0  0  0  0  0  0
    0.2238    0.8537   -2.2091 H   0  0  0  0  0  0  0  0  0  0  0  0
   -1.5324    0.8469   -2.4094 H   0  0  0  0  0  0  0  0  0  0  0  0
   -0.5236    2.3762   -3.5495 C   0  0  0  0  0  0  0  0  0  0  0  0
   -1.4013    3.0263   -3.6355 H   0  0  0  0  0  0  0  0  0  0  0  0
    0.3649    3.0108   -3.4584 H   0  0  0  0  0  0  0  0  0  0  0  0
   -0.4082    1.4823   -4.7838 C   0  0  0  0  0  0  0  0  0  0  0  0
    0.4715    0.8305   -4.6759 H   0  0  0  0  0  0  0  0  0  0  0  0
   -1.2896    0.8260   -4.8358 H   0  0  0  0  0  0  0  0  0  0  0  0
   -0.3019    2.3232   -5.9961 N   0  3  0  0  0  0  0  0  0  0  0  0
    0.5277    2.9169   -5.9381 H   0  0  0  0  0  0  0  0  0  0  0  0
   -0.2276    1.7316   -6.8271 H   0  0  0  0  0  0  0  0  0  0  0  0
   -1.1294    2.9160   -6.0853 H   0  0  0  0  0  0  0  0  0  0  0  0
   -0.7400    2.1242    1.5770 C   0  0  0  0  0  0  0  0  0  0  0  0
   -0.9094    1.4840    2.6035 O   0  0  0  0  0  0  0  0  0  0  0  0
   -0.5918    3.4971    1.6807 N   0  0  0  0  0  0  0  0  0  0  0  0
   -0.5009    4.0341    0.8252 H   0  0  0  0  0  0  0  0  0  0  0  0
   -0.5303    4.1978    2.9607 C   0  0  0  0  0  0  0  0  0  0  0  0
    0.3051    3.8247    3.5632 H   0  0  0  0  0  0  0  0  0  0  0  0
   -0.3871    5.2710    2.8013 H   0  0  0  0  0  0  0  0  0  0  0  0
   -1.4594    4.0533    3.5228 H   0  0  0  0  0  0  0  0  0  0  0  0
  1  2  1  0  0  0  0
  2  3  1  0  0  0  0
  2  4  1  0  0  0  0
  2  5  1  0  0  0  0
  5  6  2  0  0  0  0
  5  7  1  0  0  0  0
  7  8  1  0  0  0  0
  7  9  1  0  0  0  0
  9 10  1  0  0  0  0
  9 11  1  0  0  0  0
  9 27  1  0  0  0  0
 11 12  1  0  0  0  0
 11 13  1  0  0  0  0
 11 14  1  0  0  0  0
 14 15  1  0  0  0  0
 14 16  1  0  0  0  0
 14 17  1  0  0  0  0
 17 18  1  0  0  0  0
 17 19  1  0  0  0  0
 17 20  1  0  0  0  0
 20 21  1  0  0  0  0
 20 22  1  0  0  0  0
 20 23  1  0  0  0  0
 23 24  1  0  0  0  0
 23 25  1  0  0  0  0
 23 26  1  0  0  0  0
 27 28  2  0  0  0  0
 27 29  1  0  0  0  0
 29 30  1  0  0  0  0
 29 31  1  0  0  0  0
 31 32  1  0  0  0  0
 31 33  1  0  0  0  0
 31 34  1  0  0  0  0
M  CHG  1  23   1
M  END
$$$$

  -OEChem-01062216093D

 34 33  0     1  0  0  0  0  0999 V2000
   -3.3779   -2.2563    1.4159 H   0  0  0  0  0  0  0  0  0  0  0  0
   -3.5134   -1.1967    1.1807 C   0  0  0  0  0  0  0  0  0  0  0  0
   -3.7475   -0.6623    2.1049 H   0  0  0  0  0  0  0  0  0  0  0  0
   -4.3482   -1.0940    0.4837 H   0  0  0  0  0  0  0  0  0  0  0  0
   -2.2459   -0.6342    0.5671 C   0  0  0  0  0  0  0  0  0  0  0  0
   -1.3004   -1.3683    0.3299 O   0  0  0  0  0  0  0  0  0  0  0  0
   -2.1975    0.6860    0.1585 N   0  0  0  0  0  0  0  0  0  0  0  0
   -3.0210    1.2122    0.4380 H   0  0  0  0  0  0  0  0  0  0  0  0
   -0.9218    1.4261    0.2130 C   0  0  1  0  0  0  0  0  0  0  0  0
   -0.0767    0.7293    0.1614 H   0  0  0  0  0  0  0  0  0  0  0  0
   -0.8137    2.3464   -1.0166 C   0  0  0  0  0  0  0  0  0  0  0  0
   -1.7027    2.9817   -1.0877 H   0  0  0  0  0  0  0  0  0  0  0  0
    0.0620    2.9955   -0.9086 H   0  0  0  0  0  0  0  0  0  0  0  0
   -0.6594    1.5014   -2.2935 C   0  0  0  0  0  0  0  0  0  0  0  0
    0.2241    0.8596   -2.1968 H   0  0  0  0  0  0  0  0  0  0  0  0
   -1.5313    0.8466   -2.4045 H   0  0  0  0  0  0  0  0  0  0  0  0
   -0.5226    2.3783   -3.5421 C   0  0  0  0  0  0  0  0  0  0  0  0
   -1.4025    3.0247   -3.6327 H   0  0  0  0  0  0  0  0  0  0  0  0
    0.3627    3.0166   -3.4469 H   0  0  0  0  0  0  0  0  0  0  0  0
   -0.3976    1.4839   -4.7753 C   0  0  0  0  0  0  0  0  0  0  0  0
    0.4850    0.8367   -4.6626 H   0  0  0  0  0  0  0  0  0  0  0  0
   -1.2751    0.8229   -4.8312 H   0  0  0  0  0  0  0  0  0  0  0  0
   -0.2889    2.3240   -5.9881 N   0  3  0  0  0  0  0  0  0  0  0  0
    0.5415    2.9167   -5.9295 H   0  0  0  0  0  0  0  0  0  0  0  0
   -0.2139    1.7316   -6.8185 H   0  0  0  0  0  0  0  0  0  0  0  0
   -1.1154    2.9178   -6.0785 H   0  0  0  0  0  0  0  0  0  0  0  0
   -0.7492    2.1380    1.5750 C   0  0  0  0  0  0  0  0  0  0  0  0
   -0.6189    1.4715    2.5889 O   0  0  0  0  0  0  0  0  0  0  0  0
   -0.9161    3.5067    1.7028 N   0  0  0  0  0  0  0  0  0  0  0  0
   -1.0748    4.0496    0.8609 H   0  0  0  0  0  0  0  0  0  0  0  0
   -0.8600    4.1995    2.9873 C   0  0  0  0  0  0  0  0  0  0  0  0
    0.1096    4.0352    3.4699 H   0  0  0  0  0  0  0  0  0  0  0  0
   -0.9962    5.2761    2.8462 H   0  0  0  0  0  0  0  0  0  0  0  0
   -1.6491    3.8365    3.6547 H   0  0  0  0  0  0  0  0  0  0  0  0
  1  2  1  0  0  0  0
  2  3  1  0  0  0  0
  2  4  1  0  0  0  0
  2  5  1  0  0  0  0
  5  6  2  0  0  0  0
  5  7  1  0  0  0  0
  7  8  1  0  0  0  0
  7  9  1  0  0  0  0
  9 10  1  0  0  0  0
  9 11  1  0  0  0  0
  9 27  1  0  0  0  0
 11 12  1  0  0  0  0
 11 13  1  0  0  0  0
 11 14  1  0  0  0  0
 14 15  1  0  0  0  0
 14 16  1  0  0  0  0
 14 17  1  0  0  0  0
 17 18  1  0  0  0  0
 17 19  1  0  0  0  0
 17 20  1  0  0  0  0
 20 21  1  0  0  0  0
 20 22  1  0  0  0  0
 20 23  1  0  0  0  0
 23 24  1  0  0  0  0
 23 25  1  0  0  0  0
 23 26  1  0  0  0  0
 27 28  2  0  0  0  0
 27 29  1  0  0  0  0
 29 30  1  0  0  0  0
 29 31  1  0  0  0  0
 31 32  1  0  0  0  0
 31 33  1  0  0  0  0
 31 34  1  0  0  0  0
M  CHG  1  23   1
M  END
$$$$

  -OEChem-01062216093D

 34 33  0     1  0  0  0  0  0999 V2000
   -3.4054   -2.2821    1.3945 H   0  0  0  0  0  0  0  0  0  0  0  0
   -3.5441   -1.2269    1.1414 C   0  0  0  0  0  0  0  0  0  0  0  0
   -3.8353   -0.6871    2.0460 H   0  0  0  0  0  0  0  0  0  0  0  0
   -4.3422   -1.1451    0.4002 H   0  0  0  0  0  0  0  0  0  0  0  0
   -2.2548   -0.6511    0.5879 C   0  0  0  0  0  0  0  0  0  0  0  0
   -1.2910   -1.3753    0.4047 O   0  0  0  0  0  0  0  0  0  0  0  0
   -2.2048    0.6676    0.1738 N   0  0  0  0  0  0  0  0  0  0  0  0
   -3.0442    1.1903    0.4079 H   0  0  0  0  0  0  0  0  0  0  0  0
   -0.9365    1.4215    0.2260 C   0  0  1  0  0  0  0  0  0  0  0  0
   -0.0869    0.7295    0.1751 H   0  0  0  0  0  0  0  0  0  0  0  0
   -0.8283    2.3442   -1.0008 C   0  0  0  0  0  0  0  0  0  0  0  0
   -1.7213    2.9733   -1.0763 H   0  0  0  0  0  0  0  0  0  0  0  0
    0.0409    3.0009   -0.8831 H   0  0  0  0  0  0  0  0  0  0  0  0
   -0.6613    1.5037   -2.2787 C   0  0  0  0  0  0  0  0  0  0  0  0
    0.2271    0.8691   -2.1786 H   0  0  0  0  0  0  0  0  0  0  0  0
   -1.5275    0.8427   -2.3955 H   0  0  0  0  0  0  0  0  0  0  0  0
   -0.5239    2.3840   -3.5249 C   0  0  0  0  0  0  0  0  0  0  0  0
   -1.4079    3.0240   -3.6193 H   0  0  0  0  0  0  0  0  0  0  0  0
    0.3564    3.0289   -3.4236 H   0  0  0  0  0  0  0  0  0  0  0  0
   -0.3861    1.4929   -4.7590 C   0  0  0  0  0  0  0  0  0  0  0  0
    0.5005    0.8519   -4.6424 H   0  0  0  0  0  0  0  0  0  0  0  0
   -1.2586    0.8257   -4.8206 H   0  0  0  0  0  0  0  0  0  0  0  0
   -0.2766    2.3361   -5.9693 N   0  3  0  0  0  0  0  0  0  0  0  0
    0.5528    2.9298   -5.9074 H   0  0  0  0  0  0  0  0  0  0  0  0
   -0.1992    1.7463   -6.8010 H   0  0  0  0  0  0  0  0  0  0  0  0
   -1.1037    2.9289   -6.0598 H   0  0  0  0  0  0  0  0  0  0  0  0
   -0.7638    2.1472    1.5787 C   0  0  0  0  0  0  0  0  0  0  0  0
   -0.3006    1.5496    2.5357 O   0  0  0  0  0  0  0  0  0  0  0  0
   -1.2329    3.4369    1.7616 N   0  0  0  0  0  0  0  0  0  0  0  0
   -1.6396    3.9152    0.9649 H   0  0  0  0  0  0  0  0  0  0  0  0
   -1.1529    4.1388    3.0398 C   0  0  0  0  0  0  0  0  0  0  0  0
   -0.1104    4.2310    3.3635 H   0  0  0  0  0  0  0  0  0  0  0  0
   -1.5762    5.1440    2.9496 H   0  0  0  0  0  0  0  0  0  0  0  0
   -1.7120    3.5981    3.8111 H   0  0  0  0  0  0  0  0  0  0  0  0
  1  2  1  0  0  0  0
  2  3  1  0  0  0  0
  2  4  1  0  0  0  0
  2  5  1  0  0  0  0
  5  6  2  0  0  0  0
  5  7  1  0  0  0  0
  7  8  1  0  0  0  0
  7  9  1  0  0  0  0
  9 10  1  0  0  0  0
  9 11  1  0  0  0  0
  9 27  1  0  0  0  0
 11 12  1  0  0  0  0
 11 13  1  0  0  0  0
 11 14  1  0  0  0  0
 14 15  1  0  0  0  0
 14 16  1  0  0  0  0
 14 17  1  0  0  0  0
 17 18  1  0  0  0  0
 17 19  1  0  0  0  0
 17 20  1  0  0  0  0
 20 21  1  0  0  0  0
 20 22  1  0  0  0  0
 20 23  1  0  0  0  0
 23 24  1  0  0  0  0
 23 25  1  0  0  0  0
 23 26  1  0  0  0  0
 27 28  2  0  0  0  0
 27 29  1  0  0  0  0
 29 30  1  0  0  0  0
 29 31  1  0  0  0  0
 31 32  1  0  0  0  0
 31 33  1  0  0  0  0
 31 34  1  0  0  0  0
M  CHG  1  23   1
M  END
$$$$

  -OEChem-01062216093D

 34 33  0     1  0  0  0  0  0999 V2000
   -3.4585   -2.3167    1.3761 H   0  0  0  0  0  0  0  0  0  0  0  0
   -3.5968   -1.2761    1.0678 C   0  0  0  0  0  0  0  0  0  0  0  0
   -3.9968   -0.7122    1.9141 H   0  0  0  0  0  0  0  0  0  0  0  0
   -4.3141   -1.2460    0.2443 H   0  0  0  0  0  0  0  0  0  0  0  0
   -2.2714   -0.6832    0.6293 C   0  0  0  0  0  0  0  0  0  0  0  0
   -1.2795   -1.3879    0.5664 O   0  0  0  0  0  0  0  0  0  0  0  0
   -2.2106    0.6319    0.2055 N   0  0  0  0  0  0  0  0  0  0  0  0
   -3.0699    1.1508    0.3596 H   0  0  0  0  0  0  0  0  0  0  0  0
   -0.9504    1.4012    0.2505 C   0  0  1  0  0  0  0  0  0  0  0  0
   -0.0977    0.7128    0.1999 H   0  0  0  0  0  0  0  0  0  0  0  0
   -0.8437    2.3242   -0.9755 C   0  0  0  0  0  0  0  0  0  0  0  0
   -1.7389    2.9495   -1.0523 H   0  0  0  0  0  0  0  0  0  0  0  0
    0.0206    2.9866   -0.8513 H   0  0  0  0  0  0  0  0  0  0  0  0
   -0.6653    1.4908   -2.2564 C   0  0  0  0  0  0  0  0  0  0  0  0
    0.2286    0.8639   -2.1561 H   0  0  0  0  0  0  0  0  0  0  0  0
   -1.5257    0.8237   -2.3800 H   0  0  0  0  0  0  0  0  0  0  0  0
   -0.5299    2.3828   -3.4951 C   0  0  0  0  0  0  0  0  0  0  0  0
   -1.4184    3.0170   -3.5864 H   0  0  0  0  0  0  0  0  0  0  0  0
    0.3443    3.0339   -3.3836 H   0  0  0  0  0  0  0  0  0  0  0  0
   -0.3795    1.5092   -4.7402 C   0  0  0  0  0  0  0  0  0  0  0  0
    0.5125    0.8744   -4.6299 H   0  0  0  0  0  0  0  0  0  0  0  0
   -1.2459    0.8356   -4.8153 H   0  0  0  0  0  0  0  0  0  0  0  0
   -0.2727    2.3727   -5.9365 N   0  3  0  0  0  0  0  0  0  0  0  0
    0.5430    2.9829   -5.8545 H   0  0  0  0  0  0  0  0  0  0  0  0
   -0.1718    1.7975   -6.7760 H   0  0  0  0  0  0  0  0  0  0  0  0
   -1.1108    2.9494   -6.0292 H   0  0  0  0  0  0  0  0  0  0  0  0
   -0.7730    2.1495    1.5891 C   0  0  0  0  0  0  0  0  0  0  0  0
    0.0373    1.7549    2.4109 O   0  0  0  0  0  0  0  0  0  0  0  0
   -1.5045    3.2929    1.8624 N   0  0  0  0  0  0  0  0  0  0  0  0
   -2.1655    3.6171    1.1650 H   0  0  0  0  0  0  0  0  0  0  0  0
   -1.3768    4.0372    3.1119 C   0  0  0  0  0  0  0  0  0  0  0  0
   -0.3584    4.4238    3.2257 H   0  0  0  0  0  0  0  0  0  0  0  0
   -2.0709    4.8832    3.1240 H   0  0  0  0  0  0  0  0  0  0  0  0
   -1.6046    3.3927    3.9680 H   0  0  0  0  0  0  0  0  0  0  0  0
  1  2  1  0  0  0  0
  2  3  1  0  0  0  0
  2  4  1  0  0  0  0
  2  5  1  0  0  0  0
  5  6  2  0  0  0  0
  5  7  1  0  0  0  0
  7  8  1  0  0  0  0
  7  9  1  0  0  0  0
  9 10  1  0  0  0  0
  9 11  1  0  0  0  0
  9 27  1  0  0  0  0
 11 12  1  0  0  0  0
 11 13  1  0  0  0  0
 11 14  1  0  0  0  0
 14 15  1  0  0  0  0
 14 16  1  0  0  0  0
 14 17  1  0  0  0  0
 17 18  1  0  0  0  0
 17 19  1  0  0  0  0
 17 20  1  0  0  0  0
 20 21  1  0  0  0  0
 20 22  1  0  0  0  0
 20 23  1  0  0  0  0
 23 24  1  0  0  0  0
 23 25  1  0  0  0  0
 23 26  1  0  0  0  0
 27 28  2  0  0  0  0
 27 29  1  0  0  0  0
 29 30  1  0  0  0  0
 29 31  1  0  0  0  0
 31 32  1  0  0  0  0
 31 33  1  0  0  0  0
 31 34  1  0  0  0  0
M  CHG  1  23   1
M  END
$$$$

  -OEChem-01062216093D

 34 33  0     1  0  0  0  0  0999 V2000
   -3.5022   -2.3625    1.3484 H   0  0  0  0  0  0  0  0  0  0  0  0
   -3.6405   -1.3414    0.9803 C   0  0  0  0  0  0  0  0  0  0  0  0
   -4.1517   -0.7600    1.7513 H   0  0  0  0  0  0  0  0  0  0  0  0
   -4.2612   -1.3729    0.0819 H   0  0  0  0  0  0  0  0  0  0  0  0
   -2.2944   -0.7173    0.6647 C   0  0  0  0  0  0  0  0  0  0  0  0
   -1.2823   -1.3902    0.7381 O   0  0  0  0  0  0  0  0  0  0  0  0
   -2.2238    0.5952    0.2337 N   0  0  0  0  0  0  0  0  0  0  0  0
   -3.1014    1.1040    0.2701 H   0  0  0  0  0  0  0  0  0  0  0  0
   -0.9694    1.3761    0.2760 C   0  0  1  0  0  0  0  0  0  0  0  0
   -0.1161    0.6886    0.2253 H   0  0  0  0  0  0  0  0  0  0  0  0
   -0.8631    2.2995   -0.9480 C   0  0  0  0  0  0  0  0  0  0  0  0
   -1.7606    2.9221   -1.0238 H   0  0  0  0  0  0  0  0  0  0  0  0
   -0.0027    2.9659   -0.8182 H   0  0  0  0  0  0  0  0  0  0  0  0
   -0.6747    1.4754   -2.2322 C   0  0  0  0  0  0  0  0  0  0  0  0
    0.2230    0.8537   -2.1337 H   0  0  0  0  0  0  0  0  0  0  0  0
   -1.5303    0.8039   -2.3646 H   0  0  0  0  0  0  0  0  0  0  0  0
   -0.5407    2.3829   -3.4596 C   0  0  0  0  0  0  0  0  0  0  0  0
   -1.4335    3.0117   -3.5468 H   0  0  0  0  0  0  0  0  0  0  0  0
    0.3283    3.0390   -3.3357 H   0  0  0  0  0  0  0  0  0  0  0  0
   -0.3790    1.5276   -4.7152 C   0  0  0  0  0  0  0  0  0  0  0  0
    0.5184    0.8998   -4.6090 H   0  0  0  0  0  0  0  0  0  0  0  0
   -1.2391    0.8477   -4.8040 H   0  0  0  0  0  0  0  0  0  0  0  0
   -0.2736    2.4091   -5.8985 N   0  3  0  0  0  0  0  0  0  0  0  0
    0.5262    3.0371   -5.7947 H   0  0  0  0  0  0  0  0  0  0  0  0
   -0.1451    1.8481   -6.7438 H   0  0  0  0  0  0  0  0  0  0  0  0
   -1.1232    2.9676   -5.9973 H   0  0  0  0  0  0  0  0  0  0  0  0
   -0.7761    2.1471    1.5989 C   0  0  0  0  0  0  0  0  0  0  0  0
    0.2696    2.0347    2.2181 O   0  0  0  0  0  0  0  0  0  0  0  0
   -1.6966    3.0970    2.0083 N   0  0  0  0  0  0  0  0  0  0  0  0
   -2.5501    3.1994    1.4712 H   0  0  0  0  0  0  0  0  0  0  0  0
   -1.5250    3.8964    3.2182 C   0  0  0  0  0  0  0  0  0  0  0  0
   -0.6264    4.5184    3.1437 H   0  0  0  0  0  0  0  0  0  0  0  0
   -2.3875    4.5534    3.3671 H   0  0  0  0  0  0  0  0  0  0  0  0
   -1.4300    3.2480    4.0962 H   0  0  0  0  0  0  0  0  0  0  0  0
  1  2  1  0  0  0  0
  2  3  1  0  0  0  0
  2  4  1  0  0  0  0
  2  5  1  0  0  0  0
  5  6  2  0  0  0  0
  5  7  1  0  0  0  0
  7  8  1  0  0  0  0
  7  9  1  0  0  0  0
  9 10  1  0  0  0  0
  9 11  1  0  0  0  0
  9 27  1  0  0  0  0
 11 12  1  0  0  0  0
 11 13  1  0  0  0  0
 11 14  1  0  0  0  0
 14 15  1  0  0  0  0
 14 16  1  0  0  0  0
 14 17  1  0  0  0  0
 17 18  1  0  0  0  0
 17 19  1  0  0  0  0
 17 20  1  0  0  0  0
 20 21  1  0  0  0  0
 20 22  1  0  0  0  0
 20 23  1  0  0  0  0
 23 24  1  0  0  0  0
 23 25  1  0  0  0  0
 23 26  1  0  0  0  0
 27 28  2  0  0  0  0
 27 29  1  0  0  0  0
 29 30  1  0  0  0  0
 29 31  1  0  0  0  0
 31 32  1  0  0  0  0
 31 33  1  0  0  0  0
 31 34  1  0  0  0  0
M  CHG  1  23   1
M  END
$$$$

  -OEChem-01062216093D

 34 33  0     1  0  0  0  0  0999 V2000
   -3.5544   -2.3971    1.2803 H   0  0  0  0  0  0  0  0  0  0  0  0
   -3.6672   -1.3937    0.8592 C   0  0  0  0  0  0  0  0  0  0  0  0
   -4.3051   -0.8069    1.5243 H   0  0  0  0  0  0  0  0  0  0  0  0
   -4.1454   -1.4756   -0.1196 H   0  0  0  0  0  0  0  0  0  0  0  0
   -2.3087   -0.7331    0.7224 C   0  0  0  0  0  0  0  0  0  0  0  0
   -1.2980   -1.3654    0.9674 O   0  0  0  0  0  0  0  0  0  0  0  0
   -2.2161    0.5728    0.2772 N   0  0  0  0  0  0  0  0  0  0  0  0
   -3.0942    1.0601    0.1296 H   0  0  0  0  0  0  0  0  0  0  0  0
   -0.9628    1.3560    0.3093 C   0  0  1  0  0  0  0  0  0  0  0  0
   -0.1107    0.6670    0.2624 H   0  0  0  0  0  0  0  0  0  0  0  0
   -0.8636    2.2744   -0.9192 C   0  0  0  0  0  0  0  0  0  0  0  0
   -1.7613    2.8975   -0.9882 H   0  0  0  0  0  0  0  0  0  0  0  0
   -0.0032    2.9423   -0.7956 H   0  0  0  0  0  0  0  0  0  0  0  0
   -0.6802    1.4548   -2.2065 C   0  0  0  0  0  0  0  0  0  0  0  0
    0.2198    0.8352   -2.1159 H   0  0  0  0  0  0  0  0  0  0  0  0
   -1.5354    0.7827   -2.3384 H   0  0  0  0  0  0  0  0  0  0  0  0
   -0.5550    2.3737   -3.4266 C   0  0  0  0  0  0  0  0  0  0  0  0
   -1.4492    3.0022   -3.5015 H   0  0  0  0  0  0  0  0  0  0  0  0
    0.3130    3.0305   -3.3000 H   0  0  0  0  0  0  0  0  0  0  0  0
   -0.3977    1.5362   -4.6942 C   0  0  0  0  0  0  0  0  0  0  0  0
    0.5017    0.9090   -4.6022 H   0  0  0  0  0  0  0  0  0  0  0  0
   -1.2571    0.8562   -4.7880 H   0  0  0  0  0  0  0  0  0  0  0  0
   -0.3017    2.4374   -5.8634 N   0  3  0  0  0  0  0  0  0  0  0  0
    0.5030    3.0591   -5.7585 H   0  0  0  0  0  0  0  0  0  0  0  0
   -0.1870    1.8906   -6.7198 H   0  0  0  0  0  0  0  0  0  0  0  0
   -1.1489    3.0029   -5.9418 H   0  0  0  0  0  0  0  0  0  0  0  0
   -0.7557    2.1525    1.6144 C   0  0  0  0  0  0  0  0  0  0  0  0
    0.3813    2.3421    2.0184 O   0  0  0  0  0  0  0  0  0  0  0  0
   -1.7920    2.8784    2.1758 N   0  0  0  0  0  0  0  0  0  0  0  0
   -2.7321    2.6713    1.8595 H   0  0  0  0  0  0  0  0  0  0  0  0
   -1.6211    3.7124    3.3621 C   0  0  0  0  0  0  0  0  0  0  0  0
   -0.8643    4.4843    3.1850 H   0  0  0  0  0  0  0  0  0  0  0  0
   -2.5630    4.2082    3.6170 H   0  0  0  0  0  0  0  0  0  0  0  0
   -1.3065    3.1041    4.2171 H   0  0  0  0  0  0  0  0  0  0  0  0
  1  2  1  0  0  0  0
  2  3  1  0  0  0  0
  2  4  1  0  0  0  0
  2  5  1  0  0  0  0
  5  6  2  0  0  0  0
  5  7  1  0  0  0  0
  7  8  1  0  0  0  0
  7  9  1  0  0  0  0
  9 10  1  0  0  0  0
  9 11  1  0  0  0  0
  9 27  1  0  0  0  0
 11 12  1  0  0  0  0
 11 13  1  0  0  0  0
 11 14  1  0  0  0  0
 14 15  1  0  0  0  0
 14 16  1  0  0  0  0
 14 17  1  0  0  0  0
 17 18  1  0  0  0  0
 17 19  1  0  0  0  0
 17 20  1  0  0  0  0
 20 21  1  0  0  0  0
 20 22  1  0  0  0  0
 20 23  1  0  0  0  0
 23 24  1  0  0  0  0
 23 25  1  0  0  0  0
 23 26  1  0  0  0  0
 27 28  2  0  0  0  0
 27 29  1  0  0  0  0
 29 30  1  0  0  0  0
 29 31  1  0  0  0  0
 31 32  1  0  0  0  0
 31 33  1  0  0  0  0
 31 34  1  0  0  0  0
M  CHG  1  23   1
M  END
$$$$

  -OEChem-01062216093D

 34 33  0     1  0  0  0  0  0999 V2000
   -3.5748   -2.4088    1.2566 H   0  0  0  0  0  0  0  0  0  0  0  0
   -3.6744   -1.4126    0.8151 C   0  0  0  0  0  0  0  0  0  0  0  0
   -4.3617   -0.8267    1.4298 H   0  0  0  0  0  0  0  0  0  0  0  0
   -4.0889   -1.5148   -0.1904 H   0  0  0  0  0  0  0  0  0  0  0  0
   -2.3190   -0.7340    0.7539 C   0  0  0  0  0  0  0  0  0  0  0  0
   -1.3196   -1.3396    1.0943 O   0  0  0  0  0  0  0  0  0  0  0  0
   -2.2126    0.5653    0.2933 N   0  0  0  0  0  0  0  0  0  0  0  0
   -3.0784    1.0400    0.0561 H   0  0  0  0  0  0  0  0  0  0  0  0
   -0.9556    1.3431    0.3228 C   0  0  1  0  0  0  0  0  0  0  0  0
   -0.1051    0.6518    0.2831 H   0  0  0  0  0  0  0  0  0  0  0  0
   -0.8586    2.2558   -0.9117 C   0  0  0  0  0  0  0  0  0  0  0  0
   -1.7549    2.8814   -0.9769 H   0  0  0  0  0  0  0  0  0  0  0  0
    0.0027    2.9238   -0.7955 H   0  0  0  0  0  0  0  0  0  0  0  0
   -0.6815    1.4392   -2.2010 C   0  0  0  0  0  0  0  0  0  0  0  0
    0.2186    0.8192   -2.1167 H   0  0  0  0  0  0  0  0  0  0  0  0
   -1.5376    0.7684   -2.3327 H   0  0  0  0  0  0  0  0  0  0  0  0
   -0.5603    2.3678   -3.4146 C   0  0  0  0  0  0  0  0  0  0  0  0
   -1.4539    2.9983   -3.4799 H   0  0  0  0  0  0  0  0  0  0  0  0
    0.3087    3.0226   -3.2852 H   0  0  0  0  0  0  0  0  0  0  0  0
   -0.4085    1.5442   -4.6917 C   0  0  0  0  0  0  0  0  0  0  0  0
    0.4905    0.9152   -4.6107 H   0  0  0  0  0  0  0  0  0  0  0  0
   -1.2691    0.8665   -4.7904 H   0  0  0  0  0  0  0  0  0  0  0  0
   -0.3167    2.4596   -5.8501 N   0  3  0  0  0  0  0  0  0  0  0  0
    0.5023    3.0635   -5.7518 H   0  0  0  0  0  0  0  0  0  0  0  0
   -0.2293    1.9234   -6.7163 H   0  0  0  0  0  0  0  0  0  0  0  0
   -1.1534    3.0432   -5.9039 H   0  0  0  0  0  0  0  0  0  0  0  0
   -0.7497    2.1564    1.6186 C   0  0  0  0  0  0  0  0  0  0  0  0
    0.3694    2.5707    1.8827 O   0  0  0  0  0  0  0  0  0  0  0  0
   -1.8298    2.6408    2.3353 N   0  0  0  0  0  0  0  0  0  0  0  0
   -2.7275    2.2031    2.1603 H   0  0  0  0  0  0  0  0  0  0  0  0
   -1.6739    3.4512    3.5398 C   0  0  0  0  0  0  0  0  0  0  0  0
   -1.1017    4.3595    3.3218 H   0  0  0  0  0  0  0  0  0  0  0  0
   -2.6529    3.7490    3.9277 H   0  0  0  0  0  0  0  0  0  0  0  0
   -1.1496    2.8857    4.3176 H   0  0  0  0  0  0  0  0  0  0  0  0
  1  2  1  0  0  0  0
  2  3  1  0  0  0  0
  2  4  1  0  0  0  0
  2  5  1  0  0  0  0
  5  6  2  0  0  0  0
  5  7  1  0  0  0  0
  7  8  1  0  0  0  0
  7  9  1  0  0  0  0
  9 10  1  0  0  0  0
  9 11  1  0  0  0  0
  9 27  1  0  0  0  0
 11 12  1  0  0  0  0
 11 13  1  0  0  0  0
 11 14  1  0  0  0  0
 14 15  1  0  0  0  0
 14 16  1  0  0  0  0
 14 17  1  0  0  0  0
 17 18  1  0  0  0  0
 17 19  1  0  0  0  0
 17 20  1  0  0  0  0
 20 21  1  0  0  0  0
 20 22  1  0  0  0  0
 20 23  1  0  0  0  0
 23 24  1  0  0  0  0
 23 25  1  0  0  0  0
 23 26  1  0  0  0  0
 27 28  2  0  0  0  0
 27 29  1  0  0  0  0
 29 30  1  0  0  0  0
 29 31  1  0  0  0  0
 31 32  1  0  0  0  0
 31 33  1  0  0  0  0
 31 34  1  0  0  0  0
M  CHG  1  23   1
M  END
$$$$

  -OEChem-01062216093D

 34 33  0     1  0  0  0  0  0999 V2000
   -3.5878   -2.4048    1.2351 H   0  0  0  0  0  0  0  0  0  0  0  0
   -3.6799   -1.4069    0.7960 C   0  0  0  0  0  0  0  0  0  0  0  0
   -4.3718   -0.8210    1.4058 H   0  0  0  0  0  0  0  0  0  0  0  0
   -4.0845   -1.5047   -0.2142 H   0  0  0  0  0  0  0  0  0  0  0  0
   -2.3219   -0.7324    0.7509 C   0  0  0  0  0  0  0  0  0  0  0  0
   -1.3295   -1.3352    1.1153 O   0  0  0  0  0  0  0  0  0  0  0  0
   -2.2047    0.5657    0.2905 N   0  0  0  0  0  0  0  0  0  0  0  0
   -3.0655    1.0485    0.0495 H   0  0  0  0  0  0  0  0  0  0  0  0
   -0.9438    1.3374    0.3295 C   0  0  1  0  0  0  0  0  0  0  0  0
   -0.0935    0.6462    0.2929 H   0  0  0  0  0  0  0  0  0  0  0  0
   -0.8517    2.2484   -0.9086 C   0  0  0  0  0  0  0  0  0  0  0  0
   -1.7487    2.8732   -0.9704 H   0  0  0  0  0  0  0  0  0  0  0  0
    0.0096    2.9177   -0.8003 H   0  0  0  0  0  0  0  0  0  0  0  0
   -0.6782    1.4323   -2.1987 C   0  0  0  0  0  0  0  0  0  0  0  0
    0.2232    0.8136   -2.1186 H   0  0  0  0  0  0  0  0  0  0  0  0
   -1.5340    0.7609   -2.3289 H   0  0  0  0  0  0  0  0  0  0  0  0
   -0.5627    2.3641   -3.4105 C   0  0  0  0  0  0  0  0  0  0  0  0
   -1.4574    2.9938   -3.4706 H   0  0  0  0  0  0  0  0  0  0  0  0
    0.3062    3.0198   -3.2824 H   0  0  0  0  0  0  0  0  0  0  0  0
   -0.4144    1.5453   -4.6908 C   0  0  0  0  0  0  0  0  0  0  0  0
    0.4858    0.9171   -4.6156 H   0  0  0  0  0  0  0  0  0  0  0  0
   -1.2747    0.8672   -4.7889 H   0  0  0  0  0  0  0  0  0  0  0  0
   -0.3284    2.4665   -5.8449 N   0  3  0  0  0  0  0  0  0  0  0  0
    0.4881    3.0734   -5.7451 H   0  0  0  0  0  0  0  0  0  0  0  0
   -0.2407    1.9349   -6.7137 H   0  0  0  0  0  0  0  0  0  0  0  0
   -1.1676    3.0470   -5.8941 H   0  0  0  0  0  0  0  0  0  0  0  0
   -0.7454    2.1513    1.6282 C   0  0  0  0  0  0  0  0  0  0  0  0
    0.3042    2.7556    1.7964 O   0  0  0  0  0  0  0  0  0  0  0  0
   -1.7979    2.3798    2.4967 N   0  0  0  0  0  0  0  0  0  0  0  0
   -2.6037    1.7708    2.4024 H   0  0  0  0  0  0  0  0  0  0  0  0
   -1.6525    3.1574    3.7236 C   0  0  0  0  0  0  0  0  0  0  0  0
   -1.3180    4.1755    3.4963 H   0  0  0  0  0  0  0  0  0  0  0  0
   -2.6103    3.2214    4.2494 H   0  0  0  0  0  0  0  0  0  0  0  0
   -0.9209    2.6890    4.3909 H   0  0  0  0  0  0  0  0  0  0  0  0
  1  2  1  0  0  0  0
  2  3  1  0  0  0  0
  2  4  1  0  0  0  0
  2  5  1  0  0  0  0
  5  6  2  0  0  0  0
  5  7  1  0  0  0  0
  7  8  1  0  0  0  0
  7  9  1  0  0  0  0
  9 10  1  0  0  0  0
  9 11  1  0  0  0  0
  9 27  1  0  0  0  0
 11 12  1  0  0  0  0
 11 13  1  0  0  0  0
 11 14  1  0  0  0  0
 14 15  1  0  0  0  0
 14 16  1  0  0  0  0
 14 17  1  0  0  0  0
 17 18  1  0  0  0  0
 17 19  1  0  0  0  0
 17 20  1  0  0  0  0
 20 21  1  0  0  0  0
 20 22  1  0  0  0  0
 20 23  1  0  0  0  0
 23 24  1  0  0  0  0
 23 25  1  0  0  0  0
 23 26  1  0  0  0  0
 27 28  2  0  0  0  0
 27 29  1  0  0  0  0
 29 30  1  0  0  0  0
 29 31  1  0  0  0  0
 31 32  1  0  0  0  0
 31 33  1  0  0  0  0
 31 34  1  0  0  0  0
M  CHG  1  23   1
M  END
$$$$

  -OEChem-01062216093D

 34 33  0     1  0  0  0  0  0999 V2000
   -3.5950   -2.3971    1.2158 H   0  0  0  0  0  0  0  0  0  0  0  0
   -3.6847   -1.3939    0.7885 C   0  0  0  0  0  0  0  0  0  0  0  0
   -4.3742   -0.8126    1.4053 H   0  0  0  0  0  0  0  0  0  0  0  0
   -4.0913   -1.4790   -0.2219 H   0  0  0  0  0  0  0  0  0  0  0  0
   -2.3251   -0.7224    0.7481 C   0  0  0  0  0  0  0  0  0  0  0  0
   -1.3368   -1.3191    1.1330 O   0  0  0  0  0  0  0  0  0  0  0  0
   -2.2036    0.5756    0.2903 N   0  0  0  0  0  0  0  0  0  0  0  0
   -3.0661    1.0684    0.0751 H   0  0  0  0  0  0  0  0  0  0  0  0
   -0.9425    1.3475    0.3324 C   0  0  1  0  0  0  0  0  0  0  0  0
   -0.0916    0.6574    0.3002 H   0  0  0  0  0  0  0  0  0  0  0  0
   -0.8531    2.2500   -0.9144 C   0  0  0  0  0  0  0  0  0  0  0  0
   -1.7525    2.8712   -0.9795 H   0  0  0  0  0  0  0  0  0  0  0  0
    0.0058    2.9232   -0.8152 H   0  0  0  0  0  0  0  0  0  0  0  0
   -0.6765    1.4286   -2.2005 C   0  0  0  0  0  0  0  0  0  0  0  0
    0.2273    0.8141   -2.1177 H   0  0  0  0  0  0  0  0  0  0  0  0
   -1.5298    0.7537   -2.3283 H   0  0  0  0  0  0  0  0  0  0  0  0
   -0.5649    2.3584   -3.4143 C   0  0  0  0  0  0  0  0  0  0  0  0
   -1.4626    2.9836   -3.4747 H   0  0  0  0  0  0  0  0  0  0  0  0
    0.3005    3.0186   -3.2865 H   0  0  0  0  0  0  0  0  0  0  0  0
   -0.4130    1.5415   -4.6953 C   0  0  0  0  0  0  0  0  0  0  0  0
    0.4907    0.9183   -4.6214 H   0  0  0  0  0  0  0  0  0  0  0  0
   -1.2697    0.8590   -4.7944 H   0  0  0  0  0  0  0  0  0  0  0  0
   -0.3313    2.4649   -5.8481 N   0  3  0  0  0  0  0  0  0  0  0  0
    0.4754    3.0839   -5.7415 H   0  0  0  0  0  0  0  0  0  0  0  0
   -0.2290    1.9356   -6.7169 H   0  0  0  0  0  0  0  0  0  0  0  0
   -1.1786    3.0331   -5.9031 H   0  0  0  0  0  0  0  0  0  0  0  0
   -0.7518    2.1590    1.6366 C   0  0  0  0  0  0  0  0  0  0  0  0
    0.1812    2.9449    1.7267 O   0  0  0  0  0  0  0  0  0  0  0  0
   -1.7018    2.1300    2.6418 N   0  0  0  0  0  0  0  0  0  0  0  0
   -2.3607    1.3585    2.6118 H   0  0  0  0  0  0  0  0  0  0  0  0
   -1.5362    2.8512    3.8998 C   0  0  0  0  0  0  0  0  0  0  0  0
   -1.4394    3.9267    3.7162 H   0  0  0  0  0  0  0  0  0  0  0  0
   -2.4037    2.6906    4.5472 H   0  0  0  0  0  0  0  0  0  0  0  0
   -0.6410    2.5032    4.4265 H   0  0  0  0  0  0  0  0  0  0  0  0
  1  2  1  0  0  0  0
  2  3  1  0  0  0  0
  2  4  1  0  0  0  0
  2  5  1  0  0  0  0
  5  6  2  0  0  0  0
  5  7  1  0  0  0  0
  7  8  1  0  0  0  0
  7  9  1  0  0  0  0
  9 10  1  0  0  0  0
  9 11  1  0  0  0  0
  9 27  1  0  0  0  0
 11 12  1  0  0  0  0
 11 13  1  0  0  0  0
 11 14  1  0  0  0  0
 14 15  1  0  0  0  0
 14 16  1  0  0  0  0
 14 17  1  0  0  0  0
 17 18  1  0  0  0  0
 17 19  1  0  0  0  0
 17 20  1  0  0  0  0
 20 21  1  0  0  0  0
 20 22  1  0  0  0  0
 20 23  1  0  0  0  0
 23 24  1  0  0  0  0
 23 25  1  0  0  0  0
 23 26  1  0  0  0  0
 27 28  2  0  0  0  0
 27 29  1  0  0  0  0
 29 30  1  0  0  0  0
 29 31  1  0  0  0  0
 31 32  1  0  0  0  0
 31 33  1  0  0  0  0
 31 34  1  0  0  0  0
M  CHG  1  23   1
M  END
$$$$

  -OEChem-01062216093D

 34 33  0     1  0  0  0  0  0999 V2000
   -3.6071   -2.3788    1.2151 H   0  0  0  0  0  0  0  0  0  0  0  0
   -3.6878   -1.3761    0.7848 C   0  0  0  0  0  0  0  0  0  0  0  0
   -4.3770   -0.7884    1.3960 H   0  0  0  0  0  0  0  0  0  0  0  0
   -4.0894   -1.4609   -0.2277 H   0  0  0  0  0  0  0  0  0  0  0  0
   -2.3239   -0.7135    0.7505 C   0  0  0  0  0  0  0  0  0  0  0  0
   -1.3448   -1.3049    1.1666 O   0  0  0  0  0  0  0  0  0  0  0  0
   -2.1905    0.5835    0.2952 N   0  0  0  0  0  0  0  0  0  0  0  0
   -3.0505    1.0880    0.0964 H   0  0  0  0  0  0  0  0  0  0  0  0
   -0.9241    1.3465    0.3371 C   0  0  1  0  0  0  0  0  0  0  0  0
   -0.0762    0.6528    0.3037 H   0  0  0  0  0  0  0  0  0  0  0  0
   -0.8379    2.2463   -0.9132 C   0  0  0  0  0  0  0  0  0  0  0  0
   -1.7337    2.8734   -0.9730 H   0  0  0  0  0  0  0  0  0  0  0  0
    0.0256    2.9147   -0.8224 H   0  0  0  0  0  0  0  0  0  0  0  0
   -0.6719    1.4238   -2.2002 C   0  0  0  0  0  0  0  0  0  0  0  0
    0.2304    0.8061   -2.1235 H   0  0  0  0  0  0  0  0  0  0  0  0
   -1.5282    0.7517   -2.3234 H   0  0  0  0  0  0  0  0  0  0  0  0
   -0.5643    2.3555   -3.4133 C   0  0  0  0  0  0  0  0  0  0  0  0
   -1.4600    2.9840   -3.4671 H   0  0  0  0  0  0  0  0  0  0  0  0
    0.3039    3.0128   -3.2896 H   0  0  0  0  0  0  0  0  0  0  0  0
   -0.4230    1.5410   -4.6970 C   0  0  0  0  0  0  0  0  0  0  0  0
    0.4790    0.9146   -4.6302 H   0  0  0  0  0  0  0  0  0  0  0  0
   -1.2825    0.8614   -4.7930 H   0  0  0  0  0  0  0  0  0  0  0  0
   -0.3455    2.4682   -5.8469 N   0  3  0  0  0  0  0  0  0  0  0  0
    0.4664    3.0811   -5.7454 H   0  0  0  0  0  0  0  0  0  0  0  0
   -0.2556    1.9419   -6.7189 H   0  0  0  0  0  0  0  0  0  0  0  0
   -1.1893    3.0426   -5.8914 H   0  0  0  0  0  0  0  0  0  0  0  0
   -0.7403    2.1503    1.6492 C   0  0  0  0  0  0  0  0  0  0  0  0
    0.0241    3.1052    1.6830 O   0  0  0  0  0  0  0  0  0  0  0  0
   -1.5250    1.8838    2.7562 N   0  0  0  0  0  0  0  0  0  0  0  0
   -1.9987    0.9849    2.7575 H   0  0  0  0  0  0  0  0  0  0  0  0
   -1.3589    2.5803    4.0278 C   0  0  0  0  0  0  0  0  0  0  0  0
   -1.5237    3.6556    3.9012 H   0  0  0  0  0  0  0  0  0  0  0  0
   -2.0795    2.2069    4.7620 H   0  0  0  0  0  0  0  0  0  0  0  0
   -0.3493    2.4241    4.4224 H   0  0  0  0  0  0  0  0  0  0  0  0
  1  2  1  0  0  0  0
  2  3  1  0  0  0  0
  2  4  1  0  0  0  0
  2  5  1  0  0  0  0
  5  6  2  0  0  0  0
  5  7  1  0  0  0  0
  7  8  1  0  0  0  0
  7  9  1  0  0  0  0
  9 10  1  0  0  0  0
  9 11  1  0  0  0  0
  9 27  1  0  0  0  0
 11 12  1  0  0  0  0
 11 13  1  0  0  0  0
 11 14  1  0  0  0  0
 14 15  1  0  0  0  0
 14 16  1  0  0  0  0
 14 17  1  0  0  0  0
 17 18  1  0  0  0  0
 17 19  1  0  0  0  0
 17 20  1  0  0  0  0
 20 21  1  0  0  0  0
 20 22  1  0  0  0  0
 20 23  1  0  0  0  0
 23 24  1  0  0  0  0
 23 25  1  0  0  0  0
 23 26  1  0  0  0  0
 27 28  2  0  0  0  0
 27 29  1  0  0  0  0
 29 30  1  0  0  0  0
 29 31  1  0  0  0  0
 31 32  1  0  0  0  0
 31 33  1  0  0  0  0
 31 34  1  0  0  0  0
M  CHG  1  23   1
M  END
$$$$

  -OEChem-01062216093D

 34 33  0     1  0  0  0  0  0999 V2000
   -3.6095   -2.3609    1.2276 H   0  0  0  0  0  0  0  0  0  0  0  0
   -3.6849   -1.3578    0.7976 C   0  0  0  0  0  0  0  0  0  0  0  0
   -4.3728   -0.7667    1.4073 H   0  0  0  0  0  0  0  0  0  0  0  0
   -4.0848   -1.4400   -0.2157 H   0  0  0  0  0  0  0  0  0  0  0  0
   -2.3186   -0.7001    0.7671 C   0  0  0  0  0  0  0  0  0  0  0  0
   -1.3454   -1.2814    1.2125 O   0  0  0  0  0  0  0  0  0  0  0  0
   -2.1790    0.5941    0.3080 N   0  0  0  0  0  0  0  0  0  0  0  0
   -3.0372    1.1041    0.1159 H   0  0  0  0  0  0  0  0  0  0  0  0
   -0.9083    1.3483    0.3381 C   0  0  1  0  0  0  0  0  0  0  0  0
   -0.0635    0.6513    0.3021 H   0  0  0  0  0  0  0  0  0  0  0  0
   -0.8217    2.2452   -0.9146 C   0  0  0  0  0  0  0  0  0  0  0  0
   -1.7124    2.8800   -0.9698 H   0  0  0  0  0  0  0  0  0  0  0  0
    0.0487    2.9052   -0.8281 H   0  0  0  0  0  0  0  0  0  0  0  0
   -0.6694    1.4213   -2.2019 C   0  0  0  0  0  0  0  0  0  0  0  0
    0.2280    0.7963   -2.1305 H   0  0  0  0  0  0  0  0  0  0  0  0
   -1.5322    0.7570   -2.3204 H   0  0  0  0  0  0  0  0  0  0  0  0
   -0.5611    2.3529   -3.4150 C   0  0  0  0  0  0  0  0  0  0  0  0
   -1.4523    2.9888   -3.4629 H   0  0  0  0  0  0  0  0  0  0  0  0
    0.3131    3.0031   -3.2958 H   0  0  0  0  0  0  0  0  0  0  0  0
   -0.4334    1.5403   -4.7010 C   0  0  0  0  0  0  0  0  0  0  0  0
    0.4639    0.9067   -4.6408 H   0  0  0  0  0  0  0  0  0  0  0  0
   -1.2991    0.8683   -4.7930 H   0  0  0  0  0  0  0  0  0  0  0  0
   -0.3551    2.4704   -5.8487 N   0  3  0  0  0  0  0  0  0  0  0  0
    0.4629    3.0757   -5.7509 H   0  0  0  0  0  0  0  0  0  0  0  0
   -0.2757    1.9460   -6.7227 H   0  0  0  0  0  0  0  0  0  0  0  0
   -1.1939    3.0527   -5.8858 H   0  0  0  0  0  0  0  0  0  0  0  0
   -0.7303    2.1447    1.6560 C   0  0  0  0  0  0  0  0  0  0  0  0
   -0.1881    3.2420    1.6547 O   0  0  0  0  0  0  0  0  0  0  0  0
   -1.2886    1.6743    2.8302 N   0  0  0  0  0  0  0  0  0  0  0  0
   -1.5567    0.6919    2.8294 H   0  0  0  0  0  0  0  0  0  0  0  0
   -1.1178    2.3463    4.1143 C   0  0  0  0  0  0  0  0  0  0  0  0
   -1.5278    3.3611    4.0748 H   0  0  0  0  0  0  0  0  0  0  0  0
   -1.6405    1.7957    4.9025 H   0  0  0  0  0  0  0  0  0  0  0  0
   -0.0567    2.4068    4.3789 H   0  0  0  0  0  0  0  0  0  0  0  0
  1  2  1  0  0  0  0
  2  3  1  0  0  0  0
  2  4  1  0  0  0  0
  2  5  1  0  0  0  0
  5  6  2  0  0  0  0
  5  7  1  0  0  0  0
  7  8  1  0  0  0  0
  7  9  1  0  0  0  0
  9 10  1  0  0  0  0
  9 11  1  0  0  0  0
  9 27  1  0  0  0  0
 11 12  1  0  0  0  0
 11 13  1  0  0  0  0
 11 14  1  0  0  0  0
 14 15  1  0  0  0  0
 14 16  1  0  0  0  0
 14 17  1  0  0  0  0
 17 18  1  0  0  0  0
 17 19  1  0  0  0  0
 17 20  1  0  0  0  0
 20 21  1  0  0  0  0
 20 22  1  0  0  0  0
 20 23  1  0  0  0  0
 23 24  1  0  0  0  0
 23 25  1  0  0  0  0
 23 26  1  0  0  0  0
 27 28  2  0  0  0  0
 27 29  1  0  0  0  0
 29 30  1  0  0  0  0
 29 31  1  0  0  0  0
 31 32  1  0  0  0  0
 31 33  1  0  0  0  0
 31 34  1  0  0  0  0
M  CHG  1  23   1
M  END
$$$$

  -OEChem-01062216093D

 34 33  0     1  0  0  0  0  0999 V2000
   -3.5939   -2.3438    1.2737 H   0  0  0  0  0  0  0  0  0  0  0  0
   -3.6724   -1.3431    0.8387 C   0  0  0  0  0  0  0  0  0  0  0  0
   -4.3486   -0.7461    1.4557 H   0  0  0  0  0  0  0  0  0  0  0  0
   -4.0881   -1.4300   -0.1679 H   0  0  0  0  0  0  0  0  0  0  0  0
   -2.3047   -0.6901    0.7833 C   0  0  0  0  0  0  0  0  0  0  0  0
   -1.3265   -1.2700    1.2225 O   0  0  0  0  0  0  0  0  0  0  0  0
   -2.1669    0.6009    0.3144 N   0  0  0  0  0  0  0  0  0  0  0  0
   -3.0260    1.1190    0.1494 H   0  0  0  0  0  0  0  0  0  0  0  0
   -0.8928    1.3471    0.3344 C   0  0  1  0  0  0  0  0  0  0  0  0
   -0.0489    0.6494    0.2967 H   0  0  0  0  0  0  0  0  0  0  0  0
   -0.8049    2.2452   -0.9166 C   0  0  0  0  0  0  0  0  0  0  0  0
   -1.6914    2.8865   -0.9669 H   0  0  0  0  0  0  0  0  0  0  0  0
    0.0704    2.8986   -0.8281 H   0  0  0  0  0  0  0  0  0  0  0  0
   -0.6651    1.4236   -2.2069 C   0  0  0  0  0  0  0  0  0  0  0  0
    0.2274    0.7910   -2.1410 H   0  0  0  0  0  0  0  0  0  0  0  0
   -1.5342    0.7669   -2.3222 H   0  0  0  0  0  0  0  0  0  0  0  0
   -0.5553    2.3566   -3.4190 C   0  0  0  0  0  0  0  0  0  0  0  0
   -1.4416    2.9993   -3.4620 H   0  0  0  0  0  0  0  0  0  0  0  0
    0.3245    2.9997   -3.3032 H   0  0  0  0  0  0  0  0  0  0  0  0
   -0.4401    1.5439   -4.7062 C   0  0  0  0  0  0  0  0  0  0  0  0
    0.4523    0.9028   -4.6507 H   0  0  0  0  0  0  0  0  0  0  0  0
   -1.3117    0.8789   -4.7944 H   0  0  0  0  0  0  0  0  0  0  0  0
   -0.3597    2.4729   -5.8547 N   0  3  0  0  0  0  0  0  0  0  0  0
    0.4646    3.0704   -5.7621 H   0  0  0  0  0  0  0  0  0  0  0  0
   -0.2909    1.9474   -6.7291 H   0  0  0  0  0  0  0  0  0  0  0  0
   -1.1931    3.0632   -5.8868 H   0  0  0  0  0  0  0  0  0  0  0  0
   -0.7250    2.1401    1.6532 C   0  0  0  0  0  0  0  0  0  0  0  0
   -0.4130    3.3237    1.6451 O   0  0  0  0  0  0  0  0  0  0  0  0
   -1.0152    1.5237    2.8556 N   0  0  0  0  0  0  0  0  0  0  0  0
   -1.1404    0.5117    2.8247 H   0  0  0  0  0  0  0  0  0  0  0  0
   -0.8325    2.1704    4.1504 C   0  0  0  0  0  0  0  0  0  0  0  0
   -1.4572    3.0669    4.2236 H   0  0  0  0  0  0  0  0  0  0  0  0
   -1.1146    1.4880    4.9582 H   0  0  0  0  0  0  0  0  0  0  0  0
    0.2144    2.4597    4.2912 H   0  0  0  0  0  0  0  0  0  0  0  0
  1  2  1  0  0  0  0
  2  3  1  0  0  0  0
  2  4  1  0  0  0  0
  2  5  1  0  0  0  0
  5  6  2  0  0  0  0
  5  7  1  0  0  0  0
  7  8  1  0  0  0  0
  7  9  1  0  0  0  0
  9 10  1  0  0  0  0
  9 11  1  0  0  0  0
  9 27  1  0  0  0  0
 11 12  1  0  0  0  0
 11 13  1  0  0  0  0
 11 14  1  0  0  0  0
 14 15  1  0  0  0  0
 14 16  1  0  0  0  0
 14 17  1  0  0  0  0
 17 18  1  0  0  0  0
 17 19  1  0  0  0  0
 17 20  1  0  0  0  0
 20 21  1  0  0  0  0
 20 22  1  0  0  0  0
 20 23  1  0  0  0  0
 23 24  1  0  0  0  0
 23 25  1  0  0  0  0
 23 26  1  0  0  0  0
 27 28  2  0  0  0  0
 27 29  1  0  0  0  0
 29 30  1  0  0  0  0
 29 31  1  0  0  0  0
 31 32  1  0  0  0  0
 31 33  1  0  0  0  0
 31 34  1  0  0  0  0
M  CHG  1  23   1
M  END
$$$$

  -OEChem-01062216093D

 34 33  0     1  0  0  0  0  0999 V2000
   -3.5714   -2.3227    1.3260 H   0  0  0  0  0  0  0  0  0  0  0  0
   -3.6512   -1.3259    0.8824 C   0  0  0  0  0  0  0  0  0  0  0  0
   -4.3126   -0.7179    1.5047 H   0  0  0  0  0  0  0  0  0  0  0  0
   -4.0851   -1.4201   -0.1156 H   0  0  0  0  0  0  0  0  0  0  0  0
   -2.2806   -0.6825    0.7950 C   0  0  0  0  0  0  0  0  0  0  0  0
   -1.2952   -1.2724    1.2062 O   0  0  0  0  0  0  0  0  0  0  0  0
   -2.1439    0.6057    0.3168 N   0  0  0  0  0  0  0  0  0  0  0  0
   -3.0017    1.1365    0.1865 H   0  0  0  0  0  0  0  0  0  0  0  0
   -0.8640    1.3393    0.3276 C   0  0  1  0  0  0  0  0  0  0  0  0
   -0.0217    0.6399    0.2842 H   0  0  0  0  0  0  0  0  0  0  0  0
   -0.7780    2.2427   -0.9192 C   0  0  0  0  0  0  0  0  0  0  0  0
   -1.6598    2.8915   -0.9609 H   0  0  0  0  0  0  0  0  0  0  0  0
    0.1029    2.8887   -0.8297 H   0  0  0  0  0  0  0  0  0  0  0  0
   -0.6573    1.4257   -2.2139 C   0  0  0  0  0  0  0  0  0  0  0  0
    0.2292    0.7838   -2.1581 H   0  0  0  0  0  0  0  0  0  0  0  0
   -1.5343    0.7785   -2.3242 H   0  0  0  0  0  0  0  0  0  0  0  0
   -0.5485    2.3608   -3.4242 C   0  0  0  0  0  0  0  0  0  0  0  0
   -1.4288    3.0122   -3.4584 H   0  0  0  0  0  0  0  0  0  0  0  0
    0.3386    2.9949   -3.3150 H   0  0  0  0  0  0  0  0  0  0  0  0
   -0.4530    1.5480   -4.7128 C   0  0  0  0  0  0  0  0  0  0  0  0
    0.4331    0.8977   -4.6654 H   0  0  0  0  0  0  0  0  0  0  0  0
   -1.3325    0.8923   -4.7933 H   0  0  0  0  0  0  0  0  0  0  0  0
   -0.3733    2.4766   -5.8615 N   0  3  0  0  0  0  0  0  0  0  0  0
    0.4565    3.0674   -5.7748 H   0  0  0  0  0  0  0  0  0  0  0  0
   -0.3152    1.9507   -6.7364 H   0  0  0  0  0  0  0  0  0  0  0  0
   -1.2025    3.0733   -5.8872 H   0  0  0  0  0  0  0  0  0  0  0  0
   -0.7007    2.1287    1.6461 C   0  0  0  0  0  0  0  0  0  0  0  0
   -0.6238    3.3503    1.6508 O   0  0  0  0  0  0  0  0  0  0  0  0
   -0.6951    1.4374    2.8420 N   0  0  0  0  0  0  0  0  0  0  0  0
   -0.7335    0.4188    2.7867 H   0  0  0  0  0  0  0  0  0  0  0  0
   -0.5384    2.0755    4.1440 C   0  0  0  0  0  0  0  0  0  0  0  0
   -1.3575    2.7789    4.3274 H   0  0  0  0  0  0  0  0  0  0  0  0
   -0.5453    1.3229    4.9387 H   0  0  0  0  0  0  0  0  0  0  0  0
    0.4103    2.6202    4.1928 H   0  0  0  0  0  0  0  0  0  0  0  0
  1  2  1  0  0  0  0
  2  3  1  0  0  0  0
  2  4  1  0  0  0  0
  2  5  1  0  0  0  0
  5  6  2  0  0  0  0
  5  7  1  0  0  0  0
  7  8  1  0  0  0  0
  7  9  1  0  0  0  0
  9 10  1  0  0  0  0
  9 11  1  0  0  0  0
  9 27  1  0  0  0  0
 11 12  1  0  0  0  0
 11 13  1  0  0  0  0
 11 14  1  0  0  0  0
 14 15  1  0  0  0  0
 14 16  1  0  0  0  0
 14 17  1  0  0  0  0
 17 18  1  0  0  0  0
 17 19  1  0  0  0  0
 17 20  1  0  0  0  0
 20 21  1  0  0  0  0
 20 22  1  0  0  0  0
 20 23  1  0  0  0  0
 23 24  1  0  0  0  0
 23 25  1  0  0  0  0
 23 26  1  0  0  0  0
 27 28  2  0  0  0  0
 27 29  1  0  0  0  0
 29 30  1  0  0  0  0
 29 31  1  0  0  0  0
 31 32  1  0  0  0  0
 31 33  1  0  0  0  0
 31 34  1  0  0  0  0
M  CHG  1  23   1
M  END
$$$$

  -OEChem-01062216093D

 34 33  0     1  0  0  0  0  0999 V2000
   -3.5466   -2.3033    1.3827 H   0  0  0  0  0  0  0  0  0  0  0  0
   -3.6302   -1.3095    0.9336 C   0  0  0  0  0  0  0  0  0  0  0  0
   -4.2619   -0.6886    1.5737 H   0  0  0  0  0  0  0  0  0  0  0  0
   -4.1001   -1.4066   -0.0478 H   0  0  0  0  0  0  0  0  0  0  0  0
   -2.2562   -0.6829    0.7928 C   0  0  0  0  0  0  0  0  0  0  0  0
   -1.2615   -1.2886    1.1575 O   0  0  0  0  0  0  0  0  0  0  0  0
   -2.1239    0.6032    0.3073 N   0  0  0  0  0  0  0  0  0  0  0  0
   -2.9800    1.1468    0.2276 H   0  0  0  0  0  0  0  0  0  0  0  0
   -0.8414    1.3288    0.3166 C   0  0  1  0  0  0  0  0  0  0  0  0
    0.0007    0.6296    0.2671 H   0  0  0  0  0  0  0  0  0  0  0  0
   -0.7583    2.2381   -0.9249 C   0  0  0  0  0  0  0  0  0  0  0  0
   -1.6395    2.8881   -0.9604 H   0  0  0  0  0  0  0  0  0  0  0  0
    0.1232    2.8830   -0.8333 H   0  0  0  0  0  0  0  0  0  0  0  0
   -0.6488    1.4255   -2.2236 C   0  0  0  0  0  0  0  0  0  0  0  0
    0.2348    0.7793   -2.1750 H   0  0  0  0  0  0  0  0  0  0  0  0
   -1.5290    0.7824   -2.3310 H   0  0  0  0  0  0  0  0  0  0  0  0
   -0.5429    2.3641   -3.4311 C   0  0  0  0  0  0  0  0  0  0  0  0
   -1.4208    3.0193   -3.4583 H   0  0  0  0  0  0  0  0  0  0  0  0
    0.3472    2.9946   -3.3251 H   0  0  0  0  0  0  0  0  0  0  0  0
   -0.4584    1.5544   -4.7224 C   0  0  0  0  0  0  0  0  0  0  0  0
    0.4250    0.9003   -4.6820 H   0  0  0  0  0  0  0  0  0  0  0  0
   -1.3410    0.9025   -4.7996 H   0  0  0  0  0  0  0  0  0  0  0  0
   -0.3812    2.4856   -5.8693 N   0  3  0  0  0  0  0  0  0  0  0  0
    0.4506    3.0737   -5.7855 H   0  0  0  0  0  0  0  0  0  0  0  0
   -0.3293    1.9616   -6.7457 H   0  0  0  0  0  0  0  0  0  0  0  0
   -1.2086    3.0851   -5.8898 H   0  0  0  0  0  0  0  0  0  0  0  0
   -0.6830    2.1178    1.6334 C   0  0  0  0  0  0  0  0  0  0  0  0
   -0.8393    3.3314    1.6665 O   0  0  0  0  0  0  0  0  0  0  0  0
   -0.3745    1.4292    2.7900 N   0  0  0  0  0  0  0  0  0  0  0  0
   -0.3350    0.4114    2.7261 H   0  0  0  0  0  0  0  0  0  0  0  0
   -0.2346    2.0654    4.0948 C   0  0  0  0  0  0  0  0  0  0  0  0
   -1.1761    2.5367    4.3957 H   0  0  0  0  0  0  0  0  0  0  0  0
    0.0383    1.3229    4.8514 H   0  0  0  0  0  0  0  0  0  0  0  0
    0.5481    2.8310    4.0664 H   0  0  0  0  0  0  0  0  0  0  0  0
  1  2  1  0  0  0  0
  2  3  1  0  0  0  0
  2  4  1  0  0  0  0
  2  5  1  0  0  0  0
  5  6  2  0  0  0  0
  5  7  1  0  0  0  0
  7  8  1  0  0  0  0
  7  9  1  0  0  0  0
  9 10  1  0  0  0  0
  9 11  1  0  0  0  0
  9 27  1  0  0  0  0
 11 12  1  0  0  0  0
 11 13  1  0  0  0  0
 11 14  1  0  0  0  0
 14 15  1  0  0  0  0
 14 16  1  0  0  0  0
 14 17  1  0  0  0  0
 17 18  1  0  0  0  0
 17 19  1  0  0  0  0
 17 20  1  0  0  0  0
 20 21  1  0  0  0  0
 20 22  1  0  0  0  0
 20 23  1  0  0  0  0
 23 24  1  0  0  0  0
 23 25  1  0  0  0  0
 23 26  1  0  0  0  0
 27 28  2  0  0  0  0
 27 29  1  0  0  0  0
 29 30  1  0  0  0  0
 29 31  1  0  0  0  0
 31 32  1  0  0  0  0
 31 33  1  0  0  0  0
 31 34  1  0  0  0  0
M  CHG  1  23   1
M  END
$$$$

  -OEChem-01062216093D

 34 33  0     1  0  0  0  0  0999 V2000
   -3.5297   -2.2918    1.4262 H   0  0  0  0  0  0  0  0  0  0  0  0
   -3.6162   -1.2900    0.9956 C   0  0  0  0  0  0  0  0  0  0  0  0
   -4.1964   -0.6642    1.6784 H   0  0  0  0  0  0  0  0  0  0  0  0
   -4.1424   -1.3621    0.0409 H   0  0  0  0  0  0  0  0  0  0  0  0
   -2.2386   -0.6922    0.7864 C   0  0  0  0  0  0  0  0  0  0  0  0
   -1.2400   -1.3251    1.0896 O   0  0  0  0  0  0  0  0  0  0  0  0
   -2.1053    0.5900    0.2909 N   0  0  0  0  0  0  0  0  0  0  0  0
   -2.9549    1.1494    0.2646 H   0  0  0  0  0  0  0  0  0  0  0  0
   -0.8186    1.3057    0.3012 C   0  0  1  0  0  0  0  0  0  0  0  0
    0.0210    0.6039    0.2484 H   0  0  0  0  0  0  0  0  0  0  0  0
   -0.7372    2.2217   -0.9345 C   0  0  0  0  0  0  0  0  0  0  0  0
   -1.6160    2.8755   -0.9627 H   0  0  0  0  0  0  0  0  0  0  0  0
    0.1467    2.8625   -0.8411 H   0  0  0  0  0  0  0  0  0  0  0  0
   -0.6393    1.4177   -2.2397 C   0  0  0  0  0  0  0  0  0  0  0  0
    0.2410    0.7659   -2.2013 H   0  0  0  0  0  0  0  0  0  0  0  0
   -1.5239    0.7803   -2.3463 H   0  0  0  0  0  0  0  0  0  0  0  0
   -0.5350    2.3644   -3.4411 C   0  0  0  0  0  0  0  0  0  0  0  0
   -1.4092    3.0249   -3.4576 H   0  0  0  0  0  0  0  0  0  0  0  0
    0.3596    2.9881   -3.3350 H   0  0  0  0  0  0  0  0  0  0  0  0
   -0.4622    1.5657   -4.7404 C   0  0  0  0  0  0  0  0  0  0  0  0
    0.4178    0.9061   -4.7114 H   0  0  0  0  0  0  0  0  0  0  0  0
   -1.3486    0.9190   -4.8194 H   0  0  0  0  0  0  0  0  0  0  0  0
   -0.3867    2.5074   -5.8787 N   0  3  0  0  0  0  0  0  0  0  0  0
    0.4434    3.0969   -5.7887 H   0  0  0  0  0  0  0  0  0  0  0  0
   -0.3330    1.9918   -6.7599 H   0  0  0  0  0  0  0  0  0  0  0  0
   -1.2158    3.1047   -5.8938 H   0  0  0  0  0  0  0  0  0  0  0  0
   -0.6629    2.1014    1.6134 C   0  0  0  0  0  0  0  0  0  0  0  0
   -1.0637    3.2555    1.6903 O   0  0  0  0  0  0  0  0  0  0  0  0
   -0.0704    1.5003    2.7066 N   0  0  0  0  0  0  0  0  0  0  0  0
    0.1112    0.4994    2.6388 H   0  0  0  0  0  0  0  0  0  0  0  0
    0.0432    2.1476    4.0089 C   0  0  0  0  0  0  0  0  0  0  0  0
   -0.9490    2.3647    4.4185 H   0  0  0  0  0  0  0  0  0  0  0  0
    0.5728    1.4959    4.7108 H   0  0  0  0  0  0  0  0  0  0  0  0
    0.6014    3.0862    3.9243 H   0  0  0  0  0  0  0  0  0  0  0  0
  1  2  1  0  0  0  0
  2  3  1  0  0  0  0
  2  4  1  0  0  0  0
  2  5  1  0  0  0  0
  5  6  2  0  0  0  0
  5  7  1  0  0  0  0
  7  8  1  0  0  0  0
  7  9  1  0  0  0  0
  9 10  1  0  0  0  0
  9 11  1  0  0  0  0
  9 27  1  0  0  0  0
 11 12  1  0  0  0  0
 11 13  1  0  0  0  0
 11 14  1  0  0  0  0
 14 15  1  0  0  0  0
 14 16  1  0  0  0  0
 14 17  1  0  0  0  0
 17 18  1  0  0  0  0
 17 19  1  0  0  0  0
 17 20  1  0  0  0  0
 20 21  1  0  0  0  0
 20 22  1  0  0  0  0
 20 23  1  0  0  0  0
 23 24  1  0  0  0  0
 23 25  1  0  0  0  0
 23 26  1  0  0  0  0
 27 28  2  0  0  0  0
 27 29  1  0  0  0  0
 29 30  1  0  0  0  0
 29 31  1  0  0  0  0
 31 32  1  0  0  0  0
 31 33  1  0  0  0  0
 31 34  1  0  0  0  0
M  CHG  1  23   1
M  END
$$$$

  -OEChem-01062216093D

 34 33  0     1  0  0  0  0  0999 V2000
   -3.5166   -2.2787    1.4774 H   0  0  0  0  0  0  0  0  0  0  0  0
   -3.6067   -1.2767    1.0478 C   0  0  0  0  0  0  0  0  0  0  0  0
   -4.1448   -0.6402    1.7545 H   0  0  0  0  0  0  0  0  0  0  0  0
   -4.1776   -1.3427    0.1188 H   0  0  0  0  0  0  0  0  0  0  0  0
   -2.2306   -0.7012    0.7736 C   0  0  0  0  0  0  0  0  0  0  0  0
   -1.2303   -1.3584    1.0127 O   0  0  0  0  0  0  0  0  0  0  0  0
   -2.0999    0.5794    0.2725 N   0  0  0  0  0  0  0  0  0  0  0  0
   -2.9413    1.1515    0.3099 H   0  0  0  0  0  0  0  0  0  0  0  0
   -0.8110    1.2908    0.2844 C   0  0  1  0  0  0  0  0  0  0  0  0
    0.0267    0.5871    0.2295 H   0  0  0  0  0  0  0  0  0  0  0  0
   -0.7276    2.2148   -0.9441 C   0  0  0  0  0  0  0  0  0  0  0  0
   -1.6051    2.8706   -0.9673 H   0  0  0  0  0  0  0  0  0  0  0  0
    0.1581    2.8525   -0.8471 H   0  0  0  0  0  0  0  0  0  0  0  0
   -0.6351    1.4181   -2.2543 C   0  0  0  0  0  0  0  0  0  0  0  0
    0.2415    0.7614   -2.2208 H   0  0  0  0  0  0  0  0  0  0  0  0
   -1.5232    0.7858   -2.3634 H   0  0  0  0  0  0  0  0  0  0  0  0
   -0.5284    2.3702   -3.4511 C   0  0  0  0  0  0  0  0  0  0  0  0
   -1.3995    3.0348   -3.4636 H   0  0  0  0  0  0  0  0  0  0  0  0
    0.3692    2.9895   -3.3439 H   0  0  0  0  0  0  0  0  0  0  0  0
   -0.4615    1.5749   -4.7528 C   0  0  0  0  0  0  0  0  0  0  0  0
    0.4148    0.9104   -4.7268 H   0  0  0  0  0  0  0  0  0  0  0  0
   -1.3514    0.9331   -4.8317 H   0  0  0  0  0  0  0  0  0  0  0  0
   -0.3832    2.5184   -5.8894 N   0  3  0  0  0  0  0  0  0  0  0  0
    0.4495    3.1042   -5.7998 H   0  0  0  0  0  0  0  0  0  0  0  0
   -0.3329    2.0035   -6.7714 H   0  0  0  0  0  0  0  0  0  0  0  0
   -1.2100    3.1191   -5.9027 H   0  0  0  0  0  0  0  0  0  0  0  0
   -0.6577    2.0902    1.5941 C   0  0  0  0  0  0  0  0  0  0  0  0
   -1.2854    3.1303    1.7456 O   0  0  0  0  0  0  0  0  0  0  0  0
    0.1859    1.6401    2.5912 N   0  0  0  0  0  0  0  0  0  0  0  0
    0.5490    0.6937    2.4934 H   0  0  0  0  0  0  0  0  0  0  0  0
    0.2994    2.2979    3.8887 C   0  0  0  0  0  0  0  0  0  0  0  0
   -0.6616    2.2809    4.4135 H   0  0  0  0  0  0  0  0  0  0  0  0
    1.0420    1.7865    4.5091 H   0  0  0  0  0  0  0  0  0  0  0  0
    0.6138    3.3398    3.7657 H   0  0  0  0  0  0  0  0  0  0  0  0
  1  2  1  0  0  0  0
  2  3  1  0  0  0  0
  2  4  1  0  0  0  0
  2  5  1  0  0  0  0
  5  6  2  0  0  0  0
  5  7  1  0  0  0  0
  7  8  1  0  0  0  0
  7  9  1  0  0  0  0
  9 10  1  0  0  0  0
  9 11  1  0  0  0  0
  9 27  1  0  0  0  0
 11 12  1  0  0  0  0
 11 13  1  0  0  0  0
 11 14  1  0  0  0  0
 14 15  1  0  0  0  0
 14 16  1  0  0  0  0
 14 17  1  0  0  0  0
 17 18  1  0  0  0  0
 17 19  1  0  0  0  0
 17 20  1  0  0  0  0
 20 21  1  0  0  0  0
 20 22  1  0  0  0  0
 20 23  1  0  0  0  0
 23 24  1  0  0  0  0
 23 25  1  0  0  0  0
 23 26  1  0  0  0  0
 27 28  2  0  0  0  0
 27 29  1  0  0  0  0
 29 30  1  0  0  0  0
 29 31  1  0  0  0  0
 31 32  1  0  0  0  0
 31 33  1  0  0  0  0
 31 34  1  0  0  0  0
M  CHG  1  23   1
M  END
$$$$

  -OEChem-01062216093D

 34 33  0     1  0  0  0  0  0999 V2000
   -3.5076   -2.2626    1.5183 H   0  0  0  0  0  0  0  0  0  0  0  0
   -3.5996   -1.2631    1.0834 C   0  0  0  0  0  0  0  0  0  0  0  0
   -4.1027   -0.6132    1.8036 H   0  0  0  0  0  0  0  0  0  0  0  0
   -4.2044   -1.3285    0.1759 H   0  0  0  0  0  0  0  0  0  0  0  0
   -2.2266   -0.7092    0.7547 C   0  0  0  0  0  0  0  0  0  0  0  0
   -1.2296   -1.3894    0.9366 O   0  0  0  0  0  0  0  0  0  0  0  0
   -2.0972    0.5709    0.2523 N   0  0  0  0  0  0  0  0  0  0  0  0
   -2.9296    1.1508    0.3429 H   0  0  0  0  0  0  0  0  0  0  0  0
   -0.8074    1.2807    0.2718 C   0  0  1  0  0  0  0  0  0  0  0  0
    0.0293    0.5760    0.2185 H   0  0  0  0  0  0  0  0  0  0  0  0
   -0.7241    2.2138   -0.9487 C   0  0  0  0  0  0  0  0  0  0  0  0
   -1.6020    2.8694   -0.9665 H   0  0  0  0  0  0  0  0  0  0  0  0
    0.1614    2.8509   -0.8480 H   0  0  0  0  0  0  0  0  0  0  0  0
   -0.6323    1.4238   -2.2633 C   0  0  0  0  0  0  0  0  0  0  0  0
    0.2438    0.7662   -2.2323 H   0  0  0  0  0  0  0  0  0  0  0  0
   -1.5210    0.7926   -2.3742 H   0  0  0  0  0  0  0  0  0  0  0  0
   -0.5253    2.3774   -3.4593 C   0  0  0  0  0  0  0  0  0  0  0  0
   -1.3965    3.0421   -3.4712 H   0  0  0  0  0  0  0  0  0  0  0  0
    0.3725    2.9965   -3.3523 H   0  0  0  0  0  0  0  0  0  0  0  0
   -0.4596    1.5805   -4.7608 C   0  0  0  0  0  0  0  0  0  0  0  0
    0.4159    0.9152   -4.7335 H   0  0  0  0  0  0  0  0  0  0  0  0
   -1.3500    0.9393   -4.8374 H   0  0  0  0  0  0  0  0  0  0  0  0
   -0.3810    2.5189   -5.9018 N   0  3  0  0  0  0  0  0  0  0  0  0
    0.4535    3.1028   -5.8171 H   0  0  0  0  0  0  0  0  0  0  0  0
   -0.3341    1.9996   -6.7814 H   0  0  0  0  0  0  0  0  0  0  0  0
   -1.2063    3.1216   -5.9167 H   0  0  0  0  0  0  0  0  0  0  0  0
   -0.6613    2.0817    1.5810 C   0  0  0  0  0  0  0  0  0  0  0  0
   -1.4674    2.9697    1.8274 O   0  0  0  0  0  0  0  0  0  0  0  0
    0.3781    1.8297    2.4559 N   0  0  0  0  0  0  0  0  0  0  0  0
    0.9213    0.9842    2.2977 H   0  0  0  0  0  0  0  0  0  0  0  0
    0.5072    2.5068    3.7424 C   0  0  0  0  0  0  0  0  0  0  0  0
   -0.3548    2.2871    4.3814 H   0  0  0  0  0  0  0  0  0  0  0  0
    1.4136    2.1734    4.2572 H   0  0  0  0  0  0  0  0  0  0  0  0
    0.5715    3.5911    3.6016 H   0  0  0  0  0  0  0  0  0  0  0  0
  1  2  1  0  0  0  0
  2  3  1  0  0  0  0
  2  4  1  0  0  0  0
  2  5  1  0  0  0  0
  5  6  2  0  0  0  0
  5  7  1  0  0  0  0
  7  8  1  0  0  0  0
  7  9  1  0  0  0  0
  9 10  1  0  0  0  0
  9 11  1  0  0  0  0
  9 27  1  0  0  0  0
 11 12  1  0  0  0  0
 11 13  1  0  0  0  0
 11 14  1  0  0  0  0
 14 15  1  0  0  0  0
 14 16  1  0  0  0  0
 14 17  1  0  0  0  0
 17 18  1  0  0  0  0
 17 19  1  0  0  0  0
 17 20  1  0  0  0  0
 20 21  1  0  0  0  0
 20 22  1  0  0  0  0
 20 23  1  0  0  0  0
 23 24  1  0  0  0  0
 23 25  1  0  0  0  0
 23 26  1  0  0  0  0
 27 28  2  0  0  0  0
 27 29  1  0  0  0  0
 29 30  1  0  0  0  0
 29 31  1  0  0  0  0
 31 32  1  0  0  0  0
 31 33  1  0  0  0  0
 31 34  1  0  0  0  0
M  CHG  1  23   1
M  END
$$$$

  -OEChem-01062216093D

 34 33  0     1  0  0  0  0  0999 V2000
   -3.4975   -2.2533    1.5302 H   0  0  0  0  0  0  0  0  0  0  0  0
   -3.5905   -1.2480    1.1093 C   0  0  0  0  0  0  0  0  0  0  0  0
   -4.0528   -0.5973    1.8559 H   0  0  0  0  0  0  0  0  0  0  0  0
   -4.2331   -1.2936    0.2270 H   0  0  0  0  0  0  0  0  0  0  0  0
   -2.2234   -0.7119    0.7305 C   0  0  0  0  0  0  0  0  0  0  0  0
   -1.2309   -1.4104    0.8600 O   0  0  0  0  0  0  0  0  0  0  0  0
   -2.0968    0.5689    0.2299 N   0  0  0  0  0  0  0  0  0  0  0  0
   -2.9208    1.1525    0.3666 H   0  0  0  0  0  0  0  0  0  0  0  0
   -0.8069    1.2787    0.2600 C   0  0  1  0  0  0  0  0  0  0  0  0
    0.0304    0.5744    0.2094 H   0  0  0  0  0  0  0  0  0  0  0  0
   -0.7246    2.2178   -0.9546 C   0  0  0  0  0  0  0  0  0  0  0  0
   -1.6030    2.8727   -0.9704 H   0  0  0  0  0  0  0  0  0  0  0  0
    0.1609    2.8546   -0.8528 H   0  0  0  0  0  0  0  0  0  0  0  0
   -0.6305    1.4284   -2.2694 C   0  0  0  0  0  0  0  0  0  0  0  0
    0.2461    0.7714   -2.2373 H   0  0  0  0  0  0  0  0  0  0  0  0
   -1.5182    0.7957   -2.3812 H   0  0  0  0  0  0  0  0  0  0  0  0
   -0.5245    2.3797   -3.4664 C   0  0  0  0  0  0  0  0  0  0  0  0
   -1.3966    3.0432   -3.4805 H   0  0  0  0  0  0  0  0  0  0  0  0
    0.3727    2.9997   -3.3609 H   0  0  0  0  0  0  0  0  0  0  0  0
   -0.4571    1.5781   -4.7645 C   0  0  0  0  0  0  0  0  0  0  0  0
    0.4191    0.9136   -4.7346 H   0  0  0  0  0  0  0  0  0  0  0  0
   -1.3472    0.9358   -4.8390 H   0  0  0  0  0  0  0  0  0  0  0  0
   -0.3796    2.5136   -5.9076 N   0  3  0  0  0  0  0  0  0  0  0  0
    0.4537    3.0990   -5.8237 H   0  0  0  0  0  0  0  0  0  0  0  0
   -0.3317    1.9925   -6.7860 H   0  0  0  0  0  0  0  0  0  0  0  0
   -1.2060    3.1146   -5.9238 H   0  0  0  0  0  0  0  0  0  0  0  0
   -0.6701    2.0782    1.5716 C   0  0  0  0  0  0  0  0  0  0  0  0
   -1.5998    2.7919    1.9271 O   0  0  0  0  0  0  0  0  0  0  0  0
    0.5015    2.0575    2.3046 N   0  0  0  0  0  0  0  0  0  0  0  0
    1.1900    1.3497    2.0626 H   0  0  0  0  0  0  0  0  0  0  0  0
    0.6448    2.7577    3.5773 C   0  0  0  0  0  0  0  0  0  0  0  0
   -0.0619    2.3623    4.3150 H   0  0  0  0  0  0  0  0  0  0  0  0
    1.6595    2.6324    3.9679 H   0  0  0  0  0  0  0  0  0  0  0  0
    0.4566    3.8293    3.4502 H   0  0  0  0  0  0  0  0  0  0  0  0
  1  2  1  0  0  0  0
  2  3  1  0  0  0  0
  2  4  1  0  0  0  0
  2  5  1  0  0  0  0
  5  6  2  0  0  0  0
  5  7  1  0  0  0  0
  7  8  1  0  0  0  0
  7  9  1  0  0  0  0
  9 10  1  0  0  0  0
  9 11  1  0  0  0  0
  9 27  1  0  0  0  0
 11 12  1  0  0  0  0
 11 13  1  0  0  0  0
 11 14  1  0  0  0  0
 14 15  1  0  0  0  0
 14 16  1  0  0  0  0
 14 17  1  0  0  0  0
 17 18  1  0  0  0  0
 17 19  1  0  0  0  0
 17 20  1  0  0  0  0
 20 21  1  0  0  0  0
 20 22  1  0  0  0  0
 20 23  1  0  0  0  0
 23 24  1  0  0  0  0
 23 25  1  0  0  0  0
 23 26  1  0  0  0  0
 27 28  2  0  0  0  0
 27 29  1  0  0  0  0
 29 30  1  0  0  0  0
 29 31  1  0  0  0  0
 31 32  1  0  0  0  0
 31 33  1  0  0  0  0
 31 34  1  0  0  0  0
M  CHG  1  23   1
M  END
$$$$

  -OEChem-01062216093D

 34 33  0     1  0  0  0  0  0999 V2000
   -3.4698   -2.2313    1.5892 H   0  0  0  0  0  0  0  0  0  0  0  0
   -3.5825   -1.2437    1.1327 C   0  0  0  0  0  0  0  0  0  0  0  0
   -4.0352   -0.5698    1.8646 H   0  0  0  0  0  0  0  0  0  0  0  0
   -4.2425   -1.3287    0.2663 H   0  0  0  0  0  0  0  0  0  0  0  0
   -2.2286   -0.7110    0.7052 C   0  0  0  0  0  0  0  0  0  0  0  0
   -1.2389   -1.4219    0.7761 O   0  0  0  0  0  0  0  0  0  0  0  0
   -2.1131    0.5737    0.2116 N   0  0  0  0  0  0  0  0  0  0  0  0
   -2.9312    1.1533    0.3942 H   0  0  0  0  0  0  0  0  0  0  0  0
   -0.8247    1.2877    0.2538 C   0  0  1  0  0  0  0  0  0  0  0  0
    0.0140    0.5849    0.2071 H   0  0  0  0  0  0  0  0  0  0  0  0
   -0.7399    2.2279   -0.9591 C   0  0  0  0  0  0  0  0  0  0  0  0
   -1.6225    2.8768   -0.9798 H   0  0  0  0  0  0  0  0  0  0  0  0
    0.1413    2.8702   -0.8536 H   0  0  0  0  0  0  0  0  0  0  0  0
   -0.6345    1.4355   -2.2719 C   0  0  0  0  0  0  0  0  0  0  0  0
    0.2444    0.7820   -2.2324 H   0  0  0  0  0  0  0  0  0  0  0  0
   -1.5187    0.7982   -2.3870 H   0  0  0  0  0  0  0  0  0  0  0  0
   -0.5257    2.3826   -3.4719 C   0  0  0  0  0  0  0  0  0  0  0  0
   -1.4015    3.0406   -3.4939 H   0  0  0  0  0  0  0  0  0  0  0  0
    0.3673    3.0082   -3.3635 H   0  0  0  0  0  0  0  0  0  0  0  0
   -0.4471    1.5756   -4.7664 C   0  0  0  0  0  0  0  0  0  0  0  0
    0.4317    0.9149   -4.7288 H   0  0  0  0  0  0  0  0  0  0  0  0
   -1.3339    0.9290   -4.8430 H   0  0  0  0  0  0  0  0  0  0  0  0
   -0.3669    2.5058   -5.9137 N   0  3  0  0  0  0  0  0  0  0  0  0
    0.4670    3.0907   -5.8320 H   0  0  0  0  0  0  0  0  0  0  0  0
   -0.3186    1.9804   -6.7895 H   0  0  0  0  0  0  0  0  0  0  0  0
   -1.1926    3.1075   -5.9342 H   0  0  0  0  0  0  0  0  0  0  0  0
   -0.6874    2.0836    1.5689 C   0  0  0  0  0  0  0  0  0  0  0  0
   -1.6848    2.6017    2.0561 O   0  0  0  0  0  0  0  0  0  0  0  0
    0.5514    2.3132    2.1386 N   0  0  0  0  0  0  0  0  0  0  0  0
    1.3366    1.7759    1.7819 H   0  0  0  0  0  0  0  0  0  0  0  0
    0.7173    3.0303    3.3995 C   0  0  0  0  0  0  0  0  0  0  0  0
    0.1981    2.5079    4.2103 H   0  0  0  0  0  0  0  0  0  0  0  0
    1.7783    3.1025    3.6584 H   0  0  0  0  0  0  0  0  0  0  0  0
    0.3132    4.0454    3.3216 H   0  0  0  0  0  0  0  0  0  0  0  0
  1  2  1  0  0  0  0
  2  3  1  0  0  0  0
  2  4  1  0  0  0  0
  2  5  1  0  0  0  0
  5  6  2  0  0  0  0
  5  7  1  0  0  0  0
  7  8  1  0  0  0  0
  7  9  1  0  0  0  0
  9 10  1  0  0  0  0
  9 11  1  0  0  0  0
  9 27  1  0  0  0  0
 11 12  1  0  0  0  0
 11 13  1  0  0  0  0
 11 14  1  0  0  0  0
 14 15  1  0  0  0  0
 14 16  1  0  0  0  0
 14 17  1  0  0  0  0
 17 18  1  0  0  0  0
 17 19  1  0  0  0  0
 17 20  1  0  0  0  0
 20 21  1  0  0  0  0
 20 22  1  0  0  0  0
 20 23  1  0  0  0  0
 23 24  1  0  0  0  0
 23 25  1  0  0  0  0
 23 26  1  0  0  0  0
 27 28  2  0  0  0  0
 27 29  1  0  0  0  0
 29 30  1  0  0  0  0
 29 31  1  0  0  0  0
 31 32  1  0  0  0  0
 31 33  1  0  0  0  0
 31 34  1  0  0  0  0
M  CHG  1  23   1
M  END
$$$$

  -OEChem-01062216093D

 34 33  0     1  0  0  0  0  0999 V2000
   -3.4544   -2.2355    1.5649 H   0  0  0  0  0  0  0  0  0  0  0  0
   -3.5697   -1.2303    1.1495 C   0  0  0  0  0  0  0  0  0  0  0  0
   -3.9700   -0.5745    1.9269 H   0  0  0  0  0  0  0  0  0  0  0  0
   -4.2752   -1.2712    0.3166 H   0  0  0  0  0  0  0  0  0  0  0  0
   -2.2293   -0.7066    0.6717 C   0  0  0  0  0  0  0  0  0  0  0  0
   -1.2458   -1.4296    0.6871 O   0  0  0  0  0  0  0  0  0  0  0  0
   -2.1217    0.5833    0.1899 N   0  0  0  0  0  0  0  0  0  0  0  0
   -2.9341    1.1568    0.4132 H   0  0  0  0  0  0  0  0  0  0  0  0
   -0.8333    1.2980    0.2478 C   0  0  1  0  0  0  0  0  0  0  0  0
    0.0075    0.5973    0.2036 H   0  0  0  0  0  0  0  0  0  0  0  0
   -0.7493    2.2408   -0.9642 C   0  0  0  0  0  0  0  0  0  0  0  0
   -1.6345    2.8862   -0.9872 H   0  0  0  0  0  0  0  0  0  0  0  0
    0.1290    2.8867   -0.8589 H   0  0  0  0  0  0  0  0  0  0  0  0
   -0.6361    1.4461   -2.2757 C   0  0  0  0  0  0  0  0  0  0  0  0
    0.2453    0.7964   -2.2316 H   0  0  0  0  0  0  0  0  0  0  0  0
   -1.5164    0.8037   -2.3914 H   0  0  0  0  0  0  0  0  0  0  0  0
   -0.5277    2.3864   -3.4808 C   0  0  0  0  0  0  0  0  0  0  0  0
   -1.4061    3.0406   -3.5105 H   0  0  0  0  0  0  0  0  0  0  0  0
    0.3629    3.0156   -3.3748 H   0  0  0  0  0  0  0  0  0  0  0  0
   -0.4419    1.5679   -4.7676 C   0  0  0  0  0  0  0  0  0  0  0  0
    0.4394    0.9112   -4.7196 H   0  0  0  0  0  0  0  0  0  0  0  0
   -1.3257    0.9168   -4.8405 H   0  0  0  0  0  0  0  0  0  0  0  0
   -0.3618    2.4854   -5.9251 N   0  3  0  0  0  0  0  0  0  0  0  0
    0.4675    3.0770   -5.8459 H   0  0  0  0  0  0  0  0  0  0  0  0
   -0.3049    1.9499   -6.7944 H   0  0  0  0  0  0  0  0  0  0  0  0
   -1.1918    3.0808   -5.9571 H   0  0  0  0  0  0  0  0  0  0  0  0
   -0.7005    2.0833    1.5723 C   0  0  0  0  0  0  0  0  0  0  0  0
   -1.7127    2.3947    2.1885 O   0  0  0  0  0  0  0  0  0  0  0  0
    0.5241    2.5713    1.9907 N   0  0  0  0  0  0  0  0  0  0  0  0
    1.3541    2.2153    1.5260 H   0  0  0  0  0  0  0  0  0  0  0  0
    0.6906    3.3133    3.2370 C   0  0  0  0  0  0  0  0  0  0  0  0
    0.4012    2.6952    4.0939 H   0  0  0  0  0  0  0  0  0  0  0  0
    1.7352    3.6137    3.3648 H   0  0  0  0  0  0  0  0  0  0  0  0
    0.0717    4.2171    3.2322 H   0  0  0  0  0  0  0  0  0  0  0  0
  1  2  1  0  0  0  0
  2  3  1  0  0  0  0
  2  4  1  0  0  0  0
  2  5  1  0  0  0  0
  5  6  2  0  0  0  0
  5  7  1  0  0  0  0
  7  8  1  0  0  0  0
  7  9  1  0  0  0  0
  9 10  1  0  0  0  0
  9 11  1  0  0  0  0
  9 27  1  0  0  0  0
 11 12  1  0  0  0  0
 11 13  1  0  0  0  0
 11 14  1  0  0  0  0
 14 15  1  0  0  0  0
 14 16  1  0  0  0  0
 14 17  1  0  0  0  0
 17 18  1  0  0  0  0
 17 19  1  0  0  0  0
 17 20  1  0  0  0  0
 20 21  1  0  0  0  0
 20 22  1  0  0  0  0
 20 23  1  0  0  0  0
 23 24  1  0  0  0  0
 23 25  1  0  0  0  0
 23 26  1  0  0  0  0
 27 28  2  0  0  0  0
 27 29  1  0  0  0  0
 29 30  1  0  0  0  0
 29 31  1  0  0  0  0
 31 32  1  0  0  0  0
 31 33  1  0  0  0  0
 31 34  1  0  0  0  0
M  CHG  1  23   1
M  END
$$$$

  -OEChem-01062216093D

 34 33  0     1  0  0  0  0  0999 V2000
   -3.3828   -2.2975    1.5014 H   0  0  0  0  0  0  0  0  0  0  0  0
   -3.5179   -1.2637    1.1708 C   0  0  0  0  0  0  0  0  0  0  0  0
   -3.8559   -0.6660    2.0213 H   0  0  0  0  0  0  0  0  0  0  0  0
   -4.2805   -1.2401    0.3891 H   0  0  0  0  0  0  0  0  0  0  0  0
   -2.2092   -0.7104    0.6411 C   0  0  0  0  0  0  0  0  0  0  0  0
   -1.2136   -1.4160    0.5953 O   0  0  0  0  0  0  0  0  0  0  0  0
   -2.1438    0.5888    0.1732 N   0  0  0  0  0  0  0  0  0  0  0  0
   -2.9605    1.1331    0.4406 H   0  0  0  0  0  0  0  0  0  0  0  0
   -0.8620    1.3146    0.2486 C   0  0  1  0  0  0  0  0  0  0  0  0
   -0.0384    0.6625   -0.0633 H   0  0  0  0  0  0  0  0  0  0  0  0
   -0.9369    2.5087   -0.7212 C   0  0  0  0  0  0  0  0  0  0  0  0
   -1.8252    3.1082   -0.4936 H   0  0  0  0  0  0  0  0  0  0  0  0
   -0.0607    3.1497   -0.5796 H   0  0  0  0  0  0  0  0  0  0  0  0
   -0.9753    2.0343   -2.1835 C   0  0  0  0  0  0  0  0  0  0  0  0
   -0.0867    1.4274   -2.3906 H   0  0  0  0  0  0  0  0  0  0  0  0
   -1.8551    1.4000   -2.3402 H   0  0  0  0  0  0  0  0  0  0  0  0
   -1.0250    3.2244   -3.1484 C   0  0  0  0  0  0  0  0  0  0  0  0
   -1.9079    3.8344   -2.9268 H   0  0  0  0  0  0  0  0  0  0  0  0
   -0.1357    3.8483   -3.0063 H   0  0  0  0  0  0  0  0  0  0  0  0
   -1.0872    2.7188   -4.5888 C   0  0  0  0  0  0  0  0  0  0  0  0
   -0.1990    2.1030   -4.7937 H   0  0  0  0  0  0  0  0  0  0  0  0
   -1.9654    2.0664   -4.7043 H   0  0  0  0  0  0  0  0  0  0  0  0
   -1.1590    3.8734   -5.5109 N   0  3  0  0  0  0  0  0  0  0  0  0
   -0.3336    4.4648   -5.3969 H   0  0  0  0  0  0  0  0  0  0  0  0
   -1.2010    3.5472   -6.4792 H   0  0  0  0  0  0  0  0  0  0  0  0
   -1.9940    4.4281   -5.3123 H   0  0  0  0  0  0  0  0  0  0  0  0
   -0.5461    1.7759    1.6944 C   0  0  0  0  0  0  0  0  0  0  0  0
   -1.4169    1.7165    2.5542 O   0  0  0  0  0  0  0  0  0  0  0  0
    0.6163    2.4720    1.9769 N   0  0  0  0  0  0  0  0  0  0  0  0
    1.3608    2.4364    1.2876 H   0  0  0  0  0  0  0  0  0  0  0  0
    0.9336    2.9651    3.3141 C   0  0  0  0  0  0  0  0  0  0  0  0
    0.9980    2.1338    4.0246 H   0  0  0  0  0  0  0  0  0  0  0  0
    1.8936    3.4903    3.3078 H   0  0  0  0  0  0  0  0  0  0  0  0
    0.1636    3.6630    3.6602 H   0  0  0  0  0  0  0  0  0  0  0  0
  1  2  1  0  0  0  0
  2  3  1  0  0  0  0
  2  4  1  0  0  0  0
  2  5  1  0  0  0  0
  5  6  2  0  0  0  0
  5  7  1  0  0  0  0
  7  8  1  0  0  0  0
  7  9  1  0  0  0  0
  9 10  1  0  0  0  0
  9 11  1  0  0  0  0
  9 27  1  0  0  0  0
 11 12  1  0  0  0  0
 11 13  1  0  0  0  0
 11 14  1  0  0  0  0
 14 15  1  0  0  0  0
 14 16  1  0  0  0  0
 14 17  1  0  0  0  0
 17 18  1  0  0  0  0
 17 19  1  0  0  0  0
 17 20  1  0  0  0  0
 20 21  1  0  0  0  0
 20 22  1  0  0  0  0
 20 23  1  0  0  0  0
 23 24  1  0  0  0  0
 23 25  1  0  0  0  0
 23 26  1  0  0  0  0
 27 28  2  0  0  0  0
 27 29  1  0  0  0  0
 29 30  1  0  0  0  0
 29 31  1  0  0  0  0
 31 32  1  0  0  0  0
 31 33  1  0  0  0  0
 31 34  1  0  0  0  0
M  CHG  1  23   1
M  END
$$$$

  -OEChem-01062216093D

 34 33  0     1  0  0  0  0  0999 V2000
   -3.3549   -2.2925    1.4754 H   0  0  0  0  0  0  0  0  0  0  0  0
   -3.4933   -1.2444    1.1951 C   0  0  0  0  0  0  0  0  0  0  0  0
   -3.7634   -0.6766    2.0892 H   0  0  0  0  0  0  0  0  0  0  0  0
   -4.3049   -1.1778    0.4673 H   0  0  0  0  0  0  0  0  0  0  0  0
   -2.2115   -0.6901    0.6045 C   0  0  0  0  0  0  0  0  0  0  0  0
   -1.2299   -1.4053    0.4790 O   0  0  0  0  0  0  0  0  0  0  0  0
   -2.1571    0.6190    0.1614 N   0  0  0  0  0  0  0  0  0  0  0  0
   -2.9712    1.1521    0.4561 H   0  0  0  0  0  0  0  0  0  0  0  0
   -0.8753    1.3464    0.2460 C   0  0  1  0  0  0  0  0  0  0  0  0
   -0.0503    0.6980   -0.0697 H   0  0  0  0  0  0  0  0  0  0  0  0
   -0.9513    2.5377   -0.7305 C   0  0  0  0  0  0  0  0  0  0  0  0
   -1.8427    3.1354   -0.5110 H   0  0  0  0  0  0  0  0  0  0  0  0
   -0.0781    3.1836   -0.5953 H   0  0  0  0  0  0  0  0  0  0  0  0
   -0.9801    2.0489   -2.1889 C   0  0  0  0  0  0  0  0  0  0  0  0
   -0.0881    1.4429   -2.3845 H   0  0  0  0  0  0  0  0  0  0  0  0
   -1.8561    1.4090   -2.3436 H   0  0  0  0  0  0  0  0  0  0  0  0
   -1.0307    3.2260   -3.1692 C   0  0  0  0  0  0  0  0  0  0  0  0
   -1.9182    3.8341   -2.9609 H   0  0  0  0  0  0  0  0  0  0  0  0
   -0.1454    3.8567   -3.0314 H   0  0  0  0  0  0  0  0  0  0  0  0
   -1.0830    2.6994   -4.6029 C   0  0  0  0  0  0  0  0  0  0  0  0
   -0.1909    2.0850   -4.7950 H   0  0  0  0  0  0  0  0  0  0  0  0
   -1.9571    2.0406   -4.7141 H   0  0  0  0  0  0  0  0  0  0  0  0
   -1.1559    3.8404   -5.5416 N   0  3  0  0  0  0  0  0  0  0  0  0
   -0.3344    4.4380   -5.4307 H   0  0  0  0  0  0  0  0  0  0  0  0
   -1.1902    3.5005   -6.5056 H   0  0  0  0  0  0  0  0  0  0  0  0
   -1.9954    4.3929   -5.3559 H   0  0  0  0  0  0  0  0  0  0  0  0
   -0.5506    1.7820    1.7017 C   0  0  0  0  0  0  0  0  0  0  0  0
   -1.3029    1.4686    2.6160 O   0  0  0  0  0  0  0  0  0  0  0  0
    0.4303    2.7234    1.9642 N   0  0  0  0  0  0  0  0  0  0  0  0
    1.0950    2.9259    1.2248 H   0  0  0  0  0  0  0  0  0  0  0  0
    0.7254    3.2022    3.3119 C   0  0  0  0  0  0  0  0  0  0  0  0
    1.0274    2.3703    3.9574 H   0  0  0  0  0  0  0  0  0  0  0  0
    1.5395    3.9332    3.2864 H   0  0  0  0  0  0  0  0  0  0  0  0
   -0.1551    3.6841    3.7506 H   0  0  0  0  0  0  0  0  0  0  0  0
  1  2  1  0  0  0  0
  2  3  1  0  0  0  0
  2  4  1  0  0  0  0
  2  5  1  0  0  0  0
  5  6  2  0  0  0  0
  5  7  1  0  0  0  0
  7  8  1  0  0  0  0
  7  9  1  0  0  0  0
  9 10  1  0  0  0  0
  9 11  1  0  0  0  0
  9 27  1  0  0  0  0
 11 12  1  0  0  0  0
 11 13  1  0  0  0  0
 11 14  1  0  0  0  0
 14 15  1  0  0  0  0
 14 16  1  0  0  0  0
 14 17  1  0  0  0  0
 17 18  1  0  0  0  0
 17 19  1  0  0  0  0
 17 20  1  0  0  0  0
 20 21  1  0  0  0  0
 20 22  1  0  0  0  0
 20 23  1  0  0  0  0
 23 24  1  0  0  0  0
 23 25  1  0  0  0  0
 23 26  1  0  0  0  0
 27 28  2  0  0  0  0
 27 29  1  0  0  0  0
 29 30  1  0  0  0  0
 29 31  1  0  0  0  0
 31 32  1  0  0  0  0
 31 33  1  0  0  0  0
 31 34  1  0  0  0  0
M  CHG  1  23   1
M  END
$$$$

  -OEChem-01062216093D

 34 33  0     1  0  0  0  0  0999 V2000
   -3.3403   -2.2928    1.4369 H   0  0  0  0  0  0  0  0  0  0  0  0
   -3.4804   -1.2344    1.1997 C   0  0  0  0  0  0  0  0  0  0  0  0
   -3.7119   -0.6977    2.1234 H   0  0  0  0  0  0  0  0  0  0  0  0
   -4.3181   -1.1360    0.5058 H   0  0  0  0  0  0  0  0  0  0  0  0
   -2.2168   -0.6682    0.5817 C   0  0  0  0  0  0  0  0  0  0  0  0
   -1.2488   -1.3867    0.3879 O   0  0  0  0  0  0  0  0  0  0  0  0
   -2.1728    0.6500    0.1634 N   0  0  0  0  0  0  0  0  0  0  0  0
   -2.9880    1.1723    0.4725 H   0  0  0  0  0  0  0  0  0  0  0  0
   -0.8935    1.3833    0.2487 C   0  0  1  0  0  0  0  0  0  0  0  0
   -0.0694    0.7356   -0.0712 H   0  0  0  0  0  0  0  0  0  0  0  0
   -0.9675    2.5672   -0.7378 C   0  0  0  0  0  0  0  0  0  0  0  0
   -1.8608    3.1659   -0.5287 H   0  0  0  0  0  0  0  0  0  0  0  0
   -0.0940    3.2134   -0.6093 H   0  0  0  0  0  0  0  0  0  0  0  0
   -0.9867    2.0611   -2.1911 C   0  0  0  0  0  0  0  0  0  0  0  0
   -0.0926    1.4542   -2.3754 H   0  0  0  0  0  0  0  0  0  0  0  0
   -1.8604    1.4173   -2.3429 H   0  0  0  0  0  0  0  0  0  0  0  0
   -1.0352    3.2246   -3.1877 C   0  0  0  0  0  0  0  0  0  0  0  0
   -1.9251    3.8335   -2.9928 H   0  0  0  0  0  0  0  0  0  0  0  0
   -0.1518    3.8587   -3.0546 H   0  0  0  0  0  0  0  0  0  0  0  0
   -1.0778    2.6769   -4.6139 C   0  0  0  0  0  0  0  0  0  0  0  0
   -0.1826    2.0626   -4.7916 H   0  0  0  0  0  0  0  0  0  0  0  0
   -1.9489    2.0134   -4.7188 H   0  0  0  0  0  0  0  0  0  0  0  0
   -1.1489    3.8026   -5.5711 N   0  3  0  0  0  0  0  0  0  0  0  0
   -0.3302    4.4049   -5.4654 H   0  0  0  0  0  0  0  0  0  0  0  0
   -1.1760    3.4468   -6.5295 H   0  0  0  0  0  0  0  0  0  0  0  0
   -1.9915    4.3546   -5.3995 H   0  0  0  0  0  0  0  0  0  0  0  0
   -0.5512    1.7972    1.7095 C   0  0  0  0  0  0  0  0  0  0  0  0
   -1.1101    1.2482    2.6498 O   0  0  0  0  0  0  0  0  0  0  0  0
    0.1892    2.9353    1.9854 N   0  0  0  0  0  0  0  0  0  0  0  0
    0.6880    3.3716    1.2178 H   0  0  0  0  0  0  0  0  0  0  0  0
    0.4689    3.3910    3.3449 C   0  0  0  0  0  0  0  0  0  0  0  0
    1.0124    2.6213    3.9037 H   0  0  0  0  0  0  0  0  0  0  0  0
    1.0794    4.2989    3.3242 H   0  0  0  0  0  0  0  0  0  0  0  0
   -0.4630    3.6158    3.8748 H   0  0  0  0  0  0  0  0  0  0  0  0
  1  2  1  0  0  0  0
  2  3  1  0  0  0  0
  2  4  1  0  0  0  0
  2  5  1  0  0  0  0
  5  6  2  0  0  0  0
  5  7  1  0  0  0  0
  7  8  1  0  0  0  0
  7  9  1  0  0  0  0
  9 10  1  0  0  0  0
  9 11  1  0  0  0  0
  9 27  1  0  0  0  0
 11 12  1  0  0  0  0
 11 13  1  0  0  0  0
 11 14  1  0  0  0  0
 14 15  1  0  0  0  0
 14 16  1  0  0  0  0
 14 17  1  0  0  0  0
 17 18  1  0  0  0  0
 17 19  1  0  0  0  0
 17 20  1  0  0  0  0
 20 21  1  0  0  0  0
 20 22  1  0  0  0  0
 20 23  1  0  0  0  0
 23 24  1  0  0  0  0
 23 25  1  0  0  0  0
 23 26  1  0  0  0  0
 27 28  2  0  0  0  0
 27 29  1  0  0  0  0
 29 30  1  0  0  0  0
 29 31  1  0  0  0  0
 31 32  1  0  0  0  0
 31 33  1  0  0  0  0
 31 34  1  0  0  0  0
M  CHG  1  23   1
M  END
$$$$

  -OEChem-01062216093D

 34 33  0     1  0  0  0  0  0999 V2000
   -3.3190   -2.2843    1.4405 H   0  0  0  0  0  0  0  0  0  0  0  0
   -3.4702   -1.2263    1.2079 C   0  0  0  0  0  0  0  0  0  0  0  0
   -3.6899   -0.6932    2.1365 H   0  0  0  0  0  0  0  0  0  0  0  0
   -4.3200   -1.1319    0.5281 H   0  0  0  0  0  0  0  0  0  0  0  0
   -2.2204   -0.6513    0.5698 C   0  0  0  0  0  0  0  0  0  0  0  0
   -1.2678   -1.3722    0.3184 O   0  0  0  0  0  0  0  0  0  0  0  0
   -2.1850    0.6727    0.1689 N   0  0  0  0  0  0  0  0  0  0  0  0
   -3.0031    1.1867    0.4834 H   0  0  0  0  0  0  0  0  0  0  0  0
   -0.9097    1.4138    0.2486 C   0  0  1  0  0  0  0  0  0  0  0  0
   -0.0857    0.7665   -0.0736 H   0  0  0  0  0  0  0  0  0  0  0  0
   -0.9789    2.5937   -0.7427 C   0  0  0  0  0  0  0  0  0  0  0  0
   -1.8712    3.1964   -0.5418 H   0  0  0  0  0  0  0  0  0  0  0  0
   -0.1014    3.2352   -0.6144 H   0  0  0  0  0  0  0  0  0  0  0  0
   -0.9915    2.0768   -2.1926 C   0  0  0  0  0  0  0  0  0  0  0  0
   -0.0965    1.4683   -2.3666 H   0  0  0  0  0  0  0  0  0  0  0  0
   -1.8643    1.4313   -2.3428 H   0  0  0  0  0  0  0  0  0  0  0  0
   -1.0349    3.2290   -3.2026 C   0  0  0  0  0  0  0  0  0  0  0  0
   -1.9262    3.8397   -3.0202 H   0  0  0  0  0  0  0  0  0  0  0  0
   -0.1525    3.8653   -3.0728 H   0  0  0  0  0  0  0  0  0  0  0  0
   -1.0708    2.6604   -4.6213 C   0  0  0  0  0  0  0  0  0  0  0  0
   -0.1750    2.0429   -4.7847 H   0  0  0  0  0  0  0  0  0  0  0  0
   -1.9415    1.9953   -4.7200 H   0  0  0  0  0  0  0  0  0  0  0  0
   -1.1369    3.7691   -5.5985 N   0  3  0  0  0  0  0  0  0  0  0  0
   -0.3182    4.3723   -5.4997 H   0  0  0  0  0  0  0  0  0  0  0  0
   -1.1591    3.3958   -6.5504 H   0  0  0  0  0  0  0  0  0  0  0  0
   -1.9799    4.3248   -5.4418 H   0  0  0  0  0  0  0  0  0  0  0  0
   -0.5558    1.8112    1.7104 C   0  0  0  0  0  0  0  0  0  0  0  0
   -0.8571    1.0738    2.6377 O   0  0  0  0  0  0  0  0  0  0  0  0
   -0.0993    3.0797    2.0303 N   0  0  0  0  0  0  0  0  0  0  0  0
    0.1503    3.7026    1.2703 H   0  0  0  0  0  0  0  0  0  0  0  0
    0.1630    3.5099    3.4014 C   0  0  0  0  0  0  0  0  0  0  0  0
    0.9192    2.8684    3.8669 H   0  0  0  0  0  0  0  0  0  0  0  0
    0.5305    4.5406    3.4138 H   0  0  0  0  0  0  0  0  0  0  0  0
   -0.7529    3.4636    4.0006 H   0  0  0  0  0  0  0  0  0  0  0  0
  1  2  1  0  0  0  0
  2  3  1  0  0  0  0
  2  4  1  0  0  0  0
  2  5  1  0  0  0  0
  5  6  2  0  0  0  0
  5  7  1  0  0  0  0
  7  8  1  0  0  0  0
  7  9  1  0  0  0  0
  9 10  1  0  0  0  0
  9 11  1  0  0  0  0
  9 27  1  0  0  0  0
 11 12  1  0  0  0  0
 11 13  1  0  0  0  0
 11 14  1  0  0  0  0
 14 15  1  0  0  0  0
 14 16  1  0  0  0  0
 14 17  1  0  0  0  0
 17 18  1  0  0  0  0
 17 19  1  0  0  0  0
 17 20  1  0  0  0  0
 20 21  1  0  0  0  0
 20 22  1  0  0  0  0
 20 23  1  0  0  0  0
 23 24  1  0  0  0  0
 23 25  1  0  0  0  0
 23 26  1  0  0  0  0
 27 28  2  0  0  0  0
 27 29  1  0  0  0  0
 29 30  1  0  0  0  0
 29 31  1  0  0  0  0
 31 32  1  0  0  0  0
 31 33  1  0  0  0  0
 31 34  1  0  0  0  0
M  CHG  1  23   1
M  END
$$$$

  -OEChem-01062216093D

 34 33  0     1  0  0  0  0  0999 V2000
   -3.3173   -2.2945    1.4248 H   0  0  0  0  0  0  0  0  0  0  0  0
   -3.4701   -1.2321    1.2138 C   0  0  0  0  0  0  0  0  0  0  0  0
   -3.6833   -0.7175    2.1541 H   0  0  0  0  0  0  0  0  0  0  0  0
   -4.3248   -1.1255    0.5421 H   0  0  0  0  0  0  0  0  0  0  0  0
   -2.2248   -0.6460    0.5768 C   0  0  0  0  0  0  0  0  0  0  0  0
   -1.2772   -1.3648    0.3042 O   0  0  0  0  0  0  0  0  0  0  0  0
   -2.1987    0.6793    0.1793 N   0  0  0  0  0  0  0  0  0  0  0  0
   -3.0239    1.1883    0.4822 H   0  0  0  0  0  0  0  0  0  0  0  0
   -0.9290    1.4304    0.2504 C   0  0  1  0  0  0  0  0  0  0  0  0
   -0.1043    0.7831   -0.0710 H   0  0  0  0  0  0  0  0  0  0  0  0
   -0.9904    2.6054   -0.7454 C   0  0  0  0  0  0  0  0  0  0  0  0
   -1.8849    3.2082   -0.5553 H   0  0  0  0  0  0  0  0  0  0  0  0
   -0.1123    3.2457   -0.6091 H   0  0  0  0  0  0  0  0  0  0  0  0
   -0.9947    2.0806   -2.1925 C   0  0  0  0  0  0  0  0  0  0  0  0
   -0.0984    1.4715   -2.3580 H   0  0  0  0  0  0  0  0  0  0  0  0
   -1.8662    1.4334   -2.3448 H   0  0  0  0  0  0  0  0  0  0  0  0
   -1.0297    3.2277   -3.2084 C   0  0  0  0  0  0  0  0  0  0  0  0
   -1.9195    3.8426   -3.0338 H   0  0  0  0  0  0  0  0  0  0  0  0
   -0.1454    3.8608   -3.0760 H   0  0  0  0  0  0  0  0  0  0  0  0
   -1.0576    2.6534   -4.6249 C   0  0  0  0  0  0  0  0  0  0  0  0
   -0.1623    2.0329   -4.7806 H   0  0  0  0  0  0  0  0  0  0  0  0
   -1.9296    1.9905   -4.7274 H   0  0  0  0  0  0  0  0  0  0  0  0
   -1.1154    3.7596   -5.6054 N   0  3  0  0  0  0  0  0  0  0  0  0
   -0.2930    4.3579   -5.5066 H   0  0  0  0  0  0  0  0  0  0  0  0
   -1.1381    3.3839   -6.5564 H   0  0  0  0  0  0  0  0  0  0  0  0
   -1.9551    4.3210   -5.4520 H   0  0  0  0  0  0  0  0  0  0  0  0
   -0.5658    1.8283    1.7072 C   0  0  0  0  0  0  0  0  0  0  0  0
   -0.5717    0.9870    2.5921 O   0  0  0  0  0  0  0  0  0  0  0  0
   -0.4152    3.1538    2.0822 N   0  0  0  0  0  0  0  0  0  0  0  0
   -0.4504    3.8625    1.3580 H   0  0  0  0  0  0  0  0  0  0  0  0
   -0.1673    3.5709    3.4604 C   0  0  0  0  0  0  0  0  0  0  0  0
    0.7537    3.1153    3.8404 H   0  0  0  0  0  0  0  0  0  0  0  0
   -0.0617    4.6588    3.5169 H   0  0  0  0  0  0  0  0  0  0  0  0
   -0.9986    3.2714    4.1078 H   0  0  0  0  0  0  0  0  0  0  0  0
  1  2  1  0  0  0  0
  2  3  1  0  0  0  0
  2  4  1  0  0  0  0
  2  5  1  0  0  0  0
  5  6  2  0  0  0  0
  5  7  1  0  0  0  0
  7  8  1  0  0  0  0
  7  9  1  0  0  0  0
  9 10  1  0  0  0  0
  9 11  1  0  0  0  0
  9 27  1  0  0  0  0
 11 12  1  0  0  0  0
 11 13  1  0  0  0  0
 11 14  1  0  0  0  0
 14 15  1  0  0  0  0
 14 16  1  0  0  0  0
 14 17  1  0  0  0  0
 17 18  1  0  0  0  0
 17 19  1  0  0  0  0
 17 20  1  0  0  0  0
 20 21  1  0  0  0  0
 20 22  1  0  0  0  0
 20 23  1  0  0  0  0
 23 24  1  0  0  0  0
 23 25  1  0  0  0  0
 23 26  1  0  0  0  0
 27 28  2  0  0  0  0
 27 29  1  0  0  0  0
 29 30  1  0  0  0  0
 29 31  1  0  0  0  0
 31 32  1  0  0  0  0
 31 33  1  0  0  0  0
 31 34  1  0  0  0  0
M  CHG  1  23   1
M  END
$$$$

  -OEChem-01062216093D

 34 33  0     1  0  0  0  0  0999 V2000
   -3.3285   -2.3022    1.4218 H   0  0  0  0  0  0  0  0  0  0  0  0
   -3.4840   -1.2418    1.2031 C   0  0  0  0  0  0  0  0  0  0  0  0
   -3.7230   -0.7258    2.1362 H   0  0  0  0  0  0  0  0  0  0  0  0
   -4.3238   -1.1443    0.5114 H   0  0  0  0  0  0  0  0  0  0  0  0
   -2.2288   -0.6491    0.5917 C   0  0  0  0  0  0  0  0  0  0  0  0
   -1.2736   -1.3638    0.3398 O   0  0  0  0  0  0  0  0  0  0  0  0
   -2.2049    0.6747    0.1893 N   0  0  0  0  0  0  0  0  0  0  0  0
   -3.0396    1.1822    0.4668 H   0  0  0  0  0  0  0  0  0  0  0  0
   -0.9415    1.4352    0.2551 C   0  0  1  0  0  0  0  0  0  0  0  0
   -0.1141    0.7896   -0.0632 H   0  0  0  0  0  0  0  0  0  0  0  0
   -0.9983    2.6091   -0.7406 C   0  0  0  0  0  0  0  0  0  0  0  0
   -1.8957    3.2098   -0.5580 H   0  0  0  0  0  0  0  0  0  0  0  0
   -0.1230    3.2514   -0.5933 H   0  0  0  0  0  0  0  0  0  0  0  0
   -0.9948    2.0832   -2.1867 C   0  0  0  0  0  0  0  0  0  0  0  0
   -0.0982    1.4733   -2.3476 H   0  0  0  0  0  0  0  0  0  0  0  0
   -1.8659    1.4367   -2.3417 H   0  0  0  0  0  0  0  0  0  0  0  0
   -1.0249    3.2293   -3.2032 C   0  0  0  0  0  0  0  0  0  0  0  0
   -1.9168    3.8427   -3.0344 H   0  0  0  0  0  0  0  0  0  0  0  0
   -0.1426    3.8643   -3.0659 H   0  0  0  0  0  0  0  0  0  0  0  0
   -1.0446    2.6543   -4.6193 C   0  0  0  0  0  0  0  0  0  0  0  0
   -0.1477    2.0348   -4.7694 H   0  0  0  0  0  0  0  0  0  0  0  0
   -1.9152    1.9905   -4.7269 H   0  0  0  0  0  0  0  0  0  0  0  0
   -1.0975    3.7604   -5.6003 N   0  3  0  0  0  0  0  0  0  0  0  0
   -0.2706    4.3533   -5.5035 H   0  0  0  0  0  0  0  0  0  0  0  0
   -1.1247    3.3845   -6.5510 H   0  0  0  0  0  0  0  0  0  0  0  0
   -1.9329    4.3276   -5.4451 H   0  0  0  0  0  0  0  0  0  0  0  0
   -0.5801    1.8420    1.7063 C   0  0  0  0  0  0  0  0  0  0  0  0
   -0.2720    0.9912    2.5244 O   0  0  0  0  0  0  0  0  0  0  0  0
   -0.7388    3.1454    2.1478 N   0  0  0  0  0  0  0  0  0  0  0  0
   -1.0314    3.8458    1.4753 H   0  0  0  0  0  0  0  0  0  0  0  0
   -0.4971    3.5543    3.5291 C   0  0  0  0  0  0  0  0  0  0  0  0
    0.5369    3.3380    3.8182 H   0  0  0  0  0  0  0  0  0  0  0  0
   -0.6693    4.6289    3.6447 H   0  0  0  0  0  0  0  0  0  0  0  0
   -1.1694    3.0220    4.2108 H   0  0  0  0  0  0  0  0  0  0  0  0
  1  2  1  0  0  0  0
  2  3  1  0  0  0  0
  2  4  1  0  0  0  0
  2  5  1  0  0  0  0
  5  6  2  0  0  0  0
  5  7  1  0  0  0  0
  7  8  1  0  0  0  0
  7  9  1  0  0  0  0
  9 10  1  0  0  0  0
  9 11  1  0  0  0  0
  9 27  1  0  0  0  0
 11 12  1  0  0  0  0
 11 13  1  0  0  0  0
 11 14  1  0  0  0  0
 14 15  1  0  0  0  0
 14 16  1  0  0  0  0
 14 17  1  0  0  0  0
 17 18  1  0  0  0  0
 17 19  1  0  0  0  0
 17 20  1  0  0  0  0
 20 21  1  0  0  0  0
 20 22  1  0  0  0  0
 20 23  1  0  0  0  0
 23 24  1  0  0  0  0
 23 25  1  0  0  0  0
 23 26  1  0  0  0  0
 27 28  2  0  0  0  0
 27 29  1  0  0  0  0
 29 30  1  0  0  0  0
 29 31  1  0  0  0  0
 31 32  1  0  0  0  0
 31 33  1  0  0  0  0
 31 34  1  0  0  0  0
M  CHG  1  23   1
M  END
$$$$

  -OEChem-01062216093D

 34 33  0     1  0  0  0  0  0999 V2000
   -3.3816   -2.3134    1.4165 H   0  0  0  0  0  0  0  0  0  0  0  0
   -3.5445   -1.2741    1.1160 C   0  0  0  0  0  0  0  0  0  0  0  0
   -3.9194   -0.7164    1.9777 H   0  0  0  0  0  0  0  0  0  0  0  0
   -4.2918   -1.2514    0.3195 H   0  0  0  0  0  0  0  0  0  0  0  0
   -2.2435   -0.6657    0.6288 C   0  0  0  0  0  0  0  0  0  0  0  0
   -1.2543   -1.3645    0.5016 O   0  0  0  0  0  0  0  0  0  0  0  0
   -2.2068    0.6548    0.2175 N   0  0  0  0  0  0  0  0  0  0  0  0
   -3.0636    1.1628    0.4146 H   0  0  0  0  0  0  0  0  0  0  0  0
   -0.9507    1.4282    0.2771 C   0  0  1  0  0  0  0  0  0  0  0  0
   -0.1204    0.7848   -0.0396 H   0  0  0  0  0  0  0  0  0  0  0  0
   -1.0065    2.6019   -0.7176 C   0  0  0  0  0  0  0  0  0  0  0  0
   -1.9045    3.2021   -0.5387 H   0  0  0  0  0  0  0  0  0  0  0  0
   -0.1332    3.2453   -0.5621 H   0  0  0  0  0  0  0  0  0  0  0  0
   -0.9964    2.0797   -2.1651 C   0  0  0  0  0  0  0  0  0  0  0  0
   -0.0966    1.4735   -2.3233 H   0  0  0  0  0  0  0  0  0  0  0  0
   -1.8651    1.4310   -2.3252 H   0  0  0  0  0  0  0  0  0  0  0  0
   -1.0256    3.2287   -3.1791 C   0  0  0  0  0  0  0  0  0  0  0  0
   -1.9188    3.8404   -3.0118 H   0  0  0  0  0  0  0  0  0  0  0  0
   -0.1446    3.8646   -3.0373 H   0  0  0  0  0  0  0  0  0  0  0  0
   -1.0388    2.6576   -4.5972 C   0  0  0  0  0  0  0  0  0  0  0  0
   -0.1391    2.0419   -4.7457 H   0  0  0  0  0  0  0  0  0  0  0  0
   -1.9067    1.9911   -4.7096 H   0  0  0  0  0  0  0  0  0  0  0  0
   -1.0909    3.7652   -5.5765 N   0  3  0  0  0  0  0  0  0  0  0  0
   -0.2734    4.3684   -5.4654 H   0  0  0  0  0  0  0  0  0  0  0  0
   -1.0983    3.3915   -6.5286 H   0  0  0  0  0  0  0  0  0  0  0  0
   -1.9357    4.3214   -5.4332 H   0  0  0  0  0  0  0  0  0  0  0  0
   -0.5905    1.8550    1.7201 C   0  0  0  0  0  0  0  0  0  0  0  0
    0.0824    1.1277    2.4307 O   0  0  0  0  0  0  0  0  0  0  0  0
   -1.0389    3.0581    2.2394 N   0  0  0  0  0  0  0  0  0  0  0  0
   -1.6192    3.6465    1.6518 H   0  0  0  0  0  0  0  0  0  0  0  0
   -0.7515    3.4906    3.6041 C   0  0  0  0  0  0  0  0  0  0  0  0
    0.3284    3.5965    3.7536 H   0  0  0  0  0  0  0  0  0  0  0  0
   -1.2245    4.4567    3.8050 H   0  0  0  0  0  0  0  0  0  0  0  0
   -1.1349    2.7625    4.3272 H   0  0  0  0  0  0  0  0  0  0  0  0
  1  2  1  0  0  0  0
  2  3  1  0  0  0  0
  2  4  1  0  0  0  0
  2  5  1  0  0  0  0
  5  6  2  0  0  0  0
  5  7  1  0  0  0  0
  7  8  1  0  0  0  0
  7  9  1  0  0  0  0
  9 10  1  0  0  0  0
  9 11  1  0  0  0  0
  9 27  1  0  0  0  0
 11 12  1  0  0  0  0
 11 13  1  0  0  0  0
 11 14  1  0  0  0  0
 14 15  1  0  0  0  0
 14 16  1  0  0  0  0
 14 17  1  0  0  0  0
 17 18  1  0  0  0  0
 17 19  1  0  0  0  0
 17 20  1  0  0  0  0
 20 21  1  0  0  0  0
 20 22  1  0  0  0  0
 20 23  1  0  0  0  0
 23 24  1  0  0  0  0
 23 25  1  0  0  0  0
 23 26  1  0  0  0  0
 27 28  2  0  0  0  0
 27 29  1  0  0  0  0
 29 30  1  0  0  0  0
 29 31  1  0  0  0  0
 31 32  1  0  0  0  0
 31 33  1  0  0  0  0
 31 34  1  0  0  0  0
M  CHG  1  23   1
M  END
$$$$

  -OEChem-01062216093D

 34 33  0     1  0  0  0  0  0999 V2000
   -3.4537   -2.3576    1.3695 H   0  0  0  0  0  0  0  0  0  0  0  0
   -3.6102   -1.3387    1.0030 C   0  0  0  0  0  0  0  0  0  0  0  0
   -4.1227   -0.7649    1.7789 H   0  0  0  0  0  0  0  0  0  0  0  0
   -4.2381   -1.3793    0.1100 H   0  0  0  0  0  0  0  0  0  0  0  0
   -2.2765   -0.6962    0.6732 C   0  0  0  0  0  0  0  0  0  0  0  0
   -1.2562   -1.3576    0.7212 O   0  0  0  0  0  0  0  0  0  0  0  0
   -2.2254    0.6208    0.2530 N   0  0  0  0  0  0  0  0  0  0  0  0
   -3.1036    1.1240    0.3282 H   0  0  0  0  0  0  0  0  0  0  0  0
   -0.9750    1.4050    0.3044 C   0  0  1  0  0  0  0  0  0  0  0  0
   -0.1472    0.7579   -0.0120 H   0  0  0  0  0  0  0  0  0  0  0  0
   -1.0236    2.5781   -0.6899 C   0  0  0  0  0  0  0  0  0  0  0  0
   -1.9198    3.1813   -0.5128 H   0  0  0  0  0  0  0  0  0  0  0  0
   -0.1500    3.2198   -0.5274 H   0  0  0  0  0  0  0  0  0  0  0  0
   -1.0069    2.0626   -2.1383 C   0  0  0  0  0  0  0  0  0  0  0  0
   -0.1072    1.4560   -2.2952 H   0  0  0  0  0  0  0  0  0  0  0  0
   -1.8760    1.4167   -2.3057 H   0  0  0  0  0  0  0  0  0  0  0  0
   -1.0283    3.2210   -3.1418 C   0  0  0  0  0  0  0  0  0  0  0  0
   -1.9205    3.8340   -2.9731 H   0  0  0  0  0  0  0  0  0  0  0  0
   -0.1463    3.8531   -2.9882 H   0  0  0  0  0  0  0  0  0  0  0  0
   -1.0349    2.6670   -4.5658 C   0  0  0  0  0  0  0  0  0  0  0  0
   -0.1355    2.0514   -4.7166 H   0  0  0  0  0  0  0  0  0  0  0  0
   -1.9036    2.0042   -4.6919 H   0  0  0  0  0  0  0  0  0  0  0  0
   -1.0790    3.7891   -5.5287 N   0  3  0  0  0  0  0  0  0  0  0  0
   -0.2688    4.3975   -5.3926 H   0  0  0  0  0  0  0  0  0  0  0  0
   -1.0648    3.4308   -6.4865 H   0  0  0  0  0  0  0  0  0  0  0  0
   -1.9310    4.3359   -5.3922 H   0  0  0  0  0  0  0  0  0  0  0  0
   -0.6000    1.8581    1.7337 C   0  0  0  0  0  0  0  0  0  0  0  0
    0.4017    1.4175    2.2730 O   0  0  0  0  0  0  0  0  0  0  0  0
   -1.2842    2.8930    2.3487 N   0  0  0  0  0  0  0  0  0  0  0  0
   -2.1167    3.2506    1.8940 H   0  0  0  0  0  0  0  0  0  0  0  0
   -0.9341    3.3955    3.6743 C   0  0  0  0  0  0  0  0  0  0  0  0
    0.0832    3.8017    3.6741 H   0  0  0  0  0  0  0  0  0  0  0  0
   -1.6229    4.1908    3.9752 H   0  0  0  0  0  0  0  0  0  0  0  0
   -0.9899    2.5918    4.4167 H   0  0  0  0  0  0  0  0  0  0  0  0
  1  2  1  0  0  0  0
  2  3  1  0  0  0  0
  2  4  1  0  0  0  0
  2  5  1  0  0  0  0
  5  6  2  0  0  0  0
  5  7  1  0  0  0  0
  7  8  1  0  0  0  0
  7  9  1  0  0  0  0
  9 10  1  0  0  0  0
  9 11  1  0  0  0  0
  9 27  1  0  0  0  0
 11 12  1  0  0  0  0
 11 13  1  0  0  0  0
 11 14  1  0  0  0  0
 14 15  1  0  0  0  0
 14 16  1  0  0  0  0
 14 17  1  0  0  0  0
 17 18  1  0  0  0  0
 17 19  1  0  0  0  0
 17 20  1  0  0  0  0
 20 21  1  0  0  0  0
 20 22  1  0  0  0  0
 20 23  1  0  0  0  0
 23 24  1  0  0  0  0
 23 25  1  0  0  0  0
 23 26  1  0  0  0  0
 27 28  2  0  0  0  0
 27 29  1  0  0  0  0
 29 30  1  0  0  0  0
 29 31  1  0  0  0  0
 31 32  1  0  0  0  0
 31 33  1  0  0  0  0
 31 34  1  0  0  0  0
M  CHG  1  23   1
M  END
$$$$

  -OEChem-01062216093D

 34 33  0     1  0  0  0  0  0999 V2000
   -3.5241   -2.3945    1.3037 H   0  0  0  0  0  0  0  0  0  0  0  0
   -3.6538   -1.3862    0.8992 C   0  0  0  0  0  0  0  0  0  0  0  0
   -4.2708   -0.8091    1.5921 H   0  0  0  0  0  0  0  0  0  0  0  0
   -4.1654   -1.4584   -0.0633 H   0  0  0  0  0  0  0  0  0  0  0  0
   -2.3023   -0.7196    0.7233 C   0  0  0  0  0  0  0  0  0  0  0  0
   -1.2822   -1.3442    0.9451 O   0  0  0  0  0  0  0  0  0  0  0  0
   -2.2262    0.5902    0.2862 N   0  0  0  0  0  0  0  0  0  0  0  0
   -3.1094    1.0835    0.2056 H   0  0  0  0  0  0  0  0  0  0  0  0
   -0.9754    1.3746    0.3287 C   0  0  1  0  0  0  0  0  0  0  0  0
   -0.1519    0.7200    0.0171 H   0  0  0  0  0  0  0  0  0  0  0  0
   -1.0229    2.5451   -0.6675 C   0  0  0  0  0  0  0  0  0  0  0  0
   -1.9165    3.1504   -0.4838 H   0  0  0  0  0  0  0  0  0  0  0  0
   -0.1475    3.1846   -0.5051 H   0  0  0  0  0  0  0  0  0  0  0  0
   -1.0112    2.0389   -2.1186 C   0  0  0  0  0  0  0  0  0  0  0  0
   -0.1122    1.4333   -2.2831 H   0  0  0  0  0  0  0  0  0  0  0  0
   -1.8819    1.3963   -2.2901 H   0  0  0  0  0  0  0  0  0  0  0  0
   -1.0323    3.2100   -3.1077 C   0  0  0  0  0  0  0  0  0  0  0  0
   -1.9234    3.8216   -2.9280 H   0  0  0  0  0  0  0  0  0  0  0  0
   -0.1499    3.8396   -2.9464 H   0  0  0  0  0  0  0  0  0  0  0  0
   -1.0439    2.6788   -4.5402 C   0  0  0  0  0  0  0  0  0  0  0  0
   -0.1457    2.0645   -4.7031 H   0  0  0  0  0  0  0  0  0  0  0  0
   -1.9143    2.0201   -4.6749 H   0  0  0  0  0  0  0  0  0  0  0  0
   -1.0878    3.8170   -5.4842 N   0  3  0  0  0  0  0  0  0  0  0  0
   -0.2718    4.4167   -5.3450 H   0  0  0  0  0  0  0  0  0  0  0  0
   -1.0848    3.4746   -6.4478 H   0  0  0  0  0  0  0  0  0  0  0  0
   -1.9341    4.3684   -5.3312 H   0  0  0  0  0  0  0  0  0  0  0  0
   -0.5891    1.8582    1.7432 C   0  0  0  0  0  0  0  0  0  0  0  0
    0.5673    1.7448    2.1187 O   0  0  0  0  0  0  0  0  0  0  0  0
   -1.4407    2.6795    2.4622 N   0  0  0  0  0  0  0  0  0  0  0  0
   -2.4065    2.7324    2.1590 H   0  0  0  0  0  0  0  0  0  0  0  0
   -1.0850    3.2330    3.7658 C   0  0  0  0  0  0  0  0  0  0  0  0
   -0.1898    3.8594    3.6866 H   0  0  0  0  0  0  0  0  0  0  0  0
   -1.9014    3.8494    4.1545 H   0  0  0  0  0  0  0  0  0  0  0  0
   -0.8870    2.4286    4.4828 H   0  0  0  0  0  0  0  0  0  0  0  0
  1  2  1  0  0  0  0
  2  3  1  0  0  0  0
  2  4  1  0  0  0  0
  2  5  1  0  0  0  0
  5  6  2  0  0  0  0
  5  7  1  0  0  0  0
  7  8  1  0  0  0  0
  7  9  1  0  0  0  0
  9 10  1  0  0  0  0
  9 11  1  0  0  0  0
  9 27  1  0  0  0  0
 11 12  1  0  0  0  0
 11 13  1  0  0  0  0
 11 14  1  0  0  0  0
 14 15  1  0  0  0  0
 14 16  1  0  0  0  0
 14 17  1  0  0  0  0
 17 18  1  0  0  0  0
 17 19  1  0  0  0  0
 17 20  1  0  0  0  0
 20 21  1  0  0  0  0
 20 22  1  0  0  0  0
 20 23  1  0  0  0  0
 23 24  1  0  0  0  0
 23 25  1  0  0  0  0
 23 26  1  0  0  0  0
 27 28  2  0  0  0  0
 27 29  1  0  0  0  0
 29 30  1  0  0  0  0
 29 31  1  0  0  0  0
 31 32  1  0  0  0  0
 31 33  1  0  0  0  0
 31 34  1  0  0  0  0
M  CHG  1  23   1
M  END
$$$$

  -OEChem-01062216093D

 34 33  0     1  0  0  0  0  0999 V2000
   -3.5499   -2.4140    1.2696 H   0  0  0  0  0  0  0  0  0  0  0  0
   -3.6682   -1.4154    0.8385 C   0  0  0  0  0  0  0  0  0  0  0  0
   -4.3493   -0.8413    1.4710 H   0  0  0  0  0  0  0  0  0  0  0  0
   -4.1008   -1.5142   -0.1598 H   0  0  0  0  0  0  0  0  0  0  0  0
   -2.3206   -0.7235    0.7565 C   0  0  0  0  0  0  0  0  0  0  0  0
   -1.3093   -1.3191    1.0767 O   0  0  0  0  0  0  0  0  0  0  0  0
   -2.2312    0.5805    0.3055 N   0  0  0  0  0  0  0  0  0  0  0  0
   -3.1054    1.0602    0.1163 H   0  0  0  0  0  0  0  0  0  0  0  0
   -0.9761    1.3583    0.3410 C   0  0  1  0  0  0  0  0  0  0  0  0
   -0.1562    0.6975    0.0341 H   0  0  0  0  0  0  0  0  0  0  0  0
   -1.0208    2.5263   -0.6584 C   0  0  0  0  0  0  0  0  0  0  0  0
   -1.9088    3.1383   -0.4691 H   0  0  0  0  0  0  0  0  0  0  0  0
   -0.1412    3.1613   -0.5010 H   0  0  0  0  0  0  0  0  0  0  0  0
   -1.0175    2.0232   -2.1101 C   0  0  0  0  0  0  0  0  0  0  0  0
   -0.1224    1.4136   -2.2798 H   0  0  0  0  0  0  0  0  0  0  0  0
   -1.8923    1.3864   -2.2809 H   0  0  0  0  0  0  0  0  0  0  0  0
   -1.0354    3.2008   -3.0915 C   0  0  0  0  0  0  0  0  0  0  0  0
   -1.9215    3.8169   -2.9031 H   0  0  0  0  0  0  0  0  0  0  0  0
   -0.1479    3.8228   -2.9288 H   0  0  0  0  0  0  0  0  0  0  0  0
   -1.0556    2.6850   -4.5293 C   0  0  0  0  0  0  0  0  0  0  0  0
   -0.1621    2.0670   -4.7036 H   0  0  0  0  0  0  0  0  0  0  0  0
   -1.9307    2.0336   -4.6688 H   0  0  0  0  0  0  0  0  0  0  0  0
   -1.0961    3.8364   -5.4573 N   0  3  0  0  0  0  0  0  0  0  0  0
   -0.2707    4.4238   -5.3193 H   0  0  0  0  0  0  0  0  0  0  0  0
   -1.1088    3.5076   -6.4255 H   0  0  0  0  0  0  0  0  0  0  0  0
   -1.9331    4.3964   -5.2859 H   0  0  0  0  0  0  0  0  0  0  0  0
   -0.5823    1.8593    1.7470 C   0  0  0  0  0  0  0  0  0  0  0  0
    0.6014    2.0158    2.0069 O   0  0  0  0  0  0  0  0  0  0  0  0
   -1.5280    2.4295    2.5810 N   0  0  0  0  0  0  0  0  0  0  0  0
   -2.5000    2.2228    2.3803 H   0  0  0  0  0  0  0  0  0  0  0  0
   -1.1895    2.9838    3.8887 C   0  0  0  0  0  0  0  0  0  0  0  0
   -0.4460    3.7820    3.7880 H   0  0  0  0  0  0  0  0  0  0  0  0
   -2.0800    3.4041    4.3659 H   0  0  0  0  0  0  0  0  0  0  0  0
   -0.7805    2.2049    4.5416 H   0  0  0  0  0  0  0  0  0  0  0  0
  1  2  1  0  0  0  0
  2  3  1  0  0  0  0
  2  4  1  0  0  0  0
  2  5  1  0  0  0  0
  5  6  2  0  0  0  0
  5  7  1  0  0  0  0
  7  8  1  0  0  0  0
  7  9  1  0  0  0  0
  9 10  1  0  0  0  0
  9 11  1  0  0  0  0
  9 27  1  0  0  0  0
 11 12  1  0  0  0  0
 11 13  1  0  0  0  0
 11 14  1  0  0  0  0
 14 15  1  0  0  0  0
 14 16  1  0  0  0  0
 14 17  1  0  0  0  0
 17 18  1  0  0  0  0
 17 19  1  0  0  0  0
 17 20  1  0  0  0  0
 20 21  1  0  0  0  0
 20 22  1  0  0  0  0
 20 23  1  0  0  0  0
 23 24  1  0  0  0  0
 23 25  1  0  0  0  0
 23 26  1  0  0  0  0
 27 28  2  0  0  0  0
 27 29  1  0  0  0  0
 29 30  1  0  0  0  0
 29 31  1  0  0  0  0
 31 32  1  0  0  0  0
 31 33  1  0  0  0  0
 31 34  1  0  0  0  0
M  CHG  1  23   1
M  END
$$$$

  -OEChem-01062216093D

 34 33  0     1  0  0  0  0  0999 V2000
   -3.5730   -2.4097    1.2522 H   0  0  0  0  0  0  0  0  0  0  0  0
   -3.6757   -1.4143    0.8102 C   0  0  0  0  0  0  0  0  0  0  0  0
   -4.3787   -0.8357    1.4141 H   0  0  0  0  0  0  0  0  0  0  0  0
   -4.0724   -1.5197   -0.2022 H   0  0  0  0  0  0  0  0  0  0  0  0
   -2.3266   -0.7223    0.7706 C   0  0  0  0  0  0  0  0  0  0  0  0
   -1.3288   -1.3040    1.1532 O   0  0  0  0  0  0  0  0  0  0  0  0
   -2.2220    0.5757    0.3074 N   0  0  0  0  0  0  0  0  0  0  0  0
   -3.0863    1.0515    0.0677 H   0  0  0  0  0  0  0  0  0  0  0  0
   -0.9625    1.3470    0.3457 C   0  0  1  0  0  0  0  0  0  0  0  0
   -0.1412    0.6844    0.0463 H   0  0  0  0  0  0  0  0  0  0  0  0
   -1.0126    2.5124   -0.6577 C   0  0  0  0  0  0  0  0  0  0  0  0
   -1.9002    3.1237   -0.4644 H   0  0  0  0  0  0  0  0  0  0  0  0
   -0.1336    3.1505   -0.5074 H   0  0  0  0  0  0  0  0  0  0  0  0
   -1.0148    2.0109   -2.1097 C   0  0  0  0  0  0  0  0  0  0  0  0
   -0.1194    1.4033   -2.2849 H   0  0  0  0  0  0  0  0  0  0  0  0
   -1.8895    1.3738   -2.2793 H   0  0  0  0  0  0  0  0  0  0  0  0
   -1.0381    3.1939   -3.0846 C   0  0  0  0  0  0  0  0  0  0  0  0
   -1.9236    3.8085   -2.8884 H   0  0  0  0  0  0  0  0  0  0  0  0
   -0.1504    3.8157   -2.9220 H   0  0  0  0  0  0  0  0  0  0  0  0
   -1.0641    2.6884   -4.5254 C   0  0  0  0  0  0  0  0  0  0  0  0
   -0.1710    2.0723   -4.7084 H   0  0  0  0  0  0  0  0  0  0  0  0
   -1.9398    2.0377   -4.6659 H   0  0  0  0  0  0  0  0  0  0  0  0
   -1.1097    3.8480   -5.4425 N   0  3  0  0  0  0  0  0  0  0  0  0
   -0.2767    4.4264   -5.3132 H   0  0  0  0  0  0  0  0  0  0  0  0
   -1.1421    3.5282   -6.4132 H   0  0  0  0  0  0  0  0  0  0  0  0
   -1.9383    4.4145   -5.2518 H   0  0  0  0  0  0  0  0  0  0  0  0
   -0.5777    1.8612    1.7502 C   0  0  0  0  0  0  0  0  0  0  0  0
    0.5676    2.2420    1.9448 O   0  0  0  0  0  0  0  0  0  0  0  0
   -1.5524    2.1594    2.6854 N   0  0  0  0  0  0  0  0  0  0  0  0
   -2.4619    1.7355    2.5382 H   0  0  0  0  0  0  0  0  0  0  0  0
   -1.2333    2.6723    4.0140 C   0  0  0  0  0  0  0  0  0  0  0  0
   -0.6815    3.6156    3.9402 H   0  0  0  0  0  0  0  0  0  0  0  0
   -2.1510    2.8559    4.5812 H   0  0  0  0  0  0  0  0  0  0  0  0
   -0.6219    1.9506    4.5665 H   0  0  0  0  0  0  0  0  0  0  0  0
  1  2  1  0  0  0  0
  2  3  1  0  0  0  0
  2  4  1  0  0  0  0
  2  5  1  0  0  0  0
  5  6  2  0  0  0  0
  5  7  1  0  0  0  0
  7  8  1  0  0  0  0
  7  9  1  0  0  0  0
  9 10  1  0  0  0  0
  9 11  1  0  0  0  0
  9 27  1  0  0  0  0
 11 12  1  0  0  0  0
 11 13  1  0  0  0  0
 11 14  1  0  0  0  0
 14 15  1  0  0  0  0
 14 16  1  0  0  0  0
 14 17  1  0  0  0  0
 17 18  1  0  0  0  0
 17 19  1  0  0  0  0
 17 20  1  0  0  0  0
 20 21  1  0  0  0  0
 20 22  1  0  0  0  0
 20 23  1  0  0  0  0
 23 24  1  0  0  0  0
 23 25  1  0  0  0  0
 23 26  1  0  0  0  0
 27 28  2  0  0  0  0
 27 29  1  0  0  0  0
 29 30  1  0  0  0  0
 29 31  1  0  0  0  0
 31 32  1  0  0  0  0
 31 33  1  0  0  0  0
 31 34  1  0  0  0  0
M  CHG  1  23   1
M  END
$$$$

  -OEChem-01062216093D

 34 33  0     1  0  0  0  0  0999 V2000
   -3.5913   -2.4084    1.2284 H   0  0  0  0  0  0  0  0  0  0  0  0
   -3.6872   -1.4117    0.7877 C   0  0  0  0  0  0  0  0  0  0  0  0
   -4.3923   -0.8315    1.3877 H   0  0  0  0  0  0  0  0  0  0  0  0
   -4.0775   -1.5139   -0.2277 H   0  0  0  0  0  0  0  0  0  0  0  0
   -2.3351   -0.7248    0.7588 C   0  0  0  0  0  0  0  0  0  0  0  0
   -1.3441   -1.3037    1.1626 O   0  0  0  0  0  0  0  0  0  0  0  0
   -2.2211    0.5736    0.2999 N   0  0  0  0  0  0  0  0  0  0  0  0
   -3.0836    1.0600    0.0740 H   0  0  0  0  0  0  0  0  0  0  0  0
   -0.9597    1.3425    0.3504 C   0  0  1  0  0  0  0  0  0  0  0  0
   -0.1362    0.6819    0.0541 H   0  0  0  0  0  0  0  0  0  0  0  0
   -1.0156    2.5063   -0.6574 C   0  0  0  0  0  0  0  0  0  0  0  0
   -1.9074    3.1120   -0.4647 H   0  0  0  0  0  0  0  0  0  0  0  0
   -0.1417    3.1516   -0.5116 H   0  0  0  0  0  0  0  0  0  0  0  0
   -1.0128    2.0046   -2.1092 C   0  0  0  0  0  0  0  0  0  0  0  0
   -0.1135    1.4025   -2.2840 H   0  0  0  0  0  0  0  0  0  0  0  0
   -1.8839    1.3629   -2.2809 H   0  0  0  0  0  0  0  0  0  0  0  0
   -1.0422    3.1896   -3.0817 C   0  0  0  0  0  0  0  0  0  0  0  0
   -1.9317    3.7983   -2.8849 H   0  0  0  0  0  0  0  0  0  0  0  0
   -0.1584    3.8166   -2.9165 H   0  0  0  0  0  0  0  0  0  0  0  0
   -1.0634    2.6888   -4.5240 C   0  0  0  0  0  0  0  0  0  0  0  0
   -0.1663    2.0788   -4.7080 H   0  0  0  0  0  0  0  0  0  0  0  0
   -1.9354    2.0340   -4.6679 H   0  0  0  0  0  0  0  0  0  0  0  0
   -1.1148    3.8522   -5.4361 N   0  3  0  0  0  0  0  0  0  0  0  0
   -0.2853    4.4349   -5.3032 H   0  0  0  0  0  0  0  0  0  0  0  0
   -1.1445    3.5369   -6.4082 H   0  0  0  0  0  0  0  0  0  0  0  0
   -1.9467    4.4131   -5.2434 H   0  0  0  0  0  0  0  0  0  0  0  0
   -0.5796    1.8572    1.7591 C   0  0  0  0  0  0  0  0  0  0  0  0
    0.4844    2.4417    1.9087 O   0  0  0  0  0  0  0  0  0  0  0  0
   -1.5034    1.8711    2.7885 N   0  0  0  0  0  0  0  0  0  0  0  0
   -2.3005    1.2531    2.6798 H   0  0  0  0  0  0  0  0  0  0  0  0
   -1.1786    2.3520    4.1276 C   0  0  0  0  0  0  0  0  0  0  0  0
   -0.8590    3.3991    4.0934 H   0  0  0  0  0  0  0  0  0  0  0  0
   -2.0554    2.2827    4.7789 H   0  0  0  0  0  0  0  0  0  0  0  0
   -0.3726    1.7533    4.5653 H   0  0  0  0  0  0  0  0  0  0  0  0
  1  2  1  0  0  0  0
  2  3  1  0  0  0  0
  2  4  1  0  0  0  0
  2  5  1  0  0  0  0
  5  6  2  0  0  0  0
  5  7  1  0  0  0  0
  7  8  1  0  0  0  0
  7  9  1  0  0  0  0
  9 10  1  0  0  0  0
  9 11  1  0  0  0  0
  9 27  1  0  0  0  0
 11 12  1  0  0  0  0
 11 13  1  0  0  0  0
 11 14  1  0  0  0  0
 14 15  1  0  0  0  0
 14 16  1  0  0  0  0
 14 17  1  0  0  0  0
 17 18  1  0  0  0  0
 17 19  1  0  0  0  0
 17 20  1  0  0  0  0
 20 21  1  0  0  0  0
 20 22  1  0  0  0  0
 20 23  1  0  0  0  0
 23 24  1  0  0  0  0
 23 25  1  0  0  0  0
 23 26  1  0  0  0  0
 27 28  2  0  0  0  0
 27 29  1  0  0  0  0
 29 30  1  0  0  0  0
 29 31  1  0  0  0  0
 31 32  1  0  0  0  0
 31 33  1  0  0  0  0
 31 34  1  0  0  0  0
M  CHG  1  23   1
M  END
$$$$

  -OEChem-01062216093D

 34 33  0     1  0  0  0  0  0999 V2000
   -3.6090   -2.4106    1.1882 H   0  0  0  0  0  0  0  0  0  0  0  0
   -3.7008   -1.4072    0.7616 C   0  0  0  0  0  0  0  0  0  0  0  0
   -4.4113   -0.8350    1.3630 H   0  0  0  0  0  0  0  0  0  0  0  0
   -4.0826   -1.4944   -0.2582 H   0  0  0  0  0  0  0  0  0  0  0  0
   -2.3486   -0.7203    0.7552 C   0  0  0  0  0  0  0  0  0  0  0  0
   -1.3696   -1.2891    1.2009 O   0  0  0  0  0  0  0  0  0  0  0  0
   -2.2247    0.5790    0.3033 N   0  0  0  0  0  0  0  0  0  0  0  0
   -3.0858    1.0717    0.0849 H   0  0  0  0  0  0  0  0  0  0  0  0
   -0.9624    1.3472    0.3600 C   0  0  1  0  0  0  0  0  0  0  0  0
   -0.1392    0.6857    0.0665 H   0  0  0  0  0  0  0  0  0  0  0  0
   -1.0219    2.5049   -0.6582 C   0  0  0  0  0  0  0  0  0  0  0  0
   -1.9160    3.1083   -0.4698 H   0  0  0  0  0  0  0  0  0  0  0  0
   -0.1521    3.1568   -0.5194 H   0  0  0  0  0  0  0  0  0  0  0  0
   -1.0137    1.9987   -2.1088 C   0  0  0  0  0  0  0  0  0  0  0  0
   -0.1113    1.4009   -2.2808 H   0  0  0  0  0  0  0  0  0  0  0  0
   -1.8816    1.3528   -2.2808 H   0  0  0  0  0  0  0  0  0  0  0  0
   -1.0468    3.1835   -3.0825 C   0  0  0  0  0  0  0  0  0  0  0  0
   -1.9396    3.7878   -2.8867 H   0  0  0  0  0  0  0  0  0  0  0  0
   -0.1672    3.8150   -2.9142 H   0  0  0  0  0  0  0  0  0  0  0  0
   -1.0625    2.6871   -4.5266 C   0  0  0  0  0  0  0  0  0  0  0  0
   -0.1617    2.0827   -4.7109 H   0  0  0  0  0  0  0  0  0  0  0  0
   -1.9305    2.0283   -4.6752 H   0  0  0  0  0  0  0  0  0  0  0  0
   -1.1177    3.8533   -5.4355 N   0  3  0  0  0  0  0  0  0  0  0  0
   -0.2978    4.4466   -5.2901 H   0  0  0  0  0  0  0  0  0  0  0  0
   -1.1310    3.5411   -6.4091 H   0  0  0  0  0  0  0  0  0  0  0  0
   -1.9594    4.4024   -5.2513 H   0  0  0  0  0  0  0  0  0  0  0  0
   -0.5831    1.8586    1.7737 C   0  0  0  0  0  0  0  0  0  0  0  0
    0.3552    2.6343    1.8984 O   0  0  0  0  0  0  0  0  0  0  0  0
   -1.3831    1.5964    2.8711 N   0  0  0  0  0  0  0  0  0  0  0  0
   -1.9989    0.7942    2.7782 H   0  0  0  0  0  0  0  0  0  0  0  0
   -1.0318    2.0361    4.2178 C   0  0  0  0  0  0  0  0  0  0  0  0
   -0.9455    3.1274    4.2561 H   0  0  0  0  0  0  0  0  0  0  0  0
   -1.8028    1.7287    4.9311 H   0  0  0  0  0  0  0  0  0  0  0  0
   -0.0772    1.5974    4.5275 H   0  0  0  0  0  0  0  0  0  0  0  0
  1  2  1  0  0  0  0
  2  3  1  0  0  0  0
  2  4  1  0  0  0  0
  2  5  1  0  0  0  0
  5  6  2  0  0  0  0
  5  7  1  0  0  0  0
  7  8  1  0  0  0  0
  7  9  1  0  0  0  0
  9 10  1  0  0  0  0
  9 11  1  0  0  0  0
  9 27  1  0  0  0  0
 11 12  1  0  0  0  0
 11 13  1  0  0  0  0
 11 14  1  0  0  0  0
 14 15  1  0  0  0  0
 14 16  1  0  0  0  0
 14 17  1  0  0  0  0
 17 18  1  0  0  0  0
 17 19  1  0  0  0  0
 17 20  1  0  0  0  0
 20 21  1  0  0  0  0
 20 22  1  0  0  0  0
 20 23  1  0  0  0  0
 23 24  1  0  0  0  0
 23 25  1  0  0  0  0
 23 26  1  0  0  0  0
 27 28  2  0  0  0  0
 27 29  1  0  0  0  0
 29 30  1  0  0  0  0
 29 31  1  0  0  0  0
 31 32  1  0  0  0  0
 31 33  1  0  0  0  0
 31 34  1  0  0  0  0
M  CHG  1  23   1
M  END
$$$$

  -OEChem-01062216093D

 34 33  0     1  0  0  0  0  0999 V2000
   -3.6292   -2.3948    1.1730 H   0  0  0  0  0  0  0  0  0  0  0  0
   -3.7093   -1.3875    0.7536 C   0  0  0  0  0  0  0  0  0  0  0  0
   -4.4149   -0.8120    1.3578 H   0  0  0  0  0  0  0  0  0  0  0  0
   -4.0894   -1.4632   -0.2678 H   0  0  0  0  0  0  0  0  0  0  0  0
   -2.3507   -0.7134    0.7555 C   0  0  0  0  0  0  0  0  0  0  0  0
   -1.3824   -1.2818    1.2267 O   0  0  0  0  0  0  0  0  0  0  0  0
   -2.2124    0.5855    0.3086 N   0  0  0  0  0  0  0  0  0  0  0  0
   -3.0711    1.0896    0.1070 H   0  0  0  0  0  0  0  0  0  0  0  0
   -0.9455    1.3468    0.3651 C   0  0  1  0  0  0  0  0  0  0  0  0
   -0.1247    0.6829    0.0703 H   0  0  0  0  0  0  0  0  0  0  0  0
   -1.0098    2.5017   -0.6580 C   0  0  0  0  0  0  0  0  0  0  0  0
   -1.9015    3.1076   -0.4655 H   0  0  0  0  0  0  0  0  0  0  0  0
   -0.1375    3.1521   -0.5292 H   0  0  0  0  0  0  0  0  0  0  0  0
   -1.0091    1.9933   -2.1080 C   0  0  0  0  0  0  0  0  0  0  0  0
   -0.1072    1.3958   -2.2837 H   0  0  0  0  0  0  0  0  0  0  0  0
   -1.8777    1.3472   -2.2751 H   0  0  0  0  0  0  0  0  0  0  0  0
   -1.0476    3.1786   -3.0810 C   0  0  0  0  0  0  0  0  0  0  0  0
   -1.9397    3.7819   -2.8796 H   0  0  0  0  0  0  0  0  0  0  0  0
   -0.1676    3.8107   -2.9163 H   0  0  0  0  0  0  0  0  0  0  0  0
   -1.0710    2.6848   -4.5258 C   0  0  0  0  0  0  0  0  0  0  0  0
   -0.1709    2.0815   -4.7165 H   0  0  0  0  0  0  0  0  0  0  0  0
   -1.9396    2.0256   -4.6708 H   0  0  0  0  0  0  0  0  0  0  0  0
   -1.1315    3.8529   -5.4317 N   0  3  0  0  0  0  0  0  0  0  0  0
   -0.3104    4.4456   -5.2908 H   0  0  0  0  0  0  0  0  0  0  0  0
   -1.1522    3.5430   -6.4058 H   0  0  0  0  0  0  0  0  0  0  0  0
   -1.9716    4.4020   -5.2401 H   0  0  0  0  0  0  0  0  0  0  0  0
   -0.5706    1.8478    1.7865 C   0  0  0  0  0  0  0  0  0  0  0  0
    0.1900    2.7979    1.9183 O   0  0  0  0  0  0  0  0  0  0  0  0
   -1.1936    1.3338    2.9088 N   0  0  0  0  0  0  0  0  0  0  0  0
   -1.5952    0.4060    2.7861 H   0  0  0  0  0  0  0  0  0  0  0  0
   -0.8376    1.7479    4.2617 C   0  0  0  0  0  0  0  0  0  0  0  0
   -1.0020    2.8232    4.3905 H   0  0  0  0  0  0  0  0  0  0  0  0
   -1.4530    1.2171    4.9946 H   0  0  0  0  0  0  0  0  0  0  0  0
    0.2152    1.5262    4.4671 H   0  0  0  0  0  0  0  0  0  0  0  0
  1  2  1  0  0  0  0
  2  3  1  0  0  0  0
  2  4  1  0  0  0  0
  2  5  1  0  0  0  0
  5  6  2  0  0  0  0
  5  7  1  0  0  0  0
  7  8  1  0  0  0  0
  7  9  1  0  0  0  0
  9 10  1  0  0  0  0
  9 11  1  0  0  0  0
  9 27  1  0  0  0  0
 11 12  1  0  0  0  0
 11 13  1  0  0  0  0
 11 14  1  0  0  0  0
 14 15  1  0  0  0  0
 14 16  1  0  0  0  0
 14 17  1  0  0  0  0
 17 18  1  0  0  0  0
 17 19  1  0  0  0  0
 17 20  1  0  0  0  0
 20 21  1  0  0  0  0
 20 22  1  0  0  0  0
 20 23  1  0  0  0  0
 23 24  1  0  0  0  0
 23 25  1  0  0  0  0
 23 26  1  0  0  0  0
 27 28  2  0  0  0  0
 27 29  1  0  0  0  0
 29 30  1  0  0  0  0
 29 31  1  0  0  0  0
 31 32  1  0  0  0  0
 31 33  1  0  0  0  0
 31 34  1  0  0  0  0
M  CHG  1  23   1
M  END
$$$$

  -OEChem-01062216093D

 34 33  0     1  0  0  0  0  0999 V2000
   -3.6239   -2.3801    1.2123 H   0  0  0  0  0  0  0  0  0  0  0  0
   -3.7053   -1.3739    0.7906 C   0  0  0  0  0  0  0  0  0  0  0  0
   -4.3893   -0.7893    1.4106 H   0  0  0  0  0  0  0  0  0  0  0  0
   -4.1128   -1.4496   -0.2202 H   0  0  0  0  0  0  0  0  0  0  0  0
   -2.3407   -0.7132    0.7543 C   0  0  0  0  0  0  0  0  0  0  0  0
   -1.3617   -1.2974    1.1858 O   0  0  0  0  0  0  0  0  0  0  0  0
   -2.2047    0.5872    0.3102 N   0  0  0  0  0  0  0  0  0  0  0  0
   -3.0674    1.1026    0.1597 H   0  0  0  0  0  0  0  0  0  0  0  0
   -0.9376    1.3473    0.3619 C   0  0  1  0  0  0  0  0  0  0  0  0
   -0.1178    0.6843    0.0634 H   0  0  0  0  0  0  0  0  0  0  0  0
   -1.0021    2.5017   -0.6614 C   0  0  0  0  0  0  0  0  0  0  0  0
   -1.8910    3.1108   -0.4656 H   0  0  0  0  0  0  0  0  0  0  0  0
   -0.1267    3.1482   -0.5345 H   0  0  0  0  0  0  0  0  0  0  0  0
   -1.0060    1.9942   -2.1115 C   0  0  0  0  0  0  0  0  0  0  0  0
   -0.1060    1.3944   -2.2900 H   0  0  0  0  0  0  0  0  0  0  0  0
   -1.8768    1.3506   -2.2762 H   0  0  0  0  0  0  0  0  0  0  0  0
   -1.0444    3.1803   -3.0839 C   0  0  0  0  0  0  0  0  0  0  0  0
   -1.9346    3.7857   -2.8799 H   0  0  0  0  0  0  0  0  0  0  0  0
   -0.1621    3.8102   -2.9219 H   0  0  0  0  0  0  0  0  0  0  0  0
   -1.0725    2.6871   -4.5287 C   0  0  0  0  0  0  0  0  0  0  0  0
   -0.1747    2.0813   -4.7216 H   0  0  0  0  0  0  0  0  0  0  0  0
   -1.9430    2.0303   -4.6712 H   0  0  0  0  0  0  0  0  0  0  0  0
   -1.1328    3.8556   -5.4343 N   0  3  0  0  0  0  0  0  0  0  0  0
   -0.3082    4.4443   -5.2979 H   0  0  0  0  0  0  0  0  0  0  0  0
   -1.1605    3.5460   -6.4084 H   0  0  0  0  0  0  0  0  0  0  0  0
   -1.9692    4.4088   -5.2380 H   0  0  0  0  0  0  0  0  0  0  0  0
   -0.5661    1.8385    1.7886 C   0  0  0  0  0  0  0  0  0  0  0  0
   -0.0204    2.9227    1.9485 O   0  0  0  0  0  0  0  0  0  0  0  0
   -0.9518    1.1186    2.9037 N   0  0  0  0  0  0  0  0  0  0  0  0
   -1.1909    0.1418    2.7267 H   0  0  0  0  0  0  0  0  0  0  0  0
   -0.5862    1.5041    4.2626 C   0  0  0  0  0  0  0  0  0  0  0  0
   -0.9828    2.4968    4.5005 H   0  0  0  0  0  0  0  0  0  0  0  0
   -0.9974    0.7891    4.9819 H   0  0  0  0  0  0  0  0  0  0  0  0
    0.5028    1.5244    4.3769 H   0  0  0  0  0  0  0  0  0  0  0  0
  1  2  1  0  0  0  0
  2  3  1  0  0  0  0
  2  4  1  0  0  0  0
  2  5  1  0  0  0  0
  5  6  2  0  0  0  0
  5  7  1  0  0  0  0
  7  8  1  0  0  0  0
  7  9  1  0  0  0  0
  9 10  1  0  0  0  0
  9 11  1  0  0  0  0
  9 27  1  0  0  0  0
 11 12  1  0  0  0  0
 11 13  1  0  0  0  0
 11 14  1  0  0  0  0
 14 15  1  0  0  0  0
 14 16  1  0  0  0  0
 14 17  1  0  0  0  0
 17 18  1  0  0  0  0
 17 19  1  0  0  0  0
 17 20  1  0  0  0  0
 20 21  1  0  0  0  0
 20 22  1  0  0  0  0
 20 23  1  0  0  0  0
 23 24  1  0  0  0  0
 23 25  1  0  0  0  0
 23 26  1  0  0  0  0
 27 28  2  0  0  0  0
 27 29  1  0  0  0  0
 29 30  1  0  0  0  0
 29 31  1  0  0  0  0
 31 32  1  0  0  0  0
 31 33  1  0  0  0  0
 31 34  1  0  0  0  0
M  CHG  1  23   1
M  END
$$$$

  -OEChem-01062216093D

 34 33  0     1  0  0  0  0  0999 V2000
   -3.5962   -2.3653    1.2807 H   0  0  0  0  0  0  0  0  0  0  0  0
   -3.6859   -1.3624    0.8531 C   0  0  0  0  0  0  0  0  0  0  0  0
   -4.3383   -0.7657    1.4954 H   0  0  0  0  0  0  0  0  0  0  0  0
   -4.1354   -1.4433   -0.1393 H   0  0  0  0  0  0  0  0  0  0  0  0
   -2.3182   -0.7148    0.7537 C   0  0  0  0  0  0  0  0  0  0  0  0
   -1.3230   -1.3183    1.1197 O   0  0  0  0  0  0  0  0  0  0  0  0
   -2.1922    0.5859    0.3055 N   0  0  0  0  0  0  0  0  0  0  0  0
   -3.0580    1.1108    0.2171 H   0  0  0  0  0  0  0  0  0  0  0  0
   -0.9249    1.3444    0.3519 C   0  0  1  0  0  0  0  0  0  0  0  0
   -0.1038    0.6845    0.0506 H   0  0  0  0  0  0  0  0  0  0  0  0
   -0.9896    2.5019   -0.6675 C   0  0  0  0  0  0  0  0  0  0  0  0
   -1.8771    3.1122   -0.4684 H   0  0  0  0  0  0  0  0  0  0  0  0
   -0.1115    3.1448   -0.5372 H   0  0  0  0  0  0  0  0  0  0  0  0
   -1.0001    1.9985   -2.1188 C   0  0  0  0  0  0  0  0  0  0  0  0
   -0.1032    1.3963   -2.3021 H   0  0  0  0  0  0  0  0  0  0  0  0
   -1.8736    1.3578   -2.2817 H   0  0  0  0  0  0  0  0  0  0  0  0
   -1.0384    3.1861   -3.0888 C   0  0  0  0  0  0  0  0  0  0  0  0
   -1.9262    3.7938   -2.8810 H   0  0  0  0  0  0  0  0  0  0  0  0
   -0.1539    3.8132   -2.9294 H   0  0  0  0  0  0  0  0  0  0  0  0
   -1.0732    2.6928   -4.5333 C   0  0  0  0  0  0  0  0  0  0  0  0
   -0.1779    2.0842   -4.7291 H   0  0  0  0  0  0  0  0  0  0  0  0
   -1.9466    2.0386   -4.6718 H   0  0  0  0  0  0  0  0  0  0  0  0
   -1.1333    3.8607   -5.4397 N   0  3  0  0  0  0  0  0  0  0  0  0
   -0.3059    4.4469   -5.3080 H   0  0  0  0  0  0  0  0  0  0  0  0
   -1.1670    3.5500   -6.4133 H   0  0  0  0  0  0  0  0  0  0  0  0
   -1.9669    4.4170   -5.2397 H   0  0  0  0  0  0  0  0  0  0  0  0
   -0.5635    1.8285    1.7823 C   0  0  0  0  0  0  0  0  0  0  0  0
   -0.2411    2.9918    1.9865 O   0  0  0  0  0  0  0  0  0  0  0  0
   -0.6779    0.9691    2.8580 N   0  0  0  0  0  0  0  0  0  0  0  0
   -0.8204   -0.0175    2.6302 H   0  0  0  0  0  0  0  0  0  0  0  0
   -0.3041    1.3299    4.2209 C   0  0  0  0  0  0  0  0  0  0  0  0
   -0.9062    2.1739    4.5735 H   0  0  0  0  0  0  0  0  0  0  0  0
   -0.4696    0.4838    4.8952 H   0  0  0  0  0  0  0  0  0  0  0  0
    0.7538    1.6090    4.2688 H   0  0  0  0  0  0  0  0  0  0  0  0
  1  2  1  0  0  0  0
  2  3  1  0  0  0  0
  2  4  1  0  0  0  0
  2  5  1  0  0  0  0
  5  6  2  0  0  0  0
  5  7  1  0  0  0  0
  7  8  1  0  0  0  0
  7  9  1  0  0  0  0
  9 10  1  0  0  0  0
  9 11  1  0  0  0  0
  9 27  1  0  0  0  0
 11 12  1  0  0  0  0
 11 13  1  0  0  0  0
 11 14  1  0  0  0  0
 14 15  1  0  0  0  0
 14 16  1  0  0  0  0
 14 17  1  0  0  0  0
 17 18  1  0  0  0  0
 17 19  1  0  0  0  0
 17 20  1  0  0  0  0
 20 21  1  0  0  0  0
 20 22  1  0  0  0  0
 20 23  1  0  0  0  0
 23 24  1  0  0  0  0
 23 25  1  0  0  0  0
 23 26  1  0  0  0  0
 27 28  2  0  0  0  0
 27 29  1  0  0  0  0
 29 30  1  0  0  0  0
 29 31  1  0  0  0  0
 31 32  1  0  0  0  0
 31 33  1  0  0  0  0
 31 34  1  0  0  0  0
M  CHG  1  23   1
M  END
$$$$

  -OEChem-01062216093D

 34 33  0     1  0  0  0  0  0999 V2000
   -3.5528   -2.3461    1.3547 H   0  0  0  0  0  0  0  0  0  0  0  0
   -3.6513   -1.3482    0.9171 C   0  0  0  0  0  0  0  0  0  0  0  0
   -4.2762   -0.7389    1.5747 H   0  0  0  0  0  0  0  0  0  0  0  0
   -4.1373   -1.4392   -0.0571 H   0  0  0  0  0  0  0  0  0  0  0  0
   -2.2839   -0.7113    0.7593 C   0  0  0  0  0  0  0  0  0  0  0  0
   -1.2779   -1.3274    1.0731 O   0  0  0  0  0  0  0  0  0  0  0  0
   -2.1671    0.5870    0.3006 N   0  0  0  0  0  0  0  0  0  0  0  0
   -3.0311    1.1210    0.2618 H   0  0  0  0  0  0  0  0  0  0  0  0
   -0.8959    1.3366    0.3356 C   0  0  1  0  0  0  0  0  0  0  0  0
   -0.0767    0.6775    0.0274 H   0  0  0  0  0  0  0  0  0  0  0  0
   -0.9622    2.4999   -0.6758 C   0  0  0  0  0  0  0  0  0  0  0  0
   -1.8444    3.1149   -0.4664 H   0  0  0  0  0  0  0  0  0  0  0  0
   -0.0792    3.1359   -0.5451 H   0  0  0  0  0  0  0  0  0  0  0  0
   -0.9916    2.0022   -2.1287 C   0  0  0  0  0  0  0  0  0  0  0  0
   -0.1013    1.3933   -2.3232 H   0  0  0  0  0  0  0  0  0  0  0  0
   -1.8717    1.3688   -2.2840 H   0  0  0  0  0  0  0  0  0  0  0  0
   -1.0313    3.1919   -3.0957 C   0  0  0  0  0  0  0  0  0  0  0  0
   -1.9127    3.8053   -2.8780 H   0  0  0  0  0  0  0  0  0  0  0  0
   -0.1410    3.8127   -2.9446 H   0  0  0  0  0  0  0  0  0  0  0  0
   -1.0847    2.7001   -4.5402 C   0  0  0  0  0  0  0  0  0  0  0  0
   -0.1961    2.0851   -4.7458 H   0  0  0  0  0  0  0  0  0  0  0  0
   -1.9640    2.0521   -4.6699 H   0  0  0  0  0  0  0  0  0  0  0  0
   -1.1460    3.8689   -5.4452 N   0  3  0  0  0  0  0  0  0  0  0  0
   -0.3143    4.4500   -5.3207 H   0  0  0  0  0  0  0  0  0  0  0  0
   -1.1904    3.5591   -6.4186 H   0  0  0  0  0  0  0  0  0  0  0  0
   -1.9745    4.4298   -5.2374 H   0  0  0  0  0  0  0  0  0  0  0  0
   -0.5402    1.8156    1.7662 C   0  0  0  0  0  0  0  0  0  0  0  0
   -0.4430    3.0085    2.0237 O   0  0  0  0  0  0  0  0  0  0  0  0
   -0.3662    0.8902    2.7763 N   0  0  0  0  0  0  0  0  0  0  0  0
   -0.4560   -0.0954    2.5170 H   0  0  0  0  0  0  0  0  0  0  0  0
   -0.0263    1.2390    4.1508 C   0  0  0  0  0  0  0  0  0  0  0  0
   -0.8112    1.8603    4.5947 H   0  0  0  0  0  0  0  0  0  0  0  0
    0.0807    0.3331    4.7556 H   0  0  0  0  0  0  0  0  0  0  0  0
    0.9197    1.7897    4.1843 H   0  0  0  0  0  0  0  0  0  0  0  0
  1  2  1  0  0  0  0
  2  3  1  0  0  0  0
  2  4  1  0  0  0  0
  2  5  1  0  0  0  0
  5  6  2  0  0  0  0
  5  7  1  0  0  0  0
  7  8  1  0  0  0  0
  7  9  1  0  0  0  0
  9 10  1  0  0  0  0
  9 11  1  0  0  0  0
  9 27  1  0  0  0  0
 11 12  1  0  0  0  0
 11 13  1  0  0  0  0
 11 14  1  0  0  0  0
 14 15  1  0  0  0  0
 14 16  1  0  0  0  0
 14 17  1  0  0  0  0
 17 18  1  0  0  0  0
 17 19  1  0  0  0  0
 17 20  1  0  0  0  0
 20 21  1  0  0  0  0
 20 22  1  0  0  0  0
 20 23  1  0  0  0  0
 23 24  1  0  0  0  0
 23 25  1  0  0  0  0
 23 26  1  0  0  0  0
 27 28  2  0  0  0  0
 27 29  1  0  0  0  0
 29 30  1  0  0  0  0
 29 31  1  0  0  0  0
 31 32  1  0  0  0  0
 31 33  1  0  0  0  0
 31 34  1  0  0  0  0
M  CHG  1  23   1
M  END
$$$$

  -OEChem-01062216093D

 34 33  0     1  0  0  0  0  0999 V2000
   -3.4961   -2.3385    1.4138 H   0  0  0  0  0  0  0  0  0  0  0  0
   -3.6068   -1.3344    0.9938 C   0  0  0  0  0  0  0  0  0  0  0  0
   -4.1905   -0.7266    1.6896 H   0  0  0  0  0  0  0  0  0  0  0  0
   -4.1438   -1.4085    0.0451 H   0  0  0  0  0  0  0  0  0  0  0  0
   -2.2432   -0.7080    0.7737 C   0  0  0  0  0  0  0  0  0  0  0  0
   -1.2277   -1.3246    1.0569 O   0  0  0  0  0  0  0  0  0  0  0  0
   -2.1384    0.5838    0.2935 N   0  0  0  0  0  0  0  0  0  0  0  0
   -2.9984    1.1262    0.2966 H   0  0  0  0  0  0  0  0  0  0  0  0
   -0.8627    1.3226    0.3112 C   0  0  1  0  0  0  0  0  0  0  0  0
   -0.0471    0.6612   -0.0021 H   0  0  0  0  0  0  0  0  0  0  0  0
   -0.9301    2.4888   -0.6946 C   0  0  0  0  0  0  0  0  0  0  0  0
   -1.8058    3.1092   -0.4744 H   0  0  0  0  0  0  0  0  0  0  0  0
   -0.0415    3.1173   -0.5661 H   0  0  0  0  0  0  0  0  0  0  0  0
   -0.9824    1.9983   -2.1490 C   0  0  0  0  0  0  0  0  0  0  0  0
   -0.1004    1.3823   -2.3576 H   0  0  0  0  0  0  0  0  0  0  0  0
   -1.8710    1.3747   -2.2964 H   0  0  0  0  0  0  0  0  0  0  0  0
   -1.0225    3.1940   -3.1084 C   0  0  0  0  0  0  0  0  0  0  0  0
   -1.8952    3.8144   -2.8759 H   0  0  0  0  0  0  0  0  0  0  0  0
   -0.1247    3.8057   -2.9643 H   0  0  0  0  0  0  0  0  0  0  0  0
   -1.0990    2.7128   -4.5554 C   0  0  0  0  0  0  0  0  0  0  0  0
   -0.2187    2.0914   -4.7773 H   0  0  0  0  0  0  0  0  0  0  0  0
   -1.9860    2.0742   -4.6796 H   0  0  0  0  0  0  0  0  0  0  0  0
   -1.1600    3.8905   -5.4485 N   0  3  0  0  0  0  0  0  0  0  0  0
   -0.3275    4.4694   -5.3194 H   0  0  0  0  0  0  0  0  0  0  0  0
   -1.2066    3.5905   -6.4248 H   0  0  0  0  0  0  0  0  0  0  0  0
   -1.9877    4.4501   -5.2333 H   0  0  0  0  0  0  0  0  0  0  0  0
   -0.5119    1.8064    1.7381 C   0  0  0  0  0  0  0  0  0  0  0  0
   -0.6460    2.9821    2.0527 O   0  0  0  0  0  0  0  0  0  0  0  0
   -0.0485    0.8965    2.6671 N   0  0  0  0  0  0  0  0  0  0  0  0
   -0.0849   -0.0886    2.3948 H   0  0  0  0  0  0  0  0  0  0  0  0
    0.2335    1.2363    4.0566 C   0  0  0  0  0  0  0  0  0  0  0  0
   -0.6755    1.5839    4.5587 H   0  0  0  0  0  0  0  0  0  0  0  0
    0.6118    0.3593    4.5910 H   0  0  0  0  0  0  0  0  0  0  0  0
    0.9906    2.0258    4.1129 H   0  0  0  0  0  0  0  0  0  0  0  0
  1  2  1  0  0  0  0
  2  3  1  0  0  0  0
  2  4  1  0  0  0  0
  2  5  1  0  0  0  0
  5  6  2  0  0  0  0
  5  7  1  0  0  0  0
  7  8  1  0  0  0  0
  7  9  1  0  0  0  0
  9 10  1  0  0  0  0
  9 11  1  0  0  0  0
  9 27  1  0  0  0  0
 11 12  1  0  0  0  0
 11 13  1  0  0  0  0
 11 14  1  0  0  0  0
 14 15  1  0  0  0  0
 14 16  1  0  0  0  0
 14 17  1  0  0  0  0
 17 18  1  0  0  0  0
 17 19  1  0  0  0  0
 17 20  1  0  0  0  0
 20 21  1  0  0  0  0
 20 22  1  0  0  0  0
 20 23  1  0  0  0  0
 23 24  1  0  0  0  0
 23 25  1  0  0  0  0
 23 26  1  0  0  0  0
 27 28  2  0  0  0  0
 27 29  1  0  0  0  0
 29 30  1  0  0  0  0
 29 31  1  0  0  0  0
 31 32  1  0  0  0  0
 31 33  1  0  0  0  0
 31 34  1  0  0  0  0
M  CHG  1  23   1
M  END
$$$$

  -OEChem-01062216093D

 34 33  0     1  0  0  0  0  0999 V2000
   -3.4549   -2.3243    1.4706 H   0  0  0  0  0  0  0  0  0  0  0  0
   -3.5756   -1.3293    1.0325 C   0  0  0  0  0  0  0  0  0  0  0  0
   -4.1479   -0.7083    1.7262 H   0  0  0  0  0  0  0  0  0  0  0  0
   -4.1287   -1.4231    0.0951 H   0  0  0  0  0  0  0  0  0  0  0  0
   -2.2182   -0.7050    0.7742 C   0  0  0  0  0  0  0  0  0  0  0  0
   -1.1952   -1.3211    1.0318 O   0  0  0  0  0  0  0  0  0  0  0  0
   -2.1259    0.5824    0.2800 N   0  0  0  0  0  0  0  0  0  0  0  0
   -2.9817    1.1303    0.3201 H   0  0  0  0  0  0  0  0  0  0  0  0
   -0.8481    1.3134    0.2943 C   0  0  1  0  0  0  0  0  0  0  0  0
   -0.0325    0.6537   -0.0225 H   0  0  0  0  0  0  0  0  0  0  0  0
   -0.9153    2.4853   -0.7039 C   0  0  0  0  0  0  0  0  0  0  0  0
   -1.7894    3.1062   -0.4775 H   0  0  0  0  0  0  0  0  0  0  0  0
   -0.0252    3.1110   -0.5740 H   0  0  0  0  0  0  0  0  0  0  0  0
   -0.9791    2.0014   -2.1603 C   0  0  0  0  0  0  0  0  0  0  0  0
   -0.1032    1.3798   -2.3778 H   0  0  0  0  0  0  0  0  0  0  0  0
   -1.8726    1.3839   -2.3043 H   0  0  0  0  0  0  0  0  0  0  0  0
   -1.0186    3.2007   -3.1149 C   0  0  0  0  0  0  0  0  0  0  0  0
   -1.8862    3.8255   -2.8747 H   0  0  0  0  0  0  0  0  0  0  0  0
   -0.1159    3.8060   -2.9747 H   0  0  0  0  0  0  0  0  0  0  0  0
   -1.1064    2.7235   -4.5624 C   0  0  0  0  0  0  0  0  0  0  0  0
   -0.2321    2.0963   -4.7904 H   0  0  0  0  0  0  0  0  0  0  0  0
   -1.9987    2.0916   -4.6811 H   0  0  0  0  0  0  0  0  0  0  0  0
   -1.1665    3.9017   -5.4553 N   0  3  0  0  0  0  0  0  0  0  0  0
   -0.3290    4.4749   -5.3335 H   0  0  0  0  0  0  0  0  0  0  0  0
   -1.2230    3.6018   -6.4312 H   0  0  0  0  0  0  0  0  0  0  0  0
   -1.9885    4.4671   -5.2340 H   0  0  0  0  0  0  0  0  0  0  0  0
   -0.5109    1.7982    1.7221 C   0  0  0  0  0  0  0  0  0  0  0  0
   -0.8637    2.9087    2.0984 O   0  0  0  0  0  0  0  0  0  0  0  0
    0.2217    0.9827    2.5618 N   0  0  0  0  0  0  0  0  0  0  0  0
    0.3004    0.0049    2.2773 H   0  0  0  0  0  0  0  0  0  0  0  0
    0.5132    1.3289    3.9484 C   0  0  0  0  0  0  0  0  0  0  0  0
   -0.4137    1.4258    4.5237 H   0  0  0  0  0  0  0  0  0  0  0  0
    1.1293    0.5519    4.4116 H   0  0  0  0  0  0  0  0  0  0  0  0
    1.0607    2.2761    4.0007 H   0  0  0  0  0  0  0  0  0  0  0  0
  1  2  1  0  0  0  0
  2  3  1  0  0  0  0
  2  4  1  0  0  0  0
  2  5  1  0  0  0  0
  5  6  2  0  0  0  0
  5  7  1  0  0  0  0
  7  8  1  0  0  0  0
  7  9  1  0  0  0  0
  9 10  1  0  0  0  0
  9 11  1  0  0  0  0
  9 27  1  0  0  0  0
 11 12  1  0  0  0  0
 11 13  1  0  0  0  0
 11 14  1  0  0  0  0
 14 15  1  0  0  0  0
 14 16  1  0  0  0  0
 14 17  1  0  0  0  0
 17 18  1  0  0  0  0
 17 19  1  0  0  0  0
 17 20  1  0  0  0  0
 20 21  1  0  0  0  0
 20 22  1  0  0  0  0
 20 23  1  0  0  0  0
 23 24  1  0  0  0  0
 23 25  1  0  0  0  0
 23 26  1  0  0  0  0
 27 28  2  0  0  0  0
 27 29  1  0  0  0  0
 29 30  1  0  0  0  0
 29 31  1  0  0  0  0
 31 32  1  0  0  0  0
 31 33  1  0  0  0  0
 31 34  1  0  0  0  0
M  CHG  1  23   1
M  END
$$$$

  -OEChem-01062216093D

 34 33  0     1  0  0  0  0  0999 V2000
   -3.4215   -2.3145    1.5244 H   0  0  0  0  0  0  0  0  0  0  0  0
   -3.5521   -1.3174    1.0941 C   0  0  0  0  0  0  0  0  0  0  0  0
   -4.0751   -0.6894    1.8196 H   0  0  0  0  0  0  0  0  0  0  0  0
   -4.1586   -1.4024    0.1893 H   0  0  0  0  0  0  0  0  0  0  0  0
   -2.2018   -0.7126    0.7622 C   0  0  0  0  0  0  0  0  0  0  0  0
   -1.1763   -1.3432    0.9683 O   0  0  0  0  0  0  0  0  0  0  0  0
   -2.1170    0.5703    0.2547 N   0  0  0  0  0  0  0  0  0  0  0  0
   -2.9634    1.1267    0.3503 H   0  0  0  0  0  0  0  0  0  0  0  0
   -0.8362    1.2952    0.2685 C   0  0  1  0  0  0  0  0  0  0  0  0
   -0.0218    0.6344   -0.0484 H   0  0  0  0  0  0  0  0  0  0  0  0
   -0.9020    2.4736   -0.7203 C   0  0  0  0  0  0  0  0  0  0  0  0
   -1.7723    3.0967   -0.4866 H   0  0  0  0  0  0  0  0  0  0  0  0
   -0.0082    3.0935   -0.5884 H   0  0  0  0  0  0  0  0  0  0  0  0
   -0.9742    1.9994   -2.1793 C   0  0  0  0  0  0  0  0  0  0  0  0
   -0.1014    1.3761   -2.4038 H   0  0  0  0  0  0  0  0  0  0  0  0
   -1.8708    1.3862   -2.3232 H   0  0  0  0  0  0  0  0  0  0  0  0
   -1.0127    3.2043   -3.1269 C   0  0  0  0  0  0  0  0  0  0  0  0
   -1.8767    3.8308   -2.8789 H   0  0  0  0  0  0  0  0  0  0  0  0
   -0.1070    3.8050   -2.9867 H   0  0  0  0  0  0  0  0  0  0  0  0
   -1.1093    2.7377   -4.5776 C   0  0  0  0  0  0  0  0  0  0  0  0
   -0.2384    2.1091   -4.8150 H   0  0  0  0  0  0  0  0  0  0  0  0
   -2.0042    2.1095   -4.6984 H   0  0  0  0  0  0  0  0  0  0  0  0
   -1.1682    3.9239   -5.4597 N   0  3  0  0  0  0  0  0  0  0  0  0
   -0.3293    4.4941   -5.3342 H   0  0  0  0  0  0  0  0  0  0  0  0
   -1.2276    3.6327   -6.4380 H   0  0  0  0  0  0  0  0  0  0  0  0
   -1.9887    4.4890   -5.2315 H   0  0  0  0  0  0  0  0  0  0  0  0
   -0.5111    1.7860    1.6957 C   0  0  0  0  0  0  0  0  0  0  0  0
   -1.0807    2.7745    2.1406 O   0  0  0  0  0  0  0  0  0  0  0  0
    0.4528    1.1443    2.4482 N   0  0  0  0  0  0  0  0  0  0  0  0
    0.7194    0.2132    2.1309 H   0  0  0  0  0  0  0  0  0  0  0  0
    0.7374    1.5067    3.8325 C   0  0  0  0  0  0  0  0  0  0  0  0
   -0.1469    1.3521    4.4599 H   0  0  0  0  0  0  0  0  0  0  0  0
    1.5533    0.8914    4.2248 H   0  0  0  0  0  0  0  0  0  0  0  0
    1.0371    2.5580    3.9018 H   0  0  0  0  0  0  0  0  0  0  0  0
  1  2  1  0  0  0  0
  2  3  1  0  0  0  0
  2  4  1  0  0  0  0
  2  5  1  0  0  0  0
  5  6  2  0  0  0  0
  5  7  1  0  0  0  0
  7  8  1  0  0  0  0
  7  9  1  0  0  0  0
  9 10  1  0  0  0  0
  9 11  1  0  0  0  0
  9 27  1  0  0  0  0
 11 12  1  0  0  0  0
 11 13  1  0  0  0  0
 11 14  1  0  0  0  0
 14 15  1  0  0  0  0
 14 16  1  0  0  0  0
 14 17  1  0  0  0  0
 17 18  1  0  0  0  0
 17 19  1  0  0  0  0
 17 20  1  0  0  0  0
 20 21  1  0  0  0  0
 20 22  1  0  0  0  0
 20 23  1  0  0  0  0
 23 24  1  0  0  0  0
 23 25  1  0  0  0  0
 23 26  1  0  0  0  0
 27 28  2  0  0  0  0
 27 29  1  0  0  0  0
 29 30  1  0  0  0  0
 29 31  1  0  0  0  0
 31 32  1  0  0  0  0
 31 33  1  0  0  0  0
 31 34  1  0  0  0  0
M  CHG  1  23   1
M  END
$$$$

  -OEChem-01062216093D

 34 33  0     1  0  0  0  0  0999 V2000
   -3.4081   -2.3028    1.5599 H   0  0  0  0  0  0  0  0  0  0  0  0
   -3.5426   -1.3069    1.1278 C   0  0  0  0  0  0  0  0  0  0  0  0
   -4.0345   -0.6689    1.8663 H   0  0  0  0  0  0  0  0  0  0  0  0
   -4.1798   -1.3899    0.2444 H   0  0  0  0  0  0  0  0  0  0  0  0
   -2.1977   -0.7194    0.7463 C   0  0  0  0  0  0  0  0  0  0  0  0
   -1.1748   -1.3673    0.9047 O   0  0  0  0  0  0  0  0  0  0  0  0
   -2.1161    0.5620    0.2350 N   0  0  0  0  0  0  0  0  0  0  0  0
   -2.9538    1.1229    0.3726 H   0  0  0  0  0  0  0  0  0  0  0  0
   -0.8351    1.2862    0.2536 C   0  0  1  0  0  0  0  0  0  0  0  0
   -0.0206    0.6253   -0.0631 H   0  0  0  0  0  0  0  0  0  0  0  0
   -0.9002    2.4711   -0.7255 C   0  0  0  0  0  0  0  0  0  0  0  0
   -1.7702    3.0932   -0.4867 H   0  0  0  0  0  0  0  0  0  0  0  0
   -0.0062    3.0898   -0.5899 H   0  0  0  0  0  0  0  0  0  0  0  0
   -0.9730    2.0036   -2.1869 C   0  0  0  0  0  0  0  0  0  0  0  0
   -0.1017    1.3789   -2.4137 H   0  0  0  0  0  0  0  0  0  0  0  0
   -1.8702    1.3917   -2.3325 H   0  0  0  0  0  0  0  0  0  0  0  0
   -1.0111    3.2107   -3.1322 C   0  0  0  0  0  0  0  0  0  0  0  0
   -1.8753    3.8368   -2.8834 H   0  0  0  0  0  0  0  0  0  0  0  0
   -0.1055    3.8114   -2.9918 H   0  0  0  0  0  0  0  0  0  0  0  0
   -1.1080    2.7443   -4.5833 C   0  0  0  0  0  0  0  0  0  0  0  0
   -0.2375    2.1148   -4.8201 H   0  0  0  0  0  0  0  0  0  0  0  0
   -2.0034    2.1165   -4.7021 H   0  0  0  0  0  0  0  0  0  0  0  0
   -1.1670    3.9285   -5.4682 N   0  3  0  0  0  0  0  0  0  0  0  0
   -0.3267    4.4976   -5.3469 H   0  0  0  0  0  0  0  0  0  0  0  0
   -1.2300    3.6351   -6.4457 H   0  0  0  0  0  0  0  0  0  0  0  0
   -1.9859    4.4954   -5.2391 H   0  0  0  0  0  0  0  0  0  0  0  0
   -0.5160    1.7809    1.6800 C   0  0  0  0  0  0  0  0  0  0  0  0
   -1.2604    2.5991    2.2059 O   0  0  0  0  0  0  0  0  0  0  0  0
    0.6297    1.3675    2.3318 N   0  0  0  0  0  0  0  0  0  0  0  0
    1.0955    0.5466    1.9513 H   0  0  0  0  0  0  0  0  0  0  0  0
    0.9250    1.7480    3.7091 C   0  0  0  0  0  0  0  0  0  0  0  0
    0.1500    1.3720    4.3858 H   0  0  0  0  0  0  0  0  0  0  0  0
    1.8883    1.3316    4.0196 H   0  0  0  0  0  0  0  0  0  0  0  0
    0.9760    2.8379    3.8046 H   0  0  0  0  0  0  0  0  0  0  0  0
  1  2  1  0  0  0  0
  2  3  1  0  0  0  0
  2  4  1  0  0  0  0
  2  5  1  0  0  0  0
  5  6  2  0  0  0  0
  5  7  1  0  0  0  0
  7  8  1  0  0  0  0
  7  9  1  0  0  0  0
  9 10  1  0  0  0  0
  9 11  1  0  0  0  0
  9 27  1  0  0  0  0
 11 12  1  0  0  0  0
 11 13  1  0  0  0  0
 11 14  1  0  0  0  0
 14 15  1  0  0  0  0
 14 16  1  0  0  0  0
 14 17  1  0  0  0  0
 17 18  1  0  0  0  0
 17 19  1  0  0  0  0
 17 20  1  0  0  0  0
 20 21  1  0  0  0  0
 20 22  1  0  0  0  0
 20 23  1  0  0  0  0
 23 24  1  0  0  0  0
 23 25  1  0  0  0  0
 23 26  1  0  0  0  0
 27 28  2  0  0  0  0
 27 29  1  0  0  0  0
 29 30  1  0  0  0  0
 29 31  1  0  0  0  0
 31 32  1  0  0  0  0
 31 33  1  0  0  0  0
 31 34  1  0  0  0  0
M  CHG  1  23   1
M  END
$$$$

  -OEChem-01062216093D

 34 33  0     1  0  0  0  0  0999 V2000
   -3.4065   -2.2942    1.5639 H   0  0  0  0  0  0  0  0  0  0  0  0
   -3.5396   -1.2958    1.1372 C   0  0  0  0  0  0  0  0  0  0  0  0
   -4.0058   -0.6535    1.8885 H   0  0  0  0  0  0  0  0  0  0  0  0
   -4.1983   -1.3692    0.2688 H   0  0  0  0  0  0  0  0  0  0  0  0
   -2.1978   -0.7212    0.7263 C   0  0  0  0  0  0  0  0  0  0  0  0
   -1.1799   -1.3845    0.8463 O   0  0  0  0  0  0  0  0  0  0  0  0
   -2.1166    0.5607    0.2167 N   0  0  0  0  0  0  0  0  0  0  0  0
   -2.9473    1.1226    0.3889 H   0  0  0  0  0  0  0  0  0  0  0  0
   -0.8345    1.2841    0.2458 C   0  0  1  0  0  0  0  0  0  0  0  0
   -0.0187    0.6239   -0.0684 H   0  0  0  0  0  0  0  0  0  0  0  0
   -0.9015    2.4742   -0.7257 C   0  0  0  0  0  0  0  0  0  0  0  0
   -1.7728    3.0936   -0.4845 H   0  0  0  0  0  0  0  0  0  0  0  0
   -0.0084    3.0941   -0.5889 H   0  0  0  0  0  0  0  0  0  0  0  0
   -0.9721    2.0088   -2.1881 C   0  0  0  0  0  0  0  0  0  0  0  0
   -0.0995    1.3859   -2.4151 H   0  0  0  0  0  0  0  0  0  0  0  0
   -1.8679    1.3952   -2.3346 H   0  0  0  0  0  0  0  0  0  0  0  0
   -1.0126    3.2142   -3.1345 C   0  0  0  0  0  0  0  0  0  0  0  0
   -1.8782    3.8390   -2.8876 H   0  0  0  0  0  0  0  0  0  0  0  0
   -0.1078    3.8163   -2.9953 H   0  0  0  0  0  0  0  0  0  0  0  0
   -1.1077    2.7419   -4.5837 C   0  0  0  0  0  0  0  0  0  0  0  0
   -0.2361    2.1126   -4.8177 H   0  0  0  0  0  0  0  0  0  0  0  0
   -2.0019    2.1118   -4.7004 H   0  0  0  0  0  0  0  0  0  0  0  0
   -1.1694    3.9220   -5.4733 N   0  3  0  0  0  0  0  0  0  0  0  0
   -0.3306    4.4934   -5.3543 H   0  0  0  0  0  0  0  0  0  0  0  0
   -1.2314    3.6242   -6.4494 H   0  0  0  0  0  0  0  0  0  0  0  0
   -1.9897    4.4879   -5.2470 H   0  0  0  0  0  0  0  0  0  0  0  0
   -0.5222    1.7784    1.6744 C   0  0  0  0  0  0  0  0  0  0  0  0
   -1.3820    2.4033    2.2833 O   0  0  0  0  0  0  0  0  0  0  0  0
    0.7376    1.6277    2.2224 N   0  0  0  0  0  0  0  0  0  0  0  0
    1.3590    0.9642    1.7671 H   0  0  0  0  0  0  0  0  0  0  0  0
    1.0506    2.0378    3.5877 C   0  0  0  0  0  0  0  0  0  0  0  0
    0.4411    1.4786    4.3058 H   0  0  0  0  0  0  0  0  0  0  0  0
    2.1059    1.8495    3.8081 H   0  0  0  0  0  0  0  0  0  0  0  0
    0.8584    3.1078    3.7222 H   0  0  0  0  0  0  0  0  0  0  0  0
  1  2  1  0  0  0  0
  2  3  1  0  0  0  0
  2  4  1  0  0  0  0
  2  5  1  0  0  0  0
  5  6  2  0  0  0  0
  5  7  1  0  0  0  0
  7  8  1  0  0  0  0
  7  9  1  0  0  0  0
  9 10  1  0  0  0  0
  9 11  1  0  0  0  0
  9 27  1  0  0  0  0
 11 12  1  0  0  0  0
 11 13  1  0  0  0  0
 11 14  1  0  0  0  0
 14 15  1  0  0  0  0
 14 16  1  0  0  0  0
 14 17  1  0  0  0  0
 17 18  1  0  0  0  0
 17 19  1  0  0  0  0
 17 20  1  0  0  0  0
 20 21  1  0  0  0  0
 20 22  1  0  0  0  0
 20 23  1  0  0  0  0
 23 24  1  0  0  0  0
 23 25  1  0  0  0  0
 23 26  1  0  0  0  0
 27 28  2  0  0  0  0
 27 29  1  0  0  0  0
 29 30  1  0  0  0  0
 29 31  1  0  0  0  0
 31 32  1  0  0  0  0
 31 33  1  0  0  0  0
 31 34  1  0  0  0  0
M  CHG  1  23   1
M  END
$$$$

  -OEChem-01062216093D

 34 33  0     1  0  0  0  0  0999 V2000
   -3.3896   -2.2822    1.5936 H   0  0  0  0  0  0  0  0  0  0  0  0
   -3.5312   -1.2871    1.1623 C   0  0  0  0  0  0  0  0  0  0  0  0
   -3.9715   -0.6364    1.9221 H   0  0  0  0  0  0  0  0  0  0  0  0
   -4.2161   -1.3644    0.3149 H   0  0  0  0  0  0  0  0  0  0  0  0
   -2.1997   -0.7235    0.7054 C   0  0  0  0  0  0  0  0  0  0  0  0
   -1.1863   -1.4005    0.7791 O   0  0  0  0  0  0  0  0  0  0  0  0
   -2.1254    0.5608    0.2002 N   0  0  0  0  0  0  0  0  0  0  0  0
   -2.9500    1.1196    0.4082 H   0  0  0  0  0  0  0  0  0  0  0  0
   -0.8439    1.2861    0.2418 C   0  0  1  0  0  0  0  0  0  0  0  0
   -0.0254    0.6276   -0.0691 H   0  0  0  0  0  0  0  0  0  0  0  0
   -0.9115    2.4789   -0.7263 C   0  0  0  0  0  0  0  0  0  0  0  0
   -1.7870    3.0927   -0.4870 H   0  0  0  0  0  0  0  0  0  0  0  0
   -0.0227    3.1032   -0.5844 H   0  0  0  0  0  0  0  0  0  0  0  0
   -0.9726    2.0157   -2.1905 C   0  0  0  0  0  0  0  0  0  0  0  0
   -0.0956    1.3974   -2.4131 H   0  0  0  0  0  0  0  0  0  0  0  0
   -1.8644    1.3974   -2.3423 H   0  0  0  0  0  0  0  0  0  0  0  0
   -1.0143    3.2194   -3.1393 C   0  0  0  0  0  0  0  0  0  0  0  0
   -1.8852    3.8396   -2.8984 H   0  0  0  0  0  0  0  0  0  0  0  0
   -0.1143    3.8281   -2.9967 H   0  0  0  0  0  0  0  0  0  0  0  0
   -1.0996    2.7418   -4.5880 C   0  0  0  0  0  0  0  0  0  0  0  0
   -0.2237    2.1163   -4.8156 H   0  0  0  0  0  0  0  0  0  0  0  0
   -1.9898    2.1066   -4.7068 H   0  0  0  0  0  0  0  0  0  0  0  0
   -1.1629    3.9175   -5.4837 N   0  3  0  0  0  0  0  0  0  0  0  0
   -0.3265    4.4926   -5.3653 H   0  0  0  0  0  0  0  0  0  0  0  0
   -1.2210    3.6144   -6.4585 H   0  0  0  0  0  0  0  0  0  0  0  0
   -1.9860    4.4817   -5.2631 H   0  0  0  0  0  0  0  0  0  0  0  0
   -0.5360    1.7779    1.6734 C   0  0  0  0  0  0  0  0  0  0  0  0
   -1.4564    2.1868    2.3711 O   0  0  0  0  0  0  0  0  0  0  0  0
    0.7675    1.9111    2.1147 N   0  0  0  0  0  0  0  0  0  0  0  0
    1.4884    1.4394    1.5758 H   0  0  0  0  0  0  0  0  0  0  0  0
    1.0932    2.3473    3.4690 C   0  0  0  0  0  0  0  0  0  0  0  0
    0.6808    1.6500    4.2063 H   0  0  0  0  0  0  0  0  0  0  0  0
    2.1784    2.3914    3.6031 H   0  0  0  0  0  0  0  0  0  0  0  0
    0.6832    3.3447    3.6614 H   0  0  0  0  0  0  0  0  0  0  0  0
  1  2  1  0  0  0  0
  2  3  1  0  0  0  0
  2  4  1  0  0  0  0
  2  5  1  0  0  0  0
  5  6  2  0  0  0  0
  5  7  1  0  0  0  0
  7  8  1  0  0  0  0
  7  9  1  0  0  0  0
  9 10  1  0  0  0  0
  9 11  1  0  0  0  0
  9 27  1  0  0  0  0
 11 12  1  0  0  0  0
 11 13  1  0  0  0  0
 11 14  1  0  0  0  0
 14 15  1  0  0  0  0
 14 16  1  0  0  0  0
 14 17  1  0  0  0  0
 17 18  1  0  0  0  0
 17 19  1  0  0  0  0
 17 20  1  0  0  0  0
 20 21  1  0  0  0  0
 20 22  1  0  0  0  0
 20 23  1  0  0  0  0
 23 24  1  0  0  0  0
 23 25  1  0  0  0  0
 23 26  1  0  0  0  0
 27 28  2  0  0  0  0
 27 29  1  0  0  0  0
 29 30  1  0  0  0  0
 29 31  1  0  0  0  0
 31 32  1  0  0  0  0
 31 33  1  0  0  0  0
 31 34  1  0  0  0  0
M  CHG  1  23   1
M  END
$$$$

  -OEChem-01062216093D

 34 33  0     1  0  0  0  0  0999 V2000
   -3.3851   -2.2866    1.5598 H   0  0  0  0  0  0  0  0  0  0  0  0
   -3.5250   -1.2742    1.1702 C   0  0  0  0  0  0  0  0  0  0  0  0
   -3.9139   -0.6417    1.9723 H   0  0  0  0  0  0  0  0  0  0  0  0
   -4.2509   -1.3077    0.3547 H   0  0  0  0  0  0  0  0  0  0  0  0
   -2.2044   -0.7206    0.6712 C   0  0  0  0  0  0  0  0  0  0  0  0
   -1.1994   -1.4137    0.6875 O   0  0  0  0  0  0  0  0  0  0  0  0
   -2.1331    0.5699    0.1816 N   0  0  0  0  0  0  0  0  0  0  0  0
   -2.9526    1.1228    0.4224 H   0  0  0  0  0  0  0  0  0  0  0  0
   -0.8514    1.2957    0.2425 C   0  0  1  0  0  0  0  0  0  0  0  0
   -0.0289    0.6410   -0.0668 H   0  0  0  0  0  0  0  0  0  0  0  0
   -0.9229    2.4912   -0.7228 C   0  0  0  0  0  0  0  0  0  0  0  0
   -1.8057    3.0961   -0.4883 H   0  0  0  0  0  0  0  0  0  0  0  0
   -0.0408    3.1245   -0.5782 H   0  0  0  0  0  0  0  0  0  0  0  0
   -0.9723    2.0246   -2.1867 C   0  0  0  0  0  0  0  0  0  0  0  0
   -0.0893    1.4124   -2.4027 H   0  0  0  0  0  0  0  0  0  0  0  0
   -1.8579    1.3982   -2.3417 H   0  0  0  0  0  0  0  0  0  0  0  0
   -1.0186    3.2228   -3.1415 C   0  0  0  0  0  0  0  0  0  0  0  0
   -1.8965    3.8362   -2.9096 H   0  0  0  0  0  0  0  0  0  0  0  0
   -0.1246    3.8400   -2.9979 H   0  0  0  0  0  0  0  0  0  0  0  0
   -1.0922    2.7329   -4.5867 C   0  0  0  0  0  0  0  0  0  0  0  0
   -0.2104    2.1122   -4.8038 H   0  0  0  0  0  0  0  0  0  0  0  0
   -1.9767    2.0895   -4.7043 H   0  0  0  0  0  0  0  0  0  0  0  0
   -1.1604    3.8993   -5.4939 N   0  3  0  0  0  0  0  0  0  0  0  0
   -0.3292    4.4822   -5.3773 H   0  0  0  0  0  0  0  0  0  0  0  0
   -1.2113    3.5858   -6.4659 H   0  0  0  0  0  0  0  0  0  0  0  0
   -1.9894    4.4583   -5.2827 H   0  0  0  0  0  0  0  0  0  0  0  0
   -0.5441    1.7756    1.6803 C   0  0  0  0  0  0  0  0  0  0  0  0
   -1.4697    1.9573    2.4623 O   0  0  0  0  0  0  0  0  0  0  0  0
    0.7264    2.1962    2.0302 N   0  0  0  0  0  0  0  0  0  0  0  0
    1.4894    1.9328    1.4138 H   0  0  0  0  0  0  0  0  0  0  0  0
    1.0533    2.6659    3.3733 C   0  0  0  0  0  0  0  0  0  0  0  0
    0.8725    1.8760    4.1105 H   0  0  0  0  0  0  0  0  0  0  0  0
    2.1070    2.9564    3.4285 H   0  0  0  0  0  0  0  0  0  0  0  0
    0.4434    3.5371    3.6356 H   0  0  0  0  0  0  0  0  0  0  0  0
  1  2  1  0  0  0  0
  2  3  1  0  0  0  0
  2  4  1  0  0  0  0
  2  5  1  0  0  0  0
  5  6  2  0  0  0  0
  5  7  1  0  0  0  0
  7  8  1  0  0  0  0
  7  9  1  0  0  0  0
  9 10  1  0  0  0  0
  9 11  1  0  0  0  0
  9 27  1  0  0  0  0
 11 12  1  0  0  0  0
 11 13  1  0  0  0  0
 11 14  1  0  0  0  0
 14 15  1  0  0  0  0
 14 16  1  0  0  0  0
 14 17  1  0  0  0  0
 17 18  1  0  0  0  0
 17 19  1  0  0  0  0
 17 20  1  0  0  0  0
 20 21  1  0  0  0  0
 20 22  1  0  0  0  0
 20 23  1  0  0  0  0
 23 24  1  0  0  0  0
 23 25  1  0  0  0  0
 23 26  1  0  0  0  0
 27 28  2  0  0  0  0
 27 29  1  0  0  0  0
 29 30  1  0  0  0  0
 29 31  1  0  0  0  0
 31 32  1  0  0  0  0
 31 33  1  0  0  0  0
 31 34  1  0  0  0  0
M  CHG  1  23   1
M  END
$$$$

  -OEChem-01062216093D

 34 33  0     1  0  0  0  0  0999 V2000
   -3.3301   -2.3606    1.4504 H   0  0  0  0  0  0  0  0  0  0  0  0
   -3.4798   -1.3127    1.1756 C   0  0  0  0  0  0  0  0  0  0  0  0
   -3.7764   -0.7563    2.0683 H   0  0  0  0  0  0  0  0  0  0  0  0
   -4.2775   -1.2540    0.4319 H   0  0  0  0  0  0  0  0  0  0  0  0
   -2.1959   -0.7347    0.6138 C   0  0  0  0  0  0  0  0  0  0  0  0
   -1.1940   -1.4266    0.5197 O   0  0  0  0  0  0  0  0  0  0  0  0
   -2.1536    0.5707    0.1565 N   0  0  0  0  0  0  0  0  0  0  0  0
   -2.9785    1.0964    0.4305 H   0  0  0  0  0  0  0  0  0  0  0  0
   -0.8778    1.3076    0.2507 C   0  0  1  0  0  0  0  0  0  0  0  0
   -0.1050    0.7613   -0.3014 H   0  0  0  0  0  0  0  0  0  0  0  0
   -1.0770    2.6896   -0.4017 C   0  0  0  0  0  0  0  0  0  0  0  0
   -1.9351    3.1900    0.0605 H   0  0  0  0  0  0  0  0  0  0  0  0
   -0.1947    3.3113   -0.2166 H   0  0  0  0  0  0  0  0  0  0  0  0
   -1.2855    2.5682   -1.9205 C   0  0  0  0  0  0  0  0  0  0  0  0
   -0.4234    2.0582   -2.3654 H   0  0  0  0  0  0  0  0  0  0  0  0
   -2.1730    1.9580   -2.1220 H   0  0  0  0  0  0  0  0  0  0  0  0
   -1.4579    3.9506   -2.5619 C   0  0  0  0  0  0  0  0  0  0  0  0
   -2.3120    4.4602   -2.1018 H   0  0  0  0  0  0  0  0  0  0  0  0
   -0.5622    4.5541   -2.3769 H   0  0  0  0  0  0  0  0  0  0  0  0
   -1.6877    3.8010   -4.0650 C   0  0  0  0  0  0  0  0  0  0  0  0
   -0.8260    3.2837   -4.5123 H   0  0  0  0  0  0  0  0  0  0  0  0
   -2.5689    3.1645   -4.2335 H   0  0  0  0  0  0  0  0  0  0  0  0
   -1.8763    5.1392   -4.6671 N   0  3  0  0  0  0  0  0  0  0  0  0
   -1.0495    5.7169   -4.5030 H   0  0  0  0  0  0  0  0  0  0  0  0
   -2.0248    5.0532   -5.6752 H   0  0  0  0  0  0  0  0  0  0  0  0
   -2.6892    5.5987   -4.2516 H   0  0  0  0  0  0  0  0  0  0  0  0
   -0.3666    1.4485    1.7111 C   0  0  0  0  0  0  0  0  0  0  0  0
   -1.1342    1.2457    2.6446 O   0  0  0  0  0  0  0  0  0  0  0  0
    0.8206    2.1085    1.9797 N   0  0  0  0  0  0  0  0  0  0  0  0
    1.4846    2.1950    1.2167 H   0  0  0  0  0  0  0  0  0  0  0  0
    1.2991    2.3425    3.3398 C   0  0  0  0  0  0  0  0  0  0  0  0
    1.4364    1.3925    3.8679 H   0  0  0  0  0  0  0  0  0  0  0  0
    2.2581    2.8693    3.3204 H   0  0  0  0  0  0  0  0  0  0  0  0
    0.5832    2.9539    3.8998 H   0  0  0  0  0  0  0  0  0  0  0  0
  1  2  1  0  0  0  0
  2  3  1  0  0  0  0
  2  4  1  0  0  0  0
  2  5  1  0  0  0  0
  5  6  2  0  0  0  0
  5  7  1  0  0  0  0
  7  8  1  0  0  0  0
  7  9  1  0  0  0  0
  9 10  1  0  0  0  0
  9 11  1  0  0  0  0
  9 27  1  0  0  0  0
 11 12  1  0  0  0  0
 11 13  1  0  0  0  0
 11 14  1  0  0  0  0
 14 15  1  0  0  0  0
 14 16  1  0  0  0  0
 14 17  1  0  0  0  0
 17 18  1  0  0  0  0
 17 19  1  0  0  0  0
 17 20  1  0  0  0  0
 20 21  1  0  0  0  0
 20 22  1  0  0  0  0
 20 23  1  0  0  0  0
 23 24  1  0  0  0  0
 23 25  1  0  0  0  0
 23 26  1  0  0  0  0
 27 28  2  0  0  0  0
 27 29  1  0  0  0  0
 29 30  1  0  0  0  0
 29 31  1  0  0  0  0
 31 32  1  0  0  0  0
 31 33  1  0  0  0  0
 31 34  1  0  0  0  0
M  CHG  1  23   1
M  END
$$$$

  -OEChem-01062216093D

 34 33  0     1  0  0  0  0  0999 V2000
   -3.3123   -2.3543    1.4259 H   0  0  0  0  0  0  0  0  0  0  0  0
   -3.4663   -1.2991    1.1828 C   0  0  0  0  0  0  0  0  0  0  0  0
   -3.7204   -0.7633    2.1010 H   0  0  0  0  0  0  0  0  0  0  0  0
   -4.2946   -1.2168    0.4758 H   0  0  0  0  0  0  0  0  0  0  0  0
   -2.2024   -0.7160    0.5817 C   0  0  0  0  0  0  0  0  0  0  0  0
   -1.2187   -1.4177    0.4054 O   0  0  0  0  0  0  0  0  0  0  0  0
   -2.1647    0.6012    0.1585 N   0  0  0  0  0  0  0  0  0  0  0  0
   -2.9880    1.1159    0.4557 H   0  0  0  0  0  0  0  0  0  0  0  0
   -0.8897    1.3398    0.2669 C   0  0  1  0  0  0  0  0  0  0  0  0
   -0.1167    0.7987   -0.2905 H   0  0  0  0  0  0  0  0  0  0  0  0
   -1.0957    2.7190   -0.3948 C   0  0  0  0  0  0  0  0  0  0  0  0
   -1.9617    3.2150    0.0569 H   0  0  0  0  0  0  0  0  0  0  0  0
   -0.2218    3.3522   -0.2133 H   0  0  0  0  0  0  0  0  0  0  0  0
   -1.2896    2.5823   -1.9154 C   0  0  0  0  0  0  0  0  0  0  0  0
   -0.4185    2.0759   -2.3468 H   0  0  0  0  0  0  0  0  0  0  0  0
   -2.1691    1.9614   -2.1194 H   0  0  0  0  0  0  0  0  0  0  0  0
   -1.4696    3.9543   -2.5767 C   0  0  0  0  0  0  0  0  0  0  0  0
   -2.3328    4.4617   -2.1316 H   0  0  0  0  0  0  0  0  0  0  0  0
   -0.5812    4.5686   -2.3924 H   0  0  0  0  0  0  0  0  0  0  0  0
   -1.6841    3.7824   -4.0801 C   0  0  0  0  0  0  0  0  0  0  0  0
   -0.8146    3.2664   -4.5137 H   0  0  0  0  0  0  0  0  0  0  0  0
   -2.5585    3.1362   -4.2479 H   0  0  0  0  0  0  0  0  0  0  0  0
   -1.8797    5.1112   -4.7005 N   0  3  0  0  0  0  0  0  0  0  0  0
   -1.0588    5.6975   -4.5376 H   0  0  0  0  0  0  0  0  0  0  0  0
   -2.0197    5.0113   -5.7086 H   0  0  0  0  0  0  0  0  0  0  0  0
   -2.6994    5.5692   -4.2970 H   0  0  0  0  0  0  0  0  0  0  0  0
   -0.3580    1.4557    1.7273 C   0  0  0  0  0  0  0  0  0  0  0  0
   -1.0045    0.9934    2.6592 O   0  0  0  0  0  0  0  0  0  0  0  0
    0.6440    2.3587    2.0438 N   0  0  0  0  0  0  0  0  0  0  0  0
    1.2220    2.6969    1.2816 H   0  0  0  0  0  0  0  0  0  0  0  0
    1.1072    2.5783    3.4118 C   0  0  0  0  0  0  0  0  0  0  0  0
    1.4728    1.6425    3.8485 H   0  0  0  0  0  0  0  0  0  0  0  0
    1.9228    3.3078    3.4250 H   0  0  0  0  0  0  0  0  0  0  0  0
    0.2934    2.9618    4.0367 H   0  0  0  0  0  0  0  0  0  0  0  0
  1  2  1  0  0  0  0
  2  3  1  0  0  0  0
  2  4  1  0  0  0  0
  2  5  1  0  0  0  0
  5  6  2  0  0  0  0
  5  7  1  0  0  0  0
  7  8  1  0  0  0  0
  7  9  1  0  0  0  0
  9 10  1  0  0  0  0
  9 11  1  0  0  0  0
  9 27  1  0  0  0  0
 11 12  1  0  0  0  0
 11 13  1  0  0  0  0
 11 14  1  0  0  0  0
 14 15  1  0  0  0  0
 14 16  1  0  0  0  0
 14 17  1  0  0  0  0
 17 18  1  0  0  0  0
 17 19  1  0  0  0  0
 17 20  1  0  0  0  0
 20 21  1  0  0  0  0
 20 22  1  0  0  0  0
 20 23  1  0  0  0  0
 23 24  1  0  0  0  0
 23 25  1  0  0  0  0
 23 26  1  0  0  0  0
 27 28  2  0  0  0  0
 27 29  1  0  0  0  0
 29 30  1  0  0  0  0
 29 31  1  0  0  0  0
 31 32  1  0  0  0  0
 31 33  1  0  0  0  0
 31 34  1  0  0  0  0
M  CHG  1  23   1
M  END
$$$$

  -OEChem-01062216093D

 34 33  0     1  0  0  0  0  0999 V2000
   -3.3114   -2.3460    1.3792 H   0  0  0  0  0  0  0  0  0  0  0  0
   -3.4621   -1.2821    1.1756 C   0  0  0  0  0  0  0  0  0  0  0  0
   -3.6834   -0.7752    2.1183 H   0  0  0  0  0  0  0  0  0  0  0  0
   -4.3098   -1.1689    0.4964 H   0  0  0  0  0  0  0  0  0  0  0  0
   -2.2105   -0.6909    0.5565 C   0  0  0  0  0  0  0  0  0  0  0  0
   -1.2515   -1.4001    0.2965 O   0  0  0  0  0  0  0  0  0  0  0  0
   -2.1731    0.6374    0.1691 N   0  0  0  0  0  0  0  0  0  0  0  0
   -2.9967    1.1429    0.4806 H   0  0  0  0  0  0  0  0  0  0  0  0
   -0.9014    1.3826    0.2852 C   0  0  1  0  0  0  0  0  0  0  0  0
   -0.1295    0.8460   -0.2782 H   0  0  0  0  0  0  0  0  0  0  0  0
   -1.1135    2.7560   -0.3881 C   0  0  0  0  0  0  0  0  0  0  0  0
   -1.9849    3.2521    0.0533 H   0  0  0  0  0  0  0  0  0  0  0  0
   -0.2429    3.3953   -0.2143 H   0  0  0  0  0  0  0  0  0  0  0  0
   -1.2942    2.5978   -1.9085 C   0  0  0  0  0  0  0  0  0  0  0  0
   -0.4160    2.0928   -2.3270 H   0  0  0  0  0  0  0  0  0  0  0  0
   -2.1669    1.9667   -2.1112 H   0  0  0  0  0  0  0  0  0  0  0  0
   -1.4811    3.9572   -2.5911 C   0  0  0  0  0  0  0  0  0  0  0  0
   -2.3529    4.4629   -2.1615 H   0  0  0  0  0  0  0  0  0  0  0  0
   -0.6000    4.5828   -2.4100 H   0  0  0  0  0  0  0  0  0  0  0  0
   -1.6814    3.7554   -4.0926 C   0  0  0  0  0  0  0  0  0  0  0  0
   -0.8026    3.2403   -4.5084 H   0  0  0  0  0  0  0  0  0  0  0  0
   -2.5475    3.0968   -4.2557 H   0  0  0  0  0  0  0  0  0  0  0  0
   -1.8851    5.0691   -4.7418 N   0  3  0  0  0  0  0  0  0  0  0  0
   -1.0709    5.6667   -4.5865 H   0  0  0  0  0  0  0  0  0  0  0  0
   -2.0174    4.9462   -5.7486 H   0  0  0  0  0  0  0  0  0  0  0  0
   -2.7118    5.5273   -4.3533 H   0  0  0  0  0  0  0  0  0  0  0  0
   -0.3452    1.4759    1.7415 C   0  0  0  0  0  0  0  0  0  0  0  0
   -0.7877    0.7599    2.6292 O   0  0  0  0  0  0  0  0  0  0  0  0
    0.4163    2.5608    2.1475 N   0  0  0  0  0  0  0  0  0  0  0  0
    0.8210    3.1474    1.4263 H   0  0  0  0  0  0  0  0  0  0  0  0
    0.8674    2.7457    3.5250 C   0  0  0  0  0  0  0  0  0  0  0  0
    1.4768    1.8942    3.8471 H   0  0  0  0  0  0  0  0  0  0  0  0
    1.4713    3.6544    3.6098 H   0  0  0  0  0  0  0  0  0  0  0  0
    0.0105    2.8387    4.2011 H   0  0  0  0  0  0  0  0  0  0  0  0
  1  2  1  0  0  0  0
  2  3  1  0  0  0  0
  2  4  1  0  0  0  0
  2  5  1  0  0  0  0
  5  6  2  0  0  0  0
  5  7  1  0  0  0  0
  7  8  1  0  0  0  0
  7  9  1  0  0  0  0
  9 10  1  0  0  0  0
  9 11  1  0  0  0  0
  9 27  1  0  0  0  0
 11 12  1  0  0  0  0
 11 13  1  0  0  0  0
 11 14  1  0  0  0  0
 14 15  1  0  0  0  0
 14 16  1  0  0  0  0
 14 17  1  0  0  0  0
 17 18  1  0  0  0  0
 17 19  1  0  0  0  0
 17 20  1  0  0  0  0
 20 21  1  0  0  0  0
 20 22  1  0  0  0  0
 20 23  1  0  0  0  0
 23 24  1  0  0  0  0
 23 25  1  0  0  0  0
 23 26  1  0  0  0  0
 27 28  2  0  0  0  0
 27 29  1  0  0  0  0
 29 30  1  0  0  0  0
 29 31  1  0  0  0  0
 31 32  1  0  0  0  0
 31 33  1  0  0  0  0
 31 34  1  0  0  0  0
M  CHG  1  23   1
M  END
$$$$

  -OEChem-01062216093D

 34 33  0     1  0  0  0  0  0999 V2000
   -3.3075   -2.3514    1.3489 H   0  0  0  0  0  0  0  0  0  0  0  0
   -3.4509   -1.2783    1.1940 C   0  0  0  0  0  0  0  0  0  0  0  0
   -3.6298   -0.8077    2.1639 H   0  0  0  0  0  0  0  0  0  0  0  0
   -4.3215   -1.1275    0.5521 H   0  0  0  0  0  0  0  0  0  0  0  0
   -2.2153   -0.6780    0.5519 C   0  0  0  0  0  0  0  0  0  0  0  0
   -1.2797   -1.3889    0.2230 O   0  0  0  0  0  0  0  0  0  0  0  0
   -2.1880    0.6559    0.1848 N   0  0  0  0  0  0  0  0  0  0  0  0
   -3.0155    1.1500    0.5034 H   0  0  0  0  0  0  0  0  0  0  0  0
   -0.9250    1.4164    0.2975 C   0  0  1  0  0  0  0  0  0  0  0  0
   -0.1517    0.8812   -0.2661 H   0  0  0  0  0  0  0  0  0  0  0  0
   -1.1328    2.7837   -0.3885 C   0  0  0  0  0  0  0  0  0  0  0  0
   -2.0068    3.2850    0.0409 H   0  0  0  0  0  0  0  0  0  0  0  0
   -0.2598    3.4203   -0.2158 H   0  0  0  0  0  0  0  0  0  0  0  0
   -1.3002    2.6097   -1.9091 C   0  0  0  0  0  0  0  0  0  0  0  0
   -0.4184    2.1006   -2.3151 H   0  0  0  0  0  0  0  0  0  0  0  0
   -2.1709    1.9756   -2.1113 H   0  0  0  0  0  0  0  0  0  0  0  0
   -1.4828    3.9610   -2.6095 C   0  0  0  0  0  0  0  0  0  0  0  0
   -2.3583    4.4715   -2.1935 H   0  0  0  0  0  0  0  0  0  0  0  0
   -0.6033    4.5890   -2.4292 H   0  0  0  0  0  0  0  0  0  0  0  0
   -1.6696    3.7410   -4.1105 C   0  0  0  0  0  0  0  0  0  0  0  0
   -0.7857    3.2228   -4.5116 H   0  0  0  0  0  0  0  0  0  0  0  0
   -2.5326    3.0785   -4.2736 H   0  0  0  0  0  0  0  0  0  0  0  0
   -1.8692    5.0459   -4.7784 N   0  3  0  0  0  0  0  0  0  0  0  0
   -1.0565    5.6461   -4.6254 H   0  0  0  0  0  0  0  0  0  0  0  0
   -1.9943    4.9094   -5.7842 H   0  0  0  0  0  0  0  0  0  0  0  0
   -2.6991    5.5085   -4.4024 H   0  0  0  0  0  0  0  0  0  0  0  0
   -0.3533    1.4999    1.7481 C   0  0  0  0  0  0  0  0  0  0  0  0
   -0.4960    0.5817    2.5411 O   0  0  0  0  0  0  0  0  0  0  0  0
    0.1242    2.6947    2.2645 N   0  0  0  0  0  0  0  0  0  0  0  0
    0.2410    3.4753    1.6286 H   0  0  0  0  0  0  0  0  0  0  0  0
    0.5772    2.8460    3.6454 C   0  0  0  0  0  0  0  0  0  0  0  0
    1.4053    2.1603    3.8547 H   0  0  0  0  0  0  0  0  0  0  0  0
    0.9227    3.8690    3.8230 H   0  0  0  0  0  0  0  0  0  0  0  0
   -0.2393    2.6327    4.3437 H   0  0  0  0  0  0  0  0  0  0  0  0
  1  2  1  0  0  0  0
  2  3  1  0  0  0  0
  2  4  1  0  0  0  0
  2  5  1  0  0  0  0
  5  6  2  0  0  0  0
  5  7  1  0  0  0  0
  7  8  1  0  0  0  0
  7  9  1  0  0  0  0
  9 10  1  0  0  0  0
  9 11  1  0  0  0  0
  9 27  1  0  0  0  0
 11 12  1  0  0  0  0
 11 13  1  0  0  0  0
 11 14  1  0  0  0  0
 14 15  1  0  0  0  0
 14 16  1  0  0  0  0
 14 17  1  0  0  0  0
 17 18  1  0  0  0  0
 17 19  1  0  0  0  0
 17 20  1  0  0  0  0
 20 21  1  0  0  0  0
 20 22  1  0  0  0  0
 20 23  1  0  0  0  0
 23 24  1  0  0  0  0
 23 25  1  0  0  0  0
 23 26  1  0  0  0  0
 27 28  2  0  0  0  0
 27 29  1  0  0  0  0
 29 30  1  0  0  0  0
 29 31  1  0  0  0  0
 31 32  1  0  0  0  0
 31 33  1  0  0  0  0
 31 34  1  0  0  0  0
M  CHG  1  23   1
M  END
$$$$

  -OEChem-01062216093D

 34 33  0     1  0  0  0  0  0999 V2000
   -3.2639   -2.3426    1.4165 H   0  0  0  0  0  0  0  0  0  0  0  0
   -3.4394   -1.2817    1.2154 C   0  0  0  0  0  0  0  0  0  0  0  0
   -3.6426   -0.7776    2.1634 H   0  0  0  0  0  0  0  0  0  0  0  0
   -4.3084   -1.1859    0.5607 H   0  0  0  0  0  0  0  0  0  0  0  0
   -2.2176   -0.6712    0.5566 C   0  0  0  0  0  0  0  0  0  0  0  0
   -1.2927   -1.3792    0.1965 O   0  0  0  0  0  0  0  0  0  0  0  0
   -2.2049    0.6643    0.1947 N   0  0  0  0  0  0  0  0  0  0  0  0
   -3.0391    1.1498    0.5086 H   0  0  0  0  0  0  0  0  0  0  0  0
   -0.9505    1.4385    0.3012 C   0  0  1  0  0  0  0  0  0  0  0  0
   -0.1758    0.9041   -0.2615 H   0  0  0  0  0  0  0  0  0  0  0  0
   -1.1474    2.8057   -0.3865 C   0  0  0  0  0  0  0  0  0  0  0  0
   -2.0235    3.3116    0.0332 H   0  0  0  0  0  0  0  0  0  0  0  0
   -0.2705    3.4358   -0.2035 H   0  0  0  0  0  0  0  0  0  0  0  0
   -1.3055    2.6263   -1.9073 C   0  0  0  0  0  0  0  0  0  0  0  0
   -0.4224    2.1123   -2.3041 H   0  0  0  0  0  0  0  0  0  0  0  0
   -2.1759    1.9929   -2.1118 H   0  0  0  0  0  0  0  0  0  0  0  0
   -1.4777    3.9727   -2.6199 C   0  0  0  0  0  0  0  0  0  0  0  0
   -2.3542    4.4904   -2.2146 H   0  0  0  0  0  0  0  0  0  0  0  0
   -0.5966    4.5983   -2.4383 H   0  0  0  0  0  0  0  0  0  0  0  0
   -1.6547    3.7390   -4.1205 C   0  0  0  0  0  0  0  0  0  0  0  0
   -0.7708    3.2122   -4.5099 H   0  0  0  0  0  0  0  0  0  0  0  0
   -2.5194    3.0783   -4.2829 H   0  0  0  0  0  0  0  0  0  0  0  0
   -1.8444    5.0369   -4.8053 N   0  3  0  0  0  0  0  0  0  0  0  0
   -1.0282    5.6337   -4.6569 H   0  0  0  0  0  0  0  0  0  0  0  0
   -1.9661    4.8883   -5.8099 H   0  0  0  0  0  0  0  0  0  0  0  0
   -2.6726    5.5098   -4.4387 H   0  0  0  0  0  0  0  0  0  0  0  0
   -0.3765    1.5188    1.7472 C   0  0  0  0  0  0  0  0  0  0  0  0
   -0.1903    0.5133    2.4125 O   0  0  0  0  0  0  0  0  0  0  0  0
   -0.2000    2.7384    2.3818 N   0  0  0  0  0  0  0  0  0  0  0  0
   -0.3948    3.5830    1.8561 H   0  0  0  0  0  0  0  0  0  0  0  0
    0.2582    2.8628    3.7637 C   0  0  0  0  0  0  0  0  0  0  0  0
    1.2442    2.4013    3.8855 H   0  0  0  0  0  0  0  0  0  0  0  0
    0.3345    3.9172    4.0461 H   0  0  0  0  0  0  0  0  0  0  0  0
   -0.4440    2.3726    4.4466 H   0  0  0  0  0  0  0  0  0  0  0  0
  1  2  1  0  0  0  0
  2  3  1  0  0  0  0
  2  4  1  0  0  0  0
  2  5  1  0  0  0  0
  5  6  2  0  0  0  0
  5  7  1  0  0  0  0
  7  8  1  0  0  0  0
  7  9  1  0  0  0  0
  9 10  1  0  0  0  0
  9 11  1  0  0  0  0
  9 27  1  0  0  0  0
 11 12  1  0  0  0  0
 11 13  1  0  0  0  0
 11 14  1  0  0  0  0
 14 15  1  0  0  0  0
 14 16  1  0  0  0  0
 14 17  1  0  0  0  0
 17 18  1  0  0  0  0
 17 19  1  0  0  0  0
 17 20  1  0  0  0  0
 20 21  1  0  0  0  0
 20 22  1  0  0  0  0
 20 23  1  0  0  0  0
 23 24  1  0  0  0  0
 23 25  1  0  0  0  0
 23 26  1  0  0  0  0
 27 28  2  0  0  0  0
 27 29  1  0  0  0  0
 29 30  1  0  0  0  0
 29 31  1  0  0  0  0
 31 32  1  0  0  0  0
 31 33  1  0  0  0  0
 31 34  1  0  0  0  0
M  CHG  1  23   1
M  END
$$$$

  -OEChem-01062216093D

 34 33  0     1  0  0  0  0  0999 V2000
   -3.2945   -2.3454    1.4211 H   0  0  0  0  0  0  0  0  0  0  0  0
   -3.4833   -1.2990    1.1634 C   0  0  0  0  0  0  0  0  0  0  0  0
   -3.7826   -0.7668    2.0692 H   0  0  0  0  0  0  0  0  0  0  0  0
   -4.2956   -1.2571    0.4345 H   0  0  0  0  0  0  0  0  0  0  0  0
   -2.2280   -0.6749    0.5846 C   0  0  0  0  0  0  0  0  0  0  0  0
   -1.2722   -1.3747    0.3023 O   0  0  0  0  0  0  0  0  0  0  0  0
   -2.2139    0.6585    0.2149 N   0  0  0  0  0  0  0  0  0  0  0  0
   -3.0652    1.1441    0.4785 H   0  0  0  0  0  0  0  0  0  0  0  0
   -0.9677    1.4451    0.3175 C   0  0  1  0  0  0  0  0  0  0  0  0
   -0.1881    0.9114   -0.2400 H   0  0  0  0  0  0  0  0  0  0  0  0
   -1.1590    2.8099   -0.3725 C   0  0  0  0  0  0  0  0  0  0  0  0
   -2.0395    3.3153    0.0375 H   0  0  0  0  0  0  0  0  0  0  0  0
   -0.2841    3.4397   -0.1766 H   0  0  0  0  0  0  0  0  0  0  0  0
   -1.3076    2.6279   -1.8935 C   0  0  0  0  0  0  0  0  0  0  0  0
   -0.4217    2.1129   -2.2835 H   0  0  0  0  0  0  0  0  0  0  0  0
   -2.1773    1.9945   -2.1021 H   0  0  0  0  0  0  0  0  0  0  0  0
   -1.4738    3.9732   -2.6094 C   0  0  0  0  0  0  0  0  0  0  0  0
   -2.3528    4.4921   -2.2115 H   0  0  0  0  0  0  0  0  0  0  0  0
   -0.5940    4.5988   -2.4226 H   0  0  0  0  0  0  0  0  0  0  0  0
   -1.6410    3.7349   -4.1102 C   0  0  0  0  0  0  0  0  0  0  0  0
   -0.7540    3.2070   -4.4916 H   0  0  0  0  0  0  0  0  0  0  0  0
   -2.5045    3.0738   -4.2767 H   0  0  0  0  0  0  0  0  0  0  0  0
   -1.8251    5.0307   -4.7998 N   0  3  0  0  0  0  0  0  0  0  0  0
   -1.0063    5.6245   -4.6528 H   0  0  0  0  0  0  0  0  0  0  0  0
   -1.9465    4.8793   -5.8041 H   0  0  0  0  0  0  0  0  0  0  0  0
   -2.6514    5.5084   -4.4353 H   0  0  0  0  0  0  0  0  0  0  0  0
   -0.4008    1.5392    1.7602 C   0  0  0  0  0  0  0  0  0  0  0  0
    0.1409    0.5831    2.2876 O   0  0  0  0  0  0  0  0  0  0  0  0
   -0.5221    2.7045    2.5000 N   0  0  0  0  0  0  0  0  0  0  0  0
   -0.9927    3.4948    2.0735 H   0  0  0  0  0  0  0  0  0  0  0  0
   -0.0241    2.8362    3.8670 C   0  0  0  0  0  0  0  0  0  0  0  0
    1.0585    2.6723    3.8984 H   0  0  0  0  0  0  0  0  0  0  0  0
   -0.2323    3.8385    4.2539 H   0  0  0  0  0  0  0  0  0  0  0  0
   -0.5074    2.1054    4.5245 H   0  0  0  0  0  0  0  0  0  0  0  0
  1  2  1  0  0  0  0
  2  3  1  0  0  0  0
  2  4  1  0  0  0  0
  2  5  1  0  0  0  0
  5  6  2  0  0  0  0
  5  7  1  0  0  0  0
  7  8  1  0  0  0  0
  7  9  1  0  0  0  0
  9 10  1  0  0  0  0
  9 11  1  0  0  0  0
  9 27  1  0  0  0  0
 11 12  1  0  0  0  0
 11 13  1  0  0  0  0
 11 14  1  0  0  0  0
 14 15  1  0  0  0  0
 14 16  1  0  0  0  0
 14 17  1  0  0  0  0
 17 18  1  0  0  0  0
 17 19  1  0  0  0  0
 17 20  1  0  0  0  0
 20 21  1  0  0  0  0
 20 22  1  0  0  0  0
 20 23  1  0  0  0  0
 23 24  1  0  0  0  0
 23 25  1  0  0  0  0
 23 26  1  0  0  0  0
 27 28  2  0  0  0  0
 27 29  1  0  0  0  0
 29 30  1  0  0  0  0
 29 31  1  0  0  0  0
 31 32  1  0  0  0  0
 31 33  1  0  0  0  0
 31 34  1  0  0  0  0
M  CHG  1  23   1
M  END
$$$$

  -OEChem-01062216093D

 34 33  0     1  0  0  0  0  0999 V2000
   -3.4211   -2.3650    1.3545 H   0  0  0  0  0  0  0  0  0  0  0  0
   -3.5856   -1.3369    1.0188 C   0  0  0  0  0  0  0  0  0  0  0  0
   -4.0604   -0.7793    1.8293 H   0  0  0  0  0  0  0  0  0  0  0  0
   -4.2510   -1.3518    0.1524 H   0  0  0  0  0  0  0  0  0  0  0  0
   -2.2617   -0.6957    0.6485 C   0  0  0  0  0  0  0  0  0  0  0  0
   -1.2505   -1.3699    0.6108 O   0  0  0  0  0  0  0  0  0  0  0  0
   -2.2183    0.6320    0.2625 N   0  0  0  0  0  0  0  0  0  0  0  0
   -3.0958    1.1263    0.3854 H   0  0  0  0  0  0  0  0  0  0  0  0
   -0.9767    1.4276    0.3482 C   0  0  1  0  0  0  0  0  0  0  0  0
   -0.2015    0.8862   -0.2085 H   0  0  0  0  0  0  0  0  0  0  0  0
   -1.1602    2.7888   -0.3480 C   0  0  0  0  0  0  0  0  0  0  0  0
   -2.0366    3.3017    0.0610 H   0  0  0  0  0  0  0  0  0  0  0  0
   -0.2818    3.4134   -0.1495 H   0  0  0  0  0  0  0  0  0  0  0  0
   -1.3119    2.6064   -1.8680 C   0  0  0  0  0  0  0  0  0  0  0  0
   -0.4293    2.0867   -2.2589 H   0  0  0  0  0  0  0  0  0  0  0  0
   -2.1857    1.9788   -2.0761 H   0  0  0  0  0  0  0  0  0  0  0  0
   -1.4694    3.9554   -2.5785 C   0  0  0  0  0  0  0  0  0  0  0  0
   -2.3434    4.4793   -2.1757 H   0  0  0  0  0  0  0  0  0  0  0  0
   -0.5843    4.5733   -2.3896 H   0  0  0  0  0  0  0  0  0  0  0  0
   -1.6407    3.7296   -4.0803 C   0  0  0  0  0  0  0  0  0  0  0  0
   -0.7580    3.1990   -4.4677 H   0  0  0  0  0  0  0  0  0  0  0  0
   -2.5094    3.0769   -4.2516 H   0  0  0  0  0  0  0  0  0  0  0  0
   -1.8154    5.0341   -4.7557 N   0  3  0  0  0  0  0  0  0  0  0  0
   -1.0027    5.6291   -4.5812 H   0  0  0  0  0  0  0  0  0  0  0  0
   -1.9130    4.8967   -5.7645 H   0  0  0  0  0  0  0  0  0  0  0  0
   -2.6516    5.5033   -4.4032 H   0  0  0  0  0  0  0  0  0  0  0  0
   -0.4019    1.5532    1.7825 C   0  0  0  0  0  0  0  0  0  0  0  0
    0.5231    0.8446    2.1426 O   0  0  0  0  0  0  0  0  0  0  0  0
   -0.7863    2.5954    2.6105 N   0  0  0  0  0  0  0  0  0  0  0  0
   -1.5700    3.1690    2.3197 H   0  0  0  0  0  0  0  0  0  0  0  0
   -0.2319    2.7892    3.9478 C   0  0  0  0  0  0  0  0  0  0  0  0
    0.8444    2.9847    3.8921 H   0  0  0  0  0  0  0  0  0  0  0  0
   -0.7117    3.6407    4.4399 H   0  0  0  0  0  0  0  0  0  0  0  0
   -0.3943    1.8980    4.5641 H   0  0  0  0  0  0  0  0  0  0  0  0
  1  2  1  0  0  0  0
  2  3  1  0  0  0  0
  2  4  1  0  0  0  0
  2  5  1  0  0  0  0
  5  6  2  0  0  0  0
  5  7  1  0  0  0  0
  7  8  1  0  0  0  0
  7  9  1  0  0  0  0
  9 10  1  0  0  0  0
  9 11  1  0  0  0  0
  9 27  1  0  0  0  0
 11 12  1  0  0  0  0
 11 13  1  0  0  0  0
 11 14  1  0  0  0  0
 14 15  1  0  0  0  0
 14 16  1  0  0  0  0
 14 17  1  0  0  0  0
 17 18  1  0  0  0  0
 17 19  1  0  0  0  0
 17 20  1  0  0  0  0
 20 21  1  0  0  0  0
 20 22  1  0  0  0  0
 20 23  1  0  0  0  0
 23 24  1  0  0  0  0
 23 25  1  0  0  0  0
 23 26  1  0  0  0  0
 27 28  2  0  0  0  0
 27 29  1  0  0  0  0
 29 30  1  0  0  0  0
 29 31  1  0  0  0  0
 31 32  1  0  0  0  0
 31 33  1  0  0  0  0
 31 34  1  0  0  0  0
M  CHG  1  23   1
M  END
$$$$

  -OEChem-01062216093D

 34 33  0     1  0  0  0  0  0999 V2000
   -3.5133   -2.3965    1.2897 H   0  0  0  0  0  0  0  0  0  0  0  0
   -3.6465   -1.3853    0.8940 C   0  0  0  0  0  0  0  0  0  0  0  0
   -4.2587   -0.8143    1.5960 H   0  0  0  0  0  0  0  0  0  0  0  0
   -4.1642   -1.4500   -0.0658 H   0  0  0  0  0  0  0  0  0  0  0  0
   -2.2966   -0.7179    0.7129 C   0  0  0  0  0  0  0  0  0  0  0  0
   -1.2758   -1.3525    0.8950 O   0  0  0  0  0  0  0  0  0  0  0  0
   -2.2250    0.6004    0.3015 N   0  0  0  0  0  0  0  0  0  0  0  0
   -3.1105    1.0939    0.2610 H   0  0  0  0  0  0  0  0  0  0  0  0
   -0.9802    1.3921    0.3692 C   0  0  1  0  0  0  0  0  0  0  0  0
   -0.2129    0.8376   -0.1854 H   0  0  0  0  0  0  0  0  0  0  0  0
   -1.1532    2.7520   -0.3290 C   0  0  0  0  0  0  0  0  0  0  0  0
   -2.0190    3.2755    0.0892 H   0  0  0  0  0  0  0  0  0  0  0  0
   -0.2663    3.3662   -0.1343 H   0  0  0  0  0  0  0  0  0  0  0  0
   -1.3185    2.5792   -1.8477 C   0  0  0  0  0  0  0  0  0  0  0  0
   -0.4448    2.0523   -2.2490 H   0  0  0  0  0  0  0  0  0  0  0  0
   -2.2014    1.9642   -2.0538 H   0  0  0  0  0  0  0  0  0  0  0  0
   -1.4643    3.9386   -2.5419 C   0  0  0  0  0  0  0  0  0  0  0  0
   -2.3284    4.4681   -2.1253 H   0  0  0  0  0  0  0  0  0  0  0  0
   -0.5703    4.5430   -2.3508 H   0  0  0  0  0  0  0  0  0  0  0  0
   -1.6503    3.7374   -4.0457 C   0  0  0  0  0  0  0  0  0  0  0  0
   -0.7772    3.2016   -4.4473 H   0  0  0  0  0  0  0  0  0  0  0  0
   -2.5286    3.0986   -4.2198 H   0  0  0  0  0  0  0  0  0  0  0  0
   -1.8130    5.0536   -4.7014 N   0  3  0  0  0  0  0  0  0  0  0  0
   -0.9882    5.6328   -4.5299 H   0  0  0  0  0  0  0  0  0  0  0  0
   -1.9265    4.9320   -5.7106 H   0  0  0  0  0  0  0  0  0  0  0  0
   -2.6362    5.5319   -4.3308 H   0  0  0  0  0  0  0  0  0  0  0  0
   -0.3973    1.5517    1.7938 C   0  0  0  0  0  0  0  0  0  0  0  0
    0.7347    1.1589    2.0288 O   0  0  0  0  0  0  0  0  0  0  0  0
   -0.9908    2.4153    2.6995 N   0  0  0  0  0  0  0  0  0  0  0  0
   -1.9445    2.7049    2.5136 H   0  0  0  0  0  0  0  0  0  0  0  0
   -0.4239    2.6822    4.0185 C   0  0  0  0  0  0  0  0  0  0  0  0
    0.5759    3.1202    3.9256 H   0  0  0  0  0  0  0  0  0  0  0  0
   -1.0562    3.3845    4.5702 H   0  0  0  0  0  0  0  0  0  0  0  0
   -0.3475    1.7557    4.5979 H   0  0  0  0  0  0  0  0  0  0  0  0
  1  2  1  0  0  0  0
  2  3  1  0  0  0  0
  2  4  1  0  0  0  0
  2  5  1  0  0  0  0
  5  6  2  0  0  0  0
  5  7  1  0  0  0  0
  7  8  1  0  0  0  0
  7  9  1  0  0  0  0
  9 10  1  0  0  0  0
  9 11  1  0  0  0  0
  9 27  1  0  0  0  0
 11 12  1  0  0  0  0
 11 13  1  0  0  0  0
 11 14  1  0  0  0  0
 14 15  1  0  0  0  0
 14 16  1  0  0  0  0
 14 17  1  0  0  0  0
 17 18  1  0  0  0  0
 17 19  1  0  0  0  0
 17 20  1  0  0  0  0
 20 21  1  0  0  0  0
 20 22  1  0  0  0  0
 20 23  1  0  0  0  0
 23 24  1  0  0  0  0
 23 25  1  0  0  0  0
 23 26  1  0  0  0  0
 27 28  2  0  0  0  0
 27 29  1  0  0  0  0
 29 30  1  0  0  0  0
 29 31  1  0  0  0  0
 31 32  1  0  0  0  0
 31 33  1  0  0  0  0
 31 34  1  0  0  0  0
M  CHG  1  23   1
M  END
$$$$

  -OEChem-01062216093D

 34 33  0     1  0  0  0  0  0999 V2000
   -3.5506   -2.4204    1.2557 H   0  0  0  0  0  0  0  0  0  0  0  0
   -3.6684   -1.4160    0.8381 C   0  0  0  0  0  0  0  0  0  0  0  0
   -4.3434   -0.8472    1.4818 H   0  0  0  0  0  0  0  0  0  0  0  0
   -4.1072   -1.5004   -0.1588 H   0  0  0  0  0  0  0  0  0  0  0  0
   -2.3192   -0.7276    0.7555 C   0  0  0  0  0  0  0  0  0  0  0  0
   -1.3079   -1.3332    1.0540 O   0  0  0  0  0  0  0  0  0  0  0  0
   -2.2313    0.5829    0.3230 N   0  0  0  0  0  0  0  0  0  0  0  0
   -3.1092    1.0652    0.1624 H   0  0  0  0  0  0  0  0  0  0  0  0
   -0.9817    1.3678    0.3756 C   0  0  1  0  0  0  0  0  0  0  0  0
   -0.2198    0.8027   -0.1751 H   0  0  0  0  0  0  0  0  0  0  0  0
   -1.1457    2.7283   -0.3242 C   0  0  0  0  0  0  0  0  0  0  0  0
   -2.0009    3.2614    0.1040 H   0  0  0  0  0  0  0  0  0  0  0  0
   -0.2506    3.3323   -0.1356 H   0  0  0  0  0  0  0  0  0  0  0  0
   -1.3248    2.5644   -1.8422 C   0  0  0  0  0  0  0  0  0  0  0  0
   -0.4597    2.0307   -2.2527 H   0  0  0  0  0  0  0  0  0  0  0  0
   -2.2161    1.9608   -2.0448 H   0  0  0  0  0  0  0  0  0  0  0  0
   -1.4603    3.9308   -2.5266 C   0  0  0  0  0  0  0  0  0  0  0  0
   -2.3137    4.4684   -2.0988 H   0  0  0  0  0  0  0  0  0  0  0  0
   -0.5572    4.5226   -2.3385 H   0  0  0  0  0  0  0  0  0  0  0  0
   -1.6608    3.7476   -4.0307 C   0  0  0  0  0  0  0  0  0  0  0  0
   -0.7977    3.2059   -4.4456 H   0  0  0  0  0  0  0  0  0  0  0  0
   -2.5486    3.1221   -4.2048 H   0  0  0  0  0  0  0  0  0  0  0  0
   -1.8124    5.0738   -4.6690 N   0  3  0  0  0  0  0  0  0  0  0  0
   -0.9769    5.6386   -4.5011 H   0  0  0  0  0  0  0  0  0  0  0  0
   -1.9401    4.9661   -5.6781 H   0  0  0  0  0  0  0  0  0  0  0  0
   -2.6236    5.5598   -4.2823 H   0  0  0  0  0  0  0  0  0  0  0  0
   -0.3939    1.5494    1.7939 C   0  0  0  0  0  0  0  0  0  0  0  0
    0.8135    1.4456    1.9507 O   0  0  0  0  0  0  0  0  0  0  0  0
   -1.1351    2.1785    2.7795 N   0  0  0  0  0  0  0  0  0  0  0  0
   -2.1414    2.1943    2.6560 H   0  0  0  0  0  0  0  0  0  0  0  0
   -0.5930    2.4641    4.1047 C   0  0  0  0  0  0  0  0  0  0  0  0
    0.2902    3.1076    4.0287 H   0  0  0  0  0  0  0  0  0  0  0  0
   -1.3389    2.9781    4.7185 H   0  0  0  0  0  0  0  0  0  0  0  0
   -0.3074    1.5354    4.6105 H   0  0  0  0  0  0  0  0  0  0  0  0
  1  2  1  0  0  0  0
  2  3  1  0  0  0  0
  2  4  1  0  0  0  0
  2  5  1  0  0  0  0
  5  6  2  0  0  0  0
  5  7  1  0  0  0  0
  7  8  1  0  0  0  0
  7  9  1  0  0  0  0
  9 10  1  0  0  0  0
  9 11  1  0  0  0  0
  9 27  1  0  0  0  0
 11 12  1  0  0  0  0
 11 13  1  0  0  0  0
 11 14  1  0  0  0  0
 14 15  1  0  0  0  0
 14 16  1  0  0  0  0
 14 17  1  0  0  0  0
 17 18  1  0  0  0  0
 17 19  1  0  0  0  0
 17 20  1  0  0  0  0
 20 21  1  0  0  0  0
 20 22  1  0  0  0  0
 20 23  1  0  0  0  0
 23 24  1  0  0  0  0
 23 25  1  0  0  0  0
 23 26  1  0  0  0  0
 27 28  2  0  0  0  0
 27 29  1  0  0  0  0
 29 30  1  0  0  0  0
 29 31  1  0  0  0  0
 31 32  1  0  0  0  0
 31 33  1  0  0  0  0
 31 34  1  0  0  0  0
M  CHG  1  23   1
M  END
$$$$

  -OEChem-01062216093D

 34 33  0     1  0  0  0  0  0999 V2000
   -3.5704   -2.4235    1.2505 H   0  0  0  0  0  0  0  0  0  0  0  0
   -3.6765   -1.4276    0.8102 C   0  0  0  0  0  0  0  0  0  0  0  0
   -4.3864   -0.8541    1.4109 H   0  0  0  0  0  0  0  0  0  0  0  0
   -4.0667   -1.5334   -0.2048 H   0  0  0  0  0  0  0  0  0  0  0  0
   -2.3309   -0.7282    0.7795 C   0  0  0  0  0  0  0  0  0  0  0  0
   -1.3313   -1.3123    1.1523 O   0  0  0  0  0  0  0  0  0  0  0  0
   -2.2326    0.5749    0.3279 N   0  0  0  0  0  0  0  0  0  0  0  0
   -3.1009    1.0452    0.0944 H   0  0  0  0  0  0  0  0  0  0  0  0
   -0.9798    1.3562    0.3755 C   0  0  1  0  0  0  0  0  0  0  0  0
   -0.2165    0.7862   -0.1675 H   0  0  0  0  0  0  0  0  0  0  0  0
   -1.1437    2.7140   -0.3292 C   0  0  0  0  0  0  0  0  0  0  0  0
   -1.9967    3.2485    0.1021 H   0  0  0  0  0  0  0  0  0  0  0  0
   -0.2478    3.3188   -0.1456 H   0  0  0  0  0  0  0  0  0  0  0  0
   -1.3274    2.5511   -1.8458 C   0  0  0  0  0  0  0  0  0  0  0  0
   -0.4643    2.0169   -2.2596 H   0  0  0  0  0  0  0  0  0  0  0  0
   -2.2208    1.9501   -2.0473 H   0  0  0  0  0  0  0  0  0  0  0  0
   -1.4609    3.9221   -2.5205 C   0  0  0  0  0  0  0  0  0  0  0  0
   -2.3112    4.4590   -2.0857 H   0  0  0  0  0  0  0  0  0  0  0  0
   -0.5556    4.5100   -2.3307 H   0  0  0  0  0  0  0  0  0  0  0  0
   -1.6667    3.7535   -4.0245 C   0  0  0  0  0  0  0  0  0  0  0  0
   -0.8069    3.2131   -4.4480 H   0  0  0  0  0  0  0  0  0  0  0  0
   -2.5575    3.1335   -4.2019 H   0  0  0  0  0  0  0  0  0  0  0  0
   -1.8153    5.0881   -4.6462 N   0  3  0  0  0  0  0  0  0  0  0  0
   -0.9677    5.6396   -4.4942 H   0  0  0  0  0  0  0  0  0  0  0  0
   -1.9702    4.9924   -5.6525 H   0  0  0  0  0  0  0  0  0  0  0  0
   -2.6090    5.5820   -4.2339 H   0  0  0  0  0  0  0  0  0  0  0  0
   -0.3944    1.5608    1.7908 C   0  0  0  0  0  0  0  0  0  0  0  0
    0.8136    1.7078    1.9088 O   0  0  0  0  0  0  0  0  0  0  0  0
   -1.2169    1.9203    2.8438 N   0  0  0  0  0  0  0  0  0  0  0  0
   -2.2009    1.6976    2.7412 H   0  0  0  0  0  0  0  0  0  0  0  0
   -0.7004    2.1626    4.1875 C   0  0  0  0  0  0  0  0  0  0  0  0
    0.0506    2.9600    4.1751 H   0  0  0  0  0  0  0  0  0  0  0  0
   -1.5106    2.4666    4.8573 H   0  0  0  0  0  0  0  0  0  0  0  0
   -0.2394    1.2537    4.5894 H   0  0  0  0  0  0  0  0  0  0  0  0
  1  2  1  0  0  0  0
  2  3  1  0  0  0  0
  2  4  1  0  0  0  0
  2  5  1  0  0  0  0
  5  6  2  0  0  0  0
  5  7  1  0  0  0  0
  7  8  1  0  0  0  0
  7  9  1  0  0  0  0
  9 10  1  0  0  0  0
  9 11  1  0  0  0  0
  9 27  1  0  0  0  0
 11 12  1  0  0  0  0
 11 13  1  0  0  0  0
 11 14  1  0  0  0  0
 14 15  1  0  0  0  0
 14 16  1  0  0  0  0
 14 17  1  0  0  0  0
 17 18  1  0  0  0  0
 17 19  1  0  0  0  0
 17 20  1  0  0  0  0
 20 21  1  0  0  0  0
 20 22  1  0  0  0  0
 20 23  1  0  0  0  0
 23 24  1  0  0  0  0
 23 25  1  0  0  0  0
 23 26  1  0  0  0  0
 27 28  2  0  0  0  0
 27 29  1  0  0  0  0
 29 30  1  0  0  0  0
 29 31  1  0  0  0  0
 31 32  1  0  0  0  0
 31 33  1  0  0  0  0
 31 34  1  0  0  0  0
M  CHG  1  23   1
M  END
$$$$

  -OEChem-01062216093D

 34 33  0     1  0  0  0  0  0999 V2000
   -3.6015   -2.4161    1.2239 H   0  0  0  0  0  0  0  0  0  0  0  0
   -3.6932   -1.4183    0.7845 C   0  0  0  0  0  0  0  0  0  0  0  0
   -4.4050   -0.8396    1.3777 H   0  0  0  0  0  0  0  0  0  0  0  0
   -4.0726   -1.5187   -0.2350 H   0  0  0  0  0  0  0  0  0  0  0  0
   -2.3415   -0.7303    0.7714 C   0  0  0  0  0  0  0  0  0  0  0  0
   -1.3543   -1.3118    1.1800 O   0  0  0  0  0  0  0  0  0  0  0  0
   -2.2263    0.5698    0.3166 N   0  0  0  0  0  0  0  0  0  0  0  0
   -3.0874    1.0463    0.0684 H   0  0  0  0  0  0  0  0  0  0  0  0
   -0.9706    1.3462    0.3772 C   0  0  1  0  0  0  0  0  0  0  0  0
   -0.2009    0.7783   -0.1585 H   0  0  0  0  0  0  0  0  0  0  0  0
   -1.1439    2.7029   -0.3297 C   0  0  0  0  0  0  0  0  0  0  0  0
   -2.0016    3.2306    0.1010 H   0  0  0  0  0  0  0  0  0  0  0  0
   -0.2544    3.3169   -0.1464 H   0  0  0  0  0  0  0  0  0  0  0  0
   -1.3229    2.5412   -1.8469 C   0  0  0  0  0  0  0  0  0  0  0  0
   -0.4544    2.0154   -2.2605 H   0  0  0  0  0  0  0  0  0  0  0  0
   -2.2112    1.9343   -2.0530 H   0  0  0  0  0  0  0  0  0  0  0  0
   -1.4653    3.9142   -2.5155 C   0  0  0  0  0  0  0  0  0  0  0  0
   -2.3204    4.4427   -2.0792 H   0  0  0  0  0  0  0  0  0  0  0  0
   -0.5649    4.5078   -2.3204 H   0  0  0  0  0  0  0  0  0  0  0  0
   -1.6668    3.7532   -4.0207 C   0  0  0  0  0  0  0  0  0  0  0  0
   -0.8026    3.2218   -4.4463 H   0  0  0  0  0  0  0  0  0  0  0  0
   -2.5530    3.1280   -4.2034 H   0  0  0  0  0  0  0  0  0  0  0  0
   -1.8238    5.0912   -4.6319 N   0  3  0  0  0  0  0  0  0  0  0  0
   -0.9797    5.6466   -4.4760 H   0  0  0  0  0  0  0  0  0  0  0  0
   -1.9789    5.0024   -5.6387 H   0  0  0  0  0  0  0  0  0  0  0  0
   -2.6203    5.5770   -4.2151 H   0  0  0  0  0  0  0  0  0  0  0  0
   -0.3957    1.5602    1.7971 C   0  0  0  0  0  0  0  0  0  0  0  0
    0.7650    1.9295    1.9085 O   0  0  0  0  0  0  0  0  0  0  0  0
   -1.2310    1.6271    2.8978 N   0  0  0  0  0  0  0  0  0  0  0  0
   -2.1377    1.1852    2.7914 H   0  0  0  0  0  0  0  0  0  0  0  0
   -0.7215    1.8328    4.2498 C   0  0  0  0  0  0  0  0  0  0  0  0
   -0.1664    2.7749    4.3143 H   0  0  0  0  0  0  0  0  0  0  0  0
   -1.5484    1.8736    4.9652 H   0  0  0  0  0  0  0  0  0  0  0  0
   -0.0545    1.0125    4.5361 H   0  0  0  0  0  0  0  0  0  0  0  0
  1  2  1  0  0  0  0
  2  3  1  0  0  0  0
  2  4  1  0  0  0  0
  2  5  1  0  0  0  0
  5  6  2  0  0  0  0
  5  7  1  0  0  0  0
  7  8  1  0  0  0  0
  7  9  1  0  0  0  0
  9 10  1  0  0  0  0
  9 11  1  0  0  0  0
  9 27  1  0  0  0  0
 11 12  1  0  0  0  0
 11 13  1  0  0  0  0
 11 14  1  0  0  0  0
 14 15  1  0  0  0  0
 14 16  1  0  0  0  0
 14 17  1  0  0  0  0
 17 18  1  0  0  0  0
 17 19  1  0  0  0  0
 17 20  1  0  0  0  0
 20 21  1  0  0  0  0
 20 22  1  0  0  0  0
 20 23  1  0  0  0  0
 23 24  1  0  0  0  0
 23 25  1  0  0  0  0
 23 26  1  0  0  0  0
 27 28  2  0  0  0  0
 27 29  1  0  0  0  0
 29 30  1  0  0  0  0
 29 31  1  0  0  0  0
 31 32  1  0  0  0  0
 31 33  1  0  0  0  0
 31 34  1  0  0  0  0
M  CHG  1  23   1
M  END
$$$$

  -OEChem-01062216093D

 34 33  0     1  0  0  0  0  0999 V2000
   -3.6391   -2.4204    1.1662 H   0  0  0  0  0  0  0  0  0  0  0  0
   -3.7219   -1.4156    0.7413 C   0  0  0  0  0  0  0  0  0  0  0  0
   -4.4383   -0.8431    1.3354 H   0  0  0  0  0  0  0  0  0  0  0  0
   -4.0900   -1.4985   -0.2839 H   0  0  0  0  0  0  0  0  0  0  0  0
   -2.3673   -0.7337    0.7538 C   0  0  0  0  0  0  0  0  0  0  0  0
   -1.3939   -1.3149    1.1948 O   0  0  0  0  0  0  0  0  0  0  0  0
   -2.2353    0.5685    0.3110 N   0  0  0  0  0  0  0  0  0  0  0  0
   -3.0913    1.0533    0.0606 H   0  0  0  0  0  0  0  0  0  0  0  0
   -0.9770    1.3423    0.3888 C   0  0  1  0  0  0  0  0  0  0  0  0
   -0.2043    0.7759   -0.1437 H   0  0  0  0  0  0  0  0  0  0  0  0
   -1.1569    2.6977   -0.3247 C   0  0  0  0  0  0  0  0  0  0  0  0
   -2.0212    3.2187    0.1007 H   0  0  0  0  0  0  0  0  0  0  0  0
   -0.2755    3.3227   -0.1411 H   0  0  0  0  0  0  0  0  0  0  0  0
   -1.3237    2.5345   -1.8436 C   0  0  0  0  0  0  0  0  0  0  0  0
   -0.4478    2.0161   -2.2507 H   0  0  0  0  0  0  0  0  0  0  0  0
   -2.2054    1.9209   -2.0566 H   0  0  0  0  0  0  0  0  0  0  0  0
   -1.4721    3.9077   -2.5119 C   0  0  0  0  0  0  0  0  0  0  0  0
   -2.3337    4.4291   -2.0803 H   0  0  0  0  0  0  0  0  0  0  0  0
   -0.5773    4.5074   -2.3095 H   0  0  0  0  0  0  0  0  0  0  0  0
   -1.6619    3.7508   -4.0194 C   0  0  0  0  0  0  0  0  0  0  0  0
   -0.7906    3.2277   -4.4408 H   0  0  0  0  0  0  0  0  0  0  0  0
   -2.5422    3.1200   -4.2116 H   0  0  0  0  0  0  0  0  0  0  0  0
   -1.8245    5.0905   -4.6260 N   0  3  0  0  0  0  0  0  0  0  0  0
   -0.9914    5.6561   -4.4486 H   0  0  0  0  0  0  0  0  0  0  0  0
   -1.9571    5.0063   -5.6364 H   0  0  0  0  0  0  0  0  0  0  0  0
   -2.6360    5.5628   -4.2230 H   0  0  0  0  0  0  0  0  0  0  0  0
   -0.4010    1.5559    1.8128 C   0  0  0  0  0  0  0  0  0  0  0  0
    0.6707    2.1352    1.9301 O   0  0  0  0  0  0  0  0  0  0  0  0
   -1.1635    1.3253    2.9436 N   0  0  0  0  0  0  0  0  0  0  0  0
   -1.9208    0.6600    2.8227 H   0  0  0  0  0  0  0  0  0  0  0  0
   -0.6320    1.5097    4.2902 C   0  0  0  0  0  0  0  0  0  0  0  0
   -0.3027    2.5439    4.4365 H   0  0  0  0  0  0  0  0  0  0  0  0
   -1.4020    1.2873    5.0353 H   0  0  0  0  0  0  0  0  0  0  0  0
    0.2199    0.8429    4.4612 H   0  0  0  0  0  0  0  0  0  0  0  0
  1  2  1  0  0  0  0
  2  3  1  0  0  0  0
  2  4  1  0  0  0  0
  2  5  1  0  0  0  0
  5  6  2  0  0  0  0
  5  7  1  0  0  0  0
  7  8  1  0  0  0  0
  7  9  1  0  0  0  0
  9 10  1  0  0  0  0
  9 11  1  0  0  0  0
  9 27  1  0  0  0  0
 11 12  1  0  0  0  0
 11 13  1  0  0  0  0
 11 14  1  0  0  0  0
 14 15  1  0  0  0  0
 14 16  1  0  0  0  0
 14 17  1  0  0  0  0
 17 18  1  0  0  0  0
 17 19  1  0  0  0  0
 17 20  1  0  0  0  0
 20 21  1  0  0  0  0
 20 22  1  0  0  0  0
 20 23  1  0  0  0  0
 23 24  1  0  0  0  0
 23 25  1  0  0  0  0
 23 26  1  0  0  0  0
 27 28  2  0  0  0  0
 27 29  1  0  0  0  0
 29 30  1  0  0  0  0
 29 31  1  0  0  0  0
 31 32  1  0  0  0  0
 31 33  1  0  0  0  0
 31 34  1  0  0  0  0
M  CHG  1  23   1
M  END
$$$$

  -OEChem-01062216093D

 34 33  0     1  0  0  0  0  0999 V2000
   -3.6883   -2.4126    1.1062 H   0  0  0  0  0  0  0  0  0  0  0  0
   -3.7531   -1.3981    0.7017 C   0  0  0  0  0  0  0  0  0  0  0  0
   -4.4631   -0.8261    1.3041 H   0  0  0  0  0  0  0  0  0  0  0  0
   -4.1185   -1.4550   -0.3263 H   0  0  0  0  0  0  0  0  0  0  0  0
   -2.3885   -0.7367    0.7341 C   0  0  0  0  0  0  0  0  0  0  0  0
   -1.4298   -1.3329    1.1890 O   0  0  0  0  0  0  0  0  0  0  0  0
   -2.2334    0.5678    0.3071 N   0  0  0  0  0  0  0  0  0  0  0  0
   -3.0864    1.0696    0.0804 H   0  0  0  0  0  0  0  0  0  0  0  0
   -0.9721    1.3373    0.4001 C   0  0  1  0  0  0  0  0  0  0  0  0
   -0.1973    0.7736   -0.1314 H   0  0  0  0  0  0  0  0  0  0  0  0
   -1.1616    2.6904   -0.3203 C   0  0  0  0  0  0  0  0  0  0  0  0
   -2.0317    3.2050    0.1012 H   0  0  0  0  0  0  0  0  0  0  0  0
   -0.2880    3.3266   -0.1406 H   0  0  0  0  0  0  0  0  0  0  0  0
   -1.3204    2.5250   -1.8400 C   0  0  0  0  0  0  0  0  0  0  0  0
   -0.4388    2.0144   -2.2445 H   0  0  0  0  0  0  0  0  0  0  0  0
   -2.1966    1.9051   -2.0574 H   0  0  0  0  0  0  0  0  0  0  0  0
   -1.4782    3.8982   -2.5064 C   0  0  0  0  0  0  0  0  0  0  0  0
   -2.3468    4.4100   -2.0773 H   0  0  0  0  0  0  0  0  0  0  0  0
   -0.5901    4.5058   -2.2978 H   0  0  0  0  0  0  0  0  0  0  0  0
   -1.6605    3.7456   -4.0152 C   0  0  0  0  0  0  0  0  0  0  0  0
   -0.7830    3.2322   -4.4357 H   0  0  0  0  0  0  0  0  0  0  0  0
   -2.5344    3.1079   -4.2131 H   0  0  0  0  0  0  0  0  0  0  0  0
   -1.8323    5.0865   -4.6166 N   0  3  0  0  0  0  0  0  0  0  0  0
   -1.0074    5.6606   -4.4284 H   0  0  0  0  0  0  0  0  0  0  0  0
   -1.9545    5.0059   -5.6287 H   0  0  0  0  0  0  0  0  0  0  0  0
   -2.6529    5.5473   -4.2188 H   0  0  0  0  0  0  0  0  0  0  0  0
   -0.3963    1.5439    1.8301 C   0  0  0  0  0  0  0  0  0  0  0  0
    0.5475    2.3087    1.9835 O   0  0  0  0  0  0  0  0  0  0  0  0
   -1.0247    1.0356    2.9522 N   0  0  0  0  0  0  0  0  0  0  0  0
   -1.5782    0.1996    2.7756 H   0  0  0  0  0  0  0  0  0  0  0  0
   -0.4744    1.2037    4.2936 C   0  0  0  0  0  0  0  0  0  0  0  0
   -0.3857    2.2664    4.5437 H   0  0  0  0  0  0  0  0  0  0  0  0
   -1.1285    0.7317    5.0330 H   0  0  0  0  0  0  0  0  0  0  0  0
    0.5167    0.7426    4.3626 H   0  0  0  0  0  0  0  0  0  0  0  0
  1  2  1  0  0  0  0
  2  3  1  0  0  0  0
  2  4  1  0  0  0  0
  2  5  1  0  0  0  0
  5  6  2  0  0  0  0
  5  7  1  0  0  0  0
  7  8  1  0  0  0  0
  7  9  1  0  0  0  0
  9 10  1  0  0  0  0
  9 11  1  0  0  0  0
  9 27  1  0  0  0  0
 11 12  1  0  0  0  0
 11 13  1  0  0  0  0
 11 14  1  0  0  0  0
 14 15  1  0  0  0  0
 14 16  1  0  0  0  0
 14 17  1  0  0  0  0
 17 18  1  0  0  0  0
 17 19  1  0  0  0  0
 17 20  1  0  0  0  0
 20 21  1  0  0  0  0
 20 22  1  0  0  0  0
 20 23  1  0  0  0  0
 23 24  1  0  0  0  0
 23 25  1  0  0  0  0
 23 26  1  0  0  0  0
 27 28  2  0  0  0  0
 27 29  1  0  0  0  0
 29 30  1  0  0  0  0
 29 31  1  0  0  0  0
 31 32  1  0  0  0  0
 31 33  1  0  0  0  0
 31 34  1  0  0  0  0
M  CHG  1  23   1
M  END
$$$$

  -OEChem-01062216093D

 34 33  0     1  0  0  0  0  0999 V2000
   -3.7032   -2.3932    1.1212 H   0  0  0  0  0  0  0  0  0  0  0  0
   -3.7628   -1.3758    0.7232 C   0  0  0  0  0  0  0  0  0  0  0  0
   -4.4352   -0.7918    1.3565 H   0  0  0  0  0  0  0  0  0  0  0  0
   -4.1704   -1.4193   -0.2895 H   0  0  0  0  0  0  0  0  0  0  0  0
   -2.3848   -0.7431    0.7018 C   0  0  0  0  0  0  0  0  0  0  0  0
   -1.4143   -1.3758    1.0782 O   0  0  0  0  0  0  0  0  0  0  0  0
   -2.2264    0.5671    0.2941 N   0  0  0  0  0  0  0  0  0  0  0  0
   -3.0868    1.0870    0.1514 H   0  0  0  0  0  0  0  0  0  0  0  0
   -0.9672    1.3388    0.4010 C   0  0  1  0  0  0  0  0  0  0  0  0
   -0.1885    0.7815   -0.1313 H   0  0  0  0  0  0  0  0  0  0  0  0
   -1.1655    2.6909   -0.3213 C   0  0  0  0  0  0  0  0  0  0  0  0
   -2.0414    3.1989    0.0959 H   0  0  0  0  0  0  0  0  0  0  0  0
   -0.2977    3.3351   -0.1425 H   0  0  0  0  0  0  0  0  0  0  0  0
   -1.3145    2.5230   -1.8413 C   0  0  0  0  0  0  0  0  0  0  0  0
   -0.4262    2.0206   -2.2412 H   0  0  0  0  0  0  0  0  0  0  0  0
   -2.1843    1.8952   -2.0629 H   0  0  0  0  0  0  0  0  0  0  0  0
   -1.4812    3.8950   -2.5063 C   0  0  0  0  0  0  0  0  0  0  0  0
   -2.3560    4.3987   -2.0805 H   0  0  0  0  0  0  0  0  0  0  0  0
   -0.5993    4.5097   -2.2932 H   0  0  0  0  0  0  0  0  0  0  0  0
   -1.6542    3.7417   -4.0154 C   0  0  0  0  0  0  0  0  0  0  0  0
   -0.7701    3.2360   -4.4319 H   0  0  0  0  0  0  0  0  0  0  0  0
   -2.5218    3.0970   -4.2184 H   0  0  0  0  0  0  0  0  0  0  0  0
   -1.8347    5.0827   -4.6136 N   0  3  0  0  0  0  0  0  0  0  0  0
   -1.0137    5.6618   -4.4238 H   0  0  0  0  0  0  0  0  0  0  0  0
   -1.9568    5.0041   -5.6256 H   0  0  0  0  0  0  0  0  0  0  0  0
   -2.6581    5.5370   -4.2141 H   0  0  0  0  0  0  0  0  0  0  0  0
   -0.3949    1.5304    1.8379 C   0  0  0  0  0  0  0  0  0  0  0  0
    0.3786    2.4536    2.0591 O   0  0  0  0  0  0  0  0  0  0  0  0
   -0.8317    0.7740    2.9094 N   0  0  0  0  0  0  0  0  0  0  0  0
   -1.2200   -0.1342    2.6521 H   0  0  0  0  0  0  0  0  0  0  0  0
   -0.2709    0.9125    4.2494 C   0  0  0  0  0  0  0  0  0  0  0  0
   -0.4103    1.9332    4.6211 H   0  0  0  0  0  0  0  0  0  0  0  0
   -0.7688    0.2256    4.9407 H   0  0  0  0  0  0  0  0  0  0  0  0
    0.8002    0.6839    4.2433 H   0  0  0  0  0  0  0  0  0  0  0  0
  1  2  1  0  0  0  0
  2  3  1  0  0  0  0
  2  4  1  0  0  0  0
  2  5  1  0  0  0  0
  5  6  2  0  0  0  0
  5  7  1  0  0  0  0
  7  8  1  0  0  0  0
  7  9  1  0  0  0  0
  9 10  1  0  0  0  0
  9 11  1  0  0  0  0
  9 27  1  0  0  0  0
 11 12  1  0  0  0  0
 11 13  1  0  0  0  0
 11 14  1  0  0  0  0
 14 15  1  0  0  0  0
 14 16  1  0  0  0  0
 14 17  1  0  0  0  0
 17 18  1  0  0  0  0
 17 19  1  0  0  0  0
 17 20  1  0  0  0  0
 20 21  1  0  0  0  0
 20 22  1  0  0  0  0
 20 23  1  0  0  0  0
 23 24  1  0  0  0  0
 23 25  1  0  0  0  0
 23 26  1  0  0  0  0
 27 28  2  0  0  0  0
 27 29  1  0  0  0  0
 29 30  1  0  0  0  0
 29 31  1  0  0  0  0
 31 32  1  0  0  0  0
 31 33  1  0  0  0  0
 31 34  1  0  0  0  0
M  CHG  1  23   1
M  END
$$$$

  -OEChem-01062216093D

 34 33  0     1  0  0  0  0  0999 V2000
   -3.6838   -2.3832    1.1740 H   0  0  0  0  0  0  0  0  0  0  0  0
   -3.7530   -1.3652    0.7795 C   0  0  0  0  0  0  0  0  0  0  0  0
   -4.3801   -0.7726    1.4500 H   0  0  0  0  0  0  0  0  0  0  0  0
   -4.2189   -1.4027   -0.2080 H   0  0  0  0  0  0  0  0  0  0  0  0
   -2.3703   -0.7506    0.6792 C   0  0  0  0  0  0  0  0  0  0  0  0
   -1.3837   -1.4136    0.9497 O   0  0  0  0  0  0  0  0  0  0  0  0
   -2.2210    0.5646    0.2834 N   0  0  0  0  0  0  0  0  0  0  0  0
   -3.0860    1.0927    0.2178 H   0  0  0  0  0  0  0  0  0  0  0  0
   -0.9638    1.3390    0.3957 C   0  0  1  0  0  0  0  0  0  0  0  0
   -0.1835    0.7873   -0.1401 H   0  0  0  0  0  0  0  0  0  0  0  0
   -1.1645    2.6924   -0.3248 C   0  0  0  0  0  0  0  0  0  0  0  0
   -2.0408    3.1999    0.0923 H   0  0  0  0  0  0  0  0  0  0  0  0
   -0.2965    3.3358   -0.1438 H   0  0  0  0  0  0  0  0  0  0  0  0
   -1.3097    2.5266   -1.8457 C   0  0  0  0  0  0  0  0  0  0  0  0
   -0.4191    2.0275   -2.2443 H   0  0  0  0  0  0  0  0  0  0  0  0
   -2.1765    1.8957   -2.0702 H   0  0  0  0  0  0  0  0  0  0  0  0
   -1.4794    3.8986   -2.5102 C   0  0  0  0  0  0  0  0  0  0  0  0
   -2.3565    4.4000   -2.0861 H   0  0  0  0  0  0  0  0  0  0  0  0
   -0.5997    4.5161   -2.2951 H   0  0  0  0  0  0  0  0  0  0  0  0
   -1.6486    3.7451   -4.0197 C   0  0  0  0  0  0  0  0  0  0  0  0
   -0.7622    3.2424   -4.4346 H   0  0  0  0  0  0  0  0  0  0  0  0
   -2.5138    3.0977   -4.2246 H   0  0  0  0  0  0  0  0  0  0  0  0
   -1.8321    5.0855   -4.6182 N   0  3  0  0  0  0  0  0  0  0  0  0
   -1.0131    5.6671   -4.4274 H   0  0  0  0  0  0  0  0  0  0  0  0
   -1.9529    5.0067   -5.6305 H   0  0  0  0  0  0  0  0  0  0  0  0
   -2.6574    5.5372   -4.2196 H   0  0  0  0  0  0  0  0  0  0  0  0
   -0.3964    1.5140    1.8387 C   0  0  0  0  0  0  0  0  0  0  0  0
    0.1736    2.5533    2.1466 O   0  0  0  0  0  0  0  0  0  0  0  0
   -0.5952    0.5686    2.8275 N   0  0  0  0  0  0  0  0  0  0  0  0
   -0.8689   -0.3588    2.4955 H   0  0  0  0  0  0  0  0  0  0  0  0
   -0.0214    0.6787    4.1647 C   0  0  0  0  0  0  0  0  0  0  0  0
   -0.3723    1.5903    4.6602 H   0  0  0  0  0  0  0  0  0  0  0  0
   -0.3183   -0.1793    4.7758 H   0  0  0  0  0  0  0  0  0  0  0  0
    1.0723    0.7055    4.1127 H   0  0  0  0  0  0  0  0  0  0  0  0
  1  2  1  0  0  0  0
  2  3  1  0  0  0  0
  2  4  1  0  0  0  0
  2  5  1  0  0  0  0
  5  6  2  0  0  0  0
  5  7  1  0  0  0  0
  7  8  1  0  0  0  0
  7  9  1  0  0  0  0
  9 10  1  0  0  0  0
  9 11  1  0  0  0  0
  9 27  1  0  0  0  0
 11 12  1  0  0  0  0
 11 13  1  0  0  0  0
 11 14  1  0  0  0  0
 14 15  1  0  0  0  0
 14 16  1  0  0  0  0
 14 17  1  0  0  0  0
 17 18  1  0  0  0  0
 17 19  1  0  0  0  0
 17 20  1  0  0  0  0
 20 21  1  0  0  0  0
 20 22  1  0  0  0  0
 20 23  1  0  0  0  0
 23 24  1  0  0  0  0
 23 25  1  0  0  0  0
 23 26  1  0  0  0  0
 27 28  2  0  0  0  0
 27 29  1  0  0  0  0
 29 30  1  0  0  0  0
 29 31  1  0  0  0  0
 31 32  1  0  0  0  0
 31 33  1  0  0  0  0
 31 34  1  0  0  0  0
M  CHG  1  23   1
M  END
$$$$

  -OEChem-01062216093D

 34 33  0     1  0  0  0  0  0999 V2000
   -3.6291   -2.3927    1.2189 H   0  0  0  0  0  0  0  0  0  0  0  0
   -3.7198   -1.3636    0.8589 C   0  0  0  0  0  0  0  0  0  0  0  0
   -4.2884   -0.7860    1.5919 H   0  0  0  0  0  0  0  0  0  0  0  0
   -4.2605   -1.3708   -0.0904 H   0  0  0  0  0  0  0  0  0  0  0  0
   -2.3437   -0.7550    0.6699 C   0  0  0  0  0  0  0  0  0  0  0  0
   -1.3445   -1.4314    0.8487 O   0  0  0  0  0  0  0  0  0  0  0  0
   -2.2129    0.5627    0.2745 N   0  0  0  0  0  0  0  0  0  0  0  0
   -3.0790    1.0937    0.2867 H   0  0  0  0  0  0  0  0  0  0  0  0
   -0.9568    1.3378    0.3811 C   0  0  1  0  0  0  0  0  0  0  0  0
   -0.1777    0.7893   -0.1598 H   0  0  0  0  0  0  0  0  0  0  0  0
   -1.1551    2.6931   -0.3339 C   0  0  0  0  0  0  0  0  0  0  0  0
   -2.0288    3.2018    0.0868 H   0  0  0  0  0  0  0  0  0  0  0  0
   -0.2830    3.3304   -0.1498 H   0  0  0  0  0  0  0  0  0  0  0  0
   -1.3053    2.5314   -1.8546 C   0  0  0  0  0  0  0  0  0  0  0  0
   -0.4179    2.0298   -2.2573 H   0  0  0  0  0  0  0  0  0  0  0  0
   -2.1754    1.9041   -2.0770 H   0  0  0  0  0  0  0  0  0  0  0  0
   -1.4731    3.9047   -2.5164 C   0  0  0  0  0  0  0  0  0  0  0  0
   -2.3489    4.4062   -2.0897 H   0  0  0  0  0  0  0  0  0  0  0  0
   -0.5923    4.5205   -2.3018 H   0  0  0  0  0  0  0  0  0  0  0  0
   -1.6470    3.7529   -4.0257 C   0  0  0  0  0  0  0  0  0  0  0  0
   -0.7626    3.2492   -4.4435 H   0  0  0  0  0  0  0  0  0  0  0  0
   -2.5136    3.1070   -4.2288 H   0  0  0  0  0  0  0  0  0  0  0  0
   -1.8290    5.0939   -4.6233 N   0  3  0  0  0  0  0  0  0  0  0  0
   -1.0152    5.6785   -4.4213 H   0  0  0  0  0  0  0  0  0  0  0  0
   -1.9374    5.0168   -5.6370 H   0  0  0  0  0  0  0  0  0  0  0  0
   -2.6611    5.5410   -4.2338 H   0  0  0  0  0  0  0  0  0  0  0  0
   -0.3926    1.4993    1.8255 C   0  0  0  0  0  0  0  0  0  0  0  0
   -0.0455    2.6022    2.2289 O   0  0  0  0  0  0  0  0  0  0  0  0
   -0.3257    0.4362    2.7049 N   0  0  0  0  0  0  0  0  0  0  0  0
   -0.5177   -0.4883    2.3110 H   0  0  0  0  0  0  0  0  0  0  0  0
    0.2440    0.5240    4.0445 C   0  0  0  0  0  0  0  0  0  0  0  0
   -0.2967    1.2636    4.6447 H   0  0  0  0  0  0  0  0  0  0  0  0
    0.1746   -0.4449    4.5484 H   0  0  0  0  0  0  0  0  0  0  0  0
    1.2991    0.8131    3.9949 H   0  0  0  0  0  0  0  0  0  0  0  0
  1  2  1  0  0  0  0
  2  3  1  0  0  0  0
  2  4  1  0  0  0  0
  2  5  1  0  0  0  0
  5  6  2  0  0  0  0
  5  7  1  0  0  0  0
  7  8  1  0  0  0  0
  7  9  1  0  0  0  0
  9 10  1  0  0  0  0
  9 11  1  0  0  0  0
  9 27  1  0  0  0  0
 11 12  1  0  0  0  0
 11 13  1  0  0  0  0
 11 14  1  0  0  0  0
 14 15  1  0  0  0  0
 14 16  1  0  0  0  0
 14 17  1  0  0  0  0
 17 18  1  0  0  0  0
 17 19  1  0  0  0  0
 17 20  1  0  0  0  0
 20 21  1  0  0  0  0
 20 22  1  0  0  0  0
 20 23  1  0  0  0  0
 23 24  1  0  0  0  0
 23 25  1  0  0  0  0
 23 26  1  0  0  0  0
 27 28  2  0  0  0  0
 27 29  1  0  0  0  0
 29 30  1  0  0  0  0
 29 31  1  0  0  0  0
 31 32  1  0  0  0  0
 31 33  1  0  0  0  0
 31 34  1  0  0  0  0
M  CHG  1  23   1
M  END
$$$$

  -OEChem-01062216093D

 34 33  0     1  0  0  0  0  0999 V2000
   -3.5741   -2.3629    1.3530 H   0  0  0  0  0  0  0  0  0  0  0  0
   -3.6755   -1.3622    0.9228 C   0  0  0  0  0  0  0  0  0  0  0  0
   -4.2459   -0.7406    1.6170 H   0  0  0  0  0  0  0  0  0  0  0  0
   -4.2208   -1.4391   -0.0209 H   0  0  0  0  0  0  0  0  0  0  0  0
   -2.3057   -0.7565    0.6845 C   0  0  0  0  0  0  0  0  0  0  0  0
   -1.3020   -1.4361    0.8259 O   0  0  0  0  0  0  0  0  0  0  0  0
   -2.1874    0.5576    0.2726 N   0  0  0  0  0  0  0  0  0  0  0  0
   -3.0512    1.0907    0.3143 H   0  0  0  0  0  0  0  0  0  0  0  0
   -0.9277    1.3269    0.3553 C   0  0  1  0  0  0  0  0  0  0  0  0
   -0.1562    0.7766   -0.1940 H   0  0  0  0  0  0  0  0  0  0  0  0
   -1.1230    2.6860   -0.3502 C   0  0  0  0  0  0  0  0  0  0  0  0
   -1.9860    3.2014    0.0850 H   0  0  0  0  0  0  0  0  0  0  0  0
   -0.2412    3.3114   -0.1701 H   0  0  0  0  0  0  0  0  0  0  0  0
   -1.3001    2.5333   -1.8686 C   0  0  0  0  0  0  0  0  0  0  0  0
   -0.4258    2.0233   -2.2885 H   0  0  0  0  0  0  0  0  0  0  0  0
   -2.1809    1.9170   -2.0785 H   0  0  0  0  0  0  0  0  0  0  0  0
   -1.4638    3.9113   -2.5214 C   0  0  0  0  0  0  0  0  0  0  0  0
   -2.3265    4.4210   -2.0780 H   0  0  0  0  0  0  0  0  0  0  0  0
   -0.5726    4.5164   -2.3195 H   0  0  0  0  0  0  0  0  0  0  0  0
   -1.6643    3.7667   -4.0280 C   0  0  0  0  0  0  0  0  0  0  0  0
   -0.7934    3.2538   -4.4627 H   0  0  0  0  0  0  0  0  0  0  0  0
   -2.5422    3.1316   -4.2169 H   0  0  0  0  0  0  0  0  0  0  0  0
   -1.8418    5.1112   -4.6191 N   0  3  0  0  0  0  0  0  0  0  0  0
   -1.0082    5.6787   -4.4514 H   0  0  0  0  0  0  0  0  0  0  0  0
   -1.9934    5.0359   -5.6275 H   0  0  0  0  0  0  0  0  0  0  0  0
   -2.6477    5.5757   -4.1960 H   0  0  0  0  0  0  0  0  0  0  0  0
   -0.3607    1.4857    1.7956 C   0  0  0  0  0  0  0  0  0  0  0  0
   -0.2338    2.5995    2.2888 O   0  0  0  0  0  0  0  0  0  0  0  0
   -0.0182    0.3855    2.5563 N   0  0  0  0  0  0  0  0  0  0  0  0
   -0.1810   -0.5331    2.1348 H   0  0  0  0  0  0  0  0  0  0  0  0
    0.5028    0.4608    3.9160 C   0  0  0  0  0  0  0  0  0  0  0  0
   -0.2254    0.9370    4.5810 H   0  0  0  0  0  0  0  0  0  0  0  0
    0.7131   -0.5438    4.2961 H   0  0  0  0  0  0  0  0  0  0  0  0
    1.4323    1.0395    3.9391 H   0  0  0  0  0  0  0  0  0  0  0  0
  1  2  1  0  0  0  0
  2  3  1  0  0  0  0
  2  4  1  0  0  0  0
  2  5  1  0  0  0  0
  5  6  2  0  0  0  0
  5  7  1  0  0  0  0
  7  8  1  0  0  0  0
  7  9  1  0  0  0  0
  9 10  1  0  0  0  0
  9 11  1  0  0  0  0
  9 27  1  0  0  0  0
 11 12  1  0  0  0  0
 11 13  1  0  0  0  0
 11 14  1  0  0  0  0
 14 15  1  0  0  0  0
 14 16  1  0  0  0  0
 14 17  1  0  0  0  0
 17 18  1  0  0  0  0
 17 19  1  0  0  0  0
 17 20  1  0  0  0  0
 20 21  1  0  0  0  0
 20 22  1  0  0  0  0
 20 23  1  0  0  0  0
 23 24  1  0  0  0  0
 23 25  1  0  0  0  0
 23 26  1  0  0  0  0
 27 28  2  0  0  0  0
 27 29  1  0  0  0  0
 29 30  1  0  0  0  0
 29 31  1  0  0  0  0
 31 32  1  0  0  0  0
 31 33  1  0  0  0  0
 31 34  1  0  0  0  0
M  CHG  1  23   1
M  END
$$$$

  -OEChem-01062216093D

 34 33  0     1  0  0  0  0  0999 V2000
   -3.4865   -2.3792    1.3846 H   0  0  0  0  0  0  0  0  0  0  0  0
   -3.6059   -1.3579    1.0111 C   0  0  0  0  0  0  0  0  0  0  0  0
   -4.1186   -0.7654    1.7729 H   0  0  0  0  0  0  0  0  0  0  0  0
   -4.2169   -1.3845    0.1059 H   0  0  0  0  0  0  0  0  0  0  0  0
   -2.2491   -0.7525    0.7059 C   0  0  0  0  0  0  0  0  0  0  0  0
   -1.2348   -1.4204    0.8318 O   0  0  0  0  0  0  0  0  0  0  0  0
   -2.1527    0.5530    0.2607 N   0  0  0  0  0  0  0  0  0  0  0  0
   -3.0130    1.0884    0.3366 H   0  0  0  0  0  0  0  0  0  0  0  0
   -0.8891    1.3146    0.3163 C   0  0  1  0  0  0  0  0  0  0  0  0
   -0.1230    0.7615   -0.2380 H   0  0  0  0  0  0  0  0  0  0  0  0
   -1.0837    2.6767   -0.3803 C   0  0  0  0  0  0  0  0  0  0  0  0
   -1.9348    3.1976    0.0716 H   0  0  0  0  0  0  0  0  0  0  0  0
   -0.1927    3.2915   -0.2078 H   0  0  0  0  0  0  0  0  0  0  0  0
   -1.2921    2.5334   -1.8951 C   0  0  0  0  0  0  0  0  0  0  0  0
   -0.4315    2.0166   -2.3348 H   0  0  0  0  0  0  0  0  0  0  0  0
   -2.1833    1.9270   -2.0899 H   0  0  0  0  0  0  0  0  0  0  0  0
   -1.4540    3.9170   -2.5363 C   0  0  0  0  0  0  0  0  0  0  0  0
   -2.3023    4.4330   -2.0726 H   0  0  0  0  0  0  0  0  0  0  0  0
   -0.5527    4.5111   -2.3484 H   0  0  0  0  0  0  0  0  0  0  0  0
   -1.6857    3.7851   -4.0395 C   0  0  0  0  0  0  0  0  0  0  0  0
   -0.8281    3.2670   -4.4940 H   0  0  0  0  0  0  0  0  0  0  0  0
   -2.5732    3.1602   -4.2169 H   0  0  0  0  0  0  0  0  0  0  0  0
   -1.8606    5.1359   -4.6175 N   0  3  0  0  0  0  0  0  0  0  0  0
   -1.0303    5.7036   -4.4348 H   0  0  0  0  0  0  0  0  0  0  0  0
   -2.0017    5.0719   -5.6282 H   0  0  0  0  0  0  0  0  0  0  0  0
   -2.6720    5.5940   -4.1980 H   0  0  0  0  0  0  0  0  0  0  0  0
   -0.3323    1.4804    1.7557 C   0  0  0  0  0  0  0  0  0  0  0  0
   -0.4250    2.5577    2.3309 O   0  0  0  0  0  0  0  0  0  0  0  0
    0.2740    0.4215    2.4014 N   0  0  0  0  0  0  0  0  0  0  0  0
    0.1567   -0.4949    1.9608 H   0  0  0  0  0  0  0  0  0  0  0  0
    0.7215    0.4777    3.7881 C   0  0  0  0  0  0  0  0  0  0  0  0
   -0.1255    0.6593    4.4578 H   0  0  0  0  0  0  0  0  0  0  0  0
    1.1918   -0.4688    4.0721 H   0  0  0  0  0  0  0  0  0  0  0  0
    1.4551    1.2796    3.9230 H   0  0  0  0  0  0  0  0  0  0  0  0
  1  2  1  0  0  0  0
  2  3  1  0  0  0  0
  2  4  1  0  0  0  0
  2  5  1  0  0  0  0
  5  6  2  0  0  0  0
  5  7  1  0  0  0  0
  7  8  1  0  0  0  0
  7  9  1  0  0  0  0
  9 10  1  0  0  0  0
  9 11  1  0  0  0  0
  9 27  1  0  0  0  0
 11 12  1  0  0  0  0
 11 13  1  0  0  0  0
 11 14  1  0  0  0  0
 14 15  1  0  0  0  0
 14 16  1  0  0  0  0
 14 17  1  0  0  0  0
 17 18  1  0  0  0  0
 17 19  1  0  0  0  0
 17 20  1  0  0  0  0
 20 21  1  0  0  0  0
 20 22  1  0  0  0  0
 20 23  1  0  0  0  0
 23 24  1  0  0  0  0
 23 25  1  0  0  0  0
 23 26  1  0  0  0  0
 27 28  2  0  0  0  0
 27 29  1  0  0  0  0
 29 30  1  0  0  0  0
 29 31  1  0  0  0  0
 31 32  1  0  0  0  0
 31 33  1  0  0  0  0
 31 34  1  0  0  0  0
M  CHG  1  23   1
M  END
$$$$

  -OEChem-01062216093D

 34 33  0     1  0  0  0  0  0999 V2000
   -3.4173   -2.3720    1.4560 H   0  0  0  0  0  0  0  0  0  0  0  0
   -3.5581   -1.3658    1.0505 C   0  0  0  0  0  0  0  0  0  0  0  0
   -4.0810   -0.7596    1.7944 H   0  0  0  0  0  0  0  0  0  0  0  0
   -4.1700   -1.4339    0.1480 H   0  0  0  0  0  0  0  0  0  0  0  0
   -2.2146   -0.7435    0.7222 C   0  0  0  0  0  0  0  0  0  0  0  0
   -1.1868   -1.3904    0.8550 O   0  0  0  0  0  0  0  0  0  0  0  0
   -2.1412    0.5547    0.2509 N   0  0  0  0  0  0  0  0  0  0  0  0
   -2.9991    1.0899    0.3539 H   0  0  0  0  0  0  0  0  0  0  0  0
   -0.8753    1.3096    0.2936 C   0  0  1  0  0  0  0  0  0  0  0  0
   -0.1099    0.7559   -0.2613 H   0  0  0  0  0  0  0  0  0  0  0  0
   -1.0661    2.6753   -0.3949 C   0  0  0  0  0  0  0  0  0  0  0  0
   -1.9109    3.1995    0.0655 H   0  0  0  0  0  0  0  0  0  0  0  0
   -0.1704    3.2829   -0.2237 H   0  0  0  0  0  0  0  0  0  0  0  0
   -1.2912    2.5394   -1.9083 C   0  0  0  0  0  0  0  0  0  0  0  0
   -0.4392    2.0180   -2.3588 H   0  0  0  0  0  0  0  0  0  0  0  0
   -2.1889    1.9401   -2.0957 H   0  0  0  0  0  0  0  0  0  0  0  0
   -1.4490    3.9262   -2.5445 C   0  0  0  0  0  0  0  0  0  0  0  0
   -2.2883    4.4474   -2.0705 H   0  0  0  0  0  0  0  0  0  0  0  0
   -0.5410    4.5128   -2.3641 H   0  0  0  0  0  0  0  0  0  0  0  0
   -1.6973    3.7999   -4.0458 C   0  0  0  0  0  0  0  0  0  0  0  0
   -0.8487    3.2758   -4.5097 H   0  0  0  0  0  0  0  0  0  0  0  0
   -2.5914    3.1822   -4.2157 H   0  0  0  0  0  0  0  0  0  0  0  0
   -1.8679    5.1524   -4.6205 N   0  3  0  0  0  0  0  0  0  0  0  0
   -1.0296    5.7120   -4.4501 H   0  0  0  0  0  0  0  0  0  0  0  0
   -2.0243    5.0898   -5.6290 H   0  0  0  0  0  0  0  0  0  0  0  0
   -2.6688    5.6180   -4.1890 H   0  0  0  0  0  0  0  0  0  0  0  0
   -0.3383    1.4777    1.7374 C   0  0  0  0  0  0  0  0  0  0  0  0
   -0.6278    2.4764    2.3846 O   0  0  0  0  0  0  0  0  0  0  0  0
    0.5125    0.5338    2.2774 N   0  0  0  0  0  0  0  0  0  0  0  0
    0.4978   -0.3770    1.8137 H   0  0  0  0  0  0  0  0  0  0  0  0
    0.9738    0.5906    3.6601 C   0  0  0  0  0  0  0  0  0  0  0  0
    0.1270    0.5256    4.3514 H   0  0  0  0  0  0  0  0  0  0  0  0
    1.6544   -0.2412    3.8662 H   0  0  0  0  0  0  0  0  0  0  0  0
    1.5097    1.5270    3.8489 H   0  0  0  0  0  0  0  0  0  0  0  0
  1  2  1  0  0  0  0
  2  3  1  0  0  0  0
  2  4  1  0  0  0  0
  2  5  1  0  0  0  0
  5  6  2  0  0  0  0
  5  7  1  0  0  0  0
  7  8  1  0  0  0  0
  7  9  1  0  0  0  0
  9 10  1  0  0  0  0
  9 11  1  0  0  0  0
  9 27  1  0  0  0  0
 11 12  1  0  0  0  0
 11 13  1  0  0  0  0
 11 14  1  0  0  0  0
 14 15  1  0  0  0  0
 14 16  1  0  0  0  0
 14 17  1  0  0  0  0
 17 18  1  0  0  0  0
 17 19  1  0  0  0  0
 17 20  1  0  0  0  0
 20 21  1  0  0  0  0
 20 22  1  0  0  0  0
 20 23  1  0  0  0  0
 23 24  1  0  0  0  0
 23 25  1  0  0  0  0
 23 26  1  0  0  0  0
 27 28  2  0  0  0  0
 27 29  1  0  0  0  0
 29 30  1  0  0  0  0
 29 31  1  0  0  0  0
 31 32  1  0  0  0  0
 31 33  1  0  0  0  0
 31 34  1  0  0  0  0
M  CHG  1  23   1
M  END
$$$$

  -OEChem-01062216093D

 34 33  0     1  0  0  0  0  0999 V2000
   -3.3696   -2.3649    1.4967 H   0  0  0  0  0  0  0  0  0  0  0  0
   -3.5212   -1.3587    1.0953 C   0  0  0  0  0  0  0  0  0  0  0  0
   -4.0137   -0.7493    1.8569 H   0  0  0  0  0  0  0  0  0  0  0  0
   -4.1659   -1.4246    0.2157 H   0  0  0  0  0  0  0  0  0  0  0  0
   -2.1885   -0.7414    0.7182 C   0  0  0  0  0  0  0  0  0  0  0  0
   -1.1545   -1.3816    0.8359 O   0  0  0  0  0  0  0  0  0  0  0  0
   -2.1299    0.5498    0.2268 N   0  0  0  0  0  0  0  0  0  0  0  0
   -2.9822    1.0868    0.3619 H   0  0  0  0  0  0  0  0  0  0  0  0
   -0.8624    1.2989    0.2653 C   0  0  1  0  0  0  0  0  0  0  0  0
   -0.0961    0.7452   -0.2886 H   0  0  0  0  0  0  0  0  0  0  0  0
   -1.0518    2.6694   -0.4113 C   0  0  0  0  0  0  0  0  0  0  0  0
   -1.8926    3.1935    0.0567 H   0  0  0  0  0  0  0  0  0  0  0  0
   -0.1528    3.2722   -0.2402 H   0  0  0  0  0  0  0  0  0  0  0  0
   -1.2883    2.5429   -1.9237 C   0  0  0  0  0  0  0  0  0  0  0  0
   -0.4427    2.0187   -2.3833 H   0  0  0  0  0  0  0  0  0  0  0  0
   -2.1907    1.9493   -2.1071 H   0  0  0  0  0  0  0  0  0  0  0  0
   -1.4453    3.9330   -2.5522 C   0  0  0  0  0  0  0  0  0  0  0  0
   -2.2796    4.4551   -2.0705 H   0  0  0  0  0  0  0  0  0  0  0  0
   -0.5342    4.5158   -2.3762 H   0  0  0  0  0  0  0  0  0  0  0  0
   -1.7050    3.8127   -4.0519 C   0  0  0  0  0  0  0  0  0  0  0  0
   -0.8626    3.2862   -4.5245 H   0  0  0  0  0  0  0  0  0  0  0  0
   -2.6033    3.1993   -4.2160 H   0  0  0  0  0  0  0  0  0  0  0  0
   -1.8747    5.1679   -4.6204 N   0  3  0  0  0  0  0  0  0  0  0  0
   -1.0321    5.7228   -4.4571 H   0  0  0  0  0  0  0  0  0  0  0  0
   -2.0424    5.1092   -5.6272 H   0  0  0  0  0  0  0  0  0  0  0  0
   -2.6686    5.6358   -4.1789 H   0  0  0  0  0  0  0  0  0  0  0  0
   -0.3472    1.4705    1.7143 C   0  0  0  0  0  0  0  0  0  0  0  0
   -0.8385    2.3355    2.4288 O   0  0  0  0  0  0  0  0  0  0  0  0
    0.7145    0.7156    2.1729 N   0  0  0  0  0  0  0  0  0  0  0  0
    0.8850   -0.1490    1.6598 H   0  0  0  0  0  0  0  0  0  0  0  0
    1.1803    0.7880    3.5534 C   0  0  0  0  0  0  0  0  0  0  0  0
    0.3896    0.4721    4.2421 H   0  0  0  0  0  0  0  0  0  0  0  0
    2.0467    0.1346    3.6955 H   0  0  0  0  0  0  0  0  0  0  0  0
    1.4779    1.8113    3.8064 H   0  0  0  0  0  0  0  0  0  0  0  0
  1  2  1  0  0  0  0
  2  3  1  0  0  0  0
  2  4  1  0  0  0  0
  2  5  1  0  0  0  0
  5  6  2  0  0  0  0
  5  7  1  0  0  0  0
  7  8  1  0  0  0  0
  7  9  1  0  0  0  0
  9 10  1  0  0  0  0
  9 11  1  0  0  0  0
  9 27  1  0  0  0  0
 11 12  1  0  0  0  0
 11 13  1  0  0  0  0
 11 14  1  0  0  0  0
 14 15  1  0  0  0  0
 14 16  1  0  0  0  0
 14 17  1  0  0  0  0
 17 18  1  0  0  0  0
 17 19  1  0  0  0  0
 17 20  1  0  0  0  0
 20 21  1  0  0  0  0
 20 22  1  0  0  0  0
 20 23  1  0  0  0  0
 23 24  1  0  0  0  0
 23 25  1  0  0  0  0
 23 26  1  0  0  0  0
 27 28  2  0  0  0  0
 27 29  1  0  0  0  0
 29 30  1  0  0  0  0
 29 31  1  0  0  0  0
 31 32  1  0  0  0  0
 31 33  1  0  0  0  0
 31 34  1  0  0  0  0
M  CHG  1  23   1
M  END
$$$$

  -OEChem-01062216093D

 34 33  0     1  0  0  0  0  0999 V2000
   -3.3416   -2.3541    1.5358 H   0  0  0  0  0  0  0  0  0  0  0  0
   -3.5011   -1.3503    1.1312 C   0  0  0  0  0  0  0  0  0  0  0  0
   -3.9672   -0.7325    1.9027 H   0  0  0  0  0  0  0  0  0  0  0  0
   -4.1723   -1.4200    0.2722 H   0  0  0  0  0  0  0  0  0  0  0  0
   -2.1778   -0.7421    0.7093 C   0  0  0  0  0  0  0  0  0  0  0  0
   -1.1439   -1.3858    0.8017 O   0  0  0  0  0  0  0  0  0  0  0  0
   -2.1272    0.5451    0.2068 N   0  0  0  0  0  0  0  0  0  0  0  0
   -2.9729    1.0838    0.3735 H   0  0  0  0  0  0  0  0  0  0  0  0
   -0.8583    1.2917    0.2447 C   0  0  1  0  0  0  0  0  0  0  0  0
   -0.0926    0.7367   -0.3083 H   0  0  0  0  0  0  0  0  0  0  0  0
   -1.0460    2.6659   -0.4221 C   0  0  0  0  0  0  0  0  0  0  0  0
   -1.8840    3.1891    0.0518 H   0  0  0  0  0  0  0  0  0  0  0  0
   -0.1454    3.2660   -0.2510 H   0  0  0  0  0  0  0  0  0  0  0  0
   -1.2879    2.5459   -1.9340 C   0  0  0  0  0  0  0  0  0  0  0  0
   -0.4456    2.0209   -2.3986 H   0  0  0  0  0  0  0  0  0  0  0  0
   -2.1925    1.9552   -2.1163 H   0  0  0  0  0  0  0  0  0  0  0  0
   -1.4438    3.9379   -2.5583 C   0  0  0  0  0  0  0  0  0  0  0  0
   -2.2753    4.4606   -2.0724 H   0  0  0  0  0  0  0  0  0  0  0  0
   -0.5306    4.5180   -2.3842 H   0  0  0  0  0  0  0  0  0  0  0  0
   -1.7090    3.8208   -4.0577 C   0  0  0  0  0  0  0  0  0  0  0  0
   -0.8695    3.2931   -4.5341 H   0  0  0  0  0  0  0  0  0  0  0  0
   -2.6093    3.2098   -4.2196 H   0  0  0  0  0  0  0  0  0  0  0  0
   -1.8778    5.1771   -4.6239 N   0  3  0  0  0  0  0  0  0  0  0  0
   -1.0333    5.7299   -4.4635 H   0  0  0  0  0  0  0  0  0  0  0  0
   -2.0499    5.1199   -5.6302 H   0  0  0  0  0  0  0  0  0  0  0  0
   -2.6691    5.6463   -4.1786 H   0  0  0  0  0  0  0  0  0  0  0  0
   -0.3528    1.4683    1.6952 C   0  0  0  0  0  0  0  0  0  0  0  0
   -1.0103    2.1510    2.4711 O   0  0  0  0  0  0  0  0  0  0  0  0
    0.8717    0.9626    2.0864 N   0  0  0  0  0  0  0  0  0  0  0  0
    1.2508    0.2200    1.5029 H   0  0  0  0  0  0  0  0  0  0  0  0
    1.3402    1.0484    3.4657 C   0  0  0  0  0  0  0  0  0  0  0  0
    0.6626    0.5083    4.1356 H   0  0  0  0  0  0  0  0  0  0  0  0
    2.3387    0.6096    3.5547 H   0  0  0  0  0  0  0  0  0  0  0  0
    1.3953    2.0931    3.7900 H   0  0  0  0  0  0  0  0  0  0  0  0
  1  2  1  0  0  0  0
  2  3  1  0  0  0  0
  2  4  1  0  0  0  0
  2  5  1  0  0  0  0
  5  6  2  0  0  0  0
  5  7  1  0  0  0  0
  7  8  1  0  0  0  0
  7  9  1  0  0  0  0
  9 10  1  0  0  0  0
  9 11  1  0  0  0  0
  9 27  1  0  0  0  0
 11 12  1  0  0  0  0
 11 13  1  0  0  0  0
 11 14  1  0  0  0  0
 14 15  1  0  0  0  0
 14 16  1  0  0  0  0
 14 17  1  0  0  0  0
 17 18  1  0  0  0  0
 17 19  1  0  0  0  0
 17 20  1  0  0  0  0
 20 21  1  0  0  0  0
 20 22  1  0  0  0  0
 20 23  1  0  0  0  0
 23 24  1  0  0  0  0
 23 25  1  0  0  0  0
 23 26  1  0  0  0  0
 27 28  2  0  0  0  0
 27 29  1  0  0  0  0
 29 30  1  0  0  0  0
 29 31  1  0  0  0  0
 31 32  1  0  0  0  0
 31 33  1  0  0  0  0
 31 34  1  0  0  0  0
M  CHG  1  23   1
M  END
$$$$

  -OEChem-01062216093D

 34 33  0     1  0  0  0  0  0999 V2000
   -3.3417   -2.3438    1.5369 H   0  0  0  0  0  0  0  0  0  0  0  0
   -3.4996   -1.3375    1.1384 C   0  0  0  0  0  0  0  0  0  0  0  0
   -3.9431   -0.7171    1.9213 H   0  0  0  0  0  0  0  0  0  0  0  0
   -4.1893   -1.3979    0.2933 H   0  0  0  0  0  0  0  0  0  0  0  0
   -2.1786   -0.7414    0.6921 C   0  0  0  0  0  0  0  0  0  0  0  0
   -1.1501   -1.3966    0.7579 O   0  0  0  0  0  0  0  0  0  0  0  0
   -2.1268    0.5458    0.1898 N   0  0  0  0  0  0  0  0  0  0  0  0
   -2.9657    1.0864    0.3823 H   0  0  0  0  0  0  0  0  0  0  0  0
   -0.8562    1.2892    0.2378 C   0  0  1  0  0  0  0  0  0  0  0  0
   -0.0895    0.7332   -0.3128 H   0  0  0  0  0  0  0  0  0  0  0  0
   -1.0461    2.6666   -0.4200 C   0  0  0  0  0  0  0  0  0  0  0  0
   -1.8858    3.1848    0.0565 H   0  0  0  0  0  0  0  0  0  0  0  0
   -0.1469    3.2680   -0.2459 H   0  0  0  0  0  0  0  0  0  0  0  0
   -1.2860    2.5505   -1.9328 C   0  0  0  0  0  0  0  0  0  0  0  0
   -0.4418    2.0282   -2.3970 H   0  0  0  0  0  0  0  0  0  0  0  0
   -2.1887    1.9572   -2.1173 H   0  0  0  0  0  0  0  0  0  0  0  0
   -1.4458    3.9418   -2.5574 C   0  0  0  0  0  0  0  0  0  0  0  0
   -2.2791    4.4629   -2.0729 H   0  0  0  0  0  0  0  0  0  0  0  0
   -0.5347    4.5253   -2.3837 H   0  0  0  0  0  0  0  0  0  0  0  0
   -1.7086    3.8180   -4.0567 C   0  0  0  0  0  0  0  0  0  0  0  0
   -0.8667    3.2915   -4.5299 H   0  0  0  0  0  0  0  0  0  0  0  0
   -2.6060    3.2023   -4.2169 H   0  0  0  0  0  0  0  0  0  0  0  0
   -1.8825    5.1707   -4.6298 N   0  3  0  0  0  0  0  0  0  0  0  0
   -1.0397    5.7274   -4.4745 H   0  0  0  0  0  0  0  0  0  0  0  0
   -2.0568    5.1075   -5.6353 H   0  0  0  0  0  0  0  0  0  0  0  0
   -2.6746    5.6392   -4.1855 H   0  0  0  0  0  0  0  0  0  0  0  0
   -0.3577    1.4658    1.6908 C   0  0  0  0  0  0  0  0  0  0  0  0
   -1.1218    1.9460    2.5194 O   0  0  0  0  0  0  0  0  0  0  0  0
    0.9650    1.2424    2.0236 N   0  0  0  0  0  0  0  0  0  0  0  0
    1.5065    0.6790    1.3735 H   0  0  0  0  0  0  0  0  0  0  0  0
    1.4501    1.3594    3.3951 C   0  0  0  0  0  0  0  0  0  0  0  0
    0.9408    0.6391    4.0445 H   0  0  0  0  0  0  0  0  0  0  0  0
    2.5259    1.1626    3.4353 H   0  0  0  0  0  0  0  0  0  0  0  0
    1.2716    2.3685    3.7822 H   0  0  0  0  0  0  0  0  0  0  0  0
  1  2  1  0  0  0  0
  2  3  1  0  0  0  0
  2  4  1  0  0  0  0
  2  5  1  0  0  0  0
  5  6  2  0  0  0  0
  5  7  1  0  0  0  0
  7  8  1  0  0  0  0
  7  9  1  0  0  0  0
  9 10  1  0  0  0  0
  9 11  1  0  0  0  0
  9 27  1  0  0  0  0
 11 12  1  0  0  0  0
 11 13  1  0  0  0  0
 11 14  1  0  0  0  0
 14 15  1  0  0  0  0
 14 16  1  0  0  0  0
 14 17  1  0  0  0  0
 17 18  1  0  0  0  0
 17 19  1  0  0  0  0
 17 20  1  0  0  0  0
 20 21  1  0  0  0  0
 20 22  1  0  0  0  0
 20 23  1  0  0  0  0
 23 24  1  0  0  0  0
 23 25  1  0  0  0  0
 23 26  1  0  0  0  0
 27 28  2  0  0  0  0
 27 29  1  0  0  0  0
 29 30  1  0  0  0  0
 29 31  1  0  0  0  0
 31 32  1  0  0  0  0
 31 33  1  0  0  0  0
 31 34  1  0  0  0  0
M  CHG  1  23   1
M  END
$$$$

  -OEChem-01062216093D

 34 33  0     1  0  0  0  0  0999 V2000
   -3.3166   -2.3383    1.5670 H   0  0  0  0  0  0  0  0  0  0  0  0
   -3.4862   -1.3334    1.1693 C   0  0  0  0  0  0  0  0  0  0  0  0
   -3.8983   -0.7079    1.9653 H   0  0  0  0  0  0  0  0  0  0  0  0
   -4.2067   -1.3955    0.3507 H   0  0  0  0  0  0  0  0  0  0  0  0
   -2.1801   -0.7448    0.6722 C   0  0  0  0  0  0  0  0  0  0  0  0
   -1.1561   -1.4099    0.6920 O   0  0  0  0  0  0  0  0  0  0  0  0
   -2.1363    0.5443    0.1730 N   0  0  0  0  0  0  0  0  0  0  0  0
   -2.9703    1.0805    0.3962 H   0  0  0  0  0  0  0  0  0  0  0  0
   -0.8648    1.2878    0.2324 C   0  0  1  0  0  0  0  0  0  0  0  0
   -0.0940    0.7340   -0.3149 H   0  0  0  0  0  0  0  0  0  0  0  0
   -1.0543    2.6677   -0.4205 C   0  0  0  0  0  0  0  0  0  0  0  0
   -1.8981    3.1812    0.0537 H   0  0  0  0  0  0  0  0  0  0  0  0
   -0.1579    3.2718   -0.2408 H   0  0  0  0  0  0  0  0  0  0  0  0
   -1.2862    2.5547   -1.9353 C   0  0  0  0  0  0  0  0  0  0  0  0
   -0.4394    2.0337   -2.3963 H   0  0  0  0  0  0  0  0  0  0  0  0
   -2.1871    1.9604   -2.1248 H   0  0  0  0  0  0  0  0  0  0  0  0
   -1.4465    3.9457   -2.5612 C   0  0  0  0  0  0  0  0  0  0  0  0
   -2.2851    4.4634   -2.0824 H   0  0  0  0  0  0  0  0  0  0  0  0
   -0.5386    4.5327   -2.3826 H   0  0  0  0  0  0  0  0  0  0  0  0
   -1.7011    3.8218   -4.0622 C   0  0  0  0  0  0  0  0  0  0  0  0
   -0.8553    3.2973   -4.5308 H   0  0  0  0  0  0  0  0  0  0  0  0
   -2.5962    3.2038   -4.2266 H   0  0  0  0  0  0  0  0  0  0  0  0
   -1.8758    5.1736   -4.6374 N   0  3  0  0  0  0  0  0  0  0  0  0
   -1.0354    5.7329   -4.4778 H   0  0  0  0  0  0  0  0  0  0  0  0
   -2.0439    5.1085   -5.6439 H   0  0  0  0  0  0  0  0  0  0  0  0
   -2.6720    5.6403   -4.1984 H   0  0  0  0  0  0  0  0  0  0  0  0
   -0.3710    1.4609    1.6886 C   0  0  0  0  0  0  0  0  0  0  0  0
   -1.1899    1.7213    2.5624 O   0  0  0  0  0  0  0  0  0  0  0  0
    0.9789    1.5401    1.9771 N   0  0  0  0  0  0  0  0  0  0  0  0
    1.6185    1.1785    1.2754 H   0  0  0  0  0  0  0  0  0  0  0  0
    1.4740    1.6934    3.3417 C   0  0  0  0  0  0  0  0  0  0  0  0
    1.1597    0.8462    3.9611 H   0  0  0  0  0  0  0  0  0  0  0  0
    2.5675    1.7392    3.3463 H   0  0  0  0  0  0  0  0  0  0  0  0
    1.0901    2.6164    3.7895 H   0  0  0  0  0  0  0  0  0  0  0  0
  1  2  1  0  0  0  0
  2  3  1  0  0  0  0
  2  4  1  0  0  0  0
  2  5  1  0  0  0  0
  5  6  2  0  0  0  0
  5  7  1  0  0  0  0
  7  8  1  0  0  0  0
  7  9  1  0  0  0  0
  9 10  1  0  0  0  0
  9 11  1  0  0  0  0
  9 27  1  0  0  0  0
 11 12  1  0  0  0  0
 11 13  1  0  0  0  0
 11 14  1  0  0  0  0
 14 15  1  0  0  0  0
 14 16  1  0  0  0  0
 14 17  1  0  0  0  0
 17 18  1  0  0  0  0
 17 19  1  0  0  0  0
 17 20  1  0  0  0  0
 20 21  1  0  0  0  0
 20 22  1  0  0  0  0
 20 23  1  0  0  0  0
 23 24  1  0  0  0  0
 23 25  1  0  0  0  0
 23 26  1  0  0  0  0
 27 28  2  0  0  0  0
 27 29  1  0  0  0  0
 29 30  1  0  0  0  0
 29 31  1  0  0  0  0
 31 32  1  0  0  0  0
 31 33  1  0  0  0  0
 31 34  1  0  0  0  0
M  CHG  1  23   1
M  END
$$$$

  -OEChem-01062216093D

 34 33  0     1  0  0  0  0  0999 V2000
   -3.3123   -2.3370    1.5500 H   0  0  0  0  0  0  0  0  0  0  0  0
   -3.4823   -1.3231    1.1764 C   0  0  0  0  0  0  0  0  0  0  0  0
   -3.8571   -0.7068    1.9976 H   0  0  0  0  0  0  0  0  0  0  0  0
   -4.2315   -1.3605    0.3826 H   0  0  0  0  0  0  0  0  0  0  0  0
   -2.1867   -0.7419    0.6450 C   0  0  0  0  0  0  0  0  0  0  0  0
   -1.1713   -1.4199    0.6148 O   0  0  0  0  0  0  0  0  0  0  0  0
   -2.1446    0.5535    0.1612 N   0  0  0  0  0  0  0  0  0  0  0  0
   -2.9740    1.0858    0.4088 H   0  0  0  0  0  0  0  0  0  0  0  0
   -0.8710    1.2935    0.2380 C   0  0  1  0  0  0  0  0  0  0  0  0
   -0.0986    0.7418   -0.3092 H   0  0  0  0  0  0  0  0  0  0  0  0
   -1.0646    2.6748   -0.4126 C   0  0  0  0  0  0  0  0  0  0  0  0
   -1.9154    3.1817    0.0560 H   0  0  0  0  0  0  0  0  0  0  0  0
   -0.1750    3.2866   -0.2281 H   0  0  0  0  0  0  0  0  0  0  0  0
   -1.2855    2.5601   -1.9294 C   0  0  0  0  0  0  0  0  0  0  0  0
   -0.4316    2.0454   -2.3841 H   0  0  0  0  0  0  0  0  0  0  0  0
   -2.1805    1.9590   -2.1253 H   0  0  0  0  0  0  0  0  0  0  0  0
   -1.4511    3.9480   -2.5601 C   0  0  0  0  0  0  0  0  0  0  0  0
   -2.2956    4.4629   -2.0885 H   0  0  0  0  0  0  0  0  0  0  0  0
   -0.5478    4.5408   -2.3781 H   0  0  0  0  0  0  0  0  0  0  0  0
   -1.6942    3.8147   -4.0625 C   0  0  0  0  0  0  0  0  0  0  0  0
   -0.8409    3.2943   -4.5221 H   0  0  0  0  0  0  0  0  0  0  0  0
   -2.5830    3.1885   -4.2306 H   0  0  0  0  0  0  0  0  0  0  0  0
   -1.8752    5.1615   -4.6476 N   0  3  0  0  0  0  0  0  0  0  0  0
   -1.0402    5.7283   -4.4867 H   0  0  0  0  0  0  0  0  0  0  0  0
   -2.0366    5.0888   -5.6548 H   0  0  0  0  0  0  0  0  0  0  0  0
   -2.6777    5.6251   -4.2171 H   0  0  0  0  0  0  0  0  0  0  0  0
   -0.3736    1.4544    1.6970 C   0  0  0  0  0  0  0  0  0  0  0  0
   -1.1941    1.4905    2.6068 O   0  0  0  0  0  0  0  0  0  0  0  0
    0.9308    1.8334    1.9605 N   0  0  0  0  0  0  0  0  0  0  0  0
    1.6111    1.6912    1.2198 H   0  0  0  0  0  0  0  0  0  0  0  0
    1.4254    2.0289    3.3206 C   0  0  0  0  0  0  0  0  0  0  0  0
    1.3308    1.1039    3.9000 H   0  0  0  0  0  0  0  0  0  0  0  0
    2.4800    2.3206    3.3038 H   0  0  0  0  0  0  0  0  0  0  0  0
    0.8593    2.8186    3.8264 H   0  0  0  0  0  0  0  0  0  0  0  0
  1  2  1  0  0  0  0
  2  3  1  0  0  0  0
  2  4  1  0  0  0  0
  2  5  1  0  0  0  0
  5  6  2  0  0  0  0
  5  7  1  0  0  0  0
  7  8  1  0  0  0  0
  7  9  1  0  0  0  0
  9 10  1  0  0  0  0
  9 11  1  0  0  0  0
  9 27  1  0  0  0  0
 11 12  1  0  0  0  0
 11 13  1  0  0  0  0
 11 14  1  0  0  0  0
 14 15  1  0  0  0  0
 14 16  1  0  0  0  0
 14 17  1  0  0  0  0
 17 18  1  0  0  0  0
 17 19  1  0  0  0  0
 17 20  1  0  0  0  0
 20 21  1  0  0  0  0
 20 22  1  0  0  0  0
 20 23  1  0  0  0  0
 23 24  1  0  0  0  0
 23 25  1  0  0  0  0
 23 26  1  0  0  0  0
 27 28  2  0  0  0  0
 27 29  1  0  0  0  0
 29 30  1  0  0  0  0
 29 31  1  0  0  0  0
 31 32  1  0  0  0  0
 31 33  1  0  0  0  0
 31 34  1  0  0  0  0
M  CHG  1  23   1
M  END
$$$$

  -OEChem-01062216093D

 34 33  0     1  0  0  0  0  0999 V2000
   -3.3749   -2.3892    1.3522 H   0  0  0  0  0  0  0  0  0  0  0  0
   -3.5062   -1.3312    1.1079 C   0  0  0  0  0  0  0  0  0  0  0  0
   -3.7957   -0.7971    2.0162 H   0  0  0  0  0  0  0  0  0  0  0  0
   -4.3003   -1.2370    0.3639 H   0  0  0  0  0  0  0  0  0  0  0  0
   -2.2102   -0.7600    0.5665 C   0  0  0  0  0  0  0  0  0  0  0  0
   -1.2332   -1.4751    0.4095 O   0  0  0  0  0  0  0  0  0  0  0  0
   -2.1428    0.5538    0.1366 N   0  0  0  0  0  0  0  0  0  0  0  0
   -2.9744    1.0761    0.3915 H   0  0  0  0  0  0  0  0  0  0  0  0
   -0.8699    1.2943    0.2683 C   0  0  1  0  0  0  0  0  0  0  0  0
   -0.1697    0.9093   -0.4808 H   0  0  0  0  0  0  0  0  0  0  0  0
   -1.1660    2.7798   -0.0229 C   0  0  0  0  0  0  0  0  0  0  0  0
   -1.9739    3.1236    0.6326 H   0  0  0  0  0  0  0  0  0  0  0  0
   -0.2803    3.3808    0.2077 H   0  0  0  0  0  0  0  0  0  0  0  0
   -1.5410    3.0072   -1.4972 C   0  0  0  0  0  0  0  0  0  0  0  0
   -0.7245    2.6549   -2.1377 H   0  0  0  0  0  0  0  0  0  0  0  0
   -2.4346    2.4242   -1.7459 H   0  0  0  0  0  0  0  0  0  0  0  0
   -1.8063    4.4936   -1.7658 C   0  0  0  0  0  0  0  0  0  0  0  0
   -2.6110    4.8419   -1.1086 H   0  0  0  0  0  0  0  0  0  0  0  0
   -0.9049    5.0721   -1.5351 H   0  0  0  0  0  0  0  0  0  0  0  0
   -2.2015    4.7030   -3.2272 C   0  0  0  0  0  0  0  0  0  0  0  0
   -1.3881    4.3468   -3.8766 H   0  0  0  0  0  0  0  0  0  0  0  0
   -3.0871    4.0913   -3.4544 H   0  0  0  0  0  0  0  0  0  0  0  0
   -2.4754    6.1390   -3.4562 N   0  3  0  0  0  0  0  0  0  0  0  0
   -1.6421    6.6924   -3.2471 H   0  0  0  0  0  0  0  0  0  0  0  0
   -2.7398    6.2956   -4.4317 H   0  0  0  0  0  0  0  0  0  0  0  0
   -3.2392    6.4505   -2.8529 H   0  0  0  0  0  0  0  0  0  0  0  0
   -0.1581    1.1388    1.6447 C   0  0  0  0  0  0  0  0  0  0  0  0
   -0.8059    0.7954    2.6264 O   0  0  0  0  0  0  0  0  0  0  0  0
    1.0465    1.7829    1.8787 N   0  0  0  0  0  0  0  0  0  0  0  0
    1.6120    2.0079    1.0664 H   0  0  0  0  0  0  0  0  0  0  0  0
    1.6977    1.7822    3.1867 C   0  0  0  0  0  0  0  0  0  0  0  0
    1.8926    0.7564    3.5181 H   0  0  0  0  0  0  0  0  0  0  0  0
    2.6515    2.3165    3.1366 H   0  0  0  0  0  0  0  0  0  0  0  0
    1.0664    2.2769    3.9327 H   0  0  0  0  0  0  0  0  0  0  0  0
  1  2  1  0  0  0  0
  2  3  1  0  0  0  0
  2  4  1  0  0  0  0
  2  5  1  0  0  0  0
  5  6  2  0  0  0  0
  5  7  1  0  0  0  0
  7  8  1  0  0  0  0
  7  9  1  0  0  0  0
  9 10  1  0  0  0  0
  9 11  1  0  0  0  0
  9 27  1  0  0  0  0
 11 12  1  0  0  0  0
 11 13  1  0  0  0  0
 11 14  1  0  0  0  0
 14 15  1  0  0  0  0
 14 16  1  0  0  0  0
 14 17  1  0  0  0  0
 17 18  1  0  0  0  0
 17 19  1  0  0  0  0
 17 20  1  0  0  0  0
 20 21  1  0  0  0  0
 20 22  1  0  0  0  0
 20 23  1  0  0  0  0
 23 24  1  0  0  0  0
 23 25  1  0  0  0  0
 23 26  1  0  0  0  0
 27 28  2  0  0  0  0
 27 29  1  0  0  0  0
 29 30  1  0  0  0  0
 29 31  1  0  0  0  0
 31 32  1  0  0  0  0
 31 33  1  0  0  0  0
 31 34  1  0  0  0  0
M  CHG  1  23   1
M  END
$$$$

  -OEChem-01062216093D

 34 33  0     1  0  0  0  0  0999 V2000
   -3.3508   -2.3900    1.3207 H   0  0  0  0  0  0  0  0  0  0  0  0
   -3.4849   -1.3223    1.1250 C   0  0  0  0  0  0  0  0  0  0  0  0
   -3.7133   -0.8215    2.0691 H   0  0  0  0  0  0  0  0  0  0  0  0
   -4.3207   -1.1921    0.4343 H   0  0  0  0  0  0  0  0  0  0  0  0
   -2.2166   -0.7429    0.5299 C   0  0  0  0  0  0  0  0  0  0  0  0
   -1.2665   -1.4635    0.2682 O   0  0  0  0  0  0  0  0  0  0  0  0
   -2.1533    0.5851    0.1446 N   0  0  0  0  0  0  0  0  0  0  0  0
   -2.9792    1.0961    0.4379 H   0  0  0  0  0  0  0  0  0  0  0  0
   -0.8797    1.3247    0.2913 C   0  0  1  0  0  0  0  0  0  0  0  0
   -0.1842    0.9479   -0.4663 H   0  0  0  0  0  0  0  0  0  0  0  0
   -1.1831    2.8107   -0.0050 C   0  0  0  0  0  0  0  0  0  0  0  0
   -1.9997    3.1515    0.6412 H   0  0  0  0  0  0  0  0  0  0  0  0
   -0.3064    3.4239    0.2239 H   0  0  0  0  0  0  0  0  0  0  0  0
   -1.5444    3.0255   -1.4854 C   0  0  0  0  0  0  0  0  0  0  0  0
   -0.7195    2.6725   -2.1145 H   0  0  0  0  0  0  0  0  0  0  0  0
   -2.4317    2.4344   -1.7381 H   0  0  0  0  0  0  0  0  0  0  0  0
   -1.8190    4.5065   -1.7746 C   0  0  0  0  0  0  0  0  0  0  0  0
   -2.6338    4.8570   -1.1312 H   0  0  0  0  0  0  0  0  0  0  0  0
   -0.9249    5.0957   -1.5425 H   0  0  0  0  0  0  0  0  0  0  0  0
   -2.1991    4.6895   -3.2437 C   0  0  0  0  0  0  0  0  0  0  0  0
   -1.3765    4.3281   -3.8786 H   0  0  0  0  0  0  0  0  0  0  0  0
   -3.0776    4.0668   -3.4688 H   0  0  0  0  0  0  0  0  0  0  0  0
   -2.4839    6.1184   -3.5023 N   0  3  0  0  0  0  0  0  0  0  0  0
   -1.6605    6.6841   -3.2871 H   0  0  0  0  0  0  0  0  0  0  0  0
   -2.7311    6.2551   -4.4853 H   0  0  0  0  0  0  0  0  0  0  0  0
   -3.2627    6.4319   -2.9195 H   0  0  0  0  0  0  0  0  0  0  0  0
   -0.1382    1.1403    1.6549 C   0  0  0  0  0  0  0  0  0  0  0  0
   -0.6717    0.5361    2.5766 O   0  0  0  0  0  0  0  0  0  0  0  0
    0.8844    2.0053    2.0134 N   0  0  0  0  0  0  0  0  0  0  0  0
    1.3711    2.4818    1.2615 H   0  0  0  0  0  0  0  0  0  0  0  0
    1.5088    1.9907    3.3346 C   0  0  0  0  0  0  0  0  0  0  0  0
    1.9219    1.0000    3.5534 H   0  0  0  0  0  0  0  0  0  0  0  0
    2.3219    2.7217    3.3795 H   0  0  0  0  0  0  0  0  0  0  0  0
    0.7767    2.2438    4.1091 H   0  0  0  0  0  0  0  0  0  0  0  0
  1  2  1  0  0  0  0
  2  3  1  0  0  0  0
  2  4  1  0  0  0  0
  2  5  1  0  0  0  0
  5  6  2  0  0  0  0
  5  7  1  0  0  0  0
  7  8  1  0  0  0  0
  7  9  1  0  0  0  0
  9 10  1  0  0  0  0
  9 11  1  0  0  0  0
  9 27  1  0  0  0  0
 11 12  1  0  0  0  0
 11 13  1  0  0  0  0
 11 14  1  0  0  0  0
 14 15  1  0  0  0  0
 14 16  1  0  0  0  0
 14 17  1  0  0  0  0
 17 18  1  0  0  0  0
 17 19  1  0  0  0  0
 17 20  1  0  0  0  0
 20 21  1  0  0  0  0
 20 22  1  0  0  0  0
 20 23  1  0  0  0  0
 23 24  1  0  0  0  0
 23 25  1  0  0  0  0
 23 26  1  0  0  0  0
 27 28  2  0  0  0  0
 27 29  1  0  0  0  0
 29 30  1  0  0  0  0
 29 31  1  0  0  0  0
 31 32  1  0  0  0  0
 31 33  1  0  0  0  0
 31 34  1  0  0  0  0
M  CHG  1  23   1
M  END
$$$$

  -OEChem-01062216093D

 34 33  0     1  0  0  0  0  0999 V2000
   -3.3416   -2.3875    1.2742 H   0  0  0  0  0  0  0  0  0  0  0  0
   -3.4684   -1.3092    1.1418 C   0  0  0  0  0  0  0  0  0  0  0  0
   -3.6312   -0.8549    2.1222 H   0  0  0  0  0  0  0  0  0  0  0  0
   -4.3411   -1.1311    0.5101 H   0  0  0  0  0  0  0  0  0  0  0  0
   -2.2267   -0.7192    0.5022 C   0  0  0  0  0  0  0  0  0  0  0  0
   -1.3182   -1.4415    0.1254 O   0  0  0  0  0  0  0  0  0  0  0  0
   -2.1659    0.6212    0.1644 N   0  0  0  0  0  0  0  0  0  0  0  0
   -2.9909    1.1164    0.4851 H   0  0  0  0  0  0  0  0  0  0  0  0
   -0.8990    1.3709    0.3269 C   0  0  1  0  0  0  0  0  0  0  0  0
   -0.2038    1.0025   -0.4356 H   0  0  0  0  0  0  0  0  0  0  0  0
   -1.2114    2.8532    0.0149 C   0  0  0  0  0  0  0  0  0  0  0  0
   -2.0391    3.1949    0.6459 H   0  0  0  0  0  0  0  0  0  0  0  0
   -0.3427    3.4776    0.2419 H   0  0  0  0  0  0  0  0  0  0  0  0
   -1.5506    3.0458   -1.4746 C   0  0  0  0  0  0  0  0  0  0  0  0
   -0.7116    2.6931   -2.0857 H   0  0  0  0  0  0  0  0  0  0  0  0
   -2.4272    2.4415   -1.7342 H   0  0  0  0  0  0  0  0  0  0  0  0
   -1.8364    4.5184   -1.7930 C   0  0  0  0  0  0  0  0  0  0  0  0
   -2.6661    4.8706   -1.1703 H   0  0  0  0  0  0  0  0  0  0  0  0
   -0.9531    5.1218   -1.5563 H   0  0  0  0  0  0  0  0  0  0  0  0
   -2.1927    4.6689   -3.2720 C   0  0  0  0  0  0  0  0  0  0  0  0
   -1.3534    4.3063   -3.8843 H   0  0  0  0  0  0  0  0  0  0  0  0
   -3.0583    4.0300   -3.5018 H   0  0  0  0  0  0  0  0  0  0  0  0
   -2.4900    6.0884   -3.5647 N   0  3  0  0  0  0  0  0  0  0  0  0
   -1.6778    6.6689   -3.3466 H   0  0  0  0  0  0  0  0  0  0  0  0
   -2.7204    6.2018   -4.5548 H   0  0  0  0  0  0  0  0  0  0  0  0
   -3.2833    6.4037   -3.0029 H   0  0  0  0  0  0  0  0  0  0  0  0
   -0.1281    1.1664    1.6759 C   0  0  0  0  0  0  0  0  0  0  0  0
   -0.4381    0.2866    2.4660 O   0  0  0  0  0  0  0  0  0  0  0  0
    0.6576    2.1832    2.1987 N   0  0  0  0  0  0  0  0  0  0  0  0
    0.9623    2.9111    1.5624 H   0  0  0  0  0  0  0  0  0  0  0  0
    1.2901    2.1105    3.5145 C   0  0  0  0  0  0  0  0  0  0  0  0
    1.9547    1.2418    3.5740 H   0  0  0  0  0  0  0  0  0  0  0  0
    1.8821    3.0115    3.7024 H   0  0  0  0  0  0  0  0  0  0  0  0
    0.5329    2.0273    4.3017 H   0  0  0  0  0  0  0  0  0  0  0  0
  1  2  1  0  0  0  0
  2  3  1  0  0  0  0
  2  4  1  0  0  0  0
  2  5  1  0  0  0  0
  5  6  2  0  0  0  0
  5  7  1  0  0  0  0
  7  8  1  0  0  0  0
  7  9  1  0  0  0  0
  9 10  1  0  0  0  0
  9 11  1  0  0  0  0
  9 27  1  0  0  0  0
 11 12  1  0  0  0  0
 11 13  1  0  0  0  0
 11 14  1  0  0  0  0
 14 15  1  0  0  0  0
 14 16  1  0  0  0  0
 14 17  1  0  0  0  0
 17 18  1  0  0  0  0
 17 19  1  0  0  0  0
 17 20  1  0  0  0  0
 20 21  1  0  0  0  0
 20 22  1  0  0  0  0
 20 23  1  0  0  0  0
 23 24  1  0  0  0  0
 23 25  1  0  0  0  0
 23 26  1  0  0  0  0
 27 28  2  0  0  0  0
 27 29  1  0  0  0  0
 29 30  1  0  0  0  0
 29 31  1  0  0  0  0
 31 32  1  0  0  0  0
 31 33  1  0  0  0  0
 31 34  1  0  0  0  0
M  CHG  1  23   1
M  END
$$$$

  -OEChem-01062216093D

 34 33  0     1  0  0  0  0  0999 V2000
   -3.3050   -2.3676    1.3170 H   0  0  0  0  0  0  0  0  0  0  0  0
   -3.4529   -1.2954    1.1585 C   0  0  0  0  0  0  0  0  0  0  0  0
   -3.6192   -0.8204    2.1283 H   0  0  0  0  0  0  0  0  0  0  0  0
   -4.3324   -1.1493    0.5277 H   0  0  0  0  0  0  0  0  0  0  0  0
   -2.2273   -0.6993    0.4946 C   0  0  0  0  0  0  0  0  0  0  0  0
   -1.3570   -1.4210    0.0389 O   0  0  0  0  0  0  0  0  0  0  0  0
   -2.1752    0.6469    0.1836 N   0  0  0  0  0  0  0  0  0  0  0  0
   -3.0076    1.1283    0.5063 H   0  0  0  0  0  0  0  0  0  0  0  0
   -0.9211    1.4157    0.3541 C   0  0  1  0  0  0  0  0  0  0  0  0
   -0.2202    1.0532   -0.4066 H   0  0  0  0  0  0  0  0  0  0  0  0
   -1.2356    2.8937    0.0307 C   0  0  0  0  0  0  0  0  0  0  0  0
   -2.0716    3.2393    0.6485 H   0  0  0  0  0  0  0  0  0  0  0  0
   -0.3663    3.5174    0.2598 H   0  0  0  0  0  0  0  0  0  0  0  0
   -1.5558    3.0683   -1.4654 C   0  0  0  0  0  0  0  0  0  0  0  0
   -0.7060    2.7133   -2.0601 H   0  0  0  0  0  0  0  0  0  0  0  0
   -2.4242    2.4544   -1.7298 H   0  0  0  0  0  0  0  0  0  0  0  0
   -1.8467    4.5337   -1.8109 C   0  0  0  0  0  0  0  0  0  0  0  0
   -2.6884    4.8901   -1.2068 H   0  0  0  0  0  0  0  0  0  0  0  0
   -0.9711    5.1478   -1.5727 H   0  0  0  0  0  0  0  0  0  0  0  0
   -2.1823    4.6530   -3.2976 C   0  0  0  0  0  0  0  0  0  0  0  0
   -1.3310    4.2850   -3.8895 H   0  0  0  0  0  0  0  0  0  0  0  0
   -3.0389    4.0018   -3.5264 H   0  0  0  0  0  0  0  0  0  0  0  0
   -2.4865    6.0632   -3.6259 N   0  3  0  0  0  0  0  0  0  0  0  0
   -1.6784    6.6536   -3.4193 H   0  0  0  0  0  0  0  0  0  0  0  0
   -2.7135    6.1503   -4.6194 H   0  0  0  0  0  0  0  0  0  0  0  0
   -3.2840    6.3878   -3.0758 H   0  0  0  0  0  0  0  0  0  0  0  0
   -0.1421    1.2022    1.6954 C   0  0  0  0  0  0  0  0  0  0  0  0
   -0.1076    0.1244    2.2663 O   0  0  0  0  0  0  0  0  0  0  0  0
    0.3693    2.2792    2.4042 N   0  0  0  0  0  0  0  0  0  0  0  0
    0.3461    3.1927    1.9662 H   0  0  0  0  0  0  0  0  0  0  0  0
    1.0350    2.1443    3.6986 C   0  0  0  0  0  0  0  0  0  0  0  0
    1.9081    1.4880    3.6145 H   0  0  0  0  0  0  0  0  0  0  0  0
    1.3715    3.1215    4.0585 H   0  0  0  0  0  0  0  0  0  0  0  0
    0.3499    1.7214    4.4414 H   0  0  0  0  0  0  0  0  0  0  0  0
  1  2  1  0  0  0  0
  2  3  1  0  0  0  0
  2  4  1  0  0  0  0
  2  5  1  0  0  0  0
  5  6  2  0  0  0  0
  5  7  1  0  0  0  0
  7  8  1  0  0  0  0
  7  9  1  0  0  0  0
  9 10  1  0  0  0  0
  9 11  1  0  0  0  0
  9 27  1  0  0  0  0
 11 12  1  0  0  0  0
 11 13  1  0  0  0  0
 11 14  1  0  0  0  0
 14 15  1  0  0  0  0
 14 16  1  0  0  0  0
 14 17  1  0  0  0  0
 17 18  1  0  0  0  0
 17 19  1  0  0  0  0
 17 20  1  0  0  0  0
 20 21  1  0  0  0  0
 20 22  1  0  0  0  0
 20 23  1  0  0  0  0
 23 24  1  0  0  0  0
 23 25  1  0  0  0  0
 23 26  1  0  0  0  0
 27 28  2  0  0  0  0
 27 29  1  0  0  0  0
 29 30  1  0  0  0  0
 29 31  1  0  0  0  0
 31 32  1  0  0  0  0
 31 33  1  0  0  0  0
 31 34  1  0  0  0  0
M  CHG  1  23   1
M  END
$$$$

  -OEChem-01062216093D

 34 33  0     1  0  0  0  0  0999 V2000
   -3.2911   -2.3784    1.3396 H   0  0  0  0  0  0  0  0  0  0  0  0
   -3.4579   -1.3124    1.1585 C   0  0  0  0  0  0  0  0  0  0  0  0
   -3.6656   -0.8256    2.1142 H   0  0  0  0  0  0  0  0  0  0  0  0
   -4.3207   -1.1978    0.4987 H   0  0  0  0  0  0  0  0  0  0  0  0
   -2.2263   -0.7002    0.5199 C   0  0  0  0  0  0  0  0  0  0  0  0
   -1.3461   -1.4165    0.0795 O   0  0  0  0  0  0  0  0  0  0  0  0
   -2.1911    0.6463    0.2067 N   0  0  0  0  0  0  0  0  0  0  0  0
   -3.0367    1.1192    0.5066 H   0  0  0  0  0  0  0  0  0  0  0  0
   -0.9504    1.4354    0.3710 C   0  0  1  0  0  0  0  0  0  0  0  0
   -0.2443    1.0716   -0.3843 H   0  0  0  0  0  0  0  0  0  0  0  0
   -1.2530    2.9120    0.0372 C   0  0  0  0  0  0  0  0  0  0  0  0
   -2.0930    3.2668    0.6439 H   0  0  0  0  0  0  0  0  0  0  0  0
   -0.3787    3.5274    0.2752 H   0  0  0  0  0  0  0  0  0  0  0  0
   -1.5620    3.0772   -1.4624 C   0  0  0  0  0  0  0  0  0  0  0  0
   -0.7115    2.7114   -2.0494 H   0  0  0  0  0  0  0  0  0  0  0  0
   -2.4327    2.4663   -1.7269 H   0  0  0  0  0  0  0  0  0  0  0  0
   -1.8406    4.5419   -1.8202 C   0  0  0  0  0  0  0  0  0  0  0  0
   -2.6837    4.9080   -1.2241 H   0  0  0  0  0  0  0  0  0  0  0  0
   -0.9623    5.1511   -1.5796 H   0  0  0  0  0  0  0  0  0  0  0  0
   -2.1655    4.6552   -3.3101 C   0  0  0  0  0  0  0  0  0  0  0  0
   -1.3139    4.2770   -3.8953 H   0  0  0  0  0  0  0  0  0  0  0  0
   -3.0263    4.0102   -3.5415 H   0  0  0  0  0  0  0  0  0  0  0  0
   -2.4566    6.0665   -3.6461 N   0  3  0  0  0  0  0  0  0  0  0  0
   -1.6430    6.6504   -3.4417 H   0  0  0  0  0  0  0  0  0  0  0  0
   -2.6814    6.1512   -4.6405 H   0  0  0  0  0  0  0  0  0  0  0  0
   -3.2514    6.4013   -3.0983 H   0  0  0  0  0  0  0  0  0  0  0  0
   -0.1762    1.2274    1.7100 C   0  0  0  0  0  0  0  0  0  0  0  0
    0.2385    0.1349    2.0558 O   0  0  0  0  0  0  0  0  0  0  0  0
    0.0461    2.2861    2.5772 N   0  0  0  0  0  0  0  0  0  0  0  0
   -0.3170    3.1971    2.3213 H   0  0  0  0  0  0  0  0  0  0  0  0
    0.7466    2.1440    3.8516 C   0  0  0  0  0  0  0  0  0  0  0  0
    1.7647    1.7726    3.6912 H   0  0  0  0  0  0  0  0  0  0  0  0
    0.8093    3.1101    4.3617 H   0  0  0  0  0  0  0  0  0  0  0  0
    0.2173    1.4424    4.5054 H   0  0  0  0  0  0  0  0  0  0  0  0
  1  2  1  0  0  0  0
  2  3  1  0  0  0  0
  2  4  1  0  0  0  0
  2  5  1  0  0  0  0
  5  6  2  0  0  0  0
  5  7  1  0  0  0  0
  7  8  1  0  0  0  0
  7  9  1  0  0  0  0
  9 10  1  0  0  0  0
  9 11  1  0  0  0  0
  9 27  1  0  0  0  0
 11 12  1  0  0  0  0
 11 13  1  0  0  0  0
 11 14  1  0  0  0  0
 14 15  1  0  0  0  0
 14 16  1  0  0  0  0
 14 17  1  0  0  0  0
 17 18  1  0  0  0  0
 17 19  1  0  0  0  0
 17 20  1  0  0  0  0
 20 21  1  0  0  0  0
 20 22  1  0  0  0  0
 20 23  1  0  0  0  0
 23 24  1  0  0  0  0
 23 25  1  0  0  0  0
 23 26  1  0  0  0  0
 27 28  2  0  0  0  0
 27 29  1  0  0  0  0
 29 30  1  0  0  0  0
 29 31  1  0  0  0  0
 31 32  1  0  0  0  0
 31 33  1  0  0  0  0
 31 34  1  0  0  0  0
M  CHG  1  23   1
M  END
$$$$

  -OEChem-01062216093D

 34 33  0     1  0  0  0  0  0999 V2000
   -3.4895   -2.3914    1.2153 H   0  0  0  0  0  0  0  0  0  0  0  0
   -3.6184   -1.3349    0.9616 C   0  0  0  0  0  0  0  0  0  0  0  0
   -4.0554   -0.8219    1.8212 H   0  0  0  0  0  0  0  0  0  0  0  0
   -4.2999   -1.2590    0.1112 H   0  0  0  0  0  0  0  0  0  0  0  0
   -2.2763   -0.7197    0.6126 C   0  0  0  0  0  0  0  0  0  0  0  0
   -1.2986   -1.4324    0.5085 O   0  0  0  0  0  0  0  0  0  0  0  0
   -2.1962    0.6205    0.2781 N   0  0  0  0  0  0  0  0  0  0  0  0
   -3.0711    1.1173    0.4045 H   0  0  0  0  0  0  0  0  0  0  0  0
   -0.9588    1.4198    0.4191 C   0  0  1  0  0  0  0  0  0  0  0  0
   -0.2566    1.0426   -0.3345 H   0  0  0  0  0  0  0  0  0  0  0  0
   -1.2488    2.8944    0.0720 C   0  0  0  0  0  0  0  0  0  0  0  0
   -2.0830    3.2618    0.6788 H   0  0  0  0  0  0  0  0  0  0  0  0
   -0.3667    3.4998    0.3089 H   0  0  0  0  0  0  0  0  0  0  0  0
   -1.5653    3.0543   -1.4256 C   0  0  0  0  0  0  0  0  0  0  0  0
   -0.7206    2.6780   -2.0146 H   0  0  0  0  0  0  0  0  0  0  0  0
   -2.4433    2.4508   -1.6816 H   0  0  0  0  0  0  0  0  0  0  0  0
   -1.8301    4.5209   -1.7883 C   0  0  0  0  0  0  0  0  0  0  0  0
   -2.6654    4.8992   -1.1887 H   0  0  0  0  0  0  0  0  0  0  0  0
   -0.9435    5.1212   -1.5553 H   0  0  0  0  0  0  0  0  0  0  0  0
   -2.1629    4.6328   -3.2763 C   0  0  0  0  0  0  0  0  0  0  0  0
   -1.3183    4.2439   -3.8646 H   0  0  0  0  0  0  0  0  0  0  0  0
   -3.0313    3.9961   -3.5009 H   0  0  0  0  0  0  0  0  0  0  0  0
   -2.4402    6.0460   -3.6153 N   0  3  0  0  0  0  0  0  0  0  0  0
   -1.6181    6.6206   -3.4181 H   0  0  0  0  0  0  0  0  0  0  0  0
   -2.6702    6.1301   -4.6084 H   0  0  0  0  0  0  0  0  0  0  0  0
   -3.2270    6.3923   -3.0632 H   0  0  0  0  0  0  0  0  0  0  0  0
   -0.1818    1.2467    1.7556 C   0  0  0  0  0  0  0  0  0  0  0  0
    0.6672    0.3800    1.8763 O   0  0  0  0  0  0  0  0  0  0  0  0
   -0.2281    2.2277    2.7342 N   0  0  0  0  0  0  0  0  0  0  0  0
   -0.9351    2.9490    2.6490 H   0  0  0  0  0  0  0  0  0  0  0  0
    0.5690    2.1690    3.9572 C   0  0  0  0  0  0  0  0  0  0  0  0
    1.6381    2.1992    3.7202 H   0  0  0  0  0  0  0  0  0  0  0  0
    0.3361    3.0189    4.6058 H   0  0  0  0  0  0  0  0  0  0  0  0
    0.3596    1.2463    4.5095 H   0  0  0  0  0  0  0  0  0  0  0  0
  1  2  1  0  0  0  0
  2  3  1  0  0  0  0
  2  4  1  0  0  0  0
  2  5  1  0  0  0  0
  5  6  2  0  0  0  0
  5  7  1  0  0  0  0
  7  8  1  0  0  0  0
  7  9  1  0  0  0  0
  9 10  1  0  0  0  0
  9 11  1  0  0  0  0
  9 27  1  0  0  0  0
 11 12  1  0  0  0  0
 11 13  1  0  0  0  0
 11 14  1  0  0  0  0
 14 15  1  0  0  0  0
 14 16  1  0  0  0  0
 14 17  1  0  0  0  0
 17 18  1  0  0  0  0
 17 19  1  0  0  0  0
 17 20  1  0  0  0  0
 20 21  1  0  0  0  0
 20 22  1  0  0  0  0
 20 23  1  0  0  0  0
 23 24  1  0  0  0  0
 23 25  1  0  0  0  0
 23 26  1  0  0  0  0
 27 28  2  0  0  0  0
 27 29  1  0  0  0  0
 29 30  1  0  0  0  0
 29 31  1  0  0  0  0
 31 32  1  0  0  0  0
 31 33  1  0  0  0  0
 31 34  1  0  0  0  0
M  CHG  1  23   1
M  END
$$$$

  -OEChem-01062216093D

 34 33  0     1  0  0  0  0  0999 V2000
   -3.6117   -2.3965    1.1659 H   0  0  0  0  0  0  0  0  0  0  0  0
   -3.6988   -1.3709    0.7949 C   0  0  0  0  0  0  0  0  0  0  0  0
   -4.3412   -0.8075    1.4756 H   0  0  0  0  0  0  0  0  0  0  0  0
   -4.1565   -1.3952   -0.1969 H   0  0  0  0  0  0  0  0  0  0  0  0
   -2.3264   -0.7291    0.7190 C   0  0  0  0  0  0  0  0  0  0  0  0
   -1.3389   -1.3970    0.9490 O   0  0  0  0  0  0  0  0  0  0  0  0
   -2.2076    0.5971    0.3433 N   0  0  0  0  0  0  0  0  0  0  0  0
   -3.0837    1.0933    0.2245 H   0  0  0  0  0  0  0  0  0  0  0  0
   -0.9633    1.3902    0.4421 C   0  0  1  0  0  0  0  0  0  0  0  0
   -0.2799    0.9894   -0.3162 H   0  0  0  0  0  0  0  0  0  0  0  0
   -1.2318    2.8643    0.0837 C   0  0  0  0  0  0  0  0  0  0  0  0
   -2.0442    3.2538    0.7059 H   0  0  0  0  0  0  0  0  0  0  0  0
   -0.3322    3.4517    0.3015 H   0  0  0  0  0  0  0  0  0  0  0  0
   -1.5780    3.0242   -1.4060 C   0  0  0  0  0  0  0  0  0  0  0  0
   -0.7536    2.6305   -2.0121 H   0  0  0  0  0  0  0  0  0  0  0  0
   -2.4740    2.4394   -1.6411 H   0  0  0  0  0  0  0  0  0  0  0  0
   -1.8179    4.4973   -1.7589 C   0  0  0  0  0  0  0  0  0  0  0  0
   -2.6286    4.8933   -1.1374 H   0  0  0  0  0  0  0  0  0  0  0  0
   -0.9116    5.0749   -1.5444 H   0  0  0  0  0  0  0  0  0  0  0  0
   -2.1828    4.6271   -3.2373 C   0  0  0  0  0  0  0  0  0  0  0  0
   -1.3606    4.2242   -3.8473 H   0  0  0  0  0  0  0  0  0  0  0  0
   -3.0707    4.0129   -3.4470 H   0  0  0  0  0  0  0  0  0  0  0  0
   -2.4339    6.0494   -3.5578 N   0  3  0  0  0  0  0  0  0  0  0  0
   -1.5998    6.6050   -3.3560 H   0  0  0  0  0  0  0  0  0  0  0  0
   -2.6652    6.1507   -4.5490 H   0  0  0  0  0  0  0  0  0  0  0  0
   -3.2118    6.4045   -2.9985 H   0  0  0  0  0  0  0  0  0  0  0  0
   -0.1719    1.2577    1.7707 C   0  0  0  0  0  0  0  0  0  0  0  0
    0.9022    0.6764    1.7695 O   0  0  0  0  0  0  0  0  0  0  0  0
   -0.4368    2.1071    2.8334 N   0  0  0  0  0  0  0  0  0  0  0  0
   -1.3486    2.5496    2.8550 H   0  0  0  0  0  0  0  0  0  0  0  0
    0.3652    2.1104    4.0542 C   0  0  0  0  0  0  0  0  0  0  0  0
    1.4039    2.3784    3.8315 H   0  0  0  0  0  0  0  0  0  0  0  0
   -0.0306    2.8383    4.7691 H   0  0  0  0  0  0  0  0  0  0  0  0
    0.3523    1.1206    4.5237 H   0  0  0  0  0  0  0  0  0  0  0  0
  1  2  1  0  0  0  0
  2  3  1  0  0  0  0
  2  4  1  0  0  0  0
  2  5  1  0  0  0  0
  5  6  2  0  0  0  0
  5  7  1  0  0  0  0
  7  8  1  0  0  0  0
  7  9  1  0  0  0  0
  9 10  1  0  0  0  0
  9 11  1  0  0  0  0
  9 27  1  0  0  0  0
 11 12  1  0  0  0  0
 11 13  1  0  0  0  0
 11 14  1  0  0  0  0
 14 15  1  0  0  0  0
 14 16  1  0  0  0  0
 14 17  1  0  0  0  0
 17 18  1  0  0  0  0
 17 19  1  0  0  0  0
 17 20  1  0  0  0  0
 20 21  1  0  0  0  0
 20 22  1  0  0  0  0
 20 23  1  0  0  0  0
 23 24  1  0  0  0  0
 23 25  1  0  0  0  0
 23 26  1  0  0  0  0
 27 28  2  0  0  0  0
 27 29  1  0  0  0  0
 29 30  1  0  0  0  0
 29 31  1  0  0  0  0
 31 32  1  0  0  0  0
 31 33  1  0  0  0  0
 31 34  1  0  0  0  0
M  CHG  1  23   1
M  END
$$$$

  -OEChem-01062216093D

 34 33  0     1  0  0  0  0  0999 V2000
   -3.6344   -2.4161    1.1527 H   0  0  0  0  0  0  0  0  0  0  0  0
   -3.7095   -1.3993    0.7562 C   0  0  0  0  0  0  0  0  0  0  0  0
   -4.4094   -0.8338    1.3757 H   0  0  0  0  0  0  0  0  0  0  0  0
   -4.0920   -1.4504   -0.2658 H   0  0  0  0  0  0  0  0  0  0  0  0
   -2.3456   -0.7356    0.7685 C   0  0  0  0  0  0  0  0  0  0  0  0
   -1.3710   -1.3695    1.1211 O   0  0  0  0  0  0  0  0  0  0  0  0
   -2.2166    0.5800    0.3601 N   0  0  0  0  0  0  0  0  0  0  0  0
   -3.0784    1.0575    0.1211 H   0  0  0  0  0  0  0  0  0  0  0  0
   -0.9675    1.3669    0.4357 C   0  0  1  0  0  0  0  0  0  0  0  0
   -0.2912    0.9518   -0.3209 H   0  0  0  0  0  0  0  0  0  0  0  0
   -1.2214    2.8423    0.0745 C   0  0  0  0  0  0  0  0  0  0  0  0
   -2.0198    3.2432    0.7075 H   0  0  0  0  0  0  0  0  0  0  0  0
   -0.3118    3.4180    0.2823 H   0  0  0  0  0  0  0  0  0  0  0  0
   -1.5856    3.0112   -1.4096 C   0  0  0  0  0  0  0  0  0  0  0  0
   -0.7755    2.6082   -2.0285 H   0  0  0  0  0  0  0  0  0  0  0  0
   -2.4933    2.4411   -1.6349 H   0  0  0  0  0  0  0  0  0  0  0  0
   -1.8074    4.4910   -1.7491 C   0  0  0  0  0  0  0  0  0  0  0  0
   -2.6027    4.8951   -1.1129 H   0  0  0  0  0  0  0  0  0  0  0  0
   -0.8893    5.0530   -1.5428 H   0  0  0  0  0  0  0  0  0  0  0  0
   -2.1913    4.6407   -3.2205 C   0  0  0  0  0  0  0  0  0  0  0  0
   -1.3845    4.2304   -3.8462 H   0  0  0  0  0  0  0  0  0  0  0  0
   -3.0923    4.0434   -3.4228 H   0  0  0  0  0  0  0  0  0  0  0  0
   -2.4234    6.0704   -3.5228 N   0  3  0  0  0  0  0  0  0  0  0  0
   -1.5761    6.6094   -3.3316 H   0  0  0  0  0  0  0  0  0  0  0  0
   -2.6712    6.1854   -4.5084 H   0  0  0  0  0  0  0  0  0  0  0  0
   -3.1840    6.4339   -2.9454 H   0  0  0  0  0  0  0  0  0  0  0  0
   -0.1775    1.2586    1.7641 C   0  0  0  0  0  0  0  0  0  0  0  0
    0.9996    0.9321    1.7217 O   0  0  0  0  0  0  0  0  0  0  0  0
   -0.6320    1.9091    2.8992 N   0  0  0  0  0  0  0  0  0  0  0  0
   -1.6278    2.0953    2.9457 H   0  0  0  0  0  0  0  0  0  0  0  0
    0.1311    1.9249    4.1441 C   0  0  0  0  0  0  0  0  0  0  0  0
    1.1090    2.3943    3.9911 H   0  0  0  0  0  0  0  0  0  0  0  0
   -0.4043    2.4917    4.9119 H   0  0  0  0  0  0  0  0  0  0  0  0
    0.2867    0.9044    4.5106 H   0  0  0  0  0  0  0  0  0  0  0  0
  1  2  1  0  0  0  0
  2  3  1  0  0  0  0
  2  4  1  0  0  0  0
  2  5  1  0  0  0  0
  5  6  2  0  0  0  0
  5  7  1  0  0  0  0
  7  8  1  0  0  0  0
  7  9  1  0  0  0  0
  9 10  1  0  0  0  0
  9 11  1  0  0  0  0
  9 27  1  0  0  0  0
 11 12  1  0  0  0  0
 11 13  1  0  0  0  0
 11 14  1  0  0  0  0
 14 15  1  0  0  0  0
 14 16  1  0  0  0  0
 14 17  1  0  0  0  0
 17 18  1  0  0  0  0
 17 19  1  0  0  0  0
 17 20  1  0  0  0  0
 20 21  1  0  0  0  0
 20 22  1  0  0  0  0
 20 23  1  0  0  0  0
 23 24  1  0  0  0  0
 23 25  1  0  0  0  0
 23 26  1  0  0  0  0
 27 28  2  0  0  0  0
 27 29  1  0  0  0  0
 29 30  1  0  0  0  0
 29 31  1  0  0  0  0
 31 32  1  0  0  0  0
 31 33  1  0  0  0  0
 31 34  1  0  0  0  0
M  CHG  1  23   1
M  END
$$$$

  -OEChem-01062216093D

 34 33  0     1  0  0  0  0  0999 V2000
   -3.6506   -2.4282    1.1390 H   0  0  0  0  0  0  0  0  0  0  0  0
   -3.7189   -1.4132    0.7365 C   0  0  0  0  0  0  0  0  0  0  0  0
   -4.4434   -0.8504    1.3295 H   0  0  0  0  0  0  0  0  0  0  0  0
   -4.0668   -1.4702   -0.2976 H   0  0  0  0  0  0  0  0  0  0  0  0
   -2.3608   -0.7396    0.7936 C   0  0  0  0  0  0  0  0  0  0  0  0
   -1.3995   -1.3541    1.2128 O   0  0  0  0  0  0  0  0  0  0  0  0
   -2.2203    0.5675    0.3618 N   0  0  0  0  0  0  0  0  0  0  0  0
   -3.0668    1.0288    0.0474 H   0  0  0  0  0  0  0  0  0  0  0  0
   -0.9658    1.3484    0.4254 C   0  0  1  0  0  0  0  0  0  0  0  0
   -0.2893    0.9257   -0.3269 H   0  0  0  0  0  0  0  0  0  0  0  0
   -1.2122    2.8250    0.0665 C   0  0  0  0  0  0  0  0  0  0  0  0
   -1.9996    3.2316    0.7098 H   0  0  0  0  0  0  0  0  0  0  0  0
   -0.2964    3.3937    0.2664 H   0  0  0  0  0  0  0  0  0  0  0  0
   -1.5889    3.0012   -1.4131 C   0  0  0  0  0  0  0  0  0  0  0  0
   -0.7881    2.5938   -2.0415 H   0  0  0  0  0  0  0  0  0  0  0  0
   -2.5039    2.4404   -1.6312 H   0  0  0  0  0  0  0  0  0  0  0  0
   -1.8009    4.4847   -1.7423 C   0  0  0  0  0  0  0  0  0  0  0  0
   -2.5853    4.8919   -1.0949 H   0  0  0  0  0  0  0  0  0  0  0  0
   -0.8755    5.0365   -1.5413 H   0  0  0  0  0  0  0  0  0  0  0  0
   -2.1980    4.6496   -3.2086 C   0  0  0  0  0  0  0  0  0  0  0  0
   -1.4016    4.2372   -3.8460 H   0  0  0  0  0  0  0  0  0  0  0  0
   -3.1071    4.0632   -3.4065 H   0  0  0  0  0  0  0  0  0  0  0  0
   -2.4192    6.0842   -3.4954 N   0  3  0  0  0  0  0  0  0  0  0  0
   -1.5662    6.6138   -3.3018 H   0  0  0  0  0  0  0  0  0  0  0  0
   -2.6704    6.2124   -4.4786 H   0  0  0  0  0  0  0  0  0  0  0  0
   -3.1740    6.4478   -2.9105 H   0  0  0  0  0  0  0  0  0  0  0  0
   -0.1799    1.2599    1.7555 C   0  0  0  0  0  0  0  0  0  0  0  0
    1.0400    1.1872    1.7080 O   0  0  0  0  0  0  0  0  0  0  0  0
   -0.7742    1.6628    2.9389 N   0  0  0  0  0  0  0  0  0  0  0  0
   -1.7868    1.6092    2.9680 H   0  0  0  0  0  0  0  0  0  0  0  0
   -0.0510    1.6641    4.2067 C   0  0  0  0  0  0  0  0  0  0  0  0
    0.8187    2.3276    4.1537 H   0  0  0  0  0  0  0  0  0  0  0  0
   -0.7004    2.0148    5.0145 H   0  0  0  0  0  0  0  0  0  0  0  0
    0.2936    0.6535    4.4516 H   0  0  0  0  0  0  0  0  0  0  0  0
  1  2  1  0  0  0  0
  2  3  1  0  0  0  0
  2  4  1  0  0  0  0
  2  5  1  0  0  0  0
  5  6  2  0  0  0  0
  5  7  1  0  0  0  0
  7  8  1  0  0  0  0
  7  9  1  0  0  0  0
  9 10  1  0  0  0  0
  9 11  1  0  0  0  0
  9 27  1  0  0  0  0
 11 12  1  0  0  0  0
 11 13  1  0  0  0  0
 11 14  1  0  0  0  0
 14 15  1  0  0  0  0
 14 16  1  0  0  0  0
 14 17  1  0  0  0  0
 17 18  1  0  0  0  0
 17 19  1  0  0  0  0
 17 20  1  0  0  0  0
 20 21  1  0  0  0  0
 20 22  1  0  0  0  0
 20 23  1  0  0  0  0
 23 24  1  0  0  0  0
 23 25  1  0  0  0  0
 23 26  1  0  0  0  0
 27 28  2  0  0  0  0
 27 29  1  0  0  0  0
 29 30  1  0  0  0  0
 29 31  1  0  0  0  0
 31 32  1  0  0  0  0
 31 33  1  0  0  0  0
 31 34  1  0  0  0  0
M  CHG  1  23   1
M  END
$$$$

  -OEChem-01062216093D

 34 33  0     1  0  0  0  0  0999 V2000
   -3.6746   -2.4357    1.1150 H   0  0  0  0  0  0  0  0  0  0  0  0
   -3.7369   -1.4202    0.7121 C   0  0  0  0  0  0  0  0  0  0  0  0
   -4.4751   -0.8595    1.2903 H   0  0  0  0  0  0  0  0  0  0  0  0
   -4.0634   -1.4775   -0.3289 H   0  0  0  0  0  0  0  0  0  0  0  0
   -2.3817   -0.7436    0.7972 C   0  0  0  0  0  0  0  0  0  0  0  0
   -1.4329   -1.3472    1.2592 O   0  0  0  0  0  0  0  0  0  0  0  0
   -2.2298    0.5591    0.3565 N   0  0  0  0  0  0  0  0  0  0  0  0
   -3.0651    1.0147    0.0056 H   0  0  0  0  0  0  0  0  0  0  0  0
   -0.9723    1.3361    0.4256 C   0  0  1  0  0  0  0  0  0  0  0  0
   -0.2913    0.9107   -0.3204 H   0  0  0  0  0  0  0  0  0  0  0  0
   -1.2200    2.8125    0.0627 C   0  0  0  0  0  0  0  0  0  0  0  0
   -2.0109    3.2159    0.7041 H   0  0  0  0  0  0  0  0  0  0  0  0
   -0.3074    3.3853    0.2657 H   0  0  0  0  0  0  0  0  0  0  0  0
   -1.5915    2.9930   -1.4176 C   0  0  0  0  0  0  0  0  0  0  0  0
   -0.7879    2.5893   -2.0444 H   0  0  0  0  0  0  0  0  0  0  0  0
   -2.5053    2.4329   -1.6416 H   0  0  0  0  0  0  0  0  0  0  0  0
   -1.8026    4.4789   -1.7389 C   0  0  0  0  0  0  0  0  0  0  0  0
   -2.5896    4.8816   -1.0916 H   0  0  0  0  0  0  0  0  0  0  0  0
   -0.8780    5.0296   -1.5307 H   0  0  0  0  0  0  0  0  0  0  0  0
   -2.1948    4.6562   -3.2051 C   0  0  0  0  0  0  0  0  0  0  0  0
   -1.3958    4.2494   -3.8427 H   0  0  0  0  0  0  0  0  0  0  0  0
   -3.1032    4.0715   -3.4115 H   0  0  0  0  0  0  0  0  0  0  0  0
   -2.4141    6.0935   -3.4803 N   0  3  0  0  0  0  0  0  0  0  0  0
   -1.5620    6.6210   -3.2774 H   0  0  0  0  0  0  0  0  0  0  0  0
   -2.6598    6.2302   -4.4636 H   0  0  0  0  0  0  0  0  0  0  0  0
   -3.1717    6.4523   -2.8961 H   0  0  0  0  0  0  0  0  0  0  0  0
   -0.1890    1.2650    1.7584 C   0  0  0  0  0  0  0  0  0  0  0  0
    1.0222    1.4346    1.7262 O   0  0  0  0  0  0  0  0  0  0  0  0
   -0.8501    1.3815    2.9681 N   0  0  0  0  0  0  0  0  0  0  0  0
   -1.8209    1.0860    2.9639 H   0  0  0  0  0  0  0  0  0  0  0  0
   -0.1366    1.3545    4.2406 C   0  0  0  0  0  0  0  0  0  0  0  0
    0.5895    2.1730    4.2925 H   0  0  0  0  0  0  0  0  0  0  0  0
   -0.8386    1.4666    5.0724 H   0  0  0  0  0  0  0  0  0  0  0  0
    0.3957    0.4045    4.3609 H   0  0  0  0  0  0  0  0  0  0  0  0
  1  2  1  0  0  0  0
  2  3  1  0  0  0  0
  2  4  1  0  0  0  0
  2  5  1  0  0  0  0
  5  6  2  0  0  0  0
  5  7  1  0  0  0  0
  7  8  1  0  0  0  0
  7  9  1  0  0  0  0
  9 10  1  0  0  0  0
  9 11  1  0  0  0  0
  9 27  1  0  0  0  0
 11 12  1  0  0  0  0
 11 13  1  0  0  0  0
 11 14  1  0  0  0  0
 14 15  1  0  0  0  0
 14 16  1  0  0  0  0
 14 17  1  0  0  0  0
 17 18  1  0  0  0  0
 17 19  1  0  0  0  0
 17 20  1  0  0  0  0
 20 21  1  0  0  0  0
 20 22  1  0  0  0  0
 20 23  1  0  0  0  0
 23 24  1  0  0  0  0
 23 25  1  0  0  0  0
 23 26  1  0  0  0  0
 27 28  2  0  0  0  0
 27 29  1  0  0  0  0
 29 30  1  0  0  0  0
 29 31  1  0  0  0  0
 31 32  1  0  0  0  0
 31 33  1  0  0  0  0
 31 34  1  0  0  0  0
M  CHG  1  23   1
M  END
$$$$

  -OEChem-01062216093D

 34 33  0     1  0  0  0  0  0999 V2000
   -3.7314   -2.4265    1.0479 H   0  0  0  0  0  0  0  0  0  0  0  0
   -3.7760   -1.4044    0.6600 C   0  0  0  0  0  0  0  0  0  0  0  0
   -4.5198   -0.8452    1.2326 H   0  0  0  0  0  0  0  0  0  0  0  0
   -4.0826   -1.4421   -0.3879 H   0  0  0  0  0  0  0  0  0  0  0  0
   -2.4160   -0.7433    0.7813 C   0  0  0  0  0  0  0  0  0  0  0  0
   -1.4881   -1.3541    1.2756 O   0  0  0  0  0  0  0  0  0  0  0  0
   -2.2360    0.5563    0.3442 N   0  0  0  0  0  0  0  0  0  0  0  0
   -3.0596    1.0226   -0.0205 H   0  0  0  0  0  0  0  0  0  0  0  0
   -0.9730    1.3245    0.4334 C   0  0  1  0  0  0  0  0  0  0  0  0
   -0.2835    0.8996   -0.3045 H   0  0  0  0  0  0  0  0  0  0  0  0
   -1.2317    2.7992    0.0661 C   0  0  0  0  0  0  0  0  0  0  0  0
   -2.0323    3.1936    0.7012 H   0  0  0  0  0  0  0  0  0  0  0  0
   -0.3288    3.3845    0.2759 H   0  0  0  0  0  0  0  0  0  0  0  0
   -1.5897    2.9789   -1.4176 C   0  0  0  0  0  0  0  0  0  0  0  0
   -0.7761    2.5842   -2.0372 H   0  0  0  0  0  0  0  0  0  0  0  0
   -2.4966    2.4123   -1.6529 H   0  0  0  0  0  0  0  0  0  0  0  0
   -1.8101    4.4643   -1.7332 C   0  0  0  0  0  0  0  0  0  0  0  0
   -2.6064    4.8562   -1.0907 H   0  0  0  0  0  0  0  0  0  0  0  0
   -0.8922    5.0210   -1.5125 H   0  0  0  0  0  0  0  0  0  0  0  0
   -2.1896    4.6493   -3.2014 C   0  0  0  0  0  0  0  0  0  0  0  0
   -1.3822    4.2538   -3.8355 H   0  0  0  0  0  0  0  0  0  0  0  0
   -3.0921    4.0603   -3.4212 H   0  0  0  0  0  0  0  0  0  0  0  0
   -2.4167    6.0878   -3.4633 N   0  3  0  0  0  0  0  0  0  0  0  0
   -1.5718    6.6196   -3.2424 H   0  0  0  0  0  0  0  0  0  0  0  0
   -2.6507    6.2345   -4.4479 H   0  0  0  0  0  0  0  0  0  0  0  0
   -3.1848    6.4336   -2.8851 H   0  0  0  0  0  0  0  0  0  0  0  0
   -0.1939    1.2662    1.7725 C   0  0  0  0  0  0  0  0  0  0  0  0
    0.9689    1.6487    1.7781 O   0  0  0  0  0  0  0  0  0  0  0  0
   -0.8471    1.0885    2.9785 N   0  0  0  0  0  0  0  0  0  0  0  0
   -1.7151    0.5648    2.9155 H   0  0  0  0  0  0  0  0  0  0  0  0
   -0.1214    1.0364    4.2435 C   0  0  0  0  0  0  0  0  0  0  0  0
    0.4209    1.9722    4.4163 H   0  0  0  0  0  0  0  0  0  0  0  0
   -0.8173    0.8854    5.0742 H   0  0  0  0  0  0  0  0  0  0  0  0
    0.5977    0.2101    4.2381 H   0  0  0  0  0  0  0  0  0  0  0  0
  1  2  1  0  0  0  0
  2  3  1  0  0  0  0
  2  4  1  0  0  0  0
  2  5  1  0  0  0  0
  5  6  2  0  0  0  0
  5  7  1  0  0  0  0
  7  8  1  0  0  0  0
  7  9  1  0  0  0  0
  9 10  1  0  0  0  0
  9 11  1  0  0  0  0
  9 27  1  0  0  0  0
 11 12  1  0  0  0  0
 11 13  1  0  0  0  0
 11 14  1  0  0  0  0
 14 15  1  0  0  0  0
 14 16  1  0  0  0  0
 14 17  1  0  0  0  0
 17 18  1  0  0  0  0
 17 19  1  0  0  0  0
 17 20  1  0  0  0  0
 20 21  1  0  0  0  0
 20 22  1  0  0  0  0
 20 23  1  0  0  0  0
 23 24  1  0  0  0  0
 23 25  1  0  0  0  0
 23 26  1  0  0  0  0
 27 28  2  0  0  0  0
 27 29  1  0  0  0  0
 29 30  1  0  0  0  0
 29 31  1  0  0  0  0
 31 32  1  0  0  0  0
 31 33  1  0  0  0  0
 31 34  1  0  0  0  0
M  CHG  1  23   1
M  END
$$$$

  -OEChem-01062216093D

 34 33  0     1  0  0  0  0  0999 V2000
   -3.7988   -2.4034    1.0045 H   0  0  0  0  0  0  0  0  0  0  0  0
   -3.8208   -1.3760    0.6284 C   0  0  0  0  0  0  0  0  0  0  0  0
   -4.5400   -0.8033    1.2186 H   0  0  0  0  0  0  0  0  0  0  0  0
   -4.1442   -1.3935   -0.4150 H   0  0  0  0  0  0  0  0  0  0  0  0
   -2.4423   -0.7526    0.7359 C   0  0  0  0  0  0  0  0  0  0  0  0
   -1.5229   -1.3955    1.2059 O   0  0  0  0  0  0  0  0  0  0  0  0
   -2.2375    0.5504    0.3218 N   0  0  0  0  0  0  0  0  0  0  0  0
   -3.0656    1.0477    0.0119 H   0  0  0  0  0  0  0  0  0  0  0  0
   -0.9726    1.3144    0.4409 C   0  0  1  0  0  0  0  0  0  0  0  0
   -0.2742    0.8979   -0.2932 H   0  0  0  0  0  0  0  0  0  0  0  0
   -1.2468    2.7888    0.0722 C   0  0  0  0  0  0  0  0  0  0  0  0
   -2.0622    3.1691    0.6967 H   0  0  0  0  0  0  0  0  0  0  0  0
   -0.3588    3.3914    0.2941 H   0  0  0  0  0  0  0  0  0  0  0  0
   -1.5841    2.9703   -1.4166 C   0  0  0  0  0  0  0  0  0  0  0  0
   -0.7550    2.5906   -2.0248 H   0  0  0  0  0  0  0  0  0  0  0  0
   -2.4793    2.3924   -1.6696 H   0  0  0  0  0  0  0  0  0  0  0  0
   -1.8195    4.4547   -1.7276 C   0  0  0  0  0  0  0  0  0  0  0  0
   -2.6311    4.8325   -1.0956 H   0  0  0  0  0  0  0  0  0  0  0  0
   -0.9126    5.0224   -1.4896 H   0  0  0  0  0  0  0  0  0  0  0  0
   -2.1784    4.6443   -3.2002 C   0  0  0  0  0  0  0  0  0  0  0  0
   -1.3559    4.2640   -3.8241 H   0  0  0  0  0  0  0  0  0  0  0  0
   -3.0691    4.0449   -3.4380 H   0  0  0  0  0  0  0  0  0  0  0  0
   -2.4202    6.0814   -3.4562 N   0  3  0  0  0  0  0  0  0  0  0  0
   -1.5843    6.6220   -3.2227 H   0  0  0  0  0  0  0  0  0  0  0  0
   -2.6450    6.2312   -4.4424 H   0  0  0  0  0  0  0  0  0  0  0  0
   -3.1987    6.4143   -2.8844 H   0  0  0  0  0  0  0  0  0  0  0  0
   -0.1966    1.2534    1.7874 C   0  0  0  0  0  0  0  0  0  0  0  0
    0.8815    1.8300    1.8579 O   0  0  0  0  0  0  0  0  0  0  0  0
   -0.7725    0.7777    2.9510 N   0  0  0  0  0  0  0  0  0  0  0  0
   -1.4757    0.0583    2.7940 H   0  0  0  0  0  0  0  0  0  0  0  0
   -0.0320    0.7153    4.2072 C   0  0  0  0  0  0  0  0  0  0  0  0
    0.2971    1.7144    4.5122 H   0  0  0  0  0  0  0  0  0  0  0  0
   -0.6661    0.3071    5.0002 H   0  0  0  0  0  0  0  0  0  0  0  0
    0.8489    0.0728    4.1018 H   0  0  0  0  0  0  0  0  0  0  0  0
  1  2  1  0  0  0  0
  2  3  1  0  0  0  0
  2  4  1  0  0  0  0
  2  5  1  0  0  0  0
  5  6  2  0  0  0  0
  5  7  1  0  0  0  0
  7  8  1  0  0  0  0
  7  9  1  0  0  0  0
  9 10  1  0  0  0  0
  9 11  1  0  0  0  0
  9 27  1  0  0  0  0
 11 12  1  0  0  0  0
 11 13  1  0  0  0  0
 11 14  1  0  0  0  0
 14 15  1  0  0  0  0
 14 16  1  0  0  0  0
 14 17  1  0  0  0  0
 17 18  1  0  0  0  0
 17 19  1  0  0  0  0
 17 20  1  0  0  0  0
 20 21  1  0  0  0  0
 20 22  1  0  0  0  0
 20 23  1  0  0  0  0
 23 24  1  0  0  0  0
 23 25  1  0  0  0  0
 23 26  1  0  0  0  0
 27 28  2  0  0  0  0
 27 29  1  0  0  0  0
 29 30  1  0  0  0  0
 29 31  1  0  0  0  0
 31 32  1  0  0  0  0
 31 33  1  0  0  0  0
 31 34  1  0  0  0  0
M  CHG  1  23   1
M  END
$$$$

  -OEChem-01062216093D

 34 33  0     1  0  0  0  0  0999 V2000
   -3.8379   -2.3705    1.0204 H   0  0  0  0  0  0  0  0  0  0  0  0
   -3.8470   -1.3436    0.6430 C   0  0  0  0  0  0  0  0  0  0  0  0
   -4.5131   -0.7471    1.2712 H   0  0  0  0  0  0  0  0  0  0  0  0
   -4.2282   -1.3507   -0.3808 H   0  0  0  0  0  0  0  0  0  0  0  0
   -2.4455   -0.7650    0.6711 C   0  0  0  0  0  0  0  0  0  0  0  0
   -1.5108   -1.4573    1.0296 O   0  0  0  0  0  0  0  0  0  0  0  0
   -2.2322    0.5461    0.2895 N   0  0  0  0  0  0  0  0  0  0  0  0
   -3.0751    1.0758    0.0936 H   0  0  0  0  0  0  0  0  0  0  0  0
   -0.9710    1.3119    0.4439 C   0  0  1  0  0  0  0  0  0  0  0  0
   -0.2598    0.9095   -0.2859 H   0  0  0  0  0  0  0  0  0  0  0  0
   -1.2636    2.7853    0.0753 C   0  0  0  0  0  0  0  0  0  0  0  0
   -2.0962    3.1508    0.6858 H   0  0  0  0  0  0  0  0  0  0  0  0
   -0.3925    3.4064    0.3106 H   0  0  0  0  0  0  0  0  0  0  0  0
   -1.5745    2.9661   -1.4192 C   0  0  0  0  0  0  0  0  0  0  0  0
   -0.7272    2.6034   -2.0124 H   0  0  0  0  0  0  0  0  0  0  0  0
   -2.4540    2.3739   -1.6931 H   0  0  0  0  0  0  0  0  0  0  0  0
   -1.8289    4.4477   -1.7265 C   0  0  0  0  0  0  0  0  0  0  0  0
   -2.6583    4.8080   -1.1079 H   0  0  0  0  0  0  0  0  0  0  0  0
   -0.9366    5.0292   -1.4676 H   0  0  0  0  0  0  0  0  0  0  0  0
   -2.1624    4.6405   -3.2044 C   0  0  0  0  0  0  0  0  0  0  0  0
   -1.3218    4.2782   -3.8148 H   0  0  0  0  0  0  0  0  0  0  0  0
   -3.0386    4.0283   -3.4637 H   0  0  0  0  0  0  0  0  0  0  0  0
   -2.4229    6.0756   -3.4537 N   0  3  0  0  0  0  0  0  0  0  0  0
   -1.5950    6.6261   -3.2148 H   0  0  0  0  0  0  0  0  0  0  0  0
   -2.6468    6.2276   -4.4398 H   0  0  0  0  0  0  0  0  0  0  0  0
   -3.2075    6.3948   -2.8822 H   0  0  0  0  0  0  0  0  0  0  0  0
   -0.2039    1.2361    1.7996 C   0  0  0  0  0  0  0  0  0  0  0  0
    0.7574    1.9764    1.9659 O   0  0  0  0  0  0  0  0  0  0  0  0
   -0.6403    0.4852    2.8751 N   0  0  0  0  0  0  0  0  0  0  0  0
   -1.1974   -0.3280    2.6115 H   0  0  0  0  0  0  0  0  0  0  0  0
    0.1127    0.3979    4.1223 C   0  0  0  0  0  0  0  0  0  0  0  0
    0.2329    1.3898    4.5711 H   0  0  0  0  0  0  0  0  0  0  0  0
   -0.4152   -0.2402    4.8376 H   0  0  0  0  0  0  0  0  0  0  0  0
    1.1053   -0.0290    3.9427 H   0  0  0  0  0  0  0  0  0  0  0  0
  1  2  1  0  0  0  0
  2  3  1  0  0  0  0
  2  4  1  0  0  0  0
  2  5  1  0  0  0  0
  5  6  2  0  0  0  0
  5  7  1  0  0  0  0
  7  8  1  0  0  0  0
  7  9  1  0  0  0  0
  9 10  1  0  0  0  0
  9 11  1  0  0  0  0
  9 27  1  0  0  0  0
 11 12  1  0  0  0  0
 11 13  1  0  0  0  0
 11 14  1  0  0  0  0
 14 15  1  0  0  0  0
 14 16  1  0  0  0  0
 14 17  1  0  0  0  0
 17 18  1  0  0  0  0
 17 19  1  0  0  0  0
 17 20  1  0  0  0  0
 20 21  1  0  0  0  0
 20 22  1  0  0  0  0
 20 23  1  0  0  0  0
 23 24  1  0  0  0  0
 23 25  1  0  0  0  0
 23 26  1  0  0  0  0
 27 28  2  0  0  0  0
 27 29  1  0  0  0  0
 29 30  1  0  0  0  0
 29 31  1  0  0  0  0
 31 32  1  0  0  0  0
 31 33  1  0  0  0  0
 31 34  1  0  0  0  0
M  CHG  1  23   1
M  END
$$$$

  -OEChem-01062216093D

 34 33  0     1  0  0  0  0  0999 V2000
   -3.8350   -2.3560    1.0499 H   0  0  0  0  0  0  0  0  0  0  0  0
   -3.8510   -1.3253    0.6833 C   0  0  0  0  0  0  0  0  0  0  0  0
   -4.4619   -0.7233    1.3605 H   0  0  0  0  0  0  0  0  0  0  0  0
   -4.3011   -1.3144   -0.3122 H   0  0  0  0  0  0  0  0  0  0  0  0
   -2.4403   -0.7722    0.6226 C   0  0  0  0  0  0  0  0  0  0  0  0
   -1.4917   -1.5024    0.8470 O   0  0  0  0  0  0  0  0  0  0  0  0
   -2.2314    0.5473    0.2696 N   0  0  0  0  0  0  0  0  0  0  0  0
   -3.0833    1.0903    0.1741 H   0  0  0  0  0  0  0  0  0  0  0  0
   -0.9743    1.3151    0.4476 C   0  0  1  0  0  0  0  0  0  0  0  0
   -0.2564    0.9230   -0.2807 H   0  0  0  0  0  0  0  0  0  0  0  0
   -1.2767    2.7879    0.0782 C   0  0  0  0  0  0  0  0  0  0  0  0
   -2.1190    3.1460    0.6795 H   0  0  0  0  0  0  0  0  0  0  0  0
   -0.4143    3.4181    0.3204 H   0  0  0  0  0  0  0  0  0  0  0  0
   -1.5688    2.9679   -1.4206 C   0  0  0  0  0  0  0  0  0  0  0  0
   -0.7101    2.6145   -2.0030 H   0  0  0  0  0  0  0  0  0  0  0  0
   -2.4389    2.3677   -1.7074 H   0  0  0  0  0  0  0  0  0  0  0  0
   -1.8338    4.4474   -1.7291 C   0  0  0  0  0  0  0  0  0  0  0  0
   -2.6749    4.7986   -1.1212 H   0  0  0  0  0  0  0  0  0  0  0  0
   -0.9507    5.0367   -1.4573 H   0  0  0  0  0  0  0  0  0  0  0  0
   -2.1489    4.6392   -3.2108 C   0  0  0  0  0  0  0  0  0  0  0  0
   -1.2970    4.2859   -3.8106 H   0  0  0  0  0  0  0  0  0  0  0  0
   -3.0157    4.0188   -3.4823 H   0  0  0  0  0  0  0  0  0  0  0  0
   -2.4201    6.0720   -3.4598 N   0  3  0  0  0  0  0  0  0  0  0  0
   -1.6011    6.6299   -3.2081 H   0  0  0  0  0  0  0  0  0  0  0  0
   -2.6324    6.2245   -4.4483 H   0  0  0  0  0  0  0  0  0  0  0  0
   -3.2153    6.3815   -2.8978 H   0  0  0  0  0  0  0  0  0  0  0  0
   -0.2123    1.2168    1.8095 C   0  0  0  0  0  0  0  0  0  0  0  0
    0.5963    2.0906    2.0975 O   0  0  0  0  0  0  0  0  0  0  0  0
   -0.4581    0.2410    2.7570 N   0  0  0  0  0  0  0  0  0  0  0  0
   -0.9023   -0.6044    2.3941 H   0  0  0  0  0  0  0  0  0  0  0  0
    0.3149    0.1205    3.9892 C   0  0  0  0  0  0  0  0  0  0  0  0
    0.2356    1.0358    4.5853 H   0  0  0  0  0  0  0  0  0  0  0  0
   -0.0596   -0.7136    4.5907 H   0  0  0  0  0  0  0  0  0  0  0  0
    1.3710   -0.0613    3.7632 H   0  0  0  0  0  0  0  0  0  0  0  0
  1  2  1  0  0  0  0
  2  3  1  0  0  0  0
  2  4  1  0  0  0  0
  2  5  1  0  0  0  0
  5  6  2  0  0  0  0
  5  7  1  0  0  0  0
  7  8  1  0  0  0  0
  7  9  1  0  0  0  0
  9 10  1  0  0  0  0
  9 11  1  0  0  0  0
  9 27  1  0  0  0  0
 11 12  1  0  0  0  0
 11 13  1  0  0  0  0
 11 14  1  0  0  0  0
 14 15  1  0  0  0  0
 14 16  1  0  0  0  0
 14 17  1  0  0  0  0
 17 18  1  0  0  0  0
 17 19  1  0  0  0  0
 17 20  1  0  0  0  0
 20 21  1  0  0  0  0
 20 22  1  0  0  0  0
 20 23  1  0  0  0  0
 23 24  1  0  0  0  0
 23 25  1  0  0  0  0
 23 26  1  0  0  0  0
 27 28  2  0  0  0  0
 27 29  1  0  0  0  0
 29 30  1  0  0  0  0
 29 31  1  0  0  0  0
 31 32  1  0  0  0  0
 31 33  1  0  0  0  0
 31 34  1  0  0  0  0
M  CHG  1  23   1
M  END
$$$$

  -OEChem-01062216093D

 34 33  0     1  0  0  0  0  0999 V2000
   -3.8313   -2.3354    1.1133 H   0  0  0  0  0  0  0  0  0  0  0  0
   -3.8606   -1.2847    0.8095 C   0  0  0  0  0  0  0  0  0  0  0  0
   -4.3711   -0.7108    1.5869 H   0  0  0  0  0  0  0  0  0  0  0  0
   -4.4225   -1.2051   -0.1241 H   0  0  0  0  0  0  0  0  0  0  0  0
   -2.4507   -0.7608    0.6150 C   0  0  0  0  0  0  0  0  0  0  0  0
   -1.5029   -1.5235    0.6875 O   0  0  0  0  0  0  0  0  0  0  0  0
   -2.2451    0.5624    0.2738 N   0  0  0  0  0  0  0  0  0  0  0  0
   -3.0938    1.1190    0.2903 H   0  0  0  0  0  0  0  0  0  0  0  0
   -0.9768    1.3154    0.4357 C   0  0  1  0  0  0  0  0  0  0  0  0
   -0.2759    0.9182   -0.3062 H   0  0  0  0  0  0  0  0  0  0  0  0
   -1.2631    2.7925    0.0695 C   0  0  0  0  0  0  0  0  0  0  0  0
   -2.0911    3.1658    0.6814 H   0  0  0  0  0  0  0  0  0  0  0  0
   -0.3862    3.4083    0.2970 H   0  0  0  0  0  0  0  0  0  0  0  0
   -1.5702    2.9705   -1.4268 C   0  0  0  0  0  0  0  0  0  0  0  0
   -0.7234    2.6028   -2.0179 H   0  0  0  0  0  0  0  0  0  0  0  0
   -2.4513    2.3803   -1.7003 H   0  0  0  0  0  0  0  0  0  0  0  0
   -1.8201    4.4508   -1.7423 C   0  0  0  0  0  0  0  0  0  0  0  0
   -2.6505    4.8166   -1.1282 H   0  0  0  0  0  0  0  0  0  0  0  0
   -0.9273    5.0315   -1.4842 H   0  0  0  0  0  0  0  0  0  0  0  0
   -2.1492    4.6334   -3.2224 C   0  0  0  0  0  0  0  0  0  0  0  0
   -1.3077    4.2650   -3.8277 H   0  0  0  0  0  0  0  0  0  0  0  0
   -3.0256    4.0204   -3.4792 H   0  0  0  0  0  0  0  0  0  0  0  0
   -2.4064    6.0667   -3.4832 N   0  3  0  0  0  0  0  0  0  0  0  0
   -1.5881    6.6203   -3.2202 H   0  0  0  0  0  0  0  0  0  0  0  0
   -2.6004    6.2152   -4.4761 H   0  0  0  0  0  0  0  0  0  0  0  0
   -3.2092    6.3845   -2.9370 H   0  0  0  0  0  0  0  0  0  0  0  0
   -0.1973    1.1814    1.7863 C   0  0  0  0  0  0  0  0  0  0  0  0
    0.4291    2.1431    2.2138 O   0  0  0  0  0  0  0  0  0  0  0  0
   -0.2221    0.0472    2.5751 N   0  0  0  0  0  0  0  0  0  0  0  0
   -0.5848   -0.7975    2.1271 H   0  0  0  0  0  0  0  0  0  0  0  0
    0.5656   -0.1051    3.7940 C   0  0  0  0  0  0  0  0  0  0  0  0
    0.3211    0.6850    4.5120 H   0  0  0  0  0  0  0  0  0  0  0  0
    0.3535   -1.0712    4.2622 H   0  0  0  0  0  0  0  0  0  0  0  0
    1.6360   -0.0566    3.5681 H   0  0  0  0  0  0  0  0  0  0  0  0
  1  2  1  0  0  0  0
  2  3  1  0  0  0  0
  2  4  1  0  0  0  0
  2  5  1  0  0  0  0
  5  6  2  0  0  0  0
  5  7  1  0  0  0  0
  7  8  1  0  0  0  0
  7  9  1  0  0  0  0
  9 10  1  0  0  0  0
  9 11  1  0  0  0  0
  9 27  1  0  0  0  0
 11 12  1  0  0  0  0
 11 13  1  0  0  0  0
 11 14  1  0  0  0  0
 14 15  1  0  0  0  0
 14 16  1  0  0  0  0
 14 17  1  0  0  0  0
 17 18  1  0  0  0  0
 17 19  1  0  0  0  0
 17 20  1  0  0  0  0
 20 21  1  0  0  0  0
 20 22  1  0  0  0  0
 20 23  1  0  0  0  0
 23 24  1  0  0  0  0
 23 25  1  0  0  0  0
 23 26  1  0  0  0  0
 27 28  2  0  0  0  0
 27 29  1  0  0  0  0
 29 30  1  0  0  0  0
 29 31  1  0  0  0  0
 31 32  1  0  0  0  0
 31 33  1  0  0  0  0
 31 34  1  0  0  0  0
M  CHG  1  23   1
M  END
$$$$

  -OEChem-01062216093D

 34 33  0     1  0  0  0  0  0999 V2000
   -3.7266   -2.3870    1.0982 H   0  0  0  0  0  0  0  0  0  0  0  0
   -3.7808   -1.3274    0.8318 C   0  0  0  0  0  0  0  0  0  0  0  0
   -4.2568   -0.7856    1.6527 H   0  0  0  0  0  0  0  0  0  0  0  0
   -4.3904   -1.2232   -0.0689 H   0  0  0  0  0  0  0  0  0  0  0  0
   -2.3876   -0.7811    0.5850 C   0  0  0  0  0  0  0  0  0  0  0  0
   -1.4293   -1.5347    0.5866 O   0  0  0  0  0  0  0  0  0  0  0  0
   -2.2137    0.5486    0.2510 N   0  0  0  0  0  0  0  0  0  0  0  0
   -3.0695    1.0910    0.3141 H   0  0  0  0  0  0  0  0  0  0  0  0
   -0.9574    1.3181    0.4181 C   0  0  1  0  0  0  0  0  0  0  0  0
   -0.2490    0.9364   -0.3248 H   0  0  0  0  0  0  0  0  0  0  0  0
   -1.2551    2.7950    0.0645 C   0  0  0  0  0  0  0  0  0  0  0  0
   -2.0866    3.1567    0.6788 H   0  0  0  0  0  0  0  0  0  0  0  0
   -0.3803    3.4112    0.3009 H   0  0  0  0  0  0  0  0  0  0  0  0
   -1.5620    2.9833   -1.4301 C   0  0  0  0  0  0  0  0  0  0  0  0
   -0.7129    2.6259   -2.0235 H   0  0  0  0  0  0  0  0  0  0  0  0
   -2.4386    2.3881   -1.7069 H   0  0  0  0  0  0  0  0  0  0  0  0
   -1.8243    4.4634   -1.7370 C   0  0  0  0  0  0  0  0  0  0  0  0
   -2.6594    4.8180   -1.1225 H   0  0  0  0  0  0  0  0  0  0  0  0
   -0.9372    5.0512   -1.4745 H   0  0  0  0  0  0  0  0  0  0  0  0
   -2.1529    4.6497   -3.2171 C   0  0  0  0  0  0  0  0  0  0  0  0
   -1.3073    4.2908   -3.8223 H   0  0  0  0  0  0  0  0  0  0  0  0
   -3.0234    4.0295   -3.4771 H   0  0  0  0  0  0  0  0  0  0  0  0
   -2.4232    6.0813   -3.4751 N   0  3  0  0  0  0  0  0  0  0  0  0
   -1.6103    6.6424   -3.2114 H   0  0  0  0  0  0  0  0  0  0  0  0
   -2.6191    6.2296   -4.4677 H   0  0  0  0  0  0  0  0  0  0  0  0
   -3.2290    6.3902   -2.9280 H   0  0  0  0  0  0  0  0  0  0  0  0
   -0.1892    1.1720    1.7726 C   0  0  0  0  0  0  0  0  0  0  0  0
    0.2047    2.1751    2.3547 O   0  0  0  0  0  0  0  0  0  0  0  0
    0.0377   -0.0438    2.3869 N   0  0  0  0  0  0  0  0  0  0  0  0
   -0.2523   -0.8790    1.8715 H   0  0  0  0  0  0  0  0  0  0  0  0
    0.7721   -0.2073    3.6366 C   0  0  0  0  0  0  0  0  0  0  0  0
    0.2856    0.3503    4.4439 H   0  0  0  0  0  0  0  0  0  0  0  0
    0.8057   -1.2638    3.9200 H   0  0  0  0  0  0  0  0  0  0  0  0
    1.8000    0.1543    3.5279 H   0  0  0  0  0  0  0  0  0  0  0  0
  1  2  1  0  0  0  0
  2  3  1  0  0  0  0
  2  4  1  0  0  0  0
  2  5  1  0  0  0  0
  5  6  2  0  0  0  0
  5  7  1  0  0  0  0
  7  8  1  0  0  0  0
  7  9  1  0  0  0  0
  9 10  1  0  0  0  0
  9 11  1  0  0  0  0
  9 27  1  0  0  0  0
 11 12  1  0  0  0  0
 11 13  1  0  0  0  0
 11 14  1  0  0  0  0
 14 15  1  0  0  0  0
 14 16  1  0  0  0  0
 14 17  1  0  0  0  0
 17 18  1  0  0  0  0
 17 19  1  0  0  0  0
 17 20  1  0  0  0  0
 20 21  1  0  0  0  0
 20 22  1  0  0  0  0
 20 23  1  0  0  0  0
 23 24  1  0  0  0  0
 23 25  1  0  0  0  0
 23 26  1  0  0  0  0
 27 28  2  0  0  0  0
 27 29  1  0  0  0  0
 29 30  1  0  0  0  0
 29 31  1  0  0  0  0
 31 32  1  0  0  0  0
 31 33  1  0  0  0  0
 31 34  1  0  0  0  0
M  CHG  1  23   1
M  END
$$$$

  -OEChem-01062216093D

 34 33  0     1  0  0  0  0  0999 V2000
   -3.6531   -2.3724    1.2100 H   0  0  0  0  0  0  0  0  0  0  0  0
   -3.7174   -1.3224    0.9096 C   0  0  0  0  0  0  0  0  0  0  0  0
   -4.1690   -0.7531    1.7257 H   0  0  0  0  0  0  0  0  0  0  0  0
   -4.3540   -1.2493    0.0247 H   0  0  0  0  0  0  0  0  0  0  0  0
   -2.3339   -0.7825    0.6020 C   0  0  0  0  0  0  0  0  0  0  0  0
   -1.3755   -1.5361    0.5830 O   0  0  0  0  0  0  0  0  0  0  0  0
   -2.1735    0.5407    0.2367 N   0  0  0  0  0  0  0  0  0  0  0  0
   -3.0255    1.0856    0.3262 H   0  0  0  0  0  0  0  0  0  0  0  0
   -0.9118    1.3050    0.3683 C   0  0  1  0  0  0  0  0  0  0  0  0
   -0.2150    0.9204   -0.3842 H   0  0  0  0  0  0  0  0  0  0  0  0
   -1.2073    2.7830    0.0257 C   0  0  0  0  0  0  0  0  0  0  0  0
   -2.0206    3.1481    0.6620 H   0  0  0  0  0  0  0  0  0  0  0  0
   -0.3201    3.3876    0.2474 H   0  0  0  0  0  0  0  0  0  0  0  0
   -1.5541    2.9809   -1.4585 C   0  0  0  0  0  0  0  0  0  0  0  0
   -0.7247    2.6199   -2.0775 H   0  0  0  0  0  0  0  0  0  0  0  0
   -2.4433    2.3941   -1.7133 H   0  0  0  0  0  0  0  0  0  0  0  0
   -1.8123    4.4653   -1.7476 C   0  0  0  0  0  0  0  0  0  0  0  0
   -2.6268    4.8211   -1.1070 H   0  0  0  0  0  0  0  0  0  0  0  0
   -0.9138    5.0439   -1.5050 H   0  0  0  0  0  0  0  0  0  0  0  0
   -2.1813    4.6675   -3.2158 C   0  0  0  0  0  0  0  0  0  0  0  0
   -1.3570    4.3068   -3.8491 H   0  0  0  0  0  0  0  0  0  0  0  0
   -3.0644    4.0571   -3.4558 H   0  0  0  0  0  0  0  0  0  0  0  0
   -2.4459    6.1039   -3.4523 N   0  3  0  0  0  0  0  0  0  0  0  0
   -1.6172    6.6545   -3.2175 H   0  0  0  0  0  0  0  0  0  0  0  0
   -2.6806    6.2625   -4.4348 H   0  0  0  0  0  0  0  0  0  0  0  0
   -3.2255    6.4170   -2.8706 H   0  0  0  0  0  0  0  0  0  0  0  0
   -0.1429    1.1601    1.7187 C   0  0  0  0  0  0  0  0  0  0  0  0
    0.0418    2.1477    2.4195 O   0  0  0  0  0  0  0  0  0  0  0  0
    0.3264   -0.0540    2.1790 N   0  0  0  0  0  0  0  0  0  0  0  0
    0.0489   -0.8811    1.6433 H   0  0  0  0  0  0  0  0  0  0  0  0
    0.9763   -0.2400    3.4714 C   0  0  0  0  0  0  0  0  0  0  0  0
    0.2941    0.0234    4.2864 H   0  0  0  0  0  0  0  0  0  0  0  0
    1.2774   -1.2848    3.5959 H   0  0  0  0  0  0  0  0  0  0  0  0
    1.8715    0.3865    3.5447 H   0  0  0  0  0  0  0  0  0  0  0  0
  1  2  1  0  0  0  0
  2  3  1  0  0  0  0
  2  4  1  0  0  0  0
  2  5  1  0  0  0  0
  5  6  2  0  0  0  0
  5  7  1  0  0  0  0
  7  8  1  0  0  0  0
  7  9  1  0  0  0  0
  9 10  1  0  0  0  0
  9 11  1  0  0  0  0
  9 27  1  0  0  0  0
 11 12  1  0  0  0  0
 11 13  1  0  0  0  0
 11 14  1  0  0  0  0
 14 15  1  0  0  0  0
 14 16  1  0  0  0  0
 14 17  1  0  0  0  0
 17 18  1  0  0  0  0
 17 19  1  0  0  0  0
 17 20  1  0  0  0  0
 20 21  1  0  0  0  0
 20 22  1  0  0  0  0
 20 23  1  0  0  0  0
 23 24  1  0  0  0  0
 23 25  1  0  0  0  0
 23 26  1  0  0  0  0
 27 28  2  0  0  0  0
 27 29  1  0  0  0  0
 29 30  1  0  0  0  0
 29 31  1  0  0  0  0
 31 32  1  0  0  0  0
 31 33  1  0  0  0  0
 31 34  1  0  0  0  0
M  CHG  1  23   1
M  END
$$$$

  -OEChem-01062216093D

 34 33  0     1  0  0  0  0  0999 V2000
   -3.5379   -2.3957    1.2999 H   0  0  0  0  0  0  0  0  0  0  0  0
   -3.6382   -1.3535    0.9825 C   0  0  0  0  0  0  0  0  0  0  0  0
   -4.0837   -0.7817    1.8003 H   0  0  0  0  0  0  0  0  0  0  0  0
   -4.2993   -1.3137    0.1136 H   0  0  0  0  0  0  0  0  0  0  0  0
   -2.2778   -0.7840    0.6290 C   0  0  0  0  0  0  0  0  0  0  0  0
   -1.2966   -1.5088    0.6179 O   0  0  0  0  0  0  0  0  0  0  0  0
   -2.1566    0.5335    0.2267 N   0  0  0  0  0  0  0  0  0  0  0  0
   -3.0127    1.0686    0.3354 H   0  0  0  0  0  0  0  0  0  0  0  0
   -0.8979    1.3034    0.3329 C   0  0  1  0  0  0  0  0  0  0  0  0
   -0.2037    0.9158   -0.4204 H   0  0  0  0  0  0  0  0  0  0  0  0
   -1.1859    2.7824   -0.0051 C   0  0  0  0  0  0  0  0  0  0  0  0
   -1.9884    3.1530    0.6422 H   0  0  0  0  0  0  0  0  0  0  0  0
   -0.2899    3.3756    0.2111 H   0  0  0  0  0  0  0  0  0  0  0  0
   -1.5544    2.9879   -1.4827 C   0  0  0  0  0  0  0  0  0  0  0  0
   -0.7391    2.6208   -2.1165 H   0  0  0  0  0  0  0  0  0  0  0  0
   -2.4532    2.4102   -1.7244 H   0  0  0  0  0  0  0  0  0  0  0  0
   -1.8029    4.4762   -1.7608 C   0  0  0  0  0  0  0  0  0  0  0  0
   -2.6029    4.8372   -1.1047 H   0  0  0  0  0  0  0  0  0  0  0  0
   -0.8942    5.0438   -1.5304 H   0  0  0  0  0  0  0  0  0  0  0  0
   -2.1937    4.6915   -3.2214 C   0  0  0  0  0  0  0  0  0  0  0  0
   -1.3835    4.3268   -3.8702 H   0  0  0  0  0  0  0  0  0  0  0  0
   -3.0871    4.0923   -3.4509 H   0  0  0  0  0  0  0  0  0  0  0  0
   -2.4473    6.1321   -3.4437 N   0  3  0  0  0  0  0  0  0  0  0  0
   -1.6116    6.6732   -3.2116 H   0  0  0  0  0  0  0  0  0  0  0  0
   -2.6888    6.3008   -4.4228 H   0  0  0  0  0  0  0  0  0  0  0  0
   -3.2191    6.4477   -2.8528 H   0  0  0  0  0  0  0  0  0  0  0  0
   -0.1431    1.1667    1.6877 C   0  0  0  0  0  0  0  0  0  0  0  0
   -0.1536    2.0965    2.4853 O   0  0  0  0  0  0  0  0  0  0  0  0
    0.5683    0.0268    2.0052 N   0  0  0  0  0  0  0  0  0  0  0  0
    0.3441   -0.7969    1.4400 H   0  0  0  0  0  0  0  0  0  0  0  0
    1.1943   -0.1845    3.3056 C   0  0  0  0  0  0  0  0  0  0  0  0
    0.4383   -0.2003    4.0978 H   0  0  0  0  0  0  0  0  0  0  0  0
    1.7285   -1.1396    3.3162 H   0  0  0  0  0  0  0  0  0  0  0  0
    1.9134    0.6129    3.5213 H   0  0  0  0  0  0  0  0  0  0  0  0
  1  2  1  0  0  0  0
  2  3  1  0  0  0  0
  2  4  1  0  0  0  0
  2  5  1  0  0  0  0
  5  6  2  0  0  0  0
  5  7  1  0  0  0  0
  7  8  1  0  0  0  0
  7  9  1  0  0  0  0
  9 10  1  0  0  0  0
  9 11  1  0  0  0  0
  9 27  1  0  0  0  0
 11 12  1  0  0  0  0
 11 13  1  0  0  0  0
 11 14  1  0  0  0  0
 14 15  1  0  0  0  0
 14 16  1  0  0  0  0
 14 17  1  0  0  0  0
 17 18  1  0  0  0  0
 17 19  1  0  0  0  0
 17 20  1  0  0  0  0
 20 21  1  0  0  0  0
 20 22  1  0  0  0  0
 20 23  1  0  0  0  0
 23 24  1  0  0  0  0
 23 25  1  0  0  0  0
 23 26  1  0  0  0  0
 27 28  2  0  0  0  0
 27 29  1  0  0  0  0
 29 30  1  0  0  0  0
 29 31  1  0  0  0  0
 31 32  1  0  0  0  0
 31 33  1  0  0  0  0
 31 34  1  0  0  0  0
M  CHG  1  23   1
M  END
$$$$

  -OEChem-01062216093D

 34 33  0     1  0  0  0  0  0999 V2000
   -3.4609   -2.3915    1.3661 H   0  0  0  0  0  0  0  0  0  0  0  0
   -3.5853   -1.3640    1.0118 C   0  0  0  0  0  0  0  0  0  0  0  0
   -4.0492   -0.7750    1.8070 H   0  0  0  0  0  0  0  0  0  0  0  0
   -4.2421   -1.3709    0.1388 H   0  0  0  0  0  0  0  0  0  0  0  0
   -2.2371   -0.7740    0.6448 C   0  0  0  0  0  0  0  0  0  0  0  0
   -1.2354   -1.4717    0.6612 O   0  0  0  0  0  0  0  0  0  0  0  0
   -2.1421    0.5356    0.2108 N   0  0  0  0  0  0  0  0  0  0  0  0
   -2.9990    1.0671    0.3312 H   0  0  0  0  0  0  0  0  0  0  0  0
   -0.8834    1.3022    0.3052 C   0  0  1  0  0  0  0  0  0  0  0  0
   -0.1873    0.9137   -0.4461 H   0  0  0  0  0  0  0  0  0  0  0  0
   -1.1689    2.7818   -0.0230 C   0  0  0  0  0  0  0  0  0  0  0  0
   -1.9662    3.1516    0.6313 H   0  0  0  0  0  0  0  0  0  0  0  0
   -0.2693    3.3697    0.1930 H   0  0  0  0  0  0  0  0  0  0  0  0
   -1.5522    2.9934   -1.4956 C   0  0  0  0  0  0  0  0  0  0  0  0
   -0.7453    2.6257   -2.1399 H   0  0  0  0  0  0  0  0  0  0  0  0
   -2.4557    2.4196   -1.7294 H   0  0  0  0  0  0  0  0  0  0  0  0
   -1.7984    4.4832   -1.7654 C   0  0  0  0  0  0  0  0  0  0  0  0
   -2.5906    4.8443   -1.0999 H   0  0  0  0  0  0  0  0  0  0  0  0
   -0.8858    5.0475   -1.5422 H   0  0  0  0  0  0  0  0  0  0  0  0
   -2.2038    4.7035   -3.2208 C   0  0  0  0  0  0  0  0  0  0  0  0
   -1.4020    4.3375   -3.8792 H   0  0  0  0  0  0  0  0  0  0  0  0
   -3.1018    4.1080   -3.4417 H   0  0  0  0  0  0  0  0  0  0  0  0
   -2.4549    6.1457   -3.4349 N   0  3  0  0  0  0  0  0  0  0  0  0
   -1.6108    6.6820   -3.2234 H   0  0  0  0  0  0  0  0  0  0  0  0
   -2.7208    6.3170   -4.4073 H   0  0  0  0  0  0  0  0  0  0  0  0
   -3.2097    6.4643   -2.8240 H   0  0  0  0  0  0  0  0  0  0  0  0
   -0.1561    1.1669    1.6713 C   0  0  0  0  0  0  0  0  0  0  0  0
   -0.3505    2.0028    2.5458 O   0  0  0  0  0  0  0  0  0  0  0  0
    0.7747    0.1683    1.8796 N   0  0  0  0  0  0  0  0  0  0  0  0
    0.6613   -0.6466    1.2732 H   0  0  0  0  0  0  0  0  0  0  0  0
    1.4235   -0.0375    3.1701 C   0  0  0  0  0  0  0  0  0  0  0  0
    0.6830   -0.2872    3.9374 H   0  0  0  0  0  0  0  0  0  0  0  0
    2.1452   -0.8578    3.1041 H   0  0  0  0  0  0  0  0  0  0  0  0
    1.9596    0.8661    3.4798 H   0  0  0  0  0  0  0  0  0  0  0  0
  1  2  1  0  0  0  0
  2  3  1  0  0  0  0
  2  4  1  0  0  0  0
  2  5  1  0  0  0  0
  5  6  2  0  0  0  0
  5  7  1  0  0  0  0
  7  8  1  0  0  0  0
  7  9  1  0  0  0  0
  9 10  1  0  0  0  0
  9 11  1  0  0  0  0
  9 27  1  0  0  0  0
 11 12  1  0  0  0  0
 11 13  1  0  0  0  0
 11 14  1  0  0  0  0
 14 15  1  0  0  0  0
 14 16  1  0  0  0  0
 14 17  1  0  0  0  0
 17 18  1  0  0  0  0
 17 19  1  0  0  0  0
 17 20  1  0  0  0  0
 20 21  1  0  0  0  0
 20 22  1  0  0  0  0
 20 23  1  0  0  0  0
 23 24  1  0  0  0  0
 23 25  1  0  0  0  0
 23 26  1  0  0  0  0
 27 28  2  0  0  0  0
 27 29  1  0  0  0  0
 29 30  1  0  0  0  0
 29 31  1  0  0  0  0
 31 32  1  0  0  0  0
 31 33  1  0  0  0  0
 31 34  1  0  0  0  0
M  CHG  1  23   1
M  END
$$$$

  -OEChem-01062216093D

 34 33  0     1  0  0  0  0  0999 V2000
   -3.3885   -2.3954    1.4171 H   0  0  0  0  0  0  0  0  0  0  0  0
   -3.5343   -1.3722    1.0586 C   0  0  0  0  0  0  0  0  0  0  0  0
   -3.9807   -0.7816    1.8624 H   0  0  0  0  0  0  0  0  0  0  0  0
   -4.2162   -1.3927    0.2053 H   0  0  0  0  0  0  0  0  0  0  0  0
   -2.2041   -0.7705    0.6486 C   0  0  0  0  0  0  0  0  0  0  0  0
   -1.1891   -1.4493    0.6639 O   0  0  0  0  0  0  0  0  0  0  0  0
   -2.1355    0.5325    0.1895 N   0  0  0  0  0  0  0  0  0  0  0  0
   -2.9908    1.0597    0.3366 H   0  0  0  0  0  0  0  0  0  0  0  0
   -0.8772    1.2982    0.2735 C   0  0  1  0  0  0  0  0  0  0  0  0
   -0.1819    0.9086   -0.4775 H   0  0  0  0  0  0  0  0  0  0  0  0
   -1.1573    2.7797   -0.0438 C   0  0  0  0  0  0  0  0  0  0  0  0
   -1.9482    3.1497    0.6183 H   0  0  0  0  0  0  0  0  0  0  0  0
   -0.2529    3.3611    0.1699 H   0  0  0  0  0  0  0  0  0  0  0  0
   -1.5535    2.9999   -1.5116 C   0  0  0  0  0  0  0  0  0  0  0  0
   -0.7548    2.6308   -2.1649 H   0  0  0  0  0  0  0  0  0  0  0  0
   -2.4620    2.4318   -1.7393 H   0  0  0  0  0  0  0  0  0  0  0  0
   -1.7945    4.4922   -1.7730 C   0  0  0  0  0  0  0  0  0  0  0  0
   -2.5783    4.8550   -1.0986 H   0  0  0  0  0  0  0  0  0  0  0  0
   -0.8768    5.0508   -1.5568 H   0  0  0  0  0  0  0  0  0  0  0  0
   -2.2127    4.7198   -3.2238 C   0  0  0  0  0  0  0  0  0  0  0  0
   -1.4191    4.3525   -3.8910 H   0  0  0  0  0  0  0  0  0  0  0  0
   -3.1157    4.1297   -3.4384 H   0  0  0  0  0  0  0  0  0  0  0  0
   -2.4587    6.1639   -3.4312 N   0  3  0  0  0  0  0  0  0  0  0  0
   -1.6103    6.6958   -3.2259 H   0  0  0  0  0  0  0  0  0  0  0  0
   -2.7326    6.3392   -4.4007 H   0  0  0  0  0  0  0  0  0  0  0  0
   -3.2067    6.4841   -2.8127 H   0  0  0  0  0  0  0  0  0  0  0  0
   -0.1689    1.1655    1.6471 C   0  0  0  0  0  0  0  0  0  0  0  0
   -0.5553    1.8514    2.5859 O   0  0  0  0  0  0  0  0  0  0  0  0
    0.9574    0.3780    1.7877 N   0  0  0  0  0  0  0  0  0  0  0  0
    1.0393   -0.3736    1.1042 H   0  0  0  0  0  0  0  0  0  0  0  0
    1.6044    0.1805    3.0805 C   0  0  0  0  0  0  0  0  0  0  0  0
    0.9193   -0.3084    3.7813 H   0  0  0  0  0  0  0  0  0  0  0  0
    2.4929   -0.4485    2.9672 H   0  0  0  0  0  0  0  0  0  0  0  0
    1.9171    1.1400    3.5061 H   0  0  0  0  0  0  0  0  0  0  0  0
  1  2  1  0  0  0  0
  2  3  1  0  0  0  0
  2  4  1  0  0  0  0
  2  5  1  0  0  0  0
  5  6  2  0  0  0  0
  5  7  1  0  0  0  0
  7  8  1  0  0  0  0
  7  9  1  0  0  0  0
  9 10  1  0  0  0  0
  9 11  1  0  0  0  0
  9 27  1  0  0  0  0
 11 12  1  0  0  0  0
 11 13  1  0  0  0  0
 11 14  1  0  0  0  0
 14 15  1  0  0  0  0
 14 16  1  0  0  0  0
 14 17  1  0  0  0  0
 17 18  1  0  0  0  0
 17 19  1  0  0  0  0
 17 20  1  0  0  0  0
 20 21  1  0  0  0  0
 20 22  1  0  0  0  0
 20 23  1  0  0  0  0
 23 24  1  0  0  0  0
 23 25  1  0  0  0  0
 23 26  1  0  0  0  0
 27 28  2  0  0  0  0
 27 29  1  0  0  0  0
 29 30  1  0  0  0  0
 29 31  1  0  0  0  0
 31 32  1  0  0  0  0
 31 33  1  0  0  0  0
 31 34  1  0  0  0  0
M  CHG  1  23   1
M  END
$$$$

  -OEChem-01062216093D

 34 33  0     1  0  0  0  0  0999 V2000
   -3.3524   -2.3846    1.4557 H   0  0  0  0  0  0  0  0  0  0  0  0
   -3.5081   -1.3659    1.0888 C   0  0  0  0  0  0  0  0  0  0  0  0
   -3.9356   -0.7660    1.8960 H   0  0  0  0  0  0  0  0  0  0  0  0
   -4.2097   -1.3968    0.2520 H   0  0  0  0  0  0  0  0  0  0  0  0
   -2.1884   -0.7682    0.6414 C   0  0  0  0  0  0  0  0  0  0  0  0
   -1.1722   -1.4452    0.6413 O   0  0  0  0  0  0  0  0  0  0  0  0
   -2.1310    0.5306    0.1689 N   0  0  0  0  0  0  0  0  0  0  0  0
   -2.9818    1.0564    0.3438 H   0  0  0  0  0  0  0  0  0  0  0  0
   -0.8717    1.2944    0.2507 C   0  0  1  0  0  0  0  0  0  0  0  0
   -0.1771    0.9026   -0.4995 H   0  0  0  0  0  0  0  0  0  0  0  0
   -1.1495    2.7781   -0.0544 C   0  0  0  0  0  0  0  0  0  0  0  0
   -1.9364    3.1459    0.6139 H   0  0  0  0  0  0  0  0  0  0  0  0
   -0.2430    3.3561    0.1578 H   0  0  0  0  0  0  0  0  0  0  0  0
   -1.5531    3.0048   -1.5192 C   0  0  0  0  0  0  0  0  0  0  0  0
   -0.7591    2.6351   -2.1780 H   0  0  0  0  0  0  0  0  0  0  0  0
   -2.4643    2.4391   -1.7428 H   0  0  0  0  0  0  0  0  0  0  0  0
   -1.7935    4.4978   -1.7767 C   0  0  0  0  0  0  0  0  0  0  0  0
   -2.5732    4.8611   -1.0978 H   0  0  0  0  0  0  0  0  0  0  0  0
   -0.8743    5.0554   -1.5653 H   0  0  0  0  0  0  0  0  0  0  0  0
   -2.2189    4.7264   -3.2253 C   0  0  0  0  0  0  0  0  0  0  0  0
   -1.4298    4.3578   -3.8975 H   0  0  0  0  0  0  0  0  0  0  0  0
   -3.1238    4.1368   -3.4344 H   0  0  0  0  0  0  0  0  0  0  0  0
   -2.4651    6.1708   -3.4318 N   0  3  0  0  0  0  0  0  0  0  0  0
   -1.6147    6.7022   -3.2332 H   0  0  0  0  0  0  0  0  0  0  0  0
   -2.7463    6.3457   -4.3993 H   0  0  0  0  0  0  0  0  0  0  0  0
   -3.2083    6.4917   -2.8077 H   0  0  0  0  0  0  0  0  0  0  0  0
   -0.1749    1.1647    1.6290 C   0  0  0  0  0  0  0  0  0  0  0  0
   -0.7157    1.6630    2.6090 O   0  0  0  0  0  0  0  0  0  0  0  0
    1.0988    0.6397    1.7383 N   0  0  0  0  0  0  0  0  0  0  0  0
    1.3898    0.0315    0.9766 H   0  0  0  0  0  0  0  0  0  0  0  0
    1.7475    0.4554    3.0326 C   0  0  0  0  0  0  0  0  0  0  0  0
    1.1741   -0.2417    3.6532 H   0  0  0  0  0  0  0  0  0  0  0  0
    2.7554    0.0509    2.8979 H   0  0  0  0  0  0  0  0  0  0  0  0
    1.8293    1.4107    3.5622 H   0  0  0  0  0  0  0  0  0  0  0  0
  1  2  1  0  0  0  0
  2  3  1  0  0  0  0
  2  4  1  0  0  0  0
  2  5  1  0  0  0  0
  5  6  2  0  0  0  0
  5  7  1  0  0  0  0
  7  8  1  0  0  0  0
  7  9  1  0  0  0  0
  9 10  1  0  0  0  0
  9 11  1  0  0  0  0
  9 27  1  0  0  0  0
 11 12  1  0  0  0  0
 11 13  1  0  0  0  0
 11 14  1  0  0  0  0
 14 15  1  0  0  0  0
 14 16  1  0  0  0  0
 14 17  1  0  0  0  0
 17 18  1  0  0  0  0
 17 19  1  0  0  0  0
 17 20  1  0  0  0  0
 20 21  1  0  0  0  0
 20 22  1  0  0  0  0
 20 23  1  0  0  0  0
 23 24  1  0  0  0  0
 23 25  1  0  0  0  0
 23 26  1  0  0  0  0
 27 28  2  0  0  0  0
 27 29  1  0  0  0  0
 29 30  1  0  0  0  0
 29 31  1  0  0  0  0
 31 32  1  0  0  0  0
 31 33  1  0  0  0  0
 31 34  1  0  0  0  0
M  CHG  1  23   1
M  END
$$$$

  -OEChem-01062216093D

 34 33  0     1  0  0  0  0  0999 V2000
   -3.3349   -2.3749    1.4870 H   0  0  0  0  0  0  0  0  0  0  0  0
   -3.4989   -1.3628    1.1056 C   0  0  0  0  0  0  0  0  0  0  0  0
   -3.9175   -0.7514    1.9085 H   0  0  0  0  0  0  0  0  0  0  0  0
   -4.2112   -1.4092    0.2789 H   0  0  0  0  0  0  0  0  0  0  0  0
   -2.1873   -0.7681    0.6312 C   0  0  0  0  0  0  0  0  0  0  0  0
   -1.1738   -1.4487    0.6084 O   0  0  0  0  0  0  0  0  0  0  0  0
   -2.1341    0.5296    0.1540 N   0  0  0  0  0  0  0  0  0  0  0  0
   -2.9810    1.0553    0.3469 H   0  0  0  0  0  0  0  0  0  0  0  0
   -0.8722    1.2896    0.2411 C   0  0  1  0  0  0  0  0  0  0  0  0
   -0.1756    0.8962   -0.5067 H   0  0  0  0  0  0  0  0  0  0  0  0
   -1.1488    2.7743   -0.0553 C   0  0  0  0  0  0  0  0  0  0  0  0
   -1.9360    3.1371    0.6152 H   0  0  0  0  0  0  0  0  0  0  0  0
   -0.2429    3.3517    0.1601 H   0  0  0  0  0  0  0  0  0  0  0  0
   -1.5522    3.0073   -1.5193 C   0  0  0  0  0  0  0  0  0  0  0  0
   -0.7593    2.6389   -2.1798 H   0  0  0  0  0  0  0  0  0  0  0  0
   -2.4641    2.4430   -1.7437 H   0  0  0  0  0  0  0  0  0  0  0  0
   -1.7931    4.5004   -1.7749 C   0  0  0  0  0  0  0  0  0  0  0  0
   -2.5740    4.8616   -1.0964 H   0  0  0  0  0  0  0  0  0  0  0  0
   -0.8745    5.0588   -1.5620 H   0  0  0  0  0  0  0  0  0  0  0  0
   -2.2178    4.7285   -3.2243 C   0  0  0  0  0  0  0  0  0  0  0  0
   -1.4273    4.3605   -3.8953 H   0  0  0  0  0  0  0  0  0  0  0  0
   -3.1217    4.1376   -3.4342 H   0  0  0  0  0  0  0  0  0  0  0  0
   -2.4656    6.1719   -3.4337 N   0  3  0  0  0  0  0  0  0  0  0  0
   -1.6157    6.7046   -3.2371 H   0  0  0  0  0  0  0  0  0  0  0  0
   -2.7480    6.3441   -4.4014 H   0  0  0  0  0  0  0  0  0  0  0  0
   -3.2086    6.4937   -2.8100 H   0  0  0  0  0  0  0  0  0  0  0  0
   -0.1819    1.1609    1.6222 C   0  0  0  0  0  0  0  0  0  0  0  0
   -0.8212    1.4586    2.6243 O   0  0  0  0  0  0  0  0  0  0  0  0
    1.1772    0.9280    1.7224 N   0  0  0  0  0  0  0  0  0  0  0  0
    1.6221    0.5076    0.9111 H   0  0  0  0  0  0  0  0  0  0  0  0
    1.8422    0.7826    3.0137 C   0  0  0  0  0  0  0  0  0  0  0  0
    1.4282   -0.0691    3.5645 H   0  0  0  0  0  0  0  0  0  0  0  0
    2.9144    0.6160    2.8714 H   0  0  0  0  0  0  0  0  0  0  0  0
    1.7141    1.6871    3.6180 H   0  0  0  0  0  0  0  0  0  0  0  0
  1  2  1  0  0  0  0
  2  3  1  0  0  0  0
  2  4  1  0  0  0  0
  2  5  1  0  0  0  0
  5  6  2  0  0  0  0
  5  7  1  0  0  0  0
  7  8  1  0  0  0  0
  7  9  1  0  0  0  0
  9 10  1  0  0  0  0
  9 11  1  0  0  0  0
  9 27  1  0  0  0  0
 11 12  1  0  0  0  0
 11 13  1  0  0  0  0
 11 14  1  0  0  0  0
 14 15  1  0  0  0  0
 14 16  1  0  0  0  0
 14 17  1  0  0  0  0
 17 18  1  0  0  0  0
 17 19  1  0  0  0  0
 17 20  1  0  0  0  0
 20 21  1  0  0  0  0
 20 22  1  0  0  0  0
 20 23  1  0  0  0  0
 23 24  1  0  0  0  0
 23 25  1  0  0  0  0
 23 26  1  0  0  0  0
 27 28  2  0  0  0  0
 27 29  1  0  0  0  0
 29 30  1  0  0  0  0
 29 31  1  0  0  0  0
 31 32  1  0  0  0  0
 31 33  1  0  0  0  0
 31 34  1  0  0  0  0
M  CHG  1  23   1
M  END
$$$$

  -OEChem-01062216093D

 34 33  0     1  0  0  0  0  0999 V2000
   -3.3531   -2.3885    1.4152 H   0  0  0  0  0  0  0  0  0  0  0  0
   -3.4967   -1.3469    1.1142 C   0  0  0  0  0  0  0  0  0  0  0  0
   -3.8479   -0.7787    1.9792 H   0  0  0  0  0  0  0  0  0  0  0  0
   -4.2525   -1.3085    0.3263 H   0  0  0  0  0  0  0  0  0  0  0  0
   -2.1889   -0.7667    0.6125 C   0  0  0  0  0  0  0  0  0  0  0  0
   -1.1839   -1.4582    0.5585 O   0  0  0  0  0  0  0  0  0  0  0  0
   -2.1328    0.5325    0.1403 N   0  0  0  0  0  0  0  0  0  0  0  0
   -2.9739    1.0582    0.3554 H   0  0  0  0  0  0  0  0  0  0  0  0
   -0.8686    1.2875    0.2413 C   0  0  1  0  0  0  0  0  0  0  0  0
   -0.1681    0.8955   -0.5034 H   0  0  0  0  0  0  0  0  0  0  0  0
   -1.1516    2.7717   -0.0506 C   0  0  0  0  0  0  0  0  0  0  0  0
   -1.9450    3.1272    0.6164 H   0  0  0  0  0  0  0  0  0  0  0  0
   -0.2510    3.3548    0.1716 H   0  0  0  0  0  0  0  0  0  0  0  0
   -1.5473    3.0050   -1.5175 C   0  0  0  0  0  0  0  0  0  0  0  0
   -0.7464    2.6434   -2.1724 H   0  0  0  0  0  0  0  0  0  0  0  0
   -2.4530    2.4344   -1.7510 H   0  0  0  0  0  0  0  0  0  0  0  0
   -1.7966    4.4962   -1.7742 C   0  0  0  0  0  0  0  0  0  0  0  0
   -2.5852    4.8513   -1.1013 H   0  0  0  0  0  0  0  0  0  0  0  0
   -0.8836    5.0608   -1.5548 H   0  0  0  0  0  0  0  0  0  0  0  0
   -2.2134    4.7217   -3.2265 C   0  0  0  0  0  0  0  0  0  0  0  0
   -1.4166    4.3588   -3.8928 H   0  0  0  0  0  0  0  0  0  0  0  0
   -3.1120    4.1248   -3.4423 H   0  0  0  0  0  0  0  0  0  0  0  0
   -2.4697    6.1637   -3.4370 N   0  3  0  0  0  0  0  0  0  0  0  0
   -1.6249    6.7023   -3.2352 H   0  0  0  0  0  0  0  0  0  0  0  0
   -2.7467    6.3345   -4.4065 H   0  0  0  0  0  0  0  0  0  0  0  0
   -3.2192    6.4802   -2.8182 H   0  0  0  0  0  0  0  0  0  0  0  0
   -0.1822    1.1565    1.6253 C   0  0  0  0  0  0  0  0  0  0  0  0
   -0.8728    1.2472    2.6337 O   0  0  0  0  0  0  0  0  0  0  0  0
    1.1942    1.2294    1.7427 N   0  0  0  0  0  0  0  0  0  0  0  0
    1.7331    1.0099    0.9100 H   0  0  0  0  0  0  0  0  0  0  0  0
    1.8655    1.1302    3.0353 C   0  0  0  0  0  0  0  0  0  0  0  0
    1.6455    0.1669    3.5080 H   0  0  0  0  0  0  0  0  0  0  0  0
    2.9493    1.2149    2.9087 H   0  0  0  0  0  0  0  0  0  0  0  0
    1.5344    1.9320    3.7041 H   0  0  0  0  0  0  0  0  0  0  0  0
  1  2  1  0  0  0  0
  2  3  1  0  0  0  0
  2  4  1  0  0  0  0
  2  5  1  0  0  0  0
  5  6  2  0  0  0  0
  5  7  1  0  0  0  0
  7  8  1  0  0  0  0
  7  9  1  0  0  0  0
  9 10  1  0  0  0  0
  9 11  1  0  0  0  0
  9 27  1  0  0  0  0
 11 12  1  0  0  0  0
 11 13  1  0  0  0  0
 11 14  1  0  0  0  0
 14 15  1  0  0  0  0
 14 16  1  0  0  0  0
 14 17  1  0  0  0  0
 17 18  1  0  0  0  0
 17 19  1  0  0  0  0
 17 20  1  0  0  0  0
 20 21  1  0  0  0  0
 20 22  1  0  0  0  0
 20 23  1  0  0  0  0
 23 24  1  0  0  0  0
 23 25  1  0  0  0  0
 23 26  1  0  0  0  0
 27 28  2  0  0  0  0
 27 29  1  0  0  0  0
 29 30  1  0  0  0  0
 29 31  1  0  0  0  0
 31 32  1  0  0  0  0
 31 33  1  0  0  0  0
 31 34  1  0  0  0  0
M  CHG  1  23   1
M  END
$$$$

  -OEChem-01062216093D

 34 33  0     1  0  0  0  0  0999 V2000
   -3.3386   -2.3825    1.4367 H   0  0  0  0  0  0  0  0  0  0  0  0
   -3.4901   -1.3435    1.1303 C   0  0  0  0  0  0  0  0  0  0  0  0
   -3.8114   -0.7667    2.0011 H   0  0  0  0  0  0  0  0  0  0  0  0
   -4.2708   -1.3107    0.3672 H   0  0  0  0  0  0  0  0  0  0  0  0
   -2.1974   -0.7709    0.5822 C   0  0  0  0  0  0  0  0  0  0  0  0
   -1.2044   -1.4731    0.4732 O   0  0  0  0  0  0  0  0  0  0  0  0
   -2.1411    0.5342    0.1249 N   0  0  0  0  0  0  0  0  0  0  0  0
   -2.9769    1.0579    0.3636 H   0  0  0  0  0  0  0  0  0  0  0  0
   -0.8728    1.2825    0.2413 C   0  0  1  0  0  0  0  0  0  0  0  0
   -0.1710    0.8940   -0.5043 H   0  0  0  0  0  0  0  0  0  0  0  0
   -1.1572    2.7690   -0.0425 C   0  0  0  0  0  0  0  0  0  0  0  0
   -1.9546    3.1193    0.6224 H   0  0  0  0  0  0  0  0  0  0  0  0
   -0.2601    3.3551    0.1848 H   0  0  0  0  0  0  0  0  0  0  0  0
   -1.5441    3.0072   -1.5110 C   0  0  0  0  0  0  0  0  0  0  0  0
   -0.7387    2.6488   -2.1622 H   0  0  0  0  0  0  0  0  0  0  0  0
   -2.4471    2.4354   -1.7516 H   0  0  0  0  0  0  0  0  0  0  0  0
   -1.7965    4.4981   -1.7672 C   0  0  0  0  0  0  0  0  0  0  0  0
   -2.5899    4.8515   -1.0990 H   0  0  0  0  0  0  0  0  0  0  0  0
   -0.8863    5.0655   -1.5431 H   0  0  0  0  0  0  0  0  0  0  0  0
   -2.2041    4.7199   -3.2226 C   0  0  0  0  0  0  0  0  0  0  0  0
   -1.4010    4.3592   -3.8821 H   0  0  0  0  0  0  0  0  0  0  0  0
   -3.0981    4.1180   -3.4433 H   0  0  0  0  0  0  0  0  0  0  0  0
   -2.4654    6.1599   -3.4399 N   0  3  0  0  0  0  0  0  0  0  0  0
   -1.6255    6.7037   -3.2313 H   0  0  0  0  0  0  0  0  0  0  0  0
   -2.7338    6.3260   -4.4128 H   0  0  0  0  0  0  0  0  0  0  0  0
   -3.2227    6.4743   -2.8298 H   0  0  0  0  0  0  0  0  0  0  0  0
   -0.1819    1.1397    1.6246 C   0  0  0  0  0  0  0  0  0  0  0  0
   -0.8784    1.0236    2.6266 O   0  0  0  0  0  0  0  0  0  0  0  0
    1.1417    1.5104    1.7875 N   0  0  0  0  0  0  0  0  0  0  0  0
    1.7238    1.5119    0.9555 H   0  0  0  0  0  0  0  0  0  0  0  0
    1.8044    1.4781    3.0883 C   0  0  0  0  0  0  0  0  0  0  0  0
    1.7848    0.4647    3.5036 H   0  0  0  0  0  0  0  0  0  0  0  0
    2.8480    1.7925    2.9918 H   0  0  0  0  0  0  0  0  0  0  0  0
    1.3061    2.1546    3.7910 H   0  0  0  0  0  0  0  0  0  0  0  0
  1  2  1  0  0  0  0
  2  3  1  0  0  0  0
  2  4  1  0  0  0  0
  2  5  1  0  0  0  0
  5  6  2  0  0  0  0
  5  7  1  0  0  0  0
  7  8  1  0  0  0  0
  7  9  1  0  0  0  0
  9 10  1  0  0  0  0
  9 11  1  0  0  0  0
  9 27  1  0  0  0  0
 11 12  1  0  0  0  0
 11 13  1  0  0  0  0
 11 14  1  0  0  0  0
 14 15  1  0  0  0  0
 14 16  1  0  0  0  0
 14 17  1  0  0  0  0
 17 18  1  0  0  0  0
 17 19  1  0  0  0  0
 17 20  1  0  0  0  0
 20 21  1  0  0  0  0
 20 22  1  0  0  0  0
 20 23  1  0  0  0  0
 23 24  1  0  0  0  0
 23 25  1  0  0  0  0
 23 26  1  0  0  0  0
 27 28  2  0  0  0  0
 27 29  1  0  0  0  0
 29 30  1  0  0  0  0
 29 31  1  0  0  0  0
 31 32  1  0  0  0  0
 31 33  1  0  0  0  0
 31 34  1  0  0  0  0
M  CHG  1  23   1
M  END
$$$$

  -OEChem-01062216093D

 34 33  0     1  0  0  0  0  0999 V2000
   -3.4712   -2.3691    1.2726 H   0  0  0  0  0  0  0  0  0  0  0  0
   -3.5606   -1.3002    1.0579 C   0  0  0  0  0  0  0  0  0  0  0  0
   -3.8068   -0.7780    1.9856 H   0  0  0  0  0  0  0  0  0  0  0  0
   -4.3646   -1.1525    0.3335 H   0  0  0  0  0  0  0  0  0  0  0  0
   -2.2518   -0.7733    0.5024 C   0  0  0  0  0  0  0  0  0  0  0  0
   -1.3368   -1.5381    0.2430 O   0  0  0  0  0  0  0  0  0  0  0  0
   -2.1305    0.5478    0.1078 N   0  0  0  0  0  0  0  0  0  0  0  0
   -2.9565    1.0834    0.3489 H   0  0  0  0  0  0  0  0  0  0  0  0
   -0.8501    1.2740    0.2733 C   0  0  1  0  0  0  0  0  0  0  0  0
   -0.2482    1.0943   -0.6233 H   0  0  0  0  0  0  0  0  0  0  0  0
   -1.1907    2.7770    0.3727 C   0  0  0  0  0  0  0  0  0  0  0  0
   -1.9210    2.9299    1.1752 H   0  0  0  0  0  0  0  0  0  0  0  0
   -0.2914    3.3406    0.6413 H   0  0  0  0  0  0  0  0  0  0  0  0
   -1.7315    3.3337   -0.9560 C   0  0  0  0  0  0  0  0  0  0  0  0
   -0.9907    3.1698   -1.7468 H   0  0  0  0  0  0  0  0  0  0  0  0
   -2.6440    2.7971   -1.2386 H   0  0  0  0  0  0  0  0  0  0  0  0
   -2.0361    4.8325   -0.8312 C   0  0  0  0  0  0  0  0  0  0  0  0
   -2.7638    4.9877   -0.0268 H   0  0  0  0  0  0  0  0  0  0  0  0
   -1.1186    5.3698   -0.5668 H   0  0  0  0  0  0  0  0  0  0  0  0
   -2.5954    5.3710   -2.1480 C   0  0  0  0  0  0  0  0  0  0  0  0
   -1.8593    5.2063   -2.9489 H   0  0  0  0  0  0  0  0  0  0  0  0
   -3.4977    4.8024   -2.4174 H   0  0  0  0  0  0  0  0  0  0  0  0
   -2.9027    6.8105   -1.9947 N   0  3  0  0  0  0  0  0  0  0  0  0
   -2.0549    7.3252   -1.7477 H   0  0  0  0  0  0  0  0  0  0  0  0
   -3.2737    7.1862   -2.8707 H   0  0  0  0  0  0  0  0  0  0  0  0
   -3.5976    6.9445   -1.2573 H   0  0  0  0  0  0  0  0  0  0  0  0
    0.0510    0.8509    1.4744 C   0  0  0  0  0  0  0  0  0  0  0  0
   -0.4634    0.3578    2.4711 O   0  0  0  0  0  0  0  0  0  0  0  0
    1.2652    1.4895    1.6739 N   0  0  0  0  0  0  0  0  0  0  0  0
    1.7265    1.8605    0.8496 H   0  0  0  0  0  0  0  0  0  0  0  0
    2.0724    1.2878    2.8753 C   0  0  0  0  0  0  0  0  0  0  0  0
    2.3013    0.2249    3.0104 H   0  0  0  0  0  0  0  0  0  0  0  0
    3.0156    1.8374    2.7964 H   0  0  0  0  0  0  0  0  0  0  0  0
    1.5389    1.6468    3.7622 H   0  0  0  0  0  0  0  0  0  0  0  0
  1  2  1  0  0  0  0
  2  3  1  0  0  0  0
  2  4  1  0  0  0  0
  2  5  1  0  0  0  0
  5  6  2  0  0  0  0
  5  7  1  0  0  0  0
  7  8  1  0  0  0  0
  7  9  1  0  0  0  0
  9 10  1  0  0  0  0
  9 11  1  0  0  0  0
  9 27  1  0  0  0  0
 11 12  1  0  0  0  0
 11 13  1  0  0  0  0
 11 14  1  0  0  0  0
 14 15  1  0  0  0  0
 14 16  1  0  0  0  0
 14 17  1  0  0  0  0
 17 18  1  0  0  0  0
 17 19  1  0  0  0  0
 17 20  1  0  0  0  0
 20 21  1  0  0  0  0
 20 22  1  0  0  0  0
 20 23  1  0  0  0  0
 23 24  1  0  0  0  0
 23 25  1  0  0  0  0
 23 26  1  0  0  0  0
 27 28  2  0  0  0  0
 27 29  1  0  0  0  0
 29 30  1  0  0  0  0
 29 31  1  0  0  0  0
 31 32  1  0  0  0  0
 31 33  1  0  0  0  0
 31 34  1  0  0  0  0
M  CHG  1  23   1
M  END
$$$$

  -OEChem-01062216093D

 34 33  0     1  0  0  0  0  0999 V2000
   -3.4689   -2.3529    1.2391 H   0  0  0  0  0  0  0  0  0  0  0  0
   -3.5488   -1.2749    1.0715 C   0  0  0  0  0  0  0  0  0  0  0  0
   -3.7363   -0.7871    2.0310 H   0  0  0  0  0  0  0  0  0  0  0  0
   -4.3866   -1.0837    0.3974 H   0  0  0  0  0  0  0  0  0  0  0  0
   -2.2600   -0.7504    0.4685 C   0  0  0  0  0  0  0  0  0  0  0  0
   -1.3920   -1.5222    0.0956 O   0  0  0  0  0  0  0  0  0  0  0  0
   -2.1263    0.5826    0.1227 N   0  0  0  0  0  0  0  0  0  0  0  0
   -2.9443    1.1131    0.3988 H   0  0  0  0  0  0  0  0  0  0  0  0
   -0.8432    1.3027    0.3074 C   0  0  1  0  0  0  0  0  0  0  0  0
   -0.2452    1.1348   -0.5943 H   0  0  0  0  0  0  0  0  0  0  0  0
   -1.2028    2.8051    0.4014 C   0  0  0  0  0  0  0  0  0  0  0  0
   -1.9458    2.9522    1.1930 H   0  0  0  0  0  0  0  0  0  0  0  0
   -0.3172    3.3866    0.6745 H   0  0  0  0  0  0  0  0  0  0  0  0
   -1.7290    3.3484   -0.9397 C   0  0  0  0  0  0  0  0  0  0  0  0
   -0.9724    3.1897   -1.7167 H   0  0  0  0  0  0  0  0  0  0  0  0
   -2.6291    2.7984   -1.2352 H   0  0  0  0  0  0  0  0  0  0  0  0
   -2.0569    4.8434   -0.8355 C   0  0  0  0  0  0  0  0  0  0  0  0
   -2.8008    4.9977   -0.0458 H   0  0  0  0  0  0  0  0  0  0  0  0
   -1.1520    5.3976   -0.5625 H   0  0  0  0  0  0  0  0  0  0  0  0
   -2.6001    5.3541   -2.1703 C   0  0  0  0  0  0  0  0  0  0  0  0
   -1.8457    5.1896   -2.9540 H   0  0  0  0  0  0  0  0  0  0  0  0
   -3.4874    4.7665   -2.4490 H   0  0  0  0  0  0  0  0  0  0  0  0
   -2.9339    6.7903   -2.0472 N   0  3  0  0  0  0  0  0  0  0  0  0
   -2.0997    7.3235   -1.7938 H   0  0  0  0  0  0  0  0  0  0  0  0
   -3.2948    7.1447   -2.9363 H   0  0  0  0  0  0  0  0  0  0  0  0
   -3.6449    6.9250   -1.3254 H   0  0  0  0  0  0  0  0  0  0  0  0
    0.0866    0.8594    1.4880 C   0  0  0  0  0  0  0  0  0  0  0  0
   -0.3171    0.0939    2.3531 O   0  0  0  0  0  0  0  0  0  0  0  0
    1.1321    1.6809    1.8849 N   0  0  0  0  0  0  0  0  0  0  0  0
    1.5156    2.3077    1.1858 H   0  0  0  0  0  0  0  0  0  0  0  0
    1.9184    1.4426    3.0942 C   0  0  0  0  0  0  0  0  0  0  0  0
    2.3676    0.4436    3.0705 H   0  0  0  0  0  0  0  0  0  0  0  0
    2.7220    2.1807    3.1767 H   0  0  0  0  0  0  0  0  0  0  0  0
    1.2870    1.5217    3.9858 H   0  0  0  0  0  0  0  0  0  0  0  0
  1  2  1  0  0  0  0
  2  3  1  0  0  0  0
  2  4  1  0  0  0  0
  2  5  1  0  0  0  0
  5  6  2  0  0  0  0
  5  7  1  0  0  0  0
  7  8  1  0  0  0  0
  7  9  1  0  0  0  0
  9 10  1  0  0  0  0
  9 11  1  0  0  0  0
  9 27  1  0  0  0  0
 11 12  1  0  0  0  0
 11 13  1  0  0  0  0
 11 14  1  0  0  0  0
 14 15  1  0  0  0  0
 14 16  1  0  0  0  0
 14 17  1  0  0  0  0
 17 18  1  0  0  0  0
 17 19  1  0  0  0  0
 17 20  1  0  0  0  0
 20 21  1  0  0  0  0
 20 22  1  0  0  0  0
 20 23  1  0  0  0  0
 23 24  1  0  0  0  0
 23 25  1  0  0  0  0
 23 26  1  0  0  0  0
 27 28  2  0  0  0  0
 27 29  1  0  0  0  0
 29 30  1  0  0  0  0
 29 31  1  0  0  0  0
 31 32  1  0  0  0  0
 31 33  1  0  0  0  0
 31 34  1  0  0  0  0
M  CHG  1  23   1
M  END
$$$$

  -OEChem-01062216093D

 34 33  0     1  0  0  0  0  0999 V2000
   -3.4269   -2.3361    1.2541 H   0  0  0  0  0  0  0  0  0  0  0  0
   -3.5147   -1.2561    1.1041 C   0  0  0  0  0  0  0  0  0  0  0  0
   -3.6468   -0.7798    2.0784 H   0  0  0  0  0  0  0  0  0  0  0  0
   -4.3887   -1.0554    0.4807 H   0  0  0  0  0  0  0  0  0  0  0  0
   -2.2610   -0.7263    0.4355 C   0  0  0  0  0  0  0  0  0  0  0  0
   -1.4604   -1.4926   -0.0721 O   0  0  0  0  0  0  0  0  0  0  0  0
   -2.1276    0.6185    0.1442 N   0  0  0  0  0  0  0  0  0  0  0  0
   -2.9471    1.1303    0.4498 H   0  0  0  0  0  0  0  0  0  0  0  0
   -0.8551    1.3509    0.3579 C   0  0  1  0  0  0  0  0  0  0  0  0
   -0.2493    1.1959   -0.5413 H   0  0  0  0  0  0  0  0  0  0  0  0
   -1.2353    2.8504    0.4353 C   0  0  0  0  0  0  0  0  0  0  0  0
   -1.9982    2.9961    1.2080 H   0  0  0  0  0  0  0  0  0  0  0  0
   -0.3637    3.4476    0.7170 H   0  0  0  0  0  0  0  0  0  0  0  0
   -1.7332    3.3725   -0.9263 C   0  0  0  0  0  0  0  0  0  0  0  0
   -0.9538    3.2148   -1.6807 H   0  0  0  0  0  0  0  0  0  0  0  0
   -2.6168    2.8058   -1.2402 H   0  0  0  0  0  0  0  0  0  0  0  0
   -2.0860    4.8640   -0.8545 C   0  0  0  0  0  0  0  0  0  0  0  0
   -2.8545    5.0195   -0.0889 H   0  0  0  0  0  0  0  0  0  0  0  0
   -1.1978    5.4371   -0.5660 H   0  0  0  0  0  0  0  0  0  0  0  0
   -2.5989    5.3438   -2.2128 C   0  0  0  0  0  0  0  0  0  0  0  0
   -1.8203    5.1776   -2.9722 H   0  0  0  0  0  0  0  0  0  0  0  0
   -3.4685    4.7368   -2.5052 H   0  0  0  0  0  0  0  0  0  0  0  0
   -2.9585    6.7766   -2.1259 N   0  3  0  0  0  0  0  0  0  0  0  0
   -2.1394    7.3289   -1.8644 H   0  0  0  0  0  0  0  0  0  0  0  0
   -3.3042    7.1074   -3.0301 H   0  0  0  0  0  0  0  0  0  0  0  0
   -3.6884    6.9135   -1.4238 H   0  0  0  0  0  0  0  0  0  0  0  0
    0.0957    0.8947    1.5218 C   0  0  0  0  0  0  0  0  0  0  0  0
   -0.0574   -0.1569    2.1224 O   0  0  0  0  0  0  0  0  0  0  0  0
    0.9171    1.8136    2.1602 N   0  0  0  0  0  0  0  0  0  0  0  0
    1.1002    2.6886    1.6828 H   0  0  0  0  0  0  0  0  0  0  0  0
    1.7312    1.4841    3.3296 C   0  0  0  0  0  0  0  0  0  0  0  0
    2.4218    0.6655    3.0989 H   0  0  0  0  0  0  0  0  0  0  0  0
    2.3175    2.3530    3.6438 H   0  0  0  0  0  0  0  0  0  0  0  0
    1.0954    1.1786    4.1677 H   0  0  0  0  0  0  0  0  0  0  0  0
  1  2  1  0  0  0  0
  2  3  1  0  0  0  0
  2  4  1  0  0  0  0
  2  5  1  0  0  0  0
  5  6  2  0  0  0  0
  5  7  1  0  0  0  0
  7  8  1  0  0  0  0
  7  9  1  0  0  0  0
  9 10  1  0  0  0  0
  9 11  1  0  0  0  0
  9 27  1  0  0  0  0
 11 12  1  0  0  0  0
 11 13  1  0  0  0  0
 11 14  1  0  0  0  0
 14 15  1  0  0  0  0
 14 16  1  0  0  0  0
 14 17  1  0  0  0  0
 17 18  1  0  0  0  0
 17 19  1  0  0  0  0
 17 20  1  0  0  0  0
 20 21  1  0  0  0  0
 20 22  1  0  0  0  0
 20 23  1  0  0  0  0
 23 24  1  0  0  0  0
 23 25  1  0  0  0  0
 23 26  1  0  0  0  0
 27 28  2  0  0  0  0
 27 29  1  0  0  0  0
 29 30  1  0  0  0  0
 29 31  1  0  0  0  0
 31 32  1  0  0  0  0
 31 33  1  0  0  0  0
 31 34  1  0  0  0  0
M  CHG  1  23   1
M  END
$$$$

  -OEChem-01062216093D

 34 33  0     1  0  0  0  0  0999 V2000
   -3.3514   -2.3674    1.2525 H   0  0  0  0  0  0  0  0  0  0  0  0
   -3.4534   -1.2828    1.1513 C   0  0  0  0  0  0  0  0  0  0  0  0
   -3.5248   -0.8467    2.1504 H   0  0  0  0  0  0  0  0  0  0  0  0
   -4.3671   -1.0654    0.5938 H   0  0  0  0  0  0  0  0  0  0  0  0
   -2.2480   -0.7188    0.4244 C   0  0  0  0  0  0  0  0  0  0  0  0
   -1.4886   -1.4641   -0.1667 O   0  0  0  0  0  0  0  0  0  0  0  0
   -2.1489    0.6353    0.1645 N   0  0  0  0  0  0  0  0  0  0  0  0
   -2.9805    1.1184    0.4842 H   0  0  0  0  0  0  0  0  0  0  0  0
   -0.8980    1.3974    0.3960 C   0  0  1  0  0  0  0  0  0  0  0  0
   -0.2815    1.2499   -0.4978 H   0  0  0  0  0  0  0  0  0  0  0  0
   -1.2737    2.8967    0.4592 C   0  0  0  0  0  0  0  0  0  0  0  0
   -2.0487    3.0535    1.2172 H   0  0  0  0  0  0  0  0  0  0  0  0
   -0.3992    3.4885    0.7458 H   0  0  0  0  0  0  0  0  0  0  0  0
   -1.7448    3.4047   -0.9168 C   0  0  0  0  0  0  0  0  0  0  0  0
   -0.9524    3.2357   -1.6552 H   0  0  0  0  0  0  0  0  0  0  0  0
   -2.6238    2.8351   -1.2388 H   0  0  0  0  0  0  0  0  0  0  0  0
   -2.0962    4.8970   -0.8730 C   0  0  0  0  0  0  0  0  0  0  0  0
   -2.8795    5.0649   -0.1257 H   0  0  0  0  0  0  0  0  0  0  0  0
   -1.2127    5.4731   -0.5765 H   0  0  0  0  0  0  0  0  0  0  0  0
   -2.5807    5.3523   -2.2499 C   0  0  0  0  0  0  0  0  0  0  0  0
   -1.7866    5.1710   -2.9896 H   0  0  0  0  0  0  0  0  0  0  0  0
   -3.4443    4.7399   -2.5490 H   0  0  0  0  0  0  0  0  0  0  0  0
   -2.9415    6.7864   -2.1988 N   0  3  0  0  0  0  0  0  0  0  0  0
   -2.1267    7.3438   -1.9341 H   0  0  0  0  0  0  0  0  0  0  0  0
   -3.2703    7.0980   -3.1160 H   0  0  0  0  0  0  0  0  0  0  0  0
   -3.6840    6.9379   -1.5133 H   0  0  0  0  0  0  0  0  0  0  0  0
    0.0534    0.9300    1.5503 C   0  0  0  0  0  0  0  0  0  0  0  0
    0.2903   -0.2428    1.7799 O   0  0  0  0  0  0  0  0  0  0  0  0
    0.6137    1.8439    2.4307 N   0  0  0  0  0  0  0  0  0  0  0  0
    0.4304    2.8284    2.2778 H   0  0  0  0  0  0  0  0  0  0  0  0
    1.4809    1.4612    3.5436 C   0  0  0  0  0  0  0  0  0  0  0  0
    2.3769    0.9503    3.1744 H   0  0  0  0  0  0  0  0  0  0  0  0
    1.7958    2.3469    4.1036 H   0  0  0  0  0  0  0  0  0  0  0  0
    0.9528    0.7903    4.2299 H   0  0  0  0  0  0  0  0  0  0  0  0
  1  2  1  0  0  0  0
  2  3  1  0  0  0  0
  2  4  1  0  0  0  0
  2  5  1  0  0  0  0
  5  6  2  0  0  0  0
  5  7  1  0  0  0  0
  7  8  1  0  0  0  0
  7  9  1  0  0  0  0
  9 10  1  0  0  0  0
  9 11  1  0  0  0  0
  9 27  1  0  0  0  0
 11 12  1  0  0  0  0
 11 13  1  0  0  0  0
 11 14  1  0  0  0  0
 14 15  1  0  0  0  0
 14 16  1  0  0  0  0
 14 17  1  0  0  0  0
 17 18  1  0  0  0  0
 17 19  1  0  0  0  0
 17 20  1  0  0  0  0
 20 21  1  0  0  0  0
 20 22  1  0  0  0  0
 20 23  1  0  0  0  0
 23 24  1  0  0  0  0
 23 25  1  0  0  0  0
 23 26  1  0  0  0  0
 27 28  2  0  0  0  0
 27 29  1  0  0  0  0
 29 30  1  0  0  0  0
 29 31  1  0  0  0  0
 31 32  1  0  0  0  0
 31 33  1  0  0  0  0
 31 34  1  0  0  0  0
M  CHG  1  23   1
M  END
$$$$

  -OEChem-01062216093D

 34 33  0     1  0  0  0  0  0999 V2000
   -3.7452   -2.3854    0.9170 H   0  0  0  0  0  0  0  0  0  0  0  0
   -3.7046   -1.3878    0.4693 C   0  0  0  0  0  0  0  0  0  0  0  0
   -4.6465   -0.8733    0.6727 H   0  0  0  0  0  0  0  0  0  0  0  0
   -3.5777   -1.4971   -0.6101 H   0  0  0  0  0  0  0  0  0  0  0  0
   -2.5449   -0.6034    1.0541 C   0  0  0  0  0  0  0  0  0  0  0  0
   -1.9720   -1.0454    2.0294 O   0  0  0  0  0  0  0  0  0  0  0  0
   -2.2856    0.6713    0.5764 N   0  0  0  0  0  0  0  0  0  0  0  0
   -2.9003    0.9216   -0.1890 H   0  0  0  0  0  0  0  0  0  0  0  0
   -0.9678    1.3545    0.5789 C   0  0  1  0  0  0  0  0  0  0  0  0
   -0.4484    1.0680   -0.3422 H   0  0  0  0  0  0  0  0  0  0  0  0
   -1.2301    2.8778    0.5299 C   0  0  0  0  0  0  0  0  0  0  0  0
   -1.8935    3.1572    1.3560 H   0  0  0  0  0  0  0  0  0  0  0  0
   -0.2828    3.4123    0.6620 H   0  0  0  0  0  0  0  0  0  0  0  0
   -1.8333    3.3286   -0.8118 C   0  0  0  0  0  0  0  0  0  0  0  0
   -1.1586    3.0458   -1.6280 H   0  0  0  0  0  0  0  0  0  0  0  0
   -2.7911    2.8242   -0.9763 H   0  0  0  0  0  0  0  0  0  0  0  0
   -2.0497    4.8483   -0.8185 C   0  0  0  0  0  0  0  0  0  0  0  0
   -2.7085    5.1235    0.0128 H   0  0  0  0  0  0  0  0  0  0  0  0
   -1.0879    5.3526   -0.6705 H   0  0  0  0  0  0  0  0  0  0  0  0
   -2.6714    5.2936   -2.1417 C   0  0  0  0  0  0  0  0  0  0  0  0
   -2.0032    5.0118   -2.9690 H   0  0  0  0  0  0  0  0  0  0  0  0
   -3.6198    4.7585   -2.2954 H   0  0  0  0  0  0  0  0  0  0  0  0
   -2.8890    6.7569   -2.1080 N   0  3  0  0  0  0  0  0  0  0  0  0
   -1.9984    7.2403   -1.9730 H   0  0  0  0  0  0  0  0  0  0  0  0
   -3.3046    7.0716   -2.9880 H   0  0  0  0  0  0  0  0  0  0  0  0
   -3.5174    7.0014   -1.3398 H   0  0  0  0  0  0  0  0  0  0  0  0
    0.0392    0.9874    1.7104 C   0  0  0  0  0  0  0  0  0  0  0  0
    0.7465    0.0070    1.5258 O   0  0  0  0  0  0  0  0  0  0  0  0
    0.5164    1.9289    2.6107 N   0  0  0  0  0  0  0  0  0  0  0  0
   -0.1055    2.6998    2.8264 H   0  0  0  0  0  0  0  0  0  0  0  0
    1.5826    1.6255    3.5627 C   0  0  0  0  0  0  0  0  0  0  0  0
    2.5121    1.3835    3.0359 H   0  0  0  0  0  0  0  0  0  0  0  0
    1.7705    2.4866    4.2112 H   0  0  0  0  0  0  0  0  0  0  0  0
    1.3047    0.7722    4.1911 H   0  0  0  0  0  0  0  0  0  0  0  0
  1  2  1  0  0  0  0
  2  3  1  0  0  0  0
  2  4  1  0  0  0  0
  2  5  1  0  0  0  0
  5  6  2  0  0  0  0
  5  7  1  0  0  0  0
  7  8  1  0  0  0  0
  7  9  1  0  0  0  0
  9 10  1  0  0  0  0
  9 11  1  0  0  0  0
  9 27  1  0  0  0  0
 11 12  1  0  0  0  0
 11 13  1  0  0  0  0
 11 14  1  0  0  0  0
 14 15  1  0  0  0  0
 14 16  1  0  0  0  0
 14 17  1  0  0  0  0
 17 18  1  0  0  0  0
 17 19  1  0  0  0  0
 17 20  1  0  0  0  0
 20 21  1  0  0  0  0
 20 22  1  0  0  0  0
 20 23  1  0  0  0  0
 23 24  1  0  0  0  0
 23 25  1  0  0  0  0
 23 26  1  0  0  0  0
 27 28  2  0  0  0  0
 27 29  1  0  0  0  0
 29 30  1  0  0  0  0
 29 31  1  0  0  0  0
 31 32  1  0  0  0  0
 31 33  1  0  0  0  0
 31 34  1  0  0  0  0
M  CHG  1  23   1
M  END
$$$$

  -OEChem-01062216093D

 34 33  0     1  0  0  0  0  0999 V2000
   -3.7746   -2.3928    0.9123 H   0  0  0  0  0  0  0  0  0  0  0  0
   -3.7666   -1.3653    0.5363 C   0  0  0  0  0  0  0  0  0  0  0  0
   -4.6341   -0.8380    0.9398 H   0  0  0  0  0  0  0  0  0  0  0  0
   -3.8350   -1.3933   -0.5535 H   0  0  0  0  0  0  0  0  0  0  0  0
   -2.4885   -0.6670    0.9615 C   0  0  0  0  0  0  0  0  0  0  0  0
   -1.7481   -1.2271    1.7437 O   0  0  0  0  0  0  0  0  0  0  0  0
   -2.2478    0.6236    0.5171 N   0  0  0  0  0  0  0  0  0  0  0  0
   -2.9397    0.9594   -0.1422 H   0  0  0  0  0  0  0  0  0  0  0  0
   -0.9532    1.3466    0.5481 C   0  0  1  0  0  0  0  0  0  0  0  0
   -0.4185    1.0819   -0.3712 H   0  0  0  0  0  0  0  0  0  0  0  0
   -1.2282    2.8659    0.5148 C   0  0  0  0  0  0  0  0  0  0  0  0
   -1.9097    3.1299    1.3308 H   0  0  0  0  0  0  0  0  0  0  0  0
   -0.2863    3.4025    0.6777 H   0  0  0  0  0  0  0  0  0  0  0  0
   -1.8132    3.3254   -0.8314 C   0  0  0  0  0  0  0  0  0  0  0  0
   -1.1215    3.0586   -1.6391 H   0  0  0  0  0  0  0  0  0  0  0  0
   -2.7624    2.8128   -1.0180 H   0  0  0  0  0  0  0  0  0  0  0  0
   -2.0439    4.8428   -0.8245 C   0  0  0  0  0  0  0  0  0  0  0  0
   -2.7187    5.1025   -0.0011 H   0  0  0  0  0  0  0  0  0  0  0  0
   -1.0894    5.3541   -0.6545 H   0  0  0  0  0  0  0  0  0  0  0  0
   -2.6475    5.2975   -2.1529 C   0  0  0  0  0  0  0  0  0  0  0  0
   -1.9617    5.0318   -2.9713 H   0  0  0  0  0  0  0  0  0  0  0  0
   -3.5877    4.7546   -2.3290 H   0  0  0  0  0  0  0  0  0  0  0  0
   -2.8796    6.7582   -2.1067 N   0  3  0  0  0  0  0  0  0  0  0  0
   -1.9968    7.2472   -1.9428 H   0  0  0  0  0  0  0  0  0  0  0  0
   -3.2750    7.0806   -2.9933 H   0  0  0  0  0  0  0  0  0  0  0  0
   -3.5294    6.9876   -1.3521 H   0  0  0  0  0  0  0  0  0  0  0  0
    0.0473    0.9875    1.6846 C   0  0  0  0  0  0  0  0  0  0  0  0
    0.9452    0.2007    1.4190 O   0  0  0  0  0  0  0  0  0  0  0  0
    0.2427    1.8252    2.7721 N   0  0  0  0  0  0  0  0  0  0  0  0
   -0.5516    2.3939    3.0441 H   0  0  0  0  0  0  0  0  0  0  0  0
    1.2633    1.5549    3.7814 C   0  0  0  0  0  0  0  0  0  0  0  0
    2.2645    1.6158    3.3415 H   0  0  0  0  0  0  0  0  0  0  0  0
    1.1992    2.2864    4.5924 H   0  0  0  0  0  0  0  0  0  0  0  0
    1.1278    0.5540    4.2060 H   0  0  0  0  0  0  0  0  0  0  0  0
  1  2  1  0  0  0  0
  2  3  1  0  0  0  0
  2  4  1  0  0  0  0
  2  5  1  0  0  0  0
  5  6  2  0  0  0  0
  5  7  1  0  0  0  0
  7  8  1  0  0  0  0
  7  9  1  0  0  0  0
  9 10  1  0  0  0  0
  9 11  1  0  0  0  0
  9 27  1  0  0  0  0
 11 12  1  0  0  0  0
 11 13  1  0  0  0  0
 11 14  1  0  0  0  0
 14 15  1  0  0  0  0
 14 16  1  0  0  0  0
 14 17  1  0  0  0  0
 17 18  1  0  0  0  0
 17 19  1  0  0  0  0
 17 20  1  0  0  0  0
 20 21  1  0  0  0  0
 20 22  1  0  0  0  0
 20 23  1  0  0  0  0
 23 24  1  0  0  0  0
 23 25  1  0  0  0  0
 23 26  1  0  0  0  0
 27 28  2  0  0  0  0
 27 29  1  0  0  0  0
 29 30  1  0  0  0  0
 29 31  1  0  0  0  0
 31 32  1  0  0  0  0
 31 33  1  0  0  0  0
 31 34  1  0  0  0  0
M  CHG  1  23   1
M  END
$$$$

  -OEChem-01062216093D

 34 33  0     1  0  0  0  0  0999 V2000
   -3.7733   -2.4072    0.9478 H   0  0  0  0  0  0  0  0  0  0  0  0
   -3.7731   -1.3813    0.5679 C   0  0  0  0  0  0  0  0  0  0  0  0
   -4.6149   -0.8436    1.0102 H   0  0  0  0  0  0  0  0  0  0  0  0
   -3.8948   -1.4127   -0.5172 H   0  0  0  0  0  0  0  0  0  0  0  0
   -2.4690   -0.6942    0.9270 C   0  0  0  0  0  0  0  0  0  0  0  0
   -1.6721   -1.2758    1.6354 O   0  0  0  0  0  0  0  0  0  0  0  0
   -2.2440    0.5987    0.4819 N   0  0  0  0  0  0  0  0  0  0  0  0
   -2.9610    0.9533   -0.1403 H   0  0  0  0  0  0  0  0  0  0  0  0
   -0.9580    1.3345    0.5211 C   0  0  1  0  0  0  0  0  0  0  0  0
   -0.4179    1.0744   -0.3963 H   0  0  0  0  0  0  0  0  0  0  0  0
   -1.2294    2.8529    0.4988 C   0  0  0  0  0  0  0  0  0  0  0  0
   -1.9139    3.1107    1.3140 H   0  0  0  0  0  0  0  0  0  0  0  0
   -0.2856    3.3826    0.6753 H   0  0  0  0  0  0  0  0  0  0  0  0
   -1.8095    3.3258   -0.8445 C   0  0  0  0  0  0  0  0  0  0  0  0
   -1.1160    3.0645   -1.6522 H   0  0  0  0  0  0  0  0  0  0  0  0
   -2.7589    2.8161   -1.0383 H   0  0  0  0  0  0  0  0  0  0  0  0
   -2.0363    4.8436   -0.8243 C   0  0  0  0  0  0  0  0  0  0  0  0
   -2.7124    5.0975   -0.0003 H   0  0  0  0  0  0  0  0  0  0  0  0
   -1.0807    5.3502   -0.6473 H   0  0  0  0  0  0  0  0  0  0  0  0
   -2.6351    5.3129   -2.1498 C   0  0  0  0  0  0  0  0  0  0  0  0
   -1.9485    5.0532   -2.9693 H   0  0  0  0  0  0  0  0  0  0  0  0
   -3.5766    4.7747   -2.3339 H   0  0  0  0  0  0  0  0  0  0  0  0
   -2.8628    6.7738   -2.0893 N   0  3  0  0  0  0  0  0  0  0  0  0
   -1.9789    7.2581   -1.9175 H   0  0  0  0  0  0  0  0  0  0  0  0
   -3.2540    7.1063   -2.9739 H   0  0  0  0  0  0  0  0  0  0  0  0
   -3.5143    6.9975   -1.3345 H   0  0  0  0  0  0  0  0  0  0  0  0
    0.0358    0.9879    1.6637 C   0  0  0  0  0  0  0  0  0  0  0  0
    1.0721    0.4116    1.3638 O   0  0  0  0  0  0  0  0  0  0  0  0
   -0.0073    1.6554    2.8773 N   0  0  0  0  0  0  0  0  0  0  0  0
   -0.9166    2.0101    3.1535 H   0  0  0  0  0  0  0  0  0  0  0  0
    0.9700    1.3983    3.9314 C   0  0  0  0  0  0  0  0  0  0  0  0
    1.9762    1.6751    3.5989 H   0  0  0  0  0  0  0  0  0  0  0  0
    0.7303    1.9837    4.8243 H   0  0  0  0  0  0  0  0  0  0  0  0
    0.9711    0.3368    4.2026 H   0  0  0  0  0  0  0  0  0  0  0  0
  1  2  1  0  0  0  0
  2  3  1  0  0  0  0
  2  4  1  0  0  0  0
  2  5  1  0  0  0  0
  5  6  2  0  0  0  0
  5  7  1  0  0  0  0
  7  8  1  0  0  0  0
  7  9  1  0  0  0  0
  9 10  1  0  0  0  0
  9 11  1  0  0  0  0
  9 27  1  0  0  0  0
 11 12  1  0  0  0  0
 11 13  1  0  0  0  0
 11 14  1  0  0  0  0
 14 15  1  0  0  0  0
 14 16  1  0  0  0  0
 14 17  1  0  0  0  0
 17 18  1  0  0  0  0
 17 19  1  0  0  0  0
 17 20  1  0  0  0  0
 20 21  1  0  0  0  0
 20 22  1  0  0  0  0
 20 23  1  0  0  0  0
 23 24  1  0  0  0  0
 23 25  1  0  0  0  0
 23 26  1  0  0  0  0
 27 28  2  0  0  0  0
 27 29  1  0  0  0  0
 29 30  1  0  0  0  0
 29 31  1  0  0  0  0
 31 32  1  0  0  0  0
 31 33  1  0  0  0  0
 31 34  1  0  0  0  0
M  CHG  1  23   1
M  END
$$$$

  -OEChem-01062216093D

 34 33  0     1  0  0  0  0  0999 V2000
   -3.7743   -2.4162    0.9670 H   0  0  0  0  0  0  0  0  0  0  0  0
   -3.7827   -1.3890    0.5902 C   0  0  0  0  0  0  0  0  0  0  0  0
   -4.5992   -0.8459    1.0717 H   0  0  0  0  0  0  0  0  0  0  0  0
   -3.9538   -1.4149   -0.4884 H   0  0  0  0  0  0  0  0  0  0  0  0
   -2.4581   -0.7139    0.8930 C   0  0  0  0  0  0  0  0  0  0  0  0
   -1.6278   -1.3081    1.5517 O   0  0  0  0  0  0  0  0  0  0  0  0
   -2.2406    0.5803    0.4491 N   0  0  0  0  0  0  0  0  0  0  0  0
   -2.9768    0.9547   -0.1384 H   0  0  0  0  0  0  0  0  0  0  0  0
   -0.9601    1.3252    0.4994 C   0  0  1  0  0  0  0  0  0  0  0  0
   -0.4121    1.0708   -0.4154 H   0  0  0  0  0  0  0  0  0  0  0  0
   -1.2305    2.8429    0.4894 C   0  0  0  0  0  0  0  0  0  0  0  0
   -1.9185    3.0945    1.3037 H   0  0  0  0  0  0  0  0  0  0  0  0
   -0.2885    3.3709    0.6782 H   0  0  0  0  0  0  0  0  0  0  0  0
   -1.8045    3.3263   -0.8522 C   0  0  0  0  0  0  0  0  0  0  0  0
   -1.1062    3.0721   -1.6581 H   0  0  0  0  0  0  0  0  0  0  0  0
   -2.7528    2.8179   -1.0553 H   0  0  0  0  0  0  0  0  0  0  0  0
   -2.0311    4.8438   -0.8211 C   0  0  0  0  0  0  0  0  0  0  0  0
   -2.7117    5.0916    0.0011 H   0  0  0  0  0  0  0  0  0  0  0  0
   -1.0767    5.3496   -0.6351 H   0  0  0  0  0  0  0  0  0  0  0  0
   -2.6236    5.3215   -2.1460 C   0  0  0  0  0  0  0  0  0  0  0  0
   -1.9314    5.0678   -2.9627 H   0  0  0  0  0  0  0  0  0  0  0  0
   -3.5636    4.7840   -2.3397 H   0  0  0  0  0  0  0  0  0  0  0  0
   -2.8512    6.7817   -2.0747 N   0  3  0  0  0  0  0  0  0  0  0  0
   -1.9687    7.2637   -1.8900 H   0  0  0  0  0  0  0  0  0  0  0  0
   -3.2340    7.1226   -2.9597 H   0  0  0  0  0  0  0  0  0  0  0  0
   -3.5093    6.9987   -1.3239 H   0  0  0  0  0  0  0  0  0  0  0  0
    0.0260    0.9894    1.6482 C   0  0  0  0  0  0  0  0  0  0  0  0
    1.1676    0.6680    1.3480 O   0  0  0  0  0  0  0  0  0  0  0  0
   -0.2199    1.4251    2.9392 N   0  0  0  0  0  0  0  0  0  0  0  0
   -1.1998    1.5260    3.1833 H   0  0  0  0  0  0  0  0  0  0  0  0
    0.7230    1.1678    4.0234 C   0  0  0  0  0  0  0  0  0  0  0  0
    1.6862    1.6472    3.8183 H   0  0  0  0  0  0  0  0  0  0  0  0
    0.3361    1.5656    4.9663 H   0  0  0  0  0  0  0  0  0  0  0  0
    0.8858    0.0908    4.1415 H   0  0  0  0  0  0  0  0  0  0  0  0
  1  2  1  0  0  0  0
  2  3  1  0  0  0  0
  2  4  1  0  0  0  0
  2  5  1  0  0  0  0
  5  6  2  0  0  0  0
  5  7  1  0  0  0  0
  7  8  1  0  0  0  0
  7  9  1  0  0  0  0
  9 10  1  0  0  0  0
  9 11  1  0  0  0  0
  9 27  1  0  0  0  0
 11 12  1  0  0  0  0
 11 13  1  0  0  0  0
 11 14  1  0  0  0  0
 14 15  1  0  0  0  0
 14 16  1  0  0  0  0
 14 17  1  0  0  0  0
 17 18  1  0  0  0  0
 17 19  1  0  0  0  0
 17 20  1  0  0  0  0
 20 21  1  0  0  0  0
 20 22  1  0  0  0  0
 20 23  1  0  0  0  0
 23 24  1  0  0  0  0
 23 25  1  0  0  0  0
 23 26  1  0  0  0  0
 27 28  2  0  0  0  0
 27 29  1  0  0  0  0
 29 30  1  0  0  0  0
 29 31  1  0  0  0  0
 31 32  1  0  0  0  0
 31 33  1  0  0  0  0
 31 34  1  0  0  0  0
M  CHG  1  23   1
M  END
$$$$

  -OEChem-01062216093D

 34 33  0     1  0  0  0  0  0999 V2000
   -3.8001   -2.4184    0.9628 H   0  0  0  0  0  0  0  0  0  0  0  0
   -3.8032   -1.3921    0.5835 C   0  0  0  0  0  0  0  0  0  0  0  0
   -4.6159   -0.8435    1.0653 H   0  0  0  0  0  0  0  0  0  0  0  0
   -3.9767   -1.4204   -0.4949 H   0  0  0  0  0  0  0  0  0  0  0  0
   -2.4742   -0.7235    0.8813 C   0  0  0  0  0  0  0  0  0  0  0  0
   -1.6454   -1.3173    1.5425 O   0  0  0  0  0  0  0  0  0  0  0  0
   -2.2446    0.5638    0.4250 N   0  0  0  0  0  0  0  0  0  0  0  0
   -2.9798    0.9435   -0.1606 H   0  0  0  0  0  0  0  0  0  0  0  0
   -0.9617    1.3050    0.4791 C   0  0  1  0  0  0  0  0  0  0  0  0
   -0.4074    1.0482   -0.4309 H   0  0  0  0  0  0  0  0  0  0  0  0
   -1.2308    2.8217    0.4749 C   0  0  0  0  0  0  0  0  0  0  0  0
   -1.9172    3.0687    1.2920 H   0  0  0  0  0  0  0  0  0  0  0  0
   -0.2881    3.3483    0.6661 H   0  0  0  0  0  0  0  0  0  0  0  0
   -1.8033    3.3145   -0.8628 C   0  0  0  0  0  0  0  0  0  0  0  0
   -1.1049    3.0659   -1.6703 H   0  0  0  0  0  0  0  0  0  0  0  0
   -2.7524    2.8096   -1.0702 H   0  0  0  0  0  0  0  0  0  0  0  0
   -2.0251    4.8318   -0.8153 C   0  0  0  0  0  0  0  0  0  0  0  0
   -2.7042    5.0720    0.0106 H   0  0  0  0  0  0  0  0  0  0  0  0
   -1.0689    5.3320   -0.6238 H   0  0  0  0  0  0  0  0  0  0  0  0
   -2.6163    5.3275   -2.1334 C   0  0  0  0  0  0  0  0  0  0  0  0
   -1.9253    5.0820   -2.9535 H   0  0  0  0  0  0  0  0  0  0  0  0
   -3.5581    4.7957   -2.3328 H   0  0  0  0  0  0  0  0  0  0  0  0
   -2.8382    6.7874   -2.0433 N   0  3  0  0  0  0  0  0  0  0  0  0
   -1.9541    7.2632   -1.8498 H   0  0  0  0  0  0  0  0  0  0  0  0
   -3.2175    7.1415   -2.9245 H   0  0  0  0  0  0  0  0  0  0  0  0
   -3.4973    6.9971   -1.2911 H   0  0  0  0  0  0  0  0  0  0  0  0
    0.0180    0.9884    1.6368 C   0  0  0  0  0  0  0  0  0  0  0  0
    1.2114    0.9235    1.3740 O   0  0  0  0  0  0  0  0  0  0  0  0
   -0.3696    1.1672    2.9529 N   0  0  0  0  0  0  0  0  0  0  0  0
   -1.3595    1.0205    3.1259 H   0  0  0  0  0  0  0  0  0  0  0  0
    0.5486    0.9091    4.0573 C   0  0  0  0  0  0  0  0  0  0  0  0
    1.4148    1.5772    4.0031 H   0  0  0  0  0  0  0  0  0  0  0  0
    0.0464    1.0752    5.0152 H   0  0  0  0  0  0  0  0  0  0  0  0
    0.9023   -0.1274    4.0259 H   0  0  0  0  0  0  0  0  0  0  0  0
  1  2  1  0  0  0  0
  2  3  1  0  0  0  0
  2  4  1  0  0  0  0
  2  5  1  0  0  0  0
  5  6  2  0  0  0  0
  5  7  1  0  0  0  0
  7  8  1  0  0  0  0
  7  9  1  0  0  0  0
  9 10  1  0  0  0  0
  9 11  1  0  0  0  0
  9 27  1  0  0  0  0
 11 12  1  0  0  0  0
 11 13  1  0  0  0  0
 11 14  1  0  0  0  0
 14 15  1  0  0  0  0
 14 16  1  0  0  0  0
 14 17  1  0  0  0  0
 17 18  1  0  0  0  0
 17 19  1  0  0  0  0
 17 20  1  0  0  0  0
 20 21  1  0  0  0  0
 20 22  1  0  0  0  0
 20 23  1  0  0  0  0
 23 24  1  0  0  0  0
 23 25  1  0  0  0  0
 23 26  1  0  0  0  0
 27 28  2  0  0  0  0
 27 29  1  0  0  0  0
 29 30  1  0  0  0  0
 29 31  1  0  0  0  0
 31 32  1  0  0  0  0
 31 33  1  0  0  0  0
 31 34  1  0  0  0  0
M  CHG  1  23   1
M  END
$$$$

  -OEChem-01062216093D

 34 33  0     1  0  0  0  0  0999 V2000
   -3.8662   -2.4042    0.9335 H   0  0  0  0  0  0  0  0  0  0  0  0
   -3.8491   -1.3771    0.5567 C   0  0  0  0  0  0  0  0  0  0  0  0
   -4.6468   -0.8116    1.0442 H   0  0  0  0  0  0  0  0  0  0  0  0
   -4.0292   -1.3987   -0.5207 H   0  0  0  0  0  0  0  0  0  0  0  0
   -2.5037   -0.7389    0.8468 C   0  0  0  0  0  0  0  0  0  0  0  0
   -1.6738   -1.3599    1.4816 O   0  0  0  0  0  0  0  0  0  0  0  0
   -2.2509    0.5457    0.3979 N   0  0  0  0  0  0  0  0  0  0  0  0
   -2.9950    0.9583   -0.1533 H   0  0  0  0  0  0  0  0  0  0  0  0
   -0.9658    1.2827    0.4715 C   0  0  1  0  0  0  0  0  0  0  0  0
   -0.4009    1.0288   -0.4322 H   0  0  0  0  0  0  0  0  0  0  0  0
   -1.2415    2.7991    0.4714 C   0  0  0  0  0  0  0  0  0  0  0  0
   -1.9365    3.0374    1.2838 H   0  0  0  0  0  0  0  0  0  0  0  0
   -0.3042    3.3306    0.6754 H   0  0  0  0  0  0  0  0  0  0  0  0
   -1.8007    3.3009   -0.8690 C   0  0  0  0  0  0  0  0  0  0  0  0
   -1.0934    3.0608   -1.6713 H   0  0  0  0  0  0  0  0  0  0  0  0
   -2.7463    2.7956   -1.0906 H   0  0  0  0  0  0  0  0  0  0  0  0
   -2.0264    4.8175   -0.8085 C   0  0  0  0  0  0  0  0  0  0  0  0
   -2.7136    5.0480    0.0133 H   0  0  0  0  0  0  0  0  0  0  0  0
   -1.0726    5.3170   -0.6026 H   0  0  0  0  0  0  0  0  0  0  0  0
   -2.6049    5.3280   -2.1267 C   0  0  0  0  0  0  0  0  0  0  0  0
   -1.9063    5.0928   -2.9434 H   0  0  0  0  0  0  0  0  0  0  0  0
   -3.5445    4.7983   -2.3412 H   0  0  0  0  0  0  0  0  0  0  0  0
   -2.8293    6.7865   -2.0205 N   0  3  0  0  0  0  0  0  0  0  0  0
   -1.9466    7.2607   -1.8173 H   0  0  0  0  0  0  0  0  0  0  0  0
   -3.2046    7.1506   -2.8992 H   0  0  0  0  0  0  0  0  0  0  0  0
   -3.4920    6.9869   -1.2689 H   0  0  0  0  0  0  0  0  0  0  0  0
    0.0111    0.9807    1.6371 C   0  0  0  0  0  0  0  0  0  0  0  0
    1.2038    1.1738    1.4403 O   0  0  0  0  0  0  0  0  0  0  0  0
   -0.4442    0.8655    2.9379 N   0  0  0  0  0  0  0  0  0  0  0  0
   -1.3724    0.4564    3.0116 H   0  0  0  0  0  0  0  0  0  0  0  0
    0.4733    0.6287    4.0475 C   0  0  0  0  0  0  0  0  0  0  0  0
    1.1889    1.4527    4.1394 H   0  0  0  0  0  0  0  0  0  0  0  0
   -0.0817    0.5504    4.9873 H   0  0  0  0  0  0  0  0  0  0  0  0
    1.0283   -0.3030    3.8926 H   0  0  0  0  0  0  0  0  0  0  0  0
  1  2  1  0  0  0  0
  2  3  1  0  0  0  0
  2  4  1  0  0  0  0
  2  5  1  0  0  0  0
  5  6  2  0  0  0  0
  5  7  1  0  0  0  0
  7  8  1  0  0  0  0
  7  9  1  0  0  0  0
  9 10  1  0  0  0  0
  9 11  1  0  0  0  0
  9 27  1  0  0  0  0
 11 12  1  0  0  0  0
 11 13  1  0  0  0  0
 11 14  1  0  0  0  0
 14 15  1  0  0  0  0
 14 16  1  0  0  0  0
 14 17  1  0  0  0  0
 17 18  1  0  0  0  0
 17 19  1  0  0  0  0
 17 20  1  0  0  0  0
 20 21  1  0  0  0  0
 20 22  1  0  0  0  0
 20 23  1  0  0  0  0
 23 24  1  0  0  0  0
 23 25  1  0  0  0  0
 23 26  1  0  0  0  0
 27 28  2  0  0  0  0
 27 29  1  0  0  0  0
 29 30  1  0  0  0  0
 29 31  1  0  0  0  0
 31 32  1  0  0  0  0
 31 33  1  0  0  0  0
 31 34  1  0  0  0  0
M  CHG  1  23   1
M  END
$$$$

  -OEChem-01062216093D

 34 33  0     1  0  0  0  0  0999 V2000
   -3.9471   -2.3618    0.9011 H   0  0  0  0  0  0  0  0  0  0  0  0
   -3.9078   -1.3262    0.5502 C   0  0  0  0  0  0  0  0  0  0  0  0
   -4.6484   -0.7418    1.1010 H   0  0  0  0  0  0  0  0  0  0  0  0
   -4.1547   -1.3097   -0.5140 H   0  0  0  0  0  0  0  0  0  0  0  0
   -2.5212   -0.7529    0.7734 C   0  0  0  0  0  0  0  0  0  0  0  0
   -1.6747   -1.4354    1.3168 O   0  0  0  0  0  0  0  0  0  0  0  0
   -2.2432    0.5375    0.3587 N   0  0  0  0  0  0  0  0  0  0  0  0
   -3.0140    1.0141   -0.0957 H   0  0  0  0  0  0  0  0  0  0  0  0
   -0.9605    1.2756    0.4766 C   0  0  1  0  0  0  0  0  0  0  0  0
   -0.3752    1.0375   -0.4180 H   0  0  0  0  0  0  0  0  0  0  0  0
   -1.2607    2.7898    0.4815 C   0  0  0  0  0  0  0  0  0  0  0  0
   -1.9816    3.0093    1.2767 H   0  0  0  0  0  0  0  0  0  0  0  0
   -0.3415    3.3396    0.7149 H   0  0  0  0  0  0  0  0  0  0  0  0
   -1.7887    3.2951   -0.8708 C   0  0  0  0  0  0  0  0  0  0  0  0
   -1.0534    3.0735   -1.6530 H   0  0  0  0  0  0  0  0  0  0  0  0
   -2.7192    2.7775   -1.1262 H   0  0  0  0  0  0  0  0  0  0  0  0
   -2.0405    4.8076   -0.8053 C   0  0  0  0  0  0  0  0  0  0  0  0
   -2.7552    5.0207   -0.0026 H   0  0  0  0  0  0  0  0  0  0  0  0
   -1.1016    5.3203   -0.5668 H   0  0  0  0  0  0  0  0  0  0  0  0
   -2.5881    5.3205   -2.1361 C   0  0  0  0  0  0  0  0  0  0  0  0
   -1.8616    5.1033   -2.9332 H   0  0  0  0  0  0  0  0  0  0  0  0
   -3.5121    4.7777   -2.3833 H   0  0  0  0  0  0  0  0  0  0  0  0
   -2.8395    6.7746   -2.0265 N   0  3  0  0  0  0  0  0  0  0  0  0
   -1.9734    7.2604   -1.7827 H   0  0  0  0  0  0  0  0  0  0  0  0
   -3.1837    7.1413   -2.9170 H   0  0  0  0  0  0  0  0  0  0  0  0
   -3.5357    6.9575   -1.3013 H   0  0  0  0  0  0  0  0  0  0  0  0
    0.0084    0.9759    1.6540 C   0  0  0  0  0  0  0  0  0  0  0  0
    1.1596    1.3811    1.5522 O   0  0  0  0  0  0  0  0  0  0  0  0
   -0.4388    0.5450    2.8892 N   0  0  0  0  0  0  0  0  0  0  0  0
   -1.2596   -0.0564    2.8310 H   0  0  0  0  0  0  0  0  0  0  0  0
    0.4843    0.2903    3.9905 C   0  0  0  0  0  0  0  0  0  0  0  0
    1.0221    1.2043    4.2633 H   0  0  0  0  0  0  0  0  0  0  0  0
   -0.0643   -0.0601    4.8701 H   0  0  0  0  0  0  0  0  0  0  0  0
    1.2147   -0.4757    3.7090 H   0  0  0  0  0  0  0  0  0  0  0  0
  1  2  1  0  0  0  0
  2  3  1  0  0  0  0
  2  4  1  0  0  0  0
  2  5  1  0  0  0  0
  5  6  2  0  0  0  0
  5  7  1  0  0  0  0
  7  8  1  0  0  0  0
  7  9  1  0  0  0  0
  9 10  1  0  0  0  0
  9 11  1  0  0  0  0
  9 27  1  0  0  0  0
 11 12  1  0  0  0  0
 11 13  1  0  0  0  0
 11 14  1  0  0  0  0
 14 15  1  0  0  0  0
 14 16  1  0  0  0  0
 14 17  1  0  0  0  0
 17 18  1  0  0  0  0
 17 19  1  0  0  0  0
 17 20  1  0  0  0  0
 20 21  1  0  0  0  0
 20 22  1  0  0  0  0
 20 23  1  0  0  0  0
 23 24  1  0  0  0  0
 23 25  1  0  0  0  0
 23 26  1  0  0  0  0
 27 28  2  0  0  0  0
 27 29  1  0  0  0  0
 29 30  1  0  0  0  0
 29 31  1  0  0  0  0
 31 32  1  0  0  0  0
 31 33  1  0  0  0  0
 31 34  1  0  0  0  0
M  CHG  1  23   1
M  END
$$$$

  -OEChem-01062216093D

 34 33  0     1  0  0  0  0  0999 V2000
   -4.0090   -2.3134    0.9195 H   0  0  0  0  0  0  0  0  0  0  0  0
   -3.9502   -1.2795    0.5662 C   0  0  0  0  0  0  0  0  0  0  0  0
   -4.6232   -0.6658    1.1695 H   0  0  0  0  0  0  0  0  0  0  0  0
   -4.2730   -1.2487   -0.4772 H   0  0  0  0  0  0  0  0  0  0  0  0
   -2.5272   -0.7676    0.6865 C   0  0  0  0  0  0  0  0  0  0  0  0
   -1.6547   -1.5185    1.0784 O   0  0  0  0  0  0  0  0  0  0  0  0
   -2.2365    0.5327    0.3149 N   0  0  0  0  0  0  0  0  0  0  0  0
   -3.0418    1.0721    0.0172 H   0  0  0  0  0  0  0  0  0  0  0  0
   -0.9584    1.2723    0.4818 C   0  0  1  0  0  0  0  0  0  0  0  0
   -0.3529    1.0522   -0.4042 H   0  0  0  0  0  0  0  0  0  0  0  0
   -1.2846    2.7838    0.4898 C   0  0  0  0  0  0  0  0  0  0  0  0
   -2.0336    2.9841    1.2633 H   0  0  0  0  0  0  0  0  0  0  0  0
   -0.3863    3.3525    0.7550 H   0  0  0  0  0  0  0  0  0  0  0  0
   -1.7768    3.2926   -0.8752 C   0  0  0  0  0  0  0  0  0  0  0  0
   -1.0115    3.0918   -1.6340 H   0  0  0  0  0  0  0  0  0  0  0  0
   -2.6883    2.7610   -1.1680 H   0  0  0  0  0  0  0  0  0  0  0  0
   -2.0562    4.8003   -0.8051 C   0  0  0  0  0  0  0  0  0  0  0  0
   -2.8000    4.9941   -0.0244 H   0  0  0  0  0  0  0  0  0  0  0  0
   -1.1344    5.3261   -0.5315 H   0  0  0  0  0  0  0  0  0  0  0  0
   -2.5686    5.3165   -2.1484 C   0  0  0  0  0  0  0  0  0  0  0  0
   -1.8121    5.1196   -2.9226 H   0  0  0  0  0  0  0  0  0  0  0  0
   -3.4742    4.7605   -2.4313 H   0  0  0  0  0  0  0  0  0  0  0  0
   -2.8476    6.7652   -2.0334 N   0  3  0  0  0  0  0  0  0  0  0  0
   -1.9961    7.2632   -1.7639 H   0  0  0  0  0  0  0  0  0  0  0  0
   -3.1755    7.1335   -2.9293 H   0  0  0  0  0  0  0  0  0  0  0  0
   -3.5648    6.9302   -1.3244 H   0  0  0  0  0  0  0  0  0  0  0  0
    0.0014    0.9630    1.6708 C   0  0  0  0  0  0  0  0  0  0  0  0
    1.0821    1.5396    1.6890 O   0  0  0  0  0  0  0  0  0  0  0  0
   -0.3699    0.2362    2.7862 N   0  0  0  0  0  0  0  0  0  0  0  0
   -1.0830   -0.4685    2.5958 H   0  0  0  0  0  0  0  0  0  0  0  0
    0.5603   -0.0449    3.8751 C   0  0  0  0  0  0  0  0  0  0  0  0
    0.9220    0.8862    4.3239 H   0  0  0  0  0  0  0  0  0  0  0  0
    0.0632   -0.6300    4.6548 H   0  0  0  0  0  0  0  0  0  0  0  0
    1.4204   -0.6152    3.5084 H   0  0  0  0  0  0  0  0  0  0  0  0
  1  2  1  0  0  0  0
  2  3  1  0  0  0  0
  2  4  1  0  0  0  0
  2  5  1  0  0  0  0
  5  6  2  0  0  0  0
  5  7  1  0  0  0  0
  7  8  1  0  0  0  0
  7  9  1  0  0  0  0
  9 10  1  0  0  0  0
  9 11  1  0  0  0  0
  9 27  1  0  0  0  0
 11 12  1  0  0  0  0
 11 13  1  0  0  0  0
 11 14  1  0  0  0  0
 14 15  1  0  0  0  0
 14 16  1  0  0  0  0
 14 17  1  0  0  0  0
 17 18  1  0  0  0  0
 17 19  1  0  0  0  0
 17 20  1  0  0  0  0
 20 21  1  0  0  0  0
 20 22  1  0  0  0  0
 20 23  1  0  0  0  0
 23 24  1  0  0  0  0
 23 25  1  0  0  0  0
 23 26  1  0  0  0  0
 27 28  2  0  0  0  0
 27 29  1  0  0  0  0
 29 30  1  0  0  0  0
 29 31  1  0  0  0  0
 31 32  1  0  0  0  0
 31 33  1  0  0  0  0
 31 34  1  0  0  0  0
M  CHG  1  23   1
M  END
$$$$

  -OEChem-01062216093D

 34 33  0     1  0  0  0  0  0999 V2000
   -4.0432   -2.2836    0.9271 H   0  0  0  0  0  0  0  0  0  0  0  0
   -3.9786   -1.2447    0.5899 C   0  0  0  0  0  0  0  0  0  0  0  0
   -4.5928   -0.6260    1.2483 H   0  0  0  0  0  0  0  0  0  0  0  0
   -4.3683   -1.1834   -0.4289 H   0  0  0  0  0  0  0  0  0  0  0  0
   -2.5369   -0.7740    0.6236 C   0  0  0  0  0  0  0  0  0  0  0  0
   -1.6543   -1.5744    0.8686 O   0  0  0  0  0  0  0  0  0  0  0  0
   -2.2382    0.5340    0.2884 N   0  0  0  0  0  0  0  0  0  0  0  0
   -3.0564    1.1022    0.0997 H   0  0  0  0  0  0  0  0  0  0  0  0
   -0.9624    1.2700    0.4913 C   0  0  1  0  0  0  0  0  0  0  0  0
   -0.3440    1.0617   -0.3880 H   0  0  0  0  0  0  0  0  0  0  0  0
   -1.3055    2.7809    0.4992 C   0  0  0  0  0  0  0  0  0  0  0  0
   -2.0747    2.9697    1.2558 H   0  0  0  0  0  0  0  0  0  0  0  0
   -0.4232    3.3638    0.7845 H   0  0  0  0  0  0  0  0  0  0  0  0
   -1.7698    3.2909   -0.8752 C   0  0  0  0  0  0  0  0  0  0  0  0
   -0.9845    3.1019   -1.6165 H   0  0  0  0  0  0  0  0  0  0  0  0
   -2.6683    2.7516   -1.1927 H   0  0  0  0  0  0  0  0  0  0  0  0
   -2.0668    4.7952   -0.8045 C   0  0  0  0  0  0  0  0  0  0  0  0
   -2.8306    4.9785   -0.0405 H   0  0  0  0  0  0  0  0  0  0  0  0
   -1.1569    5.3293   -0.5075 H   0  0  0  0  0  0  0  0  0  0  0  0
   -2.5519    5.3119   -2.1573 C   0  0  0  0  0  0  0  0  0  0  0  0
   -1.7751    5.1262   -2.9140 H   0  0  0  0  0  0  0  0  0  0  0  0
   -3.4445    4.7479   -2.4643 H   0  0  0  0  0  0  0  0  0  0  0  0
   -2.8487    6.7568   -2.0414 N   0  3  0  0  0  0  0  0  0  0  0  0
   -2.0120    7.2601   -1.7379 H   0  0  0  0  0  0  0  0  0  0  0  0
   -3.1480    7.1292   -2.9455 H   0  0  0  0  0  0  0  0  0  0  0  0
   -3.5921    6.9098   -1.3572 H   0  0  0  0  0  0  0  0  0  0  0  0
   -0.0083    0.9445    1.6862 C   0  0  0  0  0  0  0  0  0  0  0  0
    0.9806    1.6523    1.8351 O   0  0  0  0  0  0  0  0  0  0  0  0
   -0.2460   -0.0252    2.6412 N   0  0  0  0  0  0  0  0  0  0  0  0
   -0.8772   -0.7701    2.3421 H   0  0  0  0  0  0  0  0  0  0  0  0
    0.7078   -0.3414    3.6997 C   0  0  0  0  0  0  0  0  0  0  0  0
    0.8987    0.5395    4.3219 H   0  0  0  0  0  0  0  0  0  0  0  0
    0.3109   -1.1342    4.3412 H   0  0  0  0  0  0  0  0  0  0  0  0
    1.6567   -0.6832    3.2726 H   0  0  0  0  0  0  0  0  0  0  0  0
  1  2  1  0  0  0  0
  2  3  1  0  0  0  0
  2  4  1  0  0  0  0
  2  5  1  0  0  0  0
  5  6  2  0  0  0  0
  5  7  1  0  0  0  0
  7  8  1  0  0  0  0
  7  9  1  0  0  0  0
  9 10  1  0  0  0  0
  9 11  1  0  0  0  0
  9 27  1  0  0  0  0
 11 12  1  0  0  0  0
 11 13  1  0  0  0  0
 11 14  1  0  0  0  0
 14 15  1  0  0  0  0
 14 16  1  0  0  0  0
 14 17  1  0  0  0  0
 17 18  1  0  0  0  0
 17 19  1  0  0  0  0
 17 20  1  0  0  0  0
 20 21  1  0  0  0  0
 20 22  1  0  0  0  0
 20 23  1  0  0  0  0
 23 24  1  0  0  0  0
 23 25  1  0  0  0  0
 23 26  1  0  0  0  0
 27 28  2  0  0  0  0
 27 29  1  0  0  0  0
 29 30  1  0  0  0  0
 29 31  1  0  0  0  0
 31 32  1  0  0  0  0
 31 33  1  0  0  0  0
 31 34  1  0  0  0  0
M  CHG  1  23   1
M  END
$$$$

  -OEChem-01062216093D

 34 33  0     1  0  0  0  0  0999 V2000
   -4.0483   -2.2367    1.0491 H   0  0  0  0  0  0  0  0  0  0  0  0
   -3.9894   -1.1914    0.7317 C   0  0  0  0  0  0  0  0  0  0  0  0
   -4.5076   -0.5737    1.4690 H   0  0  0  0  0  0  0  0  0  0  0  0
   -4.4868   -1.0911   -0.2360 H   0  0  0  0  0  0  0  0  0  0  0  0
   -2.5393   -0.7620    0.6179 C   0  0  0  0  0  0  0  0  0  0  0  0
   -1.6595   -1.5988    0.6982 O   0  0  0  0  0  0  0  0  0  0  0  0
   -2.2398    0.5489    0.2974 N   0  0  0  0  0  0  0  0  0  0  0  0
   -3.0643    1.1355    0.2307 H   0  0  0  0  0  0  0  0  0  0  0  0
   -0.9585    1.2760    0.4976 C   0  0  1  0  0  0  0  0  0  0  0  0
   -0.3460    1.0668   -0.3854 H   0  0  0  0  0  0  0  0  0  0  0  0
   -1.3055    2.7874    0.4945 C   0  0  0  0  0  0  0  0  0  0  0  0
   -2.0729    2.9833    1.2508 H   0  0  0  0  0  0  0  0  0  0  0  0
   -0.4251    3.3781    0.7682 H   0  0  0  0  0  0  0  0  0  0  0  0
   -1.7693    3.2798   -0.8874 C   0  0  0  0  0  0  0  0  0  0  0  0
   -0.9828    3.0833   -1.6252 H   0  0  0  0  0  0  0  0  0  0  0  0
   -2.6655    2.7331   -1.1989 H   0  0  0  0  0  0  0  0  0  0  0  0
   -2.0731    4.7834   -0.8395 C   0  0  0  0  0  0  0  0  0  0  0  0
   -2.8406    4.9733   -0.0810 H   0  0  0  0  0  0  0  0  0  0  0  0
   -1.1672    5.3266   -0.5471 H   0  0  0  0  0  0  0  0  0  0  0  0
   -2.5571    5.2769   -2.2018 C   0  0  0  0  0  0  0  0  0  0  0  0
   -1.7780    5.0831   -2.9542 H   0  0  0  0  0  0  0  0  0  0  0  0
   -3.4467    4.7038   -2.5019 H   0  0  0  0  0  0  0  0  0  0  0  0
   -2.8609    6.7220   -2.1087 N   0  3  0  0  0  0  0  0  0  0  0  0
   -2.0234    7.2363   -1.8266 H   0  0  0  0  0  0  0  0  0  0  0  0
   -3.1755    7.0755   -3.0154 H   0  0  0  0  0  0  0  0  0  0  0  0
   -3.5953    6.8828   -1.4166 H   0  0  0  0  0  0  0  0  0  0  0  0
    0.0032    0.9244    1.6838 C   0  0  0  0  0  0  0  0  0  0  0  0
    0.8653    1.7381    1.9924 O   0  0  0  0  0  0  0  0  0  0  0  0
   -0.0669   -0.2249    2.4473 N   0  0  0  0  0  0  0  0  0  0  0  0
   -0.6170   -0.9860    2.0450 H   0  0  0  0  0  0  0  0  0  0  0  0
    0.9102   -0.5666    3.4763 C   0  0  0  0  0  0  0  0  0  0  0  0
    0.9412    0.2067    4.2512 H   0  0  0  0  0  0  0  0  0  0  0  0
    0.6421   -1.5161    3.9497 H   0  0  0  0  0  0  0  0  0  0  0  0
    1.9095   -0.6673    3.0396 H   0  0  0  0  0  0  0  0  0  0  0  0
  1  2  1  0  0  0  0
  2  3  1  0  0  0  0
  2  4  1  0  0  0  0
  2  5  1  0  0  0  0
  5  6  2  0  0  0  0
  5  7  1  0  0  0  0
  7  8  1  0  0  0  0
  7  9  1  0  0  0  0
  9 10  1  0  0  0  0
  9 11  1  0  0  0  0
  9 27  1  0  0  0  0
 11 12  1  0  0  0  0
 11 13  1  0  0  0  0
 11 14  1  0  0  0  0
 14 15  1  0  0  0  0
 14 16  1  0  0  0  0
 14 17  1  0  0  0  0
 17 18  1  0  0  0  0
 17 19  1  0  0  0  0
 17 20  1  0  0  0  0
 20 21  1  0  0  0  0
 20 22  1  0  0  0  0
 20 23  1  0  0  0  0
 23 24  1  0  0  0  0
 23 25  1  0  0  0  0
 23 26  1  0  0  0  0
 27 28  2  0  0  0  0
 27 29  1  0  0  0  0
 29 30  1  0  0  0  0
 29 31  1  0  0  0  0
 31 32  1  0  0  0  0
 31 33  1  0  0  0  0
 31 34  1  0  0  0  0
M  CHG  1  23   1
M  END
$$$$

  -OEChem-01062216093D

 34 33  0     1  0  0  0  0  0999 V2000
   -3.4554   -2.3338    1.4201 H   0  0  0  0  0  0  0  0  0  0  0  0
   -3.5216   -1.2736    1.1578 C   0  0  0  0  0  0  0  0  0  0  0  0
   -3.8237   -0.7135    2.0457 H   0  0  0  0  0  0  0  0  0  0  0  0
   -4.2788   -1.1512    0.3795 H   0  0  0  0  0  0  0  0  0  0  0  0
   -2.1778   -0.7778    0.6581 C   0  0  0  0  0  0  0  0  0  0  0  0
   -1.3043   -1.5771    0.3834 O   0  0  0  0  0  0  0  0  0  0  0  0
   -2.0113    0.5508    0.3259 N   0  0  0  0  0  0  0  0  0  0  0  0
   -2.8414    1.1035    0.5081 H   0  0  0  0  0  0  0  0  0  0  0  0
   -0.7357    1.3075    0.3545 C   0  0  1  0  0  0  0  0  0  0  0  0
   -0.2620    1.1117   -0.6135 H   0  0  0  0  0  0  0  0  0  0  0  0
   -1.1162    2.8096    0.4016 C   0  0  0  0  0  0  0  0  0  0  0  0
   -1.7840    2.9880    1.2509 H   0  0  0  0  0  0  0  0  0  0  0  0
   -0.2234    3.4235    0.5588 H   0  0  0  0  0  0  0  0  0  0  0  0
   -1.7714    3.2801   -0.9087 C   0  0  0  0  0  0  0  0  0  0  0  0
   -1.0829    3.0982   -1.7422 H   0  0  0  0  0  0  0  0  0  0  0  0
   -2.6846    2.7061   -1.0984 H   0  0  0  0  0  0  0  0  0  0  0  0
   -2.1075    4.7746   -0.8307 C   0  0  0  0  0  0  0  0  0  0  0  0
   -2.7740    4.9520    0.0205 H   0  0  0  0  0  0  0  0  0  0  0  0
   -1.1862    5.3444   -0.6645 H   0  0  0  0  0  0  0  0  0  0  0  0
   -2.7794    5.2371   -2.1224 C   0  0  0  0  0  0  0  0  0  0  0  0
   -2.1003    5.0543   -2.9685 H   0  0  0  0  0  0  0  0  0  0  0  0
   -3.6834    4.6357   -2.2974 H   0  0  0  0  0  0  0  0  0  0  0  0
   -3.1113    6.6743   -2.0068 N   0  3  0  0  0  0  0  0  0  0  0  0
   -2.2594    7.2162   -1.8456 H   0  0  0  0  0  0  0  0  0  0  0  0
   -3.5541    7.0040   -2.8676 H   0  0  0  0  0  0  0  0  0  0  0  0
   -3.7518    6.8259   -1.2255 H   0  0  0  0  0  0  0  0  0  0  0  0
    0.4303    0.9952    1.3582 C   0  0  0  0  0  0  0  0  0  0  0  0
    1.3558    1.7898    1.4214 O   0  0  0  0  0  0  0  0  0  0  0  0
    0.8038   -0.1902    1.9455 N   0  0  0  0  0  0  0  0  0  0  0  0
    1.7976   -0.1687    2.1628 H   0  0  0  0  0  0  0  0  0  0  0  0
   -0.0131   -0.8161    2.9788 C   0  0  0  0  0  0  0  0  0  0  0  0
   -0.9791   -0.3144    3.0894 H   0  0  0  0  0  0  0  0  0  0  0  0
   -0.1869   -1.8705    2.7399 H   0  0  0  0  0  0  0  0  0  0  0  0
    0.5042   -0.7633    3.9423 H   0  0  0  0  0  0  0  0  0  0  0  0
  1  2  1  0  0  0  0
  2  3  1  0  0  0  0
  2  4  1  0  0  0  0
  2  5  1  0  0  0  0
  5  6  2  0  0  0  0
  5  7  1  0  0  0  0
  7  8  1  0  0  0  0
  7  9  1  0  0  0  0
  9 10  1  0  0  0  0
  9 11  1  0  0  0  0
  9 27  1  0  0  0  0
 11 12  1  0  0  0  0
 11 13  1  0  0  0  0
 11 14  1  0  0  0  0
 14 15  1  0  0  0  0
 14 16  1  0  0  0  0
 14 17  1  0  0  0  0
 17 18  1  0  0  0  0
 17 19  1  0  0  0  0
 17 20  1  0  0  0  0
 20 21  1  0  0  0  0
 20 22  1  0  0  0  0
 20 23  1  0  0  0  0
 23 24  1  0  0  0  0
 23 25  1  0  0  0  0
 23 26  1  0  0  0  0
 27 28  2  0  0  0  0
 27 29  1  0  0  0  0
 29 30  1  0  0  0  0
 29 31  1  0  0  0  0
 31 32  1  0  0  0  0
 31 33  1  0  0  0  0
 31 34  1  0  0  0  0
M  CHG  1  23   1
M  END
$$$$

  -OEChem-01062216093D

 34 33  0     1  0  0  0  0  0999 V2000
   -3.8918   -2.2887    1.1124 H   0  0  0  0  0  0  0  0  0  0  0  0
   -3.8830   -1.2398    0.8012 C   0  0  0  0  0  0  0  0  0  0  0  0
   -4.3263   -0.6374    1.5976 H   0  0  0  0  0  0  0  0  0  0  0  0
   -4.4849   -1.1376   -0.1051 H   0  0  0  0  0  0  0  0  0  0  0  0
   -2.4594   -0.7887    0.5358 C   0  0  0  0  0  0  0  0  0  0  0  0
   -1.5764   -1.6209    0.4361 O   0  0  0  0  0  0  0  0  0  0  0  0
   -2.2041    0.5372    0.2393 N   0  0  0  0  0  0  0  0  0  0  0  0
   -3.0382    1.1112    0.3027 H   0  0  0  0  0  0  0  0  0  0  0  0
   -0.9297    1.2745    0.4371 C   0  0  1  0  0  0  0  0  0  0  0  0
   -0.3237    1.0886   -0.4557 H   0  0  0  0  0  0  0  0  0  0  0  0
   -1.2771    2.7845    0.4623 C   0  0  0  0  0  0  0  0  0  0  0  0
   -2.0314    2.9714    1.2344 H   0  0  0  0  0  0  0  0  0  0  0  0
   -0.3860    3.3631    0.7288 H   0  0  0  0  0  0  0  0  0  0  0  0
   -1.7572    3.3019   -0.9044 C   0  0  0  0  0  0  0  0  0  0  0  0
   -0.9809    3.1189   -1.6562 H   0  0  0  0  0  0  0  0  0  0  0  0
   -2.6576    2.7610   -1.2142 H   0  0  0  0  0  0  0  0  0  0  0  0
   -2.0594    4.8043   -0.8206 C   0  0  0  0  0  0  0  0  0  0  0  0
   -2.8176    4.9772   -0.0489 H   0  0  0  0  0  0  0  0  0  0  0  0
   -1.1497    5.3403   -0.5266 H   0  0  0  0  0  0  0  0  0  0  0  0
   -2.5605    5.3303   -2.1643 C   0  0  0  0  0  0  0  0  0  0  0  0
   -1.7920    5.1543   -2.9318 H   0  0  0  0  0  0  0  0  0  0  0  0
   -3.4548    4.7655   -2.4658 H   0  0  0  0  0  0  0  0  0  0  0  0
   -2.8610    6.7731   -2.0318 N   0  3  0  0  0  0  0  0  0  0  0  0
   -2.0191    7.2797   -1.7493 H   0  0  0  0  0  0  0  0  0  0  0  0
   -3.1886    7.1489   -2.9246 H   0  0  0  0  0  0  0  0  0  0  0  0
   -3.5852    6.9175   -1.3254 H   0  0  0  0  0  0  0  0  0  0  0  0
    0.0319    0.8730    1.6080 C   0  0  0  0  0  0  0  0  0  0  0  0
    0.5195    1.7492    2.3118 O   0  0  0  0  0  0  0  0  0  0  0  0
    0.3705   -0.4287    1.9184 N   0  0  0  0  0  0  0  0  0  0  0  0
   -0.0697   -1.1645    1.3603 H   0  0  0  0  0  0  0  0  0  0  0  0
    1.2548   -0.8135    3.0131 C   0  0  0  0  0  0  0  0  0  0  0  0
    0.8469   -0.4803    3.9731 H   0  0  0  0  0  0  0  0  0  0  0  0
    1.3642   -1.9021    3.0438 H   0  0  0  0  0  0  0  0  0  0  0  0
    2.2475   -0.3705    2.8791 H   0  0  0  0  0  0  0  0  0  0  0  0
  1  2  1  0  0  0  0
  2  3  1  0  0  0  0
  2  4  1  0  0  0  0
  2  5  1  0  0  0  0
  5  6  2  0  0  0  0
  5  7  1  0  0  0  0
  7  8  1  0  0  0  0
  7  9  1  0  0  0  0
  9 10  1  0  0  0  0
  9 11  1  0  0  0  0
  9 27  1  0  0  0  0
 11 12  1  0  0  0  0
 11 13  1  0  0  0  0
 11 14  1  0  0  0  0
 14 15  1  0  0  0  0
 14 16  1  0  0  0  0
 14 17  1  0  0  0  0
 17 18  1  0  0  0  0
 17 19  1  0  0  0  0
 17 20  1  0  0  0  0
 20 21  1  0  0  0  0
 20 22  1  0  0  0  0
 20 23  1  0  0  0  0
 23 24  1  0  0  0  0
 23 25  1  0  0  0  0
 23 26  1  0  0  0  0
 27 28  2  0  0  0  0
 27 29  1  0  0  0  0
 29 30  1  0  0  0  0
 29 31  1  0  0  0  0
 31 32  1  0  0  0  0
 31 33  1  0  0  0  0
 31 34  1  0  0  0  0
M  CHG  1  23   1
M  END
$$$$

  -OEChem-01062216093D

 34 33  0     1  0  0  0  0  0999 V2000
   -3.7924   -2.3131    1.1638 H   0  0  0  0  0  0  0  0  0  0  0  0
   -3.8054   -1.2592    0.8705 C   0  0  0  0  0  0  0  0  0  0  0  0
   -4.2207   -0.6737    1.6944 H   0  0  0  0  0  0  0  0  0  0  0  0
   -4.4446   -1.1474   -0.0086 H   0  0  0  0  0  0  0  0  0  0  0  0
   -2.3982   -0.7899    0.5541 C   0  0  0  0  0  0  0  0  0  0  0  0
   -1.5000   -1.6059    0.4521 O   0  0  0  0  0  0  0  0  0  0  0  0
   -2.1746    0.5345    0.2266 N   0  0  0  0  0  0  0  0  0  0  0  0
   -3.0123    1.1001    0.3136 H   0  0  0  0  0  0  0  0  0  0  0  0
   -0.9015    1.2787    0.3913 C   0  0  1  0  0  0  0  0  0  0  0  0
   -0.3080    1.0928   -0.5097 H   0  0  0  0  0  0  0  0  0  0  0  0
   -1.2416    2.7878    0.4274 C   0  0  0  0  0  0  0  0  0  0  0  0
   -1.9768    2.9757    1.2176 H   0  0  0  0  0  0  0  0  0  0  0  0
   -0.3387    3.3563    0.6784 H   0  0  0  0  0  0  0  0  0  0  0  0
   -1.7549    3.3099   -0.9241 C   0  0  0  0  0  0  0  0  0  0  0  0
   -0.9992    3.1264   -1.6964 H   0  0  0  0  0  0  0  0  0  0  0  0
   -2.6649    2.7728   -1.2112 H   0  0  0  0  0  0  0  0  0  0  0  0
   -2.0482    4.8126   -0.8281 C   0  0  0  0  0  0  0  0  0  0  0  0
   -2.7848    4.9869   -0.0358 H   0  0  0  0  0  0  0  0  0  0  0  0
   -1.1287    5.3443   -0.5580 H   0  0  0  0  0  0  0  0  0  0  0  0
   -2.5819    5.3414   -2.1576 C   0  0  0  0  0  0  0  0  0  0  0  0
   -1.8337    5.1631   -2.9444 H   0  0  0  0  0  0  0  0  0  0  0  0
   -3.4856    4.7797   -2.4364 H   0  0  0  0  0  0  0  0  0  0  0  0
   -2.8741    6.7851   -2.0170 N   0  3  0  0  0  0  0  0  0  0  0  0
   -2.0235    7.2894   -1.7568 H   0  0  0  0  0  0  0  0  0  0  0  0
   -3.2243    7.1618   -2.9008 H   0  0  0  0  0  0  0  0  0  0  0  0
   -3.5789    6.9316   -1.2917 H   0  0  0  0  0  0  0  0  0  0  0  0
    0.0596    0.8760    1.5573 C   0  0  0  0  0  0  0  0  0  0  0  0
    0.3587    1.7065    2.4072 O   0  0  0  0  0  0  0  0  0  0  0  0
    0.6119   -0.3838    1.6742 N   0  0  0  0  0  0  0  0  0  0  0  0
    0.1913   -1.1090    1.0866 H   0  0  0  0  0  0  0  0  0  0  0  0
    1.4367   -0.8039    2.8020 C   0  0  0  0  0  0  0  0  0  0  0  0
    0.8657   -0.7570    3.7351 H   0  0  0  0  0  0  0  0  0  0  0  0
    1.7787   -1.8332    2.6562 H   0  0  0  0  0  0  0  0  0  0  0  0
    2.3178   -0.1602    2.8956 H   0  0  0  0  0  0  0  0  0  0  0  0
  1  2  1  0  0  0  0
  2  3  1  0  0  0  0
  2  4  1  0  0  0  0
  2  5  1  0  0  0  0
  5  6  2  0  0  0  0
  5  7  1  0  0  0  0
  7  8  1  0  0  0  0
  7  9  1  0  0  0  0
  9 10  1  0  0  0  0
  9 11  1  0  0  0  0
  9 27  1  0  0  0  0
 11 12  1  0  0  0  0
 11 13  1  0  0  0  0
 11 14  1  0  0  0  0
 14 15  1  0  0  0  0
 14 16  1  0  0  0  0
 14 17  1  0  0  0  0
 17 18  1  0  0  0  0
 17 19  1  0  0  0  0
 17 20  1  0  0  0  0
 20 21  1  0  0  0  0
 20 22  1  0  0  0  0
 20 23  1  0  0  0  0
 23 24  1  0  0  0  0
 23 25  1  0  0  0  0
 23 26  1  0  0  0  0
 27 28  2  0  0  0  0
 27 29  1  0  0  0  0
 29 30  1  0  0  0  0
 29 31  1  0  0  0  0
 31 32  1  0  0  0  0
 31 33  1  0  0  0  0
 31 34  1  0  0  0  0
M  CHG  1  23   1
M  END
$$$$

  -OEChem-01062216093D

 34 33  0     1  0  0  0  0  0999 V2000
   -3.6812   -2.3401    1.2247 H   0  0  0  0  0  0  0  0  0  0  0  0
   -3.7287   -1.2932    0.9105 C   0  0  0  0  0  0  0  0  0  0  0  0
   -4.1596   -0.7046    1.7240 H   0  0  0  0  0  0  0  0  0  0  0  0
   -4.3735   -1.2190    0.0315 H   0  0  0  0  0  0  0  0  0  0  0  0
   -2.3379   -0.7871    0.5801 C   0  0  0  0  0  0  0  0  0  0  0  0
   -1.4090   -1.5727    0.5111 O   0  0  0  0  0  0  0  0  0  0  0  0
   -2.1530    0.5333    0.2136 N   0  0  0  0  0  0  0  0  0  0  0  0
   -2.9979    1.0880    0.3021 H   0  0  0  0  0  0  0  0  0  0  0  0
   -0.8846    1.2850    0.3579 C   0  0  1  0  0  0  0  0  0  0  0  0
   -0.2904    1.0976   -0.5424 H   0  0  0  0  0  0  0  0  0  0  0  0
   -1.2195    2.7931    0.4010 C   0  0  0  0  0  0  0  0  0  0  0  0
   -1.9439    2.9811    1.2009 H   0  0  0  0  0  0  0  0  0  0  0  0
   -0.3089    3.3522    0.6458 H   0  0  0  0  0  0  0  0  0  0  0  0
   -1.7534    3.3198   -0.9410 C   0  0  0  0  0  0  0  0  0  0  0  0
   -1.0116    3.1348   -1.7263 H   0  0  0  0  0  0  0  0  0  0  0  0
   -2.6701    2.7858   -1.2128 H   0  0  0  0  0  0  0  0  0  0  0  0
   -2.0409    4.8236   -0.8372 C   0  0  0  0  0  0  0  0  0  0  0  0
   -2.7645    4.9975   -0.0328 H   0  0  0  0  0  0  0  0  0  0  0  0
   -1.1157    5.3520   -0.5798 H   0  0  0  0  0  0  0  0  0  0  0  0
   -2.5951    5.3593   -2.1557 C   0  0  0  0  0  0  0  0  0  0  0  0
   -1.8618    5.1812   -2.9561 H   0  0  0  0  0  0  0  0  0  0  0  0
   -3.5056    4.8024   -2.4209 H   0  0  0  0  0  0  0  0  0  0  0  0
   -2.8794    6.8034   -2.0034 N   0  3  0  0  0  0  0  0  0  0  0  0
   -2.0228    7.3034   -1.7559 H   0  0  0  0  0  0  0  0  0  0  0  0
   -3.2441    7.1859   -2.8787 H   0  0  0  0  0  0  0  0  0  0  0  0
   -3.5707    6.9485   -1.2649 H   0  0  0  0  0  0  0  0  0  0  0  0
    0.0539    0.8838    1.5372 C   0  0  0  0  0  0  0  0  0  0  0  0
    0.1795    1.6381    2.4949 O   0  0  0  0  0  0  0  0  0  0  0  0
    0.8141   -0.2686    1.4991 N   0  0  0  0  0  0  0  0  0  0  0  0
    0.4523   -0.9910    0.8712 H   0  0  0  0  0  0  0  0  0  0  0  0
    1.6370   -0.7064    2.6215 C   0  0  0  0  0  0  0  0  0  0  0  0
    1.0140   -0.9036    3.5003 H   0  0  0  0  0  0  0  0  0  0  0  0
    2.1714   -1.6255    2.3616 H   0  0  0  0  0  0  0  0  0  0  0  0
    2.3769    0.0589    2.8785 H   0  0  0  0  0  0  0  0  0  0  0  0
  1  2  1  0  0  0  0
  2  3  1  0  0  0  0
  2  4  1  0  0  0  0
  2  5  1  0  0  0  0
  5  6  2  0  0  0  0
  5  7  1  0  0  0  0
  7  8  1  0  0  0  0
  7  9  1  0  0  0  0
  9 10  1  0  0  0  0
  9 11  1  0  0  0  0
  9 27  1  0  0  0  0
 11 12  1  0  0  0  0
 11 13  1  0  0  0  0
 11 14  1  0  0  0  0
 14 15  1  0  0  0  0
 14 16  1  0  0  0  0
 14 17  1  0  0  0  0
 17 18  1  0  0  0  0
 17 19  1  0  0  0  0
 17 20  1  0  0  0  0
 20 21  1  0  0  0  0
 20 22  1  0  0  0  0
 20 23  1  0  0  0  0
 23 24  1  0  0  0  0
 23 25  1  0  0  0  0
 23 26  1  0  0  0  0
 27 28  2  0  0  0  0
 27 29  1  0  0  0  0
 29 30  1  0  0  0  0
 29 31  1  0  0  0  0
 31 32  1  0  0  0  0
 31 33  1  0  0  0  0
 31 34  1  0  0  0  0
M  CHG  1  23   1
M  END
$$$$

  -OEChem-01062216093D

 34 33  0     1  0  0  0  0  0999 V2000
   -3.5687   -2.3721    1.2682 H   0  0  0  0  0  0  0  0  0  0  0  0
   -3.6505   -1.3261    0.9587 C   0  0  0  0  0  0  0  0  0  0  0  0
   -4.0716   -0.7497    1.7860 H   0  0  0  0  0  0  0  0  0  0  0  0
   -4.3222   -1.2662    0.0994 H   0  0  0  0  0  0  0  0  0  0  0  0
   -2.2828   -0.7849    0.5895 C   0  0  0  0  0  0  0  0  0  0  0  0
   -1.3240   -1.5366    0.5350 O   0  0  0  0  0  0  0  0  0  0  0  0
   -2.1412    0.5310    0.1871 N   0  0  0  0  0  0  0  0  0  0  0  0
   -2.9922    1.0727    0.2949 H   0  0  0  0  0  0  0  0  0  0  0  0
   -0.8780    1.2898    0.3193 C   0  0  1  0  0  0  0  0  0  0  0  0
   -0.2795    1.1029   -0.5783 H   0  0  0  0  0  0  0  0  0  0  0  0
   -1.2063    2.7973    0.3736 C   0  0  0  0  0  0  0  0  0  0  0  0
   -1.9246    2.9829    1.1802 H   0  0  0  0  0  0  0  0  0  0  0  0
   -0.2906    3.3482    0.6179 H   0  0  0  0  0  0  0  0  0  0  0  0
   -1.7540    3.3325   -0.9585 C   0  0  0  0  0  0  0  0  0  0  0  0
   -1.0225    3.1488   -1.7538 H   0  0  0  0  0  0  0  0  0  0  0  0
   -2.6761    2.8028   -1.2210 H   0  0  0  0  0  0  0  0  0  0  0  0
   -2.0343    4.8366   -0.8435 C   0  0  0  0  0  0  0  0  0  0  0  0
   -2.7468    5.0100   -0.0292 H   0  0  0  0  0  0  0  0  0  0  0  0
   -1.1039    5.3604   -0.5956 H   0  0  0  0  0  0  0  0  0  0  0  0
   -2.6023    5.3790   -2.1530 C   0  0  0  0  0  0  0  0  0  0  0  0
   -1.8794    5.2012   -2.9629 H   0  0  0  0  0  0  0  0  0  0  0  0
   -3.5180    4.8260   -2.4087 H   0  0  0  0  0  0  0  0  0  0  0  0
   -2.8802    6.8233   -1.9928 N   0  3  0  0  0  0  0  0  0  0  0  0
   -2.0203    7.3191   -1.7482 H   0  0  0  0  0  0  0  0  0  0  0  0
   -3.2486    7.2106   -2.8644 H   0  0  0  0  0  0  0  0  0  0  0  0
   -3.5668    6.9683   -1.2498 H   0  0  0  0  0  0  0  0  0  0  0  0
    0.0312    0.8867    1.5159 C   0  0  0  0  0  0  0  0  0  0  0  0
   -0.0294    1.5247    2.5605 O   0  0  0  0  0  0  0  0  0  0  0  0
    0.9944   -0.0936    1.3753 N   0  0  0  0  0  0  0  0  0  0  0  0
    0.7700   -0.7934    0.6665 H   0  0  0  0  0  0  0  0  0  0  0  0
    1.8202   -0.5289    2.4969 C   0  0  0  0  0  0  0  0  0  0  0  0
    1.1969   -0.9616    3.2867 H   0  0  0  0  0  0  0  0  0  0  0  0
    2.5377   -1.2863    2.1663 H   0  0  0  0  0  0  0  0  0  0  0  0
    2.3803    0.3147    2.9145 H   0  0  0  0  0  0  0  0  0  0  0  0
  1  2  1  0  0  0  0
  2  3  1  0  0  0  0
  2  4  1  0  0  0  0
  2  5  1  0  0  0  0
  5  6  2  0  0  0  0
  5  7  1  0  0  0  0
  7  8  1  0  0  0  0
  7  9  1  0  0  0  0
  9 10  1  0  0  0  0
  9 11  1  0  0  0  0
  9 27  1  0  0  0  0
 11 12  1  0  0  0  0
 11 13  1  0  0  0  0
 11 14  1  0  0  0  0
 14 15  1  0  0  0  0
 14 16  1  0  0  0  0
 14 17  1  0  0  0  0
 17 18  1  0  0  0  0
 17 19  1  0  0  0  0
 17 20  1  0  0  0  0
 20 21  1  0  0  0  0
 20 22  1  0  0  0  0
 20 23  1  0  0  0  0
 23 24  1  0  0  0  0
 23 25  1  0  0  0  0
 23 26  1  0  0  0  0
 27 28  2  0  0  0  0
 27 29  1  0  0  0  0
 29 30  1  0  0  0  0
 29 31  1  0  0  0  0
 31 32  1  0  0  0  0
 31 33  1  0  0  0  0
 31 34  1  0  0  0  0
M  CHG  1  23   1
M  END
$$$$

  -OEChem-01062216093D

 34 33  0     1  0  0  0  0  0999 V2000
   -3.4897   -2.3791    1.3210 H   0  0  0  0  0  0  0  0  0  0  0  0
   -3.5957   -1.3387    0.9999 C   0  0  0  0  0  0  0  0  0  0  0  0
   -4.0035   -0.7577    1.8306 H   0  0  0  0  0  0  0  0  0  0  0  0
   -4.2900   -1.2998    0.1574 H   0  0  0  0  0  0  0  0  0  0  0  0
   -2.2463   -0.7818    0.5890 C   0  0  0  0  0  0  0  0  0  0  0  0
   -1.2725   -1.5148    0.5330 O   0  0  0  0  0  0  0  0  0  0  0  0
   -2.1335    0.5294    0.1614 N   0  0  0  0  0  0  0  0  0  0  0  0
   -2.9862    1.0632    0.2919 H   0  0  0  0  0  0  0  0  0  0  0  0
   -0.8732    1.2918    0.2861 C   0  0  1  0  0  0  0  0  0  0  0  0
   -0.2738    1.1042   -0.6106 H   0  0  0  0  0  0  0  0  0  0  0  0
   -1.1968    2.7983    0.3519 C   0  0  0  0  0  0  0  0  0  0  0  0
   -1.9096    2.9811    1.1640 H   0  0  0  0  0  0  0  0  0  0  0  0
   -0.2779    3.3440    0.5954 H   0  0  0  0  0  0  0  0  0  0  0  0
   -1.7551    3.3403   -0.9724 C   0  0  0  0  0  0  0  0  0  0  0  0
   -1.0317    3.1583   -1.7752 H   0  0  0  0  0  0  0  0  0  0  0  0
   -2.6805    2.8133   -1.2283 H   0  0  0  0  0  0  0  0  0  0  0  0
   -2.0314    4.8443   -0.8487 C   0  0  0  0  0  0  0  0  0  0  0  0
   -2.7365    5.0162   -0.0276 H   0  0  0  0  0  0  0  0  0  0  0  0
   -1.0981    5.3657   -0.6076 H   0  0  0  0  0  0  0  0  0  0  0  0
   -2.6101    5.3919   -2.1514 C   0  0  0  0  0  0  0  0  0  0  0  0
   -1.8949    5.2155   -2.9686 H   0  0  0  0  0  0  0  0  0  0  0  0
   -3.5290    4.8410   -2.4004 H   0  0  0  0  0  0  0  0  0  0  0  0
   -2.8843    6.8363   -1.9843 N   0  3  0  0  0  0  0  0  0  0  0  0
   -2.0212    7.3304   -1.7481 H   0  0  0  0  0  0  0  0  0  0  0  0
   -3.2622    7.2263   -2.8507 H   0  0  0  0  0  0  0  0  0  0  0  0
   -3.5624    6.9796   -1.2331 H   0  0  0  0  0  0  0  0  0  0  0  0
    0.0174    0.8907    1.4940 C   0  0  0  0  0  0  0  0  0  0  0  0
   -0.2281    1.3654    2.5969 O   0  0  0  0  0  0  0  0  0  0  0  0
    1.1637    0.1411    1.3107 N   0  0  0  0  0  0  0  0  0  0  0  0
    1.1516   -0.4586    0.4880 H   0  0  0  0  0  0  0  0  0  0  0  0
    1.9828   -0.2929    2.4376 C   0  0  0  0  0  0  0  0  0  0  0  0
    1.4061   -0.9458    3.1016 H   0  0  0  0  0  0  0  0  0  0  0  0
    2.8567   -0.8459    2.0800 H   0  0  0  0  0  0  0  0  0  0  0  0
    2.3353    0.5697    3.0132 H   0  0  0  0  0  0  0  0  0  0  0  0
  1  2  1  0  0  0  0
  2  3  1  0  0  0  0
  2  4  1  0  0  0  0
  2  5  1  0  0  0  0
  5  6  2  0  0  0  0
  5  7  1  0  0  0  0
  7  8  1  0  0  0  0
  7  9  1  0  0  0  0
  9 10  1  0  0  0  0
  9 11  1  0  0  0  0
  9 27  1  0  0  0  0
 11 12  1  0  0  0  0
 11 13  1  0  0  0  0
 11 14  1  0  0  0  0
 14 15  1  0  0  0  0
 14 16  1  0  0  0  0
 14 17  1  0  0  0  0
 17 18  1  0  0  0  0
 17 19  1  0  0  0  0
 17 20  1  0  0  0  0
 20 21  1  0  0  0  0
 20 22  1  0  0  0  0
 20 23  1  0  0  0  0
 23 24  1  0  0  0  0
 23 25  1  0  0  0  0
 23 26  1  0  0  0  0
 27 28  2  0  0  0  0
 27 29  1  0  0  0  0
 29 30  1  0  0  0  0
 29 31  1  0  0  0  0
 31 32  1  0  0  0  0
 31 33  1  0  0  0  0
 31 34  1  0  0  0  0
M  CHG  1  23   1
M  END
$$$$

  -OEChem-01062216093D

 34 33  0     1  0  0  0  0  0999 V2000
   -3.4525   -2.3760    1.3433 H   0  0  0  0  0  0  0  0  0  0  0  0
   -3.5675   -1.3348    1.0284 C   0  0  0  0  0  0  0  0  0  0  0  0
   -3.9489   -0.7550    1.8725 H   0  0  0  0  0  0  0  0  0  0  0  0
   -4.2869   -1.2931    0.2073 H   0  0  0  0  0  0  0  0  0  0  0  0
   -2.2300   -0.7789    0.5800 C   0  0  0  0  0  0  0  0  0  0  0  0
   -1.2555   -1.5094    0.5056 O   0  0  0  0  0  0  0  0  0  0  0  0
   -2.1287    0.5293    0.1403 N   0  0  0  0  0  0  0  0  0  0  0  0
   -2.9792    1.0605    0.2930 H   0  0  0  0  0  0  0  0  0  0  0  0
   -0.8682    1.2907    0.2657 C   0  0  1  0  0  0  0  0  0  0  0  0
   -0.2673    1.1025   -0.6293 H   0  0  0  0  0  0  0  0  0  0  0  0
   -1.1917    2.7953    0.3410 C   0  0  0  0  0  0  0  0  0  0  0  0
   -1.9039    2.9716    1.1549 H   0  0  0  0  0  0  0  0  0  0  0  0
   -0.2730    3.3399    0.5867 H   0  0  0  0  0  0  0  0  0  0  0  0
   -1.7541    3.3430   -0.9802 C   0  0  0  0  0  0  0  0  0  0  0  0
   -1.0327    3.1648   -1.7857 H   0  0  0  0  0  0  0  0  0  0  0  0
   -2.6799    2.8163   -1.2362 H   0  0  0  0  0  0  0  0  0  0  0  0
   -2.0322    4.8462   -0.8522 C   0  0  0  0  0  0  0  0  0  0  0  0
   -2.7359    5.0141   -0.0290 H   0  0  0  0  0  0  0  0  0  0  0  0
   -1.0990    5.3679   -0.6113 H   0  0  0  0  0  0  0  0  0  0  0  0
   -2.6147    5.3972   -2.1523 C   0  0  0  0  0  0  0  0  0  0  0  0
   -1.9011    5.2242   -2.9712 H   0  0  0  0  0  0  0  0  0  0  0  0
   -3.5334    4.8460   -2.4011 H   0  0  0  0  0  0  0  0  0  0  0  0
   -2.8908    6.8408   -1.9814 N   0  3  0  0  0  0  0  0  0  0  0  0
   -2.0269    7.3370   -1.7528 H   0  0  0  0  0  0  0  0  0  0  0  0
   -3.2776    7.2305   -2.8440 H   0  0  0  0  0  0  0  0  0  0  0  0
   -3.5625    6.9818   -1.2240 H   0  0  0  0  0  0  0  0  0  0  0  0
    0.0114    0.8917    1.4807 C   0  0  0  0  0  0  0  0  0  0  0  0
   -0.3824    1.1736    2.6064 O   0  0  0  0  0  0  0  0  0  0  0  0
    1.2965    0.4127    1.3048 N   0  0  0  0  0  0  0  0  0  0  0  0
    1.4868   -0.0147    0.4022 H   0  0  0  0  0  0  0  0  0  0  0  0
    2.1208   -0.0068    2.4338 C   0  0  0  0  0  0  0  0  0  0  0  0
    1.6477   -0.8402    2.9644 H   0  0  0  0  0  0  0  0  0  0  0  0
    3.1054   -0.3322    2.0842 H   0  0  0  0  0  0  0  0  0  0  0  0
    2.2636    0.8210    3.1367 H   0  0  0  0  0  0  0  0  0  0  0  0
  1  2  1  0  0  0  0
  2  3  1  0  0  0  0
  2  4  1  0  0  0  0
  2  5  1  0  0  0  0
  5  6  2  0  0  0  0
  5  7  1  0  0  0  0
  7  8  1  0  0  0  0
  7  9  1  0  0  0  0
  9 10  1  0  0  0  0
  9 11  1  0  0  0  0
  9 27  1  0  0  0  0
 11 12  1  0  0  0  0
 11 13  1  0  0  0  0
 11 14  1  0  0  0  0
 14 15  1  0  0  0  0
 14 16  1  0  0  0  0
 14 17  1  0  0  0  0
 17 18  1  0  0  0  0
 17 19  1  0  0  0  0
 17 20  1  0  0  0  0
 20 21  1  0  0  0  0
 20 22  1  0  0  0  0
 20 23  1  0  0  0  0
 23 24  1  0  0  0  0
 23 25  1  0  0  0  0
 23 26  1  0  0  0  0
 27 28  2  0  0  0  0
 27 29  1  0  0  0  0
 29 30  1  0  0  0  0
 29 31  1  0  0  0  0
 31 32  1  0  0  0  0
 31 33  1  0  0  0  0
 31 34  1  0  0  0  0
M  CHG  1  23   1
M  END
$$$$

  -OEChem-01062216093D

 34 33  0     1  0  0  0  0  0999 V2000
   -3.4458   -2.3843    1.3235 H   0  0  0  0  0  0  0  0  0  0  0  0
   -3.5551   -1.3318    1.0460 C   0  0  0  0  0  0  0  0  0  0  0  0
   -3.8940   -0.7740    1.9223 H   0  0  0  0  0  0  0  0  0  0  0  0
   -4.3042   -1.2518    0.2551 H   0  0  0  0  0  0  0  0  0  0  0  0
   -2.2266   -0.7817    0.5648 C   0  0  0  0  0  0  0  0  0  0  0  0
   -1.2574   -1.5159    0.4622 O   0  0  0  0  0  0  0  0  0  0  0  0
   -2.1296    0.5263    0.1227 N   0  0  0  0  0  0  0  0  0  0  0  0
   -2.9765    1.0566    0.2959 H   0  0  0  0  0  0  0  0  0  0  0  0
   -0.8675    1.2844    0.2558 C   0  0  1  0  0  0  0  0  0  0  0  0
   -0.2637    1.0955   -0.6373 H   0  0  0  0  0  0  0  0  0  0  0  0
   -1.1910    2.7881    0.3402 C   0  0  0  0  0  0  0  0  0  0  0  0
   -1.9044    2.9589    1.1543 H   0  0  0  0  0  0  0  0  0  0  0  0
   -0.2730    3.3317    0.5903 H   0  0  0  0  0  0  0  0  0  0  0  0
   -1.7506    3.3421   -0.9802 C   0  0  0  0  0  0  0  0  0  0  0  0
   -1.0270    3.1675   -1.7845 H   0  0  0  0  0  0  0  0  0  0  0  0
   -2.6748    2.8149   -1.2409 H   0  0  0  0  0  0  0  0  0  0  0  0
   -2.0316    4.8450   -0.8496 C   0  0  0  0  0  0  0  0  0  0  0  0
   -2.7394    5.0091   -0.0293 H   0  0  0  0  0  0  0  0  0  0  0  0
   -1.1009    5.3684   -0.6036 H   0  0  0  0  0  0  0  0  0  0  0  0
   -2.6109    5.3970   -2.1515 C   0  0  0  0  0  0  0  0  0  0  0  0
   -1.8933    5.2266   -2.9678 H   0  0  0  0  0  0  0  0  0  0  0  0
   -3.5268    4.8432   -2.4055 H   0  0  0  0  0  0  0  0  0  0  0  0
   -2.8915    6.8399   -1.9822 N   0  3  0  0  0  0  0  0  0  0  0  0
   -2.0295    7.3394   -1.7539 H   0  0  0  0  0  0  0  0  0  0  0  0
   -3.2794    7.2273   -2.8455 H   0  0  0  0  0  0  0  0  0  0  0  0
   -3.5641    6.9796   -1.2256 H   0  0  0  0  0  0  0  0  0  0  0  0
    0.0054    0.8855    1.4751 C   0  0  0  0  0  0  0  0  0  0  0  0
   -0.4826    0.9785    2.5955 O   0  0  0  0  0  0  0  0  0  0  0  0
    1.3697    0.7005    1.3426 N   0  0  0  0  0  0  0  0  0  0  0  0
    1.7031    0.4664    0.4120 H   0  0  0  0  0  0  0  0  0  0  0  0
    2.2103    0.3284    2.4763 C   0  0  0  0  0  0  0  0  0  0  0  0
    1.8884   -0.6321    2.8935 H   0  0  0  0  0  0  0  0  0  0  0  0
    3.2541    0.2366    2.1608 H   0  0  0  0  0  0  0  0  0  0  0  0
    2.1553    1.0887    3.2628 H   0  0  0  0  0  0  0  0  0  0  0  0
  1  2  1  0  0  0  0
  2  3  1  0  0  0  0
  2  4  1  0  0  0  0
  2  5  1  0  0  0  0
  5  6  2  0  0  0  0
  5  7  1  0  0  0  0
  7  8  1  0  0  0  0
  7  9  1  0  0  0  0
  9 10  1  0  0  0  0
  9 11  1  0  0  0  0
  9 27  1  0  0  0  0
 11 12  1  0  0  0  0
 11 13  1  0  0  0  0
 11 14  1  0  0  0  0
 14 15  1  0  0  0  0
 14 16  1  0  0  0  0
 14 17  1  0  0  0  0
 17 18  1  0  0  0  0
 17 19  1  0  0  0  0
 17 20  1  0  0  0  0
 20 21  1  0  0  0  0
 20 22  1  0  0  0  0
 20 23  1  0  0  0  0
 23 24  1  0  0  0  0
 23 25  1  0  0  0  0
 23 26  1  0  0  0  0
 27 28  2  0  0  0  0
 27 29  1  0  0  0  0
 29 30  1  0  0  0  0
 29 31  1  0  0  0  0
 31 32  1  0  0  0  0
 31 33  1  0  0  0  0
 31 34  1  0  0  0  0
M  CHG  1  23   1
M  END
$$$$

  -OEChem-01062216093D

 34 33  0     1  0  0  0  0  0999 V2000
   -3.4392   -2.3850    1.3250 H   0  0  0  0  0  0  0  0  0  0  0  0
   -3.5476   -1.3289    1.0614 C   0  0  0  0  0  0  0  0  0  0  0  0
   -3.8529   -0.7759    1.9531 H   0  0  0  0  0  0  0  0  0  0  0  0
   -4.3206   -1.2354    0.2956 H   0  0  0  0  0  0  0  0  0  0  0  0
   -2.2295   -0.7861    0.5445 C   0  0  0  0  0  0  0  0  0  0  0  0
   -1.2697   -1.5271    0.4058 O   0  0  0  0  0  0  0  0  0  0  0  0
   -2.1324    0.5226    0.1038 N   0  0  0  0  0  0  0  0  0  0  0  0
   -2.9741    1.0532    0.2987 H   0  0  0  0  0  0  0  0  0  0  0  0
   -0.8669    1.2743    0.2462 C   0  0  1  0  0  0  0  0  0  0  0  0
   -0.2603    1.0852   -0.6449 H   0  0  0  0  0  0  0  0  0  0  0  0
   -1.1919    2.7769    0.3373 C   0  0  0  0  0  0  0  0  0  0  0  0
   -1.9097    2.9423    1.1488 H   0  0  0  0  0  0  0  0  0  0  0  0
   -0.2770    3.3225    0.5947 H   0  0  0  0  0  0  0  0  0  0  0  0
   -1.7461    3.3363   -0.9829 C   0  0  0  0  0  0  0  0  0  0  0  0
   -1.0185    3.1663   -1.7845 H   0  0  0  0  0  0  0  0  0  0  0  0
   -2.6685    2.8096   -1.2510 H   0  0  0  0  0  0  0  0  0  0  0  0
   -2.0287    4.8378   -0.8454 C   0  0  0  0  0  0  0  0  0  0  0  0
   -2.7396    4.9977   -0.0271 H   0  0  0  0  0  0  0  0  0  0  0  0
   -1.0993    5.3606   -0.5934 H   0  0  0  0  0  0  0  0  0  0  0  0
   -2.6026    5.3946   -2.1470 C   0  0  0  0  0  0  0  0  0  0  0  0
   -1.8825    5.2275   -2.9617 H   0  0  0  0  0  0  0  0  0  0  0  0
   -3.5175    4.8415   -2.4059 H   0  0  0  0  0  0  0  0  0  0  0  0
   -2.8853    6.8365   -1.9724 N   0  3  0  0  0  0  0  0  0  0  0  0
   -2.0258    7.3350   -1.7319 H   0  0  0  0  0  0  0  0  0  0  0  0
   -3.2640    7.2288   -2.8376 H   0  0  0  0  0  0  0  0  0  0  0  0
   -3.5663    6.9717   -1.2223 H   0  0  0  0  0  0  0  0  0  0  0  0
    0.0042    0.8753    1.4676 C   0  0  0  0  0  0  0  0  0  0  0  0
   -0.5352    0.7882    2.5649 O   0  0  0  0  0  0  0  0  0  0  0  0
    1.3824    0.9874    1.4145 N   0  0  0  0  0  0  0  0  0  0  0  0
    1.8065    0.9426    0.4928 H   0  0  0  0  0  0  0  0  0  0  0  0
    2.2261    0.6861    2.5675 C   0  0  0  0  0  0  0  0  0  0  0  0
    2.0729   -0.3481    2.8947 H   0  0  0  0  0  0  0  0  0  0  0  0
    3.2819    0.8152    2.3104 H   0  0  0  0  0  0  0  0  0  0  0  0
    1.9917    1.3559    3.4018 H   0  0  0  0  0  0  0  0  0  0  0  0
  1  2  1  0  0  0  0
  2  3  1  0  0  0  0
  2  4  1  0  0  0  0
  2  5  1  0  0  0  0
  5  6  2  0  0  0  0
  5  7  1  0  0  0  0
  7  8  1  0  0  0  0
  7  9  1  0  0  0  0
  9 10  1  0  0  0  0
  9 11  1  0  0  0  0
  9 27  1  0  0  0  0
 11 12  1  0  0  0  0
 11 13  1  0  0  0  0
 11 14  1  0  0  0  0
 14 15  1  0  0  0  0
 14 16  1  0  0  0  0
 14 17  1  0  0  0  0
 17 18  1  0  0  0  0
 17 19  1  0  0  0  0
 17 20  1  0  0  0  0
 20 21  1  0  0  0  0
 20 22  1  0  0  0  0
 20 23  1  0  0  0  0
 23 24  1  0  0  0  0
 23 25  1  0  0  0  0
 23 26  1  0  0  0  0
 27 28  2  0  0  0  0
 27 29  1  0  0  0  0
 29 30  1  0  0  0  0
 29 31  1  0  0  0  0
 31 32  1  0  0  0  0
 31 33  1  0  0  0  0
 31 34  1  0  0  0  0
M  CHG  1  23   1
M  END
$$$$

  -OEChem-01062216093D

 34 33  0     1  0  0  0  0  0999 V2000
   -3.4570   -2.3823    1.2906 H   0  0  0  0  0  0  0  0  0  0  0  0
   -3.5520   -1.3171    1.0613 C   0  0  0  0  0  0  0  0  0  0  0  0
   -3.8155   -0.7855    1.9789 H   0  0  0  0  0  0  0  0  0  0  0  0
   -4.3475   -1.1847    0.3246 H   0  0  0  0  0  0  0  0  0  0  0  0
   -2.2401   -0.7852    0.5184 C   0  0  0  0  0  0  0  0  0  0  0  0
   -1.2976   -1.5375    0.3293 O   0  0  0  0  0  0  0  0  0  0  0  0
   -2.1331    0.5281    0.0948 N   0  0  0  0  0  0  0  0  0  0  0  0
   -2.9678    1.0616    0.3098 H   0  0  0  0  0  0  0  0  0  0  0  0
   -0.8606    1.2668    0.2517 C   0  0  1  0  0  0  0  0  0  0  0  0
   -0.2535    1.0821   -0.6401 H   0  0  0  0  0  0  0  0  0  0  0  0
   -1.1910    2.7689    0.3519 C   0  0  0  0  0  0  0  0  0  0  0  0
   -1.9158    2.9251    1.1587 H   0  0  0  0  0  0  0  0  0  0  0  0
   -0.2824    3.3198    0.6191 H   0  0  0  0  0  0  0  0  0  0  0  0
   -1.7368    3.3319   -0.9708 C   0  0  0  0  0  0  0  0  0  0  0  0
   -1.0016    3.1665   -1.7665 H   0  0  0  0  0  0  0  0  0  0  0  0
   -2.6543    2.8018   -1.2488 H   0  0  0  0  0  0  0  0  0  0  0  0
   -2.0289    4.8320   -0.8354 C   0  0  0  0  0  0  0  0  0  0  0  0
   -2.7493    4.9878   -0.0246 H   0  0  0  0  0  0  0  0  0  0  0  0
   -1.1054    5.3607   -0.5744 H   0  0  0  0  0  0  0  0  0  0  0  0
   -2.5940    5.3841   -2.1433 C   0  0  0  0  0  0  0  0  0  0  0  0
   -1.8651    5.2204   -2.9508 H   0  0  0  0  0  0  0  0  0  0  0  0
   -3.5031    4.8248   -2.4100 H   0  0  0  0  0  0  0  0  0  0  0  0
   -2.8875    6.8246   -1.9745 N   0  3  0  0  0  0  0  0  0  0  0  0
   -2.0332    7.3296   -1.7299 H   0  0  0  0  0  0  0  0  0  0  0  0
   -3.2629    7.2119   -2.8435 H   0  0  0  0  0  0  0  0  0  0  0  0
   -3.5746    6.9576   -1.2296 H   0  0  0  0  0  0  0  0  0  0  0  0
    0.0178    0.8582    1.4681 C   0  0  0  0  0  0  0  0  0  0  0  0
   -0.5328    0.5830    2.5282 O   0  0  0  0  0  0  0  0  0  0  0  0
    1.3442    1.2529    1.5225 N   0  0  0  0  0  0  0  0  0  0  0  0
    1.8112    1.4034    0.6335 H   0  0  0  0  0  0  0  0  0  0  0  0
    2.1771    1.0256    2.7005 C   0  0  0  0  0  0  0  0  0  0  0  0
    2.2101   -0.0412    2.9473 H   0  0  0  0  0  0  0  0  0  0  0  0
    3.1993    1.3698    2.5156 H   0  0  0  0  0  0  0  0  0  0  0  0
    1.7816    1.5726    3.5630 H   0  0  0  0  0  0  0  0  0  0  0  0
  1  2  1  0  0  0  0
  2  3  1  0  0  0  0
  2  4  1  0  0  0  0
  2  5  1  0  0  0  0
  5  6  2  0  0  0  0
  5  7  1  0  0  0  0
  7  8  1  0  0  0  0
  7  9  1  0  0  0  0
  9 10  1  0  0  0  0
  9 11  1  0  0  0  0
  9 27  1  0  0  0  0
 11 12  1  0  0  0  0
 11 13  1  0  0  0  0
 11 14  1  0  0  0  0
 14 15  1  0  0  0  0
 14 16  1  0  0  0  0
 14 17  1  0  0  0  0
 17 18  1  0  0  0  0
 17 19  1  0  0  0  0
 17 20  1  0  0  0  0
 20 21  1  0  0  0  0
 20 22  1  0  0  0  0
 20 23  1  0  0  0  0
 23 24  1  0  0  0  0
 23 25  1  0  0  0  0
 23 26  1  0  0  0  0
 27 28  2  0  0  0  0
 27 29  1  0  0  0  0
 29 30  1  0  0  0  0
 29 31  1  0  0  0  0
 31 32  1  0  0  0  0
 31 33  1  0  0  0  0
 31 34  1  0  0  0  0
M  CHG  1  23   1
M  END
$$$$

  -OEChem-01062216093D

 34 33  0     1  0  0  0  0  0999 V2000
   -3.6044   -2.2822    1.2544 H   0  0  0  0  0  0  0  0  0  0  0  0
   -3.6322   -1.2079    1.0507 C   0  0  0  0  0  0  0  0  0  0  0  0
   -3.8090   -0.6806    1.9909 H   0  0  0  0  0  0  0  0  0  0  0  0
   -4.4517   -1.0017    0.3586 H   0  0  0  0  0  0  0  0  0  0  0  0
   -2.3135   -0.7621    0.4494 C   0  0  0  0  0  0  0  0  0  0  0  0
   -1.4977   -1.5886    0.0777 O   0  0  0  0  0  0  0  0  0  0  0  0
   -2.1177    0.5561    0.0777 N   0  0  0  0  0  0  0  0  0  0  0  0
   -2.9288    1.1206    0.2989 H   0  0  0  0  0  0  0  0  0  0  0  0
   -0.8209    1.2529    0.2634 C   0  0  1  0  0  0  0  0  0  0  0  0
   -0.3338    1.3012   -0.7155 H   0  0  0  0  0  0  0  0  0  0  0  0
   -1.1574    2.6830    0.7446 C   0  0  0  0  0  0  0  0  0  0  0  0
   -1.7915    2.6223    1.6365 H   0  0  0  0  0  0  0  0  0  0  0  0
   -0.2378    3.1993    1.0382 H   0  0  0  0  0  0  0  0  0  0  0  0
   -1.8476    3.5190   -0.3478 C   0  0  0  0  0  0  0  0  0  0  0  0
   -1.1986    3.5695   -1.2296 H   0  0  0  0  0  0  0  0  0  0  0  0
   -2.7842    3.0378   -0.6498 H   0  0  0  0  0  0  0  0  0  0  0  0
   -2.1400    4.9360    0.1643 C   0  0  0  0  0  0  0  0  0  0  0  0
   -2.7710    4.8742    1.0581 H   0  0  0  0  0  0  0  0  0  0  0  0
   -1.1995    5.4228    0.4460 H   0  0  0  0  0  0  0  0  0  0  0  0
   -2.8473    5.7565   -0.9140 C   0  0  0  0  0  0  0  0  0  0  0  0
   -2.2069    5.8103   -1.8070 H   0  0  0  0  0  0  0  0  0  0  0  0
   -3.7732    5.2421   -1.2110 H   0  0  0  0  0  0  0  0  0  0  0  0
   -3.1376    7.1077   -0.3850 N   0  3  0  0  0  0  0  0  0  0  0  0
   -2.2679    7.5739   -0.1187 H   0  0  0  0  0  0  0  0  0  0  0  0
   -3.6095    7.6708   -1.0966 H   0  0  0  0  0  0  0  0  0  0  0  0
   -3.7416    7.0410    0.4369 H   0  0  0  0  0  0  0  0  0  0  0  0
    0.2393    0.6186    1.2190 C   0  0  0  0  0  0  0  0  0  0  0  0
   -0.1321   -0.0417    2.1811 O   0  0  0  0  0  0  0  0  0  0  0  0
    1.4588    1.2580    1.3901 N   0  0  0  0  0  0  0  0  0  0  0  0
    1.8062    1.7964    0.6032 H   0  0  0  0  0  0  0  0  0  0  0  0
    2.4160    0.8707    2.4250 C   0  0  0  0  0  0  0  0  0  0  0  0
    2.6679   -0.1921    2.3380 H   0  0  0  0  0  0  0  0  0  0  0  0
    3.3375    1.4528    2.3286 H   0  0  0  0  0  0  0  0  0  0  0  0
    1.9990    1.0510    3.4218 H   0  0  0  0  0  0  0  0  0  0  0  0
  1  2  1  0  0  0  0
  2  3  1  0  0  0  0
  2  4  1  0  0  0  0
  2  5  1  0  0  0  0
  5  6  2  0  0  0  0
  5  7  1  0  0  0  0
  7  8  1  0  0  0  0
  7  9  1  0  0  0  0
  9 10  1  0  0  0  0
  9 11  1  0  0  0  0
  9 27  1  0  0  0  0
 11 12  1  0  0  0  0
 11 13  1  0  0  0  0
 11 14  1  0  0  0  0
 14 15  1  0  0  0  0
 14 16  1  0  0  0  0
 14 17  1  0  0  0  0
 17 18  1  0  0  0  0
 17 19  1  0  0  0  0
 17 20  1  0  0  0  0
 20 21  1  0  0  0  0
 20 22  1  0  0  0  0
 20 23  1  0  0  0  0
 23 24  1  0  0  0  0
 23 25  1  0  0  0  0
 23 26  1  0  0  0  0
 27 28  2  0  0  0  0
 27 29  1  0  0  0  0
 29 30  1  0  0  0  0
 29 31  1  0  0  0  0
 31 32  1  0  0  0  0
 31 33  1  0  0  0  0
 31 34  1  0  0  0  0
M  CHG  1  23   1
M  END
$$$$

  -OEChem-01062216093D

 34 33  0     1  0  0  0  0  0999 V2000
   -3.5633   -2.2785    1.2241 H   0  0  0  0  0  0  0  0  0  0  0  0
   -3.5795   -1.1924    1.0949 C   0  0  0  0  0  0  0  0  0  0  0  0
   -3.6474   -0.7270    2.0810 H   0  0  0  0  0  0  0  0  0  0  0  0
   -4.4562   -0.9210    0.5030 H   0  0  0  0  0  0  0  0  0  0  0  0
   -2.3125   -0.7386    0.3961 C   0  0  0  0  0  0  0  0  0  0  0  0
   -1.5761   -1.5543   -0.1310 O   0  0  0  0  0  0  0  0  0  0  0  0
   -2.1094    0.5937    0.0875 N   0  0  0  0  0  0  0  0  0  0  0  0
   -2.9115    1.1458    0.3654 H   0  0  0  0  0  0  0  0  0  0  0  0
   -0.8124    1.2841    0.3053 C   0  0  1  0  0  0  0  0  0  0  0  0
   -0.3229    1.3505   -0.6716 H   0  0  0  0  0  0  0  0  0  0  0  0
   -1.1757    2.7119    0.7847 C   0  0  0  0  0  0  0  0  0  0  0  0
   -1.8333    2.6437    1.6586 H   0  0  0  0  0  0  0  0  0  0  0  0
   -0.2743    3.2457    1.0993 H   0  0  0  0  0  0  0  0  0  0  0  0
   -1.8439    3.5399   -0.3293 C   0  0  0  0  0  0  0  0  0  0  0  0
   -1.1705    3.5947   -1.1922 H   0  0  0  0  0  0  0  0  0  0  0  0
   -2.7658    3.0481   -0.6581 H   0  0  0  0  0  0  0  0  0  0  0  0
   -2.1711    4.9566    0.1621 C   0  0  0  0  0  0  0  0  0  0  0  0
   -2.8296    4.8945    1.0358 H   0  0  0  0  0  0  0  0  0  0  0  0
   -1.2470    5.4595    0.4688 H   0  0  0  0  0  0  0  0  0  0  0  0
   -2.8550    5.7531   -0.9494 C   0  0  0  0  0  0  0  0  0  0  0  0
   -2.1856    5.8047   -1.8209 H   0  0  0  0  0  0  0  0  0  0  0  0
   -3.7619    5.2198   -1.2708 H   0  0  0  0  0  0  0  0  0  0  0  0
   -3.1849    7.1074   -0.4524 N   0  3  0  0  0  0  0  0  0  0  0  0
   -2.3332    7.5911   -0.1604 H   0  0  0  0  0  0  0  0  0  0  0  0
   -3.6370    7.6522   -1.1907 H   0  0  0  0  0  0  0  0  0  0  0  0
   -3.8196    7.0435    0.3462 H   0  0  0  0  0  0  0  0  0  0  0  0
    0.2731    0.6323    1.2318 C   0  0  0  0  0  0  0  0  0  0  0  0
    0.0088   -0.3158    1.9562 O   0  0  0  0  0  0  0  0  0  0  0  0
    1.3419    1.3996    1.6748 N   0  0  0  0  0  0  0  0  0  0  0  0
    1.6202    2.1801    1.0901 H   0  0  0  0  0  0  0  0  0  0  0  0
    2.2826    0.9450    2.6981 C   0  0  0  0  0  0  0  0  0  0  0  0
    2.7389   -0.0071    2.4056 H   0  0  0  0  0  0  0  0  0  0  0  0
    3.0798    1.6817    2.8363 H   0  0  0  0  0  0  0  0  0  0  0  0
    1.7714    0.8081    3.6572 H   0  0  0  0  0  0  0  0  0  0  0  0
  1  2  1  0  0  0  0
  2  3  1  0  0  0  0
  2  4  1  0  0  0  0
  2  5  1  0  0  0  0
  5  6  2  0  0  0  0
  5  7  1  0  0  0  0
  7  8  1  0  0  0  0
  7  9  1  0  0  0  0
  9 10  1  0  0  0  0
  9 11  1  0  0  0  0
  9 27  1  0  0  0  0
 11 12  1  0  0  0  0
 11 13  1  0  0  0  0
 11 14  1  0  0  0  0
 14 15  1  0  0  0  0
 14 16  1  0  0  0  0
 14 17  1  0  0  0  0
 17 18  1  0  0  0  0
 17 19  1  0  0  0  0
 17 20  1  0  0  0  0
 20 21  1  0  0  0  0
 20 22  1  0  0  0  0
 20 23  1  0  0  0  0
 23 24  1  0  0  0  0
 23 25  1  0  0  0  0
 23 26  1  0  0  0  0
 27 28  2  0  0  0  0
 27 29  1  0  0  0  0
 29 30  1  0  0  0  0
 29 31  1  0  0  0  0
 31 32  1  0  0  0  0
 31 33  1  0  0  0  0
 31 34  1  0  0  0  0
M  CHG  1  23   1
M  END
$$$$

  -OEChem-01062216093D

 34 33  0     1  0  0  0  0  0999 V2000
   -3.4343   -2.4659    1.0963 H   0  0  0  0  0  0  0  0  0  0  0  0
   -3.4405   -1.5317    0.5270 C   0  0  0  0  0  0  0  0  0  0  0  0
   -4.4704   -1.1792    0.4361 H   0  0  0  0  0  0  0  0  0  0  0  0
   -3.0364   -1.7303   -0.4684 H   0  0  0  0  0  0  0  0  0  0  0  0
   -2.5922   -0.4934    1.2352 C   0  0  0  0  0  0  0  0  0  0  0  0
   -2.3691   -0.6038    2.4281 O   0  0  0  0  0  0  0  0  0  0  0  0
   -2.3469    0.7345    0.6479 N   0  0  0  0  0  0  0  0  0  0  0  0
   -2.8644    0.8139   -0.2203 H   0  0  0  0  0  0  0  0  0  0  0  0
   -0.9917    1.3364    0.5660 C   0  0  1  0  0  0  0  0  0  0  0  0
   -0.6207    1.2345   -0.4590 H   0  0  0  0  0  0  0  0  0  0  0  0
   -1.1954    2.8359    0.8931 C   0  0  0  0  0  0  0  0  0  0  0  0
   -1.7054    2.9248    1.8595 H   0  0  0  0  0  0  0  0  0  0  0  0
   -0.2250    3.3326    0.9811 H   0  0  0  0  0  0  0  0  0  0  0  0
   -1.9867    3.5801   -0.1958 C   0  0  0  0  0  0  0  0  0  0  0  0
   -1.4679    3.4841   -1.1561 H   0  0  0  0  0  0  0  0  0  0  0  0
   -2.9812    3.1334   -0.3021 H   0  0  0  0  0  0  0  0  0  0  0  0
   -2.1320    5.0620    0.1759 C   0  0  0  0  0  0  0  0  0  0  0  0
   -2.6356    5.1422    1.1461 H   0  0  0  0  0  0  0  0  0  0  0  0
   -1.1380    5.5128    0.2715 H   0  0  0  0  0  0  0  0  0  0  0  0
   -2.9382    5.8040   -0.8884 C   0  0  0  0  0  0  0  0  0  0  0  0
   -2.4273    5.7155   -1.8586 H   0  0  0  0  0  0  0  0  0  0  0  0
   -3.9225    5.3248   -0.9958 H   0  0  0  0  0  0  0  0  0  0  0  0
   -3.0789    7.2210   -0.4867 N   0  3  0  0  0  0  0  0  0  0  0  0
   -2.1579    7.6571   -0.4096 H   0  0  0  0  0  0  0  0  0  0  0  0
   -3.6292    7.7315   -1.1812 H   0  0  0  0  0  0  0  0  0  0  0  0
   -3.5504    7.2824    0.4182 H   0  0  0  0  0  0  0  0  0  0  0  0
    0.1274    0.7171    1.4629 C   0  0  0  0  0  0  0  0  0  0  0  0
    0.3574   -0.4774    1.3315 O   0  0  0  0  0  0  0  0  0  0  0  0
    1.1804    1.4739    1.9562 N   0  0  0  0  0  0  0  0  0  0  0  0
    1.0135    2.4641    2.0908 H   0  0  0  0  0  0  0  0  0  0  0  0
    2.3373    0.8783    2.6213 C   0  0  0  0  0  0  0  0  0  0  0  0
    2.9092    0.2624    1.9188 H   0  0  0  0  0  0  0  0  0  0  0  0
    2.9974    1.6599    3.0095 H   0  0  0  0  0  0  0  0  0  0  0  0
    2.0168    0.2493    3.4591 H   0  0  0  0  0  0  0  0  0  0  0  0
  1  2  1  0  0  0  0
  2  3  1  0  0  0  0
  2  4  1  0  0  0  0
  2  5  1  0  0  0  0
  5  6  2  0  0  0  0
  5  7  1  0  0  0  0
  7  8  1  0  0  0  0
  7  9  1  0  0  0  0
  9 10  1  0  0  0  0
  9 11  1  0  0  0  0
  9 27  1  0  0  0  0
 11 12  1  0  0  0  0
 11 13  1  0  0  0  0
 11 14  1  0  0  0  0
 14 15  1  0  0  0  0
 14 16  1  0  0  0  0
 14 17  1  0  0  0  0
 17 18  1  0  0  0  0
 17 19  1  0  0  0  0
 17 20  1  0  0  0  0
 20 21  1  0  0  0  0
 20 22  1  0  0  0  0
 20 23  1  0  0  0  0
 23 24  1  0  0  0  0
 23 25  1  0  0  0  0
 23 26  1  0  0  0  0
 27 28  2  0  0  0  0
 27 29  1  0  0  0  0
 29 30  1  0  0  0  0
 29 31  1  0  0  0  0
 31 32  1  0  0  0  0
 31 33  1  0  0  0  0
 31 34  1  0  0  0  0
M  CHG  1  23   1
M  END
$$$$

  -OEChem-01062216093D

 34 33  0     1  0  0  0  0  0999 V2000
   -3.5282   -2.4414    1.0973 H   0  0  0  0  0  0  0  0  0  0  0  0
   -3.4973   -1.5074    0.5284 C   0  0  0  0  0  0  0  0  0  0  0  0
   -4.5068   -1.0934    0.4750 H   0  0  0  0  0  0  0  0  0  0  0  0
   -3.1420   -1.7280   -0.4810 H   0  0  0  0  0  0  0  0  0  0  0  0
   -2.5626   -0.5223    1.2042 C   0  0  0  0  0  0  0  0  0  0  0  0
   -2.2263   -0.7070    2.3606 O   0  0  0  0  0  0  0  0  0  0  0  0
   -2.3339    0.7209    0.6399 N   0  0  0  0  0  0  0  0  0  0  0  0
   -2.8749    0.8296   -0.2108 H   0  0  0  0  0  0  0  0  0  0  0  0
   -0.9893    1.3451    0.5654 C   0  0  1  0  0  0  0  0  0  0  0  0
   -0.6163    1.2517   -0.4599 H   0  0  0  0  0  0  0  0  0  0  0  0
   -1.1938    2.8428    0.8929 C   0  0  0  0  0  0  0  0  0  0  0  0
   -1.7060    2.9325    1.8579 H   0  0  0  0  0  0  0  0  0  0  0  0
   -0.2200    3.3352    0.9815 H   0  0  0  0  0  0  0  0  0  0  0  0
   -1.9845    3.5840   -0.1988 C   0  0  0  0  0  0  0  0  0  0  0  0
   -1.4614    3.4878   -1.1569 H   0  0  0  0  0  0  0  0  0  0  0  0
   -2.9771    3.1339   -0.3081 H   0  0  0  0  0  0  0  0  0  0  0  0
   -2.1351    5.0671    0.1663 C   0  0  0  0  0  0  0  0  0  0  0  0
   -2.6408    5.1498    1.1350 H   0  0  0  0  0  0  0  0  0  0  0  0
   -1.1422    5.5207    0.2615 H   0  0  0  0  0  0  0  0  0  0  0  0
   -2.9415    5.8021   -0.9039 C   0  0  0  0  0  0  0  0  0  0  0  0
   -2.4275    5.7103   -1.8722 H   0  0  0  0  0  0  0  0  0  0  0  0
   -3.9239    5.3190   -1.0115 H   0  0  0  0  0  0  0  0  0  0  0  0
   -3.0896    7.2214   -0.5122 N   0  3  0  0  0  0  0  0  0  0  0  0
   -2.1704    7.6611   -0.4324 H   0  0  0  0  0  0  0  0  0  0  0  0
   -3.6368    7.7254   -1.2139 H   0  0  0  0  0  0  0  0  0  0  0  0
   -3.5672    7.2880    0.3891 H   0  0  0  0  0  0  0  0  0  0  0  0
    0.1285    0.7163    1.4530 C   0  0  0  0  0  0  0  0  0  0  0  0
    0.5010   -0.4088    1.1476 O   0  0  0  0  0  0  0  0  0  0  0  0
    1.0012    1.4747    2.2189 N   0  0  0  0  0  0  0  0  0  0  0  0
    0.6585    2.3718    2.5434 H   0  0  0  0  0  0  0  0  0  0  0  0
    2.1378    0.8832    2.9211 C   0  0  0  0  0  0  0  0  0  0  0  0
    2.8363    0.4309    2.2089 H   0  0  0  0  0  0  0  0  0  0  0  0
    2.6755    1.6485    3.4890 H   0  0  0  0  0  0  0  0  0  0  0  0
    1.7978    0.1091    3.6177 H   0  0  0  0  0  0  0  0  0  0  0  0
  1  2  1  0  0  0  0
  2  3  1  0  0  0  0
  2  4  1  0  0  0  0
  2  5  1  0  0  0  0
  5  6  2  0  0  0  0
  5  7  1  0  0  0  0
  7  8  1  0  0  0  0
  7  9  1  0  0  0  0
  9 10  1  0  0  0  0
  9 11  1  0  0  0  0
  9 27  1  0  0  0  0
 11 12  1  0  0  0  0
 11 13  1  0  0  0  0
 11 14  1  0  0  0  0
 14 15  1  0  0  0  0
 14 16  1  0  0  0  0
 14 17  1  0  0  0  0
 17 18  1  0  0  0  0
 17 19  1  0  0  0  0
 17 20  1  0  0  0  0
 20 21  1  0  0  0  0
 20 22  1  0  0  0  0
 20 23  1  0  0  0  0
 23 24  1  0  0  0  0
 23 25  1  0  0  0  0
 23 26  1  0  0  0  0
 27 28  2  0  0  0  0
 27 29  1  0  0  0  0
 29 30  1  0  0  0  0
 29 31  1  0  0  0  0
 31 32  1  0  0  0  0
 31 33  1  0  0  0  0
 31 34  1  0  0  0  0
M  CHG  1  23   1
M  END
$$$$

  -OEChem-01062216093D

 34 33  0     1  0  0  0  0  0999 V2000
   -3.5507   -2.4601    1.0411 H   0  0  0  0  0  0  0  0  0  0  0  0
   -3.5621   -1.4904    0.5346 C   0  0  0  0  0  0  0  0  0  0  0  0
   -4.5634   -1.0617    0.6170 H   0  0  0  0  0  0  0  0  0  0  0  0
   -3.3216   -1.6474   -0.5196 H   0  0  0  0  0  0  0  0  0  0  0  0
   -2.5430   -0.5632    1.1687 C   0  0  0  0  0  0  0  0  0  0  0  0
   -2.0910   -0.8326    2.2669 O   0  0  0  0  0  0  0  0  0  0  0  0
   -2.3233    0.6926    0.6272 N   0  0  0  0  0  0  0  0  0  0  0  0
   -2.8962    0.8402   -0.1966 H   0  0  0  0  0  0  0  0  0  0  0  0
   -0.9907    1.3421    0.5612 C   0  0  1  0  0  0  0  0  0  0  0  0
   -0.6204    1.2558   -0.4659 H   0  0  0  0  0  0  0  0  0  0  0  0
   -1.1932    2.8389    0.8887 C   0  0  0  0  0  0  0  0  0  0  0  0
   -1.7076    2.9303    1.8520 H   0  0  0  0  0  0  0  0  0  0  0  0
   -0.2150    3.3232    0.9812 H   0  0  0  0  0  0  0  0  0  0  0  0
   -1.9812    3.5807   -0.2039 C   0  0  0  0  0  0  0  0  0  0  0  0
   -1.4581    3.4831   -1.1621 H   0  0  0  0  0  0  0  0  0  0  0  0
   -2.9737    3.1306   -0.3132 H   0  0  0  0  0  0  0  0  0  0  0  0
   -2.1307    5.0646    0.1595 C   0  0  0  0  0  0  0  0  0  0  0  0
   -2.6376    5.1500    1.1274 H   0  0  0  0  0  0  0  0  0  0  0  0
   -1.1375    5.5175    0.2559 H   0  0  0  0  0  0  0  0  0  0  0  0
   -2.9346    5.7988   -0.9129 C   0  0  0  0  0  0  0  0  0  0  0  0
   -2.4191    5.7049   -1.8800 H   0  0  0  0  0  0  0  0  0  0  0  0
   -3.9172    5.3164   -1.0211 H   0  0  0  0  0  0  0  0  0  0  0  0
   -3.0821    7.2189   -0.5240 N   0  3  0  0  0  0  0  0  0  0  0  0
   -2.1618    7.6538   -0.4308 H   0  0  0  0  0  0  0  0  0  0  0  0
   -3.6160    7.7252   -1.2344 H   0  0  0  0  0  0  0  0  0  0  0  0
   -3.5728    7.2886    0.3699 H   0  0  0  0  0  0  0  0  0  0  0  0
    0.1387    0.7227    1.4363 C   0  0  0  0  0  0  0  0  0  0  0  0
    0.6747   -0.2886    1.0038 O   0  0  0  0  0  0  0  0  0  0  0  0
    0.7975    1.4278    2.4315 N   0  0  0  0  0  0  0  0  0  0  0  0
    0.2738    2.1796    2.8661 H   0  0  0  0  0  0  0  0  0  0  0  0
    1.8994    0.8417    3.1900 C   0  0  0  0  0  0  0  0  0  0  0  0
    2.7428    0.6130    2.5296 H   0  0  0  0  0  0  0  0  0  0  0  0
    2.2452    1.5387    3.9593 H   0  0  0  0  0  0  0  0  0  0  0  0
    1.5779   -0.0839    3.6801 H   0  0  0  0  0  0  0  0  0  0  0  0
  1  2  1  0  0  0  0
  2  3  1  0  0  0  0
  2  4  1  0  0  0  0
  2  5  1  0  0  0  0
  5  6  2  0  0  0  0
  5  7  1  0  0  0  0
  7  8  1  0  0  0  0
  7  9  1  0  0  0  0
  9 10  1  0  0  0  0
  9 11  1  0  0  0  0
  9 27  1  0  0  0  0
 11 12  1  0  0  0  0
 11 13  1  0  0  0  0
 11 14  1  0  0  0  0
 14 15  1  0  0  0  0
 14 16  1  0  0  0  0
 14 17  1  0  0  0  0
 17 18  1  0  0  0  0
 17 19  1  0  0  0  0
 17 20  1  0  0  0  0
 20 21  1  0  0  0  0
 20 22  1  0  0  0  0
 20 23  1  0  0  0  0
 23 24  1  0  0  0  0
 23 25  1  0  0  0  0
 23 26  1  0  0  0  0
 27 28  2  0  0  0  0
 27 29  1  0  0  0  0
 29 30  1  0  0  0  0
 29 31  1  0  0  0  0
 31 32  1  0  0  0  0
 31 33  1  0  0  0  0
 31 34  1  0  0  0  0
M  CHG  1  23   1
M  END
$$$$

  -OEChem-01062216093D

 34 33  0     1  0  0  0  0  0999 V2000
   -3.6333   -2.4504    1.0055 H   0  0  0  0  0  0  0  0  0  0  0  0
   -3.6419   -1.4623    0.5358 C   0  0  0  0  0  0  0  0  0  0  0  0
   -4.6132   -0.9956    0.7159 H   0  0  0  0  0  0  0  0  0  0  0  0
   -3.4953   -1.5884   -0.5396 H   0  0  0  0  0  0  0  0  0  0  0  0
   -2.5343   -0.6036    1.1159 C   0  0  0  0  0  0  0  0  0  0  0  0
   -1.9831   -0.9577    2.1417 O   0  0  0  0  0  0  0  0  0  0  0  0
   -2.3040    0.6582    0.5918 N   0  0  0  0  0  0  0  0  0  0  0  0
   -2.9012    0.8493   -0.2053 H   0  0  0  0  0  0  0  0  0  0  0  0
   -0.9808    1.3276    0.5489 C   0  0  1  0  0  0  0  0  0  0  0  0
   -0.6008    1.2510   -0.4758 H   0  0  0  0  0  0  0  0  0  0  0  0
   -1.1934    2.8205    0.8815 C   0  0  0  0  0  0  0  0  0  0  0  0
   -1.7228    2.9048    1.8372 H   0  0  0  0  0  0  0  0  0  0  0  0
   -0.2160    3.3033    0.9955 H   0  0  0  0  0  0  0  0  0  0  0  0
   -1.9707    3.5670   -0.2152 C   0  0  0  0  0  0  0  0  0  0  0  0
   -1.4356    3.4784   -1.1677 H   0  0  0  0  0  0  0  0  0  0  0  0
   -2.9604    3.1145   -0.3389 H   0  0  0  0  0  0  0  0  0  0  0  0
   -2.1278    5.0472    0.1588 C   0  0  0  0  0  0  0  0  0  0  0  0
   -2.6453    5.1235    1.1217 H   0  0  0  0  0  0  0  0  0  0  0  0
   -1.1364    5.5007    0.2699 H   0  0  0  0  0  0  0  0  0  0  0  0
   -2.9206    5.7902   -0.9154 C   0  0  0  0  0  0  0  0  0  0  0  0
   -2.3932    5.7074   -1.8773 H   0  0  0  0  0  0  0  0  0  0  0  0
   -3.9013    5.3077   -1.0404 H   0  0  0  0  0  0  0  0  0  0  0  0
   -3.0733    7.2057   -0.5122 N   0  3  0  0  0  0  0  0  0  0  0  0
   -2.1541    7.6389   -0.4011 H   0  0  0  0  0  0  0  0  0  0  0  0
   -3.5968    7.7206   -1.2241 H   0  0  0  0  0  0  0  0  0  0  0  0
   -3.5758    7.2654    0.3758 H   0  0  0  0  0  0  0  0  0  0  0  0
    0.1523    0.7294    1.4305 C   0  0  0  0  0  0  0  0  0  0  0  0
    0.8704   -0.1162    0.9147 O   0  0  0  0  0  0  0  0  0  0  0  0
    0.5714    1.3221    2.6106 N   0  0  0  0  0  0  0  0  0  0  0  0
   -0.1301    1.8699    3.0975 H   0  0  0  0  0  0  0  0  0  0  0  0
    1.6555    0.7546    3.4070 C   0  0  0  0  0  0  0  0  0  0  0  0
    2.5921    0.7569    2.8392 H   0  0  0  0  0  0  0  0  0  0  0  0
    1.8055    1.3411    4.3186 H   0  0  0  0  0  0  0  0  0  0  0  0
    1.4216   -0.2770    3.6925 H   0  0  0  0  0  0  0  0  0  0  0  0
  1  2  1  0  0  0  0
  2  3  1  0  0  0  0
  2  4  1  0  0  0  0
  2  5  1  0  0  0  0
  5  6  2  0  0  0  0
  5  7  1  0  0  0  0
  7  8  1  0  0  0  0
  7  9  1  0  0  0  0
  9 10  1  0  0  0  0
  9 11  1  0  0  0  0
  9 27  1  0  0  0  0
 11 12  1  0  0  0  0
 11 13  1  0  0  0  0
 11 14  1  0  0  0  0
 14 15  1  0  0  0  0
 14 16  1  0  0  0  0
 14 17  1  0  0  0  0
 17 18  1  0  0  0  0
 17 19  1  0  0  0  0
 17 20  1  0  0  0  0
 20 21  1  0  0  0  0
 20 22  1  0  0  0  0
 20 23  1  0  0  0  0
 23 24  1  0  0  0  0
 23 25  1  0  0  0  0
 23 26  1  0  0  0  0
 27 28  2  0  0  0  0
 27 29  1  0  0  0  0
 29 30  1  0  0  0  0
 29 31  1  0  0  0  0
 31 32  1  0  0  0  0
 31 33  1  0  0  0  0
 31 34  1  0  0  0  0
M  CHG  1  23   1
M  END
$$$$

  -OEChem-01062216093D

 34 33  0     1  0  0  0  0  0999 V2000
   -3.6964   -2.4606    0.9601 H   0  0  0  0  0  0  0  0  0  0  0  0
   -3.7114   -1.4532    0.5333 C   0  0  0  0  0  0  0  0  0  0  0  0
   -4.6522   -0.9698    0.8068 H   0  0  0  0  0  0  0  0  0  0  0  0
   -3.6515   -1.5366   -0.5544 H   0  0  0  0  0  0  0  0  0  0  0  0
   -2.5380   -0.6489    1.0606 C   0  0  0  0  0  0  0  0  0  0  0  0
   -1.9043   -1.0782    2.0062 O   0  0  0  0  0  0  0  0  0  0  0  0
   -2.3021    0.6213    0.5584 N   0  0  0  0  0  0  0  0  0  0  0  0
   -2.9253    0.8571   -0.2064 H   0  0  0  0  0  0  0  0  0  0  0  0
   -0.9879    1.3104    0.5431 C   0  0  1  0  0  0  0  0  0  0  0  0
   -0.5997    1.2449   -0.4795 H   0  0  0  0  0  0  0  0  0  0  0  0
   -1.2021    2.8001    0.8832 C   0  0  0  0  0  0  0  0  0  0  0  0
   -1.7460    2.8784    1.8310 H   0  0  0  0  0  0  0  0  0  0  0  0
   -0.2246    3.2773    1.0199 H   0  0  0  0  0  0  0  0  0  0  0  0
   -1.9625    3.5553   -0.2184 C   0  0  0  0  0  0  0  0  0  0  0  0
   -1.4137    3.4721   -1.1636 H   0  0  0  0  0  0  0  0  0  0  0  0
   -2.9507    3.1052   -0.3600 H   0  0  0  0  0  0  0  0  0  0  0  0
   -2.1208    5.0327    0.1651 C   0  0  0  0  0  0  0  0  0  0  0  0
   -2.6515    5.1028    1.1212 H   0  0  0  0  0  0  0  0  0  0  0  0
   -1.1296    5.4825    0.2939 H   0  0  0  0  0  0  0  0  0  0  0  0
   -2.8968    5.7854   -0.9143 C   0  0  0  0  0  0  0  0  0  0  0  0
   -2.3554    5.7080   -1.8689 H   0  0  0  0  0  0  0  0  0  0  0  0
   -3.8770    5.3071   -1.0577 H   0  0  0  0  0  0  0  0  0  0  0  0
   -3.0510    7.1981   -0.5021 N   0  3  0  0  0  0  0  0  0  0  0  0
   -2.1318    7.6259   -0.3710 H   0  0  0  0  0  0  0  0  0  0  0  0
   -3.5594    7.7215   -1.2187 H   0  0  0  0  0  0  0  0  0  0  0  0
   -3.5689    7.2524    0.3773 H   0  0  0  0  0  0  0  0  0  0  0  0
    0.1517    0.7357    1.4287 C   0  0  0  0  0  0  0  0  0  0  0  0
    1.0560    0.1365    0.8632 O   0  0  0  0  0  0  0  0  0  0  0  0
    0.3366    1.1450    2.7387 N   0  0  0  0  0  0  0  0  0  0  0  0
   -0.5112    1.4249    3.2221 H   0  0  0  0  0  0  0  0  0  0  0  0
    1.4253    0.6136    3.5530 C   0  0  0  0  0  0  0  0  0  0  0  0
    2.3953    0.8648    3.1107 H   0  0  0  0  0  0  0  0  0  0  0  0
    1.3882    1.0376    4.5610 H   0  0  0  0  0  0  0  0  0  0  0  0
    1.3477   -0.4765    3.6318 H   0  0  0  0  0  0  0  0  0  0  0  0
  1  2  1  0  0  0  0
  2  3  1  0  0  0  0
  2  4  1  0  0  0  0
  2  5  1  0  0  0  0
  5  6  2  0  0  0  0
  5  7  1  0  0  0  0
  7  8  1  0  0  0  0
  7  9  1  0  0  0  0
  9 10  1  0  0  0  0
  9 11  1  0  0  0  0
  9 27  1  0  0  0  0
 11 12  1  0  0  0  0
 11 13  1  0  0  0  0
 11 14  1  0  0  0  0
 14 15  1  0  0  0  0
 14 16  1  0  0  0  0
 14 17  1  0  0  0  0
 17 18  1  0  0  0  0
 17 19  1  0  0  0  0
 17 20  1  0  0  0  0
 20 21  1  0  0  0  0
 20 22  1  0  0  0  0
 20 23  1  0  0  0  0
 23 24  1  0  0  0  0
 23 25  1  0  0  0  0
 23 26  1  0  0  0  0
 27 28  2  0  0  0  0
 27 29  1  0  0  0  0
 29 30  1  0  0  0  0
 29 31  1  0  0  0  0
 31 32  1  0  0  0  0
 31 33  1  0  0  0  0
 31 34  1  0  0  0  0
M  CHG  1  23   1
M  END
$$$$

  -OEChem-01062216093D

 34 33  0     1  0  0  0  0  0999 V2000
   -3.7862   -2.4400    0.9464 H   0  0  0  0  0  0  0  0  0  0  0  0
   -3.7795   -1.4270    0.5329 C   0  0  0  0  0  0  0  0  0  0  0  0
   -4.6831   -0.9081    0.8611 H   0  0  0  0  0  0  0  0  0  0  0  0
   -3.7801   -1.4973   -0.5574 H   0  0  0  0  0  0  0  0  0  0  0  0
   -2.5478   -0.6797    1.0087 C   0  0  0  0  0  0  0  0  0  0  0  0
   -1.8696   -1.1625    1.8953 O   0  0  0  0  0  0  0  0  0  0  0  0
   -2.2903    0.5883    0.5130 N   0  0  0  0  0  0  0  0  0  0  0  0
   -2.9326    0.8627   -0.2226 H   0  0  0  0  0  0  0  0  0  0  0  0
   -0.9801    1.2853    0.5184 C   0  0  1  0  0  0  0  0  0  0  0  0
   -0.5805    1.2246   -0.5001 H   0  0  0  0  0  0  0  0  0  0  0  0
   -1.2017    2.7704    0.8691 C   0  0  0  0  0  0  0  0  0  0  0  0
   -1.7541    2.8387    1.8127 H   0  0  0  0  0  0  0  0  0  0  0  0
   -0.2263    3.2473    1.0221 H   0  0  0  0  0  0  0  0  0  0  0  0
   -1.9522    3.5358   -0.2314 C   0  0  0  0  0  0  0  0  0  0  0  0
   -1.3934    3.4652   -1.1718 H   0  0  0  0  0  0  0  0  0  0  0  0
   -2.9383    3.0861   -0.3885 H   0  0  0  0  0  0  0  0  0  0  0  0
   -2.1146    5.0079    0.1700 C   0  0  0  0  0  0  0  0  0  0  0  0
   -2.6529    5.0653    1.1227 H   0  0  0  0  0  0  0  0  0  0  0  0
   -1.1245    5.4556    0.3134 H   0  0  0  0  0  0  0  0  0  0  0  0
   -2.8805    5.7774   -0.9041 C   0  0  0  0  0  0  0  0  0  0  0  0
   -2.3313    5.7147   -1.8552 H   0  0  0  0  0  0  0  0  0  0  0  0
   -3.8597    5.3024   -1.0628 H   0  0  0  0  0  0  0  0  0  0  0  0
   -3.0358    7.1832   -0.4694 N   0  3  0  0  0  0  0  0  0  0  0  0
   -2.1169    7.6071   -0.3241 H   0  0  0  0  0  0  0  0  0  0  0  0
   -3.5377    7.7194   -1.1810 H   0  0  0  0  0  0  0  0  0  0  0  0
   -3.5601    7.2239    0.4069 H   0  0  0  0  0  0  0  0  0  0  0  0
    0.1573    0.7350    1.4192 C   0  0  0  0  0  0  0  0  0  0  0  0
    1.2058    0.4135    0.8769 O   0  0  0  0  0  0  0  0  0  0  0  0
    0.1360    0.9189    2.7907 N   0  0  0  0  0  0  0  0  0  0  0  0
   -0.7981    0.9194    3.1914 H   0  0  0  0  0  0  0  0  0  0  0  0
    1.2165    0.4232    3.6370 C   0  0  0  0  0  0  0  0  0  0  0  0
    2.1648    0.9032    3.3731 H   0  0  0  0  0  0  0  0  0  0  0  0
    1.0037    0.6389    4.6885 H   0  0  0  0  0  0  0  0  0  0  0  0
    1.3269   -0.6605    3.5201 H   0  0  0  0  0  0  0  0  0  0  0  0
  1  2  1  0  0  0  0
  2  3  1  0  0  0  0
  2  4  1  0  0  0  0
  2  5  1  0  0  0  0
  5  6  2  0  0  0  0
  5  7  1  0  0  0  0
  7  8  1  0  0  0  0
  7  9  1  0  0  0  0
  9 10  1  0  0  0  0
  9 11  1  0  0  0  0
  9 27  1  0  0  0  0
 11 12  1  0  0  0  0
 11 13  1  0  0  0  0
 11 14  1  0  0  0  0
 14 15  1  0  0  0  0
 14 16  1  0  0  0  0
 14 17  1  0  0  0  0
 17 18  1  0  0  0  0
 17 19  1  0  0  0  0
 17 20  1  0  0  0  0
 20 21  1  0  0  0  0
 20 22  1  0  0  0  0
 20 23  1  0  0  0  0
 23 24  1  0  0  0  0
 23 25  1  0  0  0  0
 23 26  1  0  0  0  0
 27 28  2  0  0  0  0
 27 29  1  0  0  0  0
 29 30  1  0  0  0  0
 29 31  1  0  0  0  0
 31 32  1  0  0  0  0
 31 33  1  0  0  0  0
 31 34  1  0  0  0  0
M  CHG  1  23   1
M  END
$$$$

  -OEChem-01062216093D

 34 33  0     1  0  0  0  0  0999 V2000
   -3.9109   -2.4100    0.9232 H   0  0  0  0  0  0  0  0  0  0  0  0
   -3.8641   -1.3979    0.5101 C   0  0  0  0  0  0  0  0  0  0  0  0
   -4.7318   -0.8355    0.8623 H   0  0  0  0  0  0  0  0  0  0  0  0
   -3.8969   -1.4660   -0.5798 H   0  0  0  0  0  0  0  0  0  0  0  0
   -2.5844   -0.7136    0.9517 C   0  0  0  0  0  0  0  0  0  0  0  0
   -1.8769   -1.2610    1.7749 O   0  0  0  0  0  0  0  0  0  0  0  0
   -2.2948    0.5529    0.4712 N   0  0  0  0  0  0  0  0  0  0  0  0
   -2.9551    0.8775   -0.2271 H   0  0  0  0  0  0  0  0  0  0  0  0
   -0.9851    1.2522    0.5032 C   0  0  1  0  0  0  0  0  0  0  0  0
   -0.5724    1.1959   -0.5102 H   0  0  0  0  0  0  0  0  0  0  0  0
   -1.2129    2.7342    0.8619 C   0  0  0  0  0  0  0  0  0  0  0  0
   -1.7765    2.7924    1.7996 H   0  0  0  0  0  0  0  0  0  0  0  0
   -0.2405    3.2110    1.0333 H   0  0  0  0  0  0  0  0  0  0  0  0
   -1.9462    3.5135   -0.2405 C   0  0  0  0  0  0  0  0  0  0  0  0
   -1.3741    3.4531   -1.1735 H   0  0  0  0  0  0  0  0  0  0  0  0
   -2.9312    3.0689   -0.4169 H   0  0  0  0  0  0  0  0  0  0  0  0
   -2.1103    4.9808    0.1792 C   0  0  0  0  0  0  0  0  0  0  0  0
   -2.6616    5.0255    1.1250 H   0  0  0  0  0  0  0  0  0  0  0  0
   -1.1208    5.4226    0.3432 H   0  0  0  0  0  0  0  0  0  0  0  0
   -2.8588    5.7703   -0.8929 C   0  0  0  0  0  0  0  0  0  0  0  0
   -2.2973    5.7211   -1.8377 H   0  0  0  0  0  0  0  0  0  0  0  0
   -3.8379    5.3022   -1.0722 H   0  0  0  0  0  0  0  0  0  0  0  0
   -3.0144    7.1695   -0.4372 N   0  3  0  0  0  0  0  0  0  0  0  0
   -2.0954    7.5886   -0.2784 H   0  0  0  0  0  0  0  0  0  0  0  0
   -3.5096    7.7181   -1.1439 H   0  0  0  0  0  0  0  0  0  0  0  0
   -3.5449    7.1975    0.4358 H   0  0  0  0  0  0  0  0  0  0  0  0
    0.1549    0.7270    1.4158 C   0  0  0  0  0  0  0  0  0  0  0  0
    1.2863    0.7141    0.9496 O   0  0  0  0  0  0  0  0  0  0  0  0
   -0.0073    0.6382    2.7865 N   0  0  0  0  0  0  0  0  0  0  0  0
   -0.9442    0.3427    3.0566 H   0  0  0  0  0  0  0  0  0  0  0  0
    1.0865    0.2134    3.6537 C   0  0  0  0  0  0  0  0  0  0  0  0
    1.9321    0.9047    3.5748 H   0  0  0  0  0  0  0  0  0  0  0  0
    0.7567    0.1930    4.6969 H   0  0  0  0  0  0  0  0  0  0  0  0
    1.4269   -0.7905    3.3775 H   0  0  0  0  0  0  0  0  0  0  0  0
  1  2  1  0  0  0  0
  2  3  1  0  0  0  0
  2  4  1  0  0  0  0
  2  5  1  0  0  0  0
  5  6  2  0  0  0  0
  5  7  1  0  0  0  0
  7  8  1  0  0  0  0
  7  9  1  0  0  0  0
  9 10  1  0  0  0  0
  9 11  1  0  0  0  0
  9 27  1  0  0  0  0
 11 12  1  0  0  0  0
 11 13  1  0  0  0  0
 11 14  1  0  0  0  0
 14 15  1  0  0  0  0
 14 16  1  0  0  0  0
 14 17  1  0  0  0  0
 17 18  1  0  0  0  0
 17 19  1  0  0  0  0
 17 20  1  0  0  0  0
 20 21  1  0  0  0  0
 20 22  1  0  0  0  0
 20 23  1  0  0  0  0
 23 24  1  0  0  0  0
 23 25  1  0  0  0  0
 23 26  1  0  0  0  0
 27 28  2  0  0  0  0
 27 29  1  0  0  0  0
 29 30  1  0  0  0  0
 29 31  1  0  0  0  0
 31 32  1  0  0  0  0
 31 33  1  0  0  0  0
 31 34  1  0  0  0  0
M  CHG  1  23   1
M  END
$$$$

  -OEChem-01062216093D

 34 33  0     1  0  0  0  0  0999 V2000
   -4.0519   -2.3401    0.8733 H   0  0  0  0  0  0  0  0  0  0  0  0
   -3.9644   -1.3160    0.4977 C   0  0  0  0  0  0  0  0  0  0  0  0
   -4.7625   -0.7128    0.9367 H   0  0  0  0  0  0  0  0  0  0  0  0
   -4.0817   -1.3335   -0.5885 H   0  0  0  0  0  0  0  0  0  0  0  0
   -2.6116   -0.7378    0.8686 C   0  0  0  0  0  0  0  0  0  0  0  0
   -1.8682   -1.3892    1.5755 O   0  0  0  0  0  0  0  0  0  0  0  0
   -2.2780    0.5303    0.4228 N   0  0  0  0  0  0  0  0  0  0  0  0
   -2.9685    0.9364   -0.1991 H   0  0  0  0  0  0  0  0  0  0  0  0
   -0.9692    1.2315    0.4997 C   0  0  1  0  0  0  0  0  0  0  0  0
   -0.5335    1.1886   -0.5045 H   0  0  0  0  0  0  0  0  0  0  0  0
   -1.2237    2.7078    0.8682 C   0  0  0  0  0  0  0  0  0  0  0  0
   -1.8135    2.7480    1.7907 H   0  0  0  0  0  0  0  0  0  0  0  0
   -0.2632    3.1958    1.0727 H   0  0  0  0  0  0  0  0  0  0  0  0
   -1.9312    3.4942   -0.2464 C   0  0  0  0  0  0  0  0  0  0  0  0
   -1.3294    3.4516   -1.1615 H   0  0  0  0  0  0  0  0  0  0  0  0
   -2.9055    3.0427   -0.4602 H   0  0  0  0  0  0  0  0  0  0  0  0
   -2.1228    4.9545    0.1861 C   0  0  0  0  0  0  0  0  0  0  0  0
   -2.7027    4.9820    1.1155 H   0  0  0  0  0  0  0  0  0  0  0  0
   -1.1429    5.4034    0.3852 H   0  0  0  0  0  0  0  0  0  0  0  0
   -2.8462    5.7505   -0.8984 C   0  0  0  0  0  0  0  0  0  0  0  0
   -2.2550    5.7186   -1.8256 H   0  0  0  0  0  0  0  0  0  0  0  0
   -3.8140    5.2748   -1.1139 H   0  0  0  0  0  0  0  0  0  0  0  0
   -3.0301    7.1425   -0.4315 N   0  3  0  0  0  0  0  0  0  0  0  0
   -2.1208    7.5686   -0.2393 H   0  0  0  0  0  0  0  0  0  0  0  0
   -3.5084    7.6946   -1.1469 H   0  0  0  0  0  0  0  0  0  0  0  0
   -3.5876    7.1551    0.4248 H   0  0  0  0  0  0  0  0  0  0  0  0
    0.1711    0.7289    1.4282 C   0  0  0  0  0  0  0  0  0  0  0  0
    1.3189    0.9701    1.0768 O   0  0  0  0  0  0  0  0  0  0  0  0
   -0.0552    0.3392    2.7350 N   0  0  0  0  0  0  0  0  0  0  0  0
   -0.9481   -0.1404    2.8574 H   0  0  0  0  0  0  0  0  0  0  0  0
    1.0364   -0.0786    3.6088 C   0  0  0  0  0  0  0  0  0  0  0  0
    1.7562    0.7355    3.7450 H   0  0  0  0  0  0  0  0  0  0  0  0
    0.6475   -0.3595    4.5924 H   0  0  0  0  0  0  0  0  0  0  0  0
    1.5587   -0.9416    3.1822 H   0  0  0  0  0  0  0  0  0  0  0  0
  1  2  1  0  0  0  0
  2  3  1  0  0  0  0
  2  4  1  0  0  0  0
  2  5  1  0  0  0  0
  5  6  2  0  0  0  0
  5  7  1  0  0  0  0
  7  8  1  0  0  0  0
  7  9  1  0  0  0  0
  9 10  1  0  0  0  0
  9 11  1  0  0  0  0
  9 27  1  0  0  0  0
 11 12  1  0  0  0  0
 11 13  1  0  0  0  0
 11 14  1  0  0  0  0
 14 15  1  0  0  0  0
 14 16  1  0  0  0  0
 14 17  1  0  0  0  0
 17 18  1  0  0  0  0
 17 19  1  0  0  0  0
 17 20  1  0  0  0  0
 20 21  1  0  0  0  0
 20 22  1  0  0  0  0
 20 23  1  0  0  0  0
 23 24  1  0  0  0  0
 23 25  1  0  0  0  0
 23 26  1  0  0  0  0
 27 28  2  0  0  0  0
 27 29  1  0  0  0  0
 29 30  1  0  0  0  0
 29 31  1  0  0  0  0
 31 32  1  0  0  0  0
 31 33  1  0  0  0  0
 31 34  1  0  0  0  0
M  CHG  1  23   1
M  END
$$$$

  -OEChem-01062216093D

 34 33  0     1  0  0  0  0  0999 V2000
   -4.1778   -2.2557    0.8255 H   0  0  0  0  0  0  0  0  0  0  0  0
   -4.0519   -1.2193    0.4978 C   0  0  0  0  0  0  0  0  0  0  0  0
   -4.7728   -0.5943    1.0301 H   0  0  0  0  0  0  0  0  0  0  0  0
   -4.2530   -1.1676   -0.5750 H   0  0  0  0  0  0  0  0  0  0  0  0
   -2.6392   -0.7472    0.7880 C   0  0  0  0  0  0  0  0  0  0  0  0
   -1.8737   -1.5026    1.3528 O   0  0  0  0  0  0  0  0  0  0  0  0
   -2.2639    0.5231    0.3854 N   0  0  0  0  0  0  0  0  0  0  0  0
   -2.9862    1.0158   -0.1277 H   0  0  0  0  0  0  0  0  0  0  0  0
   -0.9550    1.2193    0.5092 C   0  0  1  0  0  0  0  0  0  0  0  0
   -0.4966    1.1903   -0.4852 H   0  0  0  0  0  0  0  0  0  0  0  0
   -1.2399    2.6912    0.8831 C   0  0  0  0  0  0  0  0  0  0  0  0
   -1.8614    2.7153    1.7849 H   0  0  0  0  0  0  0  0  0  0  0  0
   -0.2963    3.1938    1.1258 H   0  0  0  0  0  0  0  0  0  0  0  0
   -1.9173    3.4793   -0.2493 C   0  0  0  0  0  0  0  0  0  0  0  0
   -1.2817    3.4528   -1.1420 H   0  0  0  0  0  0  0  0  0  0  0  0
   -2.8777    3.0196   -0.5034 H   0  0  0  0  0  0  0  0  0  0  0  0
   -2.1418    4.9330    0.1881 C   0  0  0  0  0  0  0  0  0  0  0  0
   -2.7546    4.9463    1.0963 H   0  0  0  0  0  0  0  0  0  0  0  0
   -1.1753    5.3924    0.4253 H   0  0  0  0  0  0  0  0  0  0  0  0
   -2.8359    5.7285   -0.9154 C   0  0  0  0  0  0  0  0  0  0  0  0
   -2.2111    5.7119   -1.8210 H   0  0  0  0  0  0  0  0  0  0  0  0
   -3.7896    5.2436   -1.1703 H   0  0  0  0  0  0  0  0  0  0  0  0
   -3.0521    7.1133   -0.4418 N   0  3  0  0  0  0  0  0  0  0  0  0
   -2.1566    7.5401   -0.1940 H   0  0  0  0  0  0  0  0  0  0  0  0
   -3.4925    7.6729   -1.1757 H   0  0  0  0  0  0  0  0  0  0  0  0
   -3.6561    7.1124    0.3824 H   0  0  0  0  0  0  0  0  0  0  0  0
    0.1827    0.7248    1.4504 C   0  0  0  0  0  0  0  0  0  0  0  0
    1.3086    1.1509    1.2242 O   0  0  0  0  0  0  0  0  0  0  0  0
   -0.0333    0.0434    2.6324 N   0  0  0  0  0  0  0  0  0  0  0  0
   -0.8782   -0.5309    2.6271 H   0  0  0  0  0  0  0  0  0  0  0  0
    1.0649   -0.4032    3.4830 C   0  0  0  0  0  0  0  0  0  0  0  0
    1.6464    0.4519    3.8433 H   0  0  0  0  0  0  0  0  0  0  0  0
    0.6744   -0.9432    4.3510 H   0  0  0  0  0  0  0  0  0  0  0  0
    1.7314   -1.0730    2.9292 H   0  0  0  0  0  0  0  0  0  0  0  0
  1  2  1  0  0  0  0
  2  3  1  0  0  0  0
  2  4  1  0  0  0  0
  2  5  1  0  0  0  0
  5  6  2  0  0  0  0
  5  7  1  0  0  0  0
  7  8  1  0  0  0  0
  7  9  1  0  0  0  0
  9 10  1  0  0  0  0
  9 11  1  0  0  0  0
  9 27  1  0  0  0  0
 11 12  1  0  0  0  0
 11 13  1  0  0  0  0
 11 14  1  0  0  0  0
 14 15  1  0  0  0  0
 14 16  1  0  0  0  0
 14 17  1  0  0  0  0
 17 18  1  0  0  0  0
 17 19  1  0  0  0  0
 17 20  1  0  0  0  0
 20 21  1  0  0  0  0
 20 22  1  0  0  0  0
 20 23  1  0  0  0  0
 23 24  1  0  0  0  0
 23 25  1  0  0  0  0
 23 26  1  0  0  0  0
 27 28  2  0  0  0  0
 27 29  1  0  0  0  0
 29 30  1  0  0  0  0
 29 31  1  0  0  0  0
 31 32  1  0  0  0  0
 31 33  1  0  0  0  0
 31 34  1  0  0  0  0
M  CHG  1  23   1
M  END
$$$$

  -OEChem-01062216093D

 34 33  0     1  0  0  0  0  0999 V2000
   -4.2630   -2.1740    0.8620 H   0  0  0  0  0  0  0  0  0  0  0  0
   -4.1076   -1.1415    0.5351 C   0  0  0  0  0  0  0  0  0  0  0  0
   -4.7403   -0.4862    1.1382 H   0  0  0  0  0  0  0  0  0  0  0  0
   -4.4009   -1.0602   -0.5143 H   0  0  0  0  0  0  0  0  0  0  0  0
   -2.6497   -0.7558    0.7002 C   0  0  0  0  0  0  0  0  0  0  0  0
   -1.8629   -1.5970    1.0861 O   0  0  0  0  0  0  0  0  0  0  0  0
   -2.2513    0.5207    0.3429 N   0  0  0  0  0  0  0  0  0  0  0  0
   -3.0056    1.0869   -0.0280 H   0  0  0  0  0  0  0  0  0  0  0  0
   -0.9440    1.2120    0.5148 C   0  0  1  0  0  0  0  0  0  0  0  0
   -0.4624    1.1994   -0.4687 H   0  0  0  0  0  0  0  0  0  0  0  0
   -1.2583    2.6797    0.8931 C   0  0  0  0  0  0  0  0  0  0  0  0
   -1.9101    2.6888    1.7737 H   0  0  0  0  0  0  0  0  0  0  0  0
   -0.3326    3.1960    1.1726 H   0  0  0  0  0  0  0  0  0  0  0  0
   -1.9044    3.4722   -0.2559 C   0  0  0  0  0  0  0  0  0  0  0  0
   -1.2363    3.4609   -1.1248 H   0  0  0  0  0  0  0  0  0  0  0  0
   -2.8496    3.0055   -0.5506 H   0  0  0  0  0  0  0  0  0  0  0  0
   -2.1595    4.9193    0.1877 C   0  0  0  0  0  0  0  0  0  0  0  0
   -2.8032    4.9168    1.0744 H   0  0  0  0  0  0  0  0  0  0  0  0
   -1.2065    5.3851    0.4632 H   0  0  0  0  0  0  0  0  0  0  0  0
   -2.8231    5.7202   -0.9309 C   0  0  0  0  0  0  0  0  0  0  0  0
   -2.1668    5.7192   -1.8140 H   0  0  0  0  0  0  0  0  0  0  0  0
   -3.7622    5.2285   -1.2243 H   0  0  0  0  0  0  0  0  0  0  0  0
   -3.0711    7.0985   -0.4532 N   0  3  0  0  0  0  0  0  0  0  0  0
   -2.1900    7.5319   -0.1677 H   0  0  0  0  0  0  0  0  0  0  0  0
   -3.4889    7.6605   -1.1983 H   0  0  0  0  0  0  0  0  0  0  0  0
   -3.7062    7.0843    0.3473 H   0  0  0  0  0  0  0  0  0  0  0  0
    0.1848    0.7085    1.4687 C   0  0  0  0  0  0  0  0  0  0  0  0
    1.2677    1.2764    1.3902 O   0  0  0  0  0  0  0  0  0  0  0  0
    0.0263   -0.2311    2.4682 N   0  0  0  0  0  0  0  0  0  0  0  0
   -0.7681   -0.8605    2.3404 H   0  0  0  0  0  0  0  0  0  0  0  0
    1.1375   -0.7136    3.2816 C   0  0  0  0  0  0  0  0  0  0  0  0
    1.5862    0.1093    3.8479 H   0  0  0  0  0  0  0  0  0  0  0  0
    0.7854   -1.4676    3.9923 H   0  0  0  0  0  0  0  0  0  0  0  0
    1.9078   -1.1669    2.6488 H   0  0  0  0  0  0  0  0  0  0  0  0
  1  2  1  0  0  0  0
  2  3  1  0  0  0  0
  2  4  1  0  0  0  0
  2  5  1  0  0  0  0
  5  6  2  0  0  0  0
  5  7  1  0  0  0  0
  7  8  1  0  0  0  0
  7  9  1  0  0  0  0
  9 10  1  0  0  0  0
  9 11  1  0  0  0  0
  9 27  1  0  0  0  0
 11 12  1  0  0  0  0
 11 13  1  0  0  0  0
 11 14  1  0  0  0  0
 14 15  1  0  0  0  0
 14 16  1  0  0  0  0
 14 17  1  0  0  0  0
 17 18  1  0  0  0  0
 17 19  1  0  0  0  0
 17 20  1  0  0  0  0
 20 21  1  0  0  0  0
 20 22  1  0  0  0  0
 20 23  1  0  0  0  0
 23 24  1  0  0  0  0
 23 25  1  0  0  0  0
 23 26  1  0  0  0  0
 27 28  2  0  0  0  0
 27 29  1  0  0  0  0
 29 30  1  0  0  0  0
 29 31  1  0  0  0  0
 31 32  1  0  0  0  0
 31 33  1  0  0  0  0
 31 34  1  0  0  0  0
M  CHG  1  23   1
M  END
$$$$

  -OEChem-01062216093D

 34 33  0     1  0  0  0  0  0999 V2000
   -4.2893   -2.1432    0.8927 H   0  0  0  0  0  0  0  0  0  0  0  0
   -4.1287   -1.0977    0.6129 C   0  0  0  0  0  0  0  0  0  0  0  0
   -4.6860   -0.4622    1.3050 H   0  0  0  0  0  0  0  0  0  0  0  0
   -4.5076   -0.9457   -0.4005 H   0  0  0  0  0  0  0  0  0  0  0  0
   -2.6502   -0.7626    0.6730 C   0  0  0  0  0  0  0  0  0  0  0  0
   -1.8602   -1.6502    0.9247 O   0  0  0  0  0  0  0  0  0  0  0  0
   -2.2414    0.5151    0.3334 N   0  0  0  0  0  0  0  0  0  0  0  0
   -3.0131    1.1164    0.0696 H   0  0  0  0  0  0  0  0  0  0  0  0
   -0.9340    1.2031    0.5216 C   0  0  1  0  0  0  0  0  0  0  0  0
   -0.4441    1.1918   -0.4576 H   0  0  0  0  0  0  0  0  0  0  0  0
   -1.2711    2.6721    0.8870 C   0  0  0  0  0  0  0  0  0  0  0  0
   -1.9388    2.6778    1.7556 H   0  0  0  0  0  0  0  0  0  0  0  0
   -0.3609    3.2067    1.1795 H   0  0  0  0  0  0  0  0  0  0  0  0
   -1.9040    3.4523   -0.2777 C   0  0  0  0  0  0  0  0  0  0  0  0
   -1.2206    3.4442   -1.1348 H   0  0  0  0  0  0  0  0  0  0  0  0
   -2.8393    2.9759   -0.5880 H   0  0  0  0  0  0  0  0  0  0  0  0
   -2.1812    4.8984    0.1555 C   0  0  0  0  0  0  0  0  0  0  0  0
   -2.8412    4.8931    1.0302 H   0  0  0  0  0  0  0  0  0  0  0  0
   -1.2383    5.3754    0.4467 H   0  0  0  0  0  0  0  0  0  0  0  0
   -2.8319    5.6879   -0.9781 C   0  0  0  0  0  0  0  0  0  0  0  0
   -2.1600    5.6904   -1.8494 H   0  0  0  0  0  0  0  0  0  0  0  0
   -3.7608    5.1862   -1.2861 H   0  0  0  0  0  0  0  0  0  0  0  0
   -3.1012    7.0651   -0.5090 N   0  3  0  0  0  0  0  0  0  0  0  0
   -2.2283    7.5092   -0.2145 H   0  0  0  0  0  0  0  0  0  0  0  0
   -3.5159    7.6196   -1.2616 H   0  0  0  0  0  0  0  0  0  0  0  0
   -3.7458    7.0469    0.2836 H   0  0  0  0  0  0  0  0  0  0  0  0
    0.1958    0.6967    1.4799 C   0  0  0  0  0  0  0  0  0  0  0  0
    1.2109    1.3792    1.5548 O   0  0  0  0  0  0  0  0  0  0  0  0
    0.1467   -0.4324    2.2724 N   0  0  0  0  0  0  0  0  0  0  0  0
   -0.5903   -1.1019    2.0457 H   0  0  0  0  0  0  0  0  0  0  0  0
    1.2744   -0.9074    3.0669 C   0  0  0  0  0  0  0  0  0  0  0  0
    1.5726   -0.1524    3.8021 H   0  0  0  0  0  0  0  0  0  0  0  0
    0.9989   -1.8201    3.6043 H   0  0  0  0  0  0  0  0  0  0  0  0
    2.1316   -1.1299    2.4228 H   0  0  0  0  0  0  0  0  0  0  0  0
  1  2  1  0  0  0  0
  2  3  1  0  0  0  0
  2  4  1  0  0  0  0
  2  5  1  0  0  0  0
  5  6  2  0  0  0  0
  5  7  1  0  0  0  0
  7  8  1  0  0  0  0
  7  9  1  0  0  0  0
  9 10  1  0  0  0  0
  9 11  1  0  0  0  0
  9 27  1  0  0  0  0
 11 12  1  0  0  0  0
 11 13  1  0  0  0  0
 11 14  1  0  0  0  0
 14 15  1  0  0  0  0
 14 16  1  0  0  0  0
 14 17  1  0  0  0  0
 17 18  1  0  0  0  0
 17 19  1  0  0  0  0
 17 20  1  0  0  0  0
 20 21  1  0  0  0  0
 20 22  1  0  0  0  0
 20 23  1  0  0  0  0
 23 24  1  0  0  0  0
 23 25  1  0  0  0  0
 23 26  1  0  0  0  0
 27 28  2  0  0  0  0
 27 29  1  0  0  0  0
 29 30  1  0  0  0  0
 29 31  1  0  0  0  0
 31 32  1  0  0  0  0
 31 33  1  0  0  0  0
 31 34  1  0  0  0  0
M  CHG  1  23   1
M  END
$$$$

  -OEChem-01062216093D

 34 33  0     1  0  0  0  0  0999 V2000
   -3.5865   -2.3437    1.2723 H   0  0  0  0  0  0  0  0  0  0  0  0
   -3.5960   -1.2826    1.0060 C   0  0  0  0  0  0  0  0  0  0  0  0
   -3.9419   -0.7097    1.8692 H   0  0  0  0  0  0  0  0  0  0  0  0
   -4.2901   -1.1370    0.1749 H   0  0  0  0  0  0  0  0  0  0  0  0
   -2.2033   -0.8343    0.6048 C   0  0  0  0  0  0  0  0  0  0  0  0
   -1.3490   -1.6711    0.3964 O   0  0  0  0  0  0  0  0  0  0  0  0
   -1.9842    0.4883    0.2748 N   0  0  0  0  0  0  0  0  0  0  0  0
   -2.8259    1.0469    0.3496 H   0  0  0  0  0  0  0  0  0  0  0  0
   -0.7162    1.2603    0.3395 C   0  0  1  0  0  0  0  0  0  0  0  0
   -0.3537    1.2972   -0.6935 H   0  0  0  0  0  0  0  0  0  0  0  0
   -1.1016    2.6980    0.7692 C   0  0  0  0  0  0  0  0  0  0  0  0
   -1.6743    2.6531    1.7017 H   0  0  0  0  0  0  0  0  0  0  0  0
   -0.1996    3.2851    0.9731 H   0  0  0  0  0  0  0  0  0  0  0  0
   -1.9022    3.4391   -0.3161 C   0  0  0  0  0  0  0  0  0  0  0  0
   -1.3100    3.4793   -1.2377 H   0  0  0  0  0  0  0  0  0  0  0  0
   -2.8285    2.8985   -0.5366 H   0  0  0  0  0  0  0  0  0  0  0  0
   -2.2351    4.8634    0.1471 C   0  0  0  0  0  0  0  0  0  0  0  0
   -2.8035    4.8163    1.0827 H   0  0  0  0  0  0  0  0  0  0  0  0
   -1.3042    5.4080    0.3429 H   0  0  0  0  0  0  0  0  0  0  0  0
   -3.0499    5.5930   -0.9194 C   0  0  0  0  0  0  0  0  0  0  0  0
   -2.4682    5.6341   -1.8525 H   0  0  0  0  0  0  0  0  0  0  0  0
   -3.9646    5.0209   -1.1332 H   0  0  0  0  0  0  0  0  0  0  0  0
   -3.3744    6.9528   -0.4346 N   0  3  0  0  0  0  0  0  0  0  0  0
   -2.5127    7.4694   -0.2444 H   0  0  0  0  0  0  0  0  0  0  0  0
   -3.9131    7.4595   -1.1409 H   0  0  0  0  0  0  0  0  0  0  0  0
   -3.9235    6.8984    0.4253 H   0  0  0  0  0  0  0  0  0  0  0  0
    0.5713    0.8233    1.1204 C   0  0  0  0  0  0  0  0  0  0  0  0
    1.5521    1.5448    1.0190 O   0  0  0  0  0  0  0  0  0  0  0  0
    0.9325   -0.3896    1.6548 N   0  0  0  0  0  0  0  0  0  0  0  0
    1.9452   -0.4569    1.7253 H   0  0  0  0  0  0  0  0  0  0  0  0
    0.2107   -0.9547    2.7892 C   0  0  0  0  0  0  0  0  0  0  0  0
    0.7933   -0.8197    3.7059 H   0  0  0  0  0  0  0  0  0  0  0  0
   -0.7599   -0.4705    2.9320 H   0  0  0  0  0  0  0  0  0  0  0  0
    0.0474   -2.0267    2.6373 H   0  0  0  0  0  0  0  0  0  0  0  0
  1  2  1  0  0  0  0
  2  3  1  0  0  0  0
  2  4  1  0  0  0  0
  2  5  1  0  0  0  0
  5  6  2  0  0  0  0
  5  7  1  0  0  0  0
  7  8  1  0  0  0  0
  7  9  1  0  0  0  0
  9 10  1  0  0  0  0
  9 11  1  0  0  0  0
  9 27  1  0  0  0  0
 11 12  1  0  0  0  0
 11 13  1  0  0  0  0
 11 14  1  0  0  0  0
 14 15  1  0  0  0  0
 14 16  1  0  0  0  0
 14 17  1  0  0  0  0
 17 18  1  0  0  0  0
 17 19  1  0  0  0  0
 17 20  1  0  0  0  0
 20 21  1  0  0  0  0
 20 22  1  0  0  0  0
 20 23  1  0  0  0  0
 23 24  1  0  0  0  0
 23 25  1  0  0  0  0
 23 26  1  0  0  0  0
 27 28  2  0  0  0  0
 27 29  1  0  0  0  0
 29 30  1  0  0  0  0
 29 31  1  0  0  0  0
 31 32  1  0  0  0  0
 31 33  1  0  0  0  0
 31 34  1  0  0  0  0
M  CHG  1  23   1
M  END
$$$$

  -OEChem-01062216093D

 34 33  0     1  0  0  0  0  0999 V2000
   -3.8104   -2.4151    1.0845 H   0  0  0  0  0  0  0  0  0  0  0  0
   -3.7612   -1.4451    0.5808 C   0  0  0  0  0  0  0  0  0  0  0  0
   -4.6767   -0.8900    0.7978 H   0  0  0  0  0  0  0  0  0  0  0  0
   -3.6894   -1.6165   -0.4958 H   0  0  0  0  0  0  0  0  0  0  0  0
   -2.5524   -0.6682    1.0670 C   0  0  0  0  0  0  0  0  0  0  0  0
   -2.0058   -1.0214    2.0908 O   0  0  0  0  0  0  0  0  0  0  0  0
   -2.2684    0.5600    0.5012 N   0  0  0  0  0  0  0  0  0  0  0  0
   -2.9679    0.8064   -0.1904 H   0  0  0  0  0  0  0  0  0  0  0  0
   -0.9350    1.1571    0.2232 C   0  0  1  0  0  0  0  0  0  0  0  0
   -0.7733    1.0984   -0.8579 H   0  0  0  0  0  0  0  0  0  0  0  0
   -1.0840    2.6427    0.6435 C   0  0  0  0  0  0  0  0  0  0  0  0
   -1.4326    2.6812    1.6818 H   0  0  0  0  0  0  0  0  0  0  0  0
   -0.1097    3.1419    0.6139 H   0  0  0  0  0  0  0  0  0  0  0  0
   -2.0338    3.4444   -0.2617 C   0  0  0  0  0  0  0  0  0  0  0  0
   -1.6732    3.4050   -1.2956 H   0  0  0  0  0  0  0  0  0  0  0  0
   -3.0369    3.0066   -0.2335 H   0  0  0  0  0  0  0  0  0  0  0  0
   -2.0949    4.9016    0.2172 C   0  0  0  0  0  0  0  0  0  0  0  0
   -2.4304    4.9229    1.2602 H   0  0  0  0  0  0  0  0  0  0  0  0
   -1.0906    5.3388    0.1765 H   0  0  0  0  0  0  0  0  0  0  0  0
   -3.0503    5.7188   -0.6488 C   0  0  0  0  0  0  0  0  0  0  0  0
   -2.7056    5.6936   -1.6931 H   0  0  0  0  0  0  0  0  0  0  0  0
   -4.0483    5.2571   -0.6246 H   0  0  0  0  0  0  0  0  0  0  0  0
   -3.0917    7.1051   -0.1336 N   0  3  0  0  0  0  0  0  0  0  0  0
   -2.1586    7.5206   -0.1757 H   0  0  0  0  0  0  0  0  0  0  0  0
   -3.7319    7.6718   -0.6943 H   0  0  0  0  0  0  0  0  0  0  0  0
   -3.4100    7.1081    0.8377 H   0  0  0  0  0  0  0  0  0  0  0  0
    0.4085    0.6263    0.8262 C   0  0  0  0  0  0  0  0  0  0  0  0
    1.4299    1.2437    0.5618 O   0  0  0  0  0  0  0  0  0  0  0  0
    0.6989   -0.6697    1.1751 N   0  0  0  0  0  0  0  0  0  0  0  0
    1.5228   -0.9692    0.6606 H   0  0  0  0  0  0  0  0  0  0  0  0
    0.8614   -0.9347    2.6021 C   0  0  0  0  0  0  0  0  0  0  0  0
    0.2420   -0.2643    3.2081 H   0  0  0  0  0  0  0  0  0  0  0  0
    0.5696   -1.9654    2.8282 H   0  0  0  0  0  0  0  0  0  0  0  0
    1.9061   -0.7933    2.8971 H   0  0  0  0  0  0  0  0  0  0  0  0
  1  2  1  0  0  0  0
  2  3  1  0  0  0  0
  2  4  1  0  0  0  0
  2  5  1  0  0  0  0
  5  6  2  0  0  0  0
  5  7  1  0  0  0  0
  7  8  1  0  0  0  0
  7  9  1  0  0  0  0
  9 10  1  0  0  0  0
  9 11  1  0  0  0  0
  9 27  1  0  0  0  0
 11 12  1  0  0  0  0
 11 13  1  0  0  0  0
 11 14  1  0  0  0  0
 14 15  1  0  0  0  0
 14 16  1  0  0  0  0
 14 17  1  0  0  0  0
 17 18  1  0  0  0  0
 17 19  1  0  0  0  0
 17 20  1  0  0  0  0
 20 21  1  0  0  0  0
 20 22  1  0  0  0  0
 20 23  1  0  0  0  0
 23 24  1  0  0  0  0
 23 25  1  0  0  0  0
 23 26  1  0  0  0  0
 27 28  2  0  0  0  0
 27 29  1  0  0  0  0
 29 30  1  0  0  0  0
 29 31  1  0  0  0  0
 31 32  1  0  0  0  0
 31 33  1  0  0  0  0
 31 34  1  0  0  0  0
M  CHG  1  23   1
M  END
$$$$

  -OEChem-01062216093D

 34 33  0     1  0  0  0  0  0999 V2000
   -4.1772   -2.1329    1.0297 H   0  0  0  0  0  0  0  0  0  0  0  0
   -4.0449   -1.0859    0.7399 C   0  0  0  0  0  0  0  0  0  0  0  0
   -4.5044   -0.4533    1.5029 H   0  0  0  0  0  0  0  0  0  0  0  0
   -4.5480   -0.9211   -0.2159 H   0  0  0  0  0  0  0  0  0  0  0  0
   -2.5681   -0.7625    0.6127 C   0  0  0  0  0  0  0  0  0  0  0  0
   -1.7660   -1.6729    0.6639 O   0  0  0  0  0  0  0  0  0  0  0  0
   -2.1939    0.5342    0.3051 N   0  0  0  0  0  0  0  0  0  0  0  0
   -2.9914    1.1553    0.2315 H   0  0  0  0  0  0  0  0  0  0  0  0
   -0.8806    1.2211    0.4459 C   0  0  1  0  0  0  0  0  0  0  0  0
   -0.4349    1.2361   -0.5536 H   0  0  0  0  0  0  0  0  0  0  0  0
   -1.2053    2.6860    0.8433 C   0  0  0  0  0  0  0  0  0  0  0  0
   -1.8253    2.6850    1.7465 H   0  0  0  0  0  0  0  0  0  0  0  0
   -0.2807    3.2215    1.0839 H   0  0  0  0  0  0  0  0  0  0  0  0
   -1.8903    3.4752   -0.2857 C   0  0  0  0  0  0  0  0  0  0  0  0
   -1.2449    3.4776   -1.1718 H   0  0  0  0  0  0  0  0  0  0  0  0
   -2.8361    2.9972   -0.5599 H   0  0  0  0  0  0  0  0  0  0  0  0
   -2.1547    4.9161    0.1717 C   0  0  0  0  0  0  0  0  0  0  0  0
   -2.7773    4.8994    1.0734 H   0  0  0  0  0  0  0  0  0  0  0  0
   -1.2027    5.3947    0.4279 H   0  0  0  0  0  0  0  0  0  0  0  0
   -2.8565    5.7138   -0.9254 C   0  0  0  0  0  0  0  0  0  0  0  0
   -2.2237    5.7271   -1.8253 H   0  0  0  0  0  0  0  0  0  0  0  0
   -3.7965    5.2114   -1.1971 H   0  0  0  0  0  0  0  0  0  0  0  0
   -3.1105    7.0850   -0.4310 N   0  3  0  0  0  0  0  0  0  0  0  0
   -2.2263    7.5363   -0.1855 H   0  0  0  0  0  0  0  0  0  0  0  0
   -3.5755    7.6405   -1.1526 H   0  0  0  0  0  0  0  0  0  0  0  0
   -3.7060    7.0547    0.3987 H   0  0  0  0  0  0  0  0  0  0  0  0
    0.2750    0.6294    1.3269 C   0  0  0  0  0  0  0  0  0  0  0  0
    0.9282    1.3782    2.0442 O   0  0  0  0  0  0  0  0  0  0  0  0
    0.6581   -0.6963    1.3117 N   0  0  0  0  0  0  0  0  0  0  0  0
    0.0064   -1.3430    0.8613 H   0  0  0  0  0  0  0  0  0  0  0  0
    1.6818   -1.2567    2.1872 C   0  0  0  0  0  0  0  0  0  0  0  0
    1.3978   -1.1339    3.2375 H   0  0  0  0  0  0  0  0  0  0  0  0
    1.8068   -2.3251    1.9850 H   0  0  0  0  0  0  0  0  0  0  0  0
    2.6439   -0.7607    2.0211 H   0  0  0  0  0  0  0  0  0  0  0  0
  1  2  1  0  0  0  0
  2  3  1  0  0  0  0
  2  4  1  0  0  0  0
  2  5  1  0  0  0  0
  5  6  2  0  0  0  0
  5  7  1  0  0  0  0
  7  8  1  0  0  0  0
  7  9  1  0  0  0  0
  9 10  1  0  0  0  0
  9 11  1  0  0  0  0
  9 27  1  0  0  0  0
 11 12  1  0  0  0  0
 11 13  1  0  0  0  0
 11 14  1  0  0  0  0
 14 15  1  0  0  0  0
 14 16  1  0  0  0  0
 14 17  1  0  0  0  0
 17 18  1  0  0  0  0
 17 19  1  0  0  0  0
 17 20  1  0  0  0  0
 20 21  1  0  0  0  0
 20 22  1  0  0  0  0
 20 23  1  0  0  0  0
 23 24  1  0  0  0  0
 23 25  1  0  0  0  0
 23 26  1  0  0  0  0
 27 28  2  0  0  0  0
 27 29  1  0  0  0  0
 29 30  1  0  0  0  0
 29 31  1  0  0  0  0
 31 32  1  0  0  0  0
 31 33  1  0  0  0  0
 31 34  1  0  0  0  0
M  CHG  1  23   1
M  END
$$$$

  -OEChem-01062216093D

 34 33  0     1  0  0  0  0  0999 V2000
   -4.0219   -2.2062    1.1113 H   0  0  0  0  0  0  0  0  0  0  0  0
   -3.9449   -1.1578    0.8070 C   0  0  0  0  0  0  0  0  0  0  0  0
   -4.3973   -0.5364    1.5836 H   0  0  0  0  0  0  0  0  0  0  0  0
   -4.4943   -1.0238   -0.1279 H   0  0  0  0  0  0  0  0  0  0  0  0
   -2.4893   -0.7757    0.6157 C   0  0  0  0  0  0  0  0  0  0  0  0
   -1.6436   -1.6483    0.6426 O   0  0  0  0  0  0  0  0  0  0  0  0
   -2.1742    0.5302    0.2811 N   0  0  0  0  0  0  0  0  0  0  0  0
   -2.9903    1.1299    0.2390 H   0  0  0  0  0  0  0  0  0  0  0  0
   -0.8742    1.2393    0.4136 C   0  0  1  0  0  0  0  0  0  0  0  0
   -0.4248    1.2558   -0.5843 H   0  0  0  0  0  0  0  0  0  0  0  0
   -1.1929    2.7020    0.8141 C   0  0  0  0  0  0  0  0  0  0  0  0
   -1.8042    2.6999    1.7233 H   0  0  0  0  0  0  0  0  0  0  0  0
   -0.2600    3.2271    1.0483 H   0  0  0  0  0  0  0  0  0  0  0  0
   -1.8896    3.4962   -0.3030 C   0  0  0  0  0  0  0  0  0  0  0  0
   -1.2548    3.5017   -1.1965 H   0  0  0  0  0  0  0  0  0  0  0  0
   -2.8391    3.0195   -0.5671 H   0  0  0  0  0  0  0  0  0  0  0  0
   -2.1454    4.9362    0.1638 C   0  0  0  0  0  0  0  0  0  0  0  0
   -2.7566    4.9179    1.0732 H   0  0  0  0  0  0  0  0  0  0  0  0
   -1.1892    5.4125    0.4093 H   0  0  0  0  0  0  0  0  0  0  0  0
   -2.8590    5.7388   -0.9220 C   0  0  0  0  0  0  0  0  0  0  0  0
   -2.2367    5.7543   -1.8290 H   0  0  0  0  0  0  0  0  0  0  0  0
   -3.8026    5.2384   -1.1842 H   0  0  0  0  0  0  0  0  0  0  0  0
   -3.1053    7.1092   -0.4213 N   0  3  0  0  0  0  0  0  0  0  0  0
   -2.2183    7.5568   -0.1798 H   0  0  0  0  0  0  0  0  0  0  0  0
   -3.5728    7.6686   -1.1384 H   0  0  0  0  0  0  0  0  0  0  0  0
   -3.6960    7.0779    0.4121 H   0  0  0  0  0  0  0  0  0  0  0  0
    0.2625    0.6429    1.3090 C   0  0  0  0  0  0  0  0  0  0  0  0
    0.7483    1.3188    2.2090 O   0  0  0  0  0  0  0  0  0  0  0  0
    0.8173   -0.5990    1.0713 N   0  0  0  0  0  0  0  0  0  0  0  0
    0.2114   -1.2388    0.5515 H   0  0  0  0  0  0  0  0  0  0  0  0
    1.8277   -1.1945    1.9395 C   0  0  0  0  0  0  0  0  0  0  0  0
    1.4317   -1.3312    2.9513 H   0  0  0  0  0  0  0  0  0  0  0  0
    2.1301   -2.1715    1.5499 H   0  0  0  0  0  0  0  0  0  0  0  0
    2.7164   -0.5566    1.9918 H   0  0  0  0  0  0  0  0  0  0  0  0
  1  2  1  0  0  0  0
  2  3  1  0  0  0  0
  2  4  1  0  0  0  0
  2  5  1  0  0  0  0
  5  6  2  0  0  0  0
  5  7  1  0  0  0  0
  7  8  1  0  0  0  0
  7  9  1  0  0  0  0
  9 10  1  0  0  0  0
  9 11  1  0  0  0  0
  9 27  1  0  0  0  0
 11 12  1  0  0  0  0
 11 13  1  0  0  0  0
 11 14  1  0  0  0  0
 14 15  1  0  0  0  0
 14 16  1  0  0  0  0
 14 17  1  0  0  0  0
 17 18  1  0  0  0  0
 17 19  1  0  0  0  0
 17 20  1  0  0  0  0
 20 21  1  0  0  0  0
 20 22  1  0  0  0  0
 20 23  1  0  0  0  0
 23 24  1  0  0  0  0
 23 25  1  0  0  0  0
 23 26  1  0  0  0  0
 27 28  2  0  0  0  0
 27 29  1  0  0  0  0
 29 30  1  0  0  0  0
 29 31  1  0  0  0  0
 31 32  1  0  0  0  0
 31 33  1  0  0  0  0
 31 34  1  0  0  0  0
M  CHG  1  23   1
M  END
$$$$

  -OEChem-01062216093D

 34 33  0     1  0  0  0  0  0999 V2000
   -3.8501   -2.2760    1.1499 H   0  0  0  0  0  0  0  0  0  0  0  0
   -3.8307   -1.2177    0.8726 C   0  0  0  0  0  0  0  0  0  0  0  0
   -4.2516   -0.6347    1.6950 H   0  0  0  0  0  0  0  0  0  0  0  0
   -4.4450   -1.0781   -0.0202 H   0  0  0  0  0  0  0  0  0  0  0  0
   -2.4052   -0.7776    0.5984 C   0  0  0  0  0  0  0  0  0  0  0  0
   -1.5182   -1.6104    0.5703 O   0  0  0  0  0  0  0  0  0  0  0  0
   -2.1550    0.5348    0.2377 N   0  0  0  0  0  0  0  0  0  0  0  0
   -2.9864    1.1143    0.2601 H   0  0  0  0  0  0  0  0  0  0  0  0
   -0.8685    1.2604    0.3770 C   0  0  1  0  0  0  0  0  0  0  0  0
   -0.4038    1.2841   -0.6136 H   0  0  0  0  0  0  0  0  0  0  0  0
   -1.1868    2.7170    0.7884 C   0  0  0  0  0  0  0  0  0  0  0  0
   -1.7992    2.7088    1.6970 H   0  0  0  0  0  0  0  0  0  0  0  0
   -0.2499    3.2321    1.0297 H   0  0  0  0  0  0  0  0  0  0  0  0
   -1.8868    3.5168   -0.3226 C   0  0  0  0  0  0  0  0  0  0  0  0
   -1.2547    3.5283   -1.2180 H   0  0  0  0  0  0  0  0  0  0  0  0
   -2.8362    3.0395   -0.5871 H   0  0  0  0  0  0  0  0  0  0  0  0
   -2.1430    4.9530    0.1541 C   0  0  0  0  0  0  0  0  0  0  0  0
   -2.7528    4.9268    1.0643 H   0  0  0  0  0  0  0  0  0  0  0  0
   -1.1867    5.4276    0.4019 H   0  0  0  0  0  0  0  0  0  0  0  0
   -2.8597    5.7630   -0.9240 C   0  0  0  0  0  0  0  0  0  0  0  0
   -2.2392    5.7853   -1.8321 H   0  0  0  0  0  0  0  0  0  0  0  0
   -3.8037    5.2640   -1.1880 H   0  0  0  0  0  0  0  0  0  0  0  0
   -3.1053    7.1292   -0.4117 N   0  3  0  0  0  0  0  0  0  0  0  0
   -2.2179    7.5743   -0.1670 H   0  0  0  0  0  0  0  0  0  0  0  0
   -3.5731    7.6948   -1.1237 H   0  0  0  0  0  0  0  0  0  0  0  0
   -3.6954    7.0909    0.4217 H   0  0  0  0  0  0  0  0  0  0  0  0
    0.2326    0.6511    1.2996 C   0  0  0  0  0  0  0  0  0  0  0  0
    0.5372    1.2184    2.3429 O   0  0  0  0  0  0  0  0  0  0  0  0
    0.9748   -0.4428    0.8981 N   0  0  0  0  0  0  0  0  0  0  0  0
    0.4719   -1.0641    0.2616 H   0  0  0  0  0  0  0  0  0  0  0  0
    1.9729   -1.0603    1.7651 C   0  0  0  0  0  0  0  0  0  0  0  0
    1.5029   -1.4435    2.6770 H   0  0  0  0  0  0  0  0  0  0  0  0
    2.4583   -1.8938    1.2480 H   0  0  0  0  0  0  0  0  0  0  0  0
    2.7442   -0.3347    2.0448 H   0  0  0  0  0  0  0  0  0  0  0  0
  1  2  1  0  0  0  0
  2  3  1  0  0  0  0
  2  4  1  0  0  0  0
  2  5  1  0  0  0  0
  5  6  2  0  0  0  0
  5  7  1  0  0  0  0
  7  8  1  0  0  0  0
  7  9  1  0  0  0  0
  9 10  1  0  0  0  0
  9 11  1  0  0  0  0
  9 27  1  0  0  0  0
 11 12  1  0  0  0  0
 11 13  1  0  0  0  0
 11 14  1  0  0  0  0
 14 15  1  0  0  0  0
 14 16  1  0  0  0  0
 14 17  1  0  0  0  0
 17 18  1  0  0  0  0
 17 19  1  0  0  0  0
 17 20  1  0  0  0  0
 20 21  1  0  0  0  0
 20 22  1  0  0  0  0
 20 23  1  0  0  0  0
 23 24  1  0  0  0  0
 23 25  1  0  0  0  0
 23 26  1  0  0  0  0
 27 28  2  0  0  0  0
 27 29  1  0  0  0  0
 29 30  1  0  0  0  0
 29 31  1  0  0  0  0
 31 32  1  0  0  0  0
 31 33  1  0  0  0  0
 31 34  1  0  0  0  0
M  CHG  1  23   1
M  END
$$$$

  -OEChem-01062216093D

 34 33  0     1  0  0  0  0  0999 V2000
   -3.7239   -2.3074    1.2228 H   0  0  0  0  0  0  0  0  0  0  0  0
   -3.7486   -1.2571    0.9175 C   0  0  0  0  0  0  0  0  0  0  0  0
   -4.1646   -0.6666    1.7373 H   0  0  0  0  0  0  0  0  0  0  0  0
   -4.3937   -1.1618    0.0409 H   0  0  0  0  0  0  0  0  0  0  0  0
   -2.3473   -0.7780    0.5891 C   0  0  0  0  0  0  0  0  0  0  0  0
   -1.4322   -1.5807    0.5442 O   0  0  0  0  0  0  0  0  0  0  0  0
   -2.1431    0.5345    0.1990 N   0  0  0  0  0  0  0  0  0  0  0  0
   -2.9842    1.0982    0.2472 H   0  0  0  0  0  0  0  0  0  0  0  0
   -0.8654    1.2720    0.3383 C   0  0  1  0  0  0  0  0  0  0  0  0
   -0.3917    1.2997   -0.6480 H   0  0  0  0  0  0  0  0  0  0  0  0
   -1.1804    2.7245    0.7604 C   0  0  0  0  0  0  0  0  0  0  0  0
   -1.7916    2.7098    1.6700 H   0  0  0  0  0  0  0  0  0  0  0  0
   -0.2402    3.2315    1.0070 H   0  0  0  0  0  0  0  0  0  0  0  0
   -1.8873    3.5320   -0.3398 C   0  0  0  0  0  0  0  0  0  0  0  0
   -1.2616    3.5491   -1.2394 H   0  0  0  0  0  0  0  0  0  0  0  0
   -2.8385    3.0561   -0.6004 H   0  0  0  0  0  0  0  0  0  0  0  0
   -2.1399    4.9649    0.1487 C   0  0  0  0  0  0  0  0  0  0  0  0
   -2.7428    4.9327    1.0632 H   0  0  0  0  0  0  0  0  0  0  0  0
   -1.1818    5.4378    0.3926 H   0  0  0  0  0  0  0  0  0  0  0  0
   -2.8638    5.7826   -0.9190 C   0  0  0  0  0  0  0  0  0  0  0  0
   -2.2499    5.8115   -1.8315 H   0  0  0  0  0  0  0  0  0  0  0  0
   -3.8094    5.2851   -1.1799 H   0  0  0  0  0  0  0  0  0  0  0  0
   -3.1061    7.1453   -0.3957 N   0  3  0  0  0  0  0  0  0  0  0  0
   -2.2173    7.5902   -0.1563 H   0  0  0  0  0  0  0  0  0  0  0  0
   -3.5817    7.7147   -1.0995 H   0  0  0  0  0  0  0  0  0  0  0  0
   -3.6885    7.1005    0.4429 H   0  0  0  0  0  0  0  0  0  0  0  0
    0.2068    0.6571    1.2853 C   0  0  0  0  0  0  0  0  0  0  0  0
    0.3226    1.0853    2.4282 O   0  0  0  0  0  0  0  0  0  0  0  0
    1.1433   -0.2357    0.7989 N   0  0  0  0  0  0  0  0  0  0  0  0
    0.8185   -0.7864    0.0058 H   0  0  0  0  0  0  0  0  0  0  0  0
    2.1347   -0.8587    1.6698 C   0  0  0  0  0  0  0  0  0  0  0  0
    1.6428   -1.4603    2.4416 H   0  0  0  0  0  0  0  0  0  0  0  0
    2.7920   -1.5119    1.0875 H   0  0  0  0  0  0  0  0  0  0  0  0
    2.7532   -0.0977    2.1576 H   0  0  0  0  0  0  0  0  0  0  0  0
  1  2  1  0  0  0  0
  2  3  1  0  0  0  0
  2  4  1  0  0  0  0
  2  5  1  0  0  0  0
  5  6  2  0  0  0  0
  5  7  1  0  0  0  0
  7  8  1  0  0  0  0
  7  9  1  0  0  0  0
  9 10  1  0  0  0  0
  9 11  1  0  0  0  0
  9 27  1  0  0  0  0
 11 12  1  0  0  0  0
 11 13  1  0  0  0  0
 11 14  1  0  0  0  0
 14 15  1  0  0  0  0
 14 16  1  0  0  0  0
 14 17  1  0  0  0  0
 17 18  1  0  0  0  0
 17 19  1  0  0  0  0
 17 20  1  0  0  0  0
 20 21  1  0  0  0  0
 20 22  1  0  0  0  0
 20 23  1  0  0  0  0
 23 24  1  0  0  0  0
 23 25  1  0  0  0  0
 23 26  1  0  0  0  0
 27 28  2  0  0  0  0
 27 29  1  0  0  0  0
 29 30  1  0  0  0  0
 29 31  1  0  0  0  0
 31 32  1  0  0  0  0
 31 33  1  0  0  0  0
 31 34  1  0  0  0  0
M  CHG  1  23   1
M  END
$$$$

  -OEChem-01062216093D

 34 33  0     1  0  0  0  0  0999 V2000
   -3.6431   -2.3026    1.3403 H   0  0  0  0  0  0  0  0  0  0  0  0
   -3.7048   -1.2855    0.9420 C   0  0  0  0  0  0  0  0  0  0  0  0
   -4.1578   -0.6426    1.7003 H   0  0  0  0  0  0  0  0  0  0  0  0
   -4.3380   -1.2944    0.0518 H   0  0  0  0  0  0  0  0  0  0  0  0
   -2.3178   -0.7825    0.5894 C   0  0  0  0  0  0  0  0  0  0  0  0
   -1.3885   -1.5691    0.5366 O   0  0  0  0  0  0  0  0  0  0  0  0
   -2.1411    0.5274    0.1753 N   0  0  0  0  0  0  0  0  0  0  0  0
   -2.9870    1.0817    0.2423 H   0  0  0  0  0  0  0  0  0  0  0  0
   -0.8682    1.2731    0.3070 C   0  0  1  0  0  0  0  0  0  0  0  0
   -0.3957    1.2985   -0.6799 H   0  0  0  0  0  0  0  0  0  0  0  0
   -1.1760    2.7240    0.7353 C   0  0  0  0  0  0  0  0  0  0  0  0
   -1.7807    2.7080    1.6493 H   0  0  0  0  0  0  0  0  0  0  0  0
   -0.2319    3.2251    0.9785 H   0  0  0  0  0  0  0  0  0  0  0  0
   -1.8919    3.5375   -0.3542 C   0  0  0  0  0  0  0  0  0  0  0  0
   -1.2763    3.5571   -1.2607 H   0  0  0  0  0  0  0  0  0  0  0  0
   -2.8471    3.0646   -0.6056 H   0  0  0  0  0  0  0  0  0  0  0  0
   -2.1351    4.9691    0.1440 C   0  0  0  0  0  0  0  0  0  0  0  0
   -2.7284    4.9335    1.0646 H   0  0  0  0  0  0  0  0  0  0  0  0
   -1.1731    5.4377    0.3803 H   0  0  0  0  0  0  0  0  0  0  0  0
   -2.8679    5.7964   -0.9104 C   0  0  0  0  0  0  0  0  0  0  0  0
   -2.2646    5.8296   -1.8298 H   0  0  0  0  0  0  0  0  0  0  0  0
   -3.8184    5.3043   -1.1634 H   0  0  0  0  0  0  0  0  0  0  0  0
   -3.0990    7.1567   -0.3752 N   0  3  0  0  0  0  0  0  0  0  0  0
   -2.2057    7.5978   -0.1459 H   0  0  0  0  0  0  0  0  0  0  0  0
   -3.5831    7.7317   -1.0686 H   0  0  0  0  0  0  0  0  0  0  0  0
   -3.6695    7.1084    0.4715 H   0  0  0  0  0  0  0  0  0  0  0  0
    0.1936    0.6649    1.2665 C   0  0  0  0  0  0  0  0  0  0  0  0
    0.1369    0.9282    2.4625 O   0  0  0  0  0  0  0  0  0  0  0  0
    1.3078    0.0178    0.7651 N   0  0  0  0  0  0  0  0  0  0  0  0
    1.1888   -0.3944   -0.1567 H   0  0  0  0  0  0  0  0  0  0  0  0
    2.2986   -0.5931    1.6453 C   0  0  0  0  0  0  0  0  0  0  0  0
    1.8344   -1.3676    2.2654 H   0  0  0  0  0  0  0  0  0  0  0  0
    3.0970   -1.0534    1.0552 H   0  0  0  0  0  0  0  0  0  0  0  0
    2.7482    0.1595    2.3016 H   0  0  0  0  0  0  0  0  0  0  0  0
  1  2  1  0  0  0  0
  2  3  1  0  0  0  0
  2  4  1  0  0  0  0
  2  5  1  0  0  0  0
  5  6  2  0  0  0  0
  5  7  1  0  0  0  0
  7  8  1  0  0  0  0
  7  9  1  0  0  0  0
  9 10  1  0  0  0  0
  9 11  1  0  0  0  0
  9 27  1  0  0  0  0
 11 12  1  0  0  0  0
 11 13  1  0  0  0  0
 11 14  1  0  0  0  0
 14 15  1  0  0  0  0
 14 16  1  0  0  0  0
 14 17  1  0  0  0  0
 17 18  1  0  0  0  0
 17 19  1  0  0  0  0
 17 20  1  0  0  0  0
 20 21  1  0  0  0  0
 20 22  1  0  0  0  0
 20 23  1  0  0  0  0
 23 24  1  0  0  0  0
 23 25  1  0  0  0  0
 23 26  1  0  0  0  0
 27 28  2  0  0  0  0
 27 29  1  0  0  0  0
 29 30  1  0  0  0  0
 29 31  1  0  0  0  0
 31 32  1  0  0  0  0
 31 33  1  0  0  0  0
 31 34  1  0  0  0  0
M  CHG  1  23   1
M  END
$$$$

  -OEChem-01062216093D

 34 33  0     1  0  0  0  0  0999 V2000
   -3.5956   -2.3240    1.2915 H   0  0  0  0  0  0  0  0  0  0  0  0
   -3.6599   -1.2753    0.9864 C   0  0  0  0  0  0  0  0  0  0  0  0
   -4.0201   -0.6881    1.8343 H   0  0  0  0  0  0  0  0  0  0  0  0
   -4.3704   -1.1917    0.1608 H   0  0  0  0  0  0  0  0  0  0  0  0
   -2.2945   -0.7774    0.5527 C   0  0  0  0  0  0  0  0  0  0  0  0
   -1.3714   -1.5656    0.4383 O   0  0  0  0  0  0  0  0  0  0  0  0
   -2.1336    0.5325    0.1324 N   0  0  0  0  0  0  0  0  0  0  0  0
   -2.9771    1.0833    0.2431 H   0  0  0  0  0  0  0  0  0  0  0  0
   -0.8618    1.2767    0.2769 C   0  0  1  0  0  0  0  0  0  0  0  0
   -0.3815    1.3077   -0.7057 H   0  0  0  0  0  0  0  0  0  0  0  0
   -1.1716    2.7200    0.7233 C   0  0  0  0  0  0  0  0  0  0  0  0
   -1.7802    2.6930    1.6346 H   0  0  0  0  0  0  0  0  0  0  0  0
   -0.2289    3.2190    0.9762 H   0  0  0  0  0  0  0  0  0  0  0  0
   -1.8856    3.5411   -0.3617 C   0  0  0  0  0  0  0  0  0  0  0  0
   -1.2670    3.5683   -1.2659 H   0  0  0  0  0  0  0  0  0  0  0  0
   -2.8385    3.0674   -0.6208 H   0  0  0  0  0  0  0  0  0  0  0  0
   -2.1366    4.9681    0.1447 C   0  0  0  0  0  0  0  0  0  0  0  0
   -2.7341    4.9262    1.0624 H   0  0  0  0  0  0  0  0  0  0  0  0
   -1.1778    5.4401    0.3876 H   0  0  0  0  0  0  0  0  0  0  0  0
   -2.8677    5.7939   -0.9113 C   0  0  0  0  0  0  0  0  0  0  0  0
   -2.2595    5.8315   -1.8270 H   0  0  0  0  0  0  0  0  0  0  0  0
   -3.8135    5.2962   -1.1707 H   0  0  0  0  0  0  0  0  0  0  0  0
   -3.1106    7.1517   -0.3755 N   0  3  0  0  0  0  0  0  0  0  0  0
   -2.2222    7.5967   -0.1349 H   0  0  0  0  0  0  0  0  0  0  0  0
   -3.5897    7.7260   -1.0729 H   0  0  0  0  0  0  0  0  0  0  0  0
   -3.6908    7.0984    0.4644 H   0  0  0  0  0  0  0  0  0  0  0  0
    0.1825    0.6632    1.2491 C   0  0  0  0  0  0  0  0  0  0  0  0
   -0.0249    0.7379    2.4550 O   0  0  0  0  0  0  0  0  0  0  0  0
    1.4351    0.2872    0.7995 N   0  0  0  0  0  0  0  0  0  0  0  0
    1.4990    0.0531   -0.1871 H   0  0  0  0  0  0  0  0  0  0  0  0
    2.4241   -0.3034    1.6960 C   0  0  0  0  0  0  0  0  0  0  0  0
    2.0399   -1.2325    2.1311 H   0  0  0  0  0  0  0  0  0  0  0  0
    3.3447   -0.5309    1.1498 H   0  0  0  0  0  0  0  0  0  0  0  0
    2.6704    0.3886    2.5084 H   0  0  0  0  0  0  0  0  0  0  0  0
  1  2  1  0  0  0  0
  2  3  1  0  0  0  0
  2  4  1  0  0  0  0
  2  5  1  0  0  0  0
  5  6  2  0  0  0  0
  5  7  1  0  0  0  0
  7  8  1  0  0  0  0
  7  9  1  0  0  0  0
  9 10  1  0  0  0  0
  9 11  1  0  0  0  0
  9 27  1  0  0  0  0
 11 12  1  0  0  0  0
 11 13  1  0  0  0  0
 11 14  1  0  0  0  0
 14 15  1  0  0  0  0
 14 16  1  0  0  0  0
 14 17  1  0  0  0  0
 17 18  1  0  0  0  0
 17 19  1  0  0  0  0
 17 20  1  0  0  0  0
 20 21  1  0  0  0  0
 20 22  1  0  0  0  0
 20 23  1  0  0  0  0
 23 24  1  0  0  0  0
 23 25  1  0  0  0  0
 23 26  1  0  0  0  0
 27 28  2  0  0  0  0
 27 29  1  0  0  0  0
 29 30  1  0  0  0  0
 29 31  1  0  0  0  0
 31 32  1  0  0  0  0
 31 33  1  0  0  0  0
 31 34  1  0  0  0  0
M  CHG  1  23   1
M  END
$$$$

  -OEChem-01062216093D

 34 33  0     1  0  0  0  0  0999 V2000
   -3.5766   -2.3173    1.3110 H   0  0  0  0  0  0  0  0  0  0  0  0
   -3.6460   -1.2689    1.0065 C   0  0  0  0  0  0  0  0  0  0  0  0
   -3.9711   -0.6777    1.8659 H   0  0  0  0  0  0  0  0  0  0  0  0
   -4.3852   -1.1827    0.2069 H   0  0  0  0  0  0  0  0  0  0  0  0
   -2.2942   -0.7802    0.5231 C   0  0  0  0  0  0  0  0  0  0  0  0
   -1.3843   -1.5746    0.3559 O   0  0  0  0  0  0  0  0  0  0  0  0
   -2.1362    0.5301    0.1041 N   0  0  0  0  0  0  0  0  0  0  0  0
   -2.9744    1.0810    0.2470 H   0  0  0  0  0  0  0  0  0  0  0  0
   -0.8617    1.2675    0.2605 C   0  0  1  0  0  0  0  0  0  0  0  0
   -0.3762    1.3009   -0.7195 H   0  0  0  0  0  0  0  0  0  0  0  0
   -1.1717    2.7060    0.7184 C   0  0  0  0  0  0  0  0  0  0  0  0
   -1.7855    2.6700    1.6257 H   0  0  0  0  0  0  0  0  0  0  0  0
   -0.2303    3.2020    0.9812 H   0  0  0  0  0  0  0  0  0  0  0  0
   -1.8792    3.5352   -0.3650 C   0  0  0  0  0  0  0  0  0  0  0  0
   -1.2543    3.5690   -1.2646 H   0  0  0  0  0  0  0  0  0  0  0  0
   -2.8301    3.0631   -0.6344 H   0  0  0  0  0  0  0  0  0  0  0  0
   -2.1339    4.9588    0.1478 C   0  0  0  0  0  0  0  0  0  0  0  0
   -2.7375    4.9110    1.0611 H   0  0  0  0  0  0  0  0  0  0  0  0
   -1.1769    5.4297    0.3995 H   0  0  0  0  0  0  0  0  0  0  0  0
   -2.8588    5.7898   -0.9087 C   0  0  0  0  0  0  0  0  0  0  0  0
   -2.2446    5.8330   -1.8205 H   0  0  0  0  0  0  0  0  0  0  0  0
   -3.8028    5.2930   -1.1768 H   0  0  0  0  0  0  0  0  0  0  0  0
   -3.1059    7.1445   -0.3673 N   0  3  0  0  0  0  0  0  0  0  0  0
   -2.2191    7.5909   -0.1241 H   0  0  0  0  0  0  0  0  0  0  0  0
   -3.5862    7.7205   -1.0624 H   0  0  0  0  0  0  0  0  0  0  0  0
   -3.6865    7.0858    0.4719 H   0  0  0  0  0  0  0  0  0  0  0  0
    0.1757    0.6512    1.2379 C   0  0  0  0  0  0  0  0  0  0  0  0
   -0.1295    0.5526    2.4212 O   0  0  0  0  0  0  0  0  0  0  0  0
    1.5102    0.5586    0.8839 N   0  0  0  0  0  0  0  0  0  0  0  0
    1.7102    0.5092   -0.1107 H   0  0  0  0  0  0  0  0  0  0  0  0
    2.5163    0.0369    1.8043 C   0  0  0  0  0  0  0  0  0  0  0  0
    2.2665   -0.9863    2.1052 H   0  0  0  0  0  0  0  0  0  0  0  0
    3.5003    0.0270    1.3258 H   0  0  0  0  0  0  0  0  0  0  0  0
    2.5777    0.6607    2.7024 H   0  0  0  0  0  0  0  0  0  0  0  0
  1  2  1  0  0  0  0
  2  3  1  0  0  0  0
  2  4  1  0  0  0  0
  2  5  1  0  0  0  0
  5  6  2  0  0  0  0
  5  7  1  0  0  0  0
  7  8  1  0  0  0  0
  7  9  1  0  0  0  0
  9 10  1  0  0  0  0
  9 11  1  0  0  0  0
  9 27  1  0  0  0  0
 11 12  1  0  0  0  0
 11 13  1  0  0  0  0
 11 14  1  0  0  0  0
 14 15  1  0  0  0  0
 14 16  1  0  0  0  0
 14 17  1  0  0  0  0
 17 18  1  0  0  0  0
 17 19  1  0  0  0  0
 17 20  1  0  0  0  0
 20 21  1  0  0  0  0
 20 22  1  0  0  0  0
 20 23  1  0  0  0  0
 23 24  1  0  0  0  0
 23 25  1  0  0  0  0
 23 26  1  0  0  0  0
 27 28  2  0  0  0  0
 27 29  1  0  0  0  0
 29 30  1  0  0  0  0
 29 31  1  0  0  0  0
 31 32  1  0  0  0  0
 31 33  1  0  0  0  0
 31 34  1  0  0  0  0
M  CHG  1  23   1
M  END
$$$$

  -OEChem-01062216093D

 34 33  0     1  0  0  0  0  0999 V2000
   -3.5807   -2.3198    1.2814 H   0  0  0  0  0  0  0  0  0  0  0  0
   -3.6384   -1.2585    1.0223 C   0  0  0  0  0  0  0  0  0  0  0  0
   -3.9075   -0.6956    1.9191 H   0  0  0  0  0  0  0  0  0  0  0  0
   -4.4123   -1.1229    0.2634 H   0  0  0  0  0  0  0  0  0  0  0  0
   -2.2987   -0.7818    0.4957 C   0  0  0  0  0  0  0  0  0  0  0  0
   -1.4072   -1.5846    0.2762 O   0  0  0  0  0  0  0  0  0  0  0  0
   -2.1360    0.5295    0.0826 N   0  0  0  0  0  0  0  0  0  0  0  0
   -2.9673    1.0839    0.2500 H   0  0  0  0  0  0  0  0  0  0  0  0
   -0.8564    1.2559    0.2506 C   0  0  1  0  0  0  0  0  0  0  0  0
   -0.3668    1.2913   -0.7273 H   0  0  0  0  0  0  0  0  0  0  0  0
   -1.1688    2.6903    0.7194 C   0  0  0  0  0  0  0  0  0  0  0  0
   -1.7887    2.6456    1.6222 H   0  0  0  0  0  0  0  0  0  0  0  0
   -0.2304    3.1859    0.9934 H   0  0  0  0  0  0  0  0  0  0  0  0
   -1.8692    3.5271   -0.3634 C   0  0  0  0  0  0  0  0  0  0  0  0
   -1.2378    3.5667   -1.2584 H   0  0  0  0  0  0  0  0  0  0  0  0
   -2.8176    3.0562   -0.6432 H   0  0  0  0  0  0  0  0  0  0  0  0
   -2.1298    4.9479    0.1543 C   0  0  0  0  0  0  0  0  0  0  0  0
   -2.7415    4.8946    1.0620 H   0  0  0  0  0  0  0  0  0  0  0  0
   -1.1760    5.4193    0.4169 H   0  0  0  0  0  0  0  0  0  0  0  0
   -2.8475    5.7814   -0.9056 C   0  0  0  0  0  0  0  0  0  0  0  0
   -2.2259    5.8282   -1.8120 H   0  0  0  0  0  0  0  0  0  0  0  0
   -3.7879    5.2835   -1.1837 H   0  0  0  0  0  0  0  0  0  0  0  0
   -3.1027    7.1344   -0.3637 N   0  3  0  0  0  0  0  0  0  0  0  0
   -2.2193    7.5835   -0.1133 H   0  0  0  0  0  0  0  0  0  0  0  0
   -3.5796    7.7100   -1.0616 H   0  0  0  0  0  0  0  0  0  0  0  0
   -3.6895    7.0728    0.4710 H   0  0  0  0  0  0  0  0  0  0  0  0
    0.1793    0.6368    1.2292 C   0  0  0  0  0  0  0  0  0  0  0  0
   -0.1855    0.3692    2.3686 O   0  0  0  0  0  0  0  0  0  0  0  0
    1.5338    0.8226    1.0110 N   0  0  0  0  0  0  0  0  0  0  0  0
    1.8237    0.9556    0.0471 H   0  0  0  0  0  0  0  0  0  0  0  0
    2.5415    0.3746    1.9682 C   0  0  0  0  0  0  0  0  0  0  0  0
    2.4451   -0.7012    2.1509 H   0  0  0  0  0  0  0  0  0  0  0  0
    3.5464    0.5712    1.5821 H   0  0  0  0  0  0  0  0  0  0  0  0
    2.4301    0.9034    2.9208 H   0  0  0  0  0  0  0  0  0  0  0  0
  1  2  1  0  0  0  0
  2  3  1  0  0  0  0
  2  4  1  0  0  0  0
  2  5  1  0  0  0  0
  5  6  2  0  0  0  0
  5  7  1  0  0  0  0
  7  8  1  0  0  0  0
  7  9  1  0  0  0  0
  9 10  1  0  0  0  0
  9 11  1  0  0  0  0
  9 27  1  0  0  0  0
 11 12  1  0  0  0  0
 11 13  1  0  0  0  0
 11 14  1  0  0  0  0
 14 15  1  0  0  0  0
 14 16  1  0  0  0  0
 14 17  1  0  0  0  0
 17 18  1  0  0  0  0
 17 19  1  0  0  0  0
 17 20  1  0  0  0  0
 20 21  1  0  0  0  0
 20 22  1  0  0  0  0
 20 23  1  0  0  0  0
 23 24  1  0  0  0  0
 23 25  1  0  0  0  0
 23 26  1  0  0  0  0
 27 28  2  0  0  0  0
 27 29  1  0  0  0  0
 29 30  1  0  0  0  0
 29 31  1  0  0  0  0
 31 32  1  0  0  0  0
 31 33  1  0  0  0  0
 31 34  1  0  0  0  0
M  CHG  1  23   1
M  END
$$$$

  -OEChem-01062216093D

 34 33  0     1  0  0  0  0  0999 V2000
   -3.5811   -2.3092    1.2858 H   0  0  0  0  0  0  0  0  0  0  0  0
   -3.6328   -1.2446    1.0398 C   0  0  0  0  0  0  0  0  0  0  0  0
   -3.8644   -0.6884    1.9511 H   0  0  0  0  0  0  0  0  0  0  0  0
   -4.4288   -1.0902    0.3079 H   0  0  0  0  0  0  0  0  0  0  0  0
   -2.3045   -0.7808    0.4746 C   0  0  0  0  0  0  0  0  0  0  0  0
   -1.4401   -1.5941    0.1935 O   0  0  0  0  0  0  0  0  0  0  0  0
   -2.1321    0.5319    0.0712 N   0  0  0  0  0  0  0  0  0  0  0  0
   -2.9552    1.0907    0.2614 H   0  0  0  0  0  0  0  0  0  0  0  0
   -0.8452    1.2454    0.2466 C   0  0  1  0  0  0  0  0  0  0  0  0
   -0.3550    1.2831   -0.7310 H   0  0  0  0  0  0  0  0  0  0  0  0
   -1.1651    2.6784    0.7202 C   0  0  0  0  0  0  0  0  0  0  0  0
   -1.7918    2.6270    1.6178 H   0  0  0  0  0  0  0  0  0  0  0  0
   -0.2332    3.1798    1.0040 H   0  0  0  0  0  0  0  0  0  0  0  0
   -1.8599    3.5195   -0.3641 C   0  0  0  0  0  0  0  0  0  0  0  0
   -1.2215    3.5653   -1.2537 H   0  0  0  0  0  0  0  0  0  0  0  0
   -2.8050    3.0477   -0.6546 H   0  0  0  0  0  0  0  0  0  0  0  0
   -2.1284    4.9379    0.1578 C   0  0  0  0  0  0  0  0  0  0  0  0
   -2.7468    4.8789    1.0604 H   0  0  0  0  0  0  0  0  0  0  0  0
   -1.1778    5.4104    0.4295 H   0  0  0  0  0  0  0  0  0  0  0  0
   -2.8406    5.7754   -0.9037 C   0  0  0  0  0  0  0  0  0  0  0  0
   -2.2121    5.8280   -1.8051 H   0  0  0  0  0  0  0  0  0  0  0  0
   -3.7780    5.2768   -1.1916 H   0  0  0  0  0  0  0  0  0  0  0  0
   -3.1041    7.1259   -0.3587 N   0  3  0  0  0  0  0  0  0  0  0  0
   -2.2243    7.5765   -0.0983 H   0  0  0  0  0  0  0  0  0  0  0  0
   -3.5759    7.7028   -1.0591 H   0  0  0  0  0  0  0  0  0  0  0  0
   -3.6988    7.0597    0.4699 H   0  0  0  0  0  0  0  0  0  0  0  0
    0.1974    0.6237    1.2208 C   0  0  0  0  0  0  0  0  0  0  0  0
   -0.1926    0.1821    2.2955 O   0  0  0  0  0  0  0  0  0  0  0  0
    1.5112    1.0620    1.1765 N   0  0  0  0  0  0  0  0  0  0  0  0
    1.8535    1.3810    0.2755 H   0  0  0  0  0  0  0  0  0  0  0  0
    2.4994    0.6704    2.1790 C   0  0  0  0  0  0  0  0  0  0  0  0
    2.5653   -0.4209    2.2485 H   0  0  0  0  0  0  0  0  0  0  0  0
    3.4865    1.0599    1.9116 H   0  0  0  0  0  0  0  0  0  0  0  0
    2.2285    1.0675    3.1632 H   0  0  0  0  0  0  0  0  0  0  0  0
  1  2  1  0  0  0  0
  2  3  1  0  0  0  0
  2  4  1  0  0  0  0
  2  5  1  0  0  0  0
  5  6  2  0  0  0  0
  5  7  1  0  0  0  0
  7  8  1  0  0  0  0
  7  9  1  0  0  0  0
  9 10  1  0  0  0  0
  9 11  1  0  0  0  0
  9 27  1  0  0  0  0
 11 12  1  0  0  0  0
 11 13  1  0  0  0  0
 11 14  1  0  0  0  0
 14 15  1  0  0  0  0
 14 16  1  0  0  0  0
 14 17  1  0  0  0  0
 17 18  1  0  0  0  0
 17 19  1  0  0  0  0
 17 20  1  0  0  0  0
 20 21  1  0  0  0  0
 20 22  1  0  0  0  0
 20 23  1  0  0  0  0
 23 24  1  0  0  0  0
 23 25  1  0  0  0  0
 23 26  1  0  0  0  0
 27 28  2  0  0  0  0
 27 29  1  0  0  0  0
 29 30  1  0  0  0  0
 29 31  1  0  0  0  0
 31 32  1  0  0  0  0
 31 33  1  0  0  0  0
 31 34  1  0  0  0  0
M  CHG  1  23   1
M  END
$$$$

  -OEChem-01062216093D

 34 33  0     1  0  0  0  0  0999 V2000
   -3.6906   -2.1558    1.3709 H   0  0  0  0  0  0  0  0  0  0  0  0
   -3.6817   -1.0911    1.1193 C   0  0  0  0  0  0  0  0  0  0  0  0
   -3.7890   -0.5157    2.0414 H   0  0  0  0  0  0  0  0  0  0  0  0
   -4.5241   -0.8780    0.4575 H   0  0  0  0  0  0  0  0  0  0  0  0
   -2.3764   -0.7356    0.4343 C   0  0  0  0  0  0  0  0  0  0  0  0
   -1.6902   -1.6159   -0.0535 O   0  0  0  0  0  0  0  0  0  0  0  0
   -2.1126    0.5714    0.0672 N   0  0  0  0  0  0  0  0  0  0  0  0
   -2.9035    1.1680    0.2729 H   0  0  0  0  0  0  0  0  0  0  0  0
   -0.7975    1.2363    0.2520 C   0  0  1  0  0  0  0  0  0  0  0  0
   -0.4340    1.5135   -0.7420 H   0  0  0  0  0  0  0  0  0  0  0  0
   -1.0793    2.5166    1.0747 C   0  0  0  0  0  0  0  0  0  0  0  0
   -1.6087    2.2401    1.9936 H   0  0  0  0  0  0  0  0  0  0  0  0
   -0.1336    2.9789    1.3759 H   0  0  0  0  0  0  0  0  0  0  0  0
   -1.8910    3.5619    0.2874 C   0  0  0  0  0  0  0  0  0  0  0  0
   -1.3497    3.8290   -0.6274 H   0  0  0  0  0  0  0  0  0  0  0  0
   -2.8586    3.1418   -0.0073 H   0  0  0  0  0  0  0  0  0  0  0  0
   -2.1178    4.8170    1.1422 C   0  0  0  0  0  0  0  0  0  0  0  0
   -2.6387    4.5363    2.0647 H   0  0  0  0  0  0  0  0  0  0  0  0
   -1.1489    5.2482    1.4186 H   0  0  0  0  0  0  0  0  0  0  0  0
   -2.9444    5.8478    0.3732 C   0  0  0  0  0  0  0  0  0  0  0  0
   -2.4138    6.1215   -0.5509 H   0  0  0  0  0  0  0  0  0  0  0  0
   -3.9015    5.3950    0.0743 H   0  0  0  0  0  0  0  0  0  0  0  0
   -3.1650    7.0332    1.2315 N   0  3  0  0  0  0  0  0  0  0  0  0
   -2.2681    7.4458    1.4965 H   0  0  0  0  0  0  0  0  0  0  0  0
   -3.7153    7.7341    0.7294 H   0  0  0  0  0  0  0  0  0  0  0  0
   -3.6682    6.7645    2.0795 H   0  0  0  0  0  0  0  0  0  0  0  0
    0.3865    0.4560    0.9093 C   0  0  0  0  0  0  0  0  0  0  0  0
    0.1637   -0.3896    1.7644 O   0  0  0  0  0  0  0  0  0  0  0  0
    1.6070    1.1003    1.0579 N   0  0  0  0  0  0  0  0  0  0  0  0
    1.8385    1.8017    0.3623 H   0  0  0  0  0  0  0  0  0  0  0  0
    2.7030    0.5455    1.8511 C   0  0  0  0  0  0  0  0  0  0  0  0
    2.9481   -0.4671    1.5121 H   0  0  0  0  0  0  0  0  0  0  0  0
    3.5974    1.1680    1.7523 H   0  0  0  0  0  0  0  0  0  0  0  0
    2.4295    0.5028    2.9109 H   0  0  0  0  0  0  0  0  0  0  0  0
  1  2  1  0  0  0  0
  2  3  1  0  0  0  0
  2  4  1  0  0  0  0
  2  5  1  0  0  0  0
  5  6  2  0  0  0  0
  5  7  1  0  0  0  0
  7  8  1  0  0  0  0
  7  9  1  0  0  0  0
  9 10  1  0  0  0  0
  9 11  1  0  0  0  0
  9 27  1  0  0  0  0
 11 12  1  0  0  0  0
 11 13  1  0  0  0  0
 11 14  1  0  0  0  0
 14 15  1  0  0  0  0
 14 16  1  0  0  0  0
 14 17  1  0  0  0  0
 17 18  1  0  0  0  0
 17 19  1  0  0  0  0
 17 20  1  0  0  0  0
 20 21  1  0  0  0  0
 20 22  1  0  0  0  0
 20 23  1  0  0  0  0
 23 24  1  0  0  0  0
 23 25  1  0  0  0  0
 23 26  1  0  0  0  0
 27 28  2  0  0  0  0
 27 29  1  0  0  0  0
 29 30  1  0  0  0  0
 29 31  1  0  0  0  0
 31 32  1  0  0  0  0
 31 33  1  0  0  0  0
 31 34  1  0  0  0  0
M  CHG  1  23   1
M  END
$$$$

  -OEChem-01062216093D

 34 33  0     1  0  0  0  0  0999 V2000
   -3.4997   -2.4430    1.1896 H   0  0  0  0  0  0  0  0  0  0  0  0
   -3.4592   -1.5424    0.5700 C   0  0  0  0  0  0  0  0  0  0  0  0
   -4.4706   -1.1459    0.4559 H   0  0  0  0  0  0  0  0  0  0  0  0
   -3.0634   -1.8143   -0.4115 H   0  0  0  0  0  0  0  0  0  0  0  0
   -2.5617   -0.5091    1.2227 C   0  0  0  0  0  0  0  0  0  0  0  0
   -2.2876   -0.5958    2.4081 O   0  0  0  0  0  0  0  0  0  0  0  0
   -2.3101    0.7020    0.6052 N   0  0  0  0  0  0  0  0  0  0  0  0
   -2.8191    0.7589   -0.2707 H   0  0  0  0  0  0  0  0  0  0  0  0
   -0.9527    1.3005    0.5252 C   0  0  1  0  0  0  0  0  0  0  0  0
   -0.6855    1.4495   -0.5254 H   0  0  0  0  0  0  0  0  0  0  0  0
   -1.1076    2.6692    1.2322 C   0  0  0  0  0  0  0  0  0  0  0  0
   -1.5225    2.5062    2.2343 H   0  0  0  0  0  0  0  0  0  0  0  0
   -0.1282    3.1389    1.3565 H   0  0  0  0  0  0  0  0  0  0  0  0
   -1.9959    3.6505    0.4483 C   0  0  0  0  0  0  0  0  0  0  0  0
   -1.5761    3.8055   -0.5519 H   0  0  0  0  0  0  0  0  0  0  0  0
   -3.0010    3.2305    0.3317 H   0  0  0  0  0  0  0  0  0  0  0  0
   -2.0857    4.9893    1.1925 C   0  0  0  0  0  0  0  0  0  0  0  0
   -2.4881    4.8154    2.1970 H   0  0  0  0  0  0  0  0  0  0  0  0
   -1.0819    5.4153    1.2987 H   0  0  0  0  0  0  0  0  0  0  0  0
   -2.9861    5.9640    0.4360 C   0  0  0  0  0  0  0  0  0  0  0  0
   -2.5762    6.1307   -0.5710 H   0  0  0  0  0  0  0  0  0  0  0  0
   -3.9820    5.5140    0.3102 H   0  0  0  0  0  0  0  0  0  0  0  0
   -3.0679    7.2318    1.1946 N   0  3  0  0  0  0  0  0  0  0  0  0
   -2.1387    7.6467    1.2863 H   0  0  0  0  0  0  0  0  0  0  0  0
   -3.6797    7.8934    0.7113 H   0  0  0  0  0  0  0  0  0  0  0  0
   -3.4447    7.0558    2.1286 H   0  0  0  0  0  0  0  0  0  0  0  0
    0.2430    0.5151    1.1563 C   0  0  0  0  0  0  0  0  0  0  0  0
    0.3045   -0.6971    1.0021 O   0  0  0  0  0  0  0  0  0  0  0  0
    1.4587    1.1391    1.3968 N   0  0  0  0  0  0  0  0  0  0  0  0
    1.4676    2.1504    1.4570 H   0  0  0  0  0  0  0  0  0  0  0  0
    2.6749    0.4119    1.7561 C   0  0  0  0  0  0  0  0  0  0  0  0
    2.9939   -0.2355    0.9322 H   0  0  0  0  0  0  0  0  0  0  0  0
    3.4863    1.1119    1.9774 H   0  0  0  0  0  0  0  0  0  0  0  0
    2.5035   -0.2088    2.6425 H   0  0  0  0  0  0  0  0  0  0  0  0
  1  2  1  0  0  0  0
  2  3  1  0  0  0  0
  2  4  1  0  0  0  0
  2  5  1  0  0  0  0
  5  6  2  0  0  0  0
  5  7  1  0  0  0  0
  7  8  1  0  0  0  0
  7  9  1  0  0  0  0
  9 10  1  0  0  0  0
  9 11  1  0  0  0  0
  9 27  1  0  0  0  0
 11 12  1  0  0  0  0
 11 13  1  0  0  0  0
 11 14  1  0  0  0  0
 14 15  1  0  0  0  0
 14 16  1  0  0  0  0
 14 17  1  0  0  0  0
 17 18  1  0  0  0  0
 17 19  1  0  0  0  0
 17 20  1  0  0  0  0
 20 21  1  0  0  0  0
 20 22  1  0  0  0  0
 20 23  1  0  0  0  0
 23 24  1  0  0  0  0
 23 25  1  0  0  0  0
 23 26  1  0  0  0  0
 27 28  2  0  0  0  0
 27 29  1  0  0  0  0
 29 30  1  0  0  0  0
 29 31  1  0  0  0  0
 31 32  1  0  0  0  0
 31 33  1  0  0  0  0
 31 34  1  0  0  0  0
M  CHG  1  23   1
M  END
$$$$

  -OEChem-01062216093D

 34 33  0     1  0  0  0  0  0999 V2000
   -3.4596   -2.4648    1.1570 H   0  0  0  0  0  0  0  0  0  0  0  0
   -3.4564   -1.5394    0.5740 C   0  0  0  0  0  0  0  0  0  0  0  0
   -4.4721   -1.1393    0.5404 H   0  0  0  0  0  0  0  0  0  0  0  0
   -3.1235   -1.7697   -0.4409 H   0  0  0  0  0  0  0  0  0  0  0  0
   -2.5190   -0.5326    1.2108 C   0  0  0  0  0  0  0  0  0  0  0  0
   -2.1461   -0.6870    2.3620 O   0  0  0  0  0  0  0  0  0  0  0  0
   -2.3051    0.7017    0.6235 N   0  0  0  0  0  0  0  0  0  0  0  0
   -2.8421    0.7856   -0.2334 H   0  0  0  0  0  0  0  0  0  0  0  0
   -0.9602    1.3251    0.5378 C   0  0  1  0  0  0  0  0  0  0  0  0
   -0.7039    1.4787   -0.5151 H   0  0  0  0  0  0  0  0  0  0  0  0
   -1.1062    2.6972    1.2386 C   0  0  0  0  0  0  0  0  0  0  0  0
   -1.5048    2.5426    2.2483 H   0  0  0  0  0  0  0  0  0  0  0  0
   -0.1246    3.1695    1.3367 H   0  0  0  0  0  0  0  0  0  0  0  0
   -2.0061    3.6681    0.4548 C   0  0  0  0  0  0  0  0  0  0  0  0
   -1.5974    3.8129   -0.5516 H   0  0  0  0  0  0  0  0  0  0  0  0
   -3.0104    3.2421    0.3536 H   0  0  0  0  0  0  0  0  0  0  0  0
   -2.0948    5.0164    1.1822 C   0  0  0  0  0  0  0  0  0  0  0  0
   -2.4864    4.8544    2.1929 H   0  0  0  0  0  0  0  0  0  0  0  0
   -1.0919    5.4481    1.2723 H   0  0  0  0  0  0  0  0  0  0  0  0
   -3.0075    5.9764    0.4207 C   0  0  0  0  0  0  0  0  0  0  0  0
   -2.6076    6.1310   -0.5925 H   0  0  0  0  0  0  0  0  0  0  0  0
   -4.0020    5.5194    0.3103 H   0  0  0  0  0  0  0  0  0  0  0  0
   -3.0896    7.2551    1.1608 N   0  3  0  0  0  0  0  0  0  0  0  0
   -2.1608    7.6734    1.2428 H   0  0  0  0  0  0  0  0  0  0  0  0
   -3.7045    7.9080    0.6693 H   0  0  0  0  0  0  0  0  0  0  0  0
   -3.4629    7.0926    2.0985 H   0  0  0  0  0  0  0  0  0  0  0  0
    0.2327    0.5134    1.1353 C   0  0  0  0  0  0  0  0  0  0  0  0
    0.3876   -0.6335    0.7354 O   0  0  0  0  0  0  0  0  0  0  0  0
    1.3503    1.1259    1.6819 N   0  0  0  0  0  0  0  0  0  0  0  0
    1.2292    2.0610    2.0526 H   0  0  0  0  0  0  0  0  0  0  0  0
    2.5386    0.3770    2.0841 C   0  0  0  0  0  0  0  0  0  0  0  0
    3.0023   -0.1028    1.2154 H   0  0  0  0  0  0  0  0  0  0  0  0
    3.2748    1.0457    2.5401 H   0  0  0  0  0  0  0  0  0  0  0  0
    2.2759   -0.3971    2.8135 H   0  0  0  0  0  0  0  0  0  0  0  0
  1  2  1  0  0  0  0
  2  3  1  0  0  0  0
  2  4  1  0  0  0  0
  2  5  1  0  0  0  0
  5  6  2  0  0  0  0
  5  7  1  0  0  0  0
  7  8  1  0  0  0  0
  7  9  1  0  0  0  0
  9 10  1  0  0  0  0
  9 11  1  0  0  0  0
  9 27  1  0  0  0  0
 11 12  1  0  0  0  0
 11 13  1  0  0  0  0
 11 14  1  0  0  0  0
 14 15  1  0  0  0  0
 14 16  1  0  0  0  0
 14 17  1  0  0  0  0
 17 18  1  0  0  0  0
 17 19  1  0  0  0  0
 17 20  1  0  0  0  0
 20 21  1  0  0  0  0
 20 22  1  0  0  0  0
 20 23  1  0  0  0  0
 23 24  1  0  0  0  0
 23 25  1  0  0  0  0
 23 26  1  0  0  0  0
 27 28  2  0  0  0  0
 27 29  1  0  0  0  0
 29 30  1  0  0  0  0
 29 31  1  0  0  0  0
 31 32  1  0  0  0  0
 31 33  1  0  0  0  0
 31 34  1  0  0  0  0
M  CHG  1  23   1
M  END
$$$$

  -OEChem-01062216093D

 34 33  0     1  0  0  0  0  0999 V2000
   -3.4210   -2.4936    1.1214 H   0  0  0  0  0  0  0  0  0  0  0  0
   -3.4550   -1.5472    0.5739 C   0  0  0  0  0  0  0  0  0  0  0  0
   -4.4757   -1.1592    0.6021 H   0  0  0  0  0  0  0  0  0  0  0  0
   -3.1688   -1.7368   -0.4634 H   0  0  0  0  0  0  0  0  0  0  0  0
   -2.4987   -0.5523    1.2024 C   0  0  0  0  0  0  0  0  0  0  0  0
   -2.0639   -0.7484    2.3252 O   0  0  0  0  0  0  0  0  0  0  0  0
   -2.3085    0.6945    0.6321 N   0  0  0  0  0  0  0  0  0  0  0  0
   -2.8671    0.7956   -0.2092 H   0  0  0  0  0  0  0  0  0  0  0  0
   -0.9743    1.3376    0.5403 C   0  0  1  0  0  0  0  0  0  0  0  0
   -0.7291    1.4930   -0.5153 H   0  0  0  0  0  0  0  0  0  0  0  0
   -1.1077    2.7122    1.2354 C   0  0  0  0  0  0  0  0  0  0  0  0
   -1.4939    2.5652    2.2507 H   0  0  0  0  0  0  0  0  0  0  0  0
   -0.1209    3.1791    1.3146 H   0  0  0  0  0  0  0  0  0  0  0  0
   -2.0156    3.6791    0.4571 C   0  0  0  0  0  0  0  0  0  0  0  0
   -1.6212    3.8162   -0.5560 H   0  0  0  0  0  0  0  0  0  0  0  0
   -3.0214    3.2528    0.3731 H   0  0  0  0  0  0  0  0  0  0  0  0
   -2.0933    5.0327    1.1758 C   0  0  0  0  0  0  0  0  0  0  0  0
   -2.4724    4.8801    2.1926 H   0  0  0  0  0  0  0  0  0  0  0  0
   -1.0890    5.4646    1.2497 H   0  0  0  0  0  0  0  0  0  0  0  0
   -3.0148    5.9852    0.4160 C   0  0  0  0  0  0  0  0  0  0  0  0
   -2.6277    6.1284   -0.6038 H   0  0  0  0  0  0  0  0  0  0  0  0
   -4.0107    5.5270    0.3231 H   0  0  0  0  0  0  0  0  0  0  0  0
   -3.0892    7.2714    1.1436 N   0  3  0  0  0  0  0  0  0  0  0  0
   -2.1583    7.6870    1.2175 H   0  0  0  0  0  0  0  0  0  0  0  0
   -3.7034    7.9215    0.6478 H   0  0  0  0  0  0  0  0  0  0  0  0
   -3.4592    7.1201    2.0844 H   0  0  0  0  0  0  0  0  0  0  0  0
    0.2225    0.5207    1.1165 C   0  0  0  0  0  0  0  0  0  0  0  0
    0.4801   -0.5427    0.5674 O   0  0  0  0  0  0  0  0  0  0  0  0
    1.1992    1.0739    1.9296 N   0  0  0  0  0  0  0  0  0  0  0  0
    0.9326    1.8928    2.4643 H   0  0  0  0  0  0  0  0  0  0  0  0
    2.3521    0.3047    2.3905 C   0  0  0  0  0  0  0  0  0  0  0  0
    2.9674   -0.0130    1.5417 H   0  0  0  0  0  0  0  0  0  0  0  0
    2.9730    0.9115    3.0566 H   0  0  0  0  0  0  0  0  0  0  0  0
    2.0244   -0.5857    2.9382 H   0  0  0  0  0  0  0  0  0  0  0  0
  1  2  1  0  0  0  0
  2  3  1  0  0  0  0
  2  4  1  0  0  0  0
  2  5  1  0  0  0  0
  5  6  2  0  0  0  0
  5  7  1  0  0  0  0
  7  8  1  0  0  0  0
  7  9  1  0  0  0  0
  9 10  1  0  0  0  0
  9 11  1  0  0  0  0
  9 27  1  0  0  0  0
 11 12  1  0  0  0  0
 11 13  1  0  0  0  0
 11 14  1  0  0  0  0
 14 15  1  0  0  0  0
 14 16  1  0  0  0  0
 14 17  1  0  0  0  0
 17 18  1  0  0  0  0
 17 19  1  0  0  0  0
 17 20  1  0  0  0  0
 20 21  1  0  0  0  0
 20 22  1  0  0  0  0
 20 23  1  0  0  0  0
 23 24  1  0  0  0  0
 23 25  1  0  0  0  0
 23 26  1  0  0  0  0
 27 28  2  0  0  0  0
 27 29  1  0  0  0  0
 29 30  1  0  0  0  0
 29 31  1  0  0  0  0
 31 32  1  0  0  0  0
 31 33  1  0  0  0  0
 31 34  1  0  0  0  0
M  CHG  1  23   1
M  END
$$$$

  -OEChem-01062216093D

 34 33  0     1  0  0  0  0  0999 V2000
   -3.4427   -2.4960    1.0944 H   0  0  0  0  0  0  0  0  0  0  0  0
   -3.4930   -1.5337    0.5769 C   0  0  0  0  0  0  0  0  0  0  0  0
   -4.5040   -1.1319    0.6754 H   0  0  0  0  0  0  0  0  0  0  0  0
   -3.2699   -1.6963   -0.4803 H   0  0  0  0  0  0  0  0  0  0  0  0
   -2.4872   -0.5713    1.1779 C   0  0  0  0  0  0  0  0  0  0  0  0
   -1.9967   -0.8091    2.2688 O   0  0  0  0  0  0  0  0  0  0  0  0
   -2.3020    0.6819    0.6197 N   0  0  0  0  0  0  0  0  0  0  0  0
   -2.8741    0.8022   -0.2101 H   0  0  0  0  0  0  0  0  0  0  0  0
   -0.9748    1.3386    0.5363 C   0  0  1  0  0  0  0  0  0  0  0  0
   -0.7297    1.4985   -0.5189 H   0  0  0  0  0  0  0  0  0  0  0  0
   -1.1072    2.7109    1.2320 C   0  0  0  0  0  0  0  0  0  0  0  0
   -1.4957    2.5637    2.2463 H   0  0  0  0  0  0  0  0  0  0  0  0
   -0.1170    3.1721    1.3129 H   0  0  0  0  0  0  0  0  0  0  0  0
   -2.0147    3.6770    0.4536 C   0  0  0  0  0  0  0  0  0  0  0  0
   -1.6198    3.8139   -0.5593 H   0  0  0  0  0  0  0  0  0  0  0  0
   -3.0203    3.2502    0.3697 H   0  0  0  0  0  0  0  0  0  0  0  0
   -2.0926    5.0306    1.1715 C   0  0  0  0  0  0  0  0  0  0  0  0
   -2.4708    4.8787    2.1888 H   0  0  0  0  0  0  0  0  0  0  0  0
   -1.0880    5.4620    1.2436 H   0  0  0  0  0  0  0  0  0  0  0  0
   -3.0140    5.9830    0.4116 C   0  0  0  0  0  0  0  0  0  0  0  0
   -2.6262    6.1256   -0.6078 H   0  0  0  0  0  0  0  0  0  0  0  0
   -4.0100    5.5254    0.3185 H   0  0  0  0  0  0  0  0  0  0  0  0
   -3.0878    7.2692    1.1392 N   0  3  0  0  0  0  0  0  0  0  0  0
   -2.1560    7.6825    1.2151 H   0  0  0  0  0  0  0  0  0  0  0  0
   -3.6988    7.9209    0.6415 H   0  0  0  0  0  0  0  0  0  0  0  0
   -3.4604    7.1188    2.0791 H   0  0  0  0  0  0  0  0  0  0  0  0
    0.2270    0.5308    1.1082 C   0  0  0  0  0  0  0  0  0  0  0  0
    0.6170   -0.4199    0.4439 O   0  0  0  0  0  0  0  0  0  0  0  0
    1.0225    0.9804    2.1498 N   0  0  0  0  0  0  0  0  0  0  0  0
    0.5894    1.6410    2.7861 H   0  0  0  0  0  0  0  0  0  0  0  0
    2.1463    0.1945    2.6510 C   0  0  0  0  0  0  0  0  0  0  0  0
    2.8949    0.0495    1.8645 H   0  0  0  0  0  0  0  0  0  0  0  0
    2.6255    0.7070    3.4906 H   0  0  0  0  0  0  0  0  0  0  0  0
    1.8037   -0.7878    2.9946 H   0  0  0  0  0  0  0  0  0  0  0  0
  1  2  1  0  0  0  0
  2  3  1  0  0  0  0
  2  4  1  0  0  0  0
  2  5  1  0  0  0  0
  5  6  2  0  0  0  0
  5  7  1  0  0  0  0
  7  8  1  0  0  0  0
  7  9  1  0  0  0  0
  9 10  1  0  0  0  0
  9 11  1  0  0  0  0
  9 27  1  0  0  0  0
 11 12  1  0  0  0  0
 11 13  1  0  0  0  0
 11 14  1  0  0  0  0
 14 15  1  0  0  0  0
 14 16  1  0  0  0  0
 14 17  1  0  0  0  0
 17 18  1  0  0  0  0
 17 19  1  0  0  0  0
 17 20  1  0  0  0  0
 20 21  1  0  0  0  0
 20 22  1  0  0  0  0
 20 23  1  0  0  0  0
 23 24  1  0  0  0  0
 23 25  1  0  0  0  0
 23 26  1  0  0  0  0
 27 28  2  0  0  0  0
 27 29  1  0  0  0  0
 29 30  1  0  0  0  0
 29 31  1  0  0  0  0
 31 32  1  0  0  0  0
 31 33  1  0  0  0  0
 31 34  1  0  0  0  0
M  CHG  1  23   1
M  END
$$$$

  -OEChem-01062216093D

 34 33  0     1  0  0  0  0  0999 V2000
   -3.5008   -2.4963    1.0772 H   0  0  0  0  0  0  0  0  0  0  0  0
   -3.5418   -1.5264    0.5730 C   0  0  0  0  0  0  0  0  0  0  0  0
   -4.5387   -1.1007    0.7077 H   0  0  0  0  0  0  0  0  0  0  0  0
   -3.3569   -1.6812   -0.4927 H   0  0  0  0  0  0  0  0  0  0  0  0
   -2.4935   -0.5967    1.1529 C   0  0  0  0  0  0  0  0  0  0  0  0
   -1.9558   -0.8755    2.2109 O   0  0  0  0  0  0  0  0  0  0  0  0
   -2.3018    0.6592    0.6028 N   0  0  0  0  0  0  0  0  0  0  0  0
   -2.8855    0.8008   -0.2156 H   0  0  0  0  0  0  0  0  0  0  0  0
   -0.9799    1.3266    0.5316 C   0  0  1  0  0  0  0  0  0  0  0  0
   -0.7338    1.4886   -0.5234 H   0  0  0  0  0  0  0  0  0  0  0  0
   -1.1125    2.6988    1.2251 C   0  0  0  0  0  0  0  0  0  0  0  0
   -1.5072    2.5541    2.2372 H   0  0  0  0  0  0  0  0  0  0  0  0
   -0.1182    3.1508    1.3131 H   0  0  0  0  0  0  0  0  0  0  0  0
   -2.0142    3.6689    0.4457 C   0  0  0  0  0  0  0  0  0  0  0  0
   -1.6149    3.8076   -0.5653 H   0  0  0  0  0  0  0  0  0  0  0  0
   -3.0206    3.2455    0.3566 H   0  0  0  0  0  0  0  0  0  0  0  0
   -2.0875    5.0202    1.1684 C   0  0  0  0  0  0  0  0  0  0  0  0
   -2.4692    4.8659    2.1838 H   0  0  0  0  0  0  0  0  0  0  0  0
   -1.0808    5.4463    1.2454 H   0  0  0  0  0  0  0  0  0  0  0  0
   -3.0019    5.9813    0.4116 C   0  0  0  0  0  0  0  0  0  0  0  0
   -2.6113    6.1277   -0.6065 H   0  0  0  0  0  0  0  0  0  0  0  0
   -4.0002    5.5299    0.3139 H   0  0  0  0  0  0  0  0  0  0  0  0
   -3.0686    7.2633    1.1472 N   0  3  0  0  0  0  0  0  0  0  0  0
   -2.1338    7.6682    1.2299 H   0  0  0  0  0  0  0  0  0  0  0  0
   -3.6721    7.9233    0.6513 H   0  0  0  0  0  0  0  0  0  0  0  0
   -3.4464    7.1096    2.0845 H   0  0  0  0  0  0  0  0  0  0  0  0
    0.2299    0.5375    1.1074 C   0  0  0  0  0  0  0  0  0  0  0  0
    0.7884   -0.2498    0.3561 O   0  0  0  0  0  0  0  0  0  0  0  0
    0.8176    0.8422    2.3239 N   0  0  0  0  0  0  0  0  0  0  0  0
    0.2049    1.2904    2.9979 H   0  0  0  0  0  0  0  0  0  0  0  0
    1.9289    0.0557    2.8498 C   0  0  0  0  0  0  0  0  0  0  0  0
    2.7890    0.1046    2.1734 H   0  0  0  0  0  0  0  0  0  0  0  0
    2.2385    0.4402    3.8263 H   0  0  0  0  0  0  0  0  0  0  0  0
    1.6341   -0.9929    2.9672 H   0  0  0  0  0  0  0  0  0  0  0  0
  1  2  1  0  0  0  0
  2  3  1  0  0  0  0
  2  4  1  0  0  0  0
  2  5  1  0  0  0  0
  5  6  2  0  0  0  0
  5  7  1  0  0  0  0
  7  8  1  0  0  0  0
  7  9  1  0  0  0  0
  9 10  1  0  0  0  0
  9 11  1  0  0  0  0
  9 27  1  0  0  0  0
 11 12  1  0  0  0  0
 11 13  1  0  0  0  0
 11 14  1  0  0  0  0
 14 15  1  0  0  0  0
 14 16  1  0  0  0  0
 14 17  1  0  0  0  0
 17 18  1  0  0  0  0
 17 19  1  0  0  0  0
 17 20  1  0  0  0  0
 20 21  1  0  0  0  0
 20 22  1  0  0  0  0
 20 23  1  0  0  0  0
 23 24  1  0  0  0  0
 23 25  1  0  0  0  0
 23 26  1  0  0  0  0
 27 28  2  0  0  0  0
 27 29  1  0  0  0  0
 29 30  1  0  0  0  0
 29 31  1  0  0  0  0
 31 32  1  0  0  0  0
 31 33  1  0  0  0  0
 31 34  1  0  0  0  0
M  CHG  1  23   1
M  END
$$$$

  -OEChem-01062216093D

 34 33  0     1  0  0  0  0  0999 V2000
   -3.6161   -2.4833    1.0503 H   0  0  0  0  0  0  0  0  0  0  0  0
   -3.6331   -1.5043    0.5622 C   0  0  0  0  0  0  0  0  0  0  0  0
   -4.6029   -1.0363    0.7458 H   0  0  0  0  0  0  0  0  0  0  0  0
   -3.5015   -1.6496   -0.5129 H   0  0  0  0  0  0  0  0  0  0  0  0
   -2.5209   -0.6312    1.1106 C   0  0  0  0  0  0  0  0  0  0  0  0
   -1.9412   -0.9654    2.1289 O   0  0  0  0  0  0  0  0  0  0  0  0
   -2.3034    0.6256    0.5721 N   0  0  0  0  0  0  0  0  0  0  0  0
   -2.8999    0.8046   -0.2300 H   0  0  0  0  0  0  0  0  0  0  0  0
   -0.9838    1.3005    0.5250 C   0  0  1  0  0  0  0  0  0  0  0  0
   -0.7299    1.4678   -0.5275 H   0  0  0  0  0  0  0  0  0  0  0  0
   -1.1186    2.6699    1.2219 C   0  0  0  0  0  0  0  0  0  0  0  0
   -1.5259    2.5226    2.2284 H   0  0  0  0  0  0  0  0  0  0  0  0
   -0.1219    3.1137    1.3275 H   0  0  0  0  0  0  0  0  0  0  0  0
   -2.0068    3.6490    0.4392 C   0  0  0  0  0  0  0  0  0  0  0  0
   -1.5951    3.7915   -0.5663 H   0  0  0  0  0  0  0  0  0  0  0  0
   -3.0145    3.2320    0.3374 H   0  0  0  0  0  0  0  0  0  0  0  0
   -2.0787    4.9959    1.1707 C   0  0  0  0  0  0  0  0  0  0  0  0
   -2.4697    4.8370    2.1819 H   0  0  0  0  0  0  0  0  0  0  0  0
   -1.0697    5.4142    1.2594 H   0  0  0  0  0  0  0  0  0  0  0  0
   -2.9796    5.9701    0.4139 C   0  0  0  0  0  0  0  0  0  0  0  0
   -2.5787    6.1228   -0.5991 H   0  0  0  0  0  0  0  0  0  0  0  0
   -3.9805    5.5272    0.3035 H   0  0  0  0  0  0  0  0  0  0  0  0
   -3.0431    7.2461    1.1602 N   0  3  0  0  0  0  0  0  0  0  0  0
   -2.1059    7.6434    1.2534 H   0  0  0  0  0  0  0  0  0  0  0  0
   -3.6380    7.9148    0.6655 H   0  0  0  0  0  0  0  0  0  0  0  0
   -3.4288    7.0873    2.0933 H   0  0  0  0  0  0  0  0  0  0  0  0
    0.2342    0.5372    1.1143 C   0  0  0  0  0  0  0  0  0  0  0  0
    0.9934   -0.0070    0.3249 O   0  0  0  0  0  0  0  0  0  0  0  0
    0.6025    0.6506    2.4438 N   0  0  0  0  0  0  0  0  0  0  0  0
   -0.1778    0.8131    3.0751 H   0  0  0  0  0  0  0  0  0  0  0  0
    1.7396   -0.0909    2.9795 C   0  0  0  0  0  0  0  0  0  0  0  0
    2.6623    0.1903    2.4606 H   0  0  0  0  0  0  0  0  0  0  0  0
    1.8659    0.1255    4.0447 H   0  0  0  0  0  0  0  0  0  0  0  0
    1.5842   -1.1687    2.8597 H   0  0  0  0  0  0  0  0  0  0  0  0
  1  2  1  0  0  0  0
  2  3  1  0  0  0  0
  2  4  1  0  0  0  0
  2  5  1  0  0  0  0
  5  6  2  0  0  0  0
  5  7  1  0  0  0  0
  7  8  1  0  0  0  0
  7  9  1  0  0  0  0
  9 10  1  0  0  0  0
  9 11  1  0  0  0  0
  9 27  1  0  0  0  0
 11 12  1  0  0  0  0
 11 13  1  0  0  0  0
 11 14  1  0  0  0  0
 14 15  1  0  0  0  0
 14 16  1  0  0  0  0
 14 17  1  0  0  0  0
 17 18  1  0  0  0  0
 17 19  1  0  0  0  0
 17 20  1  0  0  0  0
 20 21  1  0  0  0  0
 20 22  1  0  0  0  0
 20 23  1  0  0  0  0
 23 24  1  0  0  0  0
 23 25  1  0  0  0  0
 23 26  1  0  0  0  0
 27 28  2  0  0  0  0
 27 29  1  0  0  0  0
 29 30  1  0  0  0  0
 29 31  1  0  0  0  0
 31 32  1  0  0  0  0
 31 33  1  0  0  0  0
 31 34  1  0  0  0  0
M  CHG  1  23   1
M  END
$$$$

  -OEChem-01062216093D

 34 33  0     1  0  0  0  0  0999 V2000
   -3.7591   -2.4628    0.9942 H   0  0  0  0  0  0  0  0  0  0  0  0
   -3.7480   -1.4710    0.5324 C   0  0  0  0  0  0  0  0  0  0  0  0
   -4.6908   -0.9671    0.7579 H   0  0  0  0  0  0  0  0  0  0  0  0
   -3.6542   -1.5927   -0.5496 H   0  0  0  0  0  0  0  0  0  0  0  0
   -2.5829   -0.6616    1.0688 C   0  0  0  0  0  0  0  0  0  0  0  0
   -1.9820   -1.0572    2.0512 O   0  0  0  0  0  0  0  0  0  0  0  0
   -2.3212    0.5915    0.5426 N   0  0  0  0  0  0  0  0  0  0  0  0
   -2.9291    0.8171   -0.2387 H   0  0  0  0  0  0  0  0  0  0  0  0
   -0.9977    1.2617    0.5173 C   0  0  1  0  0  0  0  0  0  0  0  0
   -0.7387    1.4316   -0.5337 H   0  0  0  0  0  0  0  0  0  0  0  0
   -1.1310    2.6277    1.2190 C   0  0  0  0  0  0  0  0  0  0  0  0
   -1.5482    2.4780    2.2211 H   0  0  0  0  0  0  0  0  0  0  0  0
   -0.1316    3.0624    1.3383 H   0  0  0  0  0  0  0  0  0  0  0  0
   -2.0018    3.6195    0.4335 C   0  0  0  0  0  0  0  0  0  0  0  0
   -1.5782    3.7669   -0.5664 H   0  0  0  0  0  0  0  0  0  0  0  0
   -3.0121    3.2125    0.3175 H   0  0  0  0  0  0  0  0  0  0  0  0
   -2.0677    4.9598    1.1768 C   0  0  0  0  0  0  0  0  0  0  0  0
   -2.4717    4.7951    2.1822 H   0  0  0  0  0  0  0  0  0  0  0  0
   -1.0555    5.3667    1.2812 H   0  0  0  0  0  0  0  0  0  0  0  0
   -2.9498    5.9501    0.4207 C   0  0  0  0  0  0  0  0  0  0  0  0
   -2.5353    6.1084   -0.5859 H   0  0  0  0  0  0  0  0  0  0  0  0
   -3.9539    5.5192    0.2947 H   0  0  0  0  0  0  0  0  0  0  0  0
   -3.0064    7.2184    1.1801 N   0  3  0  0  0  0  0  0  0  0  0  0
   -2.0652    7.6023    1.2887 H   0  0  0  0  0  0  0  0  0  0  0  0
   -3.5867    7.9001    0.6861 H   0  0  0  0  0  0  0  0  0  0  0  0
   -3.4047    7.0545    2.1070 H   0  0  0  0  0  0  0  0  0  0  0  0
    0.2329    0.5277    1.1178 C   0  0  0  0  0  0  0  0  0  0  0  0
    1.1660    0.2829    0.3657 O   0  0  0  0  0  0  0  0  0  0  0  0
    0.4155    0.4086    2.4840 N   0  0  0  0  0  0  0  0  0  0  0  0
   -0.4596    0.2789    2.9913 H   0  0  0  0  0  0  0  0  0  0  0  0
    1.5966   -0.2442    3.0394 C   0  0  0  0  0  0  0  0  0  0  0  0
    2.5079    0.2806    2.7328 H   0  0  0  0  0  0  0  0  0  0  0  0
    1.5509   -0.2422    4.1328 H   0  0  0  0  0  0  0  0  0  0  0  0
    1.6577   -1.2826    2.6964 H   0  0  0  0  0  0  0  0  0  0  0  0
  1  2  1  0  0  0  0
  2  3  1  0  0  0  0
  2  4  1  0  0  0  0
  2  5  1  0  0  0  0
  5  6  2  0  0  0  0
  5  7  1  0  0  0  0
  7  8  1  0  0  0  0
  7  9  1  0  0  0  0
  9 10  1  0  0  0  0
  9 11  1  0  0  0  0
  9 27  1  0  0  0  0
 11 12  1  0  0  0  0
 11 13  1  0  0  0  0
 11 14  1  0  0  0  0
 14 15  1  0  0  0  0
 14 16  1  0  0  0  0
 14 17  1  0  0  0  0
 17 18  1  0  0  0  0
 17 19  1  0  0  0  0
 17 20  1  0  0  0  0
 20 21  1  0  0  0  0
 20 22  1  0  0  0  0
 20 23  1  0  0  0  0
 23 24  1  0  0  0  0
 23 25  1  0  0  0  0
 23 26  1  0  0  0  0
 27 28  2  0  0  0  0
 27 29  1  0  0  0  0
 29 30  1  0  0  0  0
 29 31  1  0  0  0  0
 31 32  1  0  0  0  0
 31 33  1  0  0  0  0
 31 34  1  0  0  0  0
M  CHG  1  23   1
M  END
$$$$

  -OEChem-01062216093D

 34 33  0     1  0  0  0  0  0999 V2000
   -3.9627   -2.3937    0.9348 H   0  0  0  0  0  0  0  0  0  0  0  0
   -3.8949   -1.3883    0.5081 C   0  0  0  0  0  0  0  0  0  0  0  0
   -4.7794   -0.8205    0.8063 H   0  0  0  0  0  0  0  0  0  0  0  0
   -3.8726   -1.4739   -0.5810 H   0  0  0  0  0  0  0  0  0  0  0  0
   -2.6392   -0.6958    1.0036 C   0  0  0  0  0  0  0  0  0  0  0  0
   -2.0060   -1.2007    1.9106 O   0  0  0  0  0  0  0  0  0  0  0  0
   -2.3141    0.5535    0.5029 N   0  0  0  0  0  0  0  0  0  0  0  0
   -2.9429    0.8528   -0.2359 H   0  0  0  0  0  0  0  0  0  0  0  0
   -0.9877    1.2245    0.5116 C   0  0  1  0  0  0  0  0  0  0  0  0
   -0.7155    1.3995   -0.5352 H   0  0  0  0  0  0  0  0  0  0  0  0
   -1.1395    2.5861    1.2187 C   0  0  0  0  0  0  0  0  0  0  0  0
   -1.5775    2.4264    2.2104 H   0  0  0  0  0  0  0  0  0  0  0  0
   -0.1444    3.0227    1.3659 H   0  0  0  0  0  0  0  0  0  0  0  0
   -1.9920    3.5862    0.4234 C   0  0  0  0  0  0  0  0  0  0  0  0
   -1.5449    3.7436   -0.5647 H   0  0  0  0  0  0  0  0  0  0  0  0
   -2.9999    3.1826    0.2802 H   0  0  0  0  0  0  0  0  0  0  0  0
   -2.0718    4.9189    1.1802 C   0  0  0  0  0  0  0  0  0  0  0  0
   -2.4968    4.7434    2.1749 H   0  0  0  0  0  0  0  0  0  0  0  0
   -1.0609    5.3219    1.3105 H   0  0  0  0  0  0  0  0  0  0  0  0
   -2.9353    5.9221    0.4190 C   0  0  0  0  0  0  0  0  0  0  0  0
   -2.4998    6.0931   -0.5767 H   0  0  0  0  0  0  0  0  0  0  0  0
   -3.9379    5.4966    0.2662 H   0  0  0  0  0  0  0  0  0  0  0  0
   -3.0034    7.1802    1.1946 N   0  3  0  0  0  0  0  0  0  0  0  0
   -2.0633    7.5594    1.3272 H   0  0  0  0  0  0  0  0  0  0  0  0
   -3.5714    7.8708    0.6986 H   0  0  0  0  0  0  0  0  0  0  0  0
   -3.4205    7.0049    2.1111 H   0  0  0  0  0  0  0  0  0  0  0  0
    0.2611    0.5345    1.1279 C   0  0  0  0  0  0  0  0  0  0  0  0
    1.2979    0.5777    0.4795 O   0  0  0  0  0  0  0  0  0  0  0  0
    0.3199    0.1504    2.4543 N   0  0  0  0  0  0  0  0  0  0  0  0
   -0.5808   -0.1655    2.8202 H   0  0  0  0  0  0  0  0  0  0  0  0
    1.5138   -0.4648    3.0243 C   0  0  0  0  0  0  0  0  0  0  0  0
    2.3680    0.2175    2.9605 H   0  0  0  0  0  0  0  0  0  0  0  0
    1.3472   -0.7076    4.0782 H   0  0  0  0  0  0  0  0  0  0  0  0
    1.7611   -1.3882    2.4899 H   0  0  0  0  0  0  0  0  0  0  0  0
  1  2  1  0  0  0  0
  2  3  1  0  0  0  0
  2  4  1  0  0  0  0
  2  5  1  0  0  0  0
  5  6  2  0  0  0  0
  5  7  1  0  0  0  0
  7  8  1  0  0  0  0
  7  9  1  0  0  0  0
  9 10  1  0  0  0  0
  9 11  1  0  0  0  0
  9 27  1  0  0  0  0
 11 12  1  0  0  0  0
 11 13  1  0  0  0  0
 11 14  1  0  0  0  0
 14 15  1  0  0  0  0
 14 16  1  0  0  0  0
 14 17  1  0  0  0  0
 17 18  1  0  0  0  0
 17 19  1  0  0  0  0
 17 20  1  0  0  0  0
 20 21  1  0  0  0  0
 20 22  1  0  0  0  0
 20 23  1  0  0  0  0
 23 24  1  0  0  0  0
 23 25  1  0  0  0  0
 23 26  1  0  0  0  0
 27 28  2  0  0  0  0
 27 29  1  0  0  0  0
 29 30  1  0  0  0  0
 29 31  1  0  0  0  0
 31 32  1  0  0  0  0
 31 33  1  0  0  0  0
 31 34  1  0  0  0  0
M  CHG  1  23   1
M  END
$$$$

  -OEChem-01062216093D

 34 33  0     1  0  0  0  0  0999 V2000
   -4.1605   -2.2932    0.8600 H   0  0  0  0  0  0  0  0  0  0  0  0
   -4.0381   -1.2699    0.4925 C   0  0  0  0  0  0  0  0  0  0  0  0
   -4.8535   -0.6571    0.8842 H   0  0  0  0  0  0  0  0  0  0  0  0
   -4.0907   -1.2849   -0.5990 H   0  0  0  0  0  0  0  0  0  0  0  0
   -2.7019   -0.7096    0.9429 C   0  0  0  0  0  0  0  0  0  0  0  0
   -2.0499   -1.3367    1.7534 O   0  0  0  0  0  0  0  0  0  0  0  0
   -2.3090    0.5331    0.4755 N   0  0  0  0  0  0  0  0  0  0  0  0
   -2.9565    0.9155   -0.2062 H   0  0  0  0  0  0  0  0  0  0  0  0
   -0.9756    1.1923    0.5185 C   0  0  1  0  0  0  0  0  0  0  0  0
   -0.6879    1.3721   -0.5232 H   0  0  0  0  0  0  0  0  0  0  0  0
   -1.1497    2.5496    1.2313 C   0  0  0  0  0  0  0  0  0  0  0  0
   -1.6134    2.3798    2.2095 H   0  0  0  0  0  0  0  0  0  0  0  0
   -0.1614    2.9899    1.4101 H   0  0  0  0  0  0  0  0  0  0  0  0
   -1.9808    3.5555    0.4196 C   0  0  0  0  0  0  0  0  0  0  0  0
   -1.5050    3.7214   -0.5536 H   0  0  0  0  0  0  0  0  0  0  0  0
   -2.9840    3.1531    0.2437 H   0  0  0  0  0  0  0  0  0  0  0  0
   -2.0838    4.8820    1.1840 C   0  0  0  0  0  0  0  0  0  0  0  0
   -2.5366    4.6986    2.1650 H   0  0  0  0  0  0  0  0  0  0  0  0
   -1.0775    5.2850    1.3457 H   0  0  0  0  0  0  0  0  0  0  0  0
   -2.9266    5.8905    0.4061 C   0  0  0  0  0  0  0  0  0  0  0  0
   -2.4632    6.0698   -0.5754 H   0  0  0  0  0  0  0  0  0  0  0  0
   -3.9241    5.4654    0.2214 H   0  0  0  0  0  0  0  0  0  0  0  0
   -3.0183    7.1427    1.1889 N   0  3  0  0  0  0  0  0  0  0  0  0
   -2.0820    7.5155    1.3610 H   0  0  0  0  0  0  0  0  0  0  0  0
   -3.5628    7.8404    0.6767 H   0  0  0  0  0  0  0  0  0  0  0  0
   -3.4716    6.9621    2.0869 H   0  0  0  0  0  0  0  0  0  0  0  0
    0.2859    0.5309    1.1456 C   0  0  0  0  0  0  0  0  0  0  0  0
    1.3606    0.8066    0.6283 O   0  0  0  0  0  0  0  0  0  0  0  0
    0.2957   -0.1267    2.3600 N   0  0  0  0  0  0  0  0  0  0  0  0
   -0.6001   -0.5491    2.6149 H   0  0  0  0  0  0  0  0  0  0  0  0
    1.5032   -0.7324    2.9113 C   0  0  0  0  0  0  0  0  0  0  0  0
    2.2702    0.0290    3.0877 H   0  0  0  0  0  0  0  0  0  0  0  0
    1.2790   -1.2215    3.8643 H   0  0  0  0  0  0  0  0  0  0  0  0
    1.9056   -1.4828    2.2226 H   0  0  0  0  0  0  0  0  0  0  0  0
  1  2  1  0  0  0  0
  2  3  1  0  0  0  0
  2  4  1  0  0  0  0
  2  5  1  0  0  0  0
  5  6  2  0  0  0  0
  5  7  1  0  0  0  0
  7  8  1  0  0  0  0
  7  9  1  0  0  0  0
  9 10  1  0  0  0  0
  9 11  1  0  0  0  0
  9 27  1  0  0  0  0
 11 12  1  0  0  0  0
 11 13  1  0  0  0  0
 11 14  1  0  0  0  0
 14 15  1  0  0  0  0
 14 16  1  0  0  0  0
 14 17  1  0  0  0  0
 17 18  1  0  0  0  0
 17 19  1  0  0  0  0
 17 20  1  0  0  0  0
 20 21  1  0  0  0  0
 20 22  1  0  0  0  0
 20 23  1  0  0  0  0
 23 24  1  0  0  0  0
 23 25  1  0  0  0  0
 23 26  1  0  0  0  0
 27 28  2  0  0  0  0
 27 29  1  0  0  0  0
 29 30  1  0  0  0  0
 29 31  1  0  0  0  0
 31 32  1  0  0  0  0
 31 33  1  0  0  0  0
 31 34  1  0  0  0  0
M  CHG  1  23   1
M  END
$$$$

  -OEChem-01062216093D

 34 33  0     1  0  0  0  0  0999 V2000
   -4.2988   -2.2267    0.8239 H   0  0  0  0  0  0  0  0  0  0  0  0
   -4.1312   -1.2069    0.4642 C   0  0  0  0  0  0  0  0  0  0  0  0
   -4.9218   -0.5626    0.8559 H   0  0  0  0  0  0  0  0  0  0  0  0
   -4.1793   -1.2120   -0.6273 H   0  0  0  0  0  0  0  0  0  0  0  0
   -2.7750   -0.7063    0.9254 C   0  0  0  0  0  0  0  0  0  0  0  0
   -2.1515   -1.3760    1.7232 O   0  0  0  0  0  0  0  0  0  0  0  0
   -2.3346    0.5246    0.4688 N   0  0  0  0  0  0  0  0  0  0  0  0
   -2.9753    0.9366   -0.2017 H   0  0  0  0  0  0  0  0  0  0  0  0
   -0.9898    1.1629    0.5184 C   0  0  1  0  0  0  0  0  0  0  0  0
   -0.7003    1.3418   -0.5228 H   0  0  0  0  0  0  0  0  0  0  0  0
   -1.1672    2.5220    1.2325 C   0  0  0  0  0  0  0  0  0  0  0  0
   -1.6435    2.3515    2.2044 H   0  0  0  0  0  0  0  0  0  0  0  0
   -0.1821    2.9624    1.4270 H   0  0  0  0  0  0  0  0  0  0  0  0
   -1.9843    3.5356    0.4164 C   0  0  0  0  0  0  0  0  0  0  0  0
   -1.4974    3.7024   -0.5512 H   0  0  0  0  0  0  0  0  0  0  0  0
   -2.9880    3.1405    0.2285 H   0  0  0  0  0  0  0  0  0  0  0  0
   -2.0865    4.8588    1.1872 C   0  0  0  0  0  0  0  0  0  0  0  0
   -2.5500    4.6726    2.1627 H   0  0  0  0  0  0  0  0  0  0  0  0
   -1.0792    5.2540    1.3616 H   0  0  0  0  0  0  0  0  0  0  0  0
   -2.9147    5.8774    0.4079 C   0  0  0  0  0  0  0  0  0  0  0  0
   -2.4401    6.0594   -0.5678 H   0  0  0  0  0  0  0  0  0  0  0  0
   -3.9133    5.4606    0.2111 H   0  0  0  0  0  0  0  0  0  0  0  0
   -3.0047    7.1247    1.1985 N   0  3  0  0  0  0  0  0  0  0  0  0
   -2.0677    7.4948    1.3726 H   0  0  0  0  0  0  0  0  0  0  0  0
   -3.5481    7.8266    0.6909 H   0  0  0  0  0  0  0  0  0  0  0  0
   -3.4577    6.9393    2.0955 H   0  0  0  0  0  0  0  0  0  0  0  0
    0.2838    0.5157    1.1430 C   0  0  0  0  0  0  0  0  0  0  0  0
    1.3576    0.9379    0.7323 O   0  0  0  0  0  0  0  0  0  0  0  0
    0.3084   -0.3780    2.1938 N   0  0  0  0  0  0  0  0  0  0  0  0
   -0.5790   -0.8399    2.4038 H   0  0  0  0  0  0  0  0  0  0  0  0
    1.5341   -0.9804    2.7067 C   0  0  0  0  0  0  0  0  0  0  0  0
    2.2161   -0.2079    3.0776 H   0  0  0  0  0  0  0  0  0  0  0  0
    1.3028   -1.6599    3.5329 H   0  0  0  0  0  0  0  0  0  0  0  0
    2.0409   -1.5503    1.9207 H   0  0  0  0  0  0  0  0  0  0  0  0
  1  2  1  0  0  0  0
  2  3  1  0  0  0  0
  2  4  1  0  0  0  0
  2  5  1  0  0  0  0
  5  6  2  0  0  0  0
  5  7  1  0  0  0  0
  7  8  1  0  0  0  0
  7  9  1  0  0  0  0
  9 10  1  0  0  0  0
  9 11  1  0  0  0  0
  9 27  1  0  0  0  0
 11 12  1  0  0  0  0
 11 13  1  0  0  0  0
 11 14  1  0  0  0  0
 14 15  1  0  0  0  0
 14 16  1  0  0  0  0
 14 17  1  0  0  0  0
 17 18  1  0  0  0  0
 17 19  1  0  0  0  0
 17 20  1  0  0  0  0
 20 21  1  0  0  0  0
 20 22  1  0  0  0  0
 20 23  1  0  0  0  0
 23 24  1  0  0  0  0
 23 25  1  0  0  0  0
 23 26  1  0  0  0  0
 27 28  2  0  0  0  0
 27 29  1  0  0  0  0
 29 30  1  0  0  0  0
 29 31  1  0  0  0  0
 31 32  1  0  0  0  0
 31 33  1  0  0  0  0
 31 34  1  0  0  0  0
M  CHG  1  23   1
M  END
$$$$

  -OEChem-01062216093D

 34 33  0     1  0  0  0  0  0999 V2000
   -3.5867   -2.4219    1.0722 H   0  0  0  0  0  0  0  0  0  0  0  0
   -3.4407   -1.4985    0.5038 C   0  0  0  0  0  0  0  0  0  0  0  0
   -4.4055   -0.9976    0.3941 H   0  0  0  0  0  0  0  0  0  0  0  0
   -3.0541   -1.7560   -0.4852 H   0  0  0  0  0  0  0  0  0  0  0  0
   -2.4630   -0.5922    1.2276 C   0  0  0  0  0  0  0  0  0  0  0  0
   -2.2081   -0.8103    2.3944 O   0  0  0  0  0  0  0  0  0  0  0  0
   -2.0971    0.6083    0.6549 N   0  0  0  0  0  0  0  0  0  0  0  0
   -2.5800    0.7504   -0.2262 H   0  0  0  0  0  0  0  0  0  0  0  0
   -0.7858    1.3072    0.7233 C   0  0  1  0  0  0  0  0  0  0  0  0
   -0.4377    1.4429   -0.3055 H   0  0  0  0  0  0  0  0  0  0  0  0
   -1.1344    2.6871    1.3388 C   0  0  0  0  0  0  0  0  0  0  0  0
   -1.6605    2.5247    2.2866 H   0  0  0  0  0  0  0  0  0  0  0  0
   -0.2165    3.2367    1.5730 H   0  0  0  0  0  0  0  0  0  0  0  0
   -1.9775    3.5808    0.4158 C   0  0  0  0  0  0  0  0  0  0  0  0
   -1.4422    3.7432   -0.5263 H   0  0  0  0  0  0  0  0  0  0  0  0
   -2.9304    3.0916    0.1876 H   0  0  0  0  0  0  0  0  0  0  0  0
   -2.2408    4.9236    1.1100 C   0  0  0  0  0  0  0  0  0  0  0  0
   -2.7495    4.7411    2.0634 H   0  0  0  0  0  0  0  0  0  0  0  0
   -1.2837    5.4119    1.3262 H   0  0  0  0  0  0  0  0  0  0  0  0
   -3.0979    5.8323    0.2330 C   0  0  0  0  0  0  0  0  0  0  0  0
   -2.5797    6.0121   -0.7205 H   0  0  0  0  0  0  0  0  0  0  0  0
   -4.0442    5.3233   -0.0015 H   0  0  0  0  0  0  0  0  0  0  0  0
   -3.3398    7.0987    0.9583 N   0  3  0  0  0  0  0  0  0  0  0  0
   -2.4500    7.5579    1.1643 H   0  0  0  0  0  0  0  0  0  0  0  0
   -3.9135    7.7268    0.3915 H   0  0  0  0  0  0  0  0  0  0  0  0
   -3.8243    6.9097    1.8382 H   0  0  0  0  0  0  0  0  0  0  0  0
    0.4857    0.7884    1.4812 C   0  0  0  0  0  0  0  0  0  0  0  0
    1.4938    1.4762    1.4216 O   0  0  0  0  0  0  0  0  0  0  0  0
    0.6318   -0.1982    2.4250 N   0  0  0  0  0  0  0  0  0  0  0  0
    1.4361    0.0106    3.0114 H   0  0  0  0  0  0  0  0  0  0  0  0
    0.5771   -1.5974    2.0135 C   0  0  0  0  0  0  0  0  0  0  0  0
    1.5912   -1.9984    1.9179 H   0  0  0  0  0  0  0  0  0  0  0  0
    0.0394   -2.1901    2.7609 H   0  0  0  0  0  0  0  0  0  0  0  0
    0.0748   -1.7171    1.0486 H   0  0  0  0  0  0  0  0  0  0  0  0
  1  2  1  0  0  0  0
  2  3  1  0  0  0  0
  2  4  1  0  0  0  0
  2  5  1  0  0  0  0
  5  6  2  0  0  0  0
  5  7  1  0  0  0  0
  7  8  1  0  0  0  0
  7  9  1  0  0  0  0
  9 10  1  0  0  0  0
  9 11  1  0  0  0  0
  9 27  1  0  0  0  0
 11 12  1  0  0  0  0
 11 13  1  0  0  0  0
 11 14  1  0  0  0  0
 14 15  1  0  0  0  0
 14 16  1  0  0  0  0
 14 17  1  0  0  0  0
 17 18  1  0  0  0  0
 17 19  1  0  0  0  0
 17 20  1  0  0  0  0
 20 21  1  0  0  0  0
 20 22  1  0  0  0  0
 20 23  1  0  0  0  0
 23 24  1  0  0  0  0
 23 25  1  0  0  0  0
 23 26  1  0  0  0  0
 27 28  2  0  0  0  0
 27 29  1  0  0  0  0
 29 30  1  0  0  0  0
 29 31  1  0  0  0  0
 31 32  1  0  0  0  0
 31 33  1  0  0  0  0
 31 34  1  0  0  0  0
M  CHG  1  23   1
M  END
$$$$

  -OEChem-01062216093D

 34 33  0     1  0  0  0  0  0999 V2000
   -3.8970   -2.3106    1.0977 H   0  0  0  0  0  0  0  0  0  0  0  0
   -3.8106   -1.2548    0.8231 C   0  0  0  0  0  0  0  0  0  0  0  0
   -4.2834   -0.6521    1.6017 H   0  0  0  0  0  0  0  0  0  0  0  0
   -4.3335   -1.0975   -0.1232 H   0  0  0  0  0  0  0  0  0  0  0  0
   -2.3494   -0.8709    0.6807 C   0  0  0  0  0  0  0  0  0  0  0  0
   -1.5157   -1.7415    0.7929 O   0  0  0  0  0  0  0  0  0  0  0  0
   -2.0436    0.4219    0.2956 N   0  0  0  0  0  0  0  0  0  0  0  0
   -2.8703    0.9684    0.0864 H   0  0  0  0  0  0  0  0  0  0  0  0
   -0.7623    1.1801    0.2710 C   0  0  1  0  0  0  0  0  0  0  0  0
   -0.5995    1.4247   -0.7841 H   0  0  0  0  0  0  0  0  0  0  0  0
   -1.0202    2.4924    1.0509 C   0  0  0  0  0  0  0  0  0  0  0  0
   -1.4047    2.2445    2.0461 H   0  0  0  0  0  0  0  0  0  0  0  0
   -0.0757    3.0296    1.1945 H   0  0  0  0  0  0  0  0  0  0  0  0
   -1.9908    3.4422    0.3283 C   0  0  0  0  0  0  0  0  0  0  0  0
   -1.5898    3.6864   -0.6624 H   0  0  0  0  0  0  0  0  0  0  0  0
   -2.9611    2.9548    0.1894 H   0  0  0  0  0  0  0  0  0  0  0  0
   -2.1736    4.7268    1.1483 C   0  0  0  0  0  0  0  0  0  0  0  0
   -2.5477    4.4686    2.1454 H   0  0  0  0  0  0  0  0  0  0  0  0
   -1.2023    5.2203    1.2682 H   0  0  0  0  0  0  0  0  0  0  0  0
   -3.1534    5.6733    0.4571 C   0  0  0  0  0  0  0  0  0  0  0  0
   -2.7670    5.9275   -0.5411 H   0  0  0  0  0  0  0  0  0  0  0  0
   -4.1148    5.1596    0.3113 H   0  0  0  0  0  0  0  0  0  0  0  0
   -3.3196    6.8859    1.2886 N   0  3  0  0  0  0  0  0  0  0  0  0
   -2.4177    7.3521    1.4086 H   0  0  0  0  0  0  0  0  0  0  0  0
   -3.9691    7.5355    0.8394 H   0  0  0  0  0  0  0  0  0  0  0  0
   -3.6859    6.6341    2.2086 H   0  0  0  0  0  0  0  0  0  0  0  0
    0.6487    0.6644    0.7116 C   0  0  0  0  0  0  0  0  0  0  0  0
    1.6066    1.3264    0.3406 O   0  0  0  0  0  0  0  0  0  0  0  0
    1.0603   -0.5450    1.2130 N   0  0  0  0  0  0  0  0  0  0  0  0
    2.0526   -0.6826    1.0378 H   0  0  0  0  0  0  0  0  0  0  0  0
    0.6199   -0.9695    2.5377 C   0  0  0  0  0  0  0  0  0  0  0  0
    1.3670   -0.6961    3.2895 H   0  0  0  0  0  0  0  0  0  0  0  0
   -0.3298   -0.5010    2.8144 H   0  0  0  0  0  0  0  0  0  0  0  0
    0.4869   -2.0561    2.5580 H   0  0  0  0  0  0  0  0  0  0  0  0
  1  2  1  0  0  0  0
  2  3  1  0  0  0  0
  2  4  1  0  0  0  0
  2  5  1  0  0  0  0
  5  6  2  0  0  0  0
  5  7  1  0  0  0  0
  7  8  1  0  0  0  0
  7  9  1  0  0  0  0
  9 10  1  0  0  0  0
  9 11  1  0  0  0  0
  9 27  1  0  0  0  0
 11 12  1  0  0  0  0
 11 13  1  0  0  0  0
 11 14  1  0  0  0  0
 14 15  1  0  0  0  0
 14 16  1  0  0  0  0
 14 17  1  0  0  0  0
 17 18  1  0  0  0  0
 17 19  1  0  0  0  0
 17 20  1  0  0  0  0
 20 21  1  0  0  0  0
 20 22  1  0  0  0  0
 20 23  1  0  0  0  0
 23 24  1  0  0  0  0
 23 25  1  0  0  0  0
 23 26  1  0  0  0  0
 27 28  2  0  0  0  0
 27 29  1  0  0  0  0
 29 30  1  0  0  0  0
 29 31  1  0  0  0  0
 31 32  1  0  0  0  0
 31 33  1  0  0  0  0
 31 34  1  0  0  0  0
M  CHG  1  23   1
M  END
$$$$

  -OEChem-01062216093D

 34 33  0     1  0  0  0  0  0999 V2000
   -3.6070   -2.5462    1.2994 H   0  0  0  0  0  0  0  0  0  0  0  0
   -3.6670   -1.6095    0.7376 C   0  0  0  0  0  0  0  0  0  0  0  0
   -4.6381   -1.1460    0.9283 H   0  0  0  0  0  0  0  0  0  0  0  0
   -3.5800   -1.8373   -0.3275 H   0  0  0  0  0  0  0  0  0  0  0  0
   -2.5496   -0.6768    1.1639 C   0  0  0  0  0  0  0  0  0  0  0  0
   -1.9802   -0.8699    2.2204 O   0  0  0  0  0  0  0  0  0  0  0  0
   -2.4020    0.5477    0.5462 N   0  0  0  0  0  0  0  0  0  0  0  0
   -3.1440    0.6962   -0.1304 H   0  0  0  0  0  0  0  0  0  0  0  0
   -1.1189    1.1729    0.1358 C   0  0  1  0  0  0  0  0  0  0  0  0
   -1.1714    1.3552   -0.9423 H   0  0  0  0  0  0  0  0  0  0  0  0
   -1.0752    2.5225    0.8894 C   0  0  0  0  0  0  0  0  0  0  0  0
   -1.2051    2.3325    1.9610 H   0  0  0  0  0  0  0  0  0  0  0  0
   -0.0903    2.9850    0.7596 H   0  0  0  0  0  0  0  0  0  0  0  0
   -2.1309    3.5268    0.4026 C   0  0  0  0  0  0  0  0  0  0  0  0
   -1.9922    3.7143   -0.6681 H   0  0  0  0  0  0  0  0  0  0  0  0
   -3.1347    3.1136    0.5493 H   0  0  0  0  0  0  0  0  0  0  0  0
   -1.9925    4.8368    1.1884 C   0  0  0  0  0  0  0  0  0  0  0  0
   -2.1080    4.6275    2.2579 H   0  0  0  0  0  0  0  0  0  0  0  0
   -0.9895    5.2492    1.0308 H   0  0  0  0  0  0  0  0  0  0  0  0
   -3.0447    5.8492    0.7448 C   0  0  0  0  0  0  0  0  0  0  0  0
   -2.9221    6.0539   -0.3290 H   0  0  0  0  0  0  0  0  0  0  0  0
   -4.0462    5.4156    0.8816 H   0  0  0  0  0  0  0  0  0  0  0  0
   -2.8837    7.0817    1.5469 N   0  3  0  0  0  0  0  0  0  0  0  0
   -1.9479    7.4685    1.4074 H   0  0  0  0  0  0  0  0  0  0  0  0
   -3.5761    7.7794    1.2658 H   0  0  0  0  0  0  0  0  0  0  0  0
   -3.0087    6.8714    2.5392 H   0  0  0  0  0  0  0  0  0  0  0  0
    0.2765    0.5031    0.3470 C   0  0  0  0  0  0  0  0  0  0  0  0
    1.2336    1.0395   -0.1900 O   0  0  0  0  0  0  0  0  0  0  0  0
    0.5417   -0.8102    0.6508 N   0  0  0  0  0  0  0  0  0  0  0  0
    1.2505   -1.1539    0.0071 H   0  0  0  0  0  0  0  0  0  0  0  0
    0.9157   -1.0979    2.0331 C   0  0  0  0  0  0  0  0  0  0  0  0
    0.5027   -0.3565    2.7261 H   0  0  0  0  0  0  0  0  0  0  0  0
    0.5449   -2.0854    2.3258 H   0  0  0  0  0  0  0  0  0  0  0  0
    2.0054   -1.0888    2.1382 H   0  0  0  0  0  0  0  0  0  0  0  0
  1  2  1  0  0  0  0
  2  3  1  0  0  0  0
  2  4  1  0  0  0  0
  2  5  1  0  0  0  0
  5  6  2  0  0  0  0
  5  7  1  0  0  0  0
  7  8  1  0  0  0  0
  7  9  1  0  0  0  0
  9 10  1  0  0  0  0
  9 11  1  0  0  0  0
  9 27  1  0  0  0  0
 11 12  1  0  0  0  0
 11 13  1  0  0  0  0
 11 14  1  0  0  0  0
 14 15  1  0  0  0  0
 14 16  1  0  0  0  0
 14 17  1  0  0  0  0
 17 18  1  0  0  0  0
 17 19  1  0  0  0  0
 17 20  1  0  0  0  0
 20 21  1  0  0  0  0
 20 22  1  0  0  0  0
 20 23  1  0  0  0  0
 23 24  1  0  0  0  0
 23 25  1  0  0  0  0
 23 26  1  0  0  0  0
 27 28  2  0  0  0  0
 27 29  1  0  0  0  0
 29 30  1  0  0  0  0
 29 31  1  0  0  0  0
 31 32  1  0  0  0  0
 31 33  1  0  0  0  0
 31 34  1  0  0  0  0
M  CHG  1  23   1
M  END
$$$$

  -OEChem-01062216093D

 34 33  0     1  0  0  0  0  0999 V2000
   -4.2603   -2.1815    0.9529 H   0  0  0  0  0  0  0  0  0  0  0  0
   -4.1014   -1.1690    0.5692 C   0  0  0  0  0  0  0  0  0  0  0  0
   -4.8545   -0.5082    1.0048 H   0  0  0  0  0  0  0  0  0  0  0  0
   -4.2224   -1.1865   -0.5166 H   0  0  0  0  0  0  0  0  0  0  0  0
   -2.7103   -0.6844    0.9335 C   0  0  0  0  0  0  0  0  0  0  0  0
   -2.0361   -1.3629    1.6816 O   0  0  0  0  0  0  0  0  0  0  0  0
   -2.2907    0.5497    0.4668 N   0  0  0  0  0  0  0  0  0  0  0  0
   -2.9786    0.9897   -0.1354 H   0  0  0  0  0  0  0  0  0  0  0  0
   -0.9382    1.1761    0.4381 C   0  0  1  0  0  0  0  0  0  0  0  0
   -0.6939    1.3618   -0.6124 H   0  0  0  0  0  0  0  0  0  0  0  0
   -1.1173    2.5397    1.1613 C   0  0  0  0  0  0  0  0  0  0  0  0
   -1.5442    2.3583    2.1539 H   0  0  0  0  0  0  0  0  0  0  0  0
   -0.1458    3.0208    1.3124 H   0  0  0  0  0  0  0  0  0  0  0  0
   -1.9870    3.5409    0.3842 C   0  0  0  0  0  0  0  0  0  0  0  0
   -1.5447    3.7225   -0.6019 H   0  0  0  0  0  0  0  0  0  0  0  0
   -2.9915    3.1310    0.2368 H   0  0  0  0  0  0  0  0  0  0  0  0
   -2.0768    4.8565    1.1707 C   0  0  0  0  0  0  0  0  0  0  0  0
   -2.4932    4.6539    2.1639 H   0  0  0  0  0  0  0  0  0  0  0  0
   -1.0692    5.2667    1.3052 H   0  0  0  0  0  0  0  0  0  0  0  0
   -2.9540    5.8704    0.4407 C   0  0  0  0  0  0  0  0  0  0  0  0
   -2.5262    6.0705   -0.5528 H   0  0  0  0  0  0  0  0  0  0  0  0
   -3.9541    5.4404    0.2844 H   0  0  0  0  0  0  0  0  0  0  0  0
   -3.0261    7.1072    1.2496 N   0  3  0  0  0  0  0  0  0  0  0  0
   -2.0879    7.4910    1.3840 H   0  0  0  0  0  0  0  0  0  0  0  0
   -3.6043    7.8055    0.7769 H   0  0  0  0  0  0  0  0  0  0  0  0
   -3.4327    6.9041    2.1650 H   0  0  0  0  0  0  0  0  0  0  0  0
    0.3485    0.4634    0.9819 C   0  0  0  0  0  0  0  0  0  0  0  0
    1.3331    1.1461    1.2402 O   0  0  0  0  0  0  0  0  0  0  0  0
    0.5326   -0.9058    0.9784 N   0  0  0  0  0  0  0  0  0  0  0  0
   -0.3293   -1.4526    1.0084 H   0  0  0  0  0  0  0  0  0  0  0  0
    1.7465   -1.5472    1.4745 C   0  0  0  0  0  0  0  0  0  0  0  0
    1.9006   -1.3110    2.5327 H   0  0  0  0  0  0  0  0  0  0  0  0
    1.6680   -2.6337    1.3696 H   0  0  0  0  0  0  0  0  0  0  0  0
    2.6205   -1.2100    0.9072 H   0  0  0  0  0  0  0  0  0  0  0  0
  1  2  1  0  0  0  0
  2  3  1  0  0  0  0
  2  4  1  0  0  0  0
  2  5  1  0  0  0  0
  5  6  2  0  0  0  0
  5  7  1  0  0  0  0
  7  8  1  0  0  0  0
  7  9  1  0  0  0  0
  9 10  1  0  0  0  0
  9 11  1  0  0  0  0
  9 27  1  0  0  0  0
 11 12  1  0  0  0  0
 11 13  1  0  0  0  0
 11 14  1  0  0  0  0
 14 15  1  0  0  0  0
 14 16  1  0  0  0  0
 14 17  1  0  0  0  0
 17 18  1  0  0  0  0
 17 19  1  0  0  0  0
 17 20  1  0  0  0  0
 20 21  1  0  0  0  0
 20 22  1  0  0  0  0
 20 23  1  0  0  0  0
 23 24  1  0  0  0  0
 23 25  1  0  0  0  0
 23 26  1  0  0  0  0
 27 28  2  0  0  0  0
 27 29  1  0  0  0  0
 29 30  1  0  0  0  0
 29 31  1  0  0  0  0
 31 32  1  0  0  0  0
 31 33  1  0  0  0  0
 31 34  1  0  0  0  0
M  CHG  1  23   1
M  END
$$$$

  -OEChem-01062216093D

 34 33  0     1  0  0  0  0  0999 V2000
   -4.1920   -2.1795    1.0487 H   0  0  0  0  0  0  0  0  0  0  0  0
   -4.0487   -1.1682    0.6562 C   0  0  0  0  0  0  0  0  0  0  0  0
   -4.7470   -0.4963    1.1606 H   0  0  0  0  0  0  0  0  0  0  0  0
   -4.2664   -1.1763   -0.4145 H   0  0  0  0  0  0  0  0  0  0  0  0
   -2.6214   -0.7123    0.8955 C   0  0  0  0  0  0  0  0  0  0  0  0
   -1.8646   -1.4554    1.4865 O   0  0  0  0  0  0  0  0  0  0  0  0
   -2.2369    0.5401    0.4460 N   0  0  0  0  0  0  0  0  0  0  0  0
   -2.9718    1.0256   -0.0567 H   0  0  0  0  0  0  0  0  0  0  0  0
   -0.9011    1.1990    0.4314 C   0  0  1  0  0  0  0  0  0  0  0  0
   -0.6482    1.3896   -0.6160 H   0  0  0  0  0  0  0  0  0  0  0  0
   -1.0994    2.5612    1.1500 C   0  0  0  0  0  0  0  0  0  0  0  0
   -1.5213    2.3777    2.1445 H   0  0  0  0  0  0  0  0  0  0  0  0
   -0.1320    3.0530    1.2939 H   0  0  0  0  0  0  0  0  0  0  0  0
   -1.9783    3.5521    0.3700 C   0  0  0  0  0  0  0  0  0  0  0  0
   -1.5368    3.7380   -0.6155 H   0  0  0  0  0  0  0  0  0  0  0  0
   -2.9780    3.1313    0.2217 H   0  0  0  0  0  0  0  0  0  0  0  0
   -2.0833    4.8664    1.1573 C   0  0  0  0  0  0  0  0  0  0  0  0
   -2.4995    4.6580    2.1494 H   0  0  0  0  0  0  0  0  0  0  0  0
   -1.0803    5.2859    1.2944 H   0  0  0  0  0  0  0  0  0  0  0  0
   -2.9688    5.8753    0.4300 C   0  0  0  0  0  0  0  0  0  0  0  0
   -2.5432    6.0828   -0.5631 H   0  0  0  0  0  0  0  0  0  0  0  0
   -3.9654    5.4380    0.2721 H   0  0  0  0  0  0  0  0  0  0  0  0
   -3.0511    7.1082    1.2441 N   0  3  0  0  0  0  0  0  0  0  0  0
   -2.1173    7.5049    1.3709 H   0  0  0  0  0  0  0  0  0  0  0  0
   -3.6439    7.8000    0.7798 H   0  0  0  0  0  0  0  0  0  0  0  0
   -3.4458    6.8960    2.1628 H   0  0  0  0  0  0  0  0  0  0  0  0
    0.3740    0.4731    0.9826 C   0  0  0  0  0  0  0  0  0  0  0  0
    1.2583    1.1229    1.5291 O   0  0  0  0  0  0  0  0  0  0  0  0
    0.6596   -0.8439    0.6751 N   0  0  0  0  0  0  0  0  0  0  0  0
   -0.1712   -1.4214    0.5395 H   0  0  0  0  0  0  0  0  0  0  0  0
    1.8548   -1.5212    1.1692 C   0  0  0  0  0  0  0  0  0  0  0  0
    1.8555   -1.5482    2.2641 H   0  0  0  0  0  0  0  0  0  0  0  0
    1.8866   -2.5495    0.7963 H   0  0  0  0  0  0  0  0  0  0  0  0
    2.7596   -1.0060    0.8296 H   0  0  0  0  0  0  0  0  0  0  0  0
  1  2  1  0  0  0  0
  2  3  1  0  0  0  0
  2  4  1  0  0  0  0
  2  5  1  0  0  0  0
  5  6  2  0  0  0  0
  5  7  1  0  0  0  0
  7  8  1  0  0  0  0
  7  9  1  0  0  0  0
  9 10  1  0  0  0  0
  9 11  1  0  0  0  0
  9 27  1  0  0  0  0
 11 12  1  0  0  0  0
 11 13  1  0  0  0  0
 11 14  1  0  0  0  0
 14 15  1  0  0  0  0
 14 16  1  0  0  0  0
 14 17  1  0  0  0  0
 17 18  1  0  0  0  0
 17 19  1  0  0  0  0
 17 20  1  0  0  0  0
 20 21  1  0  0  0  0
 20 22  1  0  0  0  0
 20 23  1  0  0  0  0
 23 24  1  0  0  0  0
 23 25  1  0  0  0  0
 23 26  1  0  0  0  0
 27 28  2  0  0  0  0
 27 29  1  0  0  0  0
 29 30  1  0  0  0  0
 29 31  1  0  0  0  0
 31 32  1  0  0  0  0
 31 33  1  0  0  0  0
 31 34  1  0  0  0  0
M  CHG  1  23   1
M  END
$$$$

  -OEChem-01062216093D

 34 33  0     1  0  0  0  0  0999 V2000
   -4.0919   -2.1931    1.1426 H   0  0  0  0  0  0  0  0  0  0  0  0
   -3.9799   -1.1840    0.7341 C   0  0  0  0  0  0  0  0  0  0  0  0
   -4.6238   -0.5064    1.2993 H   0  0  0  0  0  0  0  0  0  0  0  0
   -4.2963   -1.1935   -0.3116 H   0  0  0  0  0  0  0  0  0  0  0  0
   -2.5334   -0.7375    0.8363 C   0  0  0  0  0  0  0  0  0  0  0  0
   -1.7090   -1.5210    1.2627 O   0  0  0  0  0  0  0  0  0  0  0  0
   -2.1933    0.5315    0.3969 N   0  0  0  0  0  0  0  0  0  0  0  0
   -2.9736    1.0557    0.0165 H   0  0  0  0  0  0  0  0  0  0  0  0
   -0.8759    1.2217    0.4090 C   0  0  1  0  0  0  0  0  0  0  0  0
   -0.6044    1.4237   -0.6316 H   0  0  0  0  0  0  0  0  0  0  0  0
   -1.0892    2.5768    1.1320 C   0  0  0  0  0  0  0  0  0  0  0  0
   -1.5153    2.3863    2.1233 H   0  0  0  0  0  0  0  0  0  0  0  0
   -0.1209    3.0671    1.2806 H   0  0  0  0  0  0  0  0  0  0  0  0
   -1.9697    3.5663    0.3526 C   0  0  0  0  0  0  0  0  0  0  0  0
   -1.5237    3.7622   -0.6291 H   0  0  0  0  0  0  0  0  0  0  0  0
   -2.9653    3.1392    0.1951 H   0  0  0  0  0  0  0  0  0  0  0  0
   -2.0877    4.8741    1.1490 C   0  0  0  0  0  0  0  0  0  0  0  0
   -2.5070    4.6558    2.1378 H   0  0  0  0  0  0  0  0  0  0  0  0
   -1.0877    5.2989    1.2936 H   0  0  0  0  0  0  0  0  0  0  0  0
   -2.9753    5.8826    0.4239 C   0  0  0  0  0  0  0  0  0  0  0  0
   -2.5460    6.0998   -0.5653 H   0  0  0  0  0  0  0  0  0  0  0  0
   -3.9680    5.4397    0.2578 H   0  0  0  0  0  0  0  0  0  0  0  0
   -3.0704    7.1087    1.2467 N   0  3  0  0  0  0  0  0  0  0  0  0
   -2.1405    7.5127    1.3787 H   0  0  0  0  0  0  0  0  0  0  0  0
   -3.6680    7.7986    0.7860 H   0  0  0  0  0  0  0  0  0  0  0  0
   -3.4653    6.8867    2.1629 H   0  0  0  0  0  0  0  0  0  0  0  0
    0.3779    0.4850    0.9861 C   0  0  0  0  0  0  0  0  0  0  0  0
    1.1071    1.0418    1.7998 O   0  0  0  0  0  0  0  0  0  0  0  0
    0.8159   -0.7033    0.4310 N   0  0  0  0  0  0  0  0  0  0  0  0
    0.0591   -1.2833    0.0707 H   0  0  0  0  0  0  0  0  0  0  0  0
    1.9880   -1.4070    0.9432 C   0  0  0  0  0  0  0  0  0  0  0  0
    1.8349   -1.6957    1.9885 H   0  0  0  0  0  0  0  0  0  0  0  0
    2.1721   -2.3122    0.3565 H   0  0  0  0  0  0  0  0  0  0  0  0
    2.8782   -0.7723    0.8808 H   0  0  0  0  0  0  0  0  0  0  0  0
  1  2  1  0  0  0  0
  2  3  1  0  0  0  0
  2  4  1  0  0  0  0
  2  5  1  0  0  0  0
  5  6  2  0  0  0  0
  5  7  1  0  0  0  0
  7  8  1  0  0  0  0
  7  9  1  0  0  0  0
  9 10  1  0  0  0  0
  9 11  1  0  0  0  0
  9 27  1  0  0  0  0
 11 12  1  0  0  0  0
 11 13  1  0  0  0  0
 11 14  1  0  0  0  0
 14 15  1  0  0  0  0
 14 16  1  0  0  0  0
 14 17  1  0  0  0  0
 17 18  1  0  0  0  0
 17 19  1  0  0  0  0
 17 20  1  0  0  0  0
 20 21  1  0  0  0  0
 20 22  1  0  0  0  0
 20 23  1  0  0  0  0
 23 24  1  0  0  0  0
 23 25  1  0  0  0  0
 23 26  1  0  0  0  0
 27 28  2  0  0  0  0
 27 29  1  0  0  0  0
 29 30  1  0  0  0  0
 29 31  1  0  0  0  0
 31 32  1  0  0  0  0
 31 33  1  0  0  0  0
 31 34  1  0  0  0  0
M  CHG  1  23   1
M  END
$$$$

  -OEChem-01062216093D

 34 33  0     1  0  0  0  0  0999 V2000
   -3.9755   -2.2137    1.2197 H   0  0  0  0  0  0  0  0  0  0  0  0
   -3.9056   -1.2034    0.8053 C   0  0  0  0  0  0  0  0  0  0  0  0
   -4.4955   -0.5293    1.4305 H   0  0  0  0  0  0  0  0  0  0  0  0
   -4.3182   -1.2109   -0.2064 H   0  0  0  0  0  0  0  0  0  0  0  0
   -2.4573   -0.7529    0.7730 C   0  0  0  0  0  0  0  0  0  0  0  0
   -1.5883   -1.5547    1.0541 O   0  0  0  0  0  0  0  0  0  0  0  0
   -2.1616    0.5297    0.3392 N   0  0  0  0  0  0  0  0  0  0  0  0
   -2.9749    1.0791    0.0856 H   0  0  0  0  0  0  0  0  0  0  0  0
   -0.8592    1.2425    0.3815 C   0  0  1  0  0  0  0  0  0  0  0  0
   -0.5680    1.4594   -0.6508 H   0  0  0  0  0  0  0  0  0  0  0  0
   -1.0839    2.5870    1.1155 C   0  0  0  0  0  0  0  0  0  0  0  0
   -1.5221    2.3848    2.0995 H   0  0  0  0  0  0  0  0  0  0  0  0
   -0.1134    3.0686    1.2823 H   0  0  0  0  0  0  0  0  0  0  0  0
   -1.9610    3.5803    0.3377 C   0  0  0  0  0  0  0  0  0  0  0  0
   -1.5063    3.7875   -0.6375 H   0  0  0  0  0  0  0  0  0  0  0  0
   -2.9527    3.1497    0.1657 H   0  0  0  0  0  0  0  0  0  0  0  0
   -2.0933    4.8804    1.1443 C   0  0  0  0  0  0  0  0  0  0  0  0
   -2.5220    4.6517    2.1266 H   0  0  0  0  0  0  0  0  0  0  0  0
   -1.0971    5.3089    1.3034 H   0  0  0  0  0  0  0  0  0  0  0  0
   -2.9788    5.8904    0.4184 C   0  0  0  0  0  0  0  0  0  0  0  0
   -2.5399    6.1178   -0.5644 H   0  0  0  0  0  0  0  0  0  0  0  0
   -3.9675    5.4440    0.2378 H   0  0  0  0  0  0  0  0  0  0  0  0
   -3.0889    7.1095    1.2500 N   0  3  0  0  0  0  0  0  0  0  0  0
   -2.1621    7.5152    1.3985 H   0  0  0  0  0  0  0  0  0  0  0  0
   -3.6822    7.8015    0.7869 H   0  0  0  0  0  0  0  0  0  0  0  0
   -3.4961    6.8786    2.1586 H   0  0  0  0  0  0  0  0  0  0  0  0
    0.3727    0.4991    0.9855 C   0  0  0  0  0  0  0  0  0  0  0  0
    0.9112    0.9121    2.0071 O   0  0  0  0  0  0  0  0  0  0  0  0
    1.0016   -0.4962    0.2597 N   0  0  0  0  0  0  0  0  0  0  0  0
    0.3864   -1.0002   -0.3745 H   0  0  0  0  0  0  0  0  0  0  0  0
    2.1369   -1.2371    0.8006 C   0  0  0  0  0  0  0  0  0  0  0  0
    1.8482   -1.7642    1.7165 H   0  0  0  0  0  0  0  0  0  0  0  0
    2.4897   -1.9745    0.0729 H   0  0  0  0  0  0  0  0  0  0  0  0
    2.9664   -0.5598    1.0309 H   0  0  0  0  0  0  0  0  0  0  0  0
  1  2  1  0  0  0  0
  2  3  1  0  0  0  0
  2  4  1  0  0  0  0
  2  5  1  0  0  0  0
  5  6  2  0  0  0  0
  5  7  1  0  0  0  0
  7  8  1  0  0  0  0
  7  9  1  0  0  0  0
  9 10  1  0  0  0  0
  9 11  1  0  0  0  0
  9 27  1  0  0  0  0
 11 12  1  0  0  0  0
 11 13  1  0  0  0  0
 11 14  1  0  0  0  0
 14 15  1  0  0  0  0
 14 16  1  0  0  0  0
 14 17  1  0  0  0  0
 17 18  1  0  0  0  0
 17 19  1  0  0  0  0
 17 20  1  0  0  0  0
 20 21  1  0  0  0  0
 20 22  1  0  0  0  0
 20 23  1  0  0  0  0
 23 24  1  0  0  0  0
 23 25  1  0  0  0  0
 23 26  1  0  0  0  0
 27 28  2  0  0  0  0
 27 29  1  0  0  0  0
 29 30  1  0  0  0  0
 29 31  1  0  0  0  0
 31 32  1  0  0  0  0
 31 33  1  0  0  0  0
 31 34  1  0  0  0  0
M  CHG  1  23   1
M  END
$$$$

  -OEChem-01062216093D

 34 33  0     1  0  0  0  0  0999 V2000
   -3.8947   -2.2226    1.2738 H   0  0  0  0  0  0  0  0  0  0  0  0
   -3.8578   -1.2107    0.8591 C   0  0  0  0  0  0  0  0  0  0  0  0
   -4.3962   -0.5392    1.5316 H   0  0  0  0  0  0  0  0  0  0  0  0
   -4.3485   -1.2139   -0.1172 H   0  0  0  0  0  0  0  0  0  0  0  0
   -2.4161   -0.7613    0.7156 C   0  0  0  0  0  0  0  0  0  0  0  0
   -1.5275   -1.5754    0.8790 O   0  0  0  0  0  0  0  0  0  0  0  0
   -2.1496    0.5284    0.2831 N   0  0  0  0  0  0  0  0  0  0  0  0
   -2.9783    1.0924    0.1339 H   0  0  0  0  0  0  0  0  0  0  0  0
   -0.8551    1.2502    0.3527 C   0  0  1  0  0  0  0  0  0  0  0  0
   -0.5474    1.4788   -0.6723 H   0  0  0  0  0  0  0  0  0  0  0  0
   -1.0859    2.5848    1.0995 C   0  0  0  0  0  0  0  0  0  0  0  0
   -1.5373    2.3726    2.0756 H   0  0  0  0  0  0  0  0  0  0  0  0
   -0.1138    3.0560    1.2854 H   0  0  0  0  0  0  0  0  0  0  0  0
   -1.9552    3.5864    0.3239 C   0  0  0  0  0  0  0  0  0  0  0  0
   -1.4899    3.8033   -0.6441 H   0  0  0  0  0  0  0  0  0  0  0  0
   -2.9445    3.1565    0.1363 H   0  0  0  0  0  0  0  0  0  0  0  0
   -2.0974    4.8787    1.1411 C   0  0  0  0  0  0  0  0  0  0  0  0
   -2.5369    4.6401    2.1164 H   0  0  0  0  0  0  0  0  0  0  0  0
   -1.1033    5.3060    1.3153 H   0  0  0  0  0  0  0  0  0  0  0  0
   -2.9760    5.8951    0.4154 C   0  0  0  0  0  0  0  0  0  0  0  0
   -2.5269    6.1329   -0.5603 H   0  0  0  0  0  0  0  0  0  0  0  0
   -3.9624    5.4498    0.2195 H   0  0  0  0  0  0  0  0  0  0  0  0
   -3.0965    7.1064    1.2569 N   0  3  0  0  0  0  0  0  0  0  0  0
   -2.1717    7.5101    1.4219 H   0  0  0  0  0  0  0  0  0  0  0  0
   -3.6829    7.8032    0.7920 H   0  0  0  0  0  0  0  0  0  0  0  0
   -3.5164    6.8672    2.1576 H   0  0  0  0  0  0  0  0  0  0  0  0
    0.3578    0.5016    0.9813 C   0  0  0  0  0  0  0  0  0  0  0  0
    0.7070    0.7531    2.1298 O   0  0  0  0  0  0  0  0  0  0  0  0
    1.1902   -0.2595    0.1806 N   0  0  0  0  0  0  0  0  0  0  0  0
    0.7548   -0.6384   -0.6558 H   0  0  0  0  0  0  0  0  0  0  0  0
    2.3193   -0.9991    0.7362 C   0  0  0  0  0  0  0  0  0  0  0  0
    1.9725   -1.7243    1.4805 H   0  0  0  0  0  0  0  0  0  0  0  0
    2.8458   -1.5396   -0.0563 H   0  0  0  0  0  0  0  0  0  0  0  0
    3.0295   -0.3168    1.2157 H   0  0  0  0  0  0  0  0  0  0  0  0
  1  2  1  0  0  0  0
  2  3  1  0  0  0  0
  2  4  1  0  0  0  0
  2  5  1  0  0  0  0
  5  6  2  0  0  0  0
  5  7  1  0  0  0  0
  7  8  1  0  0  0  0
  7  9  1  0  0  0  0
  9 10  1  0  0  0  0
  9 11  1  0  0  0  0
  9 27  1  0  0  0  0
 11 12  1  0  0  0  0
 11 13  1  0  0  0  0
 11 14  1  0  0  0  0
 14 15  1  0  0  0  0
 14 16  1  0  0  0  0
 14 17  1  0  0  0  0
 17 18  1  0  0  0  0
 17 19  1  0  0  0  0
 17 20  1  0  0  0  0
 20 21  1  0  0  0  0
 20 22  1  0  0  0  0
 20 23  1  0  0  0  0
 23 24  1  0  0  0  0
 23 25  1  0  0  0  0
 23 26  1  0  0  0  0
 27 28  2  0  0  0  0
 27 29  1  0  0  0  0
 29 30  1  0  0  0  0
 29 31  1  0  0  0  0
 31 32  1  0  0  0  0
 31 33  1  0  0  0  0
 31 34  1  0  0  0  0
M  CHG  1  23   1
M  END
$$$$

  -OEChem-01062216093D

 34 33  0     1  0  0  0  0  0999 V2000
   -3.8392   -2.2285    1.3098 H   0  0  0  0  0  0  0  0  0  0  0  0
   -3.8267   -1.2123    0.9042 C   0  0  0  0  0  0  0  0  0  0  0  0
   -4.3110   -0.5457    1.6214 H   0  0  0  0  0  0  0  0  0  0  0  0
   -4.3862   -1.2021   -0.0343 H   0  0  0  0  0  0  0  0  0  0  0  0
   -2.3963   -0.7687    0.6625 C   0  0  0  0  0  0  0  0  0  0  0  0
   -1.5050   -1.5950    0.7214 O   0  0  0  0  0  0  0  0  0  0  0  0
   -2.1488    0.5252    0.2311 N   0  0  0  0  0  0  0  0  0  0  0  0
   -2.9824    1.0967    0.1615 H   0  0  0  0  0  0  0  0  0  0  0  0
   -0.8576    1.2486    0.3247 C   0  0  1  0  0  0  0  0  0  0  0  0
   -0.5371    1.4857   -0.6940 H   0  0  0  0  0  0  0  0  0  0  0  0
   -1.0910    2.5742    1.0839 C   0  0  0  0  0  0  0  0  0  0  0  0
   -1.5560    2.3524    2.0513 H   0  0  0  0  0  0  0  0  0  0  0  0
   -0.1179    3.0357    1.2888 H   0  0  0  0  0  0  0  0  0  0  0  0
   -1.9504    3.5870    0.3110 C   0  0  0  0  0  0  0  0  0  0  0  0
   -1.4751    3.8134   -0.6500 H   0  0  0  0  0  0  0  0  0  0  0  0
   -2.9387    3.1619    0.1079 H   0  0  0  0  0  0  0  0  0  0  0  0
   -2.0978    4.8714    1.1402 C   0  0  0  0  0  0  0  0  0  0  0  0
   -2.5476    4.6246    2.1087 H   0  0  0  0  0  0  0  0  0  0  0  0
   -1.1047    5.2953    1.3285 H   0  0  0  0  0  0  0  0  0  0  0  0
   -2.9673    5.8961    0.4145 C   0  0  0  0  0  0  0  0  0  0  0  0
   -2.5070    6.1412   -0.5541 H   0  0  0  0  0  0  0  0  0  0  0  0
   -3.9520    5.4537    0.2036 H   0  0  0  0  0  0  0  0  0  0  0  0
   -3.0964    7.1012    1.2640 N   0  3  0  0  0  0  0  0  0  0  0  0
   -2.1730    7.5001    1.4474 H   0  0  0  0  0  0  0  0  0  0  0  0
   -3.6731    7.8037    0.7953 H   0  0  0  0  0  0  0  0  0  0  0  0
   -3.5323    6.8564    2.1558 H   0  0  0  0  0  0  0  0  0  0  0  0
    0.3412    0.4971    0.9725 C   0  0  0  0  0  0  0  0  0  0  0  0
    0.5176    0.5764    2.1834 O   0  0  0  0  0  0  0  0  0  0  0  0
    1.3596   -0.0025    0.1804 N   0  0  0  0  0  0  0  0  0  0  0  0
    1.1026   -0.2295   -0.7758 H   0  0  0  0  0  0  0  0  0  0  0  0
    2.5021   -0.7077    0.7536 C   0  0  0  0  0  0  0  0  0  0  0  0
    2.1675   -1.5877    1.3140 H   0  0  0  0  0  0  0  0  0  0  0  0
    3.1804   -1.0390   -0.0389 H   0  0  0  0  0  0  0  0  0  0  0  0
    3.0599   -0.0516    1.4305 H   0  0  0  0  0  0  0  0  0  0  0  0
  1  2  1  0  0  0  0
  2  3  1  0  0  0  0
  2  4  1  0  0  0  0
  2  5  1  0  0  0  0
  5  6  2  0  0  0  0
  5  7  1  0  0  0  0
  7  8  1  0  0  0  0
  7  9  1  0  0  0  0
  9 10  1  0  0  0  0
  9 11  1  0  0  0  0
  9 27  1  0  0  0  0
 11 12  1  0  0  0  0
 11 13  1  0  0  0  0
 11 14  1  0  0  0  0
 14 15  1  0  0  0  0
 14 16  1  0  0  0  0
 14 17  1  0  0  0  0
 17 18  1  0  0  0  0
 17 19  1  0  0  0  0
 17 20  1  0  0  0  0
 20 21  1  0  0  0  0
 20 22  1  0  0  0  0
 20 23  1  0  0  0  0
 23 24  1  0  0  0  0
 23 25  1  0  0  0  0
 23 26  1  0  0  0  0
 27 28  2  0  0  0  0
 27 29  1  0  0  0  0
 29 30  1  0  0  0  0
 29 31  1  0  0  0  0
 31 32  1  0  0  0  0
 31 33  1  0  0  0  0
 31 34  1  0  0  0  0
M  CHG  1  23   1
M  END
$$$$

  -OEChem-01062216093D

 34 33  0     1  0  0  0  0  0999 V2000
   -3.7869   -2.2369    1.3077 H   0  0  0  0  0  0  0  0  0  0  0  0
   -3.7902   -1.2017    0.9536 C   0  0  0  0  0  0  0  0  0  0  0  0
   -4.1923   -0.5646    1.7447 H   0  0  0  0  0  0  0  0  0  0  0  0
   -4.4326   -1.1343    0.0725 H   0  0  0  0  0  0  0  0  0  0  0  0
   -2.3790   -0.7701    0.6033 C   0  0  0  0  0  0  0  0  0  0  0  0
   -1.4995   -1.6096    0.5412 O   0  0  0  0  0  0  0  0  0  0  0  0
   -2.1470    0.5279    0.1766 N   0  0  0  0  0  0  0  0  0  0  0  0
   -2.9800    1.1044    0.1887 H   0  0  0  0  0  0  0  0  0  0  0  0
   -0.8570    1.2490    0.2949 C   0  0  1  0  0  0  0  0  0  0  0  0
   -0.5242    1.4949   -0.7178 H   0  0  0  0  0  0  0  0  0  0  0  0
   -1.0932    2.5627    1.0701 C   0  0  0  0  0  0  0  0  0  0  0  0
   -1.5699    2.3295    2.0292 H   0  0  0  0  0  0  0  0  0  0  0  0
   -0.1207    3.0173    1.2919 H   0  0  0  0  0  0  0  0  0  0  0  0
   -1.9428    3.5846    0.2986 C   0  0  0  0  0  0  0  0  0  0  0  0
   -1.4569    3.8201   -0.6550 H   0  0  0  0  0  0  0  0  0  0  0  0
   -2.9292    3.1620    0.0802 H   0  0  0  0  0  0  0  0  0  0  0  0
   -2.0995    4.8608    1.1373 C   0  0  0  0  0  0  0  0  0  0  0  0
   -2.5605    4.6056    2.0981 H   0  0  0  0  0  0  0  0  0  0  0  0
   -1.1087    5.2827    1.3407 H   0  0  0  0  0  0  0  0  0  0  0  0
   -2.9603    5.8909    0.4097 C   0  0  0  0  0  0  0  0  0  0  0  0
   -2.4887    6.1442   -0.5513 H   0  0  0  0  0  0  0  0  0  0  0  0
   -3.9425    5.4504    0.1837 H   0  0  0  0  0  0  0  0  0  0  0  0
   -3.0989    7.0879    1.2686 N   0  3  0  0  0  0  0  0  0  0  0  0
   -2.1771    7.4807    1.4719 H   0  0  0  0  0  0  0  0  0  0  0  0
   -3.6639    7.7979    0.7970 H   0  0  0  0  0  0  0  0  0  0  0  0
   -3.5513    6.8366    2.1502 H   0  0  0  0  0  0  0  0  0  0  0  0
    0.3283    0.4919    0.9574 C   0  0  0  0  0  0  0  0  0  0  0  0
    0.3526    0.3887    2.1790 O   0  0  0  0  0  0  0  0  0  0  0  0
    1.4963    0.2644    0.2510 N   0  0  0  0  0  0  0  0  0  0  0  0
    1.4074    0.2204   -0.7597 H   0  0  0  0  0  0  0  0  0  0  0  0
    2.6435   -0.4036    0.8585 C   0  0  0  0  0  0  0  0  0  0  0  0
    2.3595   -1.3965    1.2243 H   0  0  0  0  0  0  0  0  0  0  0  0
    3.4471   -0.5216    0.1251 H   0  0  0  0  0  0  0  0  0  0  0  0
    3.0291    0.1822    1.6997 H   0  0  0  0  0  0  0  0  0  0  0  0
  1  2  1  0  0  0  0
  2  3  1  0  0  0  0
  2  4  1  0  0  0  0
  2  5  1  0  0  0  0
  5  6  2  0  0  0  0
  5  7  1  0  0  0  0
  7  8  1  0  0  0  0
  7  9  1  0  0  0  0
  9 10  1  0  0  0  0
  9 11  1  0  0  0  0
  9 27  1  0  0  0  0
 11 12  1  0  0  0  0
 11 13  1  0  0  0  0
 11 14  1  0  0  0  0
 14 15  1  0  0  0  0
 14 16  1  0  0  0  0
 14 17  1  0  0  0  0
 17 18  1  0  0  0  0
 17 19  1  0  0  0  0
 17 20  1  0  0  0  0
 20 21  1  0  0  0  0
 20 22  1  0  0  0  0
 20 23  1  0  0  0  0
 23 24  1  0  0  0  0
 23 25  1  0  0  0  0
 23 26  1  0  0  0  0
 27 28  2  0  0  0  0
 27 29  1  0  0  0  0
 29 30  1  0  0  0  0
 29 31  1  0  0  0  0
 31 32  1  0  0  0  0
 31 33  1  0  0  0  0
 31 34  1  0  0  0  0
M  CHG  1  23   1
M  END
$$$$

  -OEChem-01062216093D

 34 33  0     1  0  0  0  0  0999 V2000
   -3.7522   -2.2335    1.3019 H   0  0  0  0  0  0  0  0  0  0  0  0
   -3.7585   -1.1823    0.9987 C   0  0  0  0  0  0  0  0  0  0  0  0
   -4.0700   -0.5759    1.8521 H   0  0  0  0  0  0  0  0  0  0  0  0
   -4.4749   -1.0556    0.1838 H   0  0  0  0  0  0  0  0  0  0  0  0
   -2.3718   -0.7672    0.5457 C   0  0  0  0  0  0  0  0  0  0  0  0
   -1.5184   -1.6192    0.3746 O   0  0  0  0  0  0  0  0  0  0  0  0
   -2.1453    0.5337    0.1268 N   0  0  0  0  0  0  0  0  0  0  0  0
   -2.9712    1.1145    0.2051 H   0  0  0  0  0  0  0  0  0  0  0  0
   -0.8524    1.2447    0.2685 C   0  0  1  0  0  0  0  0  0  0  0  0
   -0.5065    1.4992   -0.7376 H   0  0  0  0  0  0  0  0  0  0  0  0
   -1.0924    2.5462    1.0613 C   0  0  0  0  0  0  0  0  0  0  0  0
   -1.5810    2.3003    2.0113 H   0  0  0  0  0  0  0  0  0  0  0  0
   -0.1216    2.9946    1.3022 H   0  0  0  0  0  0  0  0  0  0  0  0
   -1.9306    3.5792    0.2912 C   0  0  0  0  0  0  0  0  0  0  0  0
   -1.4321    3.8240   -0.6536 H   0  0  0  0  0  0  0  0  0  0  0  0
   -2.9145    3.1604    0.0544 H   0  0  0  0  0  0  0  0  0  0  0  0
   -2.0988    4.8474    1.1391 C   0  0  0  0  0  0  0  0  0  0  0  0
   -2.5744    4.5840    2.0904 H   0  0  0  0  0  0  0  0  0  0  0  0
   -1.1113    5.2681    1.3601 H   0  0  0  0  0  0  0  0  0  0  0  0
   -2.9497    5.8822    0.4057 C   0  0  0  0  0  0  0  0  0  0  0  0
   -2.4647    6.1423   -0.5469 H   0  0  0  0  0  0  0  0  0  0  0  0
   -3.9279    5.4423    0.1622 H   0  0  0  0  0  0  0  0  0  0  0  0
   -3.1031    7.0738    1.2697 N   0  3  0  0  0  0  0  0  0  0  0  0
   -2.1855    7.4681    1.4877 H   0  0  0  0  0  0  0  0  0  0  0  0
   -3.6642    7.7849    0.7951 H   0  0  0  0  0  0  0  0  0  0  0  0
   -3.5666    6.8158    2.1435 H   0  0  0  0  0  0  0  0  0  0  0  0
    0.3208    0.4788    0.9404 C   0  0  0  0  0  0  0  0  0  0  0  0
    0.2277    0.1999    2.1307 O   0  0  0  0  0  0  0  0  0  0  0  0
    1.5863    0.5180    0.3806 N   0  0  0  0  0  0  0  0  0  0  0  0
    1.6322    0.6546   -0.6246 H   0  0  0  0  0  0  0  0  0  0  0  0
    2.7381   -0.0971    1.0344 C   0  0  0  0  0  0  0  0  0  0  0  0
    2.5507   -1.1606    1.2191 H   0  0  0  0  0  0  0  0  0  0  0  0
    3.6269   -0.0073    0.4025 H   0  0  0  0  0  0  0  0  0  0  0  0
    2.9462    0.3930    1.9915 H   0  0  0  0  0  0  0  0  0  0  0  0
  1  2  1  0  0  0  0
  2  3  1  0  0  0  0
  2  4  1  0  0  0  0
  2  5  1  0  0  0  0
  5  6  2  0  0  0  0
  5  7  1  0  0  0  0
  7  8  1  0  0  0  0
  7  9  1  0  0  0  0
  9 10  1  0  0  0  0
  9 11  1  0  0  0  0
  9 27  1  0  0  0  0
 11 12  1  0  0  0  0
 11 13  1  0  0  0  0
 11 14  1  0  0  0  0
 14 15  1  0  0  0  0
 14 16  1  0  0  0  0
 14 17  1  0  0  0  0
 17 18  1  0  0  0  0
 17 19  1  0  0  0  0
 17 20  1  0  0  0  0
 20 21  1  0  0  0  0
 20 22  1  0  0  0  0
 20 23  1  0  0  0  0
 23 24  1  0  0  0  0
 23 25  1  0  0  0  0
 23 26  1  0  0  0  0
 27 28  2  0  0  0  0
 27 29  1  0  0  0  0
 29 30  1  0  0  0  0
 29 31  1  0  0  0  0
 31 32  1  0  0  0  0
 31 33  1  0  0  0  0
 31 34  1  0  0  0  0
M  CHG  1  23   1
M  END
$$$$

  -OEChem-01062216093D

 34 33  0     1  0  0  0  0  0999 V2000
   -3.7276   -2.2121    1.3392 H   0  0  0  0  0  0  0  0  0  0  0  0
   -3.7399   -1.1620    1.0325 C   0  0  0  0  0  0  0  0  0  0  0  0
   -3.9985   -0.5499    1.8996 H   0  0  0  0  0  0  0  0  0  0  0  0
   -4.4976   -1.0306    0.2566 H   0  0  0  0  0  0  0  0  0  0  0  0
   -2.3758   -0.7635    0.5032 C   0  0  0  0  0  0  0  0  0  0  0  0
   -1.5584   -1.6263    0.2363 O   0  0  0  0  0  0  0  0  0  0  0  0
   -2.1452    0.5385    0.0928 N   0  0  0  0  0  0  0  0  0  0  0  0
   -2.9612    1.1248    0.2172 H   0  0  0  0  0  0  0  0  0  0  0  0
   -0.8456    1.2346    0.2492 C   0  0  1  0  0  0  0  0  0  0  0  0
   -0.4935    1.4948   -0.7532 H   0  0  0  0  0  0  0  0  0  0  0  0
   -1.0883    2.5265    1.0565 C   0  0  0  0  0  0  0  0  0  0  0  0
   -1.5873    2.2705    1.9984 H   0  0  0  0  0  0  0  0  0  0  0  0
   -0.1200    2.9714    1.3131 H   0  0  0  0  0  0  0  0  0  0  0  0
   -1.9163    3.5692    0.2882 C   0  0  0  0  0  0  0  0  0  0  0  0
   -1.4063    3.8217   -0.6485 H   0  0  0  0  0  0  0  0  0  0  0  0
   -2.8979    3.1549    0.0355 H   0  0  0  0  0  0  0  0  0  0  0  0
   -2.0931    4.8310    1.1440 C   0  0  0  0  0  0  0  0  0  0  0  0
   -2.5808    4.5612    2.0875 H   0  0  0  0  0  0  0  0  0  0  0  0
   -1.1083    5.2496    1.3806 H   0  0  0  0  0  0  0  0  0  0  0  0
   -2.9348    5.8699    0.4054 C   0  0  0  0  0  0  0  0  0  0  0  0
   -2.4374    6.1343   -0.5396 H   0  0  0  0  0  0  0  0  0  0  0  0
   -3.9093    5.4300    0.1466 H   0  0  0  0  0  0  0  0  0  0  0  0
   -3.1020    7.0586    1.2707 N   0  3  0  0  0  0  0  0  0  0  0  0
   -2.1887    7.4585    1.4965 H   0  0  0  0  0  0  0  0  0  0  0  0
   -3.6638    7.7670    0.7927 H   0  0  0  0  0  0  0  0  0  0  0  0
   -3.5711    6.7962    2.1402 H   0  0  0  0  0  0  0  0  0  0  0  0
    0.3234    0.4620    0.9227 C   0  0  0  0  0  0  0  0  0  0  0  0
    0.1529    0.0184    2.0527 O   0  0  0  0  0  0  0  0  0  0  0  0
    1.6278    0.7489    0.5547 N   0  0  0  0  0  0  0  0  0  0  0  0
    1.7717    1.0613   -0.4005 H   0  0  0  0  0  0  0  0  0  0  0  0
    2.7769    0.1986    1.2691 C   0  0  0  0  0  0  0  0  0  0  0  0
    2.7229   -0.8952    1.2975 H   0  0  0  0  0  0  0  0  0  0  0  0
    3.7078    0.4862    0.7705 H   0  0  0  0  0  0  0  0  0  0  0  0
    2.8071    0.5744    2.2973 H   0  0  0  0  0  0  0  0  0  0  0  0
  1  2  1  0  0  0  0
  2  3  1  0  0  0  0
  2  4  1  0  0  0  0
  2  5  1  0  0  0  0
  5  6  2  0  0  0  0
  5  7  1  0  0  0  0
  7  8  1  0  0  0  0
  7  9  1  0  0  0  0
  9 10  1  0  0  0  0
  9 11  1  0  0  0  0
  9 27  1  0  0  0  0
 11 12  1  0  0  0  0
 11 13  1  0  0  0  0
 11 14  1  0  0  0  0
 14 15  1  0  0  0  0
 14 16  1  0  0  0  0
 14 17  1  0  0  0  0
 17 18  1  0  0  0  0
 17 19  1  0  0  0  0
 17 20  1  0  0  0  0
 20 21  1  0  0  0  0
 20 22  1  0  0  0  0
 20 23  1  0  0  0  0
 23 24  1  0  0  0  0
 23 25  1  0  0  0  0
 23 26  1  0  0  0  0
 27 28  2  0  0  0  0
 27 29  1  0  0  0  0
 29 30  1  0  0  0  0
 29 31  1  0  0  0  0
 31 32  1  0  0  0  0
 31 33  1  0  0  0  0
 31 34  1  0  0  0  0
M  CHG  1  23   1
M  END
$$$$

  -OEChem-01062216093D

 34 33  0     1  0  0  0  0  0999 V2000
   -3.7190   -2.1937    1.3419 H   0  0  0  0  0  0  0  0  0  0  0  0
   -3.7237   -1.1372    1.0580 C   0  0  0  0  0  0  0  0  0  0  0  0
   -3.9317   -0.5390    1.9477 H   0  0  0  0  0  0  0  0  0  0  0  0
   -4.5113   -0.9746    0.3189 H   0  0  0  0  0  0  0  0  0  0  0  0
   -2.3760   -0.7550    0.4779 C   0  0  0  0  0  0  0  0  0  0  0  0
   -1.6043   -1.6278    0.1218 O   0  0  0  0  0  0  0  0  0  0  0  0
   -2.1332    0.5477    0.0786 N   0  0  0  0  0  0  0  0  0  0  0  0
   -2.9387    1.1402    0.2360 H   0  0  0  0  0  0  0  0  0  0  0  0
   -0.8259    1.2307    0.2410 C   0  0  1  0  0  0  0  0  0  0  0  0
   -0.4711    1.4965   -0.7592 H   0  0  0  0  0  0  0  0  0  0  0  0
   -1.0779    2.5163    1.0592 C   0  0  0  0  0  0  0  0  0  0  0  0
   -1.5818    2.2504    1.9954 H   0  0  0  0  0  0  0  0  0  0  0  0
   -0.1155    2.9662    1.3274 H   0  0  0  0  0  0  0  0  0  0  0  0
   -1.9030    3.5628    0.2907 C   0  0  0  0  0  0  0  0  0  0  0  0
   -1.3855    3.8223   -0.6397 H   0  0  0  0  0  0  0  0  0  0  0  0
   -2.8810    3.1471    0.0261 H   0  0  0  0  0  0  0  0  0  0  0  0
   -2.0947    4.8214    1.1486 C   0  0  0  0  0  0  0  0  0  0  0  0
   -2.5909    4.5471    2.0866 H   0  0  0  0  0  0  0  0  0  0  0  0
   -1.1149    5.2449    1.3962 H   0  0  0  0  0  0  0  0  0  0  0  0
   -2.9345    5.8568    0.4016 C   0  0  0  0  0  0  0  0  0  0  0  0
   -2.4280    6.1245   -0.5375 H   0  0  0  0  0  0  0  0  0  0  0  0
   -3.9029    5.4108    0.1311 H   0  0  0  0  0  0  0  0  0  0  0  0
   -3.1202    7.0452    1.2636 N   0  3  0  0  0  0  0  0  0  0  0  0
   -2.2126    7.4505    1.5022 H   0  0  0  0  0  0  0  0  0  0  0  0
   -3.6788    7.7501    0.7765 H   0  0  0  0  0  0  0  0  0  0  0  0
   -3.6008    6.7812    2.1262 H   0  0  0  0  0  0  0  0  0  0  0  0
    0.3482    0.4554    0.9089 C   0  0  0  0  0  0  0  0  0  0  0  0
    0.1315   -0.1609    1.9452 O   0  0  0  0  0  0  0  0  0  0  0  0
    1.6368    0.9502    0.7744 N   0  0  0  0  0  0  0  0  0  0  0  0
    1.8472    1.4393   -0.0898 H   0  0  0  0  0  0  0  0  0  0  0  0
    2.7612    0.4254    1.5471 C   0  0  0  0  0  0  0  0  0  0  0  0
    2.8477   -0.6584    1.4120 H   0  0  0  0  0  0  0  0  0  0  0  0
    3.6969    0.8897    1.2213 H   0  0  0  0  0  0  0  0  0  0  0  0
    2.6266    0.6351    2.6136 H   0  0  0  0  0  0  0  0  0  0  0  0
  1  2  1  0  0  0  0
  2  3  1  0  0  0  0
  2  4  1  0  0  0  0
  2  5  1  0  0  0  0
  5  6  2  0  0  0  0
  5  7  1  0  0  0  0
  7  8  1  0  0  0  0
  7  9  1  0  0  0  0
  9 10  1  0  0  0  0
  9 11  1  0  0  0  0
  9 27  1  0  0  0  0
 11 12  1  0  0  0  0
 11 13  1  0  0  0  0
 11 14  1  0  0  0  0
 14 15  1  0  0  0  0
 14 16  1  0  0  0  0
 14 17  1  0  0  0  0
 17 18  1  0  0  0  0
 17 19  1  0  0  0  0
 17 20  1  0  0  0  0
 20 21  1  0  0  0  0
 20 22  1  0  0  0  0
 20 23  1  0  0  0  0
 23 24  1  0  0  0  0
 23 25  1  0  0  0  0
 23 26  1  0  0  0  0
 27 28  2  0  0  0  0
 27 29  1  0  0  0  0
 29 30  1  0  0  0  0
 29 31  1  0  0  0  0
 31 32  1  0  0  0  0
 31 33  1  0  0  0  0
 31 34  1  0  0  0  0
M  CHG  1  23   1
M  END
$$$$

  -OEChem-01062216093D

 34 33  0     1  0  0  0  0  0999 V2000
   -3.4939   -2.4595    1.2306 H   0  0  0  0  0  0  0  0  0  0  0  0
   -3.4368   -1.5847    0.5762 C   0  0  0  0  0  0  0  0  0  0  0  0
   -4.4424   -1.1830    0.4327 H   0  0  0  0  0  0  0  0  0  0  0  0
   -3.0323   -1.8997   -0.3887 H   0  0  0  0  0  0  0  0  0  0  0  0
   -2.5344   -0.5355    1.1960 C   0  0  0  0  0  0  0  0  0  0  0  0
   -2.1912   -0.6270    2.3638 O   0  0  0  0  0  0  0  0  0  0  0  0
   -2.3038    0.6709    0.5602 N   0  0  0  0  0  0  0  0  0  0  0  0
   -2.8119    0.7116   -0.3179 H   0  0  0  0  0  0  0  0  0  0  0  0
   -0.9533    1.2846    0.4850 C   0  0  1  0  0  0  0  0  0  0  0  0
   -0.7941    1.6789   -0.5231 H   0  0  0  0  0  0  0  0  0  0  0  0
   -0.9942    2.4421    1.5107 C   0  0  0  0  0  0  0  0  0  0  0  0
   -1.3013    2.0447    2.4856 H   0  0  0  0  0  0  0  0  0  0  0  0
    0.0090    2.8616    1.6340 H   0  0  0  0  0  0  0  0  0  0  0  0
   -1.9369    3.5822    1.0919 C   0  0  0  0  0  0  0  0  0  0  0  0
   -1.6286    3.9757    0.1172 H   0  0  0  0  0  0  0  0  0  0  0  0
   -2.9594    3.2007    0.9940 H   0  0  0  0  0  0  0  0  0  0  0  0
   -1.9048    4.6982    2.1440 C   0  0  0  0  0  0  0  0  0  0  0  0
   -2.1971    4.2831    3.1155 H   0  0  0  0  0  0  0  0  0  0  0  0
   -0.8832    5.0837    2.2338 H   0  0  0  0  0  0  0  0  0  0  0  0
   -2.8550    5.8298    1.7588 C   0  0  0  0  0  0  0  0  0  0  0  0
   -2.5587    6.2389    0.7817 H   0  0  0  0  0  0  0  0  0  0  0  0
   -3.8720    5.4255    1.6465 H   0  0  0  0  0  0  0  0  0  0  0  0
   -2.8100    6.8693    2.8106 N   0  3  0  0  0  0  0  0  0  0  0  0
   -1.8628    7.2435    2.8940 H   0  0  0  0  0  0  0  0  0  0  0  0
   -3.4495    7.6331    2.5800 H   0  0  0  0  0  0  0  0  0  0  0  0
   -3.0863    6.4670    3.7091 H   0  0  0  0  0  0  0  0  0  0  0  0
    0.2928    0.3978    0.8055 C   0  0  0  0  0  0  0  0  0  0  0  0
    0.2490   -0.8175    0.6749 O   0  0  0  0  0  0  0  0  0  0  0  0
    1.5605    0.9568    0.7446 N   0  0  0  0  0  0  0  0  0  0  0  0
    1.6348    1.9674    0.7169 H   0  0  0  0  0  0  0  0  0  0  0  0
    2.7900    0.1669    0.7649 C   0  0  0  0  0  0  0  0  0  0  0  0
    2.8601   -0.4568   -0.1328 H   0  0  0  0  0  0  0  0  0  0  0  0
    3.6647    0.8237    0.7987 H   0  0  0  0  0  0  0  0  0  0  0  0
    2.8147   -0.4837    1.6461 H   0  0  0  0  0  0  0  0  0  0  0  0
  1  2  1  0  0  0  0
  2  3  1  0  0  0  0
  2  4  1  0  0  0  0
  2  5  1  0  0  0  0
  5  6  2  0  0  0  0
  5  7  1  0  0  0  0
  7  8  1  0  0  0  0
  7  9  1  0  0  0  0
  9 10  1  0  0  0  0
  9 11  1  0  0  0  0
  9 27  1  0  0  0  0
 11 12  1  0  0  0  0
 11 13  1  0  0  0  0
 11 14  1  0  0  0  0
 14 15  1  0  0  0  0
 14 16  1  0  0  0  0
 14 17  1  0  0  0  0
 17 18  1  0  0  0  0
 17 19  1  0  0  0  0
 17 20  1  0  0  0  0
 20 21  1  0  0  0  0
 20 22  1  0  0  0  0
 20 23  1  0  0  0  0
 23 24  1  0  0  0  0
 23 25  1  0  0  0  0
 23 26  1  0  0  0  0
 27 28  2  0  0  0  0
 27 29  1  0  0  0  0
 29 30  1  0  0  0  0
 29 31  1  0  0  0  0
 31 32  1  0  0  0  0
 31 33  1  0  0  0  0
 31 34  1  0  0  0  0
M  CHG  1  23   1
M  END
$$$$

  -OEChem-01062216093D

 34 33  0     1  0  0  0  0  0999 V2000
   -3.5034   -2.4369    1.2337 H   0  0  0  0  0  0  0  0  0  0  0  0
   -3.4453   -1.5563    0.5877 C   0  0  0  0  0  0  0  0  0  0  0  0
   -4.4433   -1.1232    0.4903 H   0  0  0  0  0  0  0  0  0  0  0  0
   -3.0889   -1.8700   -0.3966 H   0  0  0  0  0  0  0  0  0  0  0  0
   -2.4877   -0.5419    1.1816 C   0  0  0  0  0  0  0  0  0  0  0  0
   -2.0529   -0.6899    2.3128 O   0  0  0  0  0  0  0  0  0  0  0  0
   -2.2841    0.6825    0.5705 N   0  0  0  0  0  0  0  0  0  0  0  0
   -2.8158    0.7464   -0.2923 H   0  0  0  0  0  0  0  0  0  0  0  0
   -0.9412    1.3102    0.4874 C   0  0  1  0  0  0  0  0  0  0  0  0
   -0.7899    1.7124   -0.5187 H   0  0  0  0  0  0  0  0  0  0  0  0
   -0.9823    2.4654    1.5170 C   0  0  0  0  0  0  0  0  0  0  0  0
   -1.2752    2.0637    2.4945 H   0  0  0  0  0  0  0  0  0  0  0  0
    0.0146    2.9011    1.6275 H   0  0  0  0  0  0  0  0  0  0  0  0
   -1.9405    3.5943    1.1032 C   0  0  0  0  0  0  0  0  0  0  0  0
   -1.6434    3.9873    0.1249 H   0  0  0  0  0  0  0  0  0  0  0  0
   -2.9587    3.1999    1.0136 H   0  0  0  0  0  0  0  0  0  0  0  0
   -1.9185    4.7167    2.1491 C   0  0  0  0  0  0  0  0  0  0  0  0
   -2.2008    4.3047    3.1249 H   0  0  0  0  0  0  0  0  0  0  0  0
   -0.9025    5.1181    2.2321 H   0  0  0  0  0  0  0  0  0  0  0  0
   -2.8875    5.8299    1.7567 C   0  0  0  0  0  0  0  0  0  0  0  0
   -2.5997    6.2336    0.7749 H   0  0  0  0  0  0  0  0  0  0  0  0
   -3.8977    5.4076    1.6501 H   0  0  0  0  0  0  0  0  0  0  0  0
   -2.8593    6.8819    2.7965 N   0  3  0  0  0  0  0  0  0  0  0  0
   -1.9191    7.2745    2.8732 H   0  0  0  0  0  0  0  0  0  0  0  0
   -3.5131    7.6311    2.5581 H   0  0  0  0  0  0  0  0  0  0  0  0
   -3.1265    6.4856    3.7003 H   0  0  0  0  0  0  0  0  0  0  0  0
    0.2902    0.3922    0.7726 C   0  0  0  0  0  0  0  0  0  0  0  0
    0.2747   -0.7637    0.3693 O   0  0  0  0  0  0  0  0  0  0  0  0
    1.5429    0.9292    1.0272 N   0  0  0  0  0  0  0  0  0  0  0  0
    1.5933    1.9016    1.3077 H   0  0  0  0  0  0  0  0  0  0  0  0
    2.7564    0.1198    1.1058 C   0  0  0  0  0  0  0  0  0  0  0  0
    2.9732   -0.3424    0.1365 H   0  0  0  0  0  0  0  0  0  0  0  0
    3.6111    0.7413    1.3899 H   0  0  0  0  0  0  0  0  0  0  0  0
    2.6415   -0.6723    1.8542 H   0  0  0  0  0  0  0  0  0  0  0  0
  1  2  1  0  0  0  0
  2  3  1  0  0  0  0
  2  4  1  0  0  0  0
  2  5  1  0  0  0  0
  5  6  2  0  0  0  0
  5  7  1  0  0  0  0
  7  8  1  0  0  0  0
  7  9  1  0  0  0  0
  9 10  1  0  0  0  0
  9 11  1  0  0  0  0
  9 27  1  0  0  0  0
 11 12  1  0  0  0  0
 11 13  1  0  0  0  0
 11 14  1  0  0  0  0
 14 15  1  0  0  0  0
 14 16  1  0  0  0  0
 14 17  1  0  0  0  0
 17 18  1  0  0  0  0
 17 19  1  0  0  0  0
 17 20  1  0  0  0  0
 20 21  1  0  0  0  0
 20 22  1  0  0  0  0
 20 23  1  0  0  0  0
 23 24  1  0  0  0  0
 23 25  1  0  0  0  0
 23 26  1  0  0  0  0
 27 28  2  0  0  0  0
 27 29  1  0  0  0  0
 29 30  1  0  0  0  0
 29 31  1  0  0  0  0
 31 32  1  0  0  0  0
 31 33  1  0  0  0  0
 31 34  1  0  0  0  0
M  CHG  1  23   1
M  END
$$$$

  -OEChem-01062216093D

 34 33  0     1  0  0  0  0  0999 V2000
   -3.3859   -2.4884    1.1602 H   0  0  0  0  0  0  0  0  0  0  0  0
   -3.4232   -1.5555    0.5907 C   0  0  0  0  0  0  0  0  0  0  0  0
   -4.4396   -1.1578    0.6286 H   0  0  0  0  0  0  0  0  0  0  0  0
   -3.1582   -1.7716   -0.4472 H   0  0  0  0  0  0  0  0  0  0  0  0
   -2.4468   -0.5538    1.1752 C   0  0  0  0  0  0  0  0  0  0  0  0
   -1.9510   -0.7428    2.2750 O   0  0  0  0  0  0  0  0  0  0  0  0
   -2.2738    0.6873    0.5877 N   0  0  0  0  0  0  0  0  0  0  0  0
   -2.8267    0.7696   -0.2602 H   0  0  0  0  0  0  0  0  0  0  0  0
   -0.9419    1.3354    0.4994 C   0  0  1  0  0  0  0  0  0  0  0  0
   -0.8012    1.7409   -0.5074 H   0  0  0  0  0  0  0  0  0  0  0  0
   -0.9788    2.4944    1.5229 C   0  0  0  0  0  0  0  0  0  0  0  0
   -1.2549    2.0975    2.5070 H   0  0  0  0  0  0  0  0  0  0  0  0
    0.0159    2.9408    1.6104 H   0  0  0  0  0  0  0  0  0  0  0  0
   -1.9509    3.6114    1.1090 C   0  0  0  0  0  0  0  0  0  0  0  0
   -1.6653    3.9992    0.1250 H   0  0  0  0  0  0  0  0  0  0  0  0
   -2.9662    3.2072    1.0308 H   0  0  0  0  0  0  0  0  0  0  0  0
   -1.9301    4.7431    2.1441 C   0  0  0  0  0  0  0  0  0  0  0  0
   -2.1992    4.3380    3.1262 H   0  0  0  0  0  0  0  0  0  0  0  0
   -0.9174    5.1552    2.2128 H   0  0  0  0  0  0  0  0  0  0  0  0
   -2.9132    5.8435    1.7500 C   0  0  0  0  0  0  0  0  0  0  0  0
   -2.6368    6.2408    0.7622 H   0  0  0  0  0  0  0  0  0  0  0  0
   -3.9204    5.4111    1.6554 H   0  0  0  0  0  0  0  0  0  0  0  0
   -2.8861    6.9056    2.7797 N   0  3  0  0  0  0  0  0  0  0  0  0
   -1.9471    7.3028    2.8492 H   0  0  0  0  0  0  0  0  0  0  0  0
   -3.5434    7.6500    2.5358 H   0  0  0  0  0  0  0  0  0  0  0  0
   -3.1489    6.5174    3.6882 H   0  0  0  0  0  0  0  0  0  0  0  0
    0.2819    0.4002    0.7530 C   0  0  0  0  0  0  0  0  0  0  0  0
    0.3205   -0.6616    0.1439 O   0  0  0  0  0  0  0  0  0  0  0  0
    1.4707    0.8544    1.3020 N   0  0  0  0  0  0  0  0  0  0  0  0
    1.4318    1.7043    1.8525 H   0  0  0  0  0  0  0  0  0  0  0  0
    2.6506    0.0033    1.4322 C   0  0  0  0  0  0  0  0  0  0  0  0
    3.0106   -0.3083    0.4458 H   0  0  0  0  0  0  0  0  0  0  0  0
    3.4571    0.5446    1.9361 H   0  0  0  0  0  0  0  0  0  0  0  0
    2.4160   -0.8919    2.0187 H   0  0  0  0  0  0  0  0  0  0  0  0
  1  2  1  0  0  0  0
  2  3  1  0  0  0  0
  2  4  1  0  0  0  0
  2  5  1  0  0  0  0
  5  6  2  0  0  0  0
  5  7  1  0  0  0  0
  7  8  1  0  0  0  0
  7  9  1  0  0  0  0
  9 10  1  0  0  0  0
  9 11  1  0  0  0  0
  9 27  1  0  0  0  0
 11 12  1  0  0  0  0
 11 13  1  0  0  0  0
 11 14  1  0  0  0  0
 14 15  1  0  0  0  0
 14 16  1  0  0  0  0
 14 17  1  0  0  0  0
 17 18  1  0  0  0  0
 17 19  1  0  0  0  0
 17 20  1  0  0  0  0
 20 21  1  0  0  0  0
 20 22  1  0  0  0  0
 20 23  1  0  0  0  0
 23 24  1  0  0  0  0
 23 25  1  0  0  0  0
 23 26  1  0  0  0  0
 27 28  2  0  0  0  0
 27 29  1  0  0  0  0
 29 30  1  0  0  0  0
 29 31  1  0  0  0  0
 31 32  1  0  0  0  0
 31 33  1  0  0  0  0
 31 34  1  0  0  0  0
M  CHG  1  23   1
M  END
$$$$

  -OEChem-01062216093D

 34 33  0     1  0  0  0  0  0999 V2000
   -3.3418   -2.5163    1.1321 H   0  0  0  0  0  0  0  0  0  0  0  0
   -3.4077   -1.5698    0.5878 C   0  0  0  0  0  0  0  0  0  0  0  0
   -4.4271   -1.1859    0.6688 H   0  0  0  0  0  0  0  0  0  0  0  0
   -3.1750   -1.7573   -0.4633 H   0  0  0  0  0  0  0  0  0  0  0  0
   -2.4234   -0.5715    1.1654 C   0  0  0  0  0  0  0  0  0  0  0  0
   -1.8855   -0.7887    2.2397 O   0  0  0  0  0  0  0  0  0  0  0  0
   -2.2733    0.6812    0.5958 N   0  0  0  0  0  0  0  0  0  0  0  0
   -2.8391    0.7745   -0.2425 H   0  0  0  0  0  0  0  0  0  0  0  0
   -0.9513    1.3474    0.5081 C   0  0  1  0  0  0  0  0  0  0  0  0
   -0.8195    1.7545   -0.4995 H   0  0  0  0  0  0  0  0  0  0  0  0
   -0.9797    2.5106    1.5255 C   0  0  0  0  0  0  0  0  0  0  0  0
   -1.2465    2.1183    2.5137 H   0  0  0  0  0  0  0  0  0  0  0  0
    0.0176    2.9558    1.5979 H   0  0  0  0  0  0  0  0  0  0  0  0
   -1.9583    3.6235    1.1150 C   0  0  0  0  0  0  0  0  0  0  0  0
   -1.6843    4.0059    0.1251 H   0  0  0  0  0  0  0  0  0  0  0  0
   -2.9727    3.2144    1.0500 H   0  0  0  0  0  0  0  0  0  0  0  0
   -1.9321    4.7636    2.1418 C   0  0  0  0  0  0  0  0  0  0  0  0
   -2.1920    4.3645    3.1287 H   0  0  0  0  0  0  0  0  0  0  0  0
   -0.9198    5.1790    2.1996 H   0  0  0  0  0  0  0  0  0  0  0  0
   -2.9222    5.8587    1.7484 C   0  0  0  0  0  0  0  0  0  0  0  0
   -2.6560    6.2498    0.7554 H   0  0  0  0  0  0  0  0  0  0  0  0
   -3.9289    5.4229    1.6656 H   0  0  0  0  0  0  0  0  0  0  0  0
   -2.8898    6.9290    2.7697 N   0  3  0  0  0  0  0  0  0  0  0  0
   -1.9504    7.3266    2.8314 H   0  0  0  0  0  0  0  0  0  0  0  0
   -3.5481    7.6718    2.5235 H   0  0  0  0  0  0  0  0  0  0  0  0
   -3.1481    6.5481    3.6825 H   0  0  0  0  0  0  0  0  0  0  0  0
    0.2737    0.4123    0.7411 C   0  0  0  0  0  0  0  0  0  0  0  0
    0.3973   -0.5415   -0.0164 O   0  0  0  0  0  0  0  0  0  0  0  0
    1.3484    0.7482    1.5482 N   0  0  0  0  0  0  0  0  0  0  0  0
    1.1756    1.4450    2.2642 H   0  0  0  0  0  0  0  0  0  0  0  0
    2.4917   -0.1429    1.7257 C   0  0  0  0  0  0  0  0  0  0  0  0
    2.9992   -0.3131    0.7700 H   0  0  0  0  0  0  0  0  0  0  0  0
    3.2118    0.2959    2.4230 H   0  0  0  0  0  0  0  0  0  0  0  0
    2.1662   -1.1094    2.1263 H   0  0  0  0  0  0  0  0  0  0  0  0
  1  2  1  0  0  0  0
  2  3  1  0  0  0  0
  2  4  1  0  0  0  0
  2  5  1  0  0  0  0
  5  6  2  0  0  0  0
  5  7  1  0  0  0  0
  7  8  1  0  0  0  0
  7  9  1  0  0  0  0
  9 10  1  0  0  0  0
  9 11  1  0  0  0  0
  9 27  1  0  0  0  0
 11 12  1  0  0  0  0
 11 13  1  0  0  0  0
 11 14  1  0  0  0  0
 14 15  1  0  0  0  0
 14 16  1  0  0  0  0
 14 17  1  0  0  0  0
 17 18  1  0  0  0  0
 17 19  1  0  0  0  0
 17 20  1  0  0  0  0
 20 21  1  0  0  0  0
 20 22  1  0  0  0  0
 20 23  1  0  0  0  0
 23 24  1  0  0  0  0
 23 25  1  0  0  0  0
 23 26  1  0  0  0  0
 27 28  2  0  0  0  0
 27 29  1  0  0  0  0
 29 30  1  0  0  0  0
 29 31  1  0  0  0  0
 31 32  1  0  0  0  0
 31 33  1  0  0  0  0
 31 34  1  0  0  0  0
M  CHG  1  23   1
M  END
$$$$

  -OEChem-01062216093D

 34 33  0     1  0  0  0  0  0999 V2000
   -3.3462   -2.5276    1.1075 H   0  0  0  0  0  0  0  0  0  0  0  0
   -3.4193   -1.5719    0.5807 C   0  0  0  0  0  0  0  0  0  0  0  0
   -4.4345   -1.1841    0.6913 H   0  0  0  0  0  0  0  0  0  0  0  0
   -3.2118   -1.7425   -0.4786 H   0  0  0  0  0  0  0  0  0  0  0  0
   -2.4172   -0.5883    1.1526 C   0  0  0  0  0  0  0  0  0  0  0  0
   -1.8504   -0.8313    2.2062 O   0  0  0  0  0  0  0  0  0  0  0  0
   -2.2738    0.6710    0.5962 N   0  0  0  0  0  0  0  0  0  0  0  0
   -2.8494    0.7800   -0.2338 H   0  0  0  0  0  0  0  0  0  0  0  0
   -0.9583    1.3487    0.5165 C   0  0  1  0  0  0  0  0  0  0  0  0
   -0.8302    1.7580   -0.4908 H   0  0  0  0  0  0  0  0  0  0  0  0
   -0.9812    2.5136    1.5303 C   0  0  0  0  0  0  0  0  0  0  0  0
   -1.2477    2.1255    2.5203 H   0  0  0  0  0  0  0  0  0  0  0  0
    0.0205    2.9517    1.5981 H   0  0  0  0  0  0  0  0  0  0  0  0
   -1.9593    3.6255    1.1193 C   0  0  0  0  0  0  0  0  0  0  0  0
   -1.6871    4.0048    0.1278 H   0  0  0  0  0  0  0  0  0  0  0  0
   -2.9742    3.2173    1.0577 H   0  0  0  0  0  0  0  0  0  0  0  0
   -1.9279    4.7682    2.1425 C   0  0  0  0  0  0  0  0  0  0  0  0
   -2.1847    4.3738    3.1323 H   0  0  0  0  0  0  0  0  0  0  0  0
   -0.9149    5.1831    2.1951 H   0  0  0  0  0  0  0  0  0  0  0  0
   -2.9186    5.8606    1.7455 C   0  0  0  0  0  0  0  0  0  0  0  0
   -2.6537    6.2459    0.7498 H   0  0  0  0  0  0  0  0  0  0  0  0
   -3.9251    5.4239    1.6667 H   0  0  0  0  0  0  0  0  0  0  0  0
   -2.8847    6.9363    2.7605 N   0  3  0  0  0  0  0  0  0  0  0  0
   -1.9445    7.3321    2.8204 H   0  0  0  0  0  0  0  0  0  0  0  0
   -3.5410    7.6789    2.5091 H   0  0  0  0  0  0  0  0  0  0  0  0
   -3.1445    6.5618    3.6754 H   0  0  0  0  0  0  0  0  0  0  0  0
    0.2713    0.4224    0.7425 C   0  0  0  0  0  0  0  0  0  0  0  0
    0.5123   -0.4009   -0.1300 O   0  0  0  0  0  0  0  0  0  0  0  0
    1.1887    0.6059    1.7635 N   0  0  0  0  0  0  0  0  0  0  0  0
    0.8544    1.1232    2.5698 H   0  0  0  0  0  0  0  0  0  0  0  0
    2.3051   -0.3129    1.9646 C   0  0  0  0  0  0  0  0  0  0  0  0
    2.9508   -0.3327    1.0800 H   0  0  0  0  0  0  0  0  0  0  0  0
    2.9078    0.0025    2.8218 H   0  0  0  0  0  0  0  0  0  0  0  0
    1.9376   -1.3277    2.1533 H   0  0  0  0  0  0  0  0  0  0  0  0
  1  2  1  0  0  0  0
  2  3  1  0  0  0  0
  2  4  1  0  0  0  0
  2  5  1  0  0  0  0
  5  6  2  0  0  0  0
  5  7  1  0  0  0  0
  7  8  1  0  0  0  0
  7  9  1  0  0  0  0
  9 10  1  0  0  0  0
  9 11  1  0  0  0  0
  9 27  1  0  0  0  0
 11 12  1  0  0  0  0
 11 13  1  0  0  0  0
 11 14  1  0  0  0  0
 14 15  1  0  0  0  0
 14 16  1  0  0  0  0
 14 17  1  0  0  0  0
 17 18  1  0  0  0  0
 17 19  1  0  0  0  0
 17 20  1  0  0  0  0
 20 21  1  0  0  0  0
 20 22  1  0  0  0  0
 20 23  1  0  0  0  0
 23 24  1  0  0  0  0
 23 25  1  0  0  0  0
 23 26  1  0  0  0  0
 27 28  2  0  0  0  0
 27 29  1  0  0  0  0
 29 30  1  0  0  0  0
 29 31  1  0  0  0  0
 31 32  1  0  0  0  0
 31 33  1  0  0  0  0
 31 34  1  0  0  0  0
M  CHG  1  23   1
M  END
$$$$

  -OEChem-01062216093D

 34 33  0     1  0  0  0  0  0999 V2000
   -3.4183   -2.5213    1.0907 H   0  0  0  0  0  0  0  0  0  0  0  0
   -3.4825   -1.5552    0.5817 C   0  0  0  0  0  0  0  0  0  0  0  0
   -4.4814   -1.1406    0.7362 H   0  0  0  0  0  0  0  0  0  0  0  0
   -3.3196   -1.7141   -0.4871 H   0  0  0  0  0  0  0  0  0  0  0  0
   -2.4323   -0.6092    1.1309 C   0  0  0  0  0  0  0  0  0  0  0  0
   -1.8379   -0.8866    2.1601 O   0  0  0  0  0  0  0  0  0  0  0  0
   -2.2723    0.6510    0.5820 N   0  0  0  0  0  0  0  0  0  0  0  0
   -2.8569    0.7840   -0.2382 H   0  0  0  0  0  0  0  0  0  0  0  0
   -0.9592    1.3335    0.5169 C   0  0  1  0  0  0  0  0  0  0  0  0
   -0.8286    1.7447   -0.4895 H   0  0  0  0  0  0  0  0  0  0  0  0
   -0.9840    2.4986    1.5284 C   0  0  0  0  0  0  0  0  0  0  0  0
   -1.2600    2.1129    2.5165 H   0  0  0  0  0  0  0  0  0  0  0  0
    0.0214    2.9277    1.6042 H   0  0  0  0  0  0  0  0  0  0  0  0
   -1.9559    3.6137    1.1136 C   0  0  0  0  0  0  0  0  0  0  0  0
   -1.6780    3.9926    0.1236 H   0  0  0  0  0  0  0  0  0  0  0  0
   -2.9720    3.2095    1.0481 H   0  0  0  0  0  0  0  0  0  0  0  0
   -1.9222    4.7546    2.1385 C   0  0  0  0  0  0  0  0  0  0  0  0
   -2.1839    4.3599    3.1267 H   0  0  0  0  0  0  0  0  0  0  0  0
   -0.9071    5.1639    2.1947 H   0  0  0  0  0  0  0  0  0  0  0  0
   -2.9054    5.8536    1.7418 C   0  0  0  0  0  0  0  0  0  0  0  0
   -2.6355    6.2402    0.7479 H   0  0  0  0  0  0  0  0  0  0  0  0
   -3.9142    5.4230    1.6589 H   0  0  0  0  0  0  0  0  0  0  0  0
   -2.8679    6.9266    2.7595 N   0  3  0  0  0  0  0  0  0  0  0  0
   -1.9246    7.3147    2.8241 H   0  0  0  0  0  0  0  0  0  0  0  0
   -3.5171    7.6749    2.5063 H   0  0  0  0  0  0  0  0  0  0  0  0
   -3.1344    6.5520    3.6724 H   0  0  0  0  0  0  0  0  0  0  0  0
    0.2804    0.4255    0.7520 C   0  0  0  0  0  0  0  0  0  0  0  0
    0.6923   -0.2152   -0.2050 O   0  0  0  0  0  0  0  0  0  0  0  0
    1.0061    0.4302    1.9310 N   0  0  0  0  0  0  0  0  0  0  0  0
    0.4811    0.7172    2.7519 H   0  0  0  0  0  0  0  0  0  0  0  0
    2.1232   -0.4850    2.1411 C   0  0  0  0  0  0  0  0  0  0  0  0
    2.9007   -0.3226    1.3869 H   0  0  0  0  0  0  0  0  0  0  0  0
    2.5656   -0.3247    3.1288 H   0  0  0  0  0  0  0  0  0  0  0  0
    1.7835   -1.5245    2.0773 H   0  0  0  0  0  0  0  0  0  0  0  0
  1  2  1  0  0  0  0
  2  3  1  0  0  0  0
  2  4  1  0  0  0  0
  2  5  1  0  0  0  0
  5  6  2  0  0  0  0
  5  7  1  0  0  0  0
  7  8  1  0  0  0  0
  7  9  1  0  0  0  0
  9 10  1  0  0  0  0
  9 11  1  0  0  0  0
  9 27  1  0  0  0  0
 11 12  1  0  0  0  0
 11 13  1  0  0  0  0
 11 14  1  0  0  0  0
 14 15  1  0  0  0  0
 14 16  1  0  0  0  0
 14 17  1  0  0  0  0
 17 18  1  0  0  0  0
 17 19  1  0  0  0  0
 17 20  1  0  0  0  0
 20 21  1  0  0  0  0
 20 22  1  0  0  0  0
 20 23  1  0  0  0  0
 23 24  1  0  0  0  0
 23 25  1  0  0  0  0
 23 26  1  0  0  0  0
 27 28  2  0  0  0  0
 27 29  1  0  0  0  0
 29 30  1  0  0  0  0
 29 31  1  0  0  0  0
 31 32  1  0  0  0  0
 31 33  1  0  0  0  0
 31 34  1  0  0  0  0
M  CHG  1  23   1
M  END
$$$$

  -OEChem-01062216093D

 34 33  0     1  0  0  0  0  0999 V2000
   -3.5297   -2.5089    1.0741 H   0  0  0  0  0  0  0  0  0  0  0  0
   -3.5725   -1.5362    0.5753 C   0  0  0  0  0  0  0  0  0  0  0  0
   -4.5523   -1.0887    0.7580 H   0  0  0  0  0  0  0  0  0  0  0  0
   -3.4416   -1.6905   -0.4986 H   0  0  0  0  0  0  0  0  0  0  0  0
   -2.4788   -0.6311    1.1085 C   0  0  0  0  0  0  0  0  0  0  0  0
   -1.8779   -0.9361    2.1256 O   0  0  0  0  0  0  0  0  0  0  0  0
   -2.2863    0.6244    0.5601 N   0  0  0  0  0  0  0  0  0  0  0  0
   -2.8767    0.7843   -0.2513 H   0  0  0  0  0  0  0  0  0  0  0  0
   -0.9703    1.3028    0.5102 C   0  0  1  0  0  0  0  0  0  0  0  0
   -0.8346    1.7145   -0.4958 H   0  0  0  0  0  0  0  0  0  0  0  0
   -0.9952    2.4679    1.5204 C   0  0  0  0  0  0  0  0  0  0  0  0
   -1.2814    2.0845    2.5063 H   0  0  0  0  0  0  0  0  0  0  0  0
    0.0148    2.8850    1.6051 H   0  0  0  0  0  0  0  0  0  0  0  0
   -1.9542    3.5924    1.1022 C   0  0  0  0  0  0  0  0  0  0  0  0
   -1.6662    3.9720    0.1154 H   0  0  0  0  0  0  0  0  0  0  0  0
   -2.9735    3.1978    1.0289 H   0  0  0  0  0  0  0  0  0  0  0  0
   -1.9134    4.7282    2.1326 C   0  0  0  0  0  0  0  0  0  0  0  0
   -2.1834    4.3309    3.1175 H   0  0  0  0  0  0  0  0  0  0  0  0
   -0.8940    5.1253    2.1946 H   0  0  0  0  0  0  0  0  0  0  0  0
   -2.8812    5.8422    1.7410 C   0  0  0  0  0  0  0  0  0  0  0  0
   -2.6027    6.2331    0.7512 H   0  0  0  0  0  0  0  0  0  0  0  0
   -3.8955    5.4260    1.6521 H   0  0  0  0  0  0  0  0  0  0  0  0
   -2.8314    6.9057    2.7684 N   0  3  0  0  0  0  0  0  0  0  0  0
   -1.8828    7.2799    2.8387 H   0  0  0  0  0  0  0  0  0  0  0  0
   -3.4691    7.6654    2.5202 H   0  0  0  0  0  0  0  0  0  0  0  0
   -3.1051    6.5273    3.6775 H   0  0  0  0  0  0  0  0  0  0  0  0
    0.2814    0.4176    0.7648 C   0  0  0  0  0  0  0  0  0  0  0  0
    0.8972    0.0169   -0.2126 O   0  0  0  0  0  0  0  0  0  0  0  0
    0.8046    0.2177    2.0302 N   0  0  0  0  0  0  0  0  0  0  0  0
    0.1020    0.2381    2.7673 H   0  0  0  0  0  0  0  0  0  0  0  0
    1.9600   -0.6465    2.2471 C   0  0  0  0  0  0  0  0  0  0  0  0
    2.8288   -0.2757    1.6926 H   0  0  0  0  0  0  0  0  0  0  0  0
    2.2186   -0.6742    3.3101 H   0  0  0  0  0  0  0  0  0  0  0  0
    1.7423   -1.6677    1.9159 H   0  0  0  0  0  0  0  0  0  0  0  0
  1  2  1  0  0  0  0
  2  3  1  0  0  0  0
  2  4  1  0  0  0  0
  2  5  1  0  0  0  0
  5  6  2  0  0  0  0
  5  7  1  0  0  0  0
  7  8  1  0  0  0  0
  7  9  1  0  0  0  0
  9 10  1  0  0  0  0
  9 11  1  0  0  0  0
  9 27  1  0  0  0  0
 11 12  1  0  0  0  0
 11 13  1  0  0  0  0
 11 14  1  0  0  0  0
 14 15  1  0  0  0  0
 14 16  1  0  0  0  0
 14 17  1  0  0  0  0
 17 18  1  0  0  0  0
 17 19  1  0  0  0  0
 17 20  1  0  0  0  0
 20 21  1  0  0  0  0
 20 22  1  0  0  0  0
 20 23  1  0  0  0  0
 23 24  1  0  0  0  0
 23 25  1  0  0  0  0
 23 26  1  0  0  0  0
 27 28  2  0  0  0  0
 27 29  1  0  0  0  0
 29 30  1  0  0  0  0
 29 31  1  0  0  0  0
 31 32  1  0  0  0  0
 31 33  1  0  0  0  0
 31 34  1  0  0  0  0
M  CHG  1  23   1
M  END
$$$$

  -OEChem-01062216093D

 34 33  0     1  0  0  0  0  0999 V2000
   -3.6936   -2.4769    1.0416 H   0  0  0  0  0  0  0  0  0  0  0  0
   -3.6927   -1.4980    0.5533 C   0  0  0  0  0  0  0  0  0  0  0  0
   -4.6491   -1.0068    0.7474 H   0  0  0  0  0  0  0  0  0  0  0  0
   -3.5771   -1.6469   -0.5231 H   0  0  0  0  0  0  0  0  0  0  0  0
   -2.5535   -0.6512    1.0874 C   0  0  0  0  0  0  0  0  0  0  0  0
   -1.9630   -0.9989    2.0955 O   0  0  0  0  0  0  0  0  0  0  0  0
   -2.3075    0.5953    0.5414 N   0  0  0  0  0  0  0  0  0  0  0  0
   -2.9043    0.7901   -0.2577 H   0  0  0  0  0  0  0  0  0  0  0  0
   -0.9842    1.2640    0.5010 C   0  0  1  0  0  0  0  0  0  0  0  0
   -0.8475    1.6754   -0.5053 H   0  0  0  0  0  0  0  0  0  0  0  0
   -1.0058    2.4270    1.5128 C   0  0  0  0  0  0  0  0  0  0  0  0
   -1.2993    2.0426    2.4961 H   0  0  0  0  0  0  0  0  0  0  0  0
    0.0079    2.8339    1.6061 H   0  0  0  0  0  0  0  0  0  0  0  0
   -1.9519    3.5625    1.0944 C   0  0  0  0  0  0  0  0  0  0  0  0
   -1.6556    3.9432    0.1106 H   0  0  0  0  0  0  0  0  0  0  0  0
   -2.9750    3.1790    1.0150 H   0  0  0  0  0  0  0  0  0  0  0  0
   -1.9030    4.6925    2.1311 C   0  0  0  0  0  0  0  0  0  0  0  0
   -2.1804    4.2925    3.1128 H   0  0  0  0  0  0  0  0  0  0  0  0
   -0.8792    5.0774    2.1989 H   0  0  0  0  0  0  0  0  0  0  0  0
   -2.8569    5.8202    1.7433 C   0  0  0  0  0  0  0  0  0  0  0  0
   -2.5708    6.2143    0.7570 H   0  0  0  0  0  0  0  0  0  0  0  0
   -3.8755    5.4158    1.6486 H   0  0  0  0  0  0  0  0  0  0  0  0
   -2.7980    6.8765    2.7777 N   0  3  0  0  0  0  0  0  0  0  0  0
   -1.8448    7.2375    2.8537 H   0  0  0  0  0  0  0  0  0  0  0  0
   -3.4248    7.6462    2.5326 H   0  0  0  0  0  0  0  0  0  0  0  0
   -3.0800    6.4954    3.6832 H   0  0  0  0  0  0  0  0  0  0  0  0
    0.2861    0.4104    0.7711 C   0  0  0  0  0  0  0  0  0  0  0  0
    1.0804    0.2754   -0.1486 O   0  0  0  0  0  0  0  0  0  0  0  0
    0.6399   -0.0177    2.0373 N   0  0  0  0  0  0  0  0  0  0  0  0
   -0.1646   -0.1939    2.6424 H   0  0  0  0  0  0  0  0  0  0  0  0
    1.8333   -0.8232    2.2721 C   0  0  0  0  0  0  0  0  0  0  0  0
    2.7316   -0.2822    1.9554 H   0  0  0  0  0  0  0  0  0  0  0  0
    1.9302   -1.0540    3.3374 H   0  0  0  0  0  0  0  0  0  0  0  0
    1.7758   -1.7652    1.7163 H   0  0  0  0  0  0  0  0  0  0  0  0
  1  2  1  0  0  0  0
  2  3  1  0  0  0  0
  2  4  1  0  0  0  0
  2  5  1  0  0  0  0
  5  6  2  0  0  0  0
  5  7  1  0  0  0  0
  7  8  1  0  0  0  0
  7  9  1  0  0  0  0
  9 10  1  0  0  0  0
  9 11  1  0  0  0  0
  9 27  1  0  0  0  0
 11 12  1  0  0  0  0
 11 13  1  0  0  0  0
 11 14  1  0  0  0  0
 14 15  1  0  0  0  0
 14 16  1  0  0  0  0
 14 17  1  0  0  0  0
 17 18  1  0  0  0  0
 17 19  1  0  0  0  0
 17 20  1  0  0  0  0
 20 21  1  0  0  0  0
 20 22  1  0  0  0  0
 20 23  1  0  0  0  0
 23 24  1  0  0  0  0
 23 25  1  0  0  0  0
 23 26  1  0  0  0  0
 27 28  2  0  0  0  0
 27 29  1  0  0  0  0
 29 30  1  0  0  0  0
 29 31  1  0  0  0  0
 31 32  1  0  0  0  0
 31 33  1  0  0  0  0
 31 34  1  0  0  0  0
M  CHG  1  23   1
M  END
$$$$

  -OEChem-01062216093D

 34 33  0     1  0  0  0  0  0999 V2000
   -3.8641   -2.4328    1.0072 H   0  0  0  0  0  0  0  0  0  0  0  0
   -3.8142   -1.4521    0.5248 C   0  0  0  0  0  0  0  0  0  0  0  0
   -4.7474   -0.9177    0.7170 H   0  0  0  0  0  0  0  0  0  0  0  0
   -3.7002   -1.5999   -0.5519 H   0  0  0  0  0  0  0  0  0  0  0  0
   -2.6388   -0.6635    1.0699 C   0  0  0  0  0  0  0  0  0  0  0  0
   -2.0717   -1.0531    2.0744 O   0  0  0  0  0  0  0  0  0  0  0  0
   -2.3346    0.5717    0.5275 N   0  0  0  0  0  0  0  0  0  0  0  0
   -2.9341    0.8006   -0.2604 H   0  0  0  0  0  0  0  0  0  0  0  0
   -1.0020    1.2270    0.4937 C   0  0  1  0  0  0  0  0  0  0  0  0
   -0.8658    1.6377   -0.5129 H   0  0  0  0  0  0  0  0  0  0  0  0
   -1.0221    2.3886    1.5066 C   0  0  0  0  0  0  0  0  0  0  0  0
   -1.3223    2.0028    2.4876 H   0  0  0  0  0  0  0  0  0  0  0  0
   -0.0065    2.7888    1.6077 H   0  0  0  0  0  0  0  0  0  0  0  0
   -1.9542    3.5345    1.0868 C   0  0  0  0  0  0  0  0  0  0  0  0
   -1.6463    3.9174    0.1073 H   0  0  0  0  0  0  0  0  0  0  0  0
   -2.9808    3.1626    0.9991 H   0  0  0  0  0  0  0  0  0  0  0  0
   -1.8986    4.6577    2.1300 C   0  0  0  0  0  0  0  0  0  0  0  0
   -2.1858    4.2549    3.1078 H   0  0  0  0  0  0  0  0  0  0  0  0
   -0.8709    5.0306    2.2057 H   0  0  0  0  0  0  0  0  0  0  0  0
   -2.8375    5.7982    1.7440 C   0  0  0  0  0  0  0  0  0  0  0  0
   -2.5412    6.1961    0.7620 H   0  0  0  0  0  0  0  0  0  0  0  0
   -3.8601    5.4068    1.6407 H   0  0  0  0  0  0  0  0  0  0  0  0
   -2.7700    6.8453    2.7867 N   0  3  0  0  0  0  0  0  0  0  0  0
   -1.8120    7.1913    2.8721 H   0  0  0  0  0  0  0  0  0  0  0  0
   -3.3832    7.6263    2.5432 H   0  0  0  0  0  0  0  0  0  0  0  0
   -3.0636    6.4612    3.6872 H   0  0  0  0  0  0  0  0  0  0  0  0
    0.2914    0.4108    0.7752 C   0  0  0  0  0  0  0  0  0  0  0  0
    1.1989    0.5080   -0.0388 O   0  0  0  0  0  0  0  0  0  0  0  0
    0.5340   -0.2553    1.9607 N   0  0  0  0  0  0  0  0  0  0  0  0
   -0.3074   -0.5200    2.4794 H   0  0  0  0  0  0  0  0  0  0  0  0
    1.7475   -1.0298    2.1957 C   0  0  0  0  0  0  0  0  0  0  0  0
    2.6332   -0.3907    2.1155 H   0  0  0  0  0  0  0  0  0  0  0  0
    1.7286   -1.4654    3.1997 H   0  0  0  0  0  0  0  0  0  0  0  0
    1.8325   -1.8422    1.4660 H   0  0  0  0  0  0  0  0  0  0  0  0
  1  2  1  0  0  0  0
  2  3  1  0  0  0  0
  2  4  1  0  0  0  0
  2  5  1  0  0  0  0
  5  6  2  0  0  0  0
  5  7  1  0  0  0  0
  7  8  1  0  0  0  0
  7  9  1  0  0  0  0
  9 10  1  0  0  0  0
  9 11  1  0  0  0  0
  9 27  1  0  0  0  0
 11 12  1  0  0  0  0
 11 13  1  0  0  0  0
 11 14  1  0  0  0  0
 14 15  1  0  0  0  0
 14 16  1  0  0  0  0
 14 17  1  0  0  0  0
 17 18  1  0  0  0  0
 17 19  1  0  0  0  0
 17 20  1  0  0  0  0
 20 21  1  0  0  0  0
 20 22  1  0  0  0  0
 20 23  1  0  0  0  0
 23 24  1  0  0  0  0
 23 25  1  0  0  0  0
 23 26  1  0  0  0  0
 27 28  2  0  0  0  0
 27 29  1  0  0  0  0
 29 30  1  0  0  0  0
 29 31  1  0  0  0  0
 31 32  1  0  0  0  0
 31 33  1  0  0  0  0
 31 34  1  0  0  0  0
M  CHG  1  23   1
M  END
$$$$

  -OEChem-01062216093D

 34 33  0     1  0  0  0  0  0999 V2000
   -4.0178   -2.3768    0.9755 H   0  0  0  0  0  0  0  0  0  0  0  0
   -3.9290   -1.3912    0.5086 C   0  0  0  0  0  0  0  0  0  0  0  0
   -4.8349   -0.8189    0.7219 H   0  0  0  0  0  0  0  0  0  0  0  0
   -3.8355   -1.5263   -0.5717 H   0  0  0  0  0  0  0  0  0  0  0  0
   -2.7130   -0.6651    1.0516 C   0  0  0  0  0  0  0  0  0  0  0  0
   -2.1666   -1.0910    2.0518 O   0  0  0  0  0  0  0  0  0  0  0  0
   -2.3565    0.5586    0.5152 N   0  0  0  0  0  0  0  0  0  0  0  0
   -2.9575    0.8217   -0.2607 H   0  0  0  0  0  0  0  0  0  0  0  0
   -1.0129    1.1955    0.4862 C   0  0  1  0  0  0  0  0  0  0  0  0
   -0.8732    1.6050   -0.5201 H   0  0  0  0  0  0  0  0  0  0  0  0
   -1.0357    2.3551    1.5024 C   0  0  0  0  0  0  0  0  0  0  0  0
   -1.3477    1.9667    2.4789 H   0  0  0  0  0  0  0  0  0  0  0  0
   -0.0192    2.7505    1.6164 H   0  0  0  0  0  0  0  0  0  0  0  0
   -1.9553    3.5097    1.0779 C   0  0  0  0  0  0  0  0  0  0  0  0
   -1.6348    3.8942    0.1030 H   0  0  0  0  0  0  0  0  0  0  0  0
   -2.9841    3.1466    0.9790 H   0  0  0  0  0  0  0  0  0  0  0  0
   -1.8998    4.6277    2.1271 C   0  0  0  0  0  0  0  0  0  0  0  0
   -2.1975    4.2227    3.1010 H   0  0  0  0  0  0  0  0  0  0  0  0
   -0.8697    4.9920    2.2125 H   0  0  0  0  0  0  0  0  0  0  0  0
   -2.8253    5.7787    1.7405 C   0  0  0  0  0  0  0  0  0  0  0  0
   -2.5175    6.1795    0.7633 H   0  0  0  0  0  0  0  0  0  0  0  0
   -3.8509    5.3978    1.6272 H   0  0  0  0  0  0  0  0  0  0  0  0
   -2.7562    6.8188    2.7904 N   0  3  0  0  0  0  0  0  0  0  0  0
   -1.7953    7.1541    2.8864 H   0  0  0  0  0  0  0  0  0  0  0  0
   -3.3592    7.6077    2.5465 H   0  0  0  0  0  0  0  0  0  0  0  0
   -3.0617    6.4324    3.6859 H   0  0  0  0  0  0  0  0  0  0  0  0
    0.2947    0.4001    0.7721 C   0  0  0  0  0  0  0  0  0  0  0  0
    1.2698    0.6909    0.0930 O   0  0  0  0  0  0  0  0  0  0  0  0
    0.4701   -0.4971    1.8061 N   0  0  0  0  0  0  0  0  0  0  0  0
   -0.3823   -0.8161    2.2727 H   0  0  0  0  0  0  0  0  0  0  0  0
    1.7038   -1.2428    2.0271 C   0  0  0  0  0  0  0  0  0  0  0  0
    2.5420   -0.5586    2.1965 H   0  0  0  0  0  0  0  0  0  0  0  0
    1.6033   -1.8867    2.9063 H   0  0  0  0  0  0  0  0  0  0  0  0
    1.9320   -1.8718    1.1603 H   0  0  0  0  0  0  0  0  0  0  0  0
  1  2  1  0  0  0  0
  2  3  1  0  0  0  0
  2  4  1  0  0  0  0
  2  5  1  0  0  0  0
  5  6  2  0  0  0  0
  5  7  1  0  0  0  0
  7  8  1  0  0  0  0
  7  9  1  0  0  0  0
  9 10  1  0  0  0  0
  9 11  1  0  0  0  0
  9 27  1  0  0  0  0
 11 12  1  0  0  0  0
 11 13  1  0  0  0  0
 11 14  1  0  0  0  0
 14 15  1  0  0  0  0
 14 16  1  0  0  0  0
 14 17  1  0  0  0  0
 17 18  1  0  0  0  0
 17 19  1  0  0  0  0
 17 20  1  0  0  0  0
 20 21  1  0  0  0  0
 20 22  1  0  0  0  0
 20 23  1  0  0  0  0
 23 24  1  0  0  0  0
 23 25  1  0  0  0  0
 23 26  1  0  0  0  0
 27 28  2  0  0  0  0
 27 29  1  0  0  0  0
 29 30  1  0  0  0  0
 29 31  1  0  0  0  0
 31 32  1  0  0  0  0
 31 33  1  0  0  0  0
 31 34  1  0  0  0  0
M  CHG  1  23   1
M  END
$$$$

  -OEChem-01062216093D

 34 33  0     1  0  0  0  0  0999 V2000
   -4.1161   -2.3457    1.1482 H   0  0  0  0  0  0  0  0  0  0  0  0
   -4.0051   -1.3893    0.6283 C   0  0  0  0  0  0  0  0  0  0  0  0
   -4.8941   -0.7825    0.8167 H   0  0  0  0  0  0  0  0  0  0  0  0
   -3.9235   -1.5842   -0.4438 H   0  0  0  0  0  0  0  0  0  0  0  0
   -2.7656   -0.6674    1.1224 C   0  0  0  0  0  0  0  0  0  0  0  0
   -2.1990   -1.0755    2.1190 O   0  0  0  0  0  0  0  0  0  0  0  0
   -2.4126    0.5429    0.5549 N   0  0  0  0  0  0  0  0  0  0  0  0
   -3.0403    0.8009   -0.2015 H   0  0  0  0  0  0  0  0  0  0  0  0
   -1.0639    1.1646    0.4594 C   0  0  1  0  0  0  0  0  0  0  0  0
   -0.9661    1.5628   -0.5561 H   0  0  0  0  0  0  0  0  0  0  0  0
   -1.0464    2.3350    1.4655 C   0  0  0  0  0  0  0  0  0  0  0  0
   -1.3234    1.9565    2.4561 H   0  0  0  0  0  0  0  0  0  0  0  0
   -0.0262    2.7305    1.5407 H   0  0  0  0  0  0  0  0  0  0  0  0
   -1.9770    3.4886    1.0638 C   0  0  0  0  0  0  0  0  0  0  0  0
   -1.6892    3.8627    0.0749 H   0  0  0  0  0  0  0  0  0  0  0  0
   -3.0098    3.1288    1.0038 H   0  0  0  0  0  0  0  0  0  0  0  0
   -1.8814    4.6166    2.0988 C   0  0  0  0  0  0  0  0  0  0  0  0
   -2.1476    4.2228    3.0863 H   0  0  0  0  0  0  0  0  0  0  0  0
   -0.8482    4.9789    2.1463 H   0  0  0  0  0  0  0  0  0  0  0  0
   -2.8178    5.7642    1.7304 C   0  0  0  0  0  0  0  0  0  0  0  0
   -2.5413    6.1523    0.7389 H   0  0  0  0  0  0  0  0  0  0  0  0
   -3.8470    5.3833    1.6552 H   0  0  0  0  0  0  0  0  0  0  0  0
   -2.7130    6.8176    2.7638 N   0  3  0  0  0  0  0  0  0  0  0  0
   -1.7522    7.1632    2.8133 H   0  0  0  0  0  0  0  0  0  0  0  0
   -3.3343    7.5976    2.5377 H   0  0  0  0  0  0  0  0  0  0  0  0
   -2.9746    6.4392    3.6765 H   0  0  0  0  0  0  0  0  0  0  0  0
    0.2608    0.3787    0.6966 C   0  0  0  0  0  0  0  0  0  0  0  0
    1.2521    0.8087    0.1217 O   0  0  0  0  0  0  0  0  0  0  0  0
    0.4280   -0.7060    1.5325 N   0  0  0  0  0  0  0  0  0  0  0  0
   -0.4025   -1.0461    2.0222 H   0  0  0  0  0  0  0  0  0  0  0  0
    1.6956   -1.3996    1.7299 C   0  0  0  0  0  0  0  0  0  0  0  0
    2.4472   -0.7176    2.1410 H   0  0  0  0  0  0  0  0  0  0  0  0
    1.5647   -2.2314    2.4288 H   0  0  0  0  0  0  0  0  0  0  0  0
    2.0659   -1.8009    0.7806 H   0  0  0  0  0  0  0  0  0  0  0  0
  1  2  1  0  0  0  0
  2  3  1  0  0  0  0
  2  4  1  0  0  0  0
  2  5  1  0  0  0  0
  5  6  2  0  0  0  0
  5  7  1  0  0  0  0
  7  8  1  0  0  0  0
  7  9  1  0  0  0  0
  9 10  1  0  0  0  0
  9 11  1  0  0  0  0
  9 27  1  0  0  0  0
 11 12  1  0  0  0  0
 11 13  1  0  0  0  0
 11 14  1  0  0  0  0
 14 15  1  0  0  0  0
 14 16  1  0  0  0  0
 14 17  1  0  0  0  0
 17 18  1  0  0  0  0
 17 19  1  0  0  0  0
 17 20  1  0  0  0  0
 20 21  1  0  0  0  0
 20 22  1  0  0  0  0
 20 23  1  0  0  0  0
 23 24  1  0  0  0  0
 23 25  1  0  0  0  0
 23 26  1  0  0  0  0
 27 28  2  0  0  0  0
 27 29  1  0  0  0  0
 29 30  1  0  0  0  0
 29 31  1  0  0  0  0
 31 32  1  0  0  0  0
 31 33  1  0  0  0  0
 31 34  1  0  0  0  0
M  CHG  1  23   1
M  END
$$$$

  -OEChem-01062216093D

 34 33  0     1  0  0  0  0  0999 V2000
   -3.4655   -2.6699    0.9467 H   0  0  0  0  0  0  0  0  0  0  0  0
   -3.5049   -1.7234    0.3998 C   0  0  0  0  0  0  0  0  0  0  0  0
   -4.5273   -1.3396    0.4322 H   0  0  0  0  0  0  0  0  0  0  0  0
   -3.2240   -1.9103   -0.6396 H   0  0  0  0  0  0  0  0  0  0  0  0
   -2.5504   -0.7240    1.0241 C   0  0  0  0  0  0  0  0  0  0  0  0
   -2.1458   -0.9014    2.1574 O   0  0  0  0  0  0  0  0  0  0  0  0
   -2.3965    0.5274    0.4676 N   0  0  0  0  0  0  0  0  0  0  0  0
   -3.0509    0.6533   -0.2991 H   0  0  0  0  0  0  0  0  0  0  0  0
   -1.1008    1.2053    0.2162 C   0  0  1  0  0  0  0  0  0  0  0  0
   -1.1601    1.6579   -0.7795 H   0  0  0  0  0  0  0  0  0  0  0  0
   -0.9881    2.3241    1.2723 C   0  0  0  0  0  0  0  0  0  0  0  0
   -1.1128    1.8890    2.2704 H   0  0  0  0  0  0  0  0  0  0  0  0
    0.0163    2.7609    1.2265 H   0  0  0  0  0  0  0  0  0  0  0  0
   -2.0127    3.4493    1.0593 C   0  0  0  0  0  0  0  0  0  0  0  0
   -1.8812    3.8796    0.0601 H   0  0  0  0  0  0  0  0  0  0  0  0
   -3.0274    3.0411    1.1227 H   0  0  0  0  0  0  0  0  0  0  0  0
   -1.8283    4.5362    2.1255 C   0  0  0  0  0  0  0  0  0  0  0  0
   -1.9405    4.0881    3.1192 H   0  0  0  0  0  0  0  0  0  0  0  0
   -0.8159    4.9487    2.0520 H   0  0  0  0  0  0  0  0  0  0  0  0
   -2.8575    5.6483    1.9390 C   0  0  0  0  0  0  0  0  0  0  0  0
   -2.7385    6.0897    0.9384 H   0  0  0  0  0  0  0  0  0  0  0  0
   -3.8685    5.2172    1.9855 H   0  0  0  0  0  0  0  0  0  0  0  0
   -2.6632    6.6629    2.9978 N   0  3  0  0  0  0  0  0  0  0  0  0
   -1.7212    7.0549    2.9372 H   0  0  0  0  0  0  0  0  0  0  0  0
   -3.3439    7.4183    2.8921 H   0  0  0  0  0  0  0  0  0  0  0  0
   -2.7839    6.2342    3.9177 H   0  0  0  0  0  0  0  0  0  0  0  0
    0.2652    0.4499    0.2294 C   0  0  0  0  0  0  0  0  0  0  0  0
    1.1147    0.8549   -0.5464 O   0  0  0  0  0  0  0  0  0  0  0  0
    0.5813   -0.7965    0.7157 N   0  0  0  0  0  0  0  0  0  0  0  0
    1.3625   -1.1757    0.1845 H   0  0  0  0  0  0  0  0  0  0  0  0
    0.7293   -0.9870    2.1553 C   0  0  0  0  0  0  0  0  0  0  0  0
    1.7905   -1.0113    2.4226 H   0  0  0  0  0  0  0  0  0  0  0  0
    0.2580   -0.1775    2.7219 H   0  0  0  0  0  0  0  0  0  0  0  0
    0.2742   -1.9350    2.4602 H   0  0  0  0  0  0  0  0  0  0  0  0
  1  2  1  0  0  0  0
  2  3  1  0  0  0  0
  2  4  1  0  0  0  0
  2  5  1  0  0  0  0
  5  6  2  0  0  0  0
  5  7  1  0  0  0  0
  7  8  1  0  0  0  0
  7  9  1  0  0  0  0
  9 10  1  0  0  0  0
  9 11  1  0  0  0  0
  9 27  1  0  0  0  0
 11 12  1  0  0  0  0
 11 13  1  0  0  0  0
 11 14  1  0  0  0  0
 14 15  1  0  0  0  0
 14 16  1  0  0  0  0
 14 17  1  0  0  0  0
 17 18  1  0  0  0  0
 17 19  1  0  0  0  0
 17 20  1  0  0  0  0
 20 21  1  0  0  0  0
 20 22  1  0  0  0  0
 20 23  1  0  0  0  0
 23 24  1  0  0  0  0
 23 25  1  0  0  0  0
 23 26  1  0  0  0  0
 27 28  2  0  0  0  0
 27 29  1  0  0  0  0
 29 30  1  0  0  0  0
 29 31  1  0  0  0  0
 31 32  1  0  0  0  0
 31 33  1  0  0  0  0
 31 34  1  0  0  0  0
M  CHG  1  23   1
M  END
$$$$

  -OEChem-01062216093D

 34 33  0     1  0  0  0  0  0999 V2000
   -3.4792   -2.6397    1.2634 H   0  0  0  0  0  0  0  0  0  0  0  0
   -3.5967   -1.7047    0.7080 C   0  0  0  0  0  0  0  0  0  0  0  0
   -4.5927   -1.3007    0.9037 H   0  0  0  0  0  0  0  0  0  0  0  0
   -3.4985   -1.9190   -0.3591 H   0  0  0  0  0  0  0  0  0  0  0  0
   -2.5357   -0.7101    1.1369 C   0  0  0  0  0  0  0  0  0  0  0  0
   -1.9257   -0.8844    2.1753 O   0  0  0  0  0  0  0  0  0  0  0  0
   -2.4701    0.5331    0.5453 N   0  0  0  0  0  0  0  0  0  0  0  0
   -3.2227    0.6511   -0.1267 H   0  0  0  0  0  0  0  0  0  0  0  0
   -1.2228    1.2259    0.1383 C   0  0  1  0  0  0  0  0  0  0  0  0
   -1.3984    1.6667   -0.8485 H   0  0  0  0  0  0  0  0  0  0  0  0
   -1.0114    2.3523    1.1721 C   0  0  0  0  0  0  0  0  0  0  0  0
   -1.0118    1.9181    2.1787 H   0  0  0  0  0  0  0  0  0  0  0  0
   -0.0276    2.8088    1.0137 H   0  0  0  0  0  0  0  0  0  0  0  0
   -2.0713    3.4596    1.0768 C   0  0  0  0  0  0  0  0  0  0  0  0
   -2.0614    3.8907    0.0694 H   0  0  0  0  0  0  0  0  0  0  0  0
   -3.0664    3.0380    1.2566 H   0  0  0  0  0  0  0  0  0  0  0  0
   -1.7770    4.5480    2.1157 C   0  0  0  0  0  0  0  0  0  0  0  0
   -1.7665    4.0978    3.1148 H   0  0  0  0  0  0  0  0  0  0  0  0
   -0.7851    4.9726    1.9241 H   0  0  0  0  0  0  0  0  0  0  0  0
   -2.8335    5.6471    2.0544 C   0  0  0  0  0  0  0  0  0  0  0  0
   -2.8372    6.0914    1.0482 H   0  0  0  0  0  0  0  0  0  0  0  0
   -3.8269    5.2044    2.2180 H   0  0  0  0  0  0  0  0  0  0  0  0
   -2.5245    6.6604    3.0864 N   0  3  0  0  0  0  0  0  0  0  0  0
   -1.5975    7.0571    2.9185 H   0  0  0  0  0  0  0  0  0  0  0  0
   -3.2166    7.4123    3.0615 H   0  0  0  0  0  0  0  0  0  0  0  0
   -2.5361    6.2293    4.0130 H   0  0  0  0  0  0  0  0  0  0  0  0
    0.1490    0.4930    0.0089 C   0  0  0  0  0  0  0  0  0  0  0  0
    0.9916    1.0306   -0.6911 O   0  0  0  0  0  0  0  0  0  0  0  0
    0.4419   -0.8316    0.2304 N   0  0  0  0  0  0  0  0  0  0  0  0
    1.0993   -1.1409   -0.4824 H   0  0  0  0  0  0  0  0  0  0  0  0
    0.8877   -1.2128    1.5673 C   0  0  0  0  0  0  0  0  0  0  0  0
    0.6121   -0.4621    2.3160 H   0  0  0  0  0  0  0  0  0  0  0  0
    0.4413   -2.1700    1.8561 H   0  0  0  0  0  0  0  0  0  0  0  0
    1.9772   -1.3185    1.5834 H   0  0  0  0  0  0  0  0  0  0  0  0
  1  2  1  0  0  0  0
  2  3  1  0  0  0  0
  2  4  1  0  0  0  0
  2  5  1  0  0  0  0
  5  6  2  0  0  0  0
  5  7  1  0  0  0  0
  7  8  1  0  0  0  0
  7  9  1  0  0  0  0
  9 10  1  0  0  0  0
  9 11  1  0  0  0  0
  9 27  1  0  0  0  0
 11 12  1  0  0  0  0
 11 13  1  0  0  0  0
 11 14  1  0  0  0  0
 14 15  1  0  0  0  0
 14 16  1  0  0  0  0
 14 17  1  0  0  0  0
 17 18  1  0  0  0  0
 17 19  1  0  0  0  0
 17 20  1  0  0  0  0
 20 21  1  0  0  0  0
 20 22  1  0  0  0  0
 20 23  1  0  0  0  0
 23 24  1  0  0  0  0
 23 25  1  0  0  0  0
 23 26  1  0  0  0  0
 27 28  2  0  0  0  0
 27 29  1  0  0  0  0
 29 30  1  0  0  0  0
 29 31  1  0  0  0  0
 31 32  1  0  0  0  0
 31 33  1  0  0  0  0
 31 34  1  0  0  0  0
M  CHG  1  23   1
M  END
$$$$

  -OEChem-01062216093D

 34 33  0     1  0  0  0  0  0999 V2000
   -4.1605   -2.2472    1.0656 H   0  0  0  0  0  0  0  0  0  0  0  0
   -4.0437   -1.2612    0.6059 C   0  0  0  0  0  0  0  0  0  0  0  0
   -4.8589   -0.6176    0.9450 H   0  0  0  0  0  0  0  0  0  0  0  0
   -4.1027   -1.3740   -0.4796 H   0  0  0  0  0  0  0  0  0  0  0  0
   -2.7075   -0.6582    0.9963 C   0  0  0  0  0  0  0  0  0  0  0  0
   -2.0299   -1.2109    1.8418 O   0  0  0  0  0  0  0  0  0  0  0  0
   -2.3367    0.5654    0.4700 N   0  0  0  0  0  0  0  0  0  0  0  0
   -3.0067    0.9194   -0.2063 H   0  0  0  0  0  0  0  0  0  0  0  0
   -0.9862    1.1879    0.3998 C   0  0  1  0  0  0  0  0  0  0  0  0
   -0.8679    1.6065   -0.6046 H   0  0  0  0  0  0  0  0  0  0  0  0
   -1.0166    2.3407    1.4357 C   0  0  0  0  0  0  0  0  0  0  0  0
   -1.3099    1.9323    2.4096 H   0  0  0  0  0  0  0  0  0  0  0  0
   -0.0138    2.7641    1.5541 H   0  0  0  0  0  0  0  0  0  0  0  0
   -1.9546    3.4920    1.0410 C   0  0  0  0  0  0  0  0  0  0  0  0
   -1.6481    3.8968    0.0699 H   0  0  0  0  0  0  0  0  0  0  0  0
   -2.9810    3.1217    0.9476 H   0  0  0  0  0  0  0  0  0  0  0  0
   -1.8966    4.5912    2.1109 C   0  0  0  0  0  0  0  0  0  0  0  0
   -2.1779    4.1644    3.0802 H   0  0  0  0  0  0  0  0  0  0  0  0
   -0.8685    4.9634    2.1910 H   0  0  0  0  0  0  0  0  0  0  0  0
   -2.8369    5.7414    1.7609 C   0  0  0  0  0  0  0  0  0  0  0  0
   -2.5454    6.1649    0.7884 H   0  0  0  0  0  0  0  0  0  0  0  0
   -3.8608    5.3547    1.6537 H   0  0  0  0  0  0  0  0  0  0  0  0
   -2.7609    6.7592    2.8319 N   0  3  0  0  0  0  0  0  0  0  0  0
   -1.7998    7.0949    2.9252 H   0  0  0  0  0  0  0  0  0  0  0  0
   -3.3683    7.5514    2.6109 H   0  0  0  0  0  0  0  0  0  0  0  0
   -3.0557    6.3532    3.7224 H   0  0  0  0  0  0  0  0  0  0  0  0
    0.3284    0.3714    0.6253 C   0  0  0  0  0  0  0  0  0  0  0  0
    1.3867    0.9891    0.6184 O   0  0  0  0  0  0  0  0  0  0  0  0
    0.4038   -1.0082    0.6127 N   0  0  0  0  0  0  0  0  0  0  0  0
   -0.4580   -1.4834    0.8836 H   0  0  0  0  0  0  0  0  0  0  0  0
    1.6557   -1.7339    0.8042 C   0  0  0  0  0  0  0  0  0  0  0  0
    2.0936   -1.4949    1.7790 H   0  0  0  0  0  0  0  0  0  0  0  0
    1.4767   -2.8125    0.7597 H   0  0  0  0  0  0  0  0  0  0  0  0
    2.3763   -1.4739    0.0215 H   0  0  0  0  0  0  0  0  0  0  0  0
  1  2  1  0  0  0  0
  2  3  1  0  0  0  0
  2  4  1  0  0  0  0
  2  5  1  0  0  0  0
  5  6  2  0  0  0  0
  5  7  1  0  0  0  0
  7  8  1  0  0  0  0
  7  9  1  0  0  0  0
  9 10  1  0  0  0  0
  9 11  1  0  0  0  0
  9 27  1  0  0  0  0
 11 12  1  0  0  0  0
 11 13  1  0  0  0  0
 11 14  1  0  0  0  0
 14 15  1  0  0  0  0
 14 16  1  0  0  0  0
 14 17  1  0  0  0  0
 17 18  1  0  0  0  0
 17 19  1  0  0  0  0
 17 20  1  0  0  0  0
 20 21  1  0  0  0  0
 20 22  1  0  0  0  0
 20 23  1  0  0  0  0
 23 24  1  0  0  0  0
 23 25  1  0  0  0  0
 23 26  1  0  0  0  0
 27 28  2  0  0  0  0
 27 29  1  0  0  0  0
 29 30  1  0  0  0  0
 29 31  1  0  0  0  0
 31 32  1  0  0  0  0
 31 33  1  0  0  0  0
 31 34  1  0  0  0  0
M  CHG  1  23   1
M  END
$$$$

  -OEChem-01062216093D

 34 33  0     1  0  0  0  0  0999 V2000
   -4.1116   -2.2456    1.0897 H   0  0  0  0  0  0  0  0  0  0  0  0
   -4.0120   -1.2415    0.6666 C   0  0  0  0  0  0  0  0  0  0  0  0
   -4.7818   -0.6006    1.1029 H   0  0  0  0  0  0  0  0  0  0  0  0
   -4.1646   -1.3018   -0.4138 H   0  0  0  0  0  0  0  0  0  0  0  0
   -2.6348   -0.6812    0.9695 C   0  0  0  0  0  0  0  0  0  0  0  0
   -1.8863   -1.3068    1.6950 O   0  0  0  0  0  0  0  0  0  0  0  0
   -2.2828    0.5574    0.4636 N   0  0  0  0  0  0  0  0  0  0  0  0
   -2.9904    0.9586   -0.1443 H   0  0  0  0  0  0  0  0  0  0  0  0
   -0.9434    1.2041    0.4062 C   0  0  1  0  0  0  0  0  0  0  0  0
   -0.8210    1.6229   -0.5974 H   0  0  0  0  0  0  0  0  0  0  0  0
   -0.9969    2.3619    1.4369 C   0  0  0  0  0  0  0  0  0  0  0  0
   -1.2886    1.9528    2.4106 H   0  0  0  0  0  0  0  0  0  0  0  0
   -0.0029    2.8049    1.5576 H   0  0  0  0  0  0  0  0  0  0  0  0
   -1.9474    3.4994    1.0330 C   0  0  0  0  0  0  0  0  0  0  0  0
   -1.6423    3.9064    0.0625 H   0  0  0  0  0  0  0  0  0  0  0  0
   -2.9687    3.1165    0.9359 H   0  0  0  0  0  0  0  0  0  0  0  0
   -1.9066    4.6004    2.1018 C   0  0  0  0  0  0  0  0  0  0  0  0
   -2.1870    4.1708    3.0703 H   0  0  0  0  0  0  0  0  0  0  0  0
   -0.8832    4.9837    2.1861 H   0  0  0  0  0  0  0  0  0  0  0  0
   -2.8575    5.7412    1.7495 C   0  0  0  0  0  0  0  0  0  0  0  0
   -2.5677    6.1691    0.7783 H   0  0  0  0  0  0  0  0  0  0  0  0
   -3.8773    5.3444    1.6393 H   0  0  0  0  0  0  0  0  0  0  0  0
   -2.7943    6.7583    2.8220 N   0  3  0  0  0  0  0  0  0  0  0  0
   -1.8395    7.1134    2.9089 H   0  0  0  0  0  0  0  0  0  0  0  0
   -3.4192    7.5384    2.6071 H   0  0  0  0  0  0  0  0  0  0  0  0
   -3.0739    6.3447    3.7138 H   0  0  0  0  0  0  0  0  0  0  0  0
    0.3648    0.3754    0.6282 C   0  0  0  0  0  0  0  0  0  0  0  0
    1.4073    0.9719    0.8721 O   0  0  0  0  0  0  0  0  0  0  0  0
    0.4643   -0.9627    0.2949 N   0  0  0  0  0  0  0  0  0  0  0  0
   -0.4061   -1.4809    0.4137 H   0  0  0  0  0  0  0  0  0  0  0  0
    1.7051   -1.7150    0.4533 C   0  0  0  0  0  0  0  0  0  0  0  0
    2.0178   -1.7226    1.5028 H   0  0  0  0  0  0  0  0  0  0  0  0
    1.5643   -2.7494    0.1254 H   0  0  0  0  0  0  0  0  0  0  0  0
    2.5048   -1.2706   -0.1488 H   0  0  0  0  0  0  0  0  0  0  0  0
  1  2  1  0  0  0  0
  2  3  1  0  0  0  0
  2  4  1  0  0  0  0
  2  5  1  0  0  0  0
  5  6  2  0  0  0  0
  5  7  1  0  0  0  0
  7  8  1  0  0  0  0
  7  9  1  0  0  0  0
  9 10  1  0  0  0  0
  9 11  1  0  0  0  0
  9 27  1  0  0  0  0
 11 12  1  0  0  0  0
 11 13  1  0  0  0  0
 11 14  1  0  0  0  0
 14 15  1  0  0  0  0
 14 16  1  0  0  0  0
 14 17  1  0  0  0  0
 17 18  1  0  0  0  0
 17 19  1  0  0  0  0
 17 20  1  0  0  0  0
 20 21  1  0  0  0  0
 20 22  1  0  0  0  0
 20 23  1  0  0  0  0
 23 24  1  0  0  0  0
 23 25  1  0  0  0  0
 23 26  1  0  0  0  0
 27 28  2  0  0  0  0
 27 29  1  0  0  0  0
 29 30  1  0  0  0  0
 29 31  1  0  0  0  0
 31 32  1  0  0  0  0
 31 33  1  0  0  0  0
 31 34  1  0  0  0  0
M  CHG  1  23   1
M  END
$$$$

  -OEChem-01062216093D

 34 33  0     1  0  0  0  0  0999 V2000
   -4.0171   -2.2528    1.1461 H   0  0  0  0  0  0  0  0  0  0  0  0
   -3.9389   -1.2495    0.7161 C   0  0  0  0  0  0  0  0  0  0  0  0
   -4.6840   -0.6072    1.1911 H   0  0  0  0  0  0  0  0  0  0  0  0
   -4.1482   -1.3122   -0.3545 H   0  0  0  0  0  0  0  0  0  0  0  0
   -2.5465   -0.6911    0.9443 C   0  0  0  0  0  0  0  0  0  0  0  0
   -1.7446   -1.3447    1.5817 O   0  0  0  0  0  0  0  0  0  0  0  0
   -2.2282    0.5599    0.4439 N   0  0  0  0  0  0  0  0  0  0  0  0
   -2.9695    0.9850   -0.1042 H   0  0  0  0  0  0  0  0  0  0  0  0
   -0.9030    1.2334    0.3940 C   0  0  1  0  0  0  0  0  0  0  0  0
   -0.7762    1.6564   -0.6072 H   0  0  0  0  0  0  0  0  0  0  0  0
   -0.9741    2.3900    1.4245 C   0  0  0  0  0  0  0  0  0  0  0  0
   -1.2543    1.9765    2.3999 H   0  0  0  0  0  0  0  0  0  0  0  0
    0.0138    2.8485    1.5375 H   0  0  0  0  0  0  0  0  0  0  0  0
   -1.9415    3.5144    1.0240 C   0  0  0  0  0  0  0  0  0  0  0  0
   -1.6431    3.9284    0.0544 H   0  0  0  0  0  0  0  0  0  0  0  0
   -2.9571    3.1168    0.9274 H   0  0  0  0  0  0  0  0  0  0  0  0
   -1.9143    4.6134    2.0958 C   0  0  0  0  0  0  0  0  0  0  0  0
   -2.1862    4.1768    3.0636 H   0  0  0  0  0  0  0  0  0  0  0  0
   -0.8960    5.0107    2.1791 H   0  0  0  0  0  0  0  0  0  0  0  0
   -2.8815    5.7425    1.7498 C   0  0  0  0  0  0  0  0  0  0  0  0
   -2.6002    6.1778    0.7796 H   0  0  0  0  0  0  0  0  0  0  0  0
   -3.8959    5.3322    1.6409 H   0  0  0  0  0  0  0  0  0  0  0  0
   -2.8286    6.7558    2.8263 N   0  3  0  0  0  0  0  0  0  0  0  0
   -1.8792    7.1258    2.9099 H   0  0  0  0  0  0  0  0  0  0  0  0
   -3.4672    7.5265    2.6184 H   0  0  0  0  0  0  0  0  0  0  0  0
   -3.0968    6.3338    3.7177 H   0  0  0  0  0  0  0  0  0  0  0  0
    0.3927    0.3881    0.6217 C   0  0  0  0  0  0  0  0  0  0  0  0
    1.3775    0.8986    1.1433 O   0  0  0  0  0  0  0  0  0  0  0  0
    0.5564   -0.8375    0.0011 N   0  0  0  0  0  0  0  0  0  0  0  0
   -0.3122   -1.3492   -0.1355 H   0  0  0  0  0  0  0  0  0  0  0  0
    1.7682   -1.6340    0.1705 C   0  0  0  0  0  0  0  0  0  0  0  0
    1.9094   -1.8973    1.2243 H   0  0  0  0  0  0  0  0  0  0  0  0
    1.6985   -2.5577   -0.4121 H   0  0  0  0  0  0  0  0  0  0  0  0
    2.6473   -1.0784   -0.1737 H   0  0  0  0  0  0  0  0  0  0  0  0
  1  2  1  0  0  0  0
  2  3  1  0  0  0  0
  2  4  1  0  0  0  0
  2  5  1  0  0  0  0
  5  6  2  0  0  0  0
  5  7  1  0  0  0  0
  7  8  1  0  0  0  0
  7  9  1  0  0  0  0
  9 10  1  0  0  0  0
  9 11  1  0  0  0  0
  9 27  1  0  0  0  0
 11 12  1  0  0  0  0
 11 13  1  0  0  0  0
 11 14  1  0  0  0  0
 14 15  1  0  0  0  0
 14 16  1  0  0  0  0
 14 17  1  0  0  0  0
 17 18  1  0  0  0  0
 17 19  1  0  0  0  0
 17 20  1  0  0  0  0
 20 21  1  0  0  0  0
 20 22  1  0  0  0  0
 20 23  1  0  0  0  0
 23 24  1  0  0  0  0
 23 25  1  0  0  0  0
 23 26  1  0  0  0  0
 27 28  2  0  0  0  0
 27 29  1  0  0  0  0
 29 30  1  0  0  0  0
 29 31  1  0  0  0  0
 31 32  1  0  0  0  0
 31 33  1  0  0  0  0
 31 34  1  0  0  0  0
M  CHG  1  23   1
M  END
$$$$

  -OEChem-01062216093D

 34 33  0     1  0  0  0  0  0999 V2000
   -3.9042   -2.2889    1.1629 H   0  0  0  0  0  0  0  0  0  0  0  0
   -3.8588   -1.2775    0.7477 C   0  0  0  0  0  0  0  0  0  0  0  0
   -4.5930   -0.6552    1.2643 H   0  0  0  0  0  0  0  0  0  0  0  0
   -4.1113   -1.3251   -0.3142 H   0  0  0  0  0  0  0  0  0  0  0  0
   -2.4668   -0.7014    0.9290 C   0  0  0  0  0  0  0  0  0  0  0  0
   -1.6332   -1.3518    1.5276 O   0  0  0  0  0  0  0  0  0  0  0  0
   -2.1875    0.5582    0.4240 N   0  0  0  0  0  0  0  0  0  0  0  0
   -2.9552    0.9855   -0.0843 H   0  0  0  0  0  0  0  0  0  0  0  0
   -0.8797    1.2617    0.3780 C   0  0  1  0  0  0  0  0  0  0  0  0
   -0.7512    1.6847   -0.6229 H   0  0  0  0  0  0  0  0  0  0  0  0
   -0.9606    2.4184    1.4045 C   0  0  0  0  0  0  0  0  0  0  0  0
   -1.2273    2.0041    2.3836 H   0  0  0  0  0  0  0  0  0  0  0  0
    0.0261    2.8840    1.5040 H   0  0  0  0  0  0  0  0  0  0  0  0
   -1.9446    3.5298    1.0111 C   0  0  0  0  0  0  0  0  0  0  0  0
   -1.6599    3.9474    0.0389 H   0  0  0  0  0  0  0  0  0  0  0  0
   -2.9562    3.1197    0.9242 H   0  0  0  0  0  0  0  0  0  0  0  0
   -1.9190    4.6259    2.0853 C   0  0  0  0  0  0  0  0  0  0  0  0
   -2.1764    4.1838    3.0545 H   0  0  0  0  0  0  0  0  0  0  0  0
   -0.9043    5.0332    2.1595 H   0  0  0  0  0  0  0  0  0  0  0  0
   -2.9002    5.7466    1.7543 C   0  0  0  0  0  0  0  0  0  0  0  0
   -2.6341    6.1895    0.7832 H   0  0  0  0  0  0  0  0  0  0  0  0
   -3.9121    5.3271    1.6555 H   0  0  0  0  0  0  0  0  0  0  0  0
   -2.8434    6.7540    2.8362 N   0  3  0  0  0  0  0  0  0  0  0  0
   -1.8981    7.1370    2.9061 H   0  0  0  0  0  0  0  0  0  0  0  0
   -3.4965    7.5166    2.6448 H   0  0  0  0  0  0  0  0  0  0  0  0
   -3.0898    6.3222    3.7295 H   0  0  0  0  0  0  0  0  0  0  0  0
    0.4086    0.4141    0.6184 C   0  0  0  0  0  0  0  0  0  0  0  0
    1.2749    0.7849    1.4026 O   0  0  0  0  0  0  0  0  0  0  0  0
    0.6988   -0.6403   -0.2291 N   0  0  0  0  0  0  0  0  0  0  0  0
   -0.1020   -1.0498   -0.6998 H   0  0  0  0  0  0  0  0  0  0  0  0
    1.8655   -1.4937   -0.0272 C   0  0  0  0  0  0  0  0  0  0  0  0
    1.7961   -2.0124    0.9351 H   0  0  0  0  0  0  0  0  0  0  0  0
    1.9294   -2.2428   -0.8223 H   0  0  0  0  0  0  0  0  0  0  0  0
    2.7861   -0.9002   -0.0415 H   0  0  0  0  0  0  0  0  0  0  0  0
  1  2  1  0  0  0  0
  2  3  1  0  0  0  0
  2  4  1  0  0  0  0
  2  5  1  0  0  0  0
  5  6  2  0  0  0  0
  5  7  1  0  0  0  0
  7  8  1  0  0  0  0
  7  9  1  0  0  0  0
  9 10  1  0  0  0  0
  9 11  1  0  0  0  0
  9 27  1  0  0  0  0
 11 12  1  0  0  0  0
 11 13  1  0  0  0  0
 11 14  1  0  0  0  0
 14 15  1  0  0  0  0
 14 16  1  0  0  0  0
 14 17  1  0  0  0  0
 17 18  1  0  0  0  0
 17 19  1  0  0  0  0
 17 20  1  0  0  0  0
 20 21  1  0  0  0  0
 20 22  1  0  0  0  0
 20 23  1  0  0  0  0
 23 24  1  0  0  0  0
 23 25  1  0  0  0  0
 23 26  1  0  0  0  0
 27 28  2  0  0  0  0
 27 29  1  0  0  0  0
 29 30  1  0  0  0  0
 29 31  1  0  0  0  0
 31 32  1  0  0  0  0
 31 33  1  0  0  0  0
 31 34  1  0  0  0  0
M  CHG  1  23   1
M  END
$$$$

  -OEChem-01062216093D

 34 33  0     1  0  0  0  0  0999 V2000
   -3.8880   -2.2772    1.1941 H   0  0  0  0  0  0  0  0  0  0  0  0
   -3.8443   -1.2671    0.7759 C   0  0  0  0  0  0  0  0  0  0  0  0
   -4.5537   -0.6349    1.3148 H   0  0  0  0  0  0  0  0  0  0  0  0
   -4.1305   -1.3130   -0.2775 H   0  0  0  0  0  0  0  0  0  0  0  0
   -2.4405   -0.7078    0.9109 C   0  0  0  0  0  0  0  0  0  0  0  0
   -1.5899   -1.3806    1.4582 O   0  0  0  0  0  0  0  0  0  0  0  0
   -2.1686    0.5528    0.4031 N   0  0  0  0  0  0  0  0  0  0  0  0
   -2.9518    0.9971   -0.0646 H   0  0  0  0  0  0  0  0  0  0  0  0
   -0.8671    1.2659    0.3692 C   0  0  1  0  0  0  0  0  0  0  0  0
   -0.7316    1.6924   -0.6293 H   0  0  0  0  0  0  0  0  0  0  0  0
   -0.9561    2.4191    1.3965 C   0  0  0  0  0  0  0  0  0  0  0  0
   -1.2264    2.0021    2.3736 H   0  0  0  0  0  0  0  0  0  0  0  0
    0.0326    2.8806    1.5000 H   0  0  0  0  0  0  0  0  0  0  0  0
   -1.9418    3.5286    1.0035 C   0  0  0  0  0  0  0  0  0  0  0  0
   -1.6547    3.9504    0.0338 H   0  0  0  0  0  0  0  0  0  0  0  0
   -2.9518    3.1156    0.9111 H   0  0  0  0  0  0  0  0  0  0  0  0
   -1.9223    4.6208    2.0817 C   0  0  0  0  0  0  0  0  0  0  0  0
   -2.1819    4.1742    3.0483 H   0  0  0  0  0  0  0  0  0  0  0  0
   -0.9087    5.0300    2.1616 H   0  0  0  0  0  0  0  0  0  0  0  0
   -2.9053    5.7400    1.7517 C   0  0  0  0  0  0  0  0  0  0  0  0
   -2.6365    6.1871    0.7831 H   0  0  0  0  0  0  0  0  0  0  0  0
   -3.9159    5.3186    1.6474 H   0  0  0  0  0  0  0  0  0  0  0  0
   -2.8549    6.7439    2.8372 N   0  3  0  0  0  0  0  0  0  0  0  0
   -1.9110    7.1293    2.9119 H   0  0  0  0  0  0  0  0  0  0  0  0
   -3.5096    7.5056    2.6465 H   0  0  0  0  0  0  0  0  0  0  0  0
   -3.1033    6.3081    3.7279 H   0  0  0  0  0  0  0  0  0  0  0  0
    0.4165    0.4199    0.6301 C   0  0  0  0  0  0  0  0  0  0  0  0
    1.1467    0.6526    1.5873 O   0  0  0  0  0  0  0  0  0  0  0  0
    0.8831   -0.4218   -0.3640 N   0  0  0  0  0  0  0  0  0  0  0  0
    0.1968   -0.7203   -1.0498 H   0  0  0  0  0  0  0  0  0  0  0  0
    2.0581   -1.2665   -0.1712 C   0  0  0  0  0  0  0  0  0  0  0  0
    1.8880   -1.9751    0.6468 H   0  0  0  0  0  0  0  0  0  0  0  0
    2.2722   -1.8328   -1.0827 H   0  0  0  0  0  0  0  0  0  0  0  0
    2.9375   -0.6588    0.0681 H   0  0  0  0  0  0  0  0  0  0  0  0
  1  2  1  0  0  0  0
  2  3  1  0  0  0  0
  2  4  1  0  0  0  0
  2  5  1  0  0  0  0
  5  6  2  0  0  0  0
  5  7  1  0  0  0  0
  7  8  1  0  0  0  0
  7  9  1  0  0  0  0
  9 10  1  0  0  0  0
  9 11  1  0  0  0  0
  9 27  1  0  0  0  0
 11 12  1  0  0  0  0
 11 13  1  0  0  0  0
 11 14  1  0  0  0  0
 14 15  1  0  0  0  0
 14 16  1  0  0  0  0
 14 17  1  0  0  0  0
 17 18  1  0  0  0  0
 17 19  1  0  0  0  0
 17 20  1  0  0  0  0
 20 21  1  0  0  0  0
 20 22  1  0  0  0  0
 20 23  1  0  0  0  0
 23 24  1  0  0  0  0
 23 25  1  0  0  0  0
 23 26  1  0  0  0  0
 27 28  2  0  0  0  0
 27 29  1  0  0  0  0
 29 30  1  0  0  0  0
 29 31  1  0  0  0  0
 31 32  1  0  0  0  0
 31 33  1  0  0  0  0
 31 34  1  0  0  0  0
M  CHG  1  23   1
M  END
$$$$

  -OEChem-01062216093D

 34 33  0     1  0  0  0  0  0999 V2000
   -3.9133   -2.2600    1.2215 H   0  0  0  0  0  0  0  0  0  0  0  0
   -3.8601   -1.2530    0.7969 C   0  0  0  0  0  0  0  0  0  0  0  0
   -4.5420   -0.6037    1.3507 H   0  0  0  0  0  0  0  0  0  0  0  0
   -4.1743   -1.2981   -0.2487 H   0  0  0  0  0  0  0  0  0  0  0  0
   -2.4424   -0.7214    0.8924 C   0  0  0  0  0  0  0  0  0  0  0  0
   -1.5850   -1.4237    1.3893 O   0  0  0  0  0  0  0  0  0  0  0  0
   -2.1660    0.5387    0.3854 N   0  0  0  0  0  0  0  0  0  0  0  0
   -2.9580    1.0025   -0.0467 H   0  0  0  0  0  0  0  0  0  0  0  0
   -0.8660    1.2537    0.3641 C   0  0  1  0  0  0  0  0  0  0  0  0
   -0.7248    1.6823   -0.6325 H   0  0  0  0  0  0  0  0  0  0  0  0
   -0.9577    2.4051    1.3921 C   0  0  0  0  0  0  0  0  0  0  0  0
   -1.2372    1.9875    2.3664 H   0  0  0  0  0  0  0  0  0  0  0  0
    0.0346    2.8575    1.5030 H   0  0  0  0  0  0  0  0  0  0  0  0
   -1.9385    3.5187    0.9981 C   0  0  0  0  0  0  0  0  0  0  0  0
   -1.6466    3.9421    0.0307 H   0  0  0  0  0  0  0  0  0  0  0  0
   -2.9493    3.1090    0.9011 H   0  0  0  0  0  0  0  0  0  0  0  0
   -1.9208    4.6087    2.0792 C   0  0  0  0  0  0  0  0  0  0  0  0
   -2.1858    4.1610    3.0440 H   0  0  0  0  0  0  0  0  0  0  0  0
   -0.9065    5.0152    2.1642 H   0  0  0  0  0  0  0  0  0  0  0  0
   -2.8997    5.7315    1.7473 C   0  0  0  0  0  0  0  0  0  0  0  0
   -2.6257    6.1794    0.7808 H   0  0  0  0  0  0  0  0  0  0  0  0
   -3.9107    5.3124    1.6381 H   0  0  0  0  0  0  0  0  0  0  0  0
   -2.8528    6.7339    2.8347 N   0  3  0  0  0  0  0  0  0  0  0  0
   -1.9085    7.1175    2.9149 H   0  0  0  0  0  0  0  0  0  0  0  0
   -3.5052    7.4971    2.6414 H   0  0  0  0  0  0  0  0  0  0  0  0
   -3.1068    6.2976    3.7237 H   0  0  0  0  0  0  0  0  0  0  0  0
    0.4177    0.4146    0.6413 C   0  0  0  0  0  0  0  0  0  0  0  0
    1.0081    0.5043    1.7124 O   0  0  0  0  0  0  0  0  0  0  0  0
    1.0777   -0.1804   -0.4195 N   0  0  0  0  0  0  0  0  0  0  0  0
    0.5238   -0.3555   -1.2518 H   0  0  0  0  0  0  0  0  0  0  0  0
    2.2893   -0.9726   -0.2308 C   0  0  0  0  0  0  0  0  0  0  0  0
    2.0864   -1.8312    0.4187 H   0  0  0  0  0  0  0  0  0  0  0  0
    2.6548   -1.3433   -1.1934 H   0  0  0  0  0  0  0  0  0  0  0  0
    3.0800   -0.3672    0.2254 H   0  0  0  0  0  0  0  0  0  0  0  0
  1  2  1  0  0  0  0
  2  3  1  0  0  0  0
  2  4  1  0  0  0  0
  2  5  1  0  0  0  0
  5  6  2  0  0  0  0
  5  7  1  0  0  0  0
  7  8  1  0  0  0  0
  7  9  1  0  0  0  0
  9 10  1  0  0  0  0
  9 11  1  0  0  0  0
  9 27  1  0  0  0  0
 11 12  1  0  0  0  0
 11 13  1  0  0  0  0
 11 14  1  0  0  0  0
 14 15  1  0  0  0  0
 14 16  1  0  0  0  0
 14 17  1  0  0  0  0
 17 18  1  0  0  0  0
 17 19  1  0  0  0  0
 17 20  1  0  0  0  0
 20 21  1  0  0  0  0
 20 22  1  0  0  0  0
 20 23  1  0  0  0  0
 23 24  1  0  0  0  0
 23 25  1  0  0  0  0
 23 26  1  0  0  0  0
 27 28  2  0  0  0  0
 27 29  1  0  0  0  0
 29 30  1  0  0  0  0
 29 31  1  0  0  0  0
 31 32  1  0  0  0  0
 31 33  1  0  0  0  0
 31 34  1  0  0  0  0
M  CHG  1  23   1
M  END
$$$$

  -OEChem-01062216093D

 34 33  0     1  0  0  0  0  0999 V2000
   -3.9556   -2.2344    1.2526 H   0  0  0  0  0  0  0  0  0  0  0  0
   -3.8904   -1.2313    0.8206 C   0  0  0  0  0  0  0  0  0  0  0  0
   -4.5371   -0.5625    1.3929 H   0  0  0  0  0  0  0  0  0  0  0  0
   -4.2396   -1.2737   -0.2139 H   0  0  0  0  0  0  0  0  0  0  0  0
   -2.4571   -0.7363    0.8668 C   0  0  0  0  0  0  0  0  0  0  0  0
   -1.5981   -1.4750    1.3038 O   0  0  0  0  0  0  0  0  0  0  0  0
   -2.1697    0.5223    0.3623 N   0  0  0  0  0  0  0  0  0  0  0  0
   -2.9685    1.0123   -0.0253 H   0  0  0  0  0  0  0  0  0  0  0  0
   -0.8678    1.2338    0.3545 C   0  0  1  0  0  0  0  0  0  0  0  0
   -0.7221    1.6656   -0.6398 H   0  0  0  0  0  0  0  0  0  0  0  0
   -0.9598    2.3817    1.3856 C   0  0  0  0  0  0  0  0  0  0  0  0
   -1.2508    1.9623    2.3559 H   0  0  0  0  0  0  0  0  0  0  0  0
    0.0361    2.8238    1.5072 H   0  0  0  0  0  0  0  0  0  0  0  0
   -1.9323    3.5020    0.9898 C   0  0  0  0  0  0  0  0  0  0  0  0
   -1.6322    3.9274    0.0258 H   0  0  0  0  0  0  0  0  0  0  0  0
   -2.9446    3.0979    0.8848 H   0  0  0  0  0  0  0  0  0  0  0  0
   -1.9160    4.5883    2.0747 C   0  0  0  0  0  0  0  0  0  0  0  0
   -2.1899    4.1386    3.0359 H   0  0  0  0  0  0  0  0  0  0  0  0
   -0.9003    4.9893    2.1679 H   0  0  0  0  0  0  0  0  0  0  0  0
   -2.8871    5.7172    1.7405 C   0  0  0  0  0  0  0  0  0  0  0  0
   -2.6048    6.1669    0.7772 H   0  0  0  0  0  0  0  0  0  0  0  0
   -3.8994    5.3036    1.6233 H   0  0  0  0  0  0  0  0  0  0  0  0
   -2.8426    6.7161    2.8312 N   0  3  0  0  0  0  0  0  0  0  0  0
   -1.8977    7.0966    2.9178 H   0  0  0  0  0  0  0  0  0  0  0  0
   -3.4915    7.4818    2.6371 H   0  0  0  0  0  0  0  0  0  0  0  0
   -3.1027    6.2780    3.7175 H   0  0  0  0  0  0  0  0  0  0  0  0
    0.4182    0.4036    0.6464 C   0  0  0  0  0  0  0  0  0  0  0  0
    0.8739    0.3465    1.7834 O   0  0  0  0  0  0  0  0  0  0  0  0
    1.2624    0.0745   -0.4004 N   0  0  0  0  0  0  0  0  0  0  0  0
    0.8462    0.0383   -1.3256 H   0  0  0  0  0  0  0  0  0  0  0  0
    2.5182   -0.6403   -0.1903 C   0  0  0  0  0  0  0  0  0  0  0  0
    2.3299   -1.6159    0.2713 H   0  0  0  0  0  0  0  0  0  0  0  0
    3.0287   -0.8003   -1.1450 H   0  0  0  0  0  0  0  0  0  0  0  0
    3.1849   -0.0663    0.4622 H   0  0  0  0  0  0  0  0  0  0  0  0
  1  2  1  0  0  0  0
  2  3  1  0  0  0  0
  2  4  1  0  0  0  0
  2  5  1  0  0  0  0
  5  6  2  0  0  0  0
  5  7  1  0  0  0  0
  7  8  1  0  0  0  0
  7  9  1  0  0  0  0
  9 10  1  0  0  0  0
  9 11  1  0  0  0  0
  9 27  1  0  0  0  0
 11 12  1  0  0  0  0
 11 13  1  0  0  0  0
 11 14  1  0  0  0  0
 14 15  1  0  0  0  0
 14 16  1  0  0  0  0
 14 17  1  0  0  0  0
 17 18  1  0  0  0  0
 17 19  1  0  0  0  0
 17 20  1  0  0  0  0
 20 21  1  0  0  0  0
 20 22  1  0  0  0  0
 20 23  1  0  0  0  0
 23 24  1  0  0  0  0
 23 25  1  0  0  0  0
 23 26  1  0  0  0  0
 27 28  2  0  0  0  0
 27 29  1  0  0  0  0
 29 30  1  0  0  0  0
 29 31  1  0  0  0  0
 31 32  1  0  0  0  0
 31 33  1  0  0  0  0
 31 34  1  0  0  0  0
M  CHG  1  23   1
M  END
$$$$

  -OEChem-01062216093D

 34 33  0     1  0  0  0  0  0999 V2000
   -3.9990   -2.2016    1.2884 H   0  0  0  0  0  0  0  0  0  0  0  0
   -3.9215   -1.2029    0.8486 C   0  0  0  0  0  0  0  0  0  0  0  0
   -4.5229   -0.5124    1.4437 H   0  0  0  0  0  0  0  0  0  0  0  0
   -4.3146   -1.2385   -0.1701 H   0  0  0  0  0  0  0  0  0  0  0  0
   -2.4725   -0.7526    0.8307 C   0  0  0  0  0  0  0  0  0  0  0  0
   -1.6149   -1.5388    1.1767 O   0  0  0  0  0  0  0  0  0  0  0  0
   -2.1714    0.5054    0.3324 N   0  0  0  0  0  0  0  0  0  0  0  0
   -2.9772    1.0282    0.0085 H   0  0  0  0  0  0  0  0  0  0  0  0
   -0.8663    1.2120    0.3397 C   0  0  1  0  0  0  0  0  0  0  0  0
   -0.7164    1.6460   -0.6531 H   0  0  0  0  0  0  0  0  0  0  0  0
   -0.9582    2.3541    1.3766 C   0  0  0  0  0  0  0  0  0  0  0  0
   -1.2603    1.9308    2.3417 H   0  0  0  0  0  0  0  0  0  0  0  0
    0.0400    2.7868    1.5102 H   0  0  0  0  0  0  0  0  0  0  0  0
   -1.9216    3.4822    0.9808 C   0  0  0  0  0  0  0  0  0  0  0  0
   -1.6128    3.9114    0.0210 H   0  0  0  0  0  0  0  0  0  0  0  0
   -2.9352    3.0840    0.8660 H   0  0  0  0  0  0  0  0  0  0  0  0
   -1.9077    4.5633    2.0708 C   0  0  0  0  0  0  0  0  0  0  0  0
   -2.1908    4.1104    3.0280 H   0  0  0  0  0  0  0  0  0  0  0  0
   -0.8908    4.9590    2.1735 H   0  0  0  0  0  0  0  0  0  0  0  0
   -2.8712    5.6980    1.7331 C   0  0  0  0  0  0  0  0  0  0  0  0
   -2.5794    6.1499    0.7738 H   0  0  0  0  0  0  0  0  0  0  0  0
   -3.8840    5.2886    1.6059 H   0  0  0  0  0  0  0  0  0  0  0  0
   -2.8324    6.6939    2.8267 N   0  3  0  0  0  0  0  0  0  0  0  0
   -1.8871    7.0713    2.9221 H   0  0  0  0  0  0  0  0  0  0  0  0
   -3.4773    7.4623    2.6289 H   0  0  0  0  0  0  0  0  0  0  0  0
   -3.1016    6.2545    3.7097 H   0  0  0  0  0  0  0  0  0  0  0  0
    0.4226    0.3917    0.6438 C   0  0  0  0  0  0  0  0  0  0  0  0
    0.7515    0.1819    1.8060 O   0  0  0  0  0  0  0  0  0  0  0  0
    1.4246    0.3341   -0.3110 N   0  0  0  0  0  0  0  0  0  0  0  0
    1.1392    0.4457   -1.2786 H   0  0  0  0  0  0  0  0  0  0  0  0
    2.7129   -0.3028   -0.0508 C   0  0  0  0  0  0  0  0  0  0  0  0
    2.5719   -1.3565    0.2136 H   0  0  0  0  0  0  0  0  0  0  0  0
    3.3496   -0.2499   -0.9393 H   0  0  0  0  0  0  0  0  0  0  0  0
    3.2326    0.1984    0.7728 H   0  0  0  0  0  0  0  0  0  0  0  0
  1  2  1  0  0  0  0
  2  3  1  0  0  0  0
  2  4  1  0  0  0  0
  2  5  1  0  0  0  0
  5  6  2  0  0  0  0
  5  7  1  0  0  0  0
  7  8  1  0  0  0  0
  7  9  1  0  0  0  0
  9 10  1  0  0  0  0
  9 11  1  0  0  0  0
  9 27  1  0  0  0  0
 11 12  1  0  0  0  0
 11 13  1  0  0  0  0
 11 14  1  0  0  0  0
 14 15  1  0  0  0  0
 14 16  1  0  0  0  0
 14 17  1  0  0  0  0
 17 18  1  0  0  0  0
 17 19  1  0  0  0  0
 17 20  1  0  0  0  0
 20 21  1  0  0  0  0
 20 22  1  0  0  0  0
 20 23  1  0  0  0  0
 23 24  1  0  0  0  0
 23 25  1  0  0  0  0
 23 26  1  0  0  0  0
 27 28  2  0  0  0  0
 27 29  1  0  0  0  0
 29 30  1  0  0  0  0
 29 31  1  0  0  0  0
 31 32  1  0  0  0  0
 31 33  1  0  0  0  0
 31 34  1  0  0  0  0
M  CHG  1  23   1
M  END
$$$$

  -OEChem-01062216093D

 34 33  0     1  0  0  0  0  0999 V2000
   -4.0269   -2.1433    1.3464 H   0  0  0  0  0  0  0  0  0  0  0  0
   -3.9434   -1.1411    0.9154 C   0  0  0  0  0  0  0  0  0  0  0  0
   -4.4434   -0.4335    1.5803 H   0  0  0  0  0  0  0  0  0  0  0  0
   -4.4404   -1.1358   -0.0576 H   0  0  0  0  0  0  0  0  0  0  0  0
   -2.4822   -0.7650    0.7548 C   0  0  0  0  0  0  0  0  0  0  0  0
   -1.6390   -1.6211    0.9278 O   0  0  0  0  0  0  0  0  0  0  0  0
   -2.1670    0.4946    0.2704 N   0  0  0  0  0  0  0  0  0  0  0  0
   -2.9775    1.0658    0.0622 H   0  0  0  0  0  0  0  0  0  0  0  0
   -0.8562    1.1900    0.3051 C   0  0  1  0  0  0  0  0  0  0  0  0
   -0.6917    1.6315   -0.6817 H   0  0  0  0  0  0  0  0  0  0  0  0
   -0.9553    2.3181    1.3565 C   0  0  0  0  0  0  0  0  0  0  0  0
   -1.2739    1.8840    2.3117 H   0  0  0  0  0  0  0  0  0  0  0  0
    0.0440    2.7415    1.5114 H   0  0  0  0  0  0  0  0  0  0  0  0
   -1.9058    3.4582    0.9602 C   0  0  0  0  0  0  0  0  0  0  0  0
   -1.5794    3.8965    0.0105 H   0  0  0  0  0  0  0  0  0  0  0  0
   -2.9200    3.0685    0.8245 H   0  0  0  0  0  0  0  0  0  0  0  0
   -1.9046    4.5275    2.0622 C   0  0  0  0  0  0  0  0  0  0  0  0
   -2.2066    4.0662    3.0095 H   0  0  0  0  0  0  0  0  0  0  0  0
   -0.8877    4.9168    2.1861 H   0  0  0  0  0  0  0  0  0  0  0  0
   -2.8566    5.6717    1.7213 C   0  0  0  0  0  0  0  0  0  0  0  0
   -2.5461    6.1327    0.7720 H   0  0  0  0  0  0  0  0  0  0  0  0
   -3.8698    5.2704    1.5722 H   0  0  0  0  0  0  0  0  0  0  0  0
   -2.8308    6.6553    2.8266 N   0  3  0  0  0  0  0  0  0  0  0  0
   -1.8837    7.0210    2.9469 H   0  0  0  0  0  0  0  0  0  0  0  0
   -3.4625    7.4331    2.6231 H   0  0  0  0  0  0  0  0  0  0  0  0
   -3.1244    6.2096    3.6985 H   0  0  0  0  0  0  0  0  0  0  0  0
    0.4304    0.3732    0.6244 C   0  0  0  0  0  0  0  0  0  0  0  0
    0.6334   -0.0010    1.7735 O   0  0  0  0  0  0  0  0  0  0  0  0
    1.5569    0.5742   -0.1578 N   0  0  0  0  0  0  0  0  0  0  0  0
    1.3993    0.8411   -1.1244 H   0  0  0  0  0  0  0  0  0  0  0  0
    2.8611    0.0144    0.1892 C   0  0  0  0  0  0  0  0  0  0  0  0
    2.7933   -1.0724    0.3098 H   0  0  0  0  0  0  0  0  0  0  0  0
    3.5892    0.2300   -0.5987 H   0  0  0  0  0  0  0  0  0  0  0  0
    3.2291    0.4484    1.1250 H   0  0  0  0  0  0  0  0  0  0  0  0
  1  2  1  0  0  0  0
  2  3  1  0  0  0  0
  2  4  1  0  0  0  0
  2  5  1  0  0  0  0
  5  6  2  0  0  0  0
  5  7  1  0  0  0  0
  7  8  1  0  0  0  0
  7  9  1  0  0  0  0
  9 10  1  0  0  0  0
  9 11  1  0  0  0  0
  9 27  1  0  0  0  0
 11 12  1  0  0  0  0
 11 13  1  0  0  0  0
 11 14  1  0  0  0  0
 14 15  1  0  0  0  0
 14 16  1  0  0  0  0
 14 17  1  0  0  0  0
 17 18  1  0  0  0  0
 17 19  1  0  0  0  0
 17 20  1  0  0  0  0
 20 21  1  0  0  0  0
 20 22  1  0  0  0  0
 20 23  1  0  0  0  0
 23 24  1  0  0  0  0
 23 25  1  0  0  0  0
 23 26  1  0  0  0  0
 27 28  2  0  0  0  0
 27 29  1  0  0  0  0
 29 30  1  0  0  0  0
 29 31  1  0  0  0  0
 31 32  1  0  0  0  0
 31 33  1  0  0  0  0
 31 34  1  0  0  0  0
M  CHG  1  23   1
M  END
$$$$

  -OEChem-01062216093D

 34 33  0     1  0  0  0  0  0999 V2000
   -3.9320   -2.0932    1.4307 H   0  0  0  0  0  0  0  0  0  0  0  0
   -3.8748   -1.0679    1.0525 C   0  0  0  0  0  0  0  0  0  0  0  0
   -4.1839   -0.3855    1.8471 H   0  0  0  0  0  0  0  0  0  0  0  0
   -4.5557   -0.9667    0.2041 H   0  0  0  0  0  0  0  0  0  0  0  0
   -2.4550   -0.7555    0.6199 C   0  0  0  0  0  0  0  0  0  0  0  0
   -1.6697   -1.6720    0.4771 O   0  0  0  0  0  0  0  0  0  0  0  0
   -2.1526    0.5162    0.1621 N   0  0  0  0  0  0  0  0  0  0  0  0
   -2.9595    1.1279    0.1531 H   0  0  0  0  0  0  0  0  0  0  0  0
   -0.8370    1.1979    0.2496 C   0  0  1  0  0  0  0  0  0  0  0  0
   -0.6417    1.6585   -0.7232 H   0  0  0  0  0  0  0  0  0  0  0  0
   -0.9581    2.2981    1.3271 C   0  0  0  0  0  0  0  0  0  0  0  0
   -1.3062    1.8424    2.2616 H   0  0  0  0  0  0  0  0  0  0  0  0
    0.0381    2.7118    1.5214 H   0  0  0  0  0  0  0  0  0  0  0  0
   -1.8905    3.4526    0.9274 C   0  0  0  0  0  0  0  0  0  0  0  0
   -1.5318    3.9094   -0.0018 H   0  0  0  0  0  0  0  0  0  0  0  0
   -2.9020    3.0730    0.7500 H   0  0  0  0  0  0  0  0  0  0  0  0
   -1.9218    4.4997    2.0498 C   0  0  0  0  0  0  0  0  0  0  0  0
   -2.2563    4.0217    2.9777 H   0  0  0  0  0  0  0  0  0  0  0  0
   -0.9084    4.8830    2.2147 H   0  0  0  0  0  0  0  0  0  0  0  0
   -2.8591    5.6536    1.6984 C   0  0  0  0  0  0  0  0  0  0  0  0
   -2.5159    6.1311    0.7685 H   0  0  0  0  0  0  0  0  0  0  0  0
   -3.8680    5.2587    1.5079 H   0  0  0  0  0  0  0  0  0  0  0  0
   -2.8685    6.6172    2.8217 N   0  3  0  0  0  0  0  0  0  0  0  0
   -1.9251    6.9766    2.9824 H   0  0  0  0  0  0  0  0  0  0  0  0
   -3.4894    7.4015    2.6096 H   0  0  0  0  0  0  0  0  0  0  0  0
   -3.1952    6.1577    3.6744 H   0  0  0  0  0  0  0  0  0  0  0  0
    0.4349    0.3671    0.5874 C   0  0  0  0  0  0  0  0  0  0  0  0
    0.4935   -0.2112    1.6657 O   0  0  0  0  0  0  0  0  0  0  0  0
    1.6526    0.7841    0.0714 N   0  0  0  0  0  0  0  0  0  0  0  0
    1.6298    1.2406   -0.8349 H   0  0  0  0  0  0  0  0  0  0  0  0
    2.9245    0.2131    0.5102 C   0  0  0  0  0  0  0  0  0  0  0  0
    2.9126   -0.8774    0.4046 H   0  0  0  0  0  0  0  0  0  0  0  0
    3.7474    0.6092   -0.0925 H   0  0  0  0  0  0  0  0  0  0  0  0
    3.1170    0.4610    1.5596 H   0  0  0  0  0  0  0  0  0  0  0  0
  1  2  1  0  0  0  0
  2  3  1  0  0  0  0
  2  4  1  0  0  0  0
  2  5  1  0  0  0  0
  5  6  2  0  0  0  0
  5  7  1  0  0  0  0
  7  8  1  0  0  0  0
  7  9  1  0  0  0  0
  9 10  1  0  0  0  0
  9 11  1  0  0  0  0
  9 27  1  0  0  0  0
 11 12  1  0  0  0  0
 11 13  1  0  0  0  0
 11 14  1  0  0  0  0
 14 15  1  0  0  0  0
 14 16  1  0  0  0  0
 14 17  1  0  0  0  0
 17 18  1  0  0  0  0
 17 19  1  0  0  0  0
 17 20  1  0  0  0  0
 20 21  1  0  0  0  0
 20 22  1  0  0  0  0
 20 23  1  0  0  0  0
 23 24  1  0  0  0  0
 23 25  1  0  0  0  0
 23 26  1  0  0  0  0
 27 28  2  0  0  0  0
 27 29  1  0  0  0  0
 29 30  1  0  0  0  0
 29 31  1  0  0  0  0
 31 32  1  0  0  0  0
 31 33  1  0  0  0  0
 31 34  1  0  0  0  0
M  CHG  1  23   1
M  END
$$$$

  -OEChem-01062216093D

 34 33  0     1  0  0  0  0  0999 V2000
   -3.4615   -2.4885    1.2189 H   0  0  0  0  0  0  0  0  0  0  0  0
   -3.3987   -1.6220    0.5543 C   0  0  0  0  0  0  0  0  0  0  0  0
   -4.4083   -1.2605    0.3471 H   0  0  0  0  0  0  0  0  0  0  0  0
   -2.9273   -1.9351   -0.3804 H   0  0  0  0  0  0  0  0  0  0  0  0
   -2.5739   -0.5310    1.2085 C   0  0  0  0  0  0  0  0  0  0  0  0
   -2.3495   -0.5621    2.4073 O   0  0  0  0  0  0  0  0  0  0  0  0
   -2.3277    0.6616    0.5549 N   0  0  0  0  0  0  0  0  0  0  0  0
   -2.8233    0.6825   -0.3308 H   0  0  0  0  0  0  0  0  0  0  0  0
   -0.9753    1.2695    0.4729 C   0  0  1  0  0  0  0  0  0  0  0  0
   -0.8282    1.6585   -0.5387 H   0  0  0  0  0  0  0  0  0  0  0  0
   -1.0018    2.4283    1.4953 C   0  0  0  0  0  0  0  0  0  0  0  0
   -1.3043    2.0332    2.4728 H   0  0  0  0  0  0  0  0  0  0  0  0
    0.0088    2.8345    1.6105 H   0  0  0  0  0  0  0  0  0  0  0  0
   -1.9374    3.5772    1.0873 C   0  0  0  0  0  0  0  0  0  0  0  0
   -1.6332    3.9700    0.1111 H   0  0  0  0  0  0  0  0  0  0  0  0
   -2.9637    3.2041    0.9981 H   0  0  0  0  0  0  0  0  0  0  0  0
   -1.8844    4.6899    2.1427 C   0  0  0  0  0  0  0  0  0  0  0  0
   -2.1728    4.2746    3.1153 H   0  0  0  0  0  0  0  0  0  0  0  0
   -0.8583    5.0649    2.2256 H   0  0  0  0  0  0  0  0  0  0  0  0
   -2.8269    5.8315    1.7697 C   0  0  0  0  0  0  0  0  0  0  0  0
   -2.5353    6.2400    0.7911 H   0  0  0  0  0  0  0  0  0  0  0  0
   -3.8481    5.4359    1.6656 H   0  0  0  0  0  0  0  0  0  0  0  0
   -2.7641    6.8691    2.8226 N   0  3  0  0  0  0  0  0  0  0  0  0
   -1.8126    7.2334    2.9002 H   0  0  0  0  0  0  0  0  0  0  0  0
   -3.3973    7.6396    2.5972 H   0  0  0  0  0  0  0  0  0  0  0  0
   -3.0385    6.4686    3.7227 H   0  0  0  0  0  0  0  0  0  0  0  0
    0.2928    0.4192    0.8050 C   0  0  0  0  0  0  0  0  0  0  0  0
    0.2510   -0.7757    1.0526 O   0  0  0  0  0  0  0  0  0  0  0  0
    1.5307    0.9133    0.4226 N   0  0  0  0  0  0  0  0  0  0  0  0
    1.5765    1.8626    0.0686 H   0  0  0  0  0  0  0  0  0  0  0  0
    2.7576    0.1194    0.4483 C   0  0  0  0  0  0  0  0  0  0  0  0
    2.6923   -0.7110   -0.2630 H   0  0  0  0  0  0  0  0  0  0  0  0
    3.6180    0.7391    0.1777 H   0  0  0  0  0  0  0  0  0  0  0  0
    2.9306   -0.2897    1.4498 H   0  0  0  0  0  0  0  0  0  0  0  0
  1  2  1  0  0  0  0
  2  3  1  0  0  0  0
  2  4  1  0  0  0  0
  2  5  1  0  0  0  0
  5  6  2  0  0  0  0
  5  7  1  0  0  0  0
  7  8  1  0  0  0  0
  7  9  1  0  0  0  0
  9 10  1  0  0  0  0
  9 11  1  0  0  0  0
  9 27  1  0  0  0  0
 11 12  1  0  0  0  0
 11 13  1  0  0  0  0
 11 14  1  0  0  0  0
 14 15  1  0  0  0  0
 14 16  1  0  0  0  0
 14 17  1  0  0  0  0
 17 18  1  0  0  0  0
 17 19  1  0  0  0  0
 17 20  1  0  0  0  0
 20 21  1  0  0  0  0
 20 22  1  0  0  0  0
 20 23  1  0  0  0  0
 23 24  1  0  0  0  0
 23 25  1  0  0  0  0
 23 26  1  0  0  0  0
 27 28  2  0  0  0  0
 27 29  1  0  0  0  0
 29 30  1  0  0  0  0
 29 31  1  0  0  0  0
 31 32  1  0  0  0  0
 31 33  1  0  0  0  0
 31 34  1  0  0  0  0
M  CHG  1  23   1
M  END
$$$$

  -OEChem-01062216093D

 34 33  0     1  0  0  0  0  0999 V2000
   -3.4885   -2.4732    1.1800 H   0  0  0  0  0  0  0  0  0  0  0  0
   -3.4467   -1.5784    0.5525 C   0  0  0  0  0  0  0  0  0  0  0  0
   -4.4434   -1.1347    0.5030 H   0  0  0  0  0  0  0  0  0  0  0  0
   -3.1308   -1.8722   -0.4516 H   0  0  0  0  0  0  0  0  0  0  0  0
   -2.4581   -0.5856    1.1315 C   0  0  0  0  0  0  0  0  0  0  0  0
   -1.9439   -0.7934    2.2196 O   0  0  0  0  0  0  0  0  0  0  0  0
   -2.2728    0.6514    0.5361 N   0  0  0  0  0  0  0  0  0  0  0  0
   -2.8113    0.7299   -0.3218 H   0  0  0  0  0  0  0  0  0  0  0  0
   -0.9417    1.3054    0.4767 C   0  0  1  0  0  0  0  0  0  0  0  0
   -0.8954    1.9350   -0.4168 H   0  0  0  0  0  0  0  0  0  0  0  0
   -0.8314    2.1897    1.7418 C   0  0  0  0  0  0  0  0  0  0  0  0
   -1.0119    1.5803    2.6341 H   0  0  0  0  0  0  0  0  0  0  0  0
    0.1860    2.5838    1.8230 H   0  0  0  0  0  0  0  0  0  0  0  0
   -1.8024    3.3804    1.7182 C   0  0  0  0  0  0  0  0  0  0  0  0
   -1.6129    3.9927    0.8298 H   0  0  0  0  0  0  0  0  0  0  0  0
   -2.8336    3.0137    1.6623 H   0  0  0  0  0  0  0  0  0  0  0  0
   -1.6242    4.2248    2.9867 C   0  0  0  0  0  0  0  0  0  0  0  0
   -1.7995    3.5933    3.8652 H   0  0  0  0  0  0  0  0  0  0  0  0
   -0.5946    4.5956    3.0360 H   0  0  0  0  0  0  0  0  0  0  0  0
   -2.6004    5.3988    2.9908 C   0  0  0  0  0  0  0  0  0  0  0  0
   -2.4197    6.0244    2.1042 H   0  0  0  0  0  0  0  0  0  0  0  0
   -3.6281    5.0139    2.9126 H   0  0  0  0  0  0  0  0  0  0  0  0
   -2.4156    6.1732    4.2380 N   0  3  0  0  0  0  0  0  0  0  0  0
   -1.4610    6.5341    4.2888 H   0  0  0  0  0  0  0  0  0  0  0  0
   -3.0694    6.9589    4.2654 H   0  0  0  0  0  0  0  0  0  0  0  0
   -2.5857    5.5734    5.0484 H   0  0  0  0  0  0  0  0  0  0  0  0
    0.2978    0.3592    0.4065 C   0  0  0  0  0  0  0  0  0  0  0  0
    0.1788   -0.7934    0.0124 O   0  0  0  0  0  0  0  0  0  0  0  0
    1.5757    0.8939    0.3526 N   0  0  0  0  0  0  0  0  0  0  0  0
    1.6910    1.8778    0.5682 H   0  0  0  0  0  0  0  0  0  0  0  0
    2.7659    0.0969    0.0629 C   0  0  0  0  0  0  0  0  0  0  0  0
    2.7234   -0.2988   -0.9576 H   0  0  0  0  0  0  0  0  0  0  0  0
    3.6676    0.7094    0.1587 H   0  0  0  0  0  0  0  0  0  0  0  0
    2.8455   -0.7437    0.7611 H   0  0  0  0  0  0  0  0  0  0  0  0
  1  2  1  0  0  0  0
  2  3  1  0  0  0  0
  2  4  1  0  0  0  0
  2  5  1  0  0  0  0
  5  6  2  0  0  0  0
  5  7  1  0  0  0  0
  7  8  1  0  0  0  0
  7  9  1  0  0  0  0
  9 10  1  0  0  0  0
  9 11  1  0  0  0  0
  9 27  1  0  0  0  0
 11 12  1  0  0  0  0
 11 13  1  0  0  0  0
 11 14  1  0  0  0  0
 14 15  1  0  0  0  0
 14 16  1  0  0  0  0
 14 17  1  0  0  0  0
 17 18  1  0  0  0  0
 17 19  1  0  0  0  0
 17 20  1  0  0  0  0
 20 21  1  0  0  0  0
 20 22  1  0  0  0  0
 20 23  1  0  0  0  0
 23 24  1  0  0  0  0
 23 25  1  0  0  0  0
 23 26  1  0  0  0  0
 27 28  2  0  0  0  0
 27 29  1  0  0  0  0
 29 30  1  0  0  0  0
 29 31  1  0  0  0  0
 31 32  1  0  0  0  0
 31 33  1  0  0  0  0
 31 34  1  0  0  0  0
M  CHG  1  23   1
M  END
$$$$

  -OEChem-01062216093D

 34 33  0     1  0  0  0  0  0999 V2000
   -3.4286   -2.4847    1.1527 H   0  0  0  0  0  0  0  0  0  0  0  0
   -3.4251   -1.5662    0.5589 C   0  0  0  0  0  0  0  0  0  0  0  0
   -4.4270   -1.1312    0.5748 H   0  0  0  0  0  0  0  0  0  0  0  0
   -3.1575   -1.8182   -0.4702 H   0  0  0  0  0  0  0  0  0  0  0  0
   -2.4163   -0.5855    1.1248 C   0  0  0  0  0  0  0  0  0  0  0  0
   -1.8407   -0.8289    2.1743 O   0  0  0  0  0  0  0  0  0  0  0  0
   -2.2568    0.6653    0.5511 N   0  0  0  0  0  0  0  0  0  0  0  0
   -2.8110    0.7567   -0.2956 H   0  0  0  0  0  0  0  0  0  0  0  0
   -0.9329    1.3315    0.4869 C   0  0  1  0  0  0  0  0  0  0  0  0
   -0.8918    1.9668   -0.4030 H   0  0  0  0  0  0  0  0  0  0  0  0
   -0.8222    2.2140    1.7539 C   0  0  0  0  0  0  0  0  0  0  0  0
   -0.9921    1.6008    2.6459 H   0  0  0  0  0  0  0  0  0  0  0  0
    0.1890    2.6239    1.8289 H   0  0  0  0  0  0  0  0  0  0  0  0
   -1.8069    3.3940    1.7317 C   0  0  0  0  0  0  0  0  0  0  0  0
   -1.6279    4.0056    0.8404 H   0  0  0  0  0  0  0  0  0  0  0  0
   -2.8336    3.0147    1.6803 H   0  0  0  0  0  0  0  0  0  0  0  0
   -1.6385    4.2464    2.9960 C   0  0  0  0  0  0  0  0  0  0  0  0
   -1.8041    3.6170    3.8780 H   0  0  0  0  0  0  0  0  0  0  0  0
   -0.6137    4.6314    3.0420 H   0  0  0  0  0  0  0  0  0  0  0  0
   -2.6313    5.4068    2.9935 C   0  0  0  0  0  0  0  0  0  0  0  0
   -2.4610    6.0293    2.1030 H   0  0  0  0  0  0  0  0  0  0  0  0
   -3.6534    5.0067    2.9188 H   0  0  0  0  0  0  0  0  0  0  0  0
   -2.4579    6.1915    4.2357 N   0  3  0  0  0  0  0  0  0  0  0  0
   -1.5086    6.5666    4.2841 H   0  0  0  0  0  0  0  0  0  0  0  0
   -3.1230    6.9679    4.2582 H   0  0  0  0  0  0  0  0  0  0  0  0
   -2.6190    5.5943    5.0498 H   0  0  0  0  0  0  0  0  0  0  0  0
    0.2880    0.3651    0.3822 C   0  0  0  0  0  0  0  0  0  0  0  0
    0.1649   -0.6815   -0.2418 O   0  0  0  0  0  0  0  0  0  0  0  0
    1.5817    0.8005    0.6225 N   0  0  0  0  0  0  0  0  0  0  0  0
    1.7030    1.6826    1.1065 H   0  0  0  0  0  0  0  0  0  0  0  0
    2.7587   -0.0308    0.3825 C   0  0  0  0  0  0  0  0  0  0  0  0
    2.8467   -0.2740   -0.6819 H   0  0  0  0  0  0  0  0  0  0  0  0
    3.6672    0.4954    0.6911 H   0  0  0  0  0  0  0  0  0  0  0  0
    2.6911   -0.9649    0.9508 H   0  0  0  0  0  0  0  0  0  0  0  0
  1  2  1  0  0  0  0
  2  3  1  0  0  0  0
  2  4  1  0  0  0  0
  2  5  1  0  0  0  0
  5  6  2  0  0  0  0
  5  7  1  0  0  0  0
  7  8  1  0  0  0  0
  7  9  1  0  0  0  0
  9 10  1  0  0  0  0
  9 11  1  0  0  0  0
  9 27  1  0  0  0  0
 11 12  1  0  0  0  0
 11 13  1  0  0  0  0
 11 14  1  0  0  0  0
 14 15  1  0  0  0  0
 14 16  1  0  0  0  0
 14 17  1  0  0  0  0
 17 18  1  0  0  0  0
 17 19  1  0  0  0  0
 17 20  1  0  0  0  0
 20 21  1  0  0  0  0
 20 22  1  0  0  0  0
 20 23  1  0  0  0  0
 23 24  1  0  0  0  0
 23 25  1  0  0  0  0
 23 26  1  0  0  0  0
 27 28  2  0  0  0  0
 27 29  1  0  0  0  0
 29 30  1  0  0  0  0
 29 31  1  0  0  0  0
 31 32  1  0  0  0  0
 31 33  1  0  0  0  0
 31 34  1  0  0  0  0
M  CHG  1  23   1
M  END
$$$$

  -OEChem-01062216093D

 34 33  0     1  0  0  0  0  0999 V2000
   -3.3262   -2.5218    1.0903 H   0  0  0  0  0  0  0  0  0  0  0  0
   -3.3912   -1.5698    0.5554 C   0  0  0  0  0  0  0  0  0  0  0  0
   -4.4016   -1.1698    0.6666 H   0  0  0  0  0  0  0  0  0  0  0  0
   -3.1889   -1.7512   -0.5032 H   0  0  0  0  0  0  0  0  0  0  0  0
   -2.3757   -0.5914    1.1126 C   0  0  0  0  0  0  0  0  0  0  0  0
   -1.7538   -0.8606    2.1291 O   0  0  0  0  0  0  0  0  0  0  0  0
   -2.2442    0.6733    0.5632 N   0  0  0  0  0  0  0  0  0  0  0  0
   -2.8114    0.7786   -0.2734 H   0  0  0  0  0  0  0  0  0  0  0  0
   -0.9298    1.3556    0.5016 C   0  0  1  0  0  0  0  0  0  0  0  0
   -0.8968    1.9953   -0.3857 H   0  0  0  0  0  0  0  0  0  0  0  0
   -0.8160    2.2391    1.7662 C   0  0  0  0  0  0  0  0  0  0  0  0
   -0.9746    1.6252    2.6598 H   0  0  0  0  0  0  0  0  0  0  0  0
    0.1912    2.6611    1.8287 H   0  0  0  0  0  0  0  0  0  0  0  0
   -1.8111    3.4094    1.7448 C   0  0  0  0  0  0  0  0  0  0  0  0
   -1.6407    4.0194    0.8508 H   0  0  0  0  0  0  0  0  0  0  0  0
   -2.8344    3.0201    1.6986 H   0  0  0  0  0  0  0  0  0  0  0  0
   -1.6471    4.2702    3.0033 C   0  0  0  0  0  0  0  0  0  0  0  0
   -1.8037    3.6453    3.8898 H   0  0  0  0  0  0  0  0  0  0  0  0
   -0.6269    4.6676    3.0437 H   0  0  0  0  0  0  0  0  0  0  0  0
   -2.6536    5.4182    2.9928 C   0  0  0  0  0  0  0  0  0  0  0  0
   -2.4905    6.0354    2.0971 H   0  0  0  0  0  0  0  0  0  0  0  0
   -3.6708    5.0054    2.9217 H   0  0  0  0  0  0  0  0  0  0  0  0
   -2.4891    6.2160    4.2277 N   0  3  0  0  0  0  0  0  0  0  0  0
   -1.5426    6.5981    4.2752 H   0  0  0  0  0  0  0  0  0  0  0  0
   -3.1594    6.9881    4.2402 H   0  0  0  0  0  0  0  0  0  0  0  0
   -2.6491    5.6262    5.0472 H   0  0  0  0  0  0  0  0  0  0  0  0
    0.2808    0.3833    0.3662 C   0  0  0  0  0  0  0  0  0  0  0  0
    0.1914   -0.5312   -0.4437 O   0  0  0  0  0  0  0  0  0  0  0  0
    1.5362    0.6714    0.8763 N   0  0  0  0  0  0  0  0  0  0  0  0
    1.5900    1.3716    1.6073 H   0  0  0  0  0  0  0  0  0  0  0  0
    2.6798   -0.2166    0.6864 C   0  0  0  0  0  0  0  0  0  0  0  0
    2.9102   -0.3246   -0.3791 H   0  0  0  0  0  0  0  0  0  0  0  0
    3.5637    0.1875    1.1891 H   0  0  0  0  0  0  0  0  0  0  0  0
    2.4680   -1.2082    1.1010 H   0  0  0  0  0  0  0  0  0  0  0  0
  1  2  1  0  0  0  0
  2  3  1  0  0  0  0
  2  4  1  0  0  0  0
  2  5  1  0  0  0  0
  5  6  2  0  0  0  0
  5  7  1  0  0  0  0
  7  8  1  0  0  0  0
  7  9  1  0  0  0  0
  9 10  1  0  0  0  0
  9 11  1  0  0  0  0
  9 27  1  0  0  0  0
 11 12  1  0  0  0  0
 11 13  1  0  0  0  0
 11 14  1  0  0  0  0
 14 15  1  0  0  0  0
 14 16  1  0  0  0  0
 14 17  1  0  0  0  0
 17 18  1  0  0  0  0
 17 19  1  0  0  0  0
 17 20  1  0  0  0  0
 20 21  1  0  0  0  0
 20 22  1  0  0  0  0
 20 23  1  0  0  0  0
 23 24  1  0  0  0  0
 23 25  1  0  0  0  0
 23 26  1  0  0  0  0
 27 28  2  0  0  0  0
 27 29  1  0  0  0  0
 29 30  1  0  0  0  0
 29 31  1  0  0  0  0
 31 32  1  0  0  0  0
 31 33  1  0  0  0  0
 31 34  1  0  0  0  0
M  CHG  1  23   1
M  END
$$$$

  -OEChem-01062216093D

 34 33  0     1  0  0  0  0  0999 V2000
   -3.2988   -2.5331    1.0571 H   0  0  0  0  0  0  0  0  0  0  0  0
   -3.3924   -1.5628    0.5610 C   0  0  0  0  0  0  0  0  0  0  0  0
   -4.3952   -1.1690    0.7410 H   0  0  0  0  0  0  0  0  0  0  0  0
   -3.2489   -1.7057   -0.5130 H   0  0  0  0  0  0  0  0  0  0  0  0
   -2.3490   -0.6026    1.0981 C   0  0  0  0  0  0  0  0  0  0  0  0
   -1.6962   -0.8937    2.0888 O   0  0  0  0  0  0  0  0  0  0  0  0
   -2.2275    0.6688    0.5631 N   0  0  0  0  0  0  0  0  0  0  0  0
   -2.8074    0.7895   -0.2629 H   0  0  0  0  0  0  0  0  0  0  0  0
   -0.9215    1.3657    0.5078 C   0  0  1  0  0  0  0  0  0  0  0  0
   -0.8943    2.0080   -0.3780 H   0  0  0  0  0  0  0  0  0  0  0  0
   -0.8095    2.2522    1.7692 C   0  0  0  0  0  0  0  0  0  0  0  0
   -0.9630    1.6395    2.6647 H   0  0  0  0  0  0  0  0  0  0  0  0
    0.1972    2.6790    1.8242 H   0  0  0  0  0  0  0  0  0  0  0  0
   -1.8135    3.4154    1.7464 C   0  0  0  0  0  0  0  0  0  0  0  0
   -1.6506    4.0229    0.8493 H   0  0  0  0  0  0  0  0  0  0  0  0
   -2.8337    3.0179    1.7039 H   0  0  0  0  0  0  0  0  0  0  0  0
   -1.6527    4.2822    3.0015 C   0  0  0  0  0  0  0  0  0  0  0  0
   -1.8017    3.6595    3.8909 H   0  0  0  0  0  0  0  0  0  0  0  0
   -0.6353    4.6870    3.0371 H   0  0  0  0  0  0  0  0  0  0  0  0
   -2.6674    5.4232    2.9909 C   0  0  0  0  0  0  0  0  0  0  0  0
   -2.5119    6.0382    2.0924 H   0  0  0  0  0  0  0  0  0  0  0  0
   -3.6820    5.0032    2.9244 H   0  0  0  0  0  0  0  0  0  0  0  0
   -2.5050    6.2262    4.2228 N   0  3  0  0  0  0  0  0  0  0  0  0
   -1.5593    6.6109    4.2685 H   0  0  0  0  0  0  0  0  0  0  0  0
   -3.1771    6.9967    4.2318 H   0  0  0  0  0  0  0  0  0  0  0  0
   -2.6636    5.6397    5.0449 H   0  0  0  0  0  0  0  0  0  0  0  0
    0.2891    0.3975    0.3625 C   0  0  0  0  0  0  0  0  0  0  0  0
    0.2721   -0.3857   -0.5783 O   0  0  0  0  0  0  0  0  0  0  0  0
    1.4514    0.5130    1.1068 N   0  0  0  0  0  0  0  0  0  0  0  0
    1.3825    1.0337    1.9743 H   0  0  0  0  0  0  0  0  0  0  0  0
    2.5613   -0.4241    0.9598 C   0  0  0  0  0  0  0  0  0  0  0  0
    2.9546   -0.3984   -0.0623 H   0  0  0  0  0  0  0  0  0  0  0  0
    3.3731   -0.1636    1.6458 H   0  0  0  0  0  0  0  0  0  0  0  0
    2.2329   -1.4449    1.1838 H   0  0  0  0  0  0  0  0  0  0  0  0
  1  2  1  0  0  0  0
  2  3  1  0  0  0  0
  2  4  1  0  0  0  0
  2  5  1  0  0  0  0
  5  6  2  0  0  0  0
  5  7  1  0  0  0  0
  7  8  1  0  0  0  0
  7  9  1  0  0  0  0
  9 10  1  0  0  0  0
  9 11  1  0  0  0  0
  9 27  1  0  0  0  0
 11 12  1  0  0  0  0
 11 13  1  0  0  0  0
 11 14  1  0  0  0  0
 14 15  1  0  0  0  0
 14 16  1  0  0  0  0
 14 17  1  0  0  0  0
 17 18  1  0  0  0  0
 17 19  1  0  0  0  0
 17 20  1  0  0  0  0
 20 21  1  0  0  0  0
 20 22  1  0  0  0  0
 20 23  1  0  0  0  0
 23 24  1  0  0  0  0
 23 25  1  0  0  0  0
 23 26  1  0  0  0  0
 27 28  2  0  0  0  0
 27 29  1  0  0  0  0
 29 30  1  0  0  0  0
 29 31  1  0  0  0  0
 31 32  1  0  0  0  0
 31 33  1  0  0  0  0
 31 34  1  0  0  0  0
M  CHG  1  23   1
M  END
$$$$

  -OEChem-01062216093D

 34 33  0     1  0  0  0  0  0999 V2000
   -3.3144   -2.5341    1.0504 H   0  0  0  0  0  0  0  0  0  0  0  0
   -3.4074   -1.5590    0.5638 C   0  0  0  0  0  0  0  0  0  0  0  0
   -4.4025   -1.1564    0.7662 H   0  0  0  0  0  0  0  0  0  0  0  0
   -3.2869   -1.6951   -0.5137 H   0  0  0  0  0  0  0  0  0  0  0  0
   -2.3446   -0.6133    1.0882 C   0  0  0  0  0  0  0  0  0  0  0  0
   -1.6745   -0.9203    2.0624 O   0  0  0  0  0  0  0  0  0  0  0  0
   -2.2225    0.6604    0.5599 N   0  0  0  0  0  0  0  0  0  0  0  0
   -2.8092    0.7946   -0.2594 H   0  0  0  0  0  0  0  0  0  0  0  0
   -0.9205    1.3627    0.5137 C   0  0  1  0  0  0  0  0  0  0  0  0
   -0.8927    2.0053   -0.3724 H   0  0  0  0  0  0  0  0  0  0  0  0
   -0.8083    2.2514    1.7722 C   0  0  0  0  0  0  0  0  0  0  0  0
   -0.9653    1.6405    2.6680 H   0  0  0  0  0  0  0  0  0  0  0  0
    0.2015    2.6725    1.8258 H   0  0  0  0  0  0  0  0  0  0  0  0
   -1.8117    3.4148    1.7476 C   0  0  0  0  0  0  0  0  0  0  0  0
   -1.6478    4.0203    0.8491 H   0  0  0  0  0  0  0  0  0  0  0  0
   -2.8322    3.0177    1.7051 H   0  0  0  0  0  0  0  0  0  0  0  0
   -1.6509    4.2848    3.0005 C   0  0  0  0  0  0  0  0  0  0  0  0
   -1.7999    3.6646    3.8916 H   0  0  0  0  0  0  0  0  0  0  0  0
   -0.6333    4.6898    3.0342 H   0  0  0  0  0  0  0  0  0  0  0  0
   -2.6654    5.4263    2.9870 C   0  0  0  0  0  0  0  0  0  0  0  0
   -2.5097    6.0400    2.0874 H   0  0  0  0  0  0  0  0  0  0  0  0
   -3.6804    5.0071    2.9219 H   0  0  0  0  0  0  0  0  0  0  0  0
   -2.5014    6.2313    4.2171 N   0  3  0  0  0  0  0  0  0  0  0  0
   -1.5543    6.6128    4.2616 H   0  0  0  0  0  0  0  0  0  0  0  0
   -3.1707    7.0043    4.2241 H   0  0  0  0  0  0  0  0  0  0  0  0
   -2.6619    5.6473    5.0406 H   0  0  0  0  0  0  0  0  0  0  0  0
    0.2943    0.4029    0.3709 C   0  0  0  0  0  0  0  0  0  0  0  0
    0.3931   -0.2204   -0.6773 O   0  0  0  0  0  0  0  0  0  0  0  0
    1.3152    0.3229    1.3027 N   0  0  0  0  0  0  0  0  0  0  0  0
    1.0814    0.6414    2.2376 H   0  0  0  0  0  0  0  0  0  0  0  0
    2.4018   -0.6428    1.1710 C   0  0  0  0  0  0  0  0  0  0  0  0
    2.9523   -0.4775    0.2386 H   0  0  0  0  0  0  0  0  0  0  0  0
    3.1032   -0.5422    2.0050 H   0  0  0  0  0  0  0  0  0  0  0  0
    2.0079   -1.6651    1.1698 H   0  0  0  0  0  0  0  0  0  0  0  0
  1  2  1  0  0  0  0
  2  3  1  0  0  0  0
  2  4  1  0  0  0  0
  2  5  1  0  0  0  0
  5  6  2  0  0  0  0
  5  7  1  0  0  0  0
  7  8  1  0  0  0  0
  7  9  1  0  0  0  0
  9 10  1  0  0  0  0
  9 11  1  0  0  0  0
  9 27  1  0  0  0  0
 11 12  1  0  0  0  0
 11 13  1  0  0  0  0
 11 14  1  0  0  0  0
 14 15  1  0  0  0  0
 14 16  1  0  0  0  0
 14 17  1  0  0  0  0
 17 18  1  0  0  0  0
 17 19  1  0  0  0  0
 17 20  1  0  0  0  0
 20 21  1  0  0  0  0
 20 22  1  0  0  0  0
 20 23  1  0  0  0  0
 23 24  1  0  0  0  0
 23 25  1  0  0  0  0
 23 26  1  0  0  0  0
 27 28  2  0  0  0  0
 27 29  1  0  0  0  0
 29 30  1  0  0  0  0
 29 31  1  0  0  0  0
 31 32  1  0  0  0  0
 31 33  1  0  0  0  0
 31 34  1  0  0  0  0
M  CHG  1  23   1
M  END
$$$$

  -OEChem-01062216093D

 34 33  0     1  0  0  0  0  0999 V2000
   -3.3664   -2.5362    1.0432 H   0  0  0  0  0  0  0  0  0  0  0  0
   -3.4537   -1.5558    0.5664 C   0  0  0  0  0  0  0  0  0  0  0  0
   -4.4393   -1.1415    0.7905 H   0  0  0  0  0  0  0  0  0  0  0  0
   -3.3550   -1.6846   -0.5144 H   0  0  0  0  0  0  0  0  0  0  0  0
   -2.3680   -0.6296    1.0792 C   0  0  0  0  0  0  0  0  0  0  0  0
   -1.6867   -0.9552    2.0395 O   0  0  0  0  0  0  0  0  0  0  0  0
   -2.2301    0.6431    0.5531 N   0  0  0  0  0  0  0  0  0  0  0  0
   -2.8234    0.7972   -0.2582 H   0  0  0  0  0  0  0  0  0  0  0  0
   -0.9268    1.3429    0.5182 C   0  0  1  0  0  0  0  0  0  0  0  0
   -0.8959    1.9846   -0.3685 H   0  0  0  0  0  0  0  0  0  0  0  0
   -0.8155    2.2357    1.7730 C   0  0  0  0  0  0  0  0  0  0  0  0
   -0.9844    1.6294    2.6700 H   0  0  0  0  0  0  0  0  0  0  0  0
    0.2001    2.6430    1.8311 H   0  0  0  0  0  0  0  0  0  0  0  0
   -1.8104    3.4060    1.7424 C   0  0  0  0  0  0  0  0  0  0  0  0
   -1.6388    4.0091    0.8439 H   0  0  0  0  0  0  0  0  0  0  0  0
   -2.8334    3.0162    1.6975 H   0  0  0  0  0  0  0  0  0  0  0  0
   -1.6453    4.2761    2.9947 C   0  0  0  0  0  0  0  0  0  0  0  0
   -1.8013    3.6579    3.8858 H   0  0  0  0  0  0  0  0  0  0  0  0
   -0.6242    4.6717    3.0312 H   0  0  0  0  0  0  0  0  0  0  0  0
   -2.6492    5.4265    2.9804 C   0  0  0  0  0  0  0  0  0  0  0  0
   -2.4860    6.0390    2.0813 H   0  0  0  0  0  0  0  0  0  0  0  0
   -3.6681    5.0170    2.9133 H   0  0  0  0  0  0  0  0  0  0  0  0
   -2.4783    6.2292    4.2114 N   0  3  0  0  0  0  0  0  0  0  0  0
   -1.5269    6.5996    4.2582 H   0  0  0  0  0  0  0  0  0  0  0  0
   -3.1384    7.0100    4.2177 H   0  0  0  0  0  0  0  0  0  0  0  0
   -2.6467    5.6466    5.0342 H   0  0  0  0  0  0  0  0  0  0  0  0
    0.2981    0.3969    0.3878 C   0  0  0  0  0  0  0  0  0  0  0  0
    0.5656   -0.0262   -0.7279 O   0  0  0  0  0  0  0  0  0  0  0  0
    1.1393    0.1074    1.4479 N   0  0  0  0  0  0  0  0  0  0  0  0
    0.7057    0.1903    2.3641 H   0  0  0  0  0  0  0  0  0  0  0  0
    2.2359   -0.8462    1.3141 C   0  0  0  0  0  0  0  0  0  0  0  0
    2.9357   -0.5217    0.5365 H   0  0  0  0  0  0  0  0  0  0  0  0
    2.7852   -0.9273    2.2571 H   0  0  0  0  0  0  0  0  0  0  0  0
    1.8514   -1.8371    1.0493 H   0  0  0  0  0  0  0  0  0  0  0  0
  1  2  1  0  0  0  0
  2  3  1  0  0  0  0
  2  4  1  0  0  0  0
  2  5  1  0  0  0  0
  5  6  2  0  0  0  0
  5  7  1  0  0  0  0
  7  8  1  0  0  0  0
  7  9  1  0  0  0  0
  9 10  1  0  0  0  0
  9 11  1  0  0  0  0
  9 27  1  0  0  0  0
 11 12  1  0  0  0  0
 11 13  1  0  0  0  0
 11 14  1  0  0  0  0
 14 15  1  0  0  0  0
 14 16  1  0  0  0  0
 14 17  1  0  0  0  0
 17 18  1  0  0  0  0
 17 19  1  0  0  0  0
 17 20  1  0  0  0  0
 20 21  1  0  0  0  0
 20 22  1  0  0  0  0
 20 23  1  0  0  0  0
 23 24  1  0  0  0  0
 23 25  1  0  0  0  0
 23 26  1  0  0  0  0
 27 28  2  0  0  0  0
 27 29  1  0  0  0  0
 29 30  1  0  0  0  0
 29 31  1  0  0  0  0
 31 32  1  0  0  0  0
 31 33  1  0  0  0  0
 31 34  1  0  0  0  0
M  CHG  1  23   1
M  END
$$$$

  -OEChem-01062216093D

 34 33  0     1  0  0  0  0  0999 V2000
   -3.4892   -2.5128    1.0461 H   0  0  0  0  0  0  0  0  0  0  0  0
   -3.5468   -1.5295    0.5702 C   0  0  0  0  0  0  0  0  0  0  0  0
   -4.5142   -1.0799    0.8061 H   0  0  0  0  0  0  0  0  0  0  0  0
   -3.4667   -1.6612   -0.5118 H   0  0  0  0  0  0  0  0  0  0  0  0
   -2.4231   -0.6429    1.0708 C   0  0  0  0  0  0  0  0  0  0  0  0
   -1.7520   -0.9878    2.0311 O   0  0  0  0  0  0  0  0  0  0  0  0
   -2.2471    0.6221    0.5396 N   0  0  0  0  0  0  0  0  0  0  0  0
   -2.8493    0.8021   -0.2598 H   0  0  0  0  0  0  0  0  0  0  0  0
   -0.9383    1.3130    0.5094 C   0  0  1  0  0  0  0  0  0  0  0  0
   -0.9055    1.9548   -0.3778 H   0  0  0  0  0  0  0  0  0  0  0  0
   -0.8215    2.2041    1.7635 C   0  0  0  0  0  0  0  0  0  0  0  0
   -0.9944    1.5998    2.6611 H   0  0  0  0  0  0  0  0  0  0  0  0
    0.1987    2.6002    1.8218 H   0  0  0  0  0  0  0  0  0  0  0  0
   -1.8056    3.3823    1.7335 C   0  0  0  0  0  0  0  0  0  0  0  0
   -1.6281    3.9848    0.8357 H   0  0  0  0  0  0  0  0  0  0  0  0
   -2.8320    3.0019    1.6886 H   0  0  0  0  0  0  0  0  0  0  0  0
   -1.6313    4.2474    2.9872 C   0  0  0  0  0  0  0  0  0  0  0  0
   -1.7916    3.6286    3.8773 H   0  0  0  0  0  0  0  0  0  0  0  0
   -0.6062    4.6329    3.0227 H   0  0  0  0  0  0  0  0  0  0  0  0
   -2.6246    5.4070    2.9746 C   0  0  0  0  0  0  0  0  0  0  0  0
   -2.4560    6.0186    2.0760 H   0  0  0  0  0  0  0  0  0  0  0  0
   -3.6469    5.0063    2.9076 H   0  0  0  0  0  0  0  0  0  0  0  0
   -2.4470    6.2068    4.2064 N   0  3  0  0  0  0  0  0  0  0  0  0
   -1.4928    6.5702    4.2525 H   0  0  0  0  0  0  0  0  0  0  0  0
   -3.1014    6.9924    4.2140 H   0  0  0  0  0  0  0  0  0  0  0  0
   -2.6189    5.6244    5.0286 H   0  0  0  0  0  0  0  0  0  0  0  0
    0.3009    0.3839    0.3995 C   0  0  0  0  0  0  0  0  0  0  0  0
    0.7748    0.1983   -0.7119 O   0  0  0  0  0  0  0  0  0  0  0  0
    0.9495   -0.1220    1.5113 N   0  0  0  0  0  0  0  0  0  0  0  0
    0.3361   -0.2509    2.3163 H   0  0  0  0  0  0  0  0  0  0  0  0
    2.0850   -1.0303    1.3910 C   0  0  0  0  0  0  0  0  0  0  0  0
    2.9002   -0.5566    0.8337 H   0  0  0  0  0  0  0  0  0  0  0  0
    2.4597   -1.2997    2.3833 H   0  0  0  0  0  0  0  0  0  0  0  0
    1.7901   -1.9474    0.8698 H   0  0  0  0  0  0  0  0  0  0  0  0
  1  2  1  0  0  0  0
  2  3  1  0  0  0  0
  2  4  1  0  0  0  0
  2  5  1  0  0  0  0
  5  6  2  0  0  0  0
  5  7  1  0  0  0  0
  7  8  1  0  0  0  0
  7  9  1  0  0  0  0
  9 10  1  0  0  0  0
  9 11  1  0  0  0  0
  9 27  1  0  0  0  0
 11 12  1  0  0  0  0
 11 13  1  0  0  0  0
 11 14  1  0  0  0  0
 14 15  1  0  0  0  0
 14 16  1  0  0  0  0
 14 17  1  0  0  0  0
 17 18  1  0  0  0  0
 17 19  1  0  0  0  0
 17 20  1  0  0  0  0
 20 21  1  0  0  0  0
 20 22  1  0  0  0  0
 20 23  1  0  0  0  0
 23 24  1  0  0  0  0
 23 25  1  0  0  0  0
 23 26  1  0  0  0  0
 27 28  2  0  0  0  0
 27 29  1  0  0  0  0
 29 30  1  0  0  0  0
 29 31  1  0  0  0  0
 31 32  1  0  0  0  0
 31 33  1  0  0  0  0
 31 34  1  0  0  0  0
M  CHG  1  23   1
M  END
$$$$

  -OEChem-01062216093D

 34 33  0     1  0  0  0  0  0999 V2000
   -3.6268   -2.4867    1.0453 H   0  0  0  0  0  0  0  0  0  0  0  0
   -3.6443   -1.5058    0.5617 C   0  0  0  0  0  0  0  0  0  0  0  0
   -4.5965   -1.0198    0.7865 H   0  0  0  0  0  0  0  0  0  0  0  0
   -3.5606   -1.6488   -0.5185 H   0  0  0  0  0  0  0  0  0  0  0  0
   -2.4933   -0.6565    1.0656 C   0  0  0  0  0  0  0  0  0  0  0  0
   -1.8484   -1.0203    2.0356 O   0  0  0  0  0  0  0  0  0  0  0  0
   -2.2708    0.5969    0.5252 N   0  0  0  0  0  0  0  0  0  0  0  0
   -2.8770    0.7973   -0.2662 H   0  0  0  0  0  0  0  0  0  0  0  0
   -0.9562    1.2806    0.4940 C   0  0  1  0  0  0  0  0  0  0  0  0
   -0.9260    1.9190   -0.3957 H   0  0  0  0  0  0  0  0  0  0  0  0
   -0.8375    2.1739    1.7453 C   0  0  0  0  0  0  0  0  0  0  0  0
   -1.0125    1.5702    2.6430 H   0  0  0  0  0  0  0  0  0  0  0  0
    0.1855    2.5629    1.8043 H   0  0  0  0  0  0  0  0  0  0  0  0
   -1.8115    3.3603    1.7186 C   0  0  0  0  0  0  0  0  0  0  0  0
   -1.6291    3.9642    0.8228 H   0  0  0  0  0  0  0  0  0  0  0  0
   -2.8415    2.9900    1.6736 H   0  0  0  0  0  0  0  0  0  0  0  0
   -1.6242    4.2189    2.9759 C   0  0  0  0  0  0  0  0  0  0  0  0
   -1.7879    3.5977    3.8639 H   0  0  0  0  0  0  0  0  0  0  0  0
   -0.5950    4.5937    3.0094 H   0  0  0  0  0  0  0  0  0  0  0  0
   -2.6037    5.3898    2.9751 C   0  0  0  0  0  0  0  0  0  0  0  0
   -2.4316    6.0054    2.0798 H   0  0  0  0  0  0  0  0  0  0  0  0
   -3.6311    5.0027    2.9103 H   0  0  0  0  0  0  0  0  0  0  0  0
   -2.4085    6.1780    4.2116 N   0  3  0  0  0  0  0  0  0  0  0  0
   -1.4485    6.5258    4.2561 H   0  0  0  0  0  0  0  0  0  0  0  0
   -3.0502    6.9736    4.2281 H   0  0  0  0  0  0  0  0  0  0  0  0
   -2.5857    5.5924    5.0303 H   0  0  0  0  0  0  0  0  0  0  0  0
    0.3079    0.3821    0.4081 C   0  0  0  0  0  0  0  0  0  0  0  0
    0.9556    0.4110   -0.6281 O   0  0  0  0  0  0  0  0  0  0  0  0
    0.7895   -0.3372    1.4857 N   0  0  0  0  0  0  0  0  0  0  0  0
    0.0776   -0.5693    2.1821 H   0  0  0  0  0  0  0  0  0  0  0  0
    1.9406   -1.2268    1.3782 C   0  0  0  0  0  0  0  0  0  0  0  0
    2.8295   -0.6704    1.0624 H   0  0  0  0  0  0  0  0  0  0  0  0
    2.1522   -1.6891    2.3473 H   0  0  0  0  0  0  0  0  0  0  0  0
    1.7461   -2.0212    0.6497 H   0  0  0  0  0  0  0  0  0  0  0  0
  1  2  1  0  0  0  0
  2  3  1  0  0  0  0
  2  4  1  0  0  0  0
  2  5  1  0  0  0  0
  5  6  2  0  0  0  0
  5  7  1  0  0  0  0
  7  8  1  0  0  0  0
  7  9  1  0  0  0  0
  9 10  1  0  0  0  0
  9 11  1  0  0  0  0
  9 27  1  0  0  0  0
 11 12  1  0  0  0  0
 11 13  1  0  0  0  0
 11 14  1  0  0  0  0
 14 15  1  0  0  0  0
 14 16  1  0  0  0  0
 14 17  1  0  0  0  0
 17 18  1  0  0  0  0
 17 19  1  0  0  0  0
 17 20  1  0  0  0  0
 20 21  1  0  0  0  0
 20 22  1  0  0  0  0
 20 23  1  0  0  0  0
 23 24  1  0  0  0  0
 23 25  1  0  0  0  0
 23 26  1  0  0  0  0
 27 28  2  0  0  0  0
 27 29  1  0  0  0  0
 29 30  1  0  0  0  0
 29 31  1  0  0  0  0
 31 32  1  0  0  0  0
 31 33  1  0  0  0  0
 31 34  1  0  0  0  0
M  CHG  1  23   1
M  END
$$$$

  -OEChem-01062216093D

 34 33  0     1  0  0  0  0  0999 V2000
   -3.7771   -2.4518    1.0306 H   0  0  0  0  0  0  0  0  0  0  0  0
   -3.7539   -1.4699    0.5493 C   0  0  0  0  0  0  0  0  0  0  0  0
   -4.6892   -0.9491    0.7667 H   0  0  0  0  0  0  0  0  0  0  0  0
   -3.6666   -1.6137   -0.5305 H   0  0  0  0  0  0  0  0  0  0  0  0
   -2.5765   -0.6647    1.0641 C   0  0  0  0  0  0  0  0  0  0  0  0
   -1.9623   -1.0506    2.0441 O   0  0  0  0  0  0  0  0  0  0  0  0
   -2.3040    0.5763    0.5195 N   0  0  0  0  0  0  0  0  0  0  0  0
   -2.9116    0.7987   -0.2650 H   0  0  0  0  0  0  0  0  0  0  0  0
   -0.9802    1.2460    0.4846 C   0  0  1  0  0  0  0  0  0  0  0  0
   -0.9520    1.8820   -0.4071 H   0  0  0  0  0  0  0  0  0  0  0  0
   -0.8551    2.1392    1.7347 C   0  0  0  0  0  0  0  0  0  0  0  0
   -1.0348    1.5357    2.6315 H   0  0  0  0  0  0  0  0  0  0  0  0
    0.1711    2.5197    1.7951 H   0  0  0  0  0  0  0  0  0  0  0  0
   -1.8169    3.3356    1.7084 C   0  0  0  0  0  0  0  0  0  0  0  0
   -1.6288    3.9383    0.8126 H   0  0  0  0  0  0  0  0  0  0  0  0
   -2.8511    2.9762    1.6644 H   0  0  0  0  0  0  0  0  0  0  0  0
   -1.6182    4.1893    2.9669 C   0  0  0  0  0  0  0  0  0  0  0  0
   -1.7875    3.5682    3.8537 H   0  0  0  0  0  0  0  0  0  0  0  0
   -0.5848    4.5517    2.9994 H   0  0  0  0  0  0  0  0  0  0  0  0
   -2.5835    5.3715    2.9711 C   0  0  0  0  0  0  0  0  0  0  0  0
   -2.4064    5.9876    2.0771 H   0  0  0  0  0  0  0  0  0  0  0  0
   -3.6159    4.9974    2.9077 H   0  0  0  0  0  0  0  0  0  0  0  0
   -2.3754    6.1530    4.2097 N   0  3  0  0  0  0  0  0  0  0  0  0
   -1.4099    6.4858    4.2539 H   0  0  0  0  0  0  0  0  0  0  0  0
   -3.0048    6.9584    4.2289 H   0  0  0  0  0  0  0  0  0  0  0  0
   -2.5608    5.5679    5.0270 H   0  0  0  0  0  0  0  0  0  0  0  0
    0.3036    0.3732    0.4132 C   0  0  0  0  0  0  0  0  0  0  0  0
    1.0886    0.6039   -0.4949 O   0  0  0  0  0  0  0  0  0  0  0  0
    0.6551   -0.5577    1.3709 N   0  0  0  0  0  0  0  0  0  0  0  0
   -0.0979   -0.8487    1.9996 H   0  0  0  0  0  0  0  0  0  0  0  0
    1.8344   -1.4092    1.2630 C   0  0  0  0  0  0  0  0  0  0  0  0
    2.7430   -0.8015    1.1970 H   0  0  0  0  0  0  0  0  0  0  0  0
    1.9159   -2.0548    2.1430 H   0  0  0  0  0  0  0  0  0  0  0  0
    1.7701   -2.0434    0.3727 H   0  0  0  0  0  0  0  0  0  0  0  0
  1  2  1  0  0  0  0
  2  3  1  0  0  0  0
  2  4  1  0  0  0  0
  2  5  1  0  0  0  0
  5  6  2  0  0  0  0
  5  7  1  0  0  0  0
  7  8  1  0  0  0  0
  7  9  1  0  0  0  0
  9 10  1  0  0  0  0
  9 11  1  0  0  0  0
  9 27  1  0  0  0  0
 11 12  1  0  0  0  0
 11 13  1  0  0  0  0
 11 14  1  0  0  0  0
 14 15  1  0  0  0  0
 14 16  1  0  0  0  0
 14 17  1  0  0  0  0
 17 18  1  0  0  0  0
 17 19  1  0  0  0  0
 17 20  1  0  0  0  0
 20 21  1  0  0  0  0
 20 22  1  0  0  0  0
 20 23  1  0  0  0  0
 23 24  1  0  0  0  0
 23 25  1  0  0  0  0
 23 26  1  0  0  0  0
 27 28  2  0  0  0  0
 27 29  1  0  0  0  0
 29 30  1  0  0  0  0
 29 31  1  0  0  0  0
 31 32  1  0  0  0  0
 31 33  1  0  0  0  0
 31 34  1  0  0  0  0
M  CHG  1  23   1
M  END
$$$$

  -OEChem-01062216093D

 34 33  0     1  0  0  0  0  0999 V2000
   -3.9144   -2.4074    1.0377 H   0  0  0  0  0  0  0  0  0  0  0  0
   -3.8584   -1.4293    0.5511 C   0  0  0  0  0  0  0  0  0  0  0  0
   -4.7739   -0.8743    0.7696 H   0  0  0  0  0  0  0  0  0  0  0  0
   -3.7805   -1.5822   -0.5282 H   0  0  0  0  0  0  0  0  0  0  0  0
   -2.6508   -0.6635    1.0566 C   0  0  0  0  0  0  0  0  0  0  0  0
   -2.0467   -1.0679    2.0351 O   0  0  0  0  0  0  0  0  0  0  0  0
   -2.3425    0.5673    0.5082 N   0  0  0  0  0  0  0  0  0  0  0  0
   -2.9568    0.8113   -0.2645 H   0  0  0  0  0  0  0  0  0  0  0  0
   -1.0080    1.2184    0.4626 C   0  0  1  0  0  0  0  0  0  0  0  0
   -0.9815    1.8547   -0.4288 H   0  0  0  0  0  0  0  0  0  0  0  0
   -0.8717    2.1068    1.7153 C   0  0  0  0  0  0  0  0  0  0  0  0
   -1.0552    1.5008    2.6095 H   0  0  0  0  0  0  0  0  0  0  0  0
    0.1579    2.4782    1.7767 H   0  0  0  0  0  0  0  0  0  0  0  0
   -1.8203    3.3135    1.6959 C   0  0  0  0  0  0  0  0  0  0  0  0
   -1.6284    3.9173    0.8019 H   0  0  0  0  0  0  0  0  0  0  0  0
   -2.8581    2.9655    1.6548 H   0  0  0  0  0  0  0  0  0  0  0  0
   -1.6090    4.1602    2.9571 C   0  0  0  0  0  0  0  0  0  0  0  0
   -1.7825    3.5374    3.8421 H   0  0  0  0  0  0  0  0  0  0  0  0
   -0.5712    4.5109    2.9888 H   0  0  0  0  0  0  0  0  0  0  0  0
   -2.5611    5.3533    2.9690 C   0  0  0  0  0  0  0  0  0  0  0  0
   -2.3800    5.9715    2.0773 H   0  0  0  0  0  0  0  0  0  0  0  0
   -3.5976    4.9904    2.9079 H   0  0  0  0  0  0  0  0  0  0  0  0
   -2.3406    6.1269    4.2104 N   0  3  0  0  0  0  0  0  0  0  0  0
   -1.3716    6.4495    4.2528 H   0  0  0  0  0  0  0  0  0  0  0  0
   -2.9615    6.9386    4.2356 H   0  0  0  0  0  0  0  0  0  0  0  0
   -2.5288    5.5397    5.0255 H   0  0  0  0  0  0  0  0  0  0  0  0
    0.2852    0.3563    0.3899 C   0  0  0  0  0  0  0  0  0  0  0  0
    1.1725    0.7524   -0.3526 O   0  0  0  0  0  0  0  0  0  0  0  0
    0.5323   -0.7626    1.1596 N   0  0  0  0  0  0  0  0  0  0  0  0
   -0.2337   -1.0905    1.7529 H   0  0  0  0  0  0  0  0  0  0  0  0
    1.7506   -1.5596    1.0747 C   0  0  0  0  0  0  0  0  0  0  0  0
    2.6281   -0.9481    1.3101 H   0  0  0  0  0  0  0  0  0  0  0  0
    1.7083   -2.3899    1.7865 H   0  0  0  0  0  0  0  0  0  0  0  0
    1.8694   -1.9727    0.0675 H   0  0  0  0  0  0  0  0  0  0  0  0
  1  2  1  0  0  0  0
  2  3  1  0  0  0  0
  2  4  1  0  0  0  0
  2  5  1  0  0  0  0
  5  6  2  0  0  0  0
  5  7  1  0  0  0  0
  7  8  1  0  0  0  0
  7  9  1  0  0  0  0
  9 10  1  0  0  0  0
  9 11  1  0  0  0  0
  9 27  1  0  0  0  0
 11 12  1  0  0  0  0
 11 13  1  0  0  0  0
 11 14  1  0  0  0  0
 14 15  1  0  0  0  0
 14 16  1  0  0  0  0
 14 17  1  0  0  0  0
 17 18  1  0  0  0  0
 17 19  1  0  0  0  0
 17 20  1  0  0  0  0
 20 21  1  0  0  0  0
 20 22  1  0  0  0  0
 20 23  1  0  0  0  0
 23 24  1  0  0  0  0
 23 25  1  0  0  0  0
 23 26  1  0  0  0  0
 27 28  2  0  0  0  0
 27 29  1  0  0  0  0
 29 30  1  0  0  0  0
 29 31  1  0  0  0  0
 31 32  1  0  0  0  0
 31 33  1  0  0  0  0
 31 34  1  0  0  0  0
M  CHG  1  23   1
M  END
$$$$

  -OEChem-01062216093D

 34 33  0     1  0  0  0  0  0999 V2000
   -3.0894   -1.8418   -0.5180 H   0  0  0  0  0  0  0  0  0  0  0  0
   -3.3596   -1.5504    0.4997 C   0  0  0  0  0  0  0  0  0  0  0  0
   -4.3118   -1.0149    0.4793 H   0  0  0  0  0  0  0  0  0  0  0  0
   -3.4796   -2.4558    1.1023 H   0  0  0  0  0  0  0  0  0  0  0  0
   -2.2770   -0.6695    1.0936 C   0  0  0  0  0  0  0  0  0  0  0  0
   -1.7806   -0.9644    2.1649 O   0  0  0  0  0  0  0  0  0  0  0  0
   -2.0074    0.5638    0.5362 N   0  0  0  0  0  0  0  0  0  0  0  0
   -2.5656    0.7443   -0.2934 H   0  0  0  0  0  0  0  0  0  0  0  0
   -0.7119    1.2877    0.5768 C   0  0  1  0  0  0  0  0  0  0  0  0
   -0.6605    1.9188   -0.3163 H   0  0  0  0  0  0  0  0  0  0  0  0
   -0.7734    2.1916    1.8316 C   0  0  0  0  0  0  0  0  0  0  0  0
   -0.9984    1.5745    2.7087 H   0  0  0  0  0  0  0  0  0  0  0  0
    0.2087    2.6464    2.0027 H   0  0  0  0  0  0  0  0  0  0  0  0
   -1.7994    3.3273    1.7108 C   0  0  0  0  0  0  0  0  0  0  0  0
   -1.5606    3.9466    0.8390 H   0  0  0  0  0  0  0  0  0  0  0  0
   -2.8016    2.9089    1.5677 H   0  0  0  0  0  0  0  0  0  0  0  0
   -1.7701    4.1794    2.9857 C   0  0  0  0  0  0  0  0  0  0  0  0
   -1.9844    3.5399    3.8496 H   0  0  0  0  0  0  0  0  0  0  0  0
   -0.7666    4.6003    3.1164 H   0  0  0  0  0  0  0  0  0  0  0  0
   -2.7975    5.3043    2.9074 C   0  0  0  0  0  0  0  0  0  0  0  0
   -2.5739    5.9405    2.0385 H   0  0  0  0  0  0  0  0  0  0  0  0
   -3.7963    4.8728    2.7469 H   0  0  0  0  0  0  0  0  0  0  0  0
   -2.7468    6.0797    4.1659 N   0  3  0  0  0  0  0  0  0  0  0  0
   -1.8127    6.4741    4.2947 H   0  0  0  0  0  0  0  0  0  0  0  0
   -3.4282    6.8412    4.1398 H   0  0  0  0  0  0  0  0  0  0  0  0
   -2.9594    5.4707    4.9587 H   0  0  0  0  0  0  0  0  0  0  0  0
    0.6733    0.5613    0.6216 C   0  0  0  0  0  0  0  0  0  0  0  0
    1.6602    1.2564    0.4378 O   0  0  0  0  0  0  0  0  0  0  0  0
    1.0312   -0.6560    1.1525 N   0  0  0  0  0  0  0  0  0  0  0  0
    2.0208   -0.6488    1.3891 H   0  0  0  0  0  0  0  0  0  0  0  0
    0.5826   -1.9041    0.5456 C   0  0  0  0  0  0  0  0  0  0  0  0
    1.4382   -2.4342    0.1153 H   0  0  0  0  0  0  0  0  0  0  0  0
    0.1217   -2.5513    1.2989 H   0  0  0  0  0  0  0  0  0  0  0  0
   -0.1380   -1.7271   -0.2587 H   0  0  0  0  0  0  0  0  0  0  0  0
  1  2  1  0  0  0  0
  2  3  1  0  0  0  0
  2  4  1  0  0  0  0
  2  5  1  0  0  0  0
  5  6  2  0  0  0  0
  5  7  1  0  0  0  0
  7  8  1  0  0  0  0
  7  9  1  0  0  0  0
  9 10  1  0  0  0  0
  9 11  1  0  0  0  0
  9 27  1  0  0  0  0
 11 12  1  0  0  0  0
 11 13  1  0  0  0  0
 11 14  1  0  0  0  0
 14 15  1  0  0  0  0
 14 16  1  0  0  0  0
 14 17  1  0  0  0  0
 17 18  1  0  0  0  0
 17 19  1  0  0  0  0
 17 20  1  0  0  0  0
 20 21  1  0  0  0  0
 20 22  1  0  0  0  0
 20 23  1  0  0  0  0
 23 24  1  0  0  0  0
 23 25  1  0  0  0  0
 23 26  1  0  0  0  0
 27 28  2  0  0  0  0
 27 29  1  0  0  0  0
 29 30  1  0  0  0  0
 29 31  1  0  0  0  0
 31 32  1  0  0  0  0
 31 33  1  0  0  0  0
 31 34  1  0  0  0  0
M  CHG  1  23   1
M  END
$$$$

  -OEChem-01062216093D

 34 33  0     1  0  0  0  0  0999 V2000
   -3.4624   -2.6640    1.0663 H   0  0  0  0  0  0  0  0  0  0  0  0
   -3.5410   -1.7237    0.5132 C   0  0  0  0  0  0  0  0  0  0  0  0
   -4.5484   -1.3218    0.6442 H   0  0  0  0  0  0  0  0  0  0  0  0
   -3.3696   -1.9275   -0.5468 H   0  0  0  0  0  0  0  0  0  0  0  0
   -2.5123   -0.7330    1.0226 C   0  0  0  0  0  0  0  0  0  0  0  0
   -1.9055   -0.9617    2.0534 O   0  0  0  0  0  0  0  0  0  0  0  0
   -2.4549    0.5406    0.4977 N   0  0  0  0  0  0  0  0  0  0  0  0
   -3.1757    0.6767   -0.2060 H   0  0  0  0  0  0  0  0  0  0  0  0
   -1.2098    1.2906    0.2021 C   0  0  1  0  0  0  0  0  0  0  0  0
   -1.4287    1.9693   -0.6292 H   0  0  0  0  0  0  0  0  0  0  0  0
   -0.8716    2.1298    1.4522 C   0  0  0  0  0  0  0  0  0  0  0  0
   -0.8192    1.4751    2.3288 H   0  0  0  0  0  0  0  0  0  0  0  0
    0.1187    2.5812    1.3220 H   0  0  0  0  0  0  0  0  0  0  0  0
   -1.8870    3.2546    1.7001 C   0  0  0  0  0  0  0  0  0  0  0  0
   -1.9303    3.9095    0.8227 H   0  0  0  0  0  0  0  0  0  0  0  0
   -2.8828    2.8236    1.8522 H   0  0  0  0  0  0  0  0  0  0  0  0
   -1.4805    4.0631    2.9380 C   0  0  0  0  0  0  0  0  0  0  0  0
   -1.4210    3.3922    3.8023 H   0  0  0  0  0  0  0  0  0  0  0  0
   -0.4877    4.4984    2.7780 H   0  0  0  0  0  0  0  0  0  0  0  0
   -2.4969    5.1689    3.2080 C   0  0  0  0  0  0  0  0  0  0  0  0
   -2.5497    5.8339    2.3335 H   0  0  0  0  0  0  0  0  0  0  0  0
   -3.4931    4.7202    3.3361 H   0  0  0  0  0  0  0  0  0  0  0  0
   -2.0867    5.9108    4.4200 N   0  3  0  0  0  0  0  0  0  0  0  0
   -1.1597    6.3185    4.2823 H   0  0  0  0  0  0  0  0  0  0  0  0
   -2.7532    6.6605    4.6170 H   0  0  0  0  0  0  0  0  0  0  0  0
   -2.0534    5.2774    5.2215 H   0  0  0  0  0  0  0  0  0  0  0  0
    0.1019    0.5543   -0.2113 C   0  0  0  0  0  0  0  0  0  0  0  0
    0.8208    1.1311   -1.0098 O   0  0  0  0  0  0  0  0  0  0  0  0
    0.4319   -0.7769   -0.1057 N   0  0  0  0  0  0  0  0  0  0  0  0
    1.0849   -1.0149   -0.8499 H   0  0  0  0  0  0  0  0  0  0  0  0
    0.8297   -1.3238    1.1872 C   0  0  0  0  0  0  0  0  0  0  0  0
    0.6358   -0.6195    2.0029 H   0  0  0  0  0  0  0  0  0  0  0  0
    0.2881   -2.2532    1.3906 H   0  0  0  0  0  0  0  0  0  0  0  0
    1.9019   -1.5445    1.1838 H   0  0  0  0  0  0  0  0  0  0  0  0
  1  2  1  0  0  0  0
  2  3  1  0  0  0  0
  2  4  1  0  0  0  0
  2  5  1  0  0  0  0
  5  6  2  0  0  0  0
  5  7  1  0  0  0  0
  7  8  1  0  0  0  0
  7  9  1  0  0  0  0
  9 10  1  0  0  0  0
  9 11  1  0  0  0  0
  9 27  1  0  0  0  0
 11 12  1  0  0  0  0
 11 13  1  0  0  0  0
 11 14  1  0  0  0  0
 14 15  1  0  0  0  0
 14 16  1  0  0  0  0
 14 17  1  0  0  0  0
 17 18  1  0  0  0  0
 17 19  1  0  0  0  0
 17 20  1  0  0  0  0
 20 21  1  0  0  0  0
 20 22  1  0  0  0  0
 20 23  1  0  0  0  0
 23 24  1  0  0  0  0
 23 25  1  0  0  0  0
 23 26  1  0  0  0  0
 27 28  2  0  0  0  0
 27 29  1  0  0  0  0
 29 30  1  0  0  0  0
 29 31  1  0  0  0  0
 31 32  1  0  0  0  0
 31 33  1  0  0  0  0
 31 34  1  0  0  0  0
M  CHG  1  23   1
M  END
$$$$

  -OEChem-01062216093D

 34 33  0     1  0  0  0  0  0999 V2000
   -4.0586   -2.3102    1.0983 H   0  0  0  0  0  0  0  0  0  0  0  0
   -3.9967   -1.3142    0.6500 C   0  0  0  0  0  0  0  0  0  0  0  0
   -4.8255   -0.7088    1.0243 H   0  0  0  0  0  0  0  0  0  0  0  0
   -4.0871   -1.4145   -0.4344 H   0  0  0  0  0  0  0  0  0  0  0  0
   -2.6738   -0.6628    1.0050 C   0  0  0  0  0  0  0  0  0  0  0  0
   -1.9438   -1.1888    1.8256 O   0  0  0  0  0  0  0  0  0  0  0  0
   -2.3508    0.5668    0.4632 N   0  0  0  0  0  0  0  0  0  0  0  0
   -3.0306    0.8974   -0.2166 H   0  0  0  0  0  0  0  0  0  0  0  0
   -1.0117    1.2088    0.3913 C   0  0  1  0  0  0  0  0  0  0  0  0
   -0.9961    1.8493   -0.4964 H   0  0  0  0  0  0  0  0  0  0  0  0
   -0.8770    2.0883    1.6563 C   0  0  0  0  0  0  0  0  0  0  0  0
   -1.0543    1.4684    2.5423 H   0  0  0  0  0  0  0  0  0  0  0  0
    0.1476    2.4703    1.7289 H   0  0  0  0  0  0  0  0  0  0  0  0
   -1.8279    3.2942    1.6582 C   0  0  0  0  0  0  0  0  0  0  0  0
   -1.6385    3.9116    0.7730 H   0  0  0  0  0  0  0  0  0  0  0  0
   -2.8661    2.9481    1.6163 H   0  0  0  0  0  0  0  0  0  0  0  0
   -1.6082    4.1206    2.9322 C   0  0  0  0  0  0  0  0  0  0  0  0
   -1.7751    3.4826    3.8077 H   0  0  0  0  0  0  0  0  0  0  0  0
   -0.5699    4.4701    2.9616 H   0  0  0  0  0  0  0  0  0  0  0  0
   -2.5578    5.3146    2.9738 C   0  0  0  0  0  0  0  0  0  0  0  0
   -2.3813    5.9496    2.0929 H   0  0  0  0  0  0  0  0  0  0  0  0
   -3.5958    4.9558    2.9138 H   0  0  0  0  0  0  0  0  0  0  0  0
   -2.3226    6.0622    4.2283 N   0  3  0  0  0  0  0  0  0  0  0  0
   -1.3508    6.3767    4.2693 H   0  0  0  0  0  0  0  0  0  0  0  0
   -2.9370    6.8779    4.2743 H   0  0  0  0  0  0  0  0  0  0  0  0
   -2.5083    5.4606    5.0334 H   0  0  0  0  0  0  0  0  0  0  0  0
    0.2881    0.3531    0.2827 C   0  0  0  0  0  0  0  0  0  0  0  0
    1.3356    0.9557    0.0847 O   0  0  0  0  0  0  0  0  0  0  0  0
    0.3212   -1.0280    0.2454 N   0  0  0  0  0  0  0  0  0  0  0  0
   -0.4819   -1.4871    0.6768 H   0  0  0  0  0  0  0  0  0  0  0  0
    1.5650   -1.7866    0.1580 C   0  0  0  0  0  0  0  0  0  0  0  0
    2.1959   -1.5904    1.0315 H   0  0  0  0  0  0  0  0  0  0  0  0
    1.3511   -2.8591    0.1173 H   0  0  0  0  0  0  0  0  0  0  0  0
    2.1207   -1.5140   -0.7458 H   0  0  0  0  0  0  0  0  0  0  0  0
  1  2  1  0  0  0  0
  2  3  1  0  0  0  0
  2  4  1  0  0  0  0
  2  5  1  0  0  0  0
  5  6  2  0  0  0  0
  5  7  1  0  0  0  0
  7  8  1  0  0  0  0
  7  9  1  0  0  0  0
  9 10  1  0  0  0  0
  9 11  1  0  0  0  0
  9 27  1  0  0  0  0
 11 12  1  0  0  0  0
 11 13  1  0  0  0  0
 11 14  1  0  0  0  0
 14 15  1  0  0  0  0
 14 16  1  0  0  0  0
 14 17  1  0  0  0  0
 17 18  1  0  0  0  0
 17 19  1  0  0  0  0
 17 20  1  0  0  0  0
 20 21  1  0  0  0  0
 20 22  1  0  0  0  0
 20 23  1  0  0  0  0
 23 24  1  0  0  0  0
 23 25  1  0  0  0  0
 23 26  1  0  0  0  0
 27 28  2  0  0  0  0
 27 29  1  0  0  0  0
 29 30  1  0  0  0  0
 29 31  1  0  0  0  0
 31 32  1  0  0  0  0
 31 33  1  0  0  0  0
 31 34  1  0  0  0  0
M  CHG  1  23   1
M  END
$$$$

  -OEChem-01062216093D

 34 33  0     1  0  0  0  0  0999 V2000
   -4.0260   -2.2848    1.1391 H   0  0  0  0  0  0  0  0  0  0  0  0
   -3.9705   -1.2851    0.6982 C   0  0  0  0  0  0  0  0  0  0  0  0
   -4.7632   -0.6682    1.1279 H   0  0  0  0  0  0  0  0  0  0  0  0
   -4.1274   -1.3701   -0.3799 H   0  0  0  0  0  0  0  0  0  0  0  0
   -2.6158   -0.6645    0.9816 C   0  0  0  0  0  0  0  0  0  0  0  0
   -1.8328   -1.2373    1.7167 O   0  0  0  0  0  0  0  0  0  0  0  0
   -2.3046    0.5719    0.4473 N   0  0  0  0  0  0  0  0  0  0  0  0
   -3.0096    0.9343   -0.1887 H   0  0  0  0  0  0  0  0  0  0  0  0
   -0.9715    1.2262    0.3823 C   0  0  1  0  0  0  0  0  0  0  0  0
   -0.9517    1.8667   -0.5051 H   0  0  0  0  0  0  0  0  0  0  0  0
   -0.8572    2.1053    1.6520 C   0  0  0  0  0  0  0  0  0  0  0  0
   -1.0340    1.4802    2.5345 H   0  0  0  0  0  0  0  0  0  0  0  0
    0.1602    2.5020    1.7371 H   0  0  0  0  0  0  0  0  0  0  0  0
   -1.8213    3.3006    1.6510 C   0  0  0  0  0  0  0  0  0  0  0  0
   -1.6323    3.9236    0.7697 H   0  0  0  0  0  0  0  0  0  0  0  0
   -2.8556    2.9437    1.6006 H   0  0  0  0  0  0  0  0  0  0  0  0
   -1.6187    4.1240    2.9298 C   0  0  0  0  0  0  0  0  0  0  0  0
   -1.7844    3.4807    3.8014 H   0  0  0  0  0  0  0  0  0  0  0  0
   -0.5842    4.4841    2.9678 H   0  0  0  0  0  0  0  0  0  0  0  0
   -2.5808    5.3079    2.9705 C   0  0  0  0  0  0  0  0  0  0  0  0
   -2.4051    5.9484    2.0936 H   0  0  0  0  0  0  0  0  0  0  0  0
   -3.6147    4.9390    2.9024 H   0  0  0  0  0  0  0  0  0  0  0  0
   -2.3620    6.0531    4.2293 N   0  3  0  0  0  0  0  0  0  0  0  0
   -1.3952    6.3822    4.2753 H   0  0  0  0  0  0  0  0  0  0  0  0
   -2.9890    6.8592    4.2765 H   0  0  0  0  0  0  0  0  0  0  0  0
   -2.5415    5.4452    5.0311 H   0  0  0  0  0  0  0  0  0  0  0  0
    0.3215    0.3594    0.2728 C   0  0  0  0  0  0  0  0  0  0  0  0
    1.4016    0.9374    0.2794 O   0  0  0  0  0  0  0  0  0  0  0  0
    0.3081   -0.9810   -0.0663 N   0  0  0  0  0  0  0  0  0  0  0  0
   -0.5289   -1.4770    0.2383 H   0  0  0  0  0  0  0  0  0  0  0  0
    1.5318   -1.7646   -0.2042 C   0  0  0  0  0  0  0  0  0  0  0  0
    2.0790   -1.7930    0.7442 H   0  0  0  0  0  0  0  0  0  0  0  0
    1.2920   -2.7911   -0.4979 H   0  0  0  0  0  0  0  0  0  0  0  0
    2.1818   -1.3321   -0.9721 H   0  0  0  0  0  0  0  0  0  0  0  0
  1  2  1  0  0  0  0
  2  3  1  0  0  0  0
  2  4  1  0  0  0  0
  2  5  1  0  0  0  0
  5  6  2  0  0  0  0
  5  7  1  0  0  0  0
  7  8  1  0  0  0  0
  7  9  1  0  0  0  0
  9 10  1  0  0  0  0
  9 11  1  0  0  0  0
  9 27  1  0  0  0  0
 11 12  1  0  0  0  0
 11 13  1  0  0  0  0
 11 14  1  0  0  0  0
 14 15  1  0  0  0  0
 14 16  1  0  0  0  0
 14 17  1  0  0  0  0
 17 18  1  0  0  0  0
 17 19  1  0  0  0  0
 17 20  1  0  0  0  0
 20 21  1  0  0  0  0
 20 22  1  0  0  0  0
 20 23  1  0  0  0  0
 23 24  1  0  0  0  0
 23 25  1  0  0  0  0
 23 26  1  0  0  0  0
 27 28  2  0  0  0  0
 27 29  1  0  0  0  0
 29 30  1  0  0  0  0
 29 31  1  0  0  0  0
 31 32  1  0  0  0  0
 31 33  1  0  0  0  0
 31 34  1  0  0  0  0
M  CHG  1  23   1
M  END
$$$$

  -OEChem-01062216093D

 34 33  0     1  0  0  0  0  0999 V2000
   -3.9324   -2.3027    1.1590 H   0  0  0  0  0  0  0  0  0  0  0  0
   -3.9011   -1.2980    0.7267 C   0  0  0  0  0  0  0  0  0  0  0  0
   -4.6780   -0.6906    1.1968 H   0  0  0  0  0  0  0  0  0  0  0  0
   -4.1034   -1.3733   -0.3444 H   0  0  0  0  0  0  0  0  0  0  0  0
   -2.5390   -0.6721    0.9591 C   0  0  0  0  0  0  0  0  0  0  0  0
   -1.7133   -1.2627    1.6290 O   0  0  0  0  0  0  0  0  0  0  0  0
   -2.2592    0.5766    0.4343 N   0  0  0  0  0  0  0  0  0  0  0  0
   -2.9923    0.9591   -0.1566 H   0  0  0  0  0  0  0  0  0  0  0  0
   -0.9367    1.2520    0.3763 C   0  0  1  0  0  0  0  0  0  0  0  0
   -0.9170    1.8932   -0.5102 H   0  0  0  0  0  0  0  0  0  0  0  0
   -0.8405    2.1344    1.6464 C   0  0  0  0  0  0  0  0  0  0  0  0
   -1.0083    1.5059    2.5285 H   0  0  0  0  0  0  0  0  0  0  0  0
    0.1689    2.5502    1.7330 H   0  0  0  0  0  0  0  0  0  0  0  0
   -1.8212    3.3164    1.6444 C   0  0  0  0  0  0  0  0  0  0  0  0
   -1.6389    3.9439    0.7649 H   0  0  0  0  0  0  0  0  0  0  0  0
   -2.8505    2.9460    1.5916 H   0  0  0  0  0  0  0  0  0  0  0  0
   -1.6293    4.1383    2.9264 C   0  0  0  0  0  0  0  0  0  0  0  0
   -1.7884    3.4894    3.7950 H   0  0  0  0  0  0  0  0  0  0  0  0
   -0.5990    4.5099    2.9665 H   0  0  0  0  0  0  0  0  0  0  0  0
   -2.6036    5.3117    2.9755 C   0  0  0  0  0  0  0  0  0  0  0  0
   -2.4366    5.9595    2.1024 H   0  0  0  0  0  0  0  0  0  0  0  0
   -3.6336    4.9326    2.9066 H   0  0  0  0  0  0  0  0  0  0  0  0
   -2.3895    6.0510    4.2391 N   0  3  0  0  0  0  0  0  0  0  0  0
   -1.4290    6.3989    4.2802 H   0  0  0  0  0  0  0  0  0  0  0  0
   -3.0319    6.8440    4.2990 H   0  0  0  0  0  0  0  0  0  0  0  0
   -2.5499    5.4326    5.0368 H   0  0  0  0  0  0  0  0  0  0  0  0
    0.3471    0.3716    0.2590 C   0  0  0  0  0  0  0  0  0  0  0  0
    1.4392    0.8650    0.5147 O   0  0  0  0  0  0  0  0  0  0  0  0
    0.3256   -0.8560   -0.3784 N   0  0  0  0  0  0  0  0  0  0  0  0
   -0.5641   -1.3433   -0.3162 H   0  0  0  0  0  0  0  0  0  0  0  0
    1.5233   -1.6783   -0.5188 C   0  0  0  0  0  0  0  0  0  0  0  0
    1.9131   -1.9572    0.4660 H   0  0  0  0  0  0  0  0  0  0  0  0
    1.2919   -2.5931   -1.0729 H   0  0  0  0  0  0  0  0  0  0  0  0
    2.3026   -1.1362   -1.0650 H   0  0  0  0  0  0  0  0  0  0  0  0
  1  2  1  0  0  0  0
  2  3  1  0  0  0  0
  2  4  1  0  0  0  0
  2  5  1  0  0  0  0
  5  6  2  0  0  0  0
  5  7  1  0  0  0  0
  7  8  1  0  0  0  0
  7  9  1  0  0  0  0
  9 10  1  0  0  0  0
  9 11  1  0  0  0  0
  9 27  1  0  0  0  0
 11 12  1  0  0  0  0
 11 13  1  0  0  0  0
 11 14  1  0  0  0  0
 14 15  1  0  0  0  0
 14 16  1  0  0  0  0
 14 17  1  0  0  0  0
 17 18  1  0  0  0  0
 17 19  1  0  0  0  0
 17 20  1  0  0  0  0
 20 21  1  0  0  0  0
 20 22  1  0  0  0  0
 20 23  1  0  0  0  0
 23 24  1  0  0  0  0
 23 25  1  0  0  0  0
 23 26  1  0  0  0  0
 27 28  2  0  0  0  0
 27 29  1  0  0  0  0
 29 30  1  0  0  0  0
 29 31  1  0  0  0  0
 31 32  1  0  0  0  0
 31 33  1  0  0  0  0
 31 34  1  0  0  0  0
M  CHG  1  23   1
M  END
$$$$

  -OEChem-01062216093D

 34 33  0     1  0  0  0  0  0999 V2000
   -3.7964   -2.3402    1.1505 H   0  0  0  0  0  0  0  0  0  0  0  0
   -3.8034   -1.3283    0.7345 C   0  0  0  0  0  0  0  0  0  0  0  0
   -4.5875   -0.7507    1.2298 H   0  0  0  0  0  0  0  0  0  0  0  0
   -4.0251   -1.3925   -0.3337 H   0  0  0  0  0  0  0  0  0  0  0  0
   -2.4549   -0.6682    0.9523 C   0  0  0  0  0  0  0  0  0  0  0  0
   -1.6157   -1.2293    1.6302 O   0  0  0  0  0  0  0  0  0  0  0  0
   -2.2135    0.5885    0.4245 N   0  0  0  0  0  0  0  0  0  0  0  0
   -2.9639    0.9630   -0.1491 H   0  0  0  0  0  0  0  0  0  0  0  0
   -0.9056    1.2884    0.3683 C   0  0  1  0  0  0  0  0  0  0  0  0
   -0.8874    1.9307   -0.5171 H   0  0  0  0  0  0  0  0  0  0  0  0
   -0.8201    2.1704    1.6383 C   0  0  0  0  0  0  0  0  0  0  0  0
   -0.9705    1.5375    2.5206 H   0  0  0  0  0  0  0  0  0  0  0  0
    0.1821    2.6054    1.7166 H   0  0  0  0  0  0  0  0  0  0  0  0
   -1.8202    3.3348    1.6425 C   0  0  0  0  0  0  0  0  0  0  0  0
   -1.6534    3.9671    0.7634 H   0  0  0  0  0  0  0  0  0  0  0  0
   -2.8431    2.9467    1.5944 H   0  0  0  0  0  0  0  0  0  0  0  0
   -1.6343    4.1551    2.9257 C   0  0  0  0  0  0  0  0  0  0  0  0
   -1.7764    3.5009    3.7934 H   0  0  0  0  0  0  0  0  0  0  0  0
   -0.6100    4.5431    2.9611 H   0  0  0  0  0  0  0  0  0  0  0  0
   -2.6273    5.3120    2.9834 C   0  0  0  0  0  0  0  0  0  0  0  0
   -2.4764    5.9654    2.1111 H   0  0  0  0  0  0  0  0  0  0  0  0
   -3.6514    4.9159    2.9204 H   0  0  0  0  0  0  0  0  0  0  0  0
   -2.4167    6.0492    4.2485 N   0  3  0  0  0  0  0  0  0  0  0  0
   -1.4628    6.4153    4.2835 H   0  0  0  0  0  0  0  0  0  0  0  0
   -3.0741    6.8290    4.3178 H   0  0  0  0  0  0  0  0  0  0  0  0
   -2.5583    5.4235    5.0444 H   0  0  0  0  0  0  0  0  0  0  0  0
    0.3660    0.3919    0.2521 C   0  0  0  0  0  0  0  0  0  0  0  0
    1.4228    0.7308    0.7715 O   0  0  0  0  0  0  0  0  0  0  0  0
    0.3878   -0.6666   -0.6393 N   0  0  0  0  0  0  0  0  0  0  0  0
   -0.5179   -1.0228   -0.9245 H   0  0  0  0  0  0  0  0  0  0  0  0
    1.5390   -1.5542   -0.7706 C   0  0  0  0  0  0  0  0  0  0  0  0
    1.7189   -2.0875    0.1691 H   0  0  0  0  0  0  0  0  0  0  0  0
    1.3619   -2.2908   -1.5602 H   0  0  0  0  0  0  0  0  0  0  0  0
    2.4383   -0.9851   -1.0297 H   0  0  0  0  0  0  0  0  0  0  0  0
  1  2  1  0  0  0  0
  2  3  1  0  0  0  0
  2  4  1  0  0  0  0
  2  5  1  0  0  0  0
  5  6  2  0  0  0  0
  5  7  1  0  0  0  0
  7  8  1  0  0  0  0
  7  9  1  0  0  0  0
  9 10  1  0  0  0  0
  9 11  1  0  0  0  0
  9 27  1  0  0  0  0
 11 12  1  0  0  0  0
 11 13  1  0  0  0  0
 11 14  1  0  0  0  0
 14 15  1  0  0  0  0
 14 16  1  0  0  0  0
 14 17  1  0  0  0  0
 17 18  1  0  0  0  0
 17 19  1  0  0  0  0
 17 20  1  0  0  0  0
 20 21  1  0  0  0  0
 20 22  1  0  0  0  0
 20 23  1  0  0  0  0
 23 24  1  0  0  0  0
 23 25  1  0  0  0  0
 23 26  1  0  0  0  0
 27 28  2  0  0  0  0
 27 29  1  0  0  0  0
 29 30  1  0  0  0  0
 29 31  1  0  0  0  0
 31 32  1  0  0  0  0
 31 33  1  0  0  0  0
 31 34  1  0  0  0  0
M  CHG  1  23   1
M  END
$$$$

  -OEChem-01062216093D

 34 33  0     1  0  0  0  0  0999 V2000
   -3.7487   -2.3570    1.1587 H   0  0  0  0  0  0  0  0  0  0  0  0
   -3.7570   -1.3546    0.7205 C   0  0  0  0  0  0  0  0  0  0  0  0
   -4.5586   -0.7759    1.1856 H   0  0  0  0  0  0  0  0  0  0  0  0
   -3.9528   -1.4442   -0.3508 H   0  0  0  0  0  0  0  0  0  0  0  0
   -2.4217   -0.6736    0.9525 C   0  0  0  0  0  0  0  0  0  0  0  0
   -1.5853   -1.2194    1.6454 O   0  0  0  0  0  0  0  0  0  0  0  0
   -2.1953    0.5839    0.4190 N   0  0  0  0  0  0  0  0  0  0  0  0
   -2.9459    0.9435   -0.1634 H   0  0  0  0  0  0  0  0  0  0  0  0
   -0.8961    1.2981    0.3707 C   0  0  1  0  0  0  0  0  0  0  0  0
   -0.8722    1.9375   -0.5166 H   0  0  0  0  0  0  0  0  0  0  0  0
   -0.8188    2.1865    1.6360 C   0  0  0  0  0  0  0  0  0  0  0  0
   -0.9643    1.5559    2.5209 H   0  0  0  0  0  0  0  0  0  0  0  0
    0.1829    2.6243    1.7081 H   0  0  0  0  0  0  0  0  0  0  0  0
   -1.8254    3.3455    1.6411 C   0  0  0  0  0  0  0  0  0  0  0  0
   -1.6660    3.9781    0.7610 H   0  0  0  0  0  0  0  0  0  0  0  0
   -2.8463    2.9511    1.5970 H   0  0  0  0  0  0  0  0  0  0  0  0
   -1.6381    4.1663    2.9248 C   0  0  0  0  0  0  0  0  0  0  0  0
   -1.7737    3.5101    3.7920 H   0  0  0  0  0  0  0  0  0  0  0  0
   -0.6151    4.5587    2.9555 H   0  0  0  0  0  0  0  0  0  0  0  0
   -2.6340    5.3202    2.9917 C   0  0  0  0  0  0  0  0  0  0  0  0
   -2.4908    5.9760    2.1204 H   0  0  0  0  0  0  0  0  0  0  0  0
   -3.6568    4.9207    2.9342 H   0  0  0  0  0  0  0  0  0  0  0  0
   -2.4183    6.0547    4.2580 N   0  3  0  0  0  0  0  0  0  0  0  0
   -1.4633    6.4182    4.2919 H   0  0  0  0  0  0  0  0  0  0  0  0
   -3.0734    6.8361    4.3308 H   0  0  0  0  0  0  0  0  0  0  0  0
   -2.5594    5.4277    5.0530 H   0  0  0  0  0  0  0  0  0  0  0  0
    0.3696    0.3926    0.2713 C   0  0  0  0  0  0  0  0  0  0  0  0
    1.3433    0.5708    0.9938 O   0  0  0  0  0  0  0  0  0  0  0  0
    0.5065   -0.4583   -0.8116 N   0  0  0  0  0  0  0  0  0  0  0  0
   -0.3389   -0.6745   -1.3289 H   0  0  0  0  0  0  0  0  0  0  0  0
    1.6586   -1.3398   -0.9745 C   0  0  0  0  0  0  0  0  0  0  0  0
    1.7256   -2.0401   -0.1349 H   0  0  0  0  0  0  0  0  0  0  0  0
    1.5690   -1.9159   -1.9006 H   0  0  0  0  0  0  0  0  0  0  0  0
    2.5856   -0.7581   -1.0210 H   0  0  0  0  0  0  0  0  0  0  0  0
  1  2  1  0  0  0  0
  2  3  1  0  0  0  0
  2  4  1  0  0  0  0
  2  5  1  0  0  0  0
  5  6  2  0  0  0  0
  5  7  1  0  0  0  0
  7  8  1  0  0  0  0
  7  9  1  0  0  0  0
  9 10  1  0  0  0  0
  9 11  1  0  0  0  0
  9 27  1  0  0  0  0
 11 12  1  0  0  0  0
 11 13  1  0  0  0  0
 11 14  1  0  0  0  0
 14 15  1  0  0  0  0
 14 16  1  0  0  0  0
 14 17  1  0  0  0  0
 17 18  1  0  0  0  0
 17 19  1  0  0  0  0
 17 20  1  0  0  0  0
 20 21  1  0  0  0  0
 20 22  1  0  0  0  0
 20 23  1  0  0  0  0
 23 24  1  0  0  0  0
 23 25  1  0  0  0  0
 23 26  1  0  0  0  0
 27 28  2  0  0  0  0
 27 29  1  0  0  0  0
 29 30  1  0  0  0  0
 29 31  1  0  0  0  0
 31 32  1  0  0  0  0
 31 33  1  0  0  0  0
 31 34  1  0  0  0  0
M  CHG  1  23   1
M  END
$$$$

  -OEChem-01062216093D

 34 33  0     1  0  0  0  0  0999 V2000
   -3.7540   -2.3608    1.1577 H   0  0  0  0  0  0  0  0  0  0  0  0
   -3.7616   -1.3552    0.7267 C   0  0  0  0  0  0  0  0  0  0  0  0
   -4.5591   -0.7773    1.1994 H   0  0  0  0  0  0  0  0  0  0  0  0
   -3.9628   -1.4375   -0.3440 H   0  0  0  0  0  0  0  0  0  0  0  0
   -2.4236   -0.6783    0.9573 C   0  0  0  0  0  0  0  0  0  0  0  0
   -1.5931   -1.2239    1.6566 O   0  0  0  0  0  0  0  0  0  0  0  0
   -2.1943    0.5757    0.4164 N   0  0  0  0  0  0  0  0  0  0  0  0
   -2.9432    0.9301   -0.1709 H   0  0  0  0  0  0  0  0  0  0  0  0
   -0.8967    1.2918    0.3693 C   0  0  1  0  0  0  0  0  0  0  0  0
   -0.8709    1.9304   -0.5185 H   0  0  0  0  0  0  0  0  0  0  0  0
   -0.8209    2.1830    1.6318 C   0  0  0  0  0  0  0  0  0  0  0  0
   -0.9659    1.5552    2.5187 H   0  0  0  0  0  0  0  0  0  0  0  0
    0.1833    2.6170    1.6997 H   0  0  0  0  0  0  0  0  0  0  0  0
   -1.8271    3.3419    1.6366 C   0  0  0  0  0  0  0  0  0  0  0  0
   -1.6680    3.9739    0.7561 H   0  0  0  0  0  0  0  0  0  0  0  0
   -2.8481    2.9477    1.5944 H   0  0  0  0  0  0  0  0  0  0  0  0
   -1.6373    4.1622    2.9201 C   0  0  0  0  0  0  0  0  0  0  0  0
   -1.7737    3.5057    3.7873 H   0  0  0  0  0  0  0  0  0  0  0  0
   -0.6137    4.5528    2.9508 H   0  0  0  0  0  0  0  0  0  0  0  0
   -2.6315    5.3169    2.9892 C   0  0  0  0  0  0  0  0  0  0  0  0
   -2.4884    5.9732    2.1184 H   0  0  0  0  0  0  0  0  0  0  0  0
   -3.6550    4.9186    2.9329 H   0  0  0  0  0  0  0  0  0  0  0  0
   -2.4120    6.0496    4.2557 N   0  3  0  0  0  0  0  0  0  0  0  0
   -1.4574    6.4141    4.2868 H   0  0  0  0  0  0  0  0  0  0  0  0
   -3.0679    6.8299    4.3323 H   0  0  0  0  0  0  0  0  0  0  0  0
   -2.5494    5.4211    5.0503 H   0  0  0  0  0  0  0  0  0  0  0  0
    0.3705    0.3877    0.2833 C   0  0  0  0  0  0  0  0  0  0  0  0
    1.2398    0.4166    1.1467 O   0  0  0  0  0  0  0  0  0  0  0  0
    0.6722   -0.2298   -0.9181 N   0  0  0  0  0  0  0  0  0  0  0  0
   -0.0795   -0.3137   -1.5945 H   0  0  0  0  0  0  0  0  0  0  0  0
    1.8594   -1.0610   -1.0964 C   0  0  0  0  0  0  0  0  0  0  0  0
    1.8305   -1.9194   -0.4165 H   0  0  0  0  0  0  0  0  0  0  0  0
    1.9135   -1.4335   -2.1240 H   0  0  0  0  0  0  0  0  0  0  0  0
    2.7681   -0.4839   -0.8937 H   0  0  0  0  0  0  0  0  0  0  0  0
  1  2  1  0  0  0  0
  2  3  1  0  0  0  0
  2  4  1  0  0  0  0
  2  5  1  0  0  0  0
  5  6  2  0  0  0  0
  5  7  1  0  0  0  0
  7  8  1  0  0  0  0
  7  9  1  0  0  0  0
  9 10  1  0  0  0  0
  9 11  1  0  0  0  0
  9 27  1  0  0  0  0
 11 12  1  0  0  0  0
 11 13  1  0  0  0  0
 11 14  1  0  0  0  0
 14 15  1  0  0  0  0
 14 16  1  0  0  0  0
 14 17  1  0  0  0  0
 17 18  1  0  0  0  0
 17 19  1  0  0  0  0
 17 20  1  0  0  0  0
 20 21  1  0  0  0  0
 20 22  1  0  0  0  0
 20 23  1  0  0  0  0
 23 24  1  0  0  0  0
 23 25  1  0  0  0  0
 23 26  1  0  0  0  0
 27 28  2  0  0  0  0
 27 29  1  0  0  0  0
 29 30  1  0  0  0  0
 29 31  1  0  0  0  0
 31 32  1  0  0  0  0
 31 33  1  0  0  0  0
 31 34  1  0  0  0  0
M  CHG  1  23   1
M  END
$$$$

  -OEChem-01062216093D

 34 33  0     1  0  0  0  0  0999 V2000
   -3.7676   -2.3639    1.1745 H   0  0  0  0  0  0  0  0  0  0  0  0
   -3.7660   -1.3734    0.7093 C   0  0  0  0  0  0  0  0  0  0  0  0
   -4.5897   -0.7894    1.1260 H   0  0  0  0  0  0  0  0  0  0  0  0
   -3.9176   -1.4935   -0.3659 H   0  0  0  0  0  0  0  0  0  0  0  0
   -2.4455   -0.6757    0.9761 C   0  0  0  0  0  0  0  0  0  0  0  0
   -1.6394   -1.1969    1.7203 O   0  0  0  0  0  0  0  0  0  0  0  0
   -2.2107    0.5714    0.4217 N   0  0  0  0  0  0  0  0  0  0  0  0
   -2.9414    0.8985   -0.2031 H   0  0  0  0  0  0  0  0  0  0  0  0
   -0.9090    1.2796    0.3695 C   0  0  1  0  0  0  0  0  0  0  0  0
   -0.8842    1.9188   -0.5179 H   0  0  0  0  0  0  0  0  0  0  0  0
   -0.8264    2.1709    1.6302 C   0  0  0  0  0  0  0  0  0  0  0  0
   -0.9779    1.5445    2.5172 H   0  0  0  0  0  0  0  0  0  0  0  0
    0.1832    2.5923    1.6975 H   0  0  0  0  0  0  0  0  0  0  0  0
   -1.8250    3.3361    1.6371 C   0  0  0  0  0  0  0  0  0  0  0  0
   -1.6622    3.9680    0.7572 H   0  0  0  0  0  0  0  0  0  0  0  0
   -2.8486    2.9488    1.5949 H   0  0  0  0  0  0  0  0  0  0  0  0
   -1.6285    4.1554    2.9202 C   0  0  0  0  0  0  0  0  0  0  0  0
   -1.7680    3.4999    3.7877 H   0  0  0  0  0  0  0  0  0  0  0  0
   -0.6024    4.5393    2.9502 H   0  0  0  0  0  0  0  0  0  0  0  0
   -2.6164    5.3158    2.9889 C   0  0  0  0  0  0  0  0  0  0  0  0
   -2.4691    5.9711    2.1177 H   0  0  0  0  0  0  0  0  0  0  0  0
   -3.6423    4.9235    2.9328 H   0  0  0  0  0  0  0  0  0  0  0  0
   -2.3922    6.0484    4.2544 N   0  3  0  0  0  0  0  0  0  0  0  0
   -1.4360    6.4081    4.2846 H   0  0  0  0  0  0  0  0  0  0  0  0
   -3.0443    6.8318    4.3307 H   0  0  0  0  0  0  0  0  0  0  0  0
   -2.5325    5.4210    5.0493 H   0  0  0  0  0  0  0  0  0  0  0  0
    0.3607    0.3774    0.2951 C   0  0  0  0  0  0  0  0  0  0  0  0
    1.1171    0.2511    1.2508 O   0  0  0  0  0  0  0  0  0  0  0  0
    0.8405    0.0072   -0.9497 N   0  0  0  0  0  0  0  0  0  0  0  0
    0.2005    0.0733   -1.7344 H   0  0  0  0  0  0  0  0  0  0  0  0
    2.0777   -0.7481   -1.1263 C   0  0  0  0  0  0  0  0  0  0  0  0
    2.0235   -1.7025   -0.5911 H   0  0  0  0  0  0  0  0  0  0  0  0
    2.2498   -0.9546   -2.1871 H   0  0  0  0  0  0  0  0  0  0  0  0
    2.9327   -0.1801   -0.7441 H   0  0  0  0  0  0  0  0  0  0  0  0
  1  2  1  0  0  0  0
  2  3  1  0  0  0  0
  2  4  1  0  0  0  0
  2  5  1  0  0  0  0
  5  6  2  0  0  0  0
  5  7  1  0  0  0  0
  7  8  1  0  0  0  0
  7  9  1  0  0  0  0
  9 10  1  0  0  0  0
  9 11  1  0  0  0  0
  9 27  1  0  0  0  0
 11 12  1  0  0  0  0
 11 13  1  0  0  0  0
 11 14  1  0  0  0  0
 14 15  1  0  0  0  0
 14 16  1  0  0  0  0
 14 17  1  0  0  0  0
 17 18  1  0  0  0  0
 17 19  1  0  0  0  0
 17 20  1  0  0  0  0
 20 21  1  0  0  0  0
 20 22  1  0  0  0  0
 20 23  1  0  0  0  0
 23 24  1  0  0  0  0
 23 25  1  0  0  0  0
 23 26  1  0  0  0  0
 27 28  2  0  0  0  0
 27 29  1  0  0  0  0
 29 30  1  0  0  0  0
 29 31  1  0  0  0  0
 31 32  1  0  0  0  0
 31 33  1  0  0  0  0
 31 34  1  0  0  0  0
M  CHG  1  23   1
M  END
$$$$

  -OEChem-01062216093D

 34 33  0     1  0  0  0  0  0999 V2000
   -3.7938   -2.3659    1.1789 H   0  0  0  0  0  0  0  0  0  0  0  0
   -3.7769   -1.3872    0.6900 C   0  0  0  0  0  0  0  0  0  0  0  0
   -4.6235   -0.7997    1.0526 H   0  0  0  0  0  0  0  0  0  0  0  0
   -3.8770   -1.5349   -0.3879 H   0  0  0  0  0  0  0  0  0  0  0  0
   -2.4743   -0.6735    0.9999 C   0  0  0  0  0  0  0  0  0  0  0  0
   -1.7056   -1.1667    1.7995 O   0  0  0  0  0  0  0  0  0  0  0  0
   -2.2283    0.5644    0.4305 N   0  0  0  0  0  0  0  0  0  0  0  0
   -2.9390    0.8626   -0.2304 H   0  0  0  0  0  0  0  0  0  0  0  0
   -0.9228    1.2649    0.3657 C   0  0  1  0  0  0  0  0  0  0  0  0
   -0.9055    1.9031   -0.5224 H   0  0  0  0  0  0  0  0  0  0  0  0
   -0.8275    2.1561    1.6250 C   0  0  0  0  0  0  0  0  0  0  0  0
   -0.9779    1.5327    2.5147 H   0  0  0  0  0  0  0  0  0  0  0  0
    0.1860    2.5693    1.6856 H   0  0  0  0  0  0  0  0  0  0  0  0
   -1.8222    3.3244    1.6354 C   0  0  0  0  0  0  0  0  0  0  0  0
   -1.6644    3.9538    0.7528 H   0  0  0  0  0  0  0  0  0  0  0  0
   -2.8469    2.9390    1.6015 H   0  0  0  0  0  0  0  0  0  0  0  0
   -1.6163    4.1455    2.9151 C   0  0  0  0  0  0  0  0  0  0  0  0
   -1.7532    3.4922    3.7844 H   0  0  0  0  0  0  0  0  0  0  0  0
   -0.5891    4.5265    2.9389 H   0  0  0  0  0  0  0  0  0  0  0  0
   -2.6003    5.3090    2.9871 C   0  0  0  0  0  0  0  0  0  0  0  0
   -2.4568    5.9628    2.1144 H   0  0  0  0  0  0  0  0  0  0  0  0
   -3.6278    4.9198    2.9384 H   0  0  0  0  0  0  0  0  0  0  0  0
   -2.3657    6.0421    4.2504 N   0  3  0  0  0  0  0  0  0  0  0  0
   -1.4076    6.3975    4.2751 H   0  0  0  0  0  0  0  0  0  0  0  0
   -3.0140    6.8284    4.3295 H   0  0  0  0  0  0  0  0  0  0  0  0
   -2.5044    5.4162    5.0469 H   0  0  0  0  0  0  0  0  0  0  0  0
    0.3541    0.3718    0.2984 C   0  0  0  0  0  0  0  0  0  0  0  0
    0.9913    0.0822    1.3031 O   0  0  0  0  0  0  0  0  0  0  0  0
    1.0135    0.2497   -0.9138 N   0  0  0  0  0  0  0  0  0  0  0  0
    0.4964    0.4801   -1.7560 H   0  0  0  0  0  0  0  0  0  0  0  0
    2.2975   -0.4326   -1.0535 C   0  0  0  0  0  0  0  0  0  0  0  0
    2.2256   -1.4640   -0.6915 H   0  0  0  0  0  0  0  0  0  0  0  0
    2.6044   -0.4558   -2.1036 H   0  0  0  0  0  0  0  0  0  0  0  0
    3.0729    0.0865   -0.4799 H   0  0  0  0  0  0  0  0  0  0  0  0
  1  2  1  0  0  0  0
  2  3  1  0  0  0  0
  2  4  1  0  0  0  0
  2  5  1  0  0  0  0
  5  6  2  0  0  0  0
  5  7  1  0  0  0  0
  7  8  1  0  0  0  0
  7  9  1  0  0  0  0
  9 10  1  0  0  0  0
  9 11  1  0  0  0  0
  9 27  1  0  0  0  0
 11 12  1  0  0  0  0
 11 13  1  0  0  0  0
 11 14  1  0  0  0  0
 14 15  1  0  0  0  0
 14 16  1  0  0  0  0
 14 17  1  0  0  0  0
 17 18  1  0  0  0  0
 17 19  1  0  0  0  0
 17 20  1  0  0  0  0
 20 21  1  0  0  0  0
 20 22  1  0  0  0  0
 20 23  1  0  0  0  0
 23 24  1  0  0  0  0
 23 25  1  0  0  0  0
 23 26  1  0  0  0  0
 27 28  2  0  0  0  0
 27 29  1  0  0  0  0
 29 30  1  0  0  0  0
 29 31  1  0  0  0  0
 31 32  1  0  0  0  0
 31 33  1  0  0  0  0
 31 34  1  0  0  0  0
M  CHG  1  23   1
M  END
$$$$

  -OEChem-01062216093D

 34 33  0     1  0  0  0  0  0999 V2000
   -3.7486   -2.4041    1.1711 H   0  0  0  0  0  0  0  0  0  0  0  0
   -3.7126   -1.4626    0.6146 C   0  0  0  0  0  0  0  0  0  0  0  0
   -4.6317   -0.9048    0.8086 H   0  0  0  0  0  0  0  0  0  0  0  0
   -3.6481   -1.6913   -0.4518 H   0  0  0  0  0  0  0  0  0  0  0  0
   -2.5076   -0.6490    1.0474 C   0  0  0  0  0  0  0  0  0  0  0  0
   -1.8600   -1.0184    2.0054 O   0  0  0  0  0  0  0  0  0  0  0  0
   -2.2663    0.5751    0.4473 N   0  0  0  0  0  0  0  0  0  0  0  0
   -2.9204    0.7807   -0.3018 H   0  0  0  0  0  0  0  0  0  0  0  0
   -0.9560    1.2659    0.3606 C   0  0  1  0  0  0  0  0  0  0  0  0
   -0.9487    1.8998   -0.5305 H   0  0  0  0  0  0  0  0  0  0  0  0
   -0.8370    2.1565    1.6182 C   0  0  0  0  0  0  0  0  0  0  0  0
   -0.9802    1.5364    2.5113 H   0  0  0  0  0  0  0  0  0  0  0  0
    0.1810    2.5599    1.6659 H   0  0  0  0  0  0  0  0  0  0  0  0
   -1.8236    3.3315    1.6434 C   0  0  0  0  0  0  0  0  0  0  0  0
   -1.6742    3.9600    0.7586 H   0  0  0  0  0  0  0  0  0  0  0  0
   -2.8513    2.9526    1.6236 H   0  0  0  0  0  0  0  0  0  0  0  0
   -1.5949    4.1513    2.9204 C   0  0  0  0  0  0  0  0  0  0  0  0
   -1.7246    3.4985    3.7914 H   0  0  0  0  0  0  0  0  0  0  0  0
   -0.5652    4.5259    2.9306 H   0  0  0  0  0  0  0  0  0  0  0  0
   -2.5718    5.3202    3.0037 C   0  0  0  0  0  0  0  0  0  0  0  0
   -2.4358    5.9713    2.1277 H   0  0  0  0  0  0  0  0  0  0  0  0
   -3.6015    4.9352    2.9681 H   0  0  0  0  0  0  0  0  0  0  0  0
   -2.3202    6.0559    4.2624 N   0  3  0  0  0  0  0  0  0  0  0  0
   -1.3608    6.4078    4.2753 H   0  0  0  0  0  0  0  0  0  0  0  0
   -2.9651    6.8445    4.3473 H   0  0  0  0  0  0  0  0  0  0  0  0
   -2.4526    5.4319    5.0617 H   0  0  0  0  0  0  0  0  0  0  0  0
    0.3264    0.3804    0.3031 C   0  0  0  0  0  0  0  0  0  0  0  0
    0.8217   -0.1211    1.3016 O   0  0  0  0  0  0  0  0  0  0  0  0
    1.1511    0.4853   -0.8054 N   0  0  0  0  0  0  0  0  0  0  0  0
    0.7704    0.9179   -1.6408 H   0  0  0  0  0  0  0  0  0  0  0  0
    2.4535   -0.1711   -0.8959 C   0  0  0  0  0  0  0  0  0  0  0  0
    2.3542   -1.2486   -0.7245 H   0  0  0  0  0  0  0  0  0  0  0  0
    2.8882   -0.0192   -1.8887 H   0  0  0  0  0  0  0  0  0  0  0  0
    3.1428    0.2399   -0.1506 H   0  0  0  0  0  0  0  0  0  0  0  0
  1  2  1  0  0  0  0
  2  3  1  0  0  0  0
  2  4  1  0  0  0  0
  2  5  1  0  0  0  0
  5  6  2  0  0  0  0
  5  7  1  0  0  0  0
  7  8  1  0  0  0  0
  7  9  1  0  0  0  0
  9 10  1  0  0  0  0
  9 11  1  0  0  0  0
  9 27  1  0  0  0  0
 11 12  1  0  0  0  0
 11 13  1  0  0  0  0
 11 14  1  0  0  0  0
 14 15  1  0  0  0  0
 14 16  1  0  0  0  0
 14 17  1  0  0  0  0
 17 18  1  0  0  0  0
 17 19  1  0  0  0  0
 17 20  1  0  0  0  0
 20 21  1  0  0  0  0
 20 22  1  0  0  0  0
 20 23  1  0  0  0  0
 23 24  1  0  0  0  0
 23 25  1  0  0  0  0
 23 26  1  0  0  0  0
 27 28  2  0  0  0  0
 27 29  1  0  0  0  0
 29 30  1  0  0  0  0
 29 31  1  0  0  0  0
 31 32  1  0  0  0  0
 31 33  1  0  0  0  0
 31 34  1  0  0  0  0
M  CHG  1  23   1
M  END
$$$$

  -OEChem-01062216093D

 34 33  0     1  0  0  0  0  0999 V2000
   -3.4447   -2.5191    1.1206 H   0  0  0  0  0  0  0  0  0  0  0  0
   -3.4102   -1.6277    0.4874 C   0  0  0  0  0  0  0  0  0  0  0  0
   -4.4255   -1.2448    0.3615 H   0  0  0  0  0  0  0  0  0  0  0  0
   -3.0076   -1.9107   -0.4883 H   0  0  0  0  0  0  0  0  0  0  0  0
   -2.5280   -0.5729    1.1272 C   0  0  0  0  0  0  0  0  0  0  0  0
   -2.2131   -0.6804    2.2991 O   0  0  0  0  0  0  0  0  0  0  0  0
   -2.3318    0.6426    0.4950 N   0  0  0  0  0  0  0  0  0  0  0  0
   -2.8794    0.6958   -0.3586 H   0  0  0  0  0  0  0  0  0  0  0  0
   -1.0120    1.3140    0.3919 C   0  0  1  0  0  0  0  0  0  0  0  0
   -1.0066    1.9438   -0.5022 H   0  0  0  0  0  0  0  0  0  0  0  0
   -0.8551    2.1960    1.6498 C   0  0  0  0  0  0  0  0  0  0  0  0
   -0.9880    1.5816    2.5474 H   0  0  0  0  0  0  0  0  0  0  0  0
    0.1679    2.5878    1.6796 H   0  0  0  0  0  0  0  0  0  0  0  0
   -1.8291    3.3816    1.6832 C   0  0  0  0  0  0  0  0  0  0  0  0
   -1.6860    4.0040    0.7934 H   0  0  0  0  0  0  0  0  0  0  0  0
   -2.8602    3.0111    1.6775 H   0  0  0  0  0  0  0  0  0  0  0  0
   -1.5822    4.2073    2.9516 C   0  0  0  0  0  0  0  0  0  0  0  0
   -1.7096    3.5619    3.8287 H   0  0  0  0  0  0  0  0  0  0  0  0
   -0.5505    4.5759    2.9497 H   0  0  0  0  0  0  0  0  0  0  0  0
   -2.5518    5.3822    3.0315 C   0  0  0  0  0  0  0  0  0  0  0  0
   -2.4221    6.0246    2.1484 H   0  0  0  0  0  0  0  0  0  0  0  0
   -3.5835    5.0008    3.0088 H   0  0  0  0  0  0  0  0  0  0  0  0
   -2.2865    6.1273    4.2816 N   0  3  0  0  0  0  0  0  0  0  0  0
   -1.3266    6.4772    4.2834 H   0  0  0  0  0  0  0  0  0  0  0  0
   -2.9293    6.9176    4.3658 H   0  0  0  0  0  0  0  0  0  0  0  0
   -2.4135    5.5098    5.0868 H   0  0  0  0  0  0  0  0  0  0  0  0
    0.2587    0.4143    0.3353 C   0  0  0  0  0  0  0  0  0  0  0  0
    0.4660   -0.5083    1.1054 O   0  0  0  0  0  0  0  0  0  0  0  0
    1.2437    0.7021   -0.5950 N   0  0  0  0  0  0  0  0  0  0  0  0
    1.0728    1.4501   -1.2595 H   0  0  0  0  0  0  0  0  0  0  0  0
    2.4630   -0.0906   -0.7348 C   0  0  0  0  0  0  0  0  0  0  0  0
    2.2181   -1.1354   -0.9549 H   0  0  0  0  0  0  0  0  0  0  0  0
    3.0786    0.2979   -1.5519 H   0  0  0  0  0  0  0  0  0  0  0  0
    3.0520   -0.0556    0.1882 H   0  0  0  0  0  0  0  0  0  0  0  0
  1  2  1  0  0  0  0
  2  3  1  0  0  0  0
  2  4  1  0  0  0  0
  2  5  1  0  0  0  0
  5  6  2  0  0  0  0
  5  7  1  0  0  0  0
  7  8  1  0  0  0  0
  7  9  1  0  0  0  0
  9 10  1  0  0  0  0
  9 11  1  0  0  0  0
  9 27  1  0  0  0  0
 11 12  1  0  0  0  0
 11 13  1  0  0  0  0
 11 14  1  0  0  0  0
 14 15  1  0  0  0  0
 14 16  1  0  0  0  0
 14 17  1  0  0  0  0
 17 18  1  0  0  0  0
 17 19  1  0  0  0  0
 17 20  1  0  0  0  0
 20 21  1  0  0  0  0
 20 22  1  0  0  0  0
 20 23  1  0  0  0  0
 23 24  1  0  0  0  0
 23 25  1  0  0  0  0
 23 26  1  0  0  0  0
 27 28  2  0  0  0  0
 27 29  1  0  0  0  0
 29 30  1  0  0  0  0
 29 31  1  0  0  0  0
 31 32  1  0  0  0  0
 31 33  1  0  0  0  0
 31 34  1  0  0  0  0
M  CHG  1  23   1
M  END
$$$$

  -OEChem-01062216093D

 34 33  0     1  0  0  0  0  0999 V2000
   -3.4661   -2.5149    1.1420 H   0  0  0  0  0  0  0  0  0  0  0  0
   -3.4165   -1.6269    0.5050 C   0  0  0  0  0  0  0  0  0  0  0  0
   -4.4255   -1.2310    0.3695 H   0  0  0  0  0  0  0  0  0  0  0  0
   -3.0097   -1.9192   -0.4660 H   0  0  0  0  0  0  0  0  0  0  0  0
   -2.5238   -0.5813    1.1443 C   0  0  0  0  0  0  0  0  0  0  0  0
   -2.1926   -0.6935    2.3131 O   0  0  0  0  0  0  0  0  0  0  0  0
   -2.3144    0.6361    0.5201 N   0  0  0  0  0  0  0  0  0  0  0  0
   -2.8394    0.6856   -0.3479 H   0  0  0  0  0  0  0  0  0  0  0  0
   -0.9846    1.2919    0.4404 C   0  0  1  0  0  0  0  0  0  0  0  0
   -0.9641    1.9173   -0.4567 H   0  0  0  0  0  0  0  0  0  0  0  0
   -0.8463    2.1778    1.6979 C   0  0  0  0  0  0  0  0  0  0  0  0
   -1.0055    1.5700    2.5954 H   0  0  0  0  0  0  0  0  0  0  0  0
    0.1782    2.5621    1.7502 H   0  0  0  0  0  0  0  0  0  0  0  0
   -1.8110    3.3723    1.6992 C   0  0  0  0  0  0  0  0  0  0  0  0
   -1.6417    3.9861    0.8079 H   0  0  0  0  0  0  0  0  0  0  0  0
   -2.8447    3.0094    1.6709 H   0  0  0  0  0  0  0  0  0  0  0  0
   -1.5929    4.2093    2.9658 C   0  0  0  0  0  0  0  0  0  0  0  0
   -1.7482    3.5742    3.8456 H   0  0  0  0  0  0  0  0  0  0  0  0
   -0.5593    4.5716    2.9887 H   0  0  0  0  0  0  0  0  0  0  0  0
   -2.5588    5.3904    3.0042 C   0  0  0  0  0  0  0  0  0  0  0  0
   -2.4015    6.0209    2.1169 H   0  0  0  0  0  0  0  0  0  0  0  0
   -3.5911    5.0137    2.9560 H   0  0  0  0  0  0  0  0  0  0  0  0
   -2.3287    6.1519    4.2513 N   0  3  0  0  0  0  0  0  0  0  0  0
   -1.3691    6.5020    4.2769 H   0  0  0  0  0  0  0  0  0  0  0  0
   -2.9732    6.9436    4.3061 H   0  0  0  0  0  0  0  0  0  0  0  0
   -2.4803    5.5453    5.0605 H   0  0  0  0  0  0  0  0  0  0  0  0
    0.2928    0.3972    0.3933 C   0  0  0  0  0  0  0  0  0  0  0  0
    0.3103   -0.7780    0.7222 O   0  0  0  0  0  0  0  0  0  0  0  0
    1.4067    0.8737   -0.2794 N   0  0  0  0  0  0  0  0  0  0  0  0
    1.3797    1.8218   -0.6395 H   0  0  0  0  0  0  0  0  0  0  0  0
    2.6002    0.0680   -0.5266 C   0  0  0  0  0  0  0  0  0  0  0  0
    2.3577   -0.7952   -1.1559 H   0  0  0  0  0  0  0  0  0  0  0  0
    3.3625    0.6642   -1.0377 H   0  0  0  0  0  0  0  0  0  0  0  0
    3.0220   -0.2939    0.4175 H   0  0  0  0  0  0  0  0  0  0  0  0
  1  2  1  0  0  0  0
  2  3  1  0  0  0  0
  2  4  1  0  0  0  0
  2  5  1  0  0  0  0
  5  6  2  0  0  0  0
  5  7  1  0  0  0  0
  7  8  1  0  0  0  0
  7  9  1  0  0  0  0
  9 10  1  0  0  0  0
  9 11  1  0  0  0  0
  9 27  1  0  0  0  0
 11 12  1  0  0  0  0
 11 13  1  0  0  0  0
 11 14  1  0  0  0  0
 14 15  1  0  0  0  0
 14 16  1  0  0  0  0
 14 17  1  0  0  0  0
 17 18  1  0  0  0  0
 17 19  1  0  0  0  0
 17 20  1  0  0  0  0
 20 21  1  0  0  0  0
 20 22  1  0  0  0  0
 20 23  1  0  0  0  0
 23 24  1  0  0  0  0
 23 25  1  0  0  0  0
 23 26  1  0  0  0  0
 27 28  2  0  0  0  0
 27 29  1  0  0  0  0
 29 30  1  0  0  0  0
 29 31  1  0  0  0  0
 31 32  1  0  0  0  0
 31 33  1  0  0  0  0
 31 34  1  0  0  0  0
M  CHG  1  23   1
M  END
$$$$

  -OEChem-01062216093D

 34 33  0     1  0  0  0  0  0999 V2000
   -3.4954   -2.4951    1.1629 H   0  0  0  0  0  0  0  0  0  0  0  0
   -3.4386   -1.6077    0.5261 C   0  0  0  0  0  0  0  0  0  0  0  0
   -4.4396   -1.1836    0.4212 H   0  0  0  0  0  0  0  0  0  0  0  0
   -3.0685   -1.9090   -0.4571 H   0  0  0  0  0  0  0  0  0  0  0  0
   -2.4977   -0.5891    1.1404 C   0  0  0  0  0  0  0  0  0  0  0  0
   -2.0700   -0.7520    2.2723 O   0  0  0  0  0  0  0  0  0  0  0  0
   -2.2931    0.6372    0.5302 N   0  0  0  0  0  0  0  0  0  0  0  0
   -2.8184    0.7006   -0.3369 H   0  0  0  0  0  0  0  0  0  0  0  0
   -0.9600    1.2886    0.4695 C   0  0  1  0  0  0  0  0  0  0  0  0
   -0.9203    1.9134   -0.4275 H   0  0  0  0  0  0  0  0  0  0  0  0
   -0.8406    2.1772    1.7290 C   0  0  0  0  0  0  0  0  0  0  0  0
   -1.0192    1.5719    2.6243 H   0  0  0  0  0  0  0  0  0  0  0  0
    0.1819    2.5620    1.8018 H   0  0  0  0  0  0  0  0  0  0  0  0
   -1.8036    3.3735    1.7091 C   0  0  0  0  0  0  0  0  0  0  0  0
   -1.6174    3.9838    0.8188 H   0  0  0  0  0  0  0  0  0  0  0  0
   -2.8370    3.0119    1.6623 H   0  0  0  0  0  0  0  0  0  0  0  0
   -1.6088    4.2160    2.9763 C   0  0  0  0  0  0  0  0  0  0  0  0
   -1.7817    3.5847    3.8556 H   0  0  0  0  0  0  0  0  0  0  0  0
   -0.5756    4.5783    3.0171 H   0  0  0  0  0  0  0  0  0  0  0  0
   -2.5741    5.3984    2.9922 C   0  0  0  0  0  0  0  0  0  0  0  0
   -2.3979    6.0255    2.1060 H   0  0  0  0  0  0  0  0  0  0  0  0
   -3.6057    5.0226    2.9249 H   0  0  0  0  0  0  0  0  0  0  0  0
   -2.3675    6.1656    4.2403 N   0  3  0  0  0  0  0  0  0  0  0  0
   -1.4078    6.5137    4.2833 H   0  0  0  0  0  0  0  0  0  0  0  0
   -3.0110    6.9592    4.2777 H   0  0  0  0  0  0  0  0  0  0  0  0
   -2.5371    5.5642    5.0498 H   0  0  0  0  0  0  0  0  0  0  0  0
    0.3021    0.3711    0.4207 C   0  0  0  0  0  0  0  0  0  0  0  0
    0.2226   -0.8457    0.3351 O   0  0  0  0  0  0  0  0  0  0  0  0
    1.5175    0.9287    0.0552 N   0  0  0  0  0  0  0  0  0  0  0  0
    1.5796    1.9389   -0.0100 H   0  0  0  0  0  0  0  0  0  0  0  0
    2.7050    0.1341   -0.2520 C   0  0  0  0  0  0  0  0  0  0  0  0
    2.5386   -0.4742   -1.1476 H   0  0  0  0  0  0  0  0  0  0  0  0
    3.5648    0.7865   -0.4322 H   0  0  0  0  0  0  0  0  0  0  0  0
    2.9486   -0.5322    0.5829 H   0  0  0  0  0  0  0  0  0  0  0  0
  1  2  1  0  0  0  0
  2  3  1  0  0  0  0
  2  4  1  0  0  0  0
  2  5  1  0  0  0  0
  5  6  2  0  0  0  0
  5  7  1  0  0  0  0
  7  8  1  0  0  0  0
  7  9  1  0  0  0  0
  9 10  1  0  0  0  0
  9 11  1  0  0  0  0
  9 27  1  0  0  0  0
 11 12  1  0  0  0  0
 11 13  1  0  0  0  0
 11 14  1  0  0  0  0
 14 15  1  0  0  0  0
 14 16  1  0  0  0  0
 14 17  1  0  0  0  0
 17 18  1  0  0  0  0
 17 19  1  0  0  0  0
 17 20  1  0  0  0  0
 20 21  1  0  0  0  0
 20 22  1  0  0  0  0
 20 23  1  0  0  0  0
 23 24  1  0  0  0  0
 23 25  1  0  0  0  0
 23 26  1  0  0  0  0
 27 28  2  0  0  0  0
 27 29  1  0  0  0  0
 29 30  1  0  0  0  0
 29 31  1  0  0  0  0
 31 32  1  0  0  0  0
 31 33  1  0  0  0  0
 31 34  1  0  0  0  0
M  CHG  1  23   1
M  END
$$$$

  -OEChem-01062216093D

 34 33  0     1  0  0  0  0  0999 V2000
   -3.4615   -2.5318    0.9895 H   0  0  0  0  0  0  0  0  0  0  0  0
   -3.4669   -1.5718    0.4653 C   0  0  0  0  0  0  0  0  0  0  0  0
   -4.4565   -1.1202    0.5642 H   0  0  0  0  0  0  0  0  0  0  0  0
   -3.2565   -1.7515   -0.5921 H   0  0  0  0  0  0  0  0  0  0  0  0
   -2.4104   -0.6540    1.0489 C   0  0  0  0  0  0  0  0  0  0  0  0
   -1.7740   -1.0059    2.0297 O   0  0  0  0  0  0  0  0  0  0  0  0
   -2.2446    0.6218    0.5318 N   0  0  0  0  0  0  0  0  0  0  0  0
   -2.8099    0.7649   -0.3008 H   0  0  0  0  0  0  0  0  0  0  0  0
   -0.9315    1.3113    0.5125 C   0  0  1  0  0  0  0  0  0  0  0  0
   -0.9887    2.1401   -0.1993 H   0  0  0  0  0  0  0  0  0  0  0  0
   -0.6303    1.8875    1.9182 C   0  0  0  0  0  0  0  0  0  0  0  0
   -0.6811    1.1012    2.6766 H   0  0  0  0  0  0  0  0  0  0  0  0
    0.3918    2.2776    1.9357 H   0  0  0  0  0  0  0  0  0  0  0  0
   -1.5834    3.0340    2.2850 C   0  0  0  0  0  0  0  0  0  0  0  0
   -1.5099    3.8288    1.5347 H   0  0  0  0  0  0  0  0  0  0  0  0
   -2.6150    2.6640    2.2856 H   0  0  0  0  0  0  0  0  0  0  0  0
   -1.2338    3.5877    3.6721 C   0  0  0  0  0  0  0  0  0  0  0  0
   -1.2970    2.7781    4.4083 H   0  0  0  0  0  0  0  0  0  0  0  0
   -0.2041    3.9616    3.6670 H   0  0  0  0  0  0  0  0  0  0  0  0
   -2.1937    4.7115    4.0549 C   0  0  0  0  0  0  0  0  0  0  0  0
   -2.1274    5.5171    3.3088 H   0  0  0  0  0  0  0  0  0  0  0  0
   -3.2251    4.3292    4.0287 H   0  0  0  0  0  0  0  0  0  0  0  0
   -1.8426    5.2031    5.4054 N   0  3  0  0  0  0  0  0  0  0  0  0
   -0.8859    5.5615    5.4107 H   0  0  0  0  0  0  0  0  0  0  0  0
   -2.4797    5.9525    5.6846 H   0  0  0  0  0  0  0  0  0  0  0  0
   -1.9133    4.4398    6.0821 H   0  0  0  0  0  0  0  0  0  0  0  0
    0.2471    0.4159    0.0270 C   0  0  0  0  0  0  0  0  0  0  0  0
    0.0258   -0.6200   -0.5871 O   0  0  0  0  0  0  0  0  0  0  0  0
    1.5337    0.9250   -0.0402 N   0  0  0  0  0  0  0  0  0  0  0  0
    1.7171    1.8191    0.4011 H   0  0  0  0  0  0  0  0  0  0  0  0
    2.6484    0.1991   -0.6431 C   0  0  0  0  0  0  0  0  0  0  0  0
    2.4669    0.0354   -1.7108 H   0  0  0  0  0  0  0  0  0  0  0  0
    3.5770    0.7676   -0.5343 H   0  0  0  0  0  0  0  0  0  0  0  0
    2.7812   -0.7736   -0.1569 H   0  0  0  0  0  0  0  0  0  0  0  0
  1  2  1  0  0  0  0
  2  3  1  0  0  0  0
  2  4  1  0  0  0  0
  2  5  1  0  0  0  0
  5  6  2  0  0  0  0
  5  7  1  0  0  0  0
  7  8  1  0  0  0  0
  7  9  1  0  0  0  0
  9 10  1  0  0  0  0
  9 11  1  0  0  0  0
  9 27  1  0  0  0  0
 11 12  1  0  0  0  0
 11 13  1  0  0  0  0
 11 14  1  0  0  0  0
 14 15  1  0  0  0  0
 14 16  1  0  0  0  0
 14 17  1  0  0  0  0
 17 18  1  0  0  0  0
 17 19  1  0  0  0  0
 17 20  1  0  0  0  0
 20 21  1  0  0  0  0
 20 22  1  0  0  0  0
 20 23  1  0  0  0  0
 23 24  1  0  0  0  0
 23 25  1  0  0  0  0
 23 26  1  0  0  0  0
 27 28  2  0  0  0  0
 27 29  1  0  0  0  0
 29 30  1  0  0  0  0
 29 31  1  0  0  0  0
 31 32  1  0  0  0  0
 31 33  1  0  0  0  0
 31 34  1  0  0  0  0
M  CHG  1  23   1
M  END
$$$$

  -OEChem-01062216093D

 34 33  0     1  0  0  0  0  0999 V2000
   -3.4093   -2.5307    0.9819 H   0  0  0  0  0  0  0  0  0  0  0  0
   -3.4415   -1.5597    0.4793 C   0  0  0  0  0  0  0  0  0  0  0  0
   -4.4266   -1.1145    0.6347 H   0  0  0  0  0  0  0  0  0  0  0  0
   -3.2810   -1.7158   -0.5905 H   0  0  0  0  0  0  0  0  0  0  0  0
   -2.3618   -0.6503    1.0336 C   0  0  0  0  0  0  0  0  0  0  0  0
   -1.6692   -1.0268    1.9661 O   0  0  0  0  0  0  0  0  0  0  0  0
   -2.2218    0.6369    0.5380 N   0  0  0  0  0  0  0  0  0  0  0  0
   -2.7976    0.7898   -0.2858 H   0  0  0  0  0  0  0  0  0  0  0  0
   -0.9162    1.3382    0.5215 C   0  0  1  0  0  0  0  0  0  0  0  0
   -0.9771    2.1720   -0.1844 H   0  0  0  0  0  0  0  0  0  0  0  0
   -0.6212    1.9114    1.9304 C   0  0  0  0  0  0  0  0  0  0  0  0
   -0.6661    1.1209    2.6851 H   0  0  0  0  0  0  0  0  0  0  0  0
    0.3944    2.3167    1.9505 H   0  0  0  0  0  0  0  0  0  0  0  0
   -1.5872    3.0469    2.2979 C   0  0  0  0  0  0  0  0  0  0  0  0
   -1.5187    3.8443    1.5496 H   0  0  0  0  0  0  0  0  0  0  0  0
   -2.6151    2.6670    2.2935 H   0  0  0  0  0  0  0  0  0  0  0  0
   -1.2494    3.6029    3.6869 C   0  0  0  0  0  0  0  0  0  0  0  0
   -1.3063    2.7921    4.4222 H   0  0  0  0  0  0  0  0  0  0  0  0
   -0.2242    3.9892    3.6860 H   0  0  0  0  0  0  0  0  0  0  0  0
   -2.2253    4.7152    4.0639 C   0  0  0  0  0  0  0  0  0  0  0  0
   -2.1633    5.5205    3.3171 H   0  0  0  0  0  0  0  0  0  0  0  0
   -3.2516    4.3207    4.0308 H   0  0  0  0  0  0  0  0  0  0  0  0
   -1.8907    5.2142    5.4158 N   0  3  0  0  0  0  0  0  0  0  0  0
   -0.9383    5.5839    5.4278 H   0  0  0  0  0  0  0  0  0  0  0  0
   -2.5386    5.9571    5.6874 H   0  0  0  0  0  0  0  0  0  0  0  0
   -1.9582    4.4524    6.0943 H   0  0  0  0  0  0  0  0  0  0  0  0
    0.2449    0.4376    0.0058 C   0  0  0  0  0  0  0  0  0  0  0  0
   -0.0022   -0.4437   -0.8082 O   0  0  0  0  0  0  0  0  0  0  0  0
    1.5740    0.7793    0.1948 N   0  0  0  0  0  0  0  0  0  0  0  0
    1.7846    1.5005    0.8754 H   0  0  0  0  0  0  0  0  0  0  0  0
    2.6776    0.0004   -0.3600 C   0  0  0  0  0  0  0  0  0  0  0  0
    2.6326   -0.0042   -1.4544 H   0  0  0  0  0  0  0  0  0  0  0  0
    3.6373    0.4300   -0.0571 H   0  0  0  0  0  0  0  0  0  0  0  0
    2.6343   -1.0344   -0.0030 H   0  0  0  0  0  0  0  0  0  0  0  0
  1  2  1  0  0  0  0
  2  3  1  0  0  0  0
  2  4  1  0  0  0  0
  2  5  1  0  0  0  0
  5  6  2  0  0  0  0
  5  7  1  0  0  0  0
  7  8  1  0  0  0  0
  7  9  1  0  0  0  0
  9 10  1  0  0  0  0
  9 11  1  0  0  0  0
  9 27  1  0  0  0  0
 11 12  1  0  0  0  0
 11 13  1  0  0  0  0
 11 14  1  0  0  0  0
 14 15  1  0  0  0  0
 14 16  1  0  0  0  0
 14 17  1  0  0  0  0
 17 18  1  0  0  0  0
 17 19  1  0  0  0  0
 17 20  1  0  0  0  0
 20 21  1  0  0  0  0
 20 22  1  0  0  0  0
 20 23  1  0  0  0  0
 23 24  1  0  0  0  0
 23 25  1  0  0  0  0
 23 26  1  0  0  0  0
 27 28  2  0  0  0  0
 27 29  1  0  0  0  0
 29 30  1  0  0  0  0
 29 31  1  0  0  0  0
 31 32  1  0  0  0  0
 31 33  1  0  0  0  0
 31 34  1  0  0  0  0
M  CHG  1  23   1
M  END
$$$$

  -OEChem-01062216093D

 34 33  0     1  0  0  0  0  0999 V2000
   -3.3307   -2.5516    0.9296 H   0  0  0  0  0  0  0  0  0  0  0  0
   -3.4048   -1.5603    0.4732 C   0  0  0  0  0  0  0  0  0  0  0  0
   -4.3939   -1.1478    0.6842 H   0  0  0  0  0  0  0  0  0  0  0  0
   -3.2812   -1.6645   -0.6078 H   0  0  0  0  0  0  0  0  0  0  0  0
   -2.3269   -0.6494    1.0282 C   0  0  0  0  0  0  0  0  0  0  0  0
   -1.6036   -1.0405    1.9312 O   0  0  0  0  0  0  0  0  0  0  0  0
   -2.2044    0.6457    0.5509 N   0  0  0  0  0  0  0  0  0  0  0  0
   -2.7902    0.8113   -0.2637 H   0  0  0  0  0  0  0  0  0  0  0  0
   -0.9051    1.3564    0.5406 C   0  0  1  0  0  0  0  0  0  0  0  0
   -0.9695    2.1933   -0.1616 H   0  0  0  0  0  0  0  0  0  0  0  0
   -0.6129    1.9304    1.9488 C   0  0  0  0  0  0  0  0  0  0  0  0
   -0.6549    1.1392    2.7032 H   0  0  0  0  0  0  0  0  0  0  0  0
    0.3996    2.3448    1.9662 H   0  0  0  0  0  0  0  0  0  0  0  0
   -1.5891    3.0595    2.3117 C   0  0  0  0  0  0  0  0  0  0  0  0
   -1.5263    3.8549    1.5607 H   0  0  0  0  0  0  0  0  0  0  0  0
   -2.6135    2.6707    2.3058 H   0  0  0  0  0  0  0  0  0  0  0  0
   -1.2615    3.6237    3.6994 C   0  0  0  0  0  0  0  0  0  0  0  0
   -1.3140    2.8154    4.4378 H   0  0  0  0  0  0  0  0  0  0  0  0
   -0.2397    4.0193    3.7005 H   0  0  0  0  0  0  0  0  0  0  0  0
   -2.2494    4.7286    4.0677 C   0  0  0  0  0  0  0  0  0  0  0  0
   -2.1928    5.5313    3.3180 H   0  0  0  0  0  0  0  0  0  0  0  0
   -3.2721    4.3248    4.0331 H   0  0  0  0  0  0  0  0  0  0  0  0
   -1.9244    5.2360    5.4188 N   0  3  0  0  0  0  0  0  0  0  0  0
   -0.9738    5.6104    5.4336 H   0  0  0  0  0  0  0  0  0  0  0  0
   -2.5773    5.9773    5.6832 H   0  0  0  0  0  0  0  0  0  0  0  0
   -1.9916    4.4775    6.1011 H   0  0  0  0  0  0  0  0  0  0  0  0
    0.2439    0.4538    0.0050 C   0  0  0  0  0  0  0  0  0  0  0  0
    0.0123   -0.2631   -0.9606 O   0  0  0  0  0  0  0  0  0  0  0  0
    1.5584    0.5862    0.4205 N   0  0  0  0  0  0  0  0  0  0  0  0
    1.7244    1.0987    1.2793 H   0  0  0  0  0  0  0  0  0  0  0  0
    2.6352   -0.2483   -0.1052 C   0  0  0  0  0  0  0  0  0  0  0  0
    2.7354   -0.1092   -1.1870 H   0  0  0  0  0  0  0  0  0  0  0  0
    3.5872    0.0179    0.3646 H   0  0  0  0  0  0  0  0  0  0  0  0
    2.4339   -1.3064    0.0949 H   0  0  0  0  0  0  0  0  0  0  0  0
  1  2  1  0  0  0  0
  2  3  1  0  0  0  0
  2  4  1  0  0  0  0
  2  5  1  0  0  0  0
  5  6  2  0  0  0  0
  5  7  1  0  0  0  0
  7  8  1  0  0  0  0
  7  9  1  0  0  0  0
  9 10  1  0  0  0  0
  9 11  1  0  0  0  0
  9 27  1  0  0  0  0
 11 12  1  0  0  0  0
 11 13  1  0  0  0  0
 11 14  1  0  0  0  0
 14 15  1  0  0  0  0
 14 16  1  0  0  0  0
 14 17  1  0  0  0  0
 17 18  1  0  0  0  0
 17 19  1  0  0  0  0
 17 20  1  0  0  0  0
 20 21  1  0  0  0  0
 20 22  1  0  0  0  0
 20 23  1  0  0  0  0
 23 24  1  0  0  0  0
 23 25  1  0  0  0  0
 23 26  1  0  0  0  0
 27 28  2  0  0  0  0
 27 29  1  0  0  0  0
 29 30  1  0  0  0  0
 29 31  1  0  0  0  0
 31 32  1  0  0  0  0
 31 33  1  0  0  0  0
 31 34  1  0  0  0  0
M  CHG  1  23   1
M  END
$$$$

  -OEChem-01062216093D

 34 33  0     1  0  0  0  0  0999 V2000
   -3.3306   -2.5429    0.9407 H   0  0  0  0  0  0  0  0  0  0  0  0
   -3.4113   -1.5466    0.4964 C   0  0  0  0  0  0  0  0  0  0  0  0
   -4.3842   -1.1224    0.7549 H   0  0  0  0  0  0  0  0  0  0  0  0
   -3.3372   -1.6424   -0.5899 H   0  0  0  0  0  0  0  0  0  0  0  0
   -2.2995   -0.6543    1.0124 C   0  0  0  0  0  0  0  0  0  0  0  0
   -1.5463   -1.0601    1.8842 O   0  0  0  0  0  0  0  0  0  0  0  0
   -2.1824    0.6438    0.5438 N   0  0  0  0  0  0  0  0  0  0  0  0
   -2.7793    0.8244   -0.2595 H   0  0  0  0  0  0  0  0  0  0  0  0
   -0.8900    1.3633    0.5433 C   0  0  1  0  0  0  0  0  0  0  0  0
   -0.9555    2.2006   -0.1587 H   0  0  0  0  0  0  0  0  0  0  0  0
   -0.6054    1.9396    1.9510 C   0  0  0  0  0  0  0  0  0  0  0  0
   -0.6472    1.1475    2.7050 H   0  0  0  0  0  0  0  0  0  0  0  0
    0.4059    2.3581    1.9688 H   0  0  0  0  0  0  0  0  0  0  0  0
   -1.5893    3.0628    2.3108 C   0  0  0  0  0  0  0  0  0  0  0  0
   -1.5287    3.8582    1.5594 H   0  0  0  0  0  0  0  0  0  0  0  0
   -2.6115    2.6676    2.3025 H   0  0  0  0  0  0  0  0  0  0  0  0
   -1.2688    3.6303    3.6986 C   0  0  0  0  0  0  0  0  0  0  0  0
   -1.3180    2.8229    4.4379 H   0  0  0  0  0  0  0  0  0  0  0  0
   -0.2499    4.0324    3.7014 H   0  0  0  0  0  0  0  0  0  0  0  0
   -2.2638    4.7292    4.0639 C   0  0  0  0  0  0  0  0  0  0  0  0
   -2.2104    5.5319    3.3138 H   0  0  0  0  0  0  0  0  0  0  0  0
   -3.2841    4.3192    4.0282 H   0  0  0  0  0  0  0  0  0  0  0  0
   -1.9433    5.2384    5.4154 N   0  3  0  0  0  0  0  0  0  0  0  0
   -0.9945    5.6176    5.4310 H   0  0  0  0  0  0  0  0  0  0  0  0
   -2.5998    5.9769    5.6785 H   0  0  0  0  0  0  0  0  0  0  0  0
   -2.0076    4.4801    6.0980 H   0  0  0  0  0  0  0  0  0  0  0  0
    0.2606    0.4667    0.0077 C   0  0  0  0  0  0  0  0  0  0  0  0
    0.0986   -0.0772   -1.0769 O   0  0  0  0  0  0  0  0  0  0  0  0
    1.4987    0.3785    0.6208 N   0  0  0  0  0  0  0  0  0  0  0  0
    1.5425    0.6705    1.5913 H   0  0  0  0  0  0  0  0  0  0  0  0
    2.5495   -0.5056    0.1247 C   0  0  0  0  0  0  0  0  0  0  0  0
    2.8220   -0.2410   -0.9027 H   0  0  0  0  0  0  0  0  0  0  0  0
    3.4441   -0.4204    0.7491 H   0  0  0  0  0  0  0  0  0  0  0  0
    2.2136   -1.5482    0.1404 H   0  0  0  0  0  0  0  0  0  0  0  0
  1  2  1  0  0  0  0
  2  3  1  0  0  0  0
  2  4  1  0  0  0  0
  2  5  1  0  0  0  0
  5  6  2  0  0  0  0
  5  7  1  0  0  0  0
  7  8  1  0  0  0  0
  7  9  1  0  0  0  0
  9 10  1  0  0  0  0
  9 11  1  0  0  0  0
  9 27  1  0  0  0  0
 11 12  1  0  0  0  0
 11 13  1  0  0  0  0
 11 14  1  0  0  0  0
 14 15  1  0  0  0  0
 14 16  1  0  0  0  0
 14 17  1  0  0  0  0
 17 18  1  0  0  0  0
 17 19  1  0  0  0  0
 17 20  1  0  0  0  0
 20 21  1  0  0  0  0
 20 22  1  0  0  0  0
 20 23  1  0  0  0  0
 23 24  1  0  0  0  0
 23 25  1  0  0  0  0
 23 26  1  0  0  0  0
 27 28  2  0  0  0  0
 27 29  1  0  0  0  0
 29 30  1  0  0  0  0
 29 31  1  0  0  0  0
 31 32  1  0  0  0  0
 31 33  1  0  0  0  0
 31 34  1  0  0  0  0
M  CHG  1  23   1
M  END
$$$$

  -OEChem-01062216093D

 34 33  0     1  0  0  0  0  0999 V2000
   -3.3420   -2.5469    0.9343 H   0  0  0  0  0  0  0  0  0  0  0  0
   -3.4254   -1.5459    0.5016 C   0  0  0  0  0  0  0  0  0  0  0  0
   -4.3915   -1.1200    0.7820 H   0  0  0  0  0  0  0  0  0  0  0  0
   -3.3730   -1.6314   -0.5868 H   0  0  0  0  0  0  0  0  0  0  0  0
   -2.2992   -0.6643    1.0060 C   0  0  0  0  0  0  0  0  0  0  0  0
   -1.5309   -1.0825    1.8587 O   0  0  0  0  0  0  0  0  0  0  0  0
   -2.1769    0.6349    0.5429 N   0  0  0  0  0  0  0  0  0  0  0  0
   -2.7826    0.8336   -0.2499 H   0  0  0  0  0  0  0  0  0  0  0  0
   -0.8855    1.3546    0.5529 C   0  0  1  0  0  0  0  0  0  0  0  0
   -0.9495    2.1924   -0.1489 H   0  0  0  0  0  0  0  0  0  0  0  0
   -0.6029    1.9346    1.9584 C   0  0  0  0  0  0  0  0  0  0  0  0
   -0.6536    1.1446    2.7141 H   0  0  0  0  0  0  0  0  0  0  0  0
    0.4126    2.3447    1.9758 H   0  0  0  0  0  0  0  0  0  0  0  0
   -1.5848    3.0611    2.3129 C   0  0  0  0  0  0  0  0  0  0  0  0
   -1.5209    3.8538    1.5590 H   0  0  0  0  0  0  0  0  0  0  0  0
   -2.6077    2.6683    2.3028 H   0  0  0  0  0  0  0  0  0  0  0  0
   -1.2661    3.6331    3.6999 C   0  0  0  0  0  0  0  0  0  0  0  0
   -1.3178    2.8288    4.4423 H   0  0  0  0  0  0  0  0  0  0  0  0
   -0.2463    4.0335    3.7038 H   0  0  0  0  0  0  0  0  0  0  0  0
   -2.2602    4.7356    4.0584 C   0  0  0  0  0  0  0  0  0  0  0  0
   -2.2029    5.5346    3.3044 H   0  0  0  0  0  0  0  0  0  0  0  0
   -3.2811    4.3275    4.0212 H   0  0  0  0  0  0  0  0  0  0  0  0
   -1.9436    5.2508    5.4087 N   0  3  0  0  0  0  0  0  0  0  0  0
   -0.9934    5.6265    5.4264 H   0  0  0  0  0  0  0  0  0  0  0  0
   -2.5983    5.9932    5.6647 H   0  0  0  0  0  0  0  0  0  0  0  0
   -2.0140    4.4968    6.0953 H   0  0  0  0  0  0  0  0  0  0  0  0
    0.2704    0.4649    0.0233 C   0  0  0  0  0  0  0  0  0  0  0  0
    0.2219    0.1131   -1.1473 O   0  0  0  0  0  0  0  0  0  0  0  0
    1.3796    0.1397    0.7842 N   0  0  0  0  0  0  0  0  0  0  0  0
    1.2570    0.2107    1.7898 H   0  0  0  0  0  0  0  0  0  0  0  0
    2.4144   -0.7643    0.2915 C   0  0  0  0  0  0  0  0  0  0  0  0
    2.8604   -0.3738   -0.6296 H   0  0  0  0  0  0  0  0  0  0  0  0
    3.2087   -0.8742    1.0363 H   0  0  0  0  0  0  0  0  0  0  0  0
    1.9928   -1.7540    0.0849 H   0  0  0  0  0  0  0  0  0  0  0  0
  1  2  1  0  0  0  0
  2  3  1  0  0  0  0
  2  4  1  0  0  0  0
  2  5  1  0  0  0  0
  5  6  2  0  0  0  0
  5  7  1  0  0  0  0
  7  8  1  0  0  0  0
  7  9  1  0  0  0  0
  9 10  1  0  0  0  0
  9 11  1  0  0  0  0
  9 27  1  0  0  0  0
 11 12  1  0  0  0  0
 11 13  1  0  0  0  0
 11 14  1  0  0  0  0
 14 15  1  0  0  0  0
 14 16  1  0  0  0  0
 14 17  1  0  0  0  0
 17 18  1  0  0  0  0
 17 19  1  0  0  0  0
 17 20  1  0  0  0  0
 20 21  1  0  0  0  0
 20 22  1  0  0  0  0
 20 23  1  0  0  0  0
 23 24  1  0  0  0  0
 23 25  1  0  0  0  0
 23 26  1  0  0  0  0
 27 28  2  0  0  0  0
 27 29  1  0  0  0  0
 29 30  1  0  0  0  0
 29 31  1  0  0  0  0
 31 32  1  0  0  0  0
 31 33  1  0  0  0  0
 31 34  1  0  0  0  0
M  CHG  1  23   1
M  END
$$$$

  -OEChem-01062216093D

 34 33  0     1  0  0  0  0  0999 V2000
   -3.3968   -2.5430    0.9428 H   0  0  0  0  0  0  0  0  0  0  0  0
   -3.4752   -1.5380    0.5175 C   0  0  0  0  0  0  0  0  0  0  0  0
   -4.4280   -1.1000    0.8238 H   0  0  0  0  0  0  0  0  0  0  0  0
   -3.4507   -1.6181   -0.5722 H   0  0  0  0  0  0  0  0  0  0  0  0
   -2.3239   -0.6768    1.0003 C   0  0  0  0  0  0  0  0  0  0  0  0
   -1.5510   -1.1074    1.8430 O   0  0  0  0  0  0  0  0  0  0  0  0
   -2.1836    0.6192    0.5338 N   0  0  0  0  0  0  0  0  0  0  0  0
   -2.7970    0.8365   -0.2483 H   0  0  0  0  0  0  0  0  0  0  0  0
   -0.8895    1.3336    0.5519 C   0  0  1  0  0  0  0  0  0  0  0  0
   -0.9493    2.1707   -0.1516 H   0  0  0  0  0  0  0  0  0  0  0  0
   -0.6072    1.9169    1.9554 C   0  0  0  0  0  0  0  0  0  0  0  0
   -0.6672    1.1296    2.7133 H   0  0  0  0  0  0  0  0  0  0  0  0
    0.4136    2.3147    1.9737 H   0  0  0  0  0  0  0  0  0  0  0  0
   -1.5808    3.0504    2.3064 C   0  0  0  0  0  0  0  0  0  0  0  0
   -1.5097    3.8412    1.5510 H   0  0  0  0  0  0  0  0  0  0  0  0
   -2.6065    2.6651    2.2968 H   0  0  0  0  0  0  0  0  0  0  0  0
   -1.2582    3.6222    3.6923 C   0  0  0  0  0  0  0  0  0  0  0  0
   -1.3173    2.8198    4.4363 H   0  0  0  0  0  0  0  0  0  0  0  0
   -0.2352    4.0143    3.6960 H   0  0  0  0  0  0  0  0  0  0  0  0
   -2.2442    4.7325    4.0476 C   0  0  0  0  0  0  0  0  0  0  0  0
   -2.1786    5.5303    3.2930 H   0  0  0  0  0  0  0  0  0  0  0  0
   -3.2682    4.3324    4.0084 H   0  0  0  0  0  0  0  0  0  0  0  0
   -1.9242    5.2473    5.3968 N   0  3  0  0  0  0  0  0  0  0  0  0
   -0.9701    5.6132    5.4142 H   0  0  0  0  0  0  0  0  0  0  0  0
   -2.5714    5.9972    5.6503 H   0  0  0  0  0  0  0  0  0  0  0  0
   -2.0026    4.4955    6.0848 H   0  0  0  0  0  0  0  0  0  0  0  0
    0.2781    0.4515    0.0404 C   0  0  0  0  0  0  0  0  0  0  0  0
    0.4043    0.3199   -1.1687 O   0  0  0  0  0  0  0  0  0  0  0  0
    1.2136   -0.1077    0.8920 N   0  0  0  0  0  0  0  0  0  0  0  0
    0.8851   -0.2510    1.8445 H   0  0  0  0  0  0  0  0  0  0  0  0
    2.2640   -0.9954    0.4036 C   0  0  0  0  0  0  0  0  0  0  0  0
    2.8834   -0.4852   -0.3419 H   0  0  0  0  0  0  0  0  0  0  0  0
    2.9107   -1.3080    1.2292 H   0  0  0  0  0  0  0  0  0  0  0  0
    1.8286   -1.8898   -0.0551 H   0  0  0  0  0  0  0  0  0  0  0  0
  1  2  1  0  0  0  0
  2  3  1  0  0  0  0
  2  4  1  0  0  0  0
  2  5  1  0  0  0  0
  5  6  2  0  0  0  0
  5  7  1  0  0  0  0
  7  8  1  0  0  0  0
  7  9  1  0  0  0  0
  9 10  1  0  0  0  0
  9 11  1  0  0  0  0
  9 27  1  0  0  0  0
 11 12  1  0  0  0  0
 11 13  1  0  0  0  0
 11 14  1  0  0  0  0
 14 15  1  0  0  0  0
 14 16  1  0  0  0  0
 14 17  1  0  0  0  0
 17 18  1  0  0  0  0
 17 19  1  0  0  0  0
 17 20  1  0  0  0  0
 20 21  1  0  0  0  0
 20 22  1  0  0  0  0
 20 23  1  0  0  0  0
 23 24  1  0  0  0  0
 23 25  1  0  0  0  0
 23 26  1  0  0  0  0
 27 28  2  0  0  0  0
 27 29  1  0  0  0  0
 29 30  1  0  0  0  0
 29 31  1  0  0  0  0
 31 32  1  0  0  0  0
 31 33  1  0  0  0  0
 31 34  1  0  0  0  0
M  CHG  1  23   1
M  END
$$$$

  -OEChem-01062216093D

 34 33  0     1  0  0  0  0  0999 V2000
   -3.4881   -2.5309    0.9583 H   0  0  0  0  0  0  0  0  0  0  0  0
   -3.5416   -1.5278    0.5251 C   0  0  0  0  0  0  0  0  0  0  0  0
   -4.4819   -1.0624    0.8300 H   0  0  0  0  0  0  0  0  0  0  0  0
   -3.5225   -1.6171   -0.5641 H   0  0  0  0  0  0  0  0  0  0  0  0
   -2.3684   -0.6915    0.9984 C   0  0  0  0  0  0  0  0  0  0  0  0
   -1.6060   -1.1336    1.8447 O   0  0  0  0  0  0  0  0  0  0  0  0
   -2.2012    0.5970    0.5216 N   0  0  0  0  0  0  0  0  0  0  0  0
   -2.8254    0.8332   -0.2464 H   0  0  0  0  0  0  0  0  0  0  0  0
   -0.9046    1.3078    0.5400 C   0  0  1  0  0  0  0  0  0  0  0  0
   -0.9652    2.1422   -0.1669 H   0  0  0  0  0  0  0  0  0  0  0  0
   -0.6197    1.8958    1.9396 C   0  0  0  0  0  0  0  0  0  0  0  0
   -0.6834    1.1110    2.6999 H   0  0  0  0  0  0  0  0  0  0  0  0
    0.4046    2.2850    1.9555 H   0  0  0  0  0  0  0  0  0  0  0  0
   -1.5856    3.0355    2.2916 C   0  0  0  0  0  0  0  0  0  0  0  0
   -1.5121    3.8249    1.5352 H   0  0  0  0  0  0  0  0  0  0  0  0
   -2.6138    2.6567    2.2864 H   0  0  0  0  0  0  0  0  0  0  0  0
   -1.2501    3.6042    3.6760 C   0  0  0  0  0  0  0  0  0  0  0  0
   -1.3087    2.8014    4.4196 H   0  0  0  0  0  0  0  0  0  0  0  0
   -0.2240    3.9886    3.6721 H   0  0  0  0  0  0  0  0  0  0  0  0
   -2.2228    4.7221    4.0425 C   0  0  0  0  0  0  0  0  0  0  0  0
   -2.1570    5.5206    3.2887 H   0  0  0  0  0  0  0  0  0  0  0  0
   -3.2508    4.3316    4.0129 H   0  0  0  0  0  0  0  0  0  0  0  0
   -1.8849    5.2295    5.3904 N   0  3  0  0  0  0  0  0  0  0  0  0
   -0.9261    5.5837    5.4000 H   0  0  0  0  0  0  0  0  0  0  0  0
   -2.5205    5.9864    5.6520 H   0  0  0  0  0  0  0  0  0  0  0  0
   -1.9657    4.4768    6.0772 H   0  0  0  0  0  0  0  0  0  0  0  0
    0.2830    0.4400    0.0528 C   0  0  0  0  0  0  0  0  0  0  0  0
    0.6093    0.5195   -1.1225 O   0  0  0  0  0  0  0  0  0  0  0  0
    1.0270   -0.3369    0.9210 N   0  0  0  0  0  0  0  0  0  0  0  0
    0.5202   -0.6247    1.7593 H   0  0  0  0  0  0  0  0  0  0  0  0
    2.0981   -1.2086    0.4511 C   0  0  0  0  0  0  0  0  0  0  0  0
    2.8647   -0.6274   -0.0725 H   0  0  0  0  0  0  0  0  0  0  0  0
    2.5716   -1.7163    1.2971 H   0  0  0  0  0  0  0  0  0  0  0  0
    1.7039   -1.9669   -0.2338 H   0  0  0  0  0  0  0  0  0  0  0  0
  1  2  1  0  0  0  0
  2  3  1  0  0  0  0
  2  4  1  0  0  0  0
  2  5  1  0  0  0  0
  5  6  2  0  0  0  0
  5  7  1  0  0  0  0
  7  8  1  0  0  0  0
  7  9  1  0  0  0  0
  9 10  1  0  0  0  0
  9 11  1  0  0  0  0
  9 27  1  0  0  0  0
 11 12  1  0  0  0  0
 11 13  1  0  0  0  0
 11 14  1  0  0  0  0
 14 15  1  0  0  0  0
 14 16  1  0  0  0  0
 14 17  1  0  0  0  0
 17 18  1  0  0  0  0
 17 19  1  0  0  0  0
 17 20  1  0  0  0  0
 20 21  1  0  0  0  0
 20 22  1  0  0  0  0
 20 23  1  0  0  0  0
 23 24  1  0  0  0  0
 23 25  1  0  0  0  0
 23 26  1  0  0  0  0
 27 28  2  0  0  0  0
 27 29  1  0  0  0  0
 29 30  1  0  0  0  0
 29 31  1  0  0  0  0
 31 32  1  0  0  0  0
 31 33  1  0  0  0  0
 31 34  1  0  0  0  0
M  CHG  1  23   1
M  END
$$$$

  -OEChem-01062216093D

 34 33  0     1  0  0  0  0  0999 V2000
   -3.6211   -2.4936    0.9838 H   0  0  0  0  0  0  0  0  0  0  0  0
   -3.6443   -1.4905    0.5479 C   0  0  0  0  0  0  0  0  0  0  0  0
   -4.5623   -0.9900    0.8647 H   0  0  0  0  0  0  0  0  0  0  0  0
   -3.6447   -1.5842   -0.5409 H   0  0  0  0  0  0  0  0  0  0  0  0
   -2.4343   -0.6968    1.0022 C   0  0  0  0  0  0  0  0  0  0  0  0
   -1.6953   -1.1564    1.8588 O   0  0  0  0  0  0  0  0  0  0  0  0
   -2.2208    0.5783    0.5085 N   0  0  0  0  0  0  0  0  0  0  0  0
   -2.8535    0.8337   -0.2463 H   0  0  0  0  0  0  0  0  0  0  0  0
   -0.9171    1.2811    0.5170 C   0  0  1  0  0  0  0  0  0  0  0  0
   -0.9793    2.1127   -0.1935 H   0  0  0  0  0  0  0  0  0  0  0  0
   -0.6304    1.8681    1.9158 C   0  0  0  0  0  0  0  0  0  0  0  0
   -0.6945    1.0816    2.6743 H   0  0  0  0  0  0  0  0  0  0  0  0
    0.3960    2.2516    1.9305 H   0  0  0  0  0  0  0  0  0  0  0  0
   -1.5880    3.0135    2.2724 C   0  0  0  0  0  0  0  0  0  0  0  0
   -1.5111    3.8048    1.5184 H   0  0  0  0  0  0  0  0  0  0  0  0
   -2.6187    2.6423    2.2700 H   0  0  0  0  0  0  0  0  0  0  0  0
   -1.2436    3.5744    3.6575 C   0  0  0  0  0  0  0  0  0  0  0  0
   -1.3065    2.7688    4.3980 H   0  0  0  0  0  0  0  0  0  0  0  0
   -0.2141    3.9499    3.6516 H   0  0  0  0  0  0  0  0  0  0  0  0
   -2.2061    4.6987    4.0326 C   0  0  0  0  0  0  0  0  0  0  0  0
   -2.1368    5.5007    3.2828 H   0  0  0  0  0  0  0  0  0  0  0  0
   -3.2375    4.3176    4.0052 H   0  0  0  0  0  0  0  0  0  0  0  0
   -1.8578    5.1966    5.3813 N   0  3  0  0  0  0  0  0  0  0  0  0
   -0.8960    5.5423    5.3880 H   0  0  0  0  0  0  0  0  0  0  0  0
   -2.4857    5.9578    5.6493 H   0  0  0  0  0  0  0  0  0  0  0  0
   -1.9420    4.4412    6.0649 H   0  0  0  0  0  0  0  0  0  0  0  0
    0.2942    0.4293    0.0578 C   0  0  0  0  0  0  0  0  0  0  0  0
    0.8090    0.6950   -1.0184 O   0  0  0  0  0  0  0  0  0  0  0  0
    0.8592   -0.5447    0.8584 N   0  0  0  0  0  0  0  0  0  0  0  0
    0.2492   -0.8957    1.6009 H   0  0  0  0  0  0  0  0  0  0  0  0
    1.9496   -1.4008    0.4052 C   0  0  0  0  0  0  0  0  0  0  0  0
    2.8193   -0.7985    0.1219 H   0  0  0  0  0  0  0  0  0  0  0  0
    2.2517   -2.0835    1.2055 H   0  0  0  0  0  0  0  0  0  0  0  0
    1.6377   -1.9951   -0.4603 H   0  0  0  0  0  0  0  0  0  0  0  0
  1  2  1  0  0  0  0
  2  3  1  0  0  0  0
  2  4  1  0  0  0  0
  2  5  1  0  0  0  0
  5  6  2  0  0  0  0
  5  7  1  0  0  0  0
  7  8  1  0  0  0  0
  7  9  1  0  0  0  0
  9 10  1  0  0  0  0
  9 11  1  0  0  0  0
  9 27  1  0  0  0  0
 11 12  1  0  0  0  0
 11 13  1  0  0  0  0
 11 14  1  0  0  0  0
 14 15  1  0  0  0  0
 14 16  1  0  0  0  0
 14 17  1  0  0  0  0
 17 18  1  0  0  0  0
 17 19  1  0  0  0  0
 17 20  1  0  0  0  0
 20 21  1  0  0  0  0
 20 22  1  0  0  0  0
 20 23  1  0  0  0  0
 23 24  1  0  0  0  0
 23 25  1  0  0  0  0
 23 26  1  0  0  0  0
 27 28  2  0  0  0  0
 27 29  1  0  0  0  0
 29 30  1  0  0  0  0
 29 31  1  0  0  0  0
 31 32  1  0  0  0  0
 31 33  1  0  0  0  0
 31 34  1  0  0  0  0
M  CHG  1  23   1
M  END
$$$$

  -OEChem-01062216093D

 34 33  0     1  0  0  0  0  0999 V2000
   -3.7583   -2.4611    0.9986 H   0  0  0  0  0  0  0  0  0  0  0  0
   -3.7438   -1.4629    0.5509 C   0  0  0  0  0  0  0  0  0  0  0  0
   -4.6479   -0.9293    0.8534 H   0  0  0  0  0  0  0  0  0  0  0  0
   -3.7376   -1.5690   -0.5369 H   0  0  0  0  0  0  0  0  0  0  0  0
   -2.5122   -0.7038    1.0072 C   0  0  0  0  0  0  0  0  0  0  0  0
   -1.7966   -1.1793    1.8739 O   0  0  0  0  0  0  0  0  0  0  0  0
   -2.2581    0.5595    0.5034 N   0  0  0  0  0  0  0  0  0  0  0  0
   -2.8967    0.8344   -0.2393 H   0  0  0  0  0  0  0  0  0  0  0  0
   -0.9459    1.2507    0.5020 C   0  0  1  0  0  0  0  0  0  0  0  0
   -1.0092    2.0800   -0.2111 H   0  0  0  0  0  0  0  0  0  0  0  0
   -0.6515    1.8381    1.8978 C   0  0  0  0  0  0  0  0  0  0  0  0
   -0.7210    1.0510    2.6557 H   0  0  0  0  0  0  0  0  0  0  0  0
    0.3790    2.2119    1.9110 H   0  0  0  0  0  0  0  0  0  0  0  0
   -1.5959    2.9932    2.2576 C   0  0  0  0  0  0  0  0  0  0  0  0
   -1.5131    3.7839    1.5037 H   0  0  0  0  0  0  0  0  0  0  0  0
   -2.6307    2.6332    2.2597 H   0  0  0  0  0  0  0  0  0  0  0  0
   -1.2373    3.5492    3.6412 C   0  0  0  0  0  0  0  0  0  0  0  0
   -1.3042    2.7435    4.3809 H   0  0  0  0  0  0  0  0  0  0  0  0
   -0.2036    3.9127    3.6296 H   0  0  0  0  0  0  0  0  0  0  0  0
   -2.1835    4.6837    4.0247 C   0  0  0  0  0  0  0  0  0  0  0  0
   -2.1090    5.4862    3.2760 H   0  0  0  0  0  0  0  0  0  0  0  0
   -3.2194    4.3143    4.0037 H   0  0  0  0  0  0  0  0  0  0  0  0
   -1.8189    5.1739    5.3719 N   0  3  0  0  0  0  0  0  0  0  0  0
   -0.8522    5.5060    5.3726 H   0  0  0  0  0  0  0  0  0  0  0  0
   -2.4340    5.9432    5.6460 H   0  0  0  0  0  0  0  0  0  0  0  0
   -1.9087    4.4183    6.0541 H   0  0  0  0  0  0  0  0  0  0  0  0
    0.2845    0.4156    0.0604 C   0  0  0  0  0  0  0  0  0  0  0  0
    0.9575    0.8395   -0.8677 O   0  0  0  0  0  0  0  0  0  0  0  0
    0.6920   -0.7320    0.7115 N   0  0  0  0  0  0  0  0  0  0  0  0
    0.0361   -1.1189    1.3953 H   0  0  0  0  0  0  0  0  0  0  0  0
    1.8150   -1.5514    0.2711 C   0  0  0  0  0  0  0  0  0  0  0  0
    2.7371   -0.9609    0.2520 H   0  0  0  0  0  0  0  0  0  0  0  0
    1.9601   -2.3934    0.9550 H   0  0  0  0  0  0  0  0  0  0  0  0
    1.6302   -1.9472   -0.7331 H   0  0  0  0  0  0  0  0  0  0  0  0
  1  2  1  0  0  0  0
  2  3  1  0  0  0  0
  2  4  1  0  0  0  0
  2  5  1  0  0  0  0
  5  6  2  0  0  0  0
  5  7  1  0  0  0  0
  7  8  1  0  0  0  0
  7  9  1  0  0  0  0
  9 10  1  0  0  0  0
  9 11  1  0  0  0  0
  9 27  1  0  0  0  0
 11 12  1  0  0  0  0
 11 13  1  0  0  0  0
 11 14  1  0  0  0  0
 14 15  1  0  0  0  0
 14 16  1  0  0  0  0
 14 17  1  0  0  0  0
 17 18  1  0  0  0  0
 17 19  1  0  0  0  0
 17 20  1  0  0  0  0
 20 21  1  0  0  0  0
 20 22  1  0  0  0  0
 20 23  1  0  0  0  0
 23 24  1  0  0  0  0
 23 25  1  0  0  0  0
 23 26  1  0  0  0  0
 27 28  2  0  0  0  0
 27 29  1  0  0  0  0
 29 30  1  0  0  0  0
 29 31  1  0  0  0  0
 31 32  1  0  0  0  0
 31 33  1  0  0  0  0
 31 34  1  0  0  0  0
M  CHG  1  23   1
M  END
$$$$

  -OEChem-01062216093D

 34 33  0     1  0  0  0  0  0999 V2000
   -3.8800   -2.4205    1.0281 H   0  0  0  0  0  0  0  0  0  0  0  0
   -3.8445   -1.4231    0.5803 C   0  0  0  0  0  0  0  0  0  0  0  0
   -4.7233   -0.8607    0.9045 H   0  0  0  0  0  0  0  0  0  0  0  0
   -3.8681   -1.5288   -0.5072 H   0  0  0  0  0  0  0  0  0  0  0  0
   -2.5787   -0.7043    1.0064 C   0  0  0  0  0  0  0  0  0  0  0  0
   -1.8592   -1.2015    1.8569 O   0  0  0  0  0  0  0  0  0  0  0  0
   -2.2984    0.5496    0.4941 N   0  0  0  0  0  0  0  0  0  0  0  0
   -2.9529    0.8473   -0.2256 H   0  0  0  0  0  0  0  0  0  0  0  0
   -0.9780    1.2279    0.4739 C   0  0  1  0  0  0  0  0  0  0  0  0
   -1.0438    2.0561   -0.2401 H   0  0  0  0  0  0  0  0  0  0  0  0
   -0.6706    1.8113    1.8689 C   0  0  0  0  0  0  0  0  0  0  0  0
   -0.7378    1.0220    2.6248 H   0  0  0  0  0  0  0  0  0  0  0  0
    0.3618    2.1795    1.8755 H   0  0  0  0  0  0  0  0  0  0  0  0
   -1.6025    2.9736    2.2388 C   0  0  0  0  0  0  0  0  0  0  0  0
   -1.5187    3.7659    1.4863 H   0  0  0  0  0  0  0  0  0  0  0  0
   -2.6401    2.6224    2.2485 H   0  0  0  0  0  0  0  0  0  0  0  0
   -1.2284    3.5221    3.6213 C   0  0  0  0  0  0  0  0  0  0  0  0
   -1.2951    2.7148    4.3593 H   0  0  0  0  0  0  0  0  0  0  0  0
   -0.1922    3.8783    3.6016 H   0  0  0  0  0  0  0  0  0  0  0  0
   -2.1617    4.6635    4.0161 C   0  0  0  0  0  0  0  0  0  0  0  0
   -2.0880    5.4679    3.2695 H   0  0  0  0  0  0  0  0  0  0  0  0
   -3.2009    4.3030    4.0033 H   0  0  0  0  0  0  0  0  0  0  0  0
   -1.7820    5.1459    5.3619 N   0  3  0  0  0  0  0  0  0  0  0  0
   -0.8117    5.4671    5.3560 H   0  0  0  0  0  0  0  0  0  0  0  0
   -2.3862    5.9213    5.6427 H   0  0  0  0  0  0  0  0  0  0  0  0
   -1.8749    4.3893    6.0428 H   0  0  0  0  0  0  0  0  0  0  0  0
    0.2585    0.3993    0.0309 C   0  0  0  0  0  0  0  0  0  0  0  0
    1.0644    0.9435   -0.7102 O   0  0  0  0  0  0  0  0  0  0  0  0
    0.5259   -0.8826    0.4690 N   0  0  0  0  0  0  0  0  0  0  0  0
   -0.1430   -1.2952    1.1235 H   0  0  0  0  0  0  0  0  0  0  0  0
    1.7011   -1.6512    0.0751 C   0  0  0  0  0  0  0  0  0  0  0  0
    2.6176   -1.1317    0.3739 H   0  0  0  0  0  0  0  0  0  0  0  0
    1.6886   -2.6342    0.5559 H   0  0  0  0  0  0  0  0  0  0  0  0
    1.7178   -1.7983   -1.0100 H   0  0  0  0  0  0  0  0  0  0  0  0
  1  2  1  0  0  0  0
  2  3  1  0  0  0  0
  2  4  1  0  0  0  0
  2  5  1  0  0  0  0
  5  6  2  0  0  0  0
  5  7  1  0  0  0  0
  7  8  1  0  0  0  0
  7  9  1  0  0  0  0
  9 10  1  0  0  0  0
  9 11  1  0  0  0  0
  9 27  1  0  0  0  0
 11 12  1  0  0  0  0
 11 13  1  0  0  0  0
 11 14  1  0  0  0  0
 14 15  1  0  0  0  0
 14 16  1  0  0  0  0
 14 17  1  0  0  0  0
 17 18  1  0  0  0  0
 17 19  1  0  0  0  0
 17 20  1  0  0  0  0
 20 21  1  0  0  0  0
 20 22  1  0  0  0  0
 20 23  1  0  0  0  0
 23 24  1  0  0  0  0
 23 25  1  0  0  0  0
 23 26  1  0  0  0  0
 27 28  2  0  0  0  0
 27 29  1  0  0  0  0
 29 30  1  0  0  0  0
 29 31  1  0  0  0  0
 31 32  1  0  0  0  0
 31 33  1  0  0  0  0
 31 34  1  0  0  0  0
M  CHG  1  23   1
M  END
$$$$

  -OEChem-01062216093D

 34 33  0     1  0  0  0  0  0999 V2000
   -3.9777   -2.3422    0.9640 H   0  0  0  0  0  0  0  0  0  0  0  0
   -3.9065   -1.3471    0.5149 C   0  0  0  0  0  0  0  0  0  0  0  0
   -4.7636   -0.7525    0.8397 H   0  0  0  0  0  0  0  0  0  0  0  0
   -3.9352   -1.4528   -0.5725 H   0  0  0  0  0  0  0  0  0  0  0  0
   -2.6145   -0.6753    0.9387 C   0  0  0  0  0  0  0  0  0  0  0  0
   -1.8938   -1.2178    1.7596 O   0  0  0  0  0  0  0  0  0  0  0  0
   -2.2984    0.5775    0.4451 N   0  0  0  0  0  0  0  0  0  0  0  0
   -2.9477    0.9119   -0.2628 H   0  0  0  0  0  0  0  0  0  0  0  0
   -0.9652    1.2319    0.4522 C   0  0  1  0  0  0  0  0  0  0  0  0
   -1.0056    2.0699   -0.2519 H   0  0  0  0  0  0  0  0  0  0  0  0
   -0.6802    1.7896    1.8631 C   0  0  0  0  0  0  0  0  0  0  0  0
   -0.7762    0.9897    2.6046 H   0  0  0  0  0  0  0  0  0  0  0  0
    0.3572    2.1425    1.9002 H   0  0  0  0  0  0  0  0  0  0  0  0
   -1.6009    2.9613    2.2308 C   0  0  0  0  0  0  0  0  0  0  0  0
   -1.4860    3.7632    1.4930 H   0  0  0  0  0  0  0  0  0  0  0  0
   -2.6445    2.6290    2.2113 H   0  0  0  0  0  0  0  0  0  0  0  0
   -1.2483    3.4815    3.6299 C   0  0  0  0  0  0  0  0  0  0  0  0
   -1.3464    2.6640    4.3530 H   0  0  0  0  0  0  0  0  0  0  0  0
   -0.2059    3.8190    3.6396 H   0  0  0  0  0  0  0  0  0  0  0  0
   -2.1707    4.6324    4.0228 C   0  0  0  0  0  0  0  0  0  0  0  0
   -2.0655    5.4473    3.2912 H   0  0  0  0  0  0  0  0  0  0  0  0
   -3.2155    4.2909    3.9806 H   0  0  0  0  0  0  0  0  0  0  0  0
   -1.8130    5.0872    5.3843 N   0  3  0  0  0  0  0  0  0  0  0  0
   -0.8380    5.3935    5.4046 H   0  0  0  0  0  0  0  0  0  0  0  0
   -2.4116    5.8670    5.6650 H   0  0  0  0  0  0  0  0  0  0  0  0
   -1.9320    4.3210    6.0504 H   0  0  0  0  0  0  0  0  0  0  0  0
    0.2753    0.4001    0.0228 C   0  0  0  0  0  0  0  0  0  0  0  0
    1.2040    1.0081   -0.4910 O   0  0  0  0  0  0  0  0  0  0  0  0
    0.3958   -0.9652    0.1940 N   0  0  0  0  0  0  0  0  0  0  0  0
   -0.3084   -1.4083    0.7880 H   0  0  0  0  0  0  0  0  0  0  0  0
    1.6007   -1.7170   -0.1384 C   0  0  0  0  0  0  0  0  0  0  0  0
    2.4412   -1.3902    0.4828 H   0  0  0  0  0  0  0  0  0  0  0  0
    1.4383   -2.7859    0.0317 H   0  0  0  0  0  0  0  0  0  0  0  0
    1.8652   -1.5745   -1.1917 H   0  0  0  0  0  0  0  0  0  0  0  0
  1  2  1  0  0  0  0
  2  3  1  0  0  0  0
  2  4  1  0  0  0  0
  2  5  1  0  0  0  0
  5  6  2  0  0  0  0
  5  7  1  0  0  0  0
  7  8  1  0  0  0  0
  7  9  1  0  0  0  0
  9 10  1  0  0  0  0
  9 11  1  0  0  0  0
  9 27  1  0  0  0  0
 11 12  1  0  0  0  0
 11 13  1  0  0  0  0
 11 14  1  0  0  0  0
 14 15  1  0  0  0  0
 14 16  1  0  0  0  0
 14 17  1  0  0  0  0
 17 18  1  0  0  0  0
 17 19  1  0  0  0  0
 17 20  1  0  0  0  0
 20 21  1  0  0  0  0
 20 22  1  0  0  0  0
 20 23  1  0  0  0  0
 23 24  1  0  0  0  0
 23 25  1  0  0  0  0
 23 26  1  0  0  0  0
 27 28  2  0  0  0  0
 27 29  1  0  0  0  0
 29 30  1  0  0  0  0
 29 31  1  0  0  0  0
 31 32  1  0  0  0  0
 31 33  1  0  0  0  0
 31 34  1  0  0  0  0
M  CHG  1  23   1
M  END
$$$$

  -OEChem-01062216093D

 34 33  0     1  0  0  0  0  0999 V2000
   -3.9966   -2.3493    1.1006 H   0  0  0  0  0  0  0  0  0  0  0  0
   -3.9516   -1.3473    0.6636 C   0  0  0  0  0  0  0  0  0  0  0  0
   -4.7662   -0.7474    1.0763 H   0  0  0  0  0  0  0  0  0  0  0  0
   -4.0824   -1.4324   -0.4181 H   0  0  0  0  0  0  0  0  0  0  0  0
   -2.6165   -0.6994    0.9774 C   0  0  0  0  0  0  0  0  0  0  0  0
   -1.8249   -1.2678    1.7097 O   0  0  0  0  0  0  0  0  0  0  0  0
   -2.3256    0.5507    0.4636 N   0  0  0  0  0  0  0  0  0  0  0  0
   -3.0238    0.9038   -0.1860 H   0  0  0  0  0  0  0  0  0  0  0  0
   -1.0012    1.2211    0.4231 C   0  0  1  0  0  0  0  0  0  0  0  0
   -1.0718    2.0504   -0.2884 H   0  0  0  0  0  0  0  0  0  0  0  0
   -0.6879    1.7946    1.8229 C   0  0  0  0  0  0  0  0  0  0  0  0
   -0.7563    0.9970    2.5705 H   0  0  0  0  0  0  0  0  0  0  0  0
    0.3448    2.1620    1.8359 H   0  0  0  0  0  0  0  0  0  0  0  0
   -1.6130    2.9568    2.2084 C   0  0  0  0  0  0  0  0  0  0  0  0
   -1.5286    3.7555    1.4631 H   0  0  0  0  0  0  0  0  0  0  0  0
   -2.6528    2.6119    2.2206 H   0  0  0  0  0  0  0  0  0  0  0  0
   -1.2260    3.4882    3.5941 C   0  0  0  0  0  0  0  0  0  0  0  0
   -1.2924    2.6732    4.3238 H   0  0  0  0  0  0  0  0  0  0  0  0
   -0.1877    3.8382    3.5706 H   0  0  0  0  0  0  0  0  0  0  0  0
   -2.1493    4.6302    4.0091 C   0  0  0  0  0  0  0  0  0  0  0  0
   -2.0747    5.4425    3.2711 H   0  0  0  0  0  0  0  0  0  0  0  0
   -3.1908    4.2770    4.0002 H   0  0  0  0  0  0  0  0  0  0  0  0
   -1.7547    5.0936    5.3572 N   0  3  0  0  0  0  0  0  0  0  0  0
   -0.7813    5.4055    5.3470 H   0  0  0  0  0  0  0  0  0  0  0  0
   -2.3490    5.8717    5.6514 H   0  0  0  0  0  0  0  0  0  0  0  0
   -1.8491    4.3303    6.0304 H   0  0  0  0  0  0  0  0  0  0  0  0
    0.2406    0.4050   -0.0346 C   0  0  0  0  0  0  0  0  0  0  0  0
    1.2264    1.0384   -0.3878 O   0  0  0  0  0  0  0  0  0  0  0  0
    0.2729   -0.9730   -0.1268 N   0  0  0  0  0  0  0  0  0  0  0  0
   -0.4437   -1.4605    0.4136 H   0  0  0  0  0  0  0  0  0  0  0  0
    1.4753   -1.7137   -0.4926 C   0  0  0  0  0  0  0  0  0  0  0  0
    2.2714   -1.5396    0.2389 H   0  0  0  0  0  0  0  0  0  0  0  0
    1.2628   -2.7868   -0.5260 H   0  0  0  0  0  0  0  0  0  0  0  0
    1.8323   -1.4040   -1.4806 H   0  0  0  0  0  0  0  0  0  0  0  0
  1  2  1  0  0  0  0
  2  3  1  0  0  0  0
  2  4  1  0  0  0  0
  2  5  1  0  0  0  0
  5  6  2  0  0  0  0
  5  7  1  0  0  0  0
  7  8  1  0  0  0  0
  7  9  1  0  0  0  0
  9 10  1  0  0  0  0
  9 11  1  0  0  0  0
  9 27  1  0  0  0  0
 11 12  1  0  0  0  0
 11 13  1  0  0  0  0
 11 14  1  0  0  0  0
 14 15  1  0  0  0  0
 14 16  1  0  0  0  0
 14 17  1  0  0  0  0
 17 18  1  0  0  0  0
 17 19  1  0  0  0  0
 17 20  1  0  0  0  0
 20 21  1  0  0  0  0
 20 22  1  0  0  0  0
 20 23  1  0  0  0  0
 23 24  1  0  0  0  0
 23 25  1  0  0  0  0
 23 26  1  0  0  0  0
 27 28  2  0  0  0  0
 27 29  1  0  0  0  0
 29 30  1  0  0  0  0
 29 31  1  0  0  0  0
 31 32  1  0  0  0  0
 31 33  1  0  0  0  0
 31 34  1  0  0  0  0
M  CHG  1  23   1
M  END
$$$$

  -OEChem-01062216093D

 34 33  0     1  0  0  0  0  0999 V2000
   -3.9819   -2.3198    1.1509 H   0  0  0  0  0  0  0  0  0  0  0  0
   -3.9452   -1.3166    0.7159 C   0  0  0  0  0  0  0  0  0  0  0  0
   -4.7257   -0.7062    1.1762 H   0  0  0  0  0  0  0  0  0  0  0  0
   -4.1370   -1.3944   -0.3572 H   0  0  0  0  0  0  0  0  0  0  0  0
   -2.5848   -0.6914    0.9585 C   0  0  0  0  0  0  0  0  0  0  0  0
   -1.7522   -1.2905    1.6157 O   0  0  0  0  0  0  0  0  0  0  0  0
   -2.3016    0.5597    0.4426 N   0  0  0  0  0  0  0  0  0  0  0  0
   -3.0225    0.9386   -0.1665 H   0  0  0  0  0  0  0  0  0  0  0  0
   -0.9792    1.2346    0.4042 C   0  0  1  0  0  0  0  0  0  0  0  0
   -1.0446    2.0637   -0.3075 H   0  0  0  0  0  0  0  0  0  0  0  0
   -0.6828    1.8056    1.8103 C   0  0  0  0  0  0  0  0  0  0  0  0
   -0.7547    1.0031    2.5523 H   0  0  0  0  0  0  0  0  0  0  0  0
    0.3473    2.1786    1.8392 H   0  0  0  0  0  0  0  0  0  0  0  0
   -1.6159    2.9619    2.1945 C   0  0  0  0  0  0  0  0  0  0  0  0
   -1.5279    3.7659    1.4551 H   0  0  0  0  0  0  0  0  0  0  0  0
   -2.6544    2.6139    2.1969 H   0  0  0  0  0  0  0  0  0  0  0  0
   -1.2384    3.4840    3.5866 C   0  0  0  0  0  0  0  0  0  0  0  0
   -1.3069    2.6624    4.3087 H   0  0  0  0  0  0  0  0  0  0  0  0
   -0.2004    3.8356    3.5717 H   0  0  0  0  0  0  0  0  0  0  0  0
   -2.1651    4.6206    4.0084 C   0  0  0  0  0  0  0  0  0  0  0  0
   -2.0893    5.4399    3.2784 H   0  0  0  0  0  0  0  0  0  0  0  0
   -3.2059    4.2659    3.9921 H   0  0  0  0  0  0  0  0  0  0  0  0
   -1.7765    5.0722    5.3625 N   0  3  0  0  0  0  0  0  0  0  0  0
   -0.8046    5.3892    5.3581 H   0  0  0  0  0  0  0  0  0  0  0  0
   -2.3755    5.8441    5.6634 H   0  0  0  0  0  0  0  0  0  0  0  0
   -1.8687    4.3016    6.0275 H   0  0  0  0  0  0  0  0  0  0  0  0
    0.2612    0.4134   -0.0505 C   0  0  0  0  0  0  0  0  0  0  0  0
    1.3118    1.0185   -0.2221 O   0  0  0  0  0  0  0  0  0  0  0  0
    0.1975   -0.9167   -0.4199 N   0  0  0  0  0  0  0  0  0  0  0  0
   -0.5653   -1.4375    0.0125 H   0  0  0  0  0  0  0  0  0  0  0  0
    1.3759   -1.6695   -0.8363 C   0  0  0  0  0  0  0  0  0  0  0  0
    2.1079   -1.7169   -0.0231 H   0  0  0  0  0  0  0  0  0  0  0  0
    1.0948   -2.6907   -1.1114 H   0  0  0  0  0  0  0  0  0  0  0  0
    1.8462   -1.1976   -1.7058 H   0  0  0  0  0  0  0  0  0  0  0  0
  1  2  1  0  0  0  0
  2  3  1  0  0  0  0
  2  4  1  0  0  0  0
  2  5  1  0  0  0  0
  5  6  2  0  0  0  0
  5  7  1  0  0  0  0
  7  8  1  0  0  0  0
  7  9  1  0  0  0  0
  9 10  1  0  0  0  0
  9 11  1  0  0  0  0
  9 27  1  0  0  0  0
 11 12  1  0  0  0  0
 11 13  1  0  0  0  0
 11 14  1  0  0  0  0
 14 15  1  0  0  0  0
 14 16  1  0  0  0  0
 14 17  1  0  0  0  0
 17 18  1  0  0  0  0
 17 19  1  0  0  0  0
 17 20  1  0  0  0  0
 20 21  1  0  0  0  0
 20 22  1  0  0  0  0
 20 23  1  0  0  0  0
 23 24  1  0  0  0  0
 23 25  1  0  0  0  0
 23 26  1  0  0  0  0
 27 28  2  0  0  0  0
 27 29  1  0  0  0  0
 29 30  1  0  0  0  0
 29 31  1  0  0  0  0
 31 32  1  0  0  0  0
 31 33  1  0  0  0  0
 31 34  1  0  0  0  0
M  CHG  1  23   1
M  END
$$$$

  -OEChem-01062216093D

 34 33  0     1  0  0  0  0  0999 V2000
   -3.9145   -2.3250    1.1577 H   0  0  0  0  0  0  0  0  0  0  0  0
   -3.8988   -1.3105    0.7485 C   0  0  0  0  0  0  0  0  0  0  0  0
   -4.6568   -0.7139    1.2613 H   0  0  0  0  0  0  0  0  0  0  0  0
   -4.1414   -1.3599   -0.3159 H   0  0  0  0  0  0  0  0  0  0  0  0
   -2.5286   -0.6895    0.9430 C   0  0  0  0  0  0  0  0  0  0  0  0
   -1.6648   -1.3034    1.5417 O   0  0  0  0  0  0  0  0  0  0  0  0
   -2.2640    0.5685    0.4341 N   0  0  0  0  0  0  0  0  0  0  0  0
   -3.0092    0.9733   -0.1268 H   0  0  0  0  0  0  0  0  0  0  0  0
   -0.9465    1.2517    0.4010 C   0  0  1  0  0  0  0  0  0  0  0  0
   -1.0093    2.0809   -0.3104 H   0  0  0  0  0  0  0  0  0  0  0  0
   -0.6664    1.8226    1.8125 C   0  0  0  0  0  0  0  0  0  0  0  0
   -0.7378    1.0170    2.5512 H   0  0  0  0  0  0  0  0  0  0  0  0
    0.3588    2.2060    1.8537 H   0  0  0  0  0  0  0  0  0  0  0  0
   -1.6114    2.9708    2.1930 C   0  0  0  0  0  0  0  0  0  0  0  0
   -1.5233    3.7778    1.4571 H   0  0  0  0  0  0  0  0  0  0  0  0
   -2.6475    2.6157    2.1866 H   0  0  0  0  0  0  0  0  0  0  0  0
   -1.2484    3.4912    3.5896 C   0  0  0  0  0  0  0  0  0  0  0  0
   -1.3166    2.6668    4.3084 H   0  0  0  0  0  0  0  0  0  0  0  0
   -0.2131    3.8504    3.5842 H   0  0  0  0  0  0  0  0  0  0  0  0
   -2.1863    4.6195    4.0084 C   0  0  0  0  0  0  0  0  0  0  0  0
   -2.1107    5.4424    3.2823 H   0  0  0  0  0  0  0  0  0  0  0  0
   -3.2245    4.2571    3.9830 H   0  0  0  0  0  0  0  0  0  0  0  0
   -1.8103    5.0683    5.3669 N   0  3  0  0  0  0  0  0  0  0  0  0
   -0.8500    5.4187    5.3643 H   0  0  0  0  0  0  0  0  0  0  0  0
   -2.4349    5.8152    5.6783 H   0  0  0  0  0  0  0  0  0  0  0  0
   -1.8738    4.2870    6.0227 H   0  0  0  0  0  0  0  0  0  0  0  0
    0.2830    0.4174   -0.0633 C   0  0  0  0  0  0  0  0  0  0  0  0
    1.3897    0.9409   -0.0330 O   0  0  0  0  0  0  0  0  0  0  0  0
    0.1470   -0.7952   -0.7142 N   0  0  0  0  0  0  0  0  0  0  0  0
   -0.6948   -1.3114   -0.4708 H   0  0  0  0  0  0  0  0  0  0  0  0
    1.2968   -1.5667   -1.1766 C   0  0  0  0  0  0  0  0  0  0  0  0
    1.9133   -1.8818   -0.3283 H   0  0  0  0  0  0  0  0  0  0  0  0
    0.9616   -2.4589   -1.7142 H   0  0  0  0  0  0  0  0  0  0  0  0
    1.9145   -0.9710   -1.8573 H   0  0  0  0  0  0  0  0  0  0  0  0
  1  2  1  0  0  0  0
  2  3  1  0  0  0  0
  2  4  1  0  0  0  0
  2  5  1  0  0  0  0
  5  6  2  0  0  0  0
  5  7  1  0  0  0  0
  7  8  1  0  0  0  0
  7  9  1  0  0  0  0
  9 10  1  0  0  0  0
  9 11  1  0  0  0  0
  9 27  1  0  0  0  0
 11 12  1  0  0  0  0
 11 13  1  0  0  0  0
 11 14  1  0  0  0  0
 14 15  1  0  0  0  0
 14 16  1  0  0  0  0
 14 17  1  0  0  0  0
 17 18  1  0  0  0  0
 17 19  1  0  0  0  0
 17 20  1  0  0  0  0
 20 21  1  0  0  0  0
 20 22  1  0  0  0  0
 20 23  1  0  0  0  0
 23 24  1  0  0  0  0
 23 25  1  0  0  0  0
 23 26  1  0  0  0  0
 27 28  2  0  0  0  0
 27 29  1  0  0  0  0
 29 30  1  0  0  0  0
 29 31  1  0  0  0  0
 31 32  1  0  0  0  0
 31 33  1  0  0  0  0
 31 34  1  0  0  0  0
M  CHG  1  23   1
M  END
$$$$

  -OEChem-01062216093D

 34 33  0     1  0  0  0  0  0999 V2000
   -3.7987   -2.3512    1.1540 H   0  0  0  0  0  0  0  0  0  0  0  0
   -3.8113   -1.3369    0.7438 C   0  0  0  0  0  0  0  0  0  0  0  0
   -4.5788   -0.7583    1.2634 H   0  0  0  0  0  0  0  0  0  0  0  0
   -4.0623   -1.3930   -0.3181 H   0  0  0  0  0  0  0  0  0  0  0  0
   -2.4546   -0.6842    0.9273 C   0  0  0  0  0  0  0  0  0  0  0  0
   -1.5796   -1.2710    1.5357 O   0  0  0  0  0  0  0  0  0  0  0  0
   -2.2250    0.5826    0.4203 N   0  0  0  0  0  0  0  0  0  0  0  0
   -2.9860    0.9828   -0.1222 H   0  0  0  0  0  0  0  0  0  0  0  0
   -0.9191    1.2862    0.3924 C   0  0  1  0  0  0  0  0  0  0  0  0
   -0.9843    2.1160   -0.3179 H   0  0  0  0  0  0  0  0  0  0  0  0
   -0.6503    1.8570    1.8070 C   0  0  0  0  0  0  0  0  0  0  0  0
   -0.7056    1.0477    2.5429 H   0  0  0  0  0  0  0  0  0  0  0  0
    0.3667    2.2612    1.8497 H   0  0  0  0  0  0  0  0  0  0  0  0
   -1.6126    2.9886    2.1925 C   0  0  0  0  0  0  0  0  0  0  0  0
   -1.5373    3.8008    1.4612 H   0  0  0  0  0  0  0  0  0  0  0  0
   -2.6431    2.6174    2.1852 H   0  0  0  0  0  0  0  0  0  0  0  0
   -1.2550    3.5052    3.5922 C   0  0  0  0  0  0  0  0  0  0  0  0
   -1.3096    2.6750    4.3054 H   0  0  0  0  0  0  0  0  0  0  0  0
   -0.2248    3.8791    3.5872 H   0  0  0  0  0  0  0  0  0  0  0  0
   -2.2069    4.6173    4.0218 C   0  0  0  0  0  0  0  0  0  0  0  0
   -2.1446    5.4467    3.3021 H   0  0  0  0  0  0  0  0  0  0  0  0
   -3.2402    4.2413    3.9970 H   0  0  0  0  0  0  0  0  0  0  0  0
   -1.8317    5.0593    5.3827 N   0  3  0  0  0  0  0  0  0  0  0  0
   -0.8739    5.4165    5.3811 H   0  0  0  0  0  0  0  0  0  0  0  0
   -2.4610    5.7993    5.7008 H   0  0  0  0  0  0  0  0  0  0  0  0
   -1.8882    4.2727    6.0330 H   0  0  0  0  0  0  0  0  0  0  0  0
    0.2971    0.4366   -0.0801 C   0  0  0  0  0  0  0  0  0  0  0  0
    1.4367    0.8013    0.1809 O   0  0  0  0  0  0  0  0  0  0  0  0
    0.1307   -0.5974   -0.9843 N   0  0  0  0  0  0  0  0  0  0  0  0
   -0.8067   -0.9790   -1.0518 H   0  0  0  0  0  0  0  0  0  0  0  0
    1.2414   -1.4250   -1.4444 C   0  0  0  0  0  0  0  0  0  0  0  0
    1.6823   -1.9741   -0.6057 H   0  0  0  0  0  0  0  0  0  0  0  0
    0.8930   -2.1476   -2.1887 H   0  0  0  0  0  0  0  0  0  0  0  0
    2.0186   -0.8071   -1.9068 H   0  0  0  0  0  0  0  0  0  0  0  0
  1  2  1  0  0  0  0
  2  3  1  0  0  0  0
  2  4  1  0  0  0  0
  2  5  1  0  0  0  0
  5  6  2  0  0  0  0
  5  7  1  0  0  0  0
  7  8  1  0  0  0  0
  7  9  1  0  0  0  0
  9 10  1  0  0  0  0
  9 11  1  0  0  0  0
  9 27  1  0  0  0  0
 11 12  1  0  0  0  0
 11 13  1  0  0  0  0
 11 14  1  0  0  0  0
 14 15  1  0  0  0  0
 14 16  1  0  0  0  0
 14 17  1  0  0  0  0
 17 18  1  0  0  0  0
 17 19  1  0  0  0  0
 17 20  1  0  0  0  0
 20 21  1  0  0  0  0
 20 22  1  0  0  0  0
 20 23  1  0  0  0  0
 23 24  1  0  0  0  0
 23 25  1  0  0  0  0
 23 26  1  0  0  0  0
 27 28  2  0  0  0  0
 27 29  1  0  0  0  0
 29 30  1  0  0  0  0
 29 31  1  0  0  0  0
 31 32  1  0  0  0  0
 31 33  1  0  0  0  0
 31 34  1  0  0  0  0
M  CHG  1  23   1
M  END
$$$$

  -OEChem-01062216093D

 34 33  0     1  0  0  0  0  0999 V2000
   -3.7263   -2.3778    1.1322 H   0  0  0  0  0  0  0  0  0  0  0  0
   -3.7488   -1.3704    0.7059 C   0  0  0  0  0  0  0  0  0  0  0  0
   -4.5448   -0.8019    1.1923 H   0  0  0  0  0  0  0  0  0  0  0  0
   -3.9648   -1.4485   -0.3623 H   0  0  0  0  0  0  0  0  0  0  0  0
   -2.4126   -0.6852    0.9208 C   0  0  0  0  0  0  0  0  0  0  0  0
   -1.5437   -1.2449    1.5624 O   0  0  0  0  0  0  0  0  0  0  0  0
   -2.2029    0.5851    0.4125 N   0  0  0  0  0  0  0  0  0  0  0  0
   -2.9639    0.9676   -0.1421 H   0  0  0  0  0  0  0  0  0  0  0  0
   -0.9072    1.3053    0.3949 C   0  0  1  0  0  0  0  0  0  0  0  0
   -0.9706    2.1327   -0.3178 H   0  0  0  0  0  0  0  0  0  0  0  0
   -0.6459    1.8828    1.8083 C   0  0  0  0  0  0  0  0  0  0  0  0
   -0.6873    1.0736    2.5452 H   0  0  0  0  0  0  0  0  0  0  0  0
    0.3656    2.3016    1.8450 H   0  0  0  0  0  0  0  0  0  0  0  0
   -1.6175    3.0042    2.1977 C   0  0  0  0  0  0  0  0  0  0  0  0
   -1.5544    3.8183    1.4673 H   0  0  0  0  0  0  0  0  0  0  0  0
   -2.6439    2.6217    2.1950 H   0  0  0  0  0  0  0  0  0  0  0  0
   -1.2565    3.5199    3.5973 C   0  0  0  0  0  0  0  0  0  0  0  0
   -1.2990    2.6870    4.3085 H   0  0  0  0  0  0  0  0  0  0  0  0
   -0.2293    3.9024    3.5875 H   0  0  0  0  0  0  0  0  0  0  0  0
   -2.2146    4.6226    4.0365 C   0  0  0  0  0  0  0  0  0  0  0  0
   -2.1637    5.4550    3.3192 H   0  0  0  0  0  0  0  0  0  0  0  0
   -3.2448    4.2379    4.0180 H   0  0  0  0  0  0  0  0  0  0  0  0
   -1.8341    5.0627    5.3966 N   0  3  0  0  0  0  0  0  0  0  0  0
   -0.8747    5.4154    5.3929 H   0  0  0  0  0  0  0  0  0  0  0  0
   -2.4595    5.8052    5.7164 H   0  0  0  0  0  0  0  0  0  0  0  0
   -1.8923    4.2762    6.0468 H   0  0  0  0  0  0  0  0  0  0  0  0
    0.3005    0.4401   -0.0711 C   0  0  0  0  0  0  0  0  0  0  0  0
    1.4202    0.6168    0.3929 O   0  0  0  0  0  0  0  0  0  0  0  0
    0.1748   -0.3744   -1.1828 N   0  0  0  0  0  0  0  0  0  0  0  0
   -0.7688   -0.5845   -1.4895 H   0  0  0  0  0  0  0  0  0  0  0  0
    1.2651   -1.2133   -1.6700 C   0  0  0  0  0  0  0  0  0  0  0  0
    1.5623   -1.9370   -0.9036 H   0  0  0  0  0  0  0  0  0  0  0  0
    0.9532   -1.7628   -2.5635 H   0  0  0  0  0  0  0  0  0  0  0  0
    2.1351   -0.6009   -1.9301 H   0  0  0  0  0  0  0  0  0  0  0  0
  1  2  1  0  0  0  0
  2  3  1  0  0  0  0
  2  4  1  0  0  0  0
  2  5  1  0  0  0  0
  5  6  2  0  0  0  0
  5  7  1  0  0  0  0
  7  8  1  0  0  0  0
  7  9  1  0  0  0  0
  9 10  1  0  0  0  0
  9 11  1  0  0  0  0
  9 27  1  0  0  0  0
 11 12  1  0  0  0  0
 11 13  1  0  0  0  0
 11 14  1  0  0  0  0
 14 15  1  0  0  0  0
 14 16  1  0  0  0  0
 14 17  1  0  0  0  0
 17 18  1  0  0  0  0
 17 19  1  0  0  0  0
 17 20  1  0  0  0  0
 20 21  1  0  0  0  0
 20 22  1  0  0  0  0
 20 23  1  0  0  0  0
 23 24  1  0  0  0  0
 23 25  1  0  0  0  0
 23 26  1  0  0  0  0
 27 28  2  0  0  0  0
 27 29  1  0  0  0  0
 29 30  1  0  0  0  0
 29 31  1  0  0  0  0
 31 32  1  0  0  0  0
 31 33  1  0  0  0  0
 31 34  1  0  0  0  0
M  CHG  1  23   1
M  END
$$$$

  -OEChem-01062216093D

 34 33  0     1  0  0  0  0  0999 V2000
   -3.7016   -2.3912    1.1162 H   0  0  0  0  0  0  0  0  0  0  0  0
   -3.7255   -1.3847    0.6881 C   0  0  0  0  0  0  0  0  0  0  0  0
   -4.5357   -0.8226    1.1583 H   0  0  0  0  0  0  0  0  0  0  0  0
   -3.9206   -1.4669   -0.3839 H   0  0  0  0  0  0  0  0  0  0  0  0
   -2.3999   -0.6865    0.9260 C   0  0  0  0  0  0  0  0  0  0  0  0
   -1.5444   -1.2322    1.5964 O   0  0  0  0  0  0  0  0  0  0  0  0
   -2.1937    0.5827    0.4132 N   0  0  0  0  0  0  0  0  0  0  0  0
   -2.9493    0.9503   -0.1581 H   0  0  0  0  0  0  0  0  0  0  0  0
   -0.9020    1.3081    0.3983 C   0  0  1  0  0  0  0  0  0  0  0  0
   -0.9639    2.1346   -0.3155 H   0  0  0  0  0  0  0  0  0  0  0  0
   -0.6435    1.8898    1.8105 C   0  0  0  0  0  0  0  0  0  0  0  0
   -0.6804    1.0824    2.5502 H   0  0  0  0  0  0  0  0  0  0  0  0
    0.3679    2.3100    1.8412 H   0  0  0  0  0  0  0  0  0  0  0  0
   -1.6180    3.0086    2.2000 C   0  0  0  0  0  0  0  0  0  0  0  0
   -1.5588    3.8227    1.4693 H   0  0  0  0  0  0  0  0  0  0  0  0
   -2.6430    2.6223    2.1985 H   0  0  0  0  0  0  0  0  0  0  0  0
   -1.2565    3.5257    3.5990 C   0  0  0  0  0  0  0  0  0  0  0  0
   -1.2964    2.6926    4.3101 H   0  0  0  0  0  0  0  0  0  0  0  0
   -0.2305    3.9107    3.5885 H   0  0  0  0  0  0  0  0  0  0  0  0
   -2.2164    4.6260    4.0403 C   0  0  0  0  0  0  0  0  0  0  0  0
   -2.1698    5.4590    3.3235 H   0  0  0  0  0  0  0  0  0  0  0  0
   -3.2456    4.2384    4.0232 H   0  0  0  0  0  0  0  0  0  0  0  0
   -1.8340    5.0660    5.3998 N   0  3  0  0  0  0  0  0  0  0  0  0
   -0.8760    5.4226    5.3944 H   0  0  0  0  0  0  0  0  0  0  0  0
   -2.4615    5.8054    5.7227 H   0  0  0  0  0  0  0  0  0  0  0  0
   -1.8876    4.2778    6.0485 H   0  0  0  0  0  0  0  0  0  0  0  0
    0.3018    0.4335   -0.0603 C   0  0  0  0  0  0  0  0  0  0  0  0
    1.3577    0.4199    0.5603 O   0  0  0  0  0  0  0  0  0  0  0  0
    0.2819   -0.1365   -1.3214 N   0  0  0  0  0  0  0  0  0  0  0  0
   -0.6133   -0.1772   -1.7968 H   0  0  0  0  0  0  0  0  0  0  0  0
    1.3823   -0.9444   -1.8391 C   0  0  0  0  0  0  0  0  0  0  0  0
    1.5444   -1.8225   -1.2046 H   0  0  0  0  0  0  0  0  0  0  0  0
    1.1591   -1.2873   -2.8540 H   0  0  0  0  0  0  0  0  0  0  0  0
    2.3075   -0.3588   -1.8706 H   0  0  0  0  0  0  0  0  0  0  0  0
  1  2  1  0  0  0  0
  2  3  1  0  0  0  0
  2  4  1  0  0  0  0
  2  5  1  0  0  0  0
  5  6  2  0  0  0  0
  5  7  1  0  0  0  0
  7  8  1  0  0  0  0
  7  9  1  0  0  0  0
  9 10  1  0  0  0  0
  9 11  1  0  0  0  0
  9 27  1  0  0  0  0
 11 12  1  0  0  0  0
 11 13  1  0  0  0  0
 11 14  1  0  0  0  0
 14 15  1  0  0  0  0
 14 16  1  0  0  0  0
 14 17  1  0  0  0  0
 17 18  1  0  0  0  0
 17 19  1  0  0  0  0
 17 20  1  0  0  0  0
 20 21  1  0  0  0  0
 20 22  1  0  0  0  0
 20 23  1  0  0  0  0
 23 24  1  0  0  0  0
 23 25  1  0  0  0  0
 23 26  1  0  0  0  0
 27 28  2  0  0  0  0
 27 29  1  0  0  0  0
 29 30  1  0  0  0  0
 29 31  1  0  0  0  0
 31 32  1  0  0  0  0
 31 33  1  0  0  0  0
 31 34  1  0  0  0  0
M  CHG  1  23   1
M  END
$$$$

  -OEChem-01062216093D

 34 33  0     1  0  0  0  0  0999 V2000
   -3.6955   -2.4073    1.1056 H   0  0  0  0  0  0  0  0  0  0  0  0
   -3.7142   -1.4092    0.6579 C   0  0  0  0  0  0  0  0  0  0  0  0
   -4.5526   -0.8508    1.0805 H   0  0  0  0  0  0  0  0  0  0  0  0
   -3.8586   -1.5136   -0.4201 H   0  0  0  0  0  0  0  0  0  0  0  0
   -2.4105   -0.6872    0.9415 C   0  0  0  0  0  0  0  0  0  0  0  0
   -1.5804   -1.2100    1.6598 O   0  0  0  0  0  0  0  0  0  0  0  0
   -2.2038    0.5789    0.4205 N   0  0  0  0  0  0  0  0  0  0  0  0
   -2.9383    0.9143   -0.1961 H   0  0  0  0  0  0  0  0  0  0  0  0
   -0.9118    1.3035    0.4036 C   0  0  1  0  0  0  0  0  0  0  0  0
   -0.9730    2.1301   -0.3102 H   0  0  0  0  0  0  0  0  0  0  0  0
   -0.6494    1.8893    1.8122 C   0  0  0  0  0  0  0  0  0  0  0  0
   -0.6893    1.0856    2.5556 H   0  0  0  0  0  0  0  0  0  0  0  0
    0.3655    2.3019    1.8370 H   0  0  0  0  0  0  0  0  0  0  0  0
   -1.6208    3.0106    2.2011 C   0  0  0  0  0  0  0  0  0  0  0  0
   -1.5624    3.8226    1.4680 H   0  0  0  0  0  0  0  0  0  0  0  0
   -2.6464    2.6261    2.2040 H   0  0  0  0  0  0  0  0  0  0  0  0
   -1.2522    3.5287    3.5975 C   0  0  0  0  0  0  0  0  0  0  0  0
   -1.2904    2.6961    4.3093 H   0  0  0  0  0  0  0  0  0  0  0  0
   -0.2252    3.9107    3.5810 H   0  0  0  0  0  0  0  0  0  0  0  0
   -2.2064    4.6317    4.0430 C   0  0  0  0  0  0  0  0  0  0  0  0
   -2.1614    5.4643    3.3258 H   0  0  0  0  0  0  0  0  0  0  0  0
   -3.2364    4.2464    4.0319 H   0  0  0  0  0  0  0  0  0  0  0  0
   -1.8149    5.0705    5.4005 N   0  3  0  0  0  0  0  0  0  0  0  0
   -0.8564    5.4256    5.3894 H   0  0  0  0  0  0  0  0  0  0  0  0
   -2.4396    5.8103    5.7275 H   0  0  0  0  0  0  0  0  0  0  0  0
   -1.8657    4.2819    6.0494 H   0  0  0  0  0  0  0  0  0  0  0  0
    0.2920    0.4254   -0.0470 C   0  0  0  0  0  0  0  0  0  0  0  0
    1.2518    0.2197    0.6852 O   0  0  0  0  0  0  0  0  0  0  0  0
    0.4242    0.1118   -1.3886 N   0  0  0  0  0  0  0  0  0  0  0  0
   -0.3859    0.2507   -1.9834 H   0  0  0  0  0  0  0  0  0  0  0  0
    1.5567   -0.6421   -1.9188 C   0  0  0  0  0  0  0  0  0  0  0  0
    1.6212   -1.6250   -1.4398 H   0  0  0  0  0  0  0  0  0  0  0  0
    1.4436   -0.7897   -2.9972 H   0  0  0  0  0  0  0  0  0  0  0  0
    2.4939   -0.1034   -1.7420 H   0  0  0  0  0  0  0  0  0  0  0  0
  1  2  1  0  0  0  0
  2  3  1  0  0  0  0
  2  4  1  0  0  0  0
  2  5  1  0  0  0  0
  5  6  2  0  0  0  0
  5  7  1  0  0  0  0
  7  8  1  0  0  0  0
  7  9  1  0  0  0  0
  9 10  1  0  0  0  0
  9 11  1  0  0  0  0
  9 27  1  0  0  0  0
 11 12  1  0  0  0  0
 11 13  1  0  0  0  0
 11 14  1  0  0  0  0
 14 15  1  0  0  0  0
 14 16  1  0  0  0  0
 14 17  1  0  0  0  0
 17 18  1  0  0  0  0
 17 19  1  0  0  0  0
 17 20  1  0  0  0  0
 20 21  1  0  0  0  0
 20 22  1  0  0  0  0
 20 23  1  0  0  0  0
 23 24  1  0  0  0  0
 23 25  1  0  0  0  0
 23 26  1  0  0  0  0
 27 28  2  0  0  0  0
 27 29  1  0  0  0  0
 29 30  1  0  0  0  0
 29 31  1  0  0  0  0
 31 32  1  0  0  0  0
 31 33  1  0  0  0  0
 31 34  1  0  0  0  0
M  CHG  1  23   1
M  END
$$$$

  -OEChem-01062216093D

 34 33  0     1  0  0  0  0  0999 V2000
   -3.6969   -2.4329    1.0799 H   0  0  0  0  0  0  0  0  0  0  0  0
   -3.7159   -1.4367    0.6278 C   0  0  0  0  0  0  0  0  0  0  0  0
   -4.5806   -0.8921    1.0142 H   0  0  0  0  0  0  0  0  0  0  0  0
   -3.8147   -1.5478   -0.4547 H   0  0  0  0  0  0  0  0  0  0  0  0
   -2.4382   -0.6898    0.9606 C   0  0  0  0  0  0  0  0  0  0  0  0
   -1.6463   -1.1824    1.7399 O   0  0  0  0  0  0  0  0  0  0  0  0
   -2.2283    0.5709    0.4275 N   0  0  0  0  0  0  0  0  0  0  0  0
   -2.9401    0.8715   -0.2322 H   0  0  0  0  0  0  0  0  0  0  0  0
   -0.9353    1.2939    0.4006 C   0  0  1  0  0  0  0  0  0  0  0  0
   -1.0023    2.1198   -0.3135 H   0  0  0  0  0  0  0  0  0  0  0  0
   -0.6597    1.8835    1.8045 C   0  0  0  0  0  0  0  0  0  0  0  0
   -0.6961    1.0843    2.5527 H   0  0  0  0  0  0  0  0  0  0  0  0
    0.3585    2.2884    1.8169 H   0  0  0  0  0  0  0  0  0  0  0  0
   -1.6247    3.0080    2.1997 C   0  0  0  0  0  0  0  0  0  0  0  0
   -1.5725    3.8181    1.4642 H   0  0  0  0  0  0  0  0  0  0  0  0
   -2.6509    2.6250    2.2143 H   0  0  0  0  0  0  0  0  0  0  0  0
   -1.2416    3.5284    3.5916 C   0  0  0  0  0  0  0  0  0  0  0  0
   -1.2768    2.6972    4.3054 H   0  0  0  0  0  0  0  0  0  0  0  0
   -0.2136    3.9069    3.5654 H   0  0  0  0  0  0  0  0  0  0  0  0
   -2.1882    4.6352    4.0449 C   0  0  0  0  0  0  0  0  0  0  0  0
   -2.1480    5.4668    3.3263 H   0  0  0  0  0  0  0  0  0  0  0  0
   -3.2196    4.2532    4.0451 H   0  0  0  0  0  0  0  0  0  0  0  0
   -1.7816    5.0751    5.3977 N   0  3  0  0  0  0  0  0  0  0  0  0
   -0.8232    5.4297    5.3758 H   0  0  0  0  0  0  0  0  0  0  0  0
   -2.4023    5.8154    5.7313 H   0  0  0  0  0  0  0  0  0  0  0  0
   -1.8256    4.2870    6.0476 H   0  0  0  0  0  0  0  0  0  0  0  0
    0.2740    0.4200   -0.0437 C   0  0  0  0  0  0  0  0  0  0  0  0
    1.1137    0.0230    0.7534 O   0  0  0  0  0  0  0  0  0  0  0  0
    0.5912    0.3543   -1.3898 N   0  0  0  0  0  0  0  0  0  0  0  0
   -0.1035    0.6761   -2.0558 H   0  0  0  0  0  0  0  0  0  0  0  0
    1.7767   -0.3325   -1.8953 C   0  0  0  0  0  0  0  0  0  0  0  0
    1.7622   -1.3888   -1.6053 H   0  0  0  0  0  0  0  0  0  0  0  0
    1.8132   -0.2745   -2.9875 H   0  0  0  0  0  0  0  0  0  0  0  0
    2.6868    0.1279   -1.4960 H   0  0  0  0  0  0  0  0  0  0  0  0
  1  2  1  0  0  0  0
  2  3  1  0  0  0  0
  2  4  1  0  0  0  0
  2  5  1  0  0  0  0
  5  6  2  0  0  0  0
  5  7  1  0  0  0  0
  7  8  1  0  0  0  0
  7  9  1  0  0  0  0
  9 10  1  0  0  0  0
  9 11  1  0  0  0  0
  9 27  1  0  0  0  0
 11 12  1  0  0  0  0
 11 13  1  0  0  0  0
 11 14  1  0  0  0  0
 14 15  1  0  0  0  0
 14 16  1  0  0  0  0
 14 17  1  0  0  0  0
 17 18  1  0  0  0  0
 17 19  1  0  0  0  0
 17 20  1  0  0  0  0
 20 21  1  0  0  0  0
 20 22  1  0  0  0  0
 20 23  1  0  0  0  0
 23 24  1  0  0  0  0
 23 25  1  0  0  0  0
 23 26  1  0  0  0  0
 27 28  2  0  0  0  0
 27 29  1  0  0  0  0
 29 30  1  0  0  0  0
 29 31  1  0  0  0  0
 31 32  1  0  0  0  0
 31 33  1  0  0  0  0
 31 34  1  0  0  0  0
M  CHG  1  23   1
M  END
$$$$

  -OEChem-01062216093D

 34 33  0     1  0  0  0  0  0999 V2000
   -3.6722   -2.4667    1.0429 H   0  0  0  0  0  0  0  0  0  0  0  0
   -3.6857   -1.4824    0.5656 C   0  0  0  0  0  0  0  0  0  0  0  0
   -4.5976   -0.9595    0.8631 H   0  0  0  0  0  0  0  0  0  0  0  0
   -3.6884   -1.6218   -0.5181 H   0  0  0  0  0  0  0  0  0  0  0  0
   -2.4658   -0.6849    0.9867 C   0  0  0  0  0  0  0  0  0  0  0  0
   -1.7493   -1.1190    1.8672 O   0  0  0  0  0  0  0  0  0  0  0  0
   -2.2573    0.5719    0.4430 N   0  0  0  0  0  0  0  0  0  0  0  0
   -2.9317    0.8178   -0.2759 H   0  0  0  0  0  0  0  0  0  0  0  0
   -0.9630    1.2934    0.4029 C   0  0  1  0  0  0  0  0  0  0  0  0
   -1.0438    2.1200   -0.3085 H   0  0  0  0  0  0  0  0  0  0  0  0
   -0.6643    1.8818    1.8019 C   0  0  0  0  0  0  0  0  0  0  0  0
   -0.6918    1.0858    2.5534 H   0  0  0  0  0  0  0  0  0  0  0  0
    0.3563    2.2805    1.7982 H   0  0  0  0  0  0  0  0  0  0  0  0
   -1.6216    3.0084    2.2085 C   0  0  0  0  0  0  0  0  0  0  0  0
   -1.5774    3.8177    1.4716 H   0  0  0  0  0  0  0  0  0  0  0  0
   -2.6481    2.6265    2.2352 H   0  0  0  0  0  0  0  0  0  0  0  0
   -1.2215    3.5315    3.5940 C   0  0  0  0  0  0  0  0  0  0  0  0
   -1.2492    2.7028    4.3110 H   0  0  0  0  0  0  0  0  0  0  0  0
   -0.1938    3.9096    3.5555 H   0  0  0  0  0  0  0  0  0  0  0  0
   -2.1650    4.6395    4.0500 C   0  0  0  0  0  0  0  0  0  0  0  0
   -2.1318    5.4670    3.3265 H   0  0  0  0  0  0  0  0  0  0  0  0
   -3.1960    4.2562    4.0599 H   0  0  0  0  0  0  0  0  0  0  0  0
   -1.7489    5.0877    5.3968 N   0  3  0  0  0  0  0  0  0  0  0  0
   -0.7909    5.4424    5.3665 H   0  0  0  0  0  0  0  0  0  0  0  0
   -2.3683    5.8295    5.7301 H   0  0  0  0  0  0  0  0  0  0  0  0
   -1.7886    4.3031    6.0513 H   0  0  0  0  0  0  0  0  0  0  0  0
    0.2527    0.4294   -0.0417 C   0  0  0  0  0  0  0  0  0  0  0  0
    0.9399   -0.1885    0.7585 O   0  0  0  0  0  0  0  0  0  0  0  0
    0.7633    0.5981   -1.3179 N   0  0  0  0  0  0  0  0  0  0  0  0
    0.2093    1.1222   -1.9875 H   0  0  0  0  0  0  0  0  0  0  0  0
    1.9783   -0.0649   -1.7847 C   0  0  0  0  0  0  0  0  0  0  0  0
    1.8839   -1.1523   -1.6897 H   0  0  0  0  0  0  0  0  0  0  0  0
    2.1623    0.1745   -2.8366 H   0  0  0  0  0  0  0  0  0  0  0  0
    2.8439    0.2643   -1.1998 H   0  0  0  0  0  0  0  0  0  0  0  0
  1  2  1  0  0  0  0
  2  3  1  0  0  0  0
  2  4  1  0  0  0  0
  2  5  1  0  0  0  0
  5  6  2  0  0  0  0
  5  7  1  0  0  0  0
  7  8  1  0  0  0  0
  7  9  1  0  0  0  0
  9 10  1  0  0  0  0
  9 11  1  0  0  0  0
  9 27  1  0  0  0  0
 11 12  1  0  0  0  0
 11 13  1  0  0  0  0
 11 14  1  0  0  0  0
 14 15  1  0  0  0  0
 14 16  1  0  0  0  0
 14 17  1  0  0  0  0
 17 18  1  0  0  0  0
 17 19  1  0  0  0  0
 17 20  1  0  0  0  0
 20 21  1  0  0  0  0
 20 22  1  0  0  0  0
 20 23  1  0  0  0  0
 23 24  1  0  0  0  0
 23 25  1  0  0  0  0
 23 26  1  0  0  0  0
 27 28  2  0  0  0  0
 27 29  1  0  0  0  0
 29 30  1  0  0  0  0
 29 31  1  0  0  0  0
 31 32  1  0  0  0  0
 31 33  1  0  0  0  0
 31 34  1  0  0  0  0
M  CHG  1  23   1
M  END
$$$$

  -OEChem-01062216093D

 34 33  0     1  0  0  0  0  0999 V2000
   -3.5402   -2.5294    0.9728 H   0  0  0  0  0  0  0  0  0  0  0  0
   -3.5498   -1.5687    0.4495 C   0  0  0  0  0  0  0  0  0  0  0  0
   -4.5371   -1.1152    0.5632 H   0  0  0  0  0  0  0  0  0  0  0  0
   -3.3561   -1.7494   -0.6105 H   0  0  0  0  0  0  0  0  0  0  0  0
   -2.4861   -0.6532    1.0251 C   0  0  0  0  0  0  0  0  0  0  0  0
   -1.9466   -0.9569    2.0729 O   0  0  0  0  0  0  0  0  0  0  0  0
   -2.2948    0.6003    0.4661 N   0  0  0  0  0  0  0  0  0  0  0  0
   -2.8984    0.7541   -0.3364 H   0  0  0  0  0  0  0  0  0  0  0  0
   -0.9988    1.3206    0.4170 C   0  0  1  0  0  0  0  0  0  0  0  0
   -1.0871    2.1463   -0.2946 H   0  0  0  0  0  0  0  0  0  0  0  0
   -0.6717    1.9029    1.8107 C   0  0  0  0  0  0  0  0  0  0  0  0
   -0.6798    1.1106    2.5653 H   0  0  0  0  0  0  0  0  0  0  0  0
    0.3481    2.3027    1.7866 H   0  0  0  0  0  0  0  0  0  0  0  0
   -1.6227    3.0301    2.2304 C   0  0  0  0  0  0  0  0  0  0  0  0
   -1.5907    3.8380    1.4914 H   0  0  0  0  0  0  0  0  0  0  0  0
   -2.6483    2.6466    2.2731 H   0  0  0  0  0  0  0  0  0  0  0  0
   -1.2058    3.5561    3.6090 C   0  0  0  0  0  0  0  0  0  0  0  0
   -1.2249    2.7286    4.3277 H   0  0  0  0  0  0  0  0  0  0  0  0
   -0.1791    3.9354    3.5575 H   0  0  0  0  0  0  0  0  0  0  0  0
   -2.1453    4.6638    4.0733 C   0  0  0  0  0  0  0  0  0  0  0  0
   -2.1225    5.4897    3.3477 H   0  0  0  0  0  0  0  0  0  0  0  0
   -3.1755    4.2789    4.0967 H   0  0  0  0  0  0  0  0  0  0  0  0
   -1.7119    5.1142    5.4138 N   0  3  0  0  0  0  0  0  0  0  0  0
   -0.7554    5.4708    5.3707 H   0  0  0  0  0  0  0  0  0  0  0  0
   -2.3286    5.8544    5.7550 H   0  0  0  0  0  0  0  0  0  0  0  0
   -1.7416    4.3298    6.0692 H   0  0  0  0  0  0  0  0  0  0  0  0
    0.2167    0.4576   -0.0250 C   0  0  0  0  0  0  0  0  0  0  0  0
    0.6585   -0.4532    0.6567 O   0  0  0  0  0  0  0  0  0  0  0  0
    0.9272    0.8170   -1.1579 N   0  0  0  0  0  0  0  0  0  0  0  0
    0.5652    1.5713   -1.7325 H   0  0  0  0  0  0  0  0  0  0  0  0
    2.1125    0.0972   -1.6165 C   0  0  0  0  0  0  0  0  0  0  0  0
    1.8816   -0.9616   -1.7780 H   0  0  0  0  0  0  0  0  0  0  0  0
    2.4725    0.5182   -2.5604 H   0  0  0  0  0  0  0  0  0  0  0  0
    2.9166    0.1713   -0.8765 H   0  0  0  0  0  0  0  0  0  0  0  0
  1  2  1  0  0  0  0
  2  3  1  0  0  0  0
  2  4  1  0  0  0  0
  2  5  1  0  0  0  0
  5  6  2  0  0  0  0
  5  7  1  0  0  0  0
  7  8  1  0  0  0  0
  7  9  1  0  0  0  0
  9 10  1  0  0  0  0
  9 11  1  0  0  0  0
  9 27  1  0  0  0  0
 11 12  1  0  0  0  0
 11 13  1  0  0  0  0
 11 14  1  0  0  0  0
 14 15  1  0  0  0  0
 14 16  1  0  0  0  0
 14 17  1  0  0  0  0
 17 18  1  0  0  0  0
 17 19  1  0  0  0  0
 17 20  1  0  0  0  0
 20 21  1  0  0  0  0
 20 22  1  0  0  0  0
 20 23  1  0  0  0  0
 23 24  1  0  0  0  0
 23 25  1  0  0  0  0
 23 26  1  0  0  0  0
 27 28  2  0  0  0  0
 27 29  1  0  0  0  0
 29 30  1  0  0  0  0
 29 31  1  0  0  0  0
 31 32  1  0  0  0  0
 31 33  1  0  0  0  0
 31 34  1  0  0  0  0
M  CHG  1  23   1
M  END
$$$$

  -OEChem-01062216093D

 34 33  0     1  0  0  0  0  0999 V2000
   -3.4572   -2.5553    0.9646 H   0  0  0  0  0  0  0  0  0  0  0  0
   -3.4444   -1.6180    0.4006 C   0  0  0  0  0  0  0  0  0  0  0  0
   -4.4569   -1.2085    0.3727 H   0  0  0  0  0  0  0  0  0  0  0  0
   -3.1128   -1.8310   -0.6186 H   0  0  0  0  0  0  0  0  0  0  0  0
   -2.4970   -0.6319    1.0566 C   0  0  0  0  0  0  0  0  0  0  0  0
   -2.0689   -0.8651    2.1742 O   0  0  0  0  0  0  0  0  0  0  0  0
   -2.3093    0.6206    0.4928 N   0  0  0  0  0  0  0  0  0  0  0  0
   -2.8638    0.7271   -0.3517 H   0  0  0  0  0  0  0  0  0  0  0  0
   -1.0029    1.3249    0.4473 C   0  0  1  0  0  0  0  0  0  0  0  0
   -1.0863    2.1494   -0.2663 H   0  0  0  0  0  0  0  0  0  0  0  0
   -0.6666    1.9006    1.8407 C   0  0  0  0  0  0  0  0  0  0  0  0
   -0.6802    1.1103    2.5965 H   0  0  0  0  0  0  0  0  0  0  0  0
    0.3563    2.2925    1.8165 H   0  0  0  0  0  0  0  0  0  0  0  0
   -1.6090    3.0384    2.2524 C   0  0  0  0  0  0  0  0  0  0  0  0
   -1.5678    3.8420    1.5092 H   0  0  0  0  0  0  0  0  0  0  0  0
   -2.6377    2.6625    2.2912 H   0  0  0  0  0  0  0  0  0  0  0  0
   -1.2003    3.5718    3.6306 C   0  0  0  0  0  0  0  0  0  0  0  0
   -1.2320    2.7502    4.3557 H   0  0  0  0  0  0  0  0  0  0  0  0
   -0.1712    3.9449    3.5858 H   0  0  0  0  0  0  0  0  0  0  0  0
   -2.1394    4.6886    4.0748 C   0  0  0  0  0  0  0  0  0  0  0  0
   -2.1065    5.5073    3.3414 H   0  0  0  0  0  0  0  0  0  0  0  0
   -3.1711    4.3070    4.0913 H   0  0  0  0  0  0  0  0  0  0  0  0
   -1.7211    5.1518    5.4155 N   0  3  0  0  0  0  0  0  0  0  0  0
   -0.7661    5.5127    5.3792 H   0  0  0  0  0  0  0  0  0  0  0  0
   -2.3450    5.8919    5.7442 H   0  0  0  0  0  0  0  0  0  0  0  0
   -1.7542    4.3724    6.0767 H   0  0  0  0  0  0  0  0  0  0  0  0
    0.2141    0.4611    0.0078 C   0  0  0  0  0  0  0  0  0  0  0  0
    0.3820   -0.6885    0.3816 O   0  0  0  0  0  0  0  0  0  0  0  0
    1.1134    0.9772   -0.9100 N   0  0  0  0  0  0  0  0  0  0  0  0
    0.9571    1.9169   -1.2601 H   0  0  0  0  0  0  0  0  0  0  0  0
    2.2451    0.2159   -1.4325 C   0  0  0  0  0  0  0  0  0  0  0  0
    1.8967   -0.6858   -1.9479 H   0  0  0  0  0  0  0  0  0  0  0  0
    2.8149    0.8211   -2.1444 H   0  0  0  0  0  0  0  0  0  0  0  0
    2.9154   -0.0826   -0.6192 H   0  0  0  0  0  0  0  0  0  0  0  0
  1  2  1  0  0  0  0
  2  3  1  0  0  0  0
  2  4  1  0  0  0  0
  2  5  1  0  0  0  0
  5  6  2  0  0  0  0
  5  7  1  0  0  0  0
  7  8  1  0  0  0  0
  7  9  1  0  0  0  0
  9 10  1  0  0  0  0
  9 11  1  0  0  0  0
  9 27  1  0  0  0  0
 11 12  1  0  0  0  0
 11 13  1  0  0  0  0
 11 14  1  0  0  0  0
 14 15  1  0  0  0  0
 14 16  1  0  0  0  0
 14 17  1  0  0  0  0
 17 18  1  0  0  0  0
 17 19  1  0  0  0  0
 17 20  1  0  0  0  0
 20 21  1  0  0  0  0
 20 22  1  0  0  0  0
 20 23  1  0  0  0  0
 23 24  1  0  0  0  0
 23 25  1  0  0  0  0
 23 26  1  0  0  0  0
 27 28  2  0  0  0  0
 27 29  1  0  0  0  0
 29 30  1  0  0  0  0
 29 31  1  0  0  0  0
 31 32  1  0  0  0  0
 31 33  1  0  0  0  0
 31 34  1  0  0  0  0
M  CHG  1  23   1
M  END
$$$$

  -OEChem-01062216093D

 34 33  0     1  0  0  0  0  0999 V2000
   -3.5079   -2.5355    1.0089 H   0  0  0  0  0  0  0  0  0  0  0  0
   -3.4637   -1.6101    0.4276 C   0  0  0  0  0  0  0  0  0  0  0  0
   -4.4609   -1.1659    0.3941 H   0  0  0  0  0  0  0  0  0  0  0  0
   -3.1412   -1.8533   -0.5879 H   0  0  0  0  0  0  0  0  0  0  0  0
   -2.4811   -0.6458    1.0634 C   0  0  0  0  0  0  0  0  0  0  0  0
   -1.9976   -0.9089    2.1524 O   0  0  0  0  0  0  0  0  0  0  0  0
   -2.2885    0.6105    0.5093 N   0  0  0  0  0  0  0  0  0  0  0  0
   -2.8361    0.7236   -0.3390 H   0  0  0  0  0  0  0  0  0  0  0  0
   -0.9747    1.3017    0.4765 C   0  0  1  0  0  0  0  0  0  0  0  0
   -1.0471    2.1246   -0.2404 H   0  0  0  0  0  0  0  0  0  0  0  0
   -0.6529    1.8811    1.8730 C   0  0  0  0  0  0  0  0  0  0  0  0
   -0.6855    1.0964    2.6338 H   0  0  0  0  0  0  0  0  0  0  0  0
    0.3727    2.2653    1.8646 H   0  0  0  0  0  0  0  0  0  0  0  0
   -1.5938    3.0292    2.2605 C   0  0  0  0  0  0  0  0  0  0  0  0
   -1.5347    3.8267    1.5121 H   0  0  0  0  0  0  0  0  0  0  0  0
   -2.6258    2.6612    2.2838 H   0  0  0  0  0  0  0  0  0  0  0  0
   -1.2075    3.5723    3.6415 C   0  0  0  0  0  0  0  0  0  0  0  0
   -1.2583    2.7577    4.3733 H   0  0  0  0  0  0  0  0  0  0  0  0
   -0.1752    3.9386    3.6133 H   0  0  0  0  0  0  0  0  0  0  0  0
   -2.1485    4.6994    4.0574 C   0  0  0  0  0  0  0  0  0  0  0  0
   -2.0964    5.5108    3.3168 H   0  0  0  0  0  0  0  0  0  0  0  0
   -3.1828    4.3246    4.0570 H   0  0  0  0  0  0  0  0  0  0  0  0
   -1.7542    5.1736    5.4016 N   0  3  0  0  0  0  0  0  0  0  0  0
   -0.7960    5.5271    5.3814 H   0  0  0  0  0  0  0  0  0  0  0  0
   -2.3789    5.9216    5.7096 H   0  0  0  0  0  0  0  0  0  0  0  0
   -1.8075    4.4019    6.0703 H   0  0  0  0  0  0  0  0  0  0  0  0
    0.2431    0.4368    0.0356 C   0  0  0  0  0  0  0  0  0  0  0  0
    0.2150   -0.7844    0.0178 O   0  0  0  0  0  0  0  0  0  0  0  0
    1.3037    1.0528   -0.6085 N   0  0  0  0  0  0  0  0  0  0  0  0
    1.2991    2.0650   -0.6798 H   0  0  0  0  0  0  0  0  0  0  0  0
    2.4154    0.3149   -1.2037 C   0  0  0  0  0  0  0  0  0  0  0  0
    2.0589   -0.3263   -2.0171 H   0  0  0  0  0  0  0  0  0  0  0  0
    3.1580    1.0083   -1.6103 H   0  0  0  0  0  0  0  0  0  0  0  0
    2.9063   -0.3133   -0.4523 H   0  0  0  0  0  0  0  0  0  0  0  0
  1  2  1  0  0  0  0
  2  3  1  0  0  0  0
  2  4  1  0  0  0  0
  2  5  1  0  0  0  0
  5  6  2  0  0  0  0
  5  7  1  0  0  0  0
  7  8  1  0  0  0  0
  7  9  1  0  0  0  0
  9 10  1  0  0  0  0
  9 11  1  0  0  0  0
  9 27  1  0  0  0  0
 11 12  1  0  0  0  0
 11 13  1  0  0  0  0
 11 14  1  0  0  0  0
 14 15  1  0  0  0  0
 14 16  1  0  0  0  0
 14 17  1  0  0  0  0
 17 18  1  0  0  0  0
 17 19  1  0  0  0  0
 17 20  1  0  0  0  0
 20 21  1  0  0  0  0
 20 22  1  0  0  0  0
 20 23  1  0  0  0  0
 23 24  1  0  0  0  0
 23 25  1  0  0  0  0
 23 26  1  0  0  0  0
 27 28  2  0  0  0  0
 27 29  1  0  0  0  0
 29 30  1  0  0  0  0
 29 31  1  0  0  0  0
 31 32  1  0  0  0  0
 31 33  1  0  0  0  0
 31 34  1  0  0  0  0
M  CHG  1  23   1
M  END
$$$$

  -OEChem-01062216093D

 34 33  0     1  0  0  0  0  0999 V2000
   -3.4857   -2.5424    0.9904 H   0  0  0  0  0  0  0  0  0  0  0  0
   -3.4741   -1.5942    0.4455 C   0  0  0  0  0  0  0  0  0  0  0  0
   -4.4709   -1.1500    0.4881 H   0  0  0  0  0  0  0  0  0  0  0  0
   -3.2127   -1.7954   -0.5963 H   0  0  0  0  0  0  0  0  0  0  0  0
   -2.4529   -0.6551    1.0583 C   0  0  0  0  0  0  0  0  0  0  0  0
   -1.8887   -0.9666    2.0949 O   0  0  0  0  0  0  0  0  0  0  0  0
   -2.2676    0.6098    0.5211 N   0  0  0  0  0  0  0  0  0  0  0  0
   -2.8205    0.7380   -0.3218 H   0  0  0  0  0  0  0  0  0  0  0  0
   -0.9510    1.2951    0.4999 C   0  0  1  0  0  0  0  0  0  0  0  0
   -1.0117    2.1190   -0.2172 H   0  0  0  0  0  0  0  0  0  0  0  0
   -0.6436    1.8762    1.9005 C   0  0  0  0  0  0  0  0  0  0  0  0
   -0.6934    1.0933    2.6623 H   0  0  0  0  0  0  0  0  0  0  0  0
    0.3831    2.2566    1.9089 H   0  0  0  0  0  0  0  0  0  0  0  0
   -1.5865    3.0295    2.2717 C   0  0  0  0  0  0  0  0  0  0  0  0
   -1.5143    3.8237    1.5208 H   0  0  0  0  0  0  0  0  0  0  0  0
   -2.6203    2.6656    2.2807 H   0  0  0  0  0  0  0  0  0  0  0  0
   -1.2198    3.5784    3.6562 C   0  0  0  0  0  0  0  0  0  0  0  0
   -1.2833    2.7680    4.3915 H   0  0  0  0  0  0  0  0  0  0  0  0
   -0.1865    3.9423    3.6420 H   0  0  0  0  0  0  0  0  0  0  0  0
   -2.1650    4.7097    4.0512 C   0  0  0  0  0  0  0  0  0  0  0  0
   -2.0989    5.5166    3.3067 H   0  0  0  0  0  0  0  0  0  0  0  0
   -3.2000    4.3372    4.0359 H   0  0  0  0  0  0  0  0  0  0  0  0
   -1.7931    5.1924    5.3991 N   0  3  0  0  0  0  0  0  0  0  0  0
   -0.8329    5.5420    5.3942 H   0  0  0  0  0  0  0  0  0  0  0  0
   -2.4201    5.9459    5.6897 H   0  0  0  0  0  0  0  0  0  0  0  0
   -1.8623    4.4264    6.0730 H   0  0  0  0  0  0  0  0  0  0  0  0
    0.2511    0.4152    0.0440 C   0  0  0  0  0  0  0  0  0  0  0  0
    0.0986   -0.7443   -0.3146 O   0  0  0  0  0  0  0  0  0  0  0  0
    1.4458    1.0249   -0.3045 N   0  0  0  0  0  0  0  0  0  0  0  0
    1.5511    2.0157   -0.1139 H   0  0  0  0  0  0  0  0  0  0  0  0
    2.5559    0.3104   -0.9308 C   0  0  0  0  0  0  0  0  0  0  0  0
    2.2625   -0.0655   -1.9170 H   0  0  0  0  0  0  0  0  0  0  0  0
    3.4163    0.9750   -1.0567 H   0  0  0  0  0  0  0  0  0  0  0  0
    2.8646   -0.5381   -0.3104 H   0  0  0  0  0  0  0  0  0  0  0  0
  1  2  1  0  0  0  0
  2  3  1  0  0  0  0
  2  4  1  0  0  0  0
  2  5  1  0  0  0  0
  5  6  2  0  0  0  0
  5  7  1  0  0  0  0
  7  8  1  0  0  0  0
  7  9  1  0  0  0  0
  9 10  1  0  0  0  0
  9 11  1  0  0  0  0
  9 27  1  0  0  0  0
 11 12  1  0  0  0  0
 11 13  1  0  0  0  0
 11 14  1  0  0  0  0
 14 15  1  0  0  0  0
 14 16  1  0  0  0  0
 14 17  1  0  0  0  0
 17 18  1  0  0  0  0
 17 19  1  0  0  0  0
 17 20  1  0  0  0  0
 20 21  1  0  0  0  0
 20 22  1  0  0  0  0
 20 23  1  0  0  0  0
 23 24  1  0  0  0  0
 23 25  1  0  0  0  0
 23 26  1  0  0  0  0
 27 28  2  0  0  0  0
 27 29  1  0  0  0  0
 29 30  1  0  0  0  0
 29 31  1  0  0  0  0
 31 32  1  0  0  0  0
 31 33  1  0  0  0  0
 31 34  1  0  0  0  0
M  CHG  1  23   1
M  END
$$$$

  -OEChem-01062216093D

 34 33  0     1  0  0  0  0  0999 V2000
   -3.5172   -2.5367    0.8005 H   0  0  0  0  0  0  0  0  0  0  0  0
   -3.5285   -1.5292    0.3749 C   0  0  0  0  0  0  0  0  0  0  0  0
   -4.4910   -1.0627    0.5961 H   0  0  0  0  0  0  0  0  0  0  0  0
   -3.4072   -1.6081   -0.7086 H   0  0  0  0  0  0  0  0  0  0  0  0
   -2.3999   -0.7027    0.9604 C   0  0  0  0  0  0  0  0  0  0  0  0
   -1.7138   -1.1758    1.8514 O   0  0  0  0  0  0  0  0  0  0  0  0
   -2.2113    0.5966    0.5145 N   0  0  0  0  0  0  0  0  0  0  0  0
   -2.7908    0.8054   -0.2948 H   0  0  0  0  0  0  0  0  0  0  0  0
   -0.9090    1.3063    0.5411 C   0  0  1  0  0  0  0  0  0  0  0  0
   -1.0483    2.2794    0.0608 H   0  0  0  0  0  0  0  0  0  0  0  0
   -0.4069    1.5582    1.9858 C   0  0  0  0  0  0  0  0  0  0  0  0
   -0.3288    0.6298    2.5551 H   0  0  0  0  0  0  0  0  0  0  0  0
    0.6030    1.9760    1.9400 H   0  0  0  0  0  0  0  0  0  0  0  0
   -1.2992    2.5659    2.7231 C   0  0  0  0  0  0  0  0  0  0  0  0
   -1.3319    3.5086    2.1658 H   0  0  0  0  0  0  0  0  0  0  0  0
   -2.3202    2.1711    2.7790 H   0  0  0  0  0  0  0  0  0  0  0  0
   -0.7637    2.8102    4.1387 C   0  0  0  0  0  0  0  0  0  0  0  0
   -0.7267    1.8564    4.6778 H   0  0  0  0  0  0  0  0  0  0  0  0
    0.2556    3.2069    4.0792 H   0  0  0  0  0  0  0  0  0  0  0  0
   -1.6628    3.7925    4.8850 C   0  0  0  0  0  0  0  0  0  0  0  0
   -1.6992    4.7440    4.3345 H   0  0  0  0  0  0  0  0  0  0  0  0
   -2.6879    3.3938    4.9120 H   0  0  0  0  0  0  0  0  0  0  0  0
   -1.1314    3.9851    6.2519 N   0  3  0  0  0  0  0  0  0  0  0  0
   -0.1803    4.3557    6.2096 H   0  0  0  0  0  0  0  0  0  0  0  0
   -1.7207    4.6402    6.7705 H   0  0  0  0  0  0  0  0  0  0  0  0
   -1.1159    3.0908    6.7474 H   0  0  0  0  0  0  0  0  0  0  0  0
    0.1648    0.5678   -0.3084 C   0  0  0  0  0  0  0  0  0  0  0  0
   -0.1653   -0.3289   -1.0742 O   0  0  0  0  0  0  0  0  0  0  0  0
    1.4542    1.0618   -0.4173 N   0  0  0  0  0  0  0  0  0  0  0  0
    1.7234    1.8340    0.1824 H   0  0  0  0  0  0  0  0  0  0  0  0
    2.4622    0.4672   -1.2915 C   0  0  0  0  0  0  0  0  0  0  0  0
    2.1434    0.5213   -2.3381 H   0  0  0  0  0  0  0  0  0  0  0  0
    3.4137    0.9986   -1.1935 H   0  0  0  0  0  0  0  0  0  0  0  0
    2.6260   -0.5838   -1.0293 H   0  0  0  0  0  0  0  0  0  0  0  0
  1  2  1  0  0  0  0
  2  3  1  0  0  0  0
  2  4  1  0  0  0  0
  2  5  1  0  0  0  0
  5  6  2  0  0  0  0
  5  7  1  0  0  0  0
  7  8  1  0  0  0  0
  7  9  1  0  0  0  0
  9 10  1  0  0  0  0
  9 11  1  0  0  0  0
  9 27  1  0  0  0  0
 11 12  1  0  0  0  0
 11 13  1  0  0  0  0
 11 14  1  0  0  0  0
 14 15  1  0  0  0  0
 14 16  1  0  0  0  0
 14 17  1  0  0  0  0
 17 18  1  0  0  0  0
 17 19  1  0  0  0  0
 17 20  1  0  0  0  0
 20 21  1  0  0  0  0
 20 22  1  0  0  0  0
 20 23  1  0  0  0  0
 23 24  1  0  0  0  0
 23 25  1  0  0  0  0
 23 26  1  0  0  0  0
 27 28  2  0  0  0  0
 27 29  1  0  0  0  0
 29 30  1  0  0  0  0
 29 31  1  0  0  0  0
 31 32  1  0  0  0  0
 31 33  1  0  0  0  0
 31 34  1  0  0  0  0
M  CHG  1  23   1
M  END
$$$$

  -OEChem-01062216093D

 34 33  0     1  0  0  0  0  0999 V2000
   -3.4873   -2.5331    0.7930 H   0  0  0  0  0  0  0  0  0  0  0  0
   -3.5145   -1.5152    0.3937 C   0  0  0  0  0  0  0  0  0  0  0  0
   -4.4634   -1.0518    0.6731 H   0  0  0  0  0  0  0  0  0  0  0  0
   -3.4458   -1.5665   -0.6960 H   0  0  0  0  0  0  0  0  0  0  0  0
   -2.3557   -0.7071    0.9451 C   0  0  0  0  0  0  0  0  0  0  0  0
   -1.6141   -1.2117    1.7721 O   0  0  0  0  0  0  0  0  0  0  0  0
   -2.1817    0.6020    0.5251 N   0  0  0  0  0  0  0  0  0  0  0  0
   -2.7749    0.8323   -0.2687 H   0  0  0  0  0  0  0  0  0  0  0  0
   -0.8827    1.3144    0.5599 C   0  0  1  0  0  0  0  0  0  0  0  0
   -1.0220    2.2912    0.0871 H   0  0  0  0  0  0  0  0  0  0  0  0
   -0.3924    1.5650    2.0099 C   0  0  0  0  0  0  0  0  0  0  0  0
   -0.3217    0.6352    2.5783 H   0  0  0  0  0  0  0  0  0  0  0  0
    0.6157    1.9879    1.9765 H   0  0  0  0  0  0  0  0  0  0  0  0
   -1.2963    2.5702    2.7376 C   0  0  0  0  0  0  0  0  0  0  0  0
   -1.3250    3.5123    2.1788 H   0  0  0  0  0  0  0  0  0  0  0  0
   -2.3168    2.1724    2.7810 H   0  0  0  0  0  0  0  0  0  0  0  0
   -0.7802    2.8201    4.1597 C   0  0  0  0  0  0  0  0  0  0  0  0
   -0.7467    1.8681    4.7018 H   0  0  0  0  0  0  0  0  0  0  0  0
    0.2381    3.2211    4.1135 H   0  0  0  0  0  0  0  0  0  0  0  0
   -1.6943    3.8002    4.8907 C   0  0  0  0  0  0  0  0  0  0  0  0
   -1.7268    4.7498    4.3366 H   0  0  0  0  0  0  0  0  0  0  0  0
   -2.7179    3.3972    4.9042 H   0  0  0  0  0  0  0  0  0  0  0  0
   -1.1832    3.9999    6.2645 N   0  3  0  0  0  0  0  0  0  0  0  0
   -0.2363    4.3823    6.2341 H   0  0  0  0  0  0  0  0  0  0  0  0
   -1.7871    4.6483    6.7746 H   0  0  0  0  0  0  0  0  0  0  0  0
   -1.1632    3.1065    6.7612 H   0  0  0  0  0  0  0  0  0  0  0  0
    0.1739    0.5824   -0.3158 C   0  0  0  0  0  0  0  0  0  0  0  0
   -0.2035   -0.1072   -1.2551 O   0  0  0  0  0  0  0  0  0  0  0  0
    1.5279    0.8562   -0.2169 N   0  0  0  0  0  0  0  0  0  0  0  0
    1.8445    1.4005    0.5775 H   0  0  0  0  0  0  0  0  0  0  0  0
    2.5286    0.2299   -1.0769 C   0  0  0  0  0  0  0  0  0  0  0  0
    2.3345    0.4665   -2.1289 H   0  0  0  0  0  0  0  0  0  0  0  0
    3.5296    0.5925   -0.8232 H   0  0  0  0  0  0  0  0  0  0  0  0
    2.5135   -0.8587   -0.9538 H   0  0  0  0  0  0  0  0  0  0  0  0
  1  2  1  0  0  0  0
  2  3  1  0  0  0  0
  2  4  1  0  0  0  0
  2  5  1  0  0  0  0
  5  6  2  0  0  0  0
  5  7  1  0  0  0  0
  7  8  1  0  0  0  0
  7  9  1  0  0  0  0
  9 10  1  0  0  0  0
  9 11  1  0  0  0  0
  9 27  1  0  0  0  0
 11 12  1  0  0  0  0
 11 13  1  0  0  0  0
 11 14  1  0  0  0  0
 14 15  1  0  0  0  0
 14 16  1  0  0  0  0
 14 17  1  0  0  0  0
 17 18  1  0  0  0  0
 17 19  1  0  0  0  0
 17 20  1  0  0  0  0
 20 21  1  0  0  0  0
 20 22  1  0  0  0  0
 20 23  1  0  0  0  0
 23 24  1  0  0  0  0
 23 25  1  0  0  0  0
 23 26  1  0  0  0  0
 27 28  2  0  0  0  0
 27 29  1  0  0  0  0
 29 30  1  0  0  0  0
 29 31  1  0  0  0  0
 31 32  1  0  0  0  0
 31 33  1  0  0  0  0
 31 34  1  0  0  0  0
M  CHG  1  23   1
M  END
$$$$

  -OEChem-01062216093D

 34 33  0     1  0  0  0  0  0999 V2000
   -3.4543   -2.5340    0.7914 H   0  0  0  0  0  0  0  0  0  0  0  0
   -3.4902   -1.5134    0.3999 C   0  0  0  0  0  0  0  0  0  0  0  0
   -4.4341   -1.0532    0.7002 H   0  0  0  0  0  0  0  0  0  0  0  0
   -3.4430   -1.5563   -0.6912 H   0  0  0  0  0  0  0  0  0  0  0  0
   -2.3215   -0.7078    0.9337 C   0  0  0  0  0  0  0  0  0  0  0  0
   -1.5473   -1.2233    1.7236 O   0  0  0  0  0  0  0  0  0  0  0  0
   -2.1611    0.6067    0.5275 N   0  0  0  0  0  0  0  0  0  0  0  0
   -2.7609    0.8466   -0.2588 H   0  0  0  0  0  0  0  0  0  0  0  0
   -0.8693    1.3288    0.5722 C   0  0  1  0  0  0  0  0  0  0  0  0
   -1.0115    2.3066    0.1016 H   0  0  0  0  0  0  0  0  0  0  0  0
   -0.3839    1.5811    2.0227 C   0  0  0  0  0  0  0  0  0  0  0  0
   -0.3088    0.6507    2.5900 H   0  0  0  0  0  0  0  0  0  0  0  0
    0.6199    2.0148    1.9900 H   0  0  0  0  0  0  0  0  0  0  0  0
   -1.2975    2.5779    2.7487 C   0  0  0  0  0  0  0  0  0  0  0  0
   -1.3314    3.5203    2.1907 H   0  0  0  0  0  0  0  0  0  0  0  0
   -2.3149    2.1723    2.7892 H   0  0  0  0  0  0  0  0  0  0  0  0
   -0.7875    2.8313    4.1720 C   0  0  0  0  0  0  0  0  0  0  0  0
   -0.7458    1.8799    4.7146 H   0  0  0  0  0  0  0  0  0  0  0  0
    0.2269    3.2424    4.1289 H   0  0  0  0  0  0  0  0  0  0  0  0
   -1.7148    3.8036    4.8970 C   0  0  0  0  0  0  0  0  0  0  0  0
   -1.7533    4.7517    4.3408 H   0  0  0  0  0  0  0  0  0  0  0  0
   -2.7347    3.3910    4.9050 H   0  0  0  0  0  0  0  0  0  0  0  0
   -1.2152    4.0118    6.2736 N   0  3  0  0  0  0  0  0  0  0  0  0
   -0.2676    4.3932    6.2492 H   0  0  0  0  0  0  0  0  0  0  0  0
   -1.8229    4.6644    6.7739 H   0  0  0  0  0  0  0  0  0  0  0  0
   -1.2004    3.1219    6.7765 H   0  0  0  0  0  0  0  0  0  0  0  0
    0.1805    0.6022   -0.3126 C   0  0  0  0  0  0  0  0  0  0  0  0
   -0.1894    0.1137   -1.3729 O   0  0  0  0  0  0  0  0  0  0  0  0
    1.5373    0.6270   -0.0372 N   0  0  0  0  0  0  0  0  0  0  0  0
    1.8192    0.9323    0.8878 H   0  0  0  0  0  0  0  0  0  0  0  0
    2.5206   -0.0597   -0.8698 C   0  0  0  0  0  0  0  0  0  0  0  0
    2.4979    0.3314   -1.8926 H   0  0  0  0  0  0  0  0  0  0  0  0
    3.5280    0.0873   -0.4690 H   0  0  0  0  0  0  0  0  0  0  0  0
    2.3141   -1.1350   -0.9007 H   0  0  0  0  0  0  0  0  0  0  0  0
  1  2  1  0  0  0  0
  2  3  1  0  0  0  0
  2  4  1  0  0  0  0
  2  5  1  0  0  0  0
  5  6  2  0  0  0  0
  5  7  1  0  0  0  0
  7  8  1  0  0  0  0
  7  9  1  0  0  0  0
  9 10  1  0  0  0  0
  9 11  1  0  0  0  0
  9 27  1  0  0  0  0
 11 12  1  0  0  0  0
 11 13  1  0  0  0  0
 11 14  1  0  0  0  0
 14 15  1  0  0  0  0
 14 16  1  0  0  0  0
 14 17  1  0  0  0  0
 17 18  1  0  0  0  0
 17 19  1  0  0  0  0
 17 20  1  0  0  0  0
 20 21  1  0  0  0  0
 20 22  1  0  0  0  0
 20 23  1  0  0  0  0
 23 24  1  0  0  0  0
 23 25  1  0  0  0  0
 23 26  1  0  0  0  0
 27 28  2  0  0  0  0
 27 29  1  0  0  0  0
 29 30  1  0  0  0  0
 29 31  1  0  0  0  0
 31 32  1  0  0  0  0
 31 33  1  0  0  0  0
 31 34  1  0  0  0  0
M  CHG  1  23   1
M  END
$$$$

  -OEChem-01062216093D

 34 33  0     1  0  0  0  0  0999 V2000
   -3.4498   -2.5338    0.7956 H   0  0  0  0  0  0  0  0  0  0  0  0
   -3.4849   -1.5111    0.4094 C   0  0  0  0  0  0  0  0  0  0  0  0
   -4.4164   -1.0430    0.7358 H   0  0  0  0  0  0  0  0  0  0  0  0
   -3.4664   -1.5497   -0.6829 H   0  0  0  0  0  0  0  0  0  0  0  0
   -2.2960   -0.7184    0.9173 C   0  0  0  0  0  0  0  0  0  0  0  0
   -1.4904   -1.2493    1.6650 O   0  0  0  0  0  0  0  0  0  0  0  0
   -2.1415    0.6006    0.5266 N   0  0  0  0  0  0  0  0  0  0  0  0
   -2.7553    0.8633   -0.2414 H   0  0  0  0  0  0  0  0  0  0  0  0
   -0.8534    1.3242    0.5855 C   0  0  1  0  0  0  0  0  0  0  0  0
   -0.9967    2.3029    0.1170 H   0  0  0  0  0  0  0  0  0  0  0  0
   -0.3777    1.5824    2.0375 C   0  0  0  0  0  0  0  0  0  0  0  0
   -0.3126    0.6525    2.6079 H   0  0  0  0  0  0  0  0  0  0  0  0
    0.6287    2.0127    2.0070 H   0  0  0  0  0  0  0  0  0  0  0  0
   -1.2967    2.5817    2.7552 C   0  0  0  0  0  0  0  0  0  0  0  0
   -1.3278    3.5221    2.1938 H   0  0  0  0  0  0  0  0  0  0  0  0
   -2.3142    2.1763    2.7905 H   0  0  0  0  0  0  0  0  0  0  0  0
   -0.7957    2.8415    4.1810 C   0  0  0  0  0  0  0  0  0  0  0  0
   -0.7574    1.8919    4.7272 H   0  0  0  0  0  0  0  0  0  0  0  0
    0.2194    3.2522    4.1422 H   0  0  0  0  0  0  0  0  0  0  0  0
   -1.7267    3.8164    4.8990 C   0  0  0  0  0  0  0  0  0  0  0  0
   -1.7617    4.7629    4.3397 H   0  0  0  0  0  0  0  0  0  0  0  0
   -2.7471    3.4052    4.9028 H   0  0  0  0  0  0  0  0  0  0  0  0
   -1.2342    4.0296    6.2775 N   0  3  0  0  0  0  0  0  0  0  0  0
   -0.2891    4.4175    6.2562 H   0  0  0  0  0  0  0  0  0  0  0  0
   -1.8481    4.6790    6.7742 H   0  0  0  0  0  0  0  0  0  0  0  0
   -1.2156    3.1407    6.7821 H   0  0  0  0  0  0  0  0  0  0  0  0
    0.1974    0.6081   -0.3026 C   0  0  0  0  0  0  0  0  0  0  0  0
   -0.1137    0.3417   -1.4560 O   0  0  0  0  0  0  0  0  0  0  0  0
    1.4945    0.3654    0.1151 N   0  0  0  0  0  0  0  0  0  0  0  0
    1.6641    0.4130    1.1144 H   0  0  0  0  0  0  0  0  0  0  0  0
    2.4553   -0.3622   -0.7090 C   0  0  0  0  0  0  0  0  0  0  0  0
    2.6083    0.1493   -1.6656 H   0  0  0  0  0  0  0  0  0  0  0  0
    3.4208   -0.4282   -0.1982 H   0  0  0  0  0  0  0  0  0  0  0  0
    2.0979   -1.3783   -0.9081 H   0  0  0  0  0  0  0  0  0  0  0  0
  1  2  1  0  0  0  0
  2  3  1  0  0  0  0
  2  4  1  0  0  0  0
  2  5  1  0  0  0  0
  5  6  2  0  0  0  0
  5  7  1  0  0  0  0
  7  8  1  0  0  0  0
  7  9  1  0  0  0  0
  9 10  1  0  0  0  0
  9 11  1  0  0  0  0
  9 27  1  0  0  0  0
 11 12  1  0  0  0  0
 11 13  1  0  0  0  0
 11 14  1  0  0  0  0
 14 15  1  0  0  0  0
 14 16  1  0  0  0  0
 14 17  1  0  0  0  0
 17 18  1  0  0  0  0
 17 19  1  0  0  0  0
 17 20  1  0  0  0  0
 20 21  1  0  0  0  0
 20 22  1  0  0  0  0
 20 23  1  0  0  0  0
 23 24  1  0  0  0  0
 23 25  1  0  0  0  0
 23 26  1  0  0  0  0
 27 28  2  0  0  0  0
 27 29  1  0  0  0  0
 29 30  1  0  0  0  0
 29 31  1  0  0  0  0
 31 32  1  0  0  0  0
 31 33  1  0  0  0  0
 31 34  1  0  0  0  0
M  CHG  1  23   1
M  END
$$$$

  -OEChem-01062216093D

 34 33  0     1  0  0  0  0  0999 V2000
   -3.4561   -2.5298    0.8130 H   0  0  0  0  0  0  0  0  0  0  0  0
   -3.4984   -1.5053    0.4325 C   0  0  0  0  0  0  0  0  0  0  0  0
   -4.4175   -1.0347    0.7893 H   0  0  0  0  0  0  0  0  0  0  0  0
   -3.5139   -1.5391   -0.6600 H   0  0  0  0  0  0  0  0  0  0  0  0
   -2.2903   -0.7218    0.9089 C   0  0  0  0  0  0  0  0  0  0  0  0
   -1.4670   -1.2598    1.6321 O   0  0  0  0  0  0  0  0  0  0  0  0
   -2.1312    0.5961    0.5164 N   0  0  0  0  0  0  0  0  0  0  0  0
   -2.7578    0.8770   -0.2350 H   0  0  0  0  0  0  0  0  0  0  0  0
   -0.8442    1.3193    0.5852 C   0  0  1  0  0  0  0  0  0  0  0  0
   -0.9843    2.2977    0.1142 H   0  0  0  0  0  0  0  0  0  0  0  0
   -0.3732    1.5797    2.0375 C   0  0  0  0  0  0  0  0  0  0  0  0
   -0.3148    0.6504    2.6098 H   0  0  0  0  0  0  0  0  0  0  0  0
    0.6364    2.0036    2.0068 H   0  0  0  0  0  0  0  0  0  0  0  0
   -1.2931    2.5800    2.7513 C   0  0  0  0  0  0  0  0  0  0  0  0
   -1.3220    3.5193    2.1881 H   0  0  0  0  0  0  0  0  0  0  0  0
   -2.3110    2.1753    2.7842 H   0  0  0  0  0  0  0  0  0  0  0  0
   -0.7957    2.8417    4.1779 C   0  0  0  0  0  0  0  0  0  0  0  0
   -0.7583    1.8938    4.7266 H   0  0  0  0  0  0  0  0  0  0  0  0
    0.2192    3.2529    4.1406 H   0  0  0  0  0  0  0  0  0  0  0  0
   -1.7285    3.8177    4.8910 C   0  0  0  0  0  0  0  0  0  0  0  0
   -1.7623    4.7631    4.3296 H   0  0  0  0  0  0  0  0  0  0  0  0
   -2.7487    3.4063    4.8939 H   0  0  0  0  0  0  0  0  0  0  0  0
   -1.2382    4.0319    6.2701 N   0  3  0  0  0  0  0  0  0  0  0  0
   -0.2896    4.4115    6.2494 H   0  0  0  0  0  0  0  0  0  0  0  0
   -1.8475    4.6889    6.7625 H   0  0  0  0  0  0  0  0  0  0  0  0
   -1.2284    3.1450    6.7784 H   0  0  0  0  0  0  0  0  0  0  0  0
    0.2145    0.6037   -0.2893 C   0  0  0  0  0  0  0  0  0  0  0  0
    0.0156    0.5445   -1.4948 O   0  0  0  0  0  0  0  0  0  0  0  0
    1.3916    0.0970    0.2318 N   0  0  0  0  0  0  0  0  0  0  0  0
    1.3991   -0.0602    1.2354 H   0  0  0  0  0  0  0  0  0  0  0  0
    2.3373   -0.6587   -0.5835 C   0  0  0  0  0  0  0  0  0  0  0  0
    2.6901   -0.0520   -1.4244 H   0  0  0  0  0  0  0  0  0  0  0  0
    3.2049   -0.9520    0.0151 H   0  0  0  0  0  0  0  0  0  0  0  0
    1.8653   -1.5648   -0.9782 H   0  0  0  0  0  0  0  0  0  0  0  0
  1  2  1  0  0  0  0
  2  3  1  0  0  0  0
  2  4  1  0  0  0  0
  2  5  1  0  0  0  0
  5  6  2  0  0  0  0
  5  7  1  0  0  0  0
  7  8  1  0  0  0  0
  7  9  1  0  0  0  0
  9 10  1  0  0  0  0
  9 11  1  0  0  0  0
  9 27  1  0  0  0  0
 11 12  1  0  0  0  0
 11 13  1  0  0  0  0
 11 14  1  0  0  0  0
 14 15  1  0  0  0  0
 14 16  1  0  0  0  0
 14 17  1  0  0  0  0
 17 18  1  0  0  0  0
 17 19  1  0  0  0  0
 17 20  1  0  0  0  0
 20 21  1  0  0  0  0
 20 22  1  0  0  0  0
 20 23  1  0  0  0  0
 23 24  1  0  0  0  0
 23 25  1  0  0  0  0
 23 26  1  0  0  0  0
 27 28  2  0  0  0  0
 27 29  1  0  0  0  0
 29 30  1  0  0  0  0
 29 31  1  0  0  0  0
 31 32  1  0  0  0  0
 31 33  1  0  0  0  0
 31 34  1  0  0  0  0
M  CHG  1  23   1
M  END
$$$$

  -OEChem-01062216093D

 34 33  0     1  0  0  0  0  0999 V2000
   -3.5037   -2.5192    0.8503 H   0  0  0  0  0  0  0  0  0  0  0  0
   -3.5417   -1.4937    0.4714 C   0  0  0  0  0  0  0  0  0  0  0  0
   -4.4373   -1.0066    0.8640 H   0  0  0  0  0  0  0  0  0  0  0  0
   -3.6008   -1.5265   -0.6194 H   0  0  0  0  0  0  0  0  0  0  0  0
   -2.3020   -0.7326    0.9003 C   0  0  0  0  0  0  0  0  0  0  0  0
   -1.4590   -1.2869    1.5886 O   0  0  0  0  0  0  0  0  0  0  0  0
   -2.1308    0.5822    0.5023 N   0  0  0  0  0  0  0  0  0  0  0  0
   -2.7765    0.8888   -0.2224 H   0  0  0  0  0  0  0  0  0  0  0  0
   -0.8416    1.2991    0.5781 C   0  0  1  0  0  0  0  0  0  0  0  0
   -0.9770    2.2770    0.1043 H   0  0  0  0  0  0  0  0  0  0  0  0
   -0.3776    1.5639    2.0307 C   0  0  0  0  0  0  0  0  0  0  0  0
   -0.3325    0.6361    2.6064 H   0  0  0  0  0  0  0  0  0  0  0  0
    0.6374    1.9748    2.0015 H   0  0  0  0  0  0  0  0  0  0  0  0
   -1.2928    2.5724    2.7385 C   0  0  0  0  0  0  0  0  0  0  0  0
   -1.3121    3.5111    2.1733 H   0  0  0  0  0  0  0  0  0  0  0  0
   -2.3140    2.1760    2.7695 H   0  0  0  0  0  0  0  0  0  0  0  0
   -0.7950    2.8327    4.1650 C   0  0  0  0  0  0  0  0  0  0  0  0
   -0.7661    1.8850    4.7144 H   0  0  0  0  0  0  0  0  0  0  0  0
    0.2234    3.2348    4.1279 H   0  0  0  0  0  0  0  0  0  0  0  0
   -1.7196    3.8171    4.8772 C   0  0  0  0  0  0  0  0  0  0  0  0
   -1.7443    4.7626    4.3154 H   0  0  0  0  0  0  0  0  0  0  0  0
   -2.7435    3.4152    4.8801 H   0  0  0  0  0  0  0  0  0  0  0  0
   -1.2267    4.0280    6.2560 N   0  3  0  0  0  0  0  0  0  0  0  0
   -0.2763    4.4029    6.2342 H   0  0  0  0  0  0  0  0  0  0  0  0
   -1.8320    4.6875    6.7500 H   0  0  0  0  0  0  0  0  0  0  0  0
   -1.2204    3.1406    6.7632 H   0  0  0  0  0  0  0  0  0  0  0  0
    0.2308    0.5854   -0.2777 C   0  0  0  0  0  0  0  0  0  0  0  0
    0.2082    0.7528   -1.4886 O   0  0  0  0  0  0  0  0  0  0  0  0
    1.2362   -0.1721    0.2943 N   0  0  0  0  0  0  0  0  0  0  0  0
    1.0296   -0.5238    1.2269 H   0  0  0  0  0  0  0  0  0  0  0  0
    2.1955   -0.9183   -0.5134 C   0  0  0  0  0  0  0  0  0  0  0  0
    2.7451   -0.2441   -1.1794 H   0  0  0  0  0  0  0  0  0  0  0  0
    2.9190   -1.4271    0.1310 H   0  0  0  0  0  0  0  0  0  0  0  0
    1.6821   -1.6706   -1.1219 H   0  0  0  0  0  0  0  0  0  0  0  0
  1  2  1  0  0  0  0
  2  3  1  0  0  0  0
  2  4  1  0  0  0  0
  2  5  1  0  0  0  0
  5  6  2  0  0  0  0
  5  7  1  0  0  0  0
  7  8  1  0  0  0  0
  7  9  1  0  0  0  0
  9 10  1  0  0  0  0
  9 11  1  0  0  0  0
  9 27  1  0  0  0  0
 11 12  1  0  0  0  0
 11 13  1  0  0  0  0
 11 14  1  0  0  0  0
 14 15  1  0  0  0  0
 14 16  1  0  0  0  0
 14 17  1  0  0  0  0
 17 18  1  0  0  0  0
 17 19  1  0  0  0  0
 17 20  1  0  0  0  0
 20 21  1  0  0  0  0
 20 22  1  0  0  0  0
 20 23  1  0  0  0  0
 23 24  1  0  0  0  0
 23 25  1  0  0  0  0
 23 26  1  0  0  0  0
 27 28  2  0  0  0  0
 27 29  1  0  0  0  0
 29 30  1  0  0  0  0
 29 31  1  0  0  0  0
 31 32  1  0  0  0  0
 31 33  1  0  0  0  0
 31 34  1  0  0  0  0
M  CHG  1  23   1
M  END
$$$$

  -OEChem-01062216093D

 34 33  0     1  0  0  0  0  0999 V2000
   -3.5711   -2.5047    0.8857 H   0  0  0  0  0  0  0  0  0  0  0  0
   -3.5959   -1.4811    0.5002 C   0  0  0  0  0  0  0  0  0  0  0  0
   -4.4713   -0.9724    0.9107 H   0  0  0  0  0  0  0  0  0  0  0  0
   -3.6818   -1.5201   -0.5887 H   0  0  0  0  0  0  0  0  0  0  0  0
   -2.3312   -0.7429    0.8956 C   0  0  0  0  0  0  0  0  0  0  0  0
   -1.4869   -1.3079    1.5744 O   0  0  0  0  0  0  0  0  0  0  0  0
   -2.1416    0.5652    0.4838 N   0  0  0  0  0  0  0  0  0  0  0  0
   -2.8054    0.8925   -0.2149 H   0  0  0  0  0  0  0  0  0  0  0  0
   -0.8517    1.2822    0.5602 C   0  0  1  0  0  0  0  0  0  0  0  0
   -0.9878    2.2577    0.0812 H   0  0  0  0  0  0  0  0  0  0  0  0
   -0.3887    1.5519    2.0109 C   0  0  0  0  0  0  0  0  0  0  0  0
   -0.3451    0.6246    2.5881 H   0  0  0  0  0  0  0  0  0  0  0  0
    0.6284    1.9585    1.9792 H   0  0  0  0  0  0  0  0  0  0  0  0
   -1.2991    2.5626    2.7205 C   0  0  0  0  0  0  0  0  0  0  0  0
   -1.3178    3.5010    2.1553 H   0  0  0  0  0  0  0  0  0  0  0  0
   -2.3210    2.1689    2.7565 H   0  0  0  0  0  0  0  0  0  0  0  0
   -0.7907    2.8189    4.1442 C   0  0  0  0  0  0  0  0  0  0  0  0
   -0.7608    1.8702    4.6920 H   0  0  0  0  0  0  0  0  0  0  0  0
    0.2291    3.2173    4.1000 H   0  0  0  0  0  0  0  0  0  0  0  0
   -1.7047    3.8051    4.8664 C   0  0  0  0  0  0  0  0  0  0  0  0
   -1.7288    4.7526    4.3081 H   0  0  0  0  0  0  0  0  0  0  0  0
   -2.7306    3.4083    4.8770 H   0  0  0  0  0  0  0  0  0  0  0  0
   -1.1976    4.0086    6.2410 N   0  3  0  0  0  0  0  0  0  0  0  0
   -0.2447    4.3770    6.2104 H   0  0  0  0  0  0  0  0  0  0  0  0
   -1.7933    4.6713    6.7423 H   0  0  0  0  0  0  0  0  0  0  0  0
   -1.1922    3.1199    6.7461 H   0  0  0  0  0  0  0  0  0  0  0  0
    0.2416    0.5714   -0.2698 C   0  0  0  0  0  0  0  0  0  0  0  0
    0.4297    0.9341   -1.4218 O   0  0  0  0  0  0  0  0  0  0  0  0
    1.0472   -0.4022    0.2897 N   0  0  0  0  0  0  0  0  0  0  0  0
    0.6493   -0.8582    1.1118 H   0  0  0  0  0  0  0  0  0  0  0  0
    2.0199   -1.1512   -0.4985 C   0  0  0  0  0  0  0  0  0  0  0  0
    2.7473   -0.4729   -0.9574 H   0  0  0  0  0  0  0  0  0  0  0  0
    2.5632   -1.8551    0.1396 H   0  0  0  0  0  0  0  0  0  0  0  0
    1.5186   -1.7162   -1.2916 H   0  0  0  0  0  0  0  0  0  0  0  0
  1  2  1  0  0  0  0
  2  3  1  0  0  0  0
  2  4  1  0  0  0  0
  2  5  1  0  0  0  0
  5  6  2  0  0  0  0
  5  7  1  0  0  0  0
  7  8  1  0  0  0  0
  7  9  1  0  0  0  0
  9 10  1  0  0  0  0
  9 11  1  0  0  0  0
  9 27  1  0  0  0  0
 11 12  1  0  0  0  0
 11 13  1  0  0  0  0
 11 14  1  0  0  0  0
 14 15  1  0  0  0  0
 14 16  1  0  0  0  0
 14 17  1  0  0  0  0
 17 18  1  0  0  0  0
 17 19  1  0  0  0  0
 17 20  1  0  0  0  0
 20 21  1  0  0  0  0
 20 22  1  0  0  0  0
 20 23  1  0  0  0  0
 23 24  1  0  0  0  0
 23 25  1  0  0  0  0
 23 26  1  0  0  0  0
 27 28  2  0  0  0  0
 27 29  1  0  0  0  0
 29 30  1  0  0  0  0
 29 31  1  0  0  0  0
 31 32  1  0  0  0  0
 31 33  1  0  0  0  0
 31 34  1  0  0  0  0
M  CHG  1  23   1
M  END
$$$$

  -OEChem-01062216093D

 34 33  0     1  0  0  0  0  0999 V2000
   -3.6746   -2.4779    0.9156 H   0  0  0  0  0  0  0  0  0  0  0  0
   -3.6738   -1.4564    0.5241 C   0  0  0  0  0  0  0  0  0  0  0  0
   -4.5333   -0.9214    0.9351 H   0  0  0  0  0  0  0  0  0  0  0  0
   -3.7668   -1.5000   -0.5639 H   0  0  0  0  0  0  0  0  0  0  0  0
   -2.3873   -0.7503    0.9074 C   0  0  0  0  0  0  0  0  0  0  0  0
   -1.5600   -1.3306    1.5932 O   0  0  0  0  0  0  0  0  0  0  0  0
   -2.1647    0.5465    0.4778 N   0  0  0  0  0  0  0  0  0  0  0  0
   -2.8411    0.8909   -0.2003 H   0  0  0  0  0  0  0  0  0  0  0  0
   -0.8705    1.2615    0.5410 C   0  0  1  0  0  0  0  0  0  0  0  0
   -1.0092    2.2349    0.0579 H   0  0  0  0  0  0  0  0  0  0  0  0
   -0.3993    1.5311    1.9874 C   0  0  0  0  0  0  0  0  0  0  0  0
   -0.3525    0.6022    2.5622 H   0  0  0  0  0  0  0  0  0  0  0  0
    0.6187    1.9352    1.9490 H   0  0  0  0  0  0  0  0  0  0  0  0
   -1.3016    2.5441    2.7037 C   0  0  0  0  0  0  0  0  0  0  0  0
   -1.3225    3.4826    2.1386 H   0  0  0  0  0  0  0  0  0  0  0  0
   -2.3241    2.1527    2.7477 H   0  0  0  0  0  0  0  0  0  0  0  0
   -0.7822    2.7986    4.1238 C   0  0  0  0  0  0  0  0  0  0  0  0
   -0.7500    1.8496    4.6710 H   0  0  0  0  0  0  0  0  0  0  0  0
    0.2381    3.1949    4.0718 H   0  0  0  0  0  0  0  0  0  0  0  0
   -1.6880    3.7870    4.8532 C   0  0  0  0  0  0  0  0  0  0  0  0
   -1.7150    4.7343    4.2948 H   0  0  0  0  0  0  0  0  0  0  0  0
   -2.7145    3.3922    4.8718 H   0  0  0  0  0  0  0  0  0  0  0  0
   -1.1697    3.9882    6.2239 N   0  3  0  0  0  0  0  0  0  0  0  0
   -0.2149    4.3510    6.1859 H   0  0  0  0  0  0  0  0  0  0  0  0
   -1.7577    4.6545    6.7294 H   0  0  0  0  0  0  0  0  0  0  0  0
   -1.1656    3.0997    6.7290 H   0  0  0  0  0  0  0  0  0  0  0  0
    0.2436    0.5553   -0.2657 C   0  0  0  0  0  0  0  0  0  0  0  0
    0.6321    1.0687   -1.3043 O   0  0  0  0  0  0  0  0  0  0  0  0
    0.8500   -0.5945    0.2019 N   0  0  0  0  0  0  0  0  0  0  0  0
    0.3390   -1.0881    0.9379 H   0  0  0  0  0  0  0  0  0  0  0  0
    1.8429   -1.3340   -0.5687 C   0  0  0  0  0  0  0  0  0  0  0  0
    2.7005   -0.6949   -0.8049 H   0  0  0  0  0  0  0  0  0  0  0  0
    2.2033   -2.1933    0.0051 H   0  0  0  0  0  0  0  0  0  0  0  0
    1.4083   -1.6990   -1.5053 H   0  0  0  0  0  0  0  0  0  0  0  0
  1  2  1  0  0  0  0
  2  3  1  0  0  0  0
  2  4  1  0  0  0  0
  2  5  1  0  0  0  0
  5  6  2  0  0  0  0
  5  7  1  0  0  0  0
  7  8  1  0  0  0  0
  7  9  1  0  0  0  0
  9 10  1  0  0  0  0
  9 11  1  0  0  0  0
  9 27  1  0  0  0  0
 11 12  1  0  0  0  0
 11 13  1  0  0  0  0
 11 14  1  0  0  0  0
 14 15  1  0  0  0  0
 14 16  1  0  0  0  0
 14 17  1  0  0  0  0
 17 18  1  0  0  0  0
 17 19  1  0  0  0  0
 17 20  1  0  0  0  0
 20 21  1  0  0  0  0
 20 22  1  0  0  0  0
 20 23  1  0  0  0  0
 23 24  1  0  0  0  0
 23 25  1  0  0  0  0
 23 26  1  0  0  0  0
 27 28  2  0  0  0  0
 27 29  1  0  0  0  0
 29 30  1  0  0  0  0
 29 31  1  0  0  0  0
 31 32  1  0  0  0  0
 31 33  1  0  0  0  0
 31 34  1  0  0  0  0
M  CHG  1  23   1
M  END
$$$$

  -OEChem-01062216093D

 34 33  0     1  0  0  0  0  0999 V2000
   -3.7975   -2.4415    0.9582 H   0  0  0  0  0  0  0  0  0  0  0  0
   -3.7690   -1.4237    0.5584 C   0  0  0  0  0  0  0  0  0  0  0  0
   -4.6036   -0.8578    0.9787 H   0  0  0  0  0  0  0  0  0  0  0  0
   -3.8804   -1.4725   -0.5278 H   0  0  0  0  0  0  0  0  0  0  0  0
   -2.4546   -0.7571    0.9166 C   0  0  0  0  0  0  0  0  0  0  0  0
   -1.6395   -1.3576    1.5985 O   0  0  0  0  0  0  0  0  0  0  0  0
   -2.1993    0.5287    0.4732 N   0  0  0  0  0  0  0  0  0  0  0  0
   -2.8879    0.8942   -0.1809 H   0  0  0  0  0  0  0  0  0  0  0  0
   -0.8974    1.2346    0.5206 C   0  0  1  0  0  0  0  0  0  0  0  0
   -1.0365    2.2061    0.0339 H   0  0  0  0  0  0  0  0  0  0  0  0
   -0.4197    1.5039    1.9641 C   0  0  0  0  0  0  0  0  0  0  0  0
   -0.3775    0.5737    2.5376 H   0  0  0  0  0  0  0  0  0  0  0  0
    0.6011    1.9004    1.9218 H   0  0  0  0  0  0  0  0  0  0  0  0
   -1.3088    2.5256    2.6847 C   0  0  0  0  0  0  0  0  0  0  0  0
   -1.3237    3.4641    2.1193 H   0  0  0  0  0  0  0  0  0  0  0  0
   -2.3347    2.1437    2.7353 H   0  0  0  0  0  0  0  0  0  0  0  0
   -0.7785    2.7758    4.1017 C   0  0  0  0  0  0  0  0  0  0  0  0
   -0.7522    1.8266    4.6489 H   0  0  0  0  0  0  0  0  0  0  0  0
    0.2454    3.1622    4.0435 H   0  0  0  0  0  0  0  0  0  0  0  0
   -1.6696    3.7729    4.8373 C   0  0  0  0  0  0  0  0  0  0  0  0
   -1.6905    4.7209    4.2799 H   0  0  0  0  0  0  0  0  0  0  0  0
   -2.6999    3.3887    4.8627 H   0  0  0  0  0  0  0  0  0  0  0  0
   -1.1387    3.9677    6.2040 N   0  3  0  0  0  0  0  0  0  0  0  0
   -0.1816    4.3237    6.1591 H   0  0  0  0  0  0  0  0  0  0  0  0
   -1.7176    4.6372    6.7156 H   0  0  0  0  0  0  0  0  0  0  0  0
   -1.1366    3.0782    6.7073 H   0  0  0  0  0  0  0  0  0  0  0  0
    0.2342    0.5357   -0.2700 C   0  0  0  0  0  0  0  0  0  0  0  0
    0.8100    1.1663   -1.1444 O   0  0  0  0  0  0  0  0  0  0  0  0
    0.6520   -0.7460    0.0297 N   0  0  0  0  0  0  0  0  0  0  0  0
    0.0890   -1.2605    0.7120 H   0  0  0  0  0  0  0  0  0  0  0  0
    1.6849   -1.4538   -0.7174 C   0  0  0  0  0  0  0  0  0  0  0  0
    2.6267   -0.8954   -0.6938 H   0  0  0  0  0  0  0  0  0  0  0  0
    1.8595   -2.4411   -0.2788 H   0  0  0  0  0  0  0  0  0  0  0  0
    1.3811   -1.5865   -1.7611 H   0  0  0  0  0  0  0  0  0  0  0  0
  1  2  1  0  0  0  0
  2  3  1  0  0  0  0
  2  4  1  0  0  0  0
  2  5  1  0  0  0  0
  5  6  2  0  0  0  0
  5  7  1  0  0  0  0
  7  8  1  0  0  0  0
  7  9  1  0  0  0  0
  9 10  1  0  0  0  0
  9 11  1  0  0  0  0
  9 27  1  0  0  0  0
 11 12  1  0  0  0  0
 11 13  1  0  0  0  0
 11 14  1  0  0  0  0
 14 15  1  0  0  0  0
 14 16  1  0  0  0  0
 14 17  1  0  0  0  0
 17 18  1  0  0  0  0
 17 19  1  0  0  0  0
 17 20  1  0  0  0  0
 20 21  1  0  0  0  0
 20 22  1  0  0  0  0
 20 23  1  0  0  0  0
 23 24  1  0  0  0  0
 23 25  1  0  0  0  0
 23 26  1  0  0  0  0
 27 28  2  0  0  0  0
 27 29  1  0  0  0  0
 29 30  1  0  0  0  0
 29 31  1  0  0  0  0
 31 32  1  0  0  0  0
 31 33  1  0  0  0  0
 31 34  1  0  0  0  0
M  CHG  1  23   1
M  END
$$$$

  -OEChem-01062216093D

 34 33  0     1  0  0  0  0  0999 V2000
   -3.8929   -2.4099    1.0062 H   0  0  0  0  0  0  0  0  0  0  0  0
   -3.8519   -1.3963    0.5967 C   0  0  0  0  0  0  0  0  0  0  0  0
   -4.6644   -0.8085    1.0304 H   0  0  0  0  0  0  0  0  0  0  0  0
   -3.9889   -1.4522   -0.4862 H   0  0  0  0  0  0  0  0  0  0  0  0
   -2.5155   -0.7559    0.9194 C   0  0  0  0  0  0  0  0  0  0  0  0
   -1.6945   -1.3743    1.5768 O   0  0  0  0  0  0  0  0  0  0  0  0
   -2.2439    0.5228    0.4660 N   0  0  0  0  0  0  0  0  0  0  0  0
   -2.9488    0.9078   -0.1587 H   0  0  0  0  0  0  0  0  0  0  0  0
   -0.9351    1.2200    0.4927 C   0  0  1  0  0  0  0  0  0  0  0  0
   -1.0752    2.1913    0.0060 H   0  0  0  0  0  0  0  0  0  0  0  0
   -0.4444    1.4845    1.9327 C   0  0  0  0  0  0  0  0  0  0  0  0
   -0.4045    0.5520    2.5027 H   0  0  0  0  0  0  0  0  0  0  0  0
    0.5792    1.8735    1.8836 H   0  0  0  0  0  0  0  0  0  0  0  0
   -1.3191    2.5117    2.6632 C   0  0  0  0  0  0  0  0  0  0  0  0
   -1.3306    3.4514    2.0995 H   0  0  0  0  0  0  0  0  0  0  0  0
   -2.3475    2.1391    2.7221 H   0  0  0  0  0  0  0  0  0  0  0  0
   -0.7723    2.7535    4.0755 C   0  0  0  0  0  0  0  0  0  0  0  0
   -0.7476    1.8025    4.6193 H   0  0  0  0  0  0  0  0  0  0  0  0
    0.2539    3.1318    4.0068 H   0  0  0  0  0  0  0  0  0  0  0  0
   -1.6465    3.7556    4.8247 C   0  0  0  0  0  0  0  0  0  0  0  0
   -1.6651    4.7055    4.2701 H   0  0  0  0  0  0  0  0  0  0  0  0
   -2.6796    3.3796    4.8605 H   0  0  0  0  0  0  0  0  0  0  0  0
   -1.0994    3.9413    6.1866 N   0  3  0  0  0  0  0  0  0  0  0  0
   -0.1384    4.2849    6.1322 H   0  0  0  0  0  0  0  0  0  0  0  0
   -1.6644    4.6171    6.7055 H   0  0  0  0  0  0  0  0  0  0  0  0
   -1.1037    3.0509    6.6885 H   0  0  0  0  0  0  0  0  0  0  0  0
    0.2002    0.5253   -0.2990 C   0  0  0  0  0  0  0  0  0  0  0  0
    0.9383    1.2216   -0.9806 O   0  0  0  0  0  0  0  0  0  0  0  0
    0.4380   -0.8325   -0.2199 N   0  0  0  0  0  0  0  0  0  0  0  0
   -0.1444   -1.3628    0.4324 H   0  0  0  0  0  0  0  0  0  0  0  0
    1.5342   -1.5070   -0.9046 C   0  0  0  0  0  0  0  0  0  0  0  0
    2.4981   -1.1020   -0.5789 H   0  0  0  0  0  0  0  0  0  0  0  0
    1.5164   -2.5785   -0.6821 H   0  0  0  0  0  0  0  0  0  0  0  0
    1.4466   -1.3776   -1.9886 H   0  0  0  0  0  0  0  0  0  0  0  0
  1  2  1  0  0  0  0
  2  3  1  0  0  0  0
  2  4  1  0  0  0  0
  2  5  1  0  0  0  0
  5  6  2  0  0  0  0
  5  7  1  0  0  0  0
  7  8  1  0  0  0  0
  7  9  1  0  0  0  0
  9 10  1  0  0  0  0
  9 11  1  0  0  0  0
  9 27  1  0  0  0  0
 11 12  1  0  0  0  0
 11 13  1  0  0  0  0
 11 14  1  0  0  0  0
 14 15  1  0  0  0  0
 14 16  1  0  0  0  0
 14 17  1  0  0  0  0
 17 18  1  0  0  0  0
 17 19  1  0  0  0  0
 17 20  1  0  0  0  0
 20 21  1  0  0  0  0
 20 22  1  0  0  0  0
 20 23  1  0  0  0  0
 23 24  1  0  0  0  0
 23 25  1  0  0  0  0
 23 26  1  0  0  0  0
 27 28  2  0  0  0  0
 27 29  1  0  0  0  0
 29 30  1  0  0  0  0
 29 31  1  0  0  0  0
 31 32  1  0  0  0  0
 31 33  1  0  0  0  0
 31 34  1  0  0  0  0
M  CHG  1  23   1
M  END
$$$$

  -OEChem-01062216093D

 34 33  0     1  0  0  0  0  0999 V2000
   -3.9533   -2.3790    1.0608 H   0  0  0  0  0  0  0  0  0  0  0  0
   -3.9080   -1.3675    0.6471 C   0  0  0  0  0  0  0  0  0  0  0  0
   -4.6894   -0.7628    1.1131 H   0  0  0  0  0  0  0  0  0  0  0  0
   -4.0916   -1.4220   -0.4289 H   0  0  0  0  0  0  0  0  0  0  0  0
   -2.5465   -0.7540    0.9120 C   0  0  0  0  0  0  0  0  0  0  0  0
   -1.7005   -1.3965    1.5111 O   0  0  0  0  0  0  0  0  0  0  0  0
   -2.2709    0.5208    0.4513 N   0  0  0  0  0  0  0  0  0  0  0  0
   -2.9979    0.9292   -0.1315 H   0  0  0  0  0  0  0  0  0  0  0  0
   -0.9607    1.2171    0.4639 C   0  0  1  0  0  0  0  0  0  0  0  0
   -1.1033    2.1875   -0.0234 H   0  0  0  0  0  0  0  0  0  0  0  0
   -0.4643    1.4786    1.9029 C   0  0  0  0  0  0  0  0  0  0  0  0
   -0.4235    0.5429    2.4683 H   0  0  0  0  0  0  0  0  0  0  0  0
    0.5600    1.8661    1.8535 H   0  0  0  0  0  0  0  0  0  0  0  0
   -1.3315    2.5048    2.6436 C   0  0  0  0  0  0  0  0  0  0  0  0
   -1.3449    3.4472    2.0848 H   0  0  0  0  0  0  0  0  0  0  0  0
   -2.3601    2.1341    2.7091 H   0  0  0  0  0  0  0  0  0  0  0  0
   -0.7720    2.7374    4.0525 C   0  0  0  0  0  0  0  0  0  0  0  0
   -0.7447    1.7832    4.5909 H   0  0  0  0  0  0  0  0  0  0  0  0
    0.2546    3.1132    3.9769 H   0  0  0  0  0  0  0  0  0  0  0  0
   -1.6355    3.7380    4.8155 C   0  0  0  0  0  0  0  0  0  0  0  0
   -1.6560    4.6915    4.2675 H   0  0  0  0  0  0  0  0  0  0  0  0
   -2.6695    3.3658    4.8591 H   0  0  0  0  0  0  0  0  0  0  0  0
   -1.0742    3.9134    6.1728 N   0  3  0  0  0  0  0  0  0  0  0  0
   -0.1100    4.2470    6.1104 H   0  0  0  0  0  0  0  0  0  0  0  0
   -1.6269    4.5939    6.6986 H   0  0  0  0  0  0  0  0  0  0  0  0
   -1.0829    3.0217    6.6723 H   0  0  0  0  0  0  0  0  0  0  0  0
    0.1803    0.5298   -0.3281 C   0  0  0  0  0  0  0  0  0  0  0  0
    1.0484    1.2405   -0.8147 O   0  0  0  0  0  0  0  0  0  0  0  0
    0.2576   -0.8393   -0.4937 N   0  0  0  0  0  0  0  0  0  0  0  0
   -0.3578   -1.3937    0.1049 H   0  0  0  0  0  0  0  0  0  0  0  0
    1.3809   -1.5043   -1.1438 C   0  0  0  0  0  0  0  0  0  0  0  0
    2.3095   -1.3143   -0.5952 H   0  0  0  0  0  0  0  0  0  0  0  0
    1.2125   -2.5853   -1.1767 H   0  0  0  0  0  0  0  0  0  0  0  0
    1.4986   -1.1435   -2.1714 H   0  0  0  0  0  0  0  0  0  0  0  0
  1  2  1  0  0  0  0
  2  3  1  0  0  0  0
  2  4  1  0  0  0  0
  2  5  1  0  0  0  0
  5  6  2  0  0  0  0
  5  7  1  0  0  0  0
  7  8  1  0  0  0  0
  7  9  1  0  0  0  0
  9 10  1  0  0  0  0
  9 11  1  0  0  0  0
  9 27  1  0  0  0  0
 11 12  1  0  0  0  0
 11 13  1  0  0  0  0
 11 14  1  0  0  0  0
 14 15  1  0  0  0  0
 14 16  1  0  0  0  0
 14 17  1  0  0  0  0
 17 18  1  0  0  0  0
 17 19  1  0  0  0  0
 17 20  1  0  0  0  0
 20 21  1  0  0  0  0
 20 22  1  0  0  0  0
 20 23  1  0  0  0  0
 23 24  1  0  0  0  0
 23 25  1  0  0  0  0
 23 26  1  0  0  0  0
 27 28  2  0  0  0  0
 27 29  1  0  0  0  0
 29 30  1  0  0  0  0
 29 31  1  0  0  0  0
 31 32  1  0  0  0  0
 31 33  1  0  0  0  0
 31 34  1  0  0  0  0
M  CHG  1  23   1
M  END
$$$$

  -OEChem-01062216093D

 34 33  0     1  0  0  0  0  0999 V2000
   -3.9657   -2.3469    1.1246 H   0  0  0  0  0  0  0  0  0  0  0  0
   -3.9255   -1.3336    0.7136 C   0  0  0  0  0  0  0  0  0  0  0  0
   -4.6669   -0.7173    1.2273 H   0  0  0  0  0  0  0  0  0  0  0  0
   -4.1722   -1.3780   -0.3503 H   0  0  0  0  0  0  0  0  0  0  0  0
   -2.5398   -0.7469    0.9025 C   0  0  0  0  0  0  0  0  0  0  0  0
   -1.6656   -1.4164    1.4248 O   0  0  0  0  0  0  0  0  0  0  0  0
   -2.2652    0.5264    0.4386 N   0  0  0  0  0  0  0  0  0  0  0  0
   -3.0141    0.9627   -0.0938 H   0  0  0  0  0  0  0  0  0  0  0  0
   -0.9534    1.2205    0.4468 C   0  0  1  0  0  0  0  0  0  0  0  0
   -1.0919    2.1906   -0.0415 H   0  0  0  0  0  0  0  0  0  0  0  0
   -0.4660    1.4770    1.8910 C   0  0  0  0  0  0  0  0  0  0  0  0
   -0.4335    0.5382    2.4519 H   0  0  0  0  0  0  0  0  0  0  0  0
    0.5596    1.8616    1.8532 H   0  0  0  0  0  0  0  0  0  0  0  0
   -1.3351    2.5025    2.6301 C   0  0  0  0  0  0  0  0  0  0  0  0
   -1.3401    3.4473    2.0750 H   0  0  0  0  0  0  0  0  0  0  0  0
   -2.3659    2.1363    2.6879 H   0  0  0  0  0  0  0  0  0  0  0  0
   -0.7818    2.7269    4.0426 C   0  0  0  0  0  0  0  0  0  0  0  0
   -0.7603    1.7699    4.5761 H   0  0  0  0  0  0  0  0  0  0  0  0
    0.2467    3.0989    3.9733 H   0  0  0  0  0  0  0  0  0  0  0  0
   -1.6454    3.7263    4.8065 C   0  0  0  0  0  0  0  0  0  0  0  0
   -1.6602    4.6825    4.2630 H   0  0  0  0  0  0  0  0  0  0  0  0
   -2.6807    3.3570    4.8436 H   0  0  0  0  0  0  0  0  0  0  0  0
   -1.0893    3.8930    6.1671 N   0  3  0  0  0  0  0  0  0  0  0  0
   -0.1257    4.2294    6.1107 H   0  0  0  0  0  0  0  0  0  0  0  0
   -1.6456    4.5682    6.6959 H   0  0  0  0  0  0  0  0  0  0  0  0
   -1.0975    2.9976    6.6598 H   0  0  0  0  0  0  0  0  0  0  0  0
    0.1889    0.5336   -0.3450 C   0  0  0  0  0  0  0  0  0  0  0  0
    1.1596    1.2108   -0.6552 O   0  0  0  0  0  0  0  0  0  0  0  0
    0.1205   -0.7803   -0.7668 N   0  0  0  0  0  0  0  0  0  0  0  0
   -0.5458   -1.3615   -0.2567 H   0  0  0  0  0  0  0  0  0  0  0  0
    1.2228   -1.4445   -1.4534 C   0  0  0  0  0  0  0  0  0  0  0  0
    2.1106   -1.4780   -0.8128 H   0  0  0  0  0  0  0  0  0  0  0  0
    0.9431   -2.4697   -1.7149 H   0  0  0  0  0  0  0  0  0  0  0  0
    1.4763   -0.9125   -2.3766 H   0  0  0  0  0  0  0  0  0  0  0  0
  1  2  1  0  0  0  0
  2  3  1  0  0  0  0
  2  4  1  0  0  0  0
  2  5  1  0  0  0  0
  5  6  2  0  0  0  0
  5  7  1  0  0  0  0
  7  8  1  0  0  0  0
  7  9  1  0  0  0  0
  9 10  1  0  0  0  0
  9 11  1  0  0  0  0
  9 27  1  0  0  0  0
 11 12  1  0  0  0  0
 11 13  1  0  0  0  0
 11 14  1  0  0  0  0
 14 15  1  0  0  0  0
 14 16  1  0  0  0  0
 14 17  1  0  0  0  0
 17 18  1  0  0  0  0
 17 19  1  0  0  0  0
 17 20  1  0  0  0  0
 20 21  1  0  0  0  0
 20 22  1  0  0  0  0
 20 23  1  0  0  0  0
 23 24  1  0  0  0  0
 23 25  1  0  0  0  0
 23 26  1  0  0  0  0
 27 28  2  0  0  0  0
 27 29  1  0  0  0  0
 29 30  1  0  0  0  0
 29 31  1  0  0  0  0
 31 32  1  0  0  0  0
 31 33  1  0  0  0  0
 31 34  1  0  0  0  0
M  CHG  1  23   1
M  END
$$$$

  -OEChem-01062216093D

 34 33  0     1  0  0  0  0  0999 V2000
   -3.9372   -2.3303    1.1675 H   0  0  0  0  0  0  0  0  0  0  0  0
   -3.9091   -1.3163    0.7576 C   0  0  0  0  0  0  0  0  0  0  0  0
   -4.6260   -0.6984    1.3033 H   0  0  0  0  0  0  0  0  0  0  0  0
   -4.1988   -1.3571   -0.2954 H   0  0  0  0  0  0  0  0  0  0  0  0
   -2.5133   -0.7379    0.8908 C   0  0  0  0  0  0  0  0  0  0  0  0
   -1.6185   -1.4177    1.3603 O   0  0  0  0  0  0  0  0  0  0  0  0
   -2.2479    0.5357    0.4228 N   0  0  0  0  0  0  0  0  0  0  0  0
   -3.0158    0.9927   -0.0631 H   0  0  0  0  0  0  0  0  0  0  0  0
   -0.9380    1.2333    0.4326 C   0  0  1  0  0  0  0  0  0  0  0  0
   -1.0719    2.2026   -0.0585 H   0  0  0  0  0  0  0  0  0  0  0  0
   -0.4645    1.4880    1.8833 C   0  0  0  0  0  0  0  0  0  0  0  0
   -0.4331    0.5469    2.4405 H   0  0  0  0  0  0  0  0  0  0  0  0
    0.5598    1.8765    1.8599 H   0  0  0  0  0  0  0  0  0  0  0  0
   -1.3406    2.5086    2.6205 C   0  0  0  0  0  0  0  0  0  0  0  0
   -1.3427    3.4563    2.0702 H   0  0  0  0  0  0  0  0  0  0  0  0
   -2.3712    2.1411    2.6706 H   0  0  0  0  0  0  0  0  0  0  0  0
   -0.7936    2.7245    4.0372 C   0  0  0  0  0  0  0  0  0  0  0  0
   -0.7731    1.7640    4.5644 H   0  0  0  0  0  0  0  0  0  0  0  0
    0.2348    3.0977    3.9745 H   0  0  0  0  0  0  0  0  0  0  0  0
   -1.6593    3.7181    4.8061 C   0  0  0  0  0  0  0  0  0  0  0  0
   -1.6729    4.6787    4.2703 H   0  0  0  0  0  0  0  0  0  0  0  0
   -2.6948    3.3486    4.8382 H   0  0  0  0  0  0  0  0  0  0  0  0
   -1.1058    3.8730    6.1690 N   0  3  0  0  0  0  0  0  0  0  0  0
   -0.1443    4.2159    6.1174 H   0  0  0  0  0  0  0  0  0  0  0  0
   -1.6669    4.5385    6.7050 H   0  0  0  0  0  0  0  0  0  0  0  0
   -1.1087    2.9719    6.6513 H   0  0  0  0  0  0  0  0  0  0  0  0
    0.2019    0.5379   -0.3580 C   0  0  0  0  0  0  0  0  0  0  0  0
    1.2589    1.1383   -0.5009 O   0  0  0  0  0  0  0  0  0  0  0  0
    0.0127   -0.6567   -1.0270 N   0  0  0  0  0  0  0  0  0  0  0  0
   -0.7351   -1.2380   -0.6537 H   0  0  0  0  0  0  0  0  0  0  0  0
    1.0848   -1.3195   -1.7619 C   0  0  0  0  0  0  0  0  0  0  0  0
    1.9019   -1.5936   -1.0862 H   0  0  0  0  0  0  0  0  0  0  0  0
    0.7096   -2.2293   -2.2403 H   0  0  0  0  0  0  0  0  0  0  0  0
    1.4806   -0.6605   -2.5423 H   0  0  0  0  0  0  0  0  0  0  0  0
  1  2  1  0  0  0  0
  2  3  1  0  0  0  0
  2  4  1  0  0  0  0
  2  5  1  0  0  0  0
  5  6  2  0  0  0  0
  5  7  1  0  0  0  0
  7  8  1  0  0  0  0
  7  9  1  0  0  0  0
  9 10  1  0  0  0  0
  9 11  1  0  0  0  0
  9 27  1  0  0  0  0
 11 12  1  0  0  0  0
 11 13  1  0  0  0  0
 11 14  1  0  0  0  0
 14 15  1  0  0  0  0
 14 16  1  0  0  0  0
 14 17  1  0  0  0  0
 17 18  1  0  0  0  0
 17 19  1  0  0  0  0
 17 20  1  0  0  0  0
 20 21  1  0  0  0  0
 20 22  1  0  0  0  0
 20 23  1  0  0  0  0
 23 24  1  0  0  0  0
 23 25  1  0  0  0  0
 23 26  1  0  0  0  0
 27 28  2  0  0  0  0
 27 29  1  0  0  0  0
 29 30  1  0  0  0  0
 29 31  1  0  0  0  0
 31 32  1  0  0  0  0
 31 33  1  0  0  0  0
 31 34  1  0  0  0  0
M  CHG  1  23   1
M  END
$$$$

  -OEChem-01062216093D

 34 33  0     1  0  0  0  0  0999 V2000
   -3.8738   -2.3458    1.1642 H   0  0  0  0  0  0  0  0  0  0  0  0
   -3.8596   -1.3292    0.7600 C   0  0  0  0  0  0  0  0  0  0  0  0
   -4.5744   -0.7203    1.3183 H   0  0  0  0  0  0  0  0  0  0  0  0
   -4.1630   -1.3654   -0.2891 H   0  0  0  0  0  0  0  0  0  0  0  0
   -2.4673   -0.7396    0.8794 C   0  0  0  0  0  0  0  0  0  0  0  0
   -1.5646   -1.4087    1.3472 O   0  0  0  0  0  0  0  0  0  0  0  0
   -2.2224    0.5411    0.4185 N   0  0  0  0  0  0  0  0  0  0  0  0
   -3.0043    1.0050   -0.0374 H   0  0  0  0  0  0  0  0  0  0  0  0
   -0.9176    1.2466    0.4321 C   0  0  1  0  0  0  0  0  0  0  0  0
   -1.0537    2.2158   -0.0576 H   0  0  0  0  0  0  0  0  0  0  0  0
   -0.4537    1.5029    1.8878 C   0  0  0  0  0  0  0  0  0  0  0  0
   -0.4189    0.5606    2.4426 H   0  0  0  0  0  0  0  0  0  0  0  0
    0.5671    1.9003    1.8743 H   0  0  0  0  0  0  0  0  0  0  0  0
   -1.3394    2.5168    2.6235 C   0  0  0  0  0  0  0  0  0  0  0  0
   -1.3457    3.4660    2.0765 H   0  0  0  0  0  0  0  0  0  0  0  0
   -2.3680    2.1430    2.6689 H   0  0  0  0  0  0  0  0  0  0  0  0
   -0.7994    2.7317    4.0430 C   0  0  0  0  0  0  0  0  0  0  0  0
   -0.7769    1.7694    4.5672 H   0  0  0  0  0  0  0  0  0  0  0  0
    0.2278    3.1093    3.9861 H   0  0  0  0  0  0  0  0  0  0  0  0
   -1.6724    3.7183    4.8130 C   0  0  0  0  0  0  0  0  0  0  0  0
   -1.6888    4.6812    4.2815 H   0  0  0  0  0  0  0  0  0  0  0  0
   -2.7063    3.3441    4.8410 H   0  0  0  0  0  0  0  0  0  0  0  0
   -1.1221    3.8698    6.1777 N   0  3  0  0  0  0  0  0  0  0  0  0
   -0.1684    4.2346    6.1298 H   0  0  0  0  0  0  0  0  0  0  0  0
   -1.6977    4.5160    6.7218 H   0  0  0  0  0  0  0  0  0  0  0  0
   -1.1045    2.9631    6.6492 H   0  0  0  0  0  0  0  0  0  0  0  0
    0.2111    0.5469   -0.3732 C   0  0  0  0  0  0  0  0  0  0  0  0
    1.3456    1.0052   -0.3333 O   0  0  0  0  0  0  0  0  0  0  0  0
   -0.0672   -0.4591   -1.2804 N   0  0  0  0  0  0  0  0  0  0  0  0
   -0.9514   -0.9389   -1.1443 H   0  0  0  0  0  0  0  0  0  0  0  0
    0.9735   -1.1414   -2.0425 C   0  0  0  0  0  0  0  0  0  0  0  0
    1.6617   -1.6641   -1.3697 H   0  0  0  0  0  0  0  0  0  0  0  0
    0.5272   -1.8747   -2.7213 H   0  0  0  0  0  0  0  0  0  0  0  0
    1.5447   -0.4239   -2.6414 H   0  0  0  0  0  0  0  0  0  0  0  0
  1  2  1  0  0  0  0
  2  3  1  0  0  0  0
  2  4  1  0  0  0  0
  2  5  1  0  0  0  0
  5  6  2  0  0  0  0
  5  7  1  0  0  0  0
  7  8  1  0  0  0  0
  7  9  1  0  0  0  0
  9 10  1  0  0  0  0
  9 11  1  0  0  0  0
  9 27  1  0  0  0  0
 11 12  1  0  0  0  0
 11 13  1  0  0  0  0
 11 14  1  0  0  0  0
 14 15  1  0  0  0  0
 14 16  1  0  0  0  0
 14 17  1  0  0  0  0
 17 18  1  0  0  0  0
 17 19  1  0  0  0  0
 17 20  1  0  0  0  0
 20 21  1  0  0  0  0
 20 22  1  0  0  0  0
 20 23  1  0  0  0  0
 23 24  1  0  0  0  0
 23 25  1  0  0  0  0
 23 26  1  0  0  0  0
 27 28  2  0  0  0  0
 27 29  1  0  0  0  0
 29 30  1  0  0  0  0
 29 31  1  0  0  0  0
 31 32  1  0  0  0  0
 31 33  1  0  0  0  0
 31 34  1  0  0  0  0
M  CHG  1  23   1
M  END
$$$$

  -OEChem-01062216093D

 34 33  0     1  0  0  0  0  0999 V2000
   -3.8117   -2.3649    1.1440 H   0  0  0  0  0  0  0  0  0  0  0  0
   -3.8091   -1.3473    0.7423 C   0  0  0  0  0  0  0  0  0  0  0  0
   -4.5315   -0.7480    1.3015 H   0  0  0  0  0  0  0  0  0  0  0  0
   -4.1108   -1.3855   -0.3072 H   0  0  0  0  0  0  0  0  0  0  0  0
   -2.4240   -0.7414    0.8648 C   0  0  0  0  0  0  0  0  0  0  0  0
   -1.5213   -1.3927    1.3563 O   0  0  0  0  0  0  0  0  0  0  0  0
   -2.1973    0.5447    0.4078 N   0  0  0  0  0  0  0  0  0  0  0  0
   -2.9891    1.0058   -0.0330 H   0  0  0  0  0  0  0  0  0  0  0  0
   -0.9010    1.2637    0.4300 C   0  0  1  0  0  0  0  0  0  0  0  0
   -1.0397    2.2317   -0.0608 H   0  0  0  0  0  0  0  0  0  0  0  0
   -0.4462    1.5246    1.8891 C   0  0  0  0  0  0  0  0  0  0  0  0
   -0.3986    0.5828    2.4440 H   0  0  0  0  0  0  0  0  0  0  0  0
    0.5681    1.9380    1.8795 H   0  0  0  0  0  0  0  0  0  0  0  0
   -1.3432    2.5275    2.6255 C   0  0  0  0  0  0  0  0  0  0  0  0
   -1.3589    3.4778    2.0808 H   0  0  0  0  0  0  0  0  0  0  0  0
   -2.3677    2.1426    2.6692 H   0  0  0  0  0  0  0  0  0  0  0  0
   -0.8041    2.7414    4.0464 C   0  0  0  0  0  0  0  0  0  0  0  0
   -0.7715    1.7772    4.5663 H   0  0  0  0  0  0  0  0  0  0  0  0
    0.2195    3.1291    3.9896 H   0  0  0  0  0  0  0  0  0  0  0  0
   -1.6835    3.7159    4.8234 C   0  0  0  0  0  0  0  0  0  0  0  0
   -1.7101    4.6811    4.2967 H   0  0  0  0  0  0  0  0  0  0  0  0
   -2.7136    3.3315    4.8521 H   0  0  0  0  0  0  0  0  0  0  0  0
   -1.1304    3.8636    6.1876 N   0  3  0  0  0  0  0  0  0  0  0  0
   -0.1790    4.2342    6.1394 H   0  0  0  0  0  0  0  0  0  0  0  0
   -1.7083    4.5033    6.7366 H   0  0  0  0  0  0  0  0  0  0  0  0
   -1.1060    2.9545    6.6542 H   0  0  0  0  0  0  0  0  0  0  0  0
    0.2193    0.5551   -0.3812 C   0  0  0  0  0  0  0  0  0  0  0  0
    1.3963    0.8123   -0.1639 O   0  0  0  0  0  0  0  0  0  0  0  0
   -0.0926   -0.2157   -1.4866 N   0  0  0  0  0  0  0  0  0  0  0  0
   -1.0590   -0.5120   -1.5714 H   0  0  0  0  0  0  0  0  0  0  0  0
    0.9198   -0.9147   -2.2722 C   0  0  0  0  0  0  0  0  0  0  0  0
    1.4417   -1.6525   -1.6534 H   0  0  0  0  0  0  0  0  0  0  0  0
    0.4553   -1.4350   -3.1154 H   0  0  0  0  0  0  0  0  0  0  0  0
    1.6556   -0.2076   -2.6706 H   0  0  0  0  0  0  0  0  0  0  0  0
  1  2  1  0  0  0  0
  2  3  1  0  0  0  0
  2  4  1  0  0  0  0
  2  5  1  0  0  0  0
  5  6  2  0  0  0  0
  5  7  1  0  0  0  0
  7  8  1  0  0  0  0
  7  9  1  0  0  0  0
  9 10  1  0  0  0  0
  9 11  1  0  0  0  0
  9 27  1  0  0  0  0
 11 12  1  0  0  0  0
 11 13  1  0  0  0  0
 11 14  1  0  0  0  0
 14 15  1  0  0  0  0
 14 16  1  0  0  0  0
 14 17  1  0  0  0  0
 17 18  1  0  0  0  0
 17 19  1  0  0  0  0
 17 20  1  0  0  0  0
 20 21  1  0  0  0  0
 20 22  1  0  0  0  0
 20 23  1  0  0  0  0
 23 24  1  0  0  0  0
 23 25  1  0  0  0  0
 23 26  1  0  0  0  0
 27 28  2  0  0  0  0
 27 29  1  0  0  0  0
 29 30  1  0  0  0  0
 29 31  1  0  0  0  0
 31 32  1  0  0  0  0
 31 33  1  0  0  0  0
 31 34  1  0  0  0  0
M  CHG  1  23   1
M  END
$$$$

  -OEChem-01062216093D

 34 33  0     1  0  0  0  0  0999 V2000
   -3.7707   -2.3774    1.1217 H   0  0  0  0  0  0  0  0  0  0  0  0
   -3.7739   -1.3593    0.7214 C   0  0  0  0  0  0  0  0  0  0  0  0
   -4.5081   -0.7680    1.2735 H   0  0  0  0  0  0  0  0  0  0  0  0
   -4.0637   -1.3990   -0.3314 H   0  0  0  0  0  0  0  0  0  0  0  0
   -2.3960   -0.7407    0.8595 C   0  0  0  0  0  0  0  0  0  0  0  0
   -1.4993   -1.3787    1.3783 O   0  0  0  0  0  0  0  0  0  0  0  0
   -2.1777    0.5468    0.4009 N   0  0  0  0  0  0  0  0  0  0  0  0
   -2.9708    0.9992   -0.0458 H   0  0  0  0  0  0  0  0  0  0  0  0
   -0.8875    1.2749    0.4301 C   0  0  1  0  0  0  0  0  0  0  0  0
   -1.0252    2.2419   -0.0625 H   0  0  0  0  0  0  0  0  0  0  0  0
   -0.4400    1.5395    1.8909 C   0  0  0  0  0  0  0  0  0  0  0  0
   -0.3831    0.5984    2.4458 H   0  0  0  0  0  0  0  0  0  0  0  0
    0.5705    1.9624    1.8799 H   0  0  0  0  0  0  0  0  0  0  0  0
   -1.3448    2.5352    2.6270 C   0  0  0  0  0  0  0  0  0  0  0  0
   -1.3657    3.4867    2.0845 H   0  0  0  0  0  0  0  0  0  0  0  0
   -2.3669    2.1435    2.6688 H   0  0  0  0  0  0  0  0  0  0  0  0
   -0.8070    2.7481    4.0484 C   0  0  0  0  0  0  0  0  0  0  0  0
   -0.7689    1.7821    4.5650 H   0  0  0  0  0  0  0  0  0  0  0  0
    0.2146    3.1411    3.9928 H   0  0  0  0  0  0  0  0  0  0  0  0
   -1.6910    3.7149    4.8295 C   0  0  0  0  0  0  0  0  0  0  0  0
   -1.7229    4.6820    4.3065 H   0  0  0  0  0  0  0  0  0  0  0  0
   -2.7190    3.3250    4.8576 H   0  0  0  0  0  0  0  0  0  0  0  0
   -1.1367    3.8598    6.1934 N   0  3  0  0  0  0  0  0  0  0  0  0
   -0.1864    4.2335    6.1455 H   0  0  0  0  0  0  0  0  0  0  0  0
   -1.7162    4.4954    6.7455 H   0  0  0  0  0  0  0  0  0  0  0  0
   -1.1086    2.9487    6.6562 H   0  0  0  0  0  0  0  0  0  0  0  0
    0.2265    0.5535   -0.3790 C   0  0  0  0  0  0  0  0  0  0  0  0
    1.3956    0.5910   -0.0175 O   0  0  0  0  0  0  0  0  0  0  0  0
   -0.0555    0.0454   -1.6348 N   0  0  0  0  0  0  0  0  0  0  0  0
   -1.0350   -0.0556   -1.8785 H   0  0  0  0  0  0  0  0  0  0  0  0
    0.9411   -0.6402   -2.4524 C   0  0  0  0  0  0  0  0  0  0  0  0
    1.2951   -1.5443   -1.9454 H   0  0  0  0  0  0  0  0  0  0  0  0
    0.5102   -0.9285   -3.4161 H   0  0  0  0  0  0  0  0  0  0  0  0
    1.7995    0.0131   -2.6433 H   0  0  0  0  0  0  0  0  0  0  0  0
  1  2  1  0  0  0  0
  2  3  1  0  0  0  0
  2  4  1  0  0  0  0
  2  5  1  0  0  0  0
  5  6  2  0  0  0  0
  5  7  1  0  0  0  0
  7  8  1  0  0  0  0
  7  9  1  0  0  0  0
  9 10  1  0  0  0  0
  9 11  1  0  0  0  0
  9 27  1  0  0  0  0
 11 12  1  0  0  0  0
 11 13  1  0  0  0  0
 11 14  1  0  0  0  0
 14 15  1  0  0  0  0
 14 16  1  0  0  0  0
 14 17  1  0  0  0  0
 17 18  1  0  0  0  0
 17 19  1  0  0  0  0
 17 20  1  0  0  0  0
 20 21  1  0  0  0  0
 20 22  1  0  0  0  0
 20 23  1  0  0  0  0
 23 24  1  0  0  0  0
 23 25  1  0  0  0  0
 23 26  1  0  0  0  0
 27 28  2  0  0  0  0
 27 29  1  0  0  0  0
 29 30  1  0  0  0  0
 29 31  1  0  0  0  0
 31 32  1  0  0  0  0
 31 33  1  0  0  0  0
 31 34  1  0  0  0  0
M  CHG  1  23   1
M  END
$$$$

  -OEChem-01062216093D

 34 33  0     1  0  0  0  0  0999 V2000
   -3.7473   -2.4114    1.0563 H   0  0  0  0  0  0  0  0  0  0  0  0
   -3.7503   -1.3941    0.6536 C   0  0  0  0  0  0  0  0  0  0  0  0
   -4.5294   -0.8193    1.1594 H   0  0  0  0  0  0  0  0  0  0  0  0
   -3.9758   -1.4432   -0.4144 H   0  0  0  0  0  0  0  0  0  0  0  0
   -2.3976   -0.7430    0.8708 C   0  0  0  0  0  0  0  0  0  0  0  0
   -1.5247   -1.3579    1.4533 O   0  0  0  0  0  0  0  0  0  0  0  0
   -2.1800    0.5447    0.4107 N   0  0  0  0  0  0  0  0  0  0  0  0
   -2.9547    0.9673   -0.0932 H   0  0  0  0  0  0  0  0  0  0  0  0
   -0.8918    1.2754    0.4433 C   0  0  1  0  0  0  0  0  0  0  0  0
   -1.0271    2.2427   -0.0494 H   0  0  0  0  0  0  0  0  0  0  0  0
   -0.4410    1.5466    1.9010 C   0  0  0  0  0  0  0  0  0  0  0  0
   -0.3806    0.6086    2.4607 H   0  0  0  0  0  0  0  0  0  0  0  0
    0.5700    1.9688    1.8809 H   0  0  0  0  0  0  0  0  0  0  0  0
   -1.3453    2.5430    2.6361 C   0  0  0  0  0  0  0  0  0  0  0  0
   -1.3705    3.4930    2.0914 H   0  0  0  0  0  0  0  0  0  0  0  0
   -2.3663    2.1490    2.6823 H   0  0  0  0  0  0  0  0  0  0  0  0
   -0.8016    2.7595    4.0539 C   0  0  0  0  0  0  0  0  0  0  0  0
   -0.7612    1.7939    4.5712 H   0  0  0  0  0  0  0  0  0  0  0  0
    0.2198    3.1524    3.9929 H   0  0  0  0  0  0  0  0  0  0  0  0
   -1.6816    3.7269    4.8387 C   0  0  0  0  0  0  0  0  0  0  0  0
   -1.7167    4.6943    4.3165 H   0  0  0  0  0  0  0  0  0  0  0  0
   -2.7095    3.3372    4.8738 H   0  0  0  0  0  0  0  0  0  0  0  0
   -1.1168    3.8713    6.1982 N   0  3  0  0  0  0  0  0  0  0  0  0
   -0.1634    4.2355    6.1425 H   0  0  0  0  0  0  0  0  0  0  0  0
   -1.6864    4.5137    6.7528 H   0  0  0  0  0  0  0  0  0  0  0  0
   -1.0944    2.9611    6.6633 H   0  0  0  0  0  0  0  0  0  0  0  0
    0.2157    0.5433   -0.3639 C   0  0  0  0  0  0  0  0  0  0  0  0
    1.3286    0.3478    0.1071 O   0  0  0  0  0  0  0  0  0  0  0  0
    0.0277    0.3124   -1.7153 N   0  0  0  0  0  0  0  0  0  0  0  0
   -0.9104    0.4308   -2.0824 H   0  0  0  0  0  0  0  0  0  0  0  0
    1.0312   -0.3333   -2.5562 C   0  0  0  0  0  0  0  0  0  0  0  0
    1.2536   -1.3392   -2.1841 H   0  0  0  0  0  0  0  0  0  0  0  0
    0.6682   -0.4169   -3.5852 H   0  0  0  0  0  0  0  0  0  0  0  0
    1.9583    0.2500   -2.5653 H   0  0  0  0  0  0  0  0  0  0  0  0
  1  2  1  0  0  0  0
  2  3  1  0  0  0  0
  2  4  1  0  0  0  0
  2  5  1  0  0  0  0
  5  6  2  0  0  0  0
  5  7  1  0  0  0  0
  7  8  1  0  0  0  0
  7  9  1  0  0  0  0
  9 10  1  0  0  0  0
  9 11  1  0  0  0  0
  9 27  1  0  0  0  0
 11 12  1  0  0  0  0
 11 13  1  0  0  0  0
 11 14  1  0  0  0  0
 14 15  1  0  0  0  0
 14 16  1  0  0  0  0
 14 17  1  0  0  0  0
 17 18  1  0  0  0  0
 17 19  1  0  0  0  0
 17 20  1  0  0  0  0
 20 21  1  0  0  0  0
 20 22  1  0  0  0  0
 20 23  1  0  0  0  0
 23 24  1  0  0  0  0
 23 25  1  0  0  0  0
 23 26  1  0  0  0  0
 27 28  2  0  0  0  0
 27 29  1  0  0  0  0
 29 30  1  0  0  0  0
 29 31  1  0  0  0  0
 31 32  1  0  0  0  0
 31 33  1  0  0  0  0
 31 34  1  0  0  0  0
M  CHG  1  23   1
M  END
$$$$

  -OEChem-01062216093D

 34 33  0     1  0  0  0  0  0999 V2000
   -3.7469   -2.4404    1.0050 H   0  0  0  0  0  0  0  0  0  0  0  0
   -3.7478   -1.4249    0.5980 C   0  0  0  0  0  0  0  0  0  0  0  0
   -4.5655   -0.8642    1.0570 H   0  0  0  0  0  0  0  0  0  0  0  0
   -3.9125   -1.4823   -0.4806 H   0  0  0  0  0  0  0  0  0  0  0  0
   -2.4212   -0.7476    0.8862 C   0  0  0  0  0  0  0  0  0  0  0  0
   -1.5817   -1.3375    1.5388 O   0  0  0  0  0  0  0  0  0  0  0  0
   -2.2015    0.5378    0.4200 N   0  0  0  0  0  0  0  0  0  0  0  0
   -2.9504    0.9217   -0.1493 H   0  0  0  0  0  0  0  0  0  0  0  0
   -0.9151    1.2722    0.4475 C   0  0  1  0  0  0  0  0  0  0  0  0
   -1.0567    2.2387   -0.0443 H   0  0  0  0  0  0  0  0  0  0  0  0
   -0.4513    1.5497    1.8994 C   0  0  0  0  0  0  0  0  0  0  0  0
   -0.3820    0.6149    2.4635 H   0  0  0  0  0  0  0  0  0  0  0  0
    0.5597    1.9711    1.8630 H   0  0  0  0  0  0  0  0  0  0  0  0
   -1.3493    2.5456    2.6423 C   0  0  0  0  0  0  0  0  0  0  0  0
   -1.3858    3.4943    2.0959 H   0  0  0  0  0  0  0  0  0  0  0  0
   -2.3676    2.1464    2.7026 H   0  0  0  0  0  0  0  0  0  0  0  0
   -0.7891    2.7662    4.0535 C   0  0  0  0  0  0  0  0  0  0  0  0
   -0.7400    1.8021    4.5727 H   0  0  0  0  0  0  0  0  0  0  0  0
    0.2302    3.1615    3.9800 H   0  0  0  0  0  0  0  0  0  0  0  0
   -1.6622    3.7332    4.8462 C   0  0  0  0  0  0  0  0  0  0  0  0
   -1.7071    4.6989    4.3217 H   0  0  0  0  0  0  0  0  0  0  0  0
   -2.6882    3.3397    4.8943 H   0  0  0  0  0  0  0  0  0  0  0  0
   -1.0837    3.8834    6.1993 N   0  3  0  0  0  0  0  0  0  0  0  0
   -0.1324    4.2512    6.1329 H   0  0  0  0  0  0  0  0  0  0  0  0
   -1.6502    4.5250    6.7578 H   0  0  0  0  0  0  0  0  0  0  0  0
   -1.0528    2.9746    6.6666 H   0  0  0  0  0  0  0  0  0  0  0  0
    0.1954    0.5406   -0.3564 C   0  0  0  0  0  0  0  0  0  0  0  0
    1.2093    0.1183    0.1835 O   0  0  0  0  0  0  0  0  0  0  0  0
    0.1635    0.5744   -1.7400 N   0  0  0  0  0  0  0  0  0  0  0  0
   -0.6834    0.9113   -2.1857 H   0  0  0  0  0  0  0  0  0  0  0  0
    1.2039   -0.0212   -2.5739 C   0  0  0  0  0  0  0  0  0  0  0  0
    1.2920   -1.0938   -2.3697 H   0  0  0  0  0  0  0  0  0  0  0  0
    0.9646    0.1102   -3.6338 H   0  0  0  0  0  0  0  0  0  0  0  0
    2.1714    0.4534   -2.3780 H   0  0  0  0  0  0  0  0  0  0  0  0
  1  2  1  0  0  0  0
  2  3  1  0  0  0  0
  2  4  1  0  0  0  0
  2  5  1  0  0  0  0
  5  6  2  0  0  0  0
  5  7  1  0  0  0  0
  7  8  1  0  0  0  0
  7  9  1  0  0  0  0
  9 10  1  0  0  0  0
  9 11  1  0  0  0  0
  9 27  1  0  0  0  0
 11 12  1  0  0  0  0
 11 13  1  0  0  0  0
 11 14  1  0  0  0  0
 14 15  1  0  0  0  0
 14 16  1  0  0  0  0
 14 17  1  0  0  0  0
 17 18  1  0  0  0  0
 17 19  1  0  0  0  0
 17 20  1  0  0  0  0
 20 21  1  0  0  0  0
 20 22  1  0  0  0  0
 20 23  1  0  0  0  0
 23 24  1  0  0  0  0
 23 25  1  0  0  0  0
 23 26  1  0  0  0  0
 27 28  2  0  0  0  0
 27 29  1  0  0  0  0
 29 30  1  0  0  0  0
 29 31  1  0  0  0  0
 31 32  1  0  0  0  0
 31 33  1  0  0  0  0
 31 34  1  0  0  0  0
M  CHG  1  23   1
M  END
$$$$

  -OEChem-01062216093D

 34 33  0     1  0  0  0  0  0999 V2000
   -3.7312   -2.4719    0.9412 H   0  0  0  0  0  0  0  0  0  0  0  0
   -3.7265   -1.4613    0.5224 C   0  0  0  0  0  0  0  0  0  0  0  0
   -4.5928   -0.9179    0.9065 H   0  0  0  0  0  0  0  0  0  0  0  0
   -3.8014   -1.5360   -0.5650 H   0  0  0  0  0  0  0  0  0  0  0  0
   -2.4468   -0.7427    0.9077 C   0  0  0  0  0  0  0  0  0  0  0  0
   -1.6659   -1.2904    1.6620 O   0  0  0  0  0  0  0  0  0  0  0  0
   -2.2274    0.5409    0.4339 N   0  0  0  0  0  0  0  0  0  0  0  0
   -2.9377    0.8713   -0.2132 H   0  0  0  0  0  0  0  0  0  0  0  0
   -0.9425    1.2796    0.4524 C   0  0  1  0  0  0  0  0  0  0  0  0
   -1.0936    2.2470   -0.0353 H   0  0  0  0  0  0  0  0  0  0  0  0
   -0.4563    1.5569    1.8964 C   0  0  0  0  0  0  0  0  0  0  0  0
   -0.3731    0.6247    2.4618 H   0  0  0  0  0  0  0  0  0  0  0  0
    0.5535    1.9788    1.8413 H   0  0  0  0  0  0  0  0  0  0  0  0
   -1.3476    2.5489    2.6522 C   0  0  0  0  0  0  0  0  0  0  0  0
   -1.3964    3.4970    2.1061 H   0  0  0  0  0  0  0  0  0  0  0  0
   -2.3633    2.1446    2.7258 H   0  0  0  0  0  0  0  0  0  0  0  0
   -0.7712    2.7740    4.0557 C   0  0  0  0  0  0  0  0  0  0  0  0
   -0.7114    1.8107    4.5756 H   0  0  0  0  0  0  0  0  0  0  0  0
    0.2451    3.1748    3.9694 H   0  0  0  0  0  0  0  0  0  0  0  0
   -1.6414    3.7376    4.8556 C   0  0  0  0  0  0  0  0  0  0  0  0
   -1.6975    4.7014    4.3290 H   0  0  0  0  0  0  0  0  0  0  0  0
   -2.6646    3.3382    4.9152 H   0  0  0  0  0  0  0  0  0  0  0  0
   -1.0500    3.8950    6.2024 N   0  3  0  0  0  0  0  0  0  0  0  0
   -0.0997    4.2631    6.1255 H   0  0  0  0  0  0  0  0  0  0  0  0
   -1.6119    4.5387    6.7634 H   0  0  0  0  0  0  0  0  0  0  0  0
   -1.0142    2.9882    6.6736 H   0  0  0  0  0  0  0  0  0  0  0  0
    0.1697    0.5503   -0.3506 C   0  0  0  0  0  0  0  0  0  0  0  0
    1.0395   -0.1061    0.2042 O   0  0  0  0  0  0  0  0  0  0  0  0
    0.3266    0.8248   -1.6987 N   0  0  0  0  0  0  0  0  0  0  0  0
   -0.3894    1.3765   -2.1599 H   0  0  0  0  0  0  0  0  0  0  0  0
    1.3984    0.2516   -2.5088 C   0  0  0  0  0  0  0  0  0  0  0  0
    1.3561   -0.8426   -2.4828 H   0  0  0  0  0  0  0  0  0  0  0  0
    1.3041    0.5756   -3.5497 H   0  0  0  0  0  0  0  0  0  0  0  0
    2.3766    0.5735   -2.1358 H   0  0  0  0  0  0  0  0  0  0  0  0
  1  2  1  0  0  0  0
  2  3  1  0  0  0  0
  2  4  1  0  0  0  0
  2  5  1  0  0  0  0
  5  6  2  0  0  0  0
  5  7  1  0  0  0  0
  7  8  1  0  0  0  0
  7  9  1  0  0  0  0
  9 10  1  0  0  0  0
  9 11  1  0  0  0  0
  9 27  1  0  0  0  0
 11 12  1  0  0  0  0
 11 13  1  0  0  0  0
 11 14  1  0  0  0  0
 14 15  1  0  0  0  0
 14 16  1  0  0  0  0
 14 17  1  0  0  0  0
 17 18  1  0  0  0  0
 17 19  1  0  0  0  0
 17 20  1  0  0  0  0
 20 21  1  0  0  0  0
 20 22  1  0  0  0  0
 20 23  1  0  0  0  0
 23 24  1  0  0  0  0
 23 25  1  0  0  0  0
 23 26  1  0  0  0  0
 27 28  2  0  0  0  0
 27 29  1  0  0  0  0
 29 30  1  0  0  0  0
 29 31  1  0  0  0  0
 31 32  1  0  0  0  0
 31 33  1  0  0  0  0
 31 34  1  0  0  0  0
M  CHG  1  23   1
M  END
$$$$

  -OEChem-01062216093D

 34 33  0     1  0  0  0  0  0999 V2000
   -3.6701   -2.5068    0.8704 H   0  0  0  0  0  0  0  0  0  0  0  0
   -3.6652   -1.5056    0.4293 C   0  0  0  0  0  0  0  0  0  0  0  0
   -4.5923   -0.9963    0.7018 H   0  0  0  0  0  0  0  0  0  0  0  0
   -3.6153   -1.6057   -0.6577 H   0  0  0  0  0  0  0  0  0  0  0  0
   -2.4707   -0.7189    0.9351 C   0  0  0  0  0  0  0  0  0  0  0  0
   -1.7963   -1.1868    1.8330 O   0  0  0  0  0  0  0  0  0  0  0  0
   -2.2575    0.5611    0.4469 N   0  0  0  0  0  0  0  0  0  0  0  0
   -2.9106    0.8175   -0.2882 H   0  0  0  0  0  0  0  0  0  0  0  0
   -0.9742    1.3045    0.4578 C   0  0  1  0  0  0  0  0  0  0  0  0
   -1.1339    2.2722   -0.0259 H   0  0  0  0  0  0  0  0  0  0  0  0
   -0.4626    1.5761    1.8928 C   0  0  0  0  0  0  0  0  0  0  0  0
   -0.3571    0.6448    2.4554 H   0  0  0  0  0  0  0  0  0  0  0  0
    0.5429    2.0047    1.8184 H   0  0  0  0  0  0  0  0  0  0  0  0
   -1.3478    2.5606    2.6643 C   0  0  0  0  0  0  0  0  0  0  0  0
   -1.4123    3.5094    2.1209 H   0  0  0  0  0  0  0  0  0  0  0  0
   -2.3592    2.1481    2.7521 H   0  0  0  0  0  0  0  0  0  0  0  0
   -0.7532    2.7857    4.0596 C   0  0  0  0  0  0  0  0  0  0  0  0
   -0.6803    1.8221    4.5769 H   0  0  0  0  0  0  0  0  0  0  0  0
    0.2591    3.1932    3.9607 H   0  0  0  0  0  0  0  0  0  0  0  0
   -1.6202    3.7421    4.8711 C   0  0  0  0  0  0  0  0  0  0  0  0
   -1.6913    4.7058    4.3458 H   0  0  0  0  0  0  0  0  0  0  0  0
   -2.6392    3.3338    4.9431 H   0  0  0  0  0  0  0  0  0  0  0  0
   -1.0137    3.9017    6.2106 N   0  3  0  0  0  0  0  0  0  0  0  0
   -0.0686    4.2804    6.1236 H   0  0  0  0  0  0  0  0  0  0  0  0
   -1.5762    4.5367    6.7807 H   0  0  0  0  0  0  0  0  0  0  0  0
   -0.9626    2.9934    6.6777 H   0  0  0  0  0  0  0  0  0  0  0  0
    0.1411    0.5744   -0.3380 C   0  0  0  0  0  0  0  0  0  0  0  0
    0.8022   -0.3258    0.1568 O   0  0  0  0  0  0  0  0  0  0  0  0
    0.5125    1.0450   -1.5860 N   0  0  0  0  0  0  0  0  0  0  0  0
   -0.0385    1.7897   -2.0009 H   0  0  0  0  0  0  0  0  0  0  0  0
    1.5934    0.4543   -2.3712 C   0  0  0  0  0  0  0  0  0  0  0  0
    1.3957   -0.6062   -2.5619 H   0  0  0  0  0  0  0  0  0  0  0  0
    1.6874    0.9654   -3.3343 H   0  0  0  0  0  0  0  0  0  0  0  0
    2.5472    0.5429   -1.8399 H   0  0  0  0  0  0  0  0  0  0  0  0
  1  2  1  0  0  0  0
  2  3  1  0  0  0  0
  2  4  1  0  0  0  0
  2  5  1  0  0  0  0
  5  6  2  0  0  0  0
  5  7  1  0  0  0  0
  7  8  1  0  0  0  0
  7  9  1  0  0  0  0
  9 10  1  0  0  0  0
  9 11  1  0  0  0  0
  9 27  1  0  0  0  0
 11 12  1  0  0  0  0
 11 13  1  0  0  0  0
 11 14  1  0  0  0  0
 14 15  1  0  0  0  0
 14 16  1  0  0  0  0
 14 17  1  0  0  0  0
 17 18  1  0  0  0  0
 17 19  1  0  0  0  0
 17 20  1  0  0  0  0
 20 21  1  0  0  0  0
 20 22  1  0  0  0  0
 20 23  1  0  0  0  0
 23 24  1  0  0  0  0
 23 25  1  0  0  0  0
 23 26  1  0  0  0  0
 27 28  2  0  0  0  0
 27 29  1  0  0  0  0
 29 30  1  0  0  0  0
 29 31  1  0  0  0  0
 31 32  1  0  0  0  0
 31 33  1  0  0  0  0
 31 34  1  0  0  0  0
M  CHG  1  23   1
M  END
$$$$

  -OEChem-01062216093D

 34 33  0     1  0  0  0  0  0999 V2000
   -3.5448   -2.5446    0.7978 H   0  0  0  0  0  0  0  0  0  0  0  0
   -3.5263   -1.5675    0.3062 C   0  0  0  0  0  0  0  0  0  0  0  0
   -4.5185   -1.1165    0.3801 H   0  0  0  0  0  0  0  0  0  0  0  0
   -3.2744   -1.7144   -0.7469 H   0  0  0  0  0  0  0  0  0  0  0  0
   -2.4943   -0.6723    0.9661 C   0  0  0  0  0  0  0  0  0  0  0  0
   -1.9805   -1.0334    2.0104 O   0  0  0  0  0  0  0  0  0  0  0  0
   -2.2929    0.6061    0.4666 N   0  0  0  0  0  0  0  0  0  0  0  0
   -2.8728    0.7857   -0.3484 H   0  0  0  0  0  0  0  0  0  0  0  0
   -1.0026    1.3398    0.4783 C   0  0  1  0  0  0  0  0  0  0  0  0
   -1.1585    2.3084   -0.0047 H   0  0  0  0  0  0  0  0  0  0  0  0
   -0.4670    1.5960    1.9060 C   0  0  0  0  0  0  0  0  0  0  0  0
   -0.3505    0.6617    2.4605 H   0  0  0  0  0  0  0  0  0  0  0  0
    0.5372    2.0250    1.8193 H   0  0  0  0  0  0  0  0  0  0  0  0
   -1.3400    2.5814    2.6906 C   0  0  0  0  0  0  0  0  0  0  0  0
   -1.4059    3.5322    2.1509 H   0  0  0  0  0  0  0  0  0  0  0  0
   -2.3523    2.1722    2.7848 H   0  0  0  0  0  0  0  0  0  0  0  0
   -0.7369    2.8029    4.0827 C   0  0  0  0  0  0  0  0  0  0  0  0
   -0.6657    1.8381    4.5985 H   0  0  0  0  0  0  0  0  0  0  0  0
    0.2760    3.2078    3.9802 H   0  0  0  0  0  0  0  0  0  0  0  0
   -1.6001    3.7611    4.8970 C   0  0  0  0  0  0  0  0  0  0  0  0
   -1.6713    4.7246    4.3715 H   0  0  0  0  0  0  0  0  0  0  0  0
   -2.6193    3.3539    4.9709 H   0  0  0  0  0  0  0  0  0  0  0  0
   -0.9921    3.9223    6.2355 N   0  3  0  0  0  0  0  0  0  0  0  0
   -0.0510    4.3102    6.1481 H   0  0  0  0  0  0  0  0  0  0  0  0
   -1.5599    4.5499    6.8084 H   0  0  0  0  0  0  0  0  0  0  0  0
   -0.9322    3.0130    6.6996 H   0  0  0  0  0  0  0  0  0  0  0  0
    0.1056    0.5968   -0.3132 C   0  0  0  0  0  0  0  0  0  0  0  0
    0.4714   -0.5264   -0.0039 O   0  0  0  0  0  0  0  0  0  0  0  0
    0.7086    1.2080   -1.3989 N   0  0  0  0  0  0  0  0  0  0  0  0
    0.3860    2.1308   -1.6728 H   0  0  0  0  0  0  0  0  0  0  0  0
    1.7431    0.5611   -2.2017 C   0  0  0  0  0  0  0  0  0  0  0  0
    1.3666   -0.3721   -2.6348 H   0  0  0  0  0  0  0  0  0  0  0  0
    2.0574    1.2176   -3.0191 H   0  0  0  0  0  0  0  0  0  0  0  0
    2.6201    0.3325   -1.5864 H   0  0  0  0  0  0  0  0  0  0  0  0
  1  2  1  0  0  0  0
  2  3  1  0  0  0  0
  2  4  1  0  0  0  0
  2  5  1  0  0  0  0
  5  6  2  0  0  0  0
  5  7  1  0  0  0  0
  7  8  1  0  0  0  0
  7  9  1  0  0  0  0
  9 10  1  0  0  0  0
  9 11  1  0  0  0  0
  9 27  1  0  0  0  0
 11 12  1  0  0  0  0
 11 13  1  0  0  0  0
 11 14  1  0  0  0  0
 14 15  1  0  0  0  0
 14 16  1  0  0  0  0
 14 17  1  0  0  0  0
 17 18  1  0  0  0  0
 17 19  1  0  0  0  0
 17 20  1  0  0  0  0
 20 21  1  0  0  0  0
 20 22  1  0  0  0  0
 20 23  1  0  0  0  0
 23 24  1  0  0  0  0
 23 25  1  0  0  0  0
 23 26  1  0  0  0  0
 27 28  2  0  0  0  0
 27 29  1  0  0  0  0
 29 30  1  0  0  0  0
 29 31  1  0  0  0  0
 31 32  1  0  0  0  0
 31 33  1  0  0  0  0
 31 34  1  0  0  0  0
M  CHG  1  23   1
M  END
$$$$

  -OEChem-01062216093D

 34 33  0     1  0  0  0  0  0999 V2000
   -3.5340   -2.5466    0.8026 H   0  0  0  0  0  0  0  0  0  0  0  0
   -3.4966   -1.5792    0.2936 C   0  0  0  0  0  0  0  0  0  0  0  0
   -4.4929   -1.1316    0.3120 H   0  0  0  0  0  0  0  0  0  0  0  0
   -3.1940   -1.7440   -0.7435 H   0  0  0  0  0  0  0  0  0  0  0  0
   -2.4995   -0.6671    0.9819 C   0  0  0  0  0  0  0  0  0  0  0  0
   -2.0179   -1.0098    2.0486 O   0  0  0  0  0  0  0  0  0  0  0  0
   -2.2945    0.6096    0.4804 N   0  0  0  0  0  0  0  0  0  0  0  0
   -2.8462    0.7662   -0.3584 H   0  0  0  0  0  0  0  0  0  0  0  0
   -0.9961    1.3294    0.4929 C   0  0  1  0  0  0  0  0  0  0  0  0
   -1.1478    2.2976    0.0073 H   0  0  0  0  0  0  0  0  0  0  0  0
   -0.4587    1.5811    1.9201 C   0  0  0  0  0  0  0  0  0  0  0  0
   -0.3513    0.6469    2.4764 H   0  0  0  0  0  0  0  0  0  0  0  0
    0.5494    2.0016    1.8357 H   0  0  0  0  0  0  0  0  0  0  0  0
   -1.3266    2.5774    2.6975 C   0  0  0  0  0  0  0  0  0  0  0  0
   -1.3828    3.5256    2.1522 H   0  0  0  0  0  0  0  0  0  0  0  0
   -2.3425    2.1762    2.7879 H   0  0  0  0  0  0  0  0  0  0  0  0
   -0.7331    2.8036    4.0926 C   0  0  0  0  0  0  0  0  0  0  0  0
   -0.6728    1.8422    4.6158 H   0  0  0  0  0  0  0  0  0  0  0  0
    0.2830    3.2016    3.9959 H   0  0  0  0  0  0  0  0  0  0  0  0
   -1.5979    3.7734    4.8920 C   0  0  0  0  0  0  0  0  0  0  0  0
   -1.6586    4.7336    4.3594 H   0  0  0  0  0  0  0  0  0  0  0  0
   -2.6203    3.3726    4.9592 H   0  0  0  0  0  0  0  0  0  0  0  0
   -1.0026    3.9417    6.2353 N   0  3  0  0  0  0  0  0  0  0  0  0
   -0.0607    4.3291    6.1552 H   0  0  0  0  0  0  0  0  0  0  0  0
   -1.5758    4.5727    6.7993 H   0  0  0  0  0  0  0  0  0  0  0  0
   -0.9479    3.0351    6.7050 H   0  0  0  0  0  0  0  0  0  0  0  0
    0.1164    0.5880   -0.2960 C   0  0  0  0  0  0  0  0  0  0  0  0
    0.2372   -0.6269   -0.2538 O   0  0  0  0  0  0  0  0  0  0  0  0
    0.9342    1.2976   -1.1587 N   0  0  0  0  0  0  0  0  0  0  0  0
    0.7966    2.3004   -1.2360 H   0  0  0  0  0  0  0  0  0  0  0  0
    1.9494    0.6645   -1.9963 C   0  0  0  0  0  0  0  0  0  0  0  0
    1.4879   -0.0501   -2.6863 H   0  0  0  0  0  0  0  0  0  0  0  0
    2.4804    1.4187   -2.5852 H   0  0  0  0  0  0  0  0  0  0  0  0
    2.6806    0.1321   -1.3784 H   0  0  0  0  0  0  0  0  0  0  0  0
  1  2  1  0  0  0  0
  2  3  1  0  0  0  0
  2  4  1  0  0  0  0
  2  5  1  0  0  0  0
  5  6  2  0  0  0  0
  5  7  1  0  0  0  0
  7  8  1  0  0  0  0
  7  9  1  0  0  0  0
  9 10  1  0  0  0  0
  9 11  1  0  0  0  0
  9 27  1  0  0  0  0
 11 12  1  0  0  0  0
 11 13  1  0  0  0  0
 11 14  1  0  0  0  0
 14 15  1  0  0  0  0
 14 16  1  0  0  0  0
 14 17  1  0  0  0  0
 17 18  1  0  0  0  0
 17 19  1  0  0  0  0
 17 20  1  0  0  0  0
 20 21  1  0  0  0  0
 20 22  1  0  0  0  0
 20 23  1  0  0  0  0
 23 24  1  0  0  0  0
 23 25  1  0  0  0  0
 23 26  1  0  0  0  0
 27 28  2  0  0  0  0
 27 29  1  0  0  0  0
 29 30  1  0  0  0  0
 29 31  1  0  0  0  0
 31 32  1  0  0  0  0
 31 33  1  0  0  0  0
 31 34  1  0  0  0  0
M  CHG  1  23   1
M  END
$$$$

  -OEChem-01062216093D

 34 33  0     1  0  0  0  0  0999 V2000
   -3.5789   -2.5338    0.8356 H   0  0  0  0  0  0  0  0  0  0  0  0
   -3.5163   -1.5734    0.3162 C   0  0  0  0  0  0  0  0  0  0  0  0
   -4.4970   -1.0932    0.3420 H   0  0  0  0  0  0  0  0  0  0  0  0
   -3.2324   -1.7580   -0.7229 H   0  0  0  0  0  0  0  0  0  0  0  0
   -2.4811   -0.6872    0.9813 C   0  0  0  0  0  0  0  0  0  0  0  0
   -1.9438   -1.0662    2.0089 O   0  0  0  0  0  0  0  0  0  0  0  0
   -2.2732    0.5935    0.4908 N   0  0  0  0  0  0  0  0  0  0  0  0
   -2.8257    0.7603   -0.3459 H   0  0  0  0  0  0  0  0  0  0  0  0
   -0.9704    1.3054    0.5091 C   0  0  1  0  0  0  0  0  0  0  0  0
   -1.1179    2.2719    0.0191 H   0  0  0  0  0  0  0  0  0  0  0  0
   -0.4456    1.5632    1.9407 C   0  0  0  0  0  0  0  0  0  0  0  0
   -0.3509    0.6338    2.5062 H   0  0  0  0  0  0  0  0  0  0  0  0
    0.5655    1.9777    1.8666 H   0  0  0  0  0  0  0  0  0  0  0  0
   -1.3173    2.5706    2.7004 C   0  0  0  0  0  0  0  0  0  0  0  0
   -1.3627    3.5150    2.1472 H   0  0  0  0  0  0  0  0  0  0  0  0
   -2.3367    2.1759    2.7820 H   0  0  0  0  0  0  0  0  0  0  0  0
   -0.7393    2.8048    4.1011 C   0  0  0  0  0  0  0  0  0  0  0  0
   -0.6913    1.8470    4.6323 H   0  0  0  0  0  0  0  0  0  0  0  0
    0.2804    3.1955    4.0137 H   0  0  0  0  0  0  0  0  0  0  0  0
   -1.6078    3.7856    4.8834 C   0  0  0  0  0  0  0  0  0  0  0  0
   -1.6569    4.7422    4.3428 H   0  0  0  0  0  0  0  0  0  0  0  0
   -2.6333    3.3917    4.9417 H   0  0  0  0  0  0  0  0  0  0  0  0
   -1.0269    3.9606    6.2322 N   0  3  0  0  0  0  0  0  0  0  0  0
   -0.0817    4.3418    6.1603 H   0  0  0  0  0  0  0  0  0  0  0  0
   -1.6028    4.5995    6.7845 H   0  0  0  0  0  0  0  0  0  0  0  0
   -0.9833    3.0575    6.7099 H   0  0  0  0  0  0  0  0  0  0  0  0
    0.1422    0.5686   -0.2864 C   0  0  0  0  0  0  0  0  0  0  0  0
    0.0604   -0.6205   -0.5579 O   0  0  0  0  0  0  0  0  0  0  0  0
    1.1513    1.3012   -0.8885 N   0  0  0  0  0  0  0  0  0  0  0  0
    1.1795    2.3027   -0.7270 H   0  0  0  0  0  0  0  0  0  0  0  0
    2.1561    0.7048   -1.7647 C   0  0  0  0  0  0  0  0  0  0  0  0
    1.6830    0.2711   -2.6524 H   0  0  0  0  0  0  0  0  0  0  0  0
    2.8744    1.4629   -2.0919 H   0  0  0  0  0  0  0  0  0  0  0  0
    2.7042   -0.0845   -1.2388 H   0  0  0  0  0  0  0  0  0  0  0  0
  1  2  1  0  0  0  0
  2  3  1  0  0  0  0
  2  4  1  0  0  0  0
  2  5  1  0  0  0  0
  5  6  2  0  0  0  0
  5  7  1  0  0  0  0
  7  8  1  0  0  0  0
  7  9  1  0  0  0  0
  9 10  1  0  0  0  0
  9 11  1  0  0  0  0
  9 27  1  0  0  0  0
 11 12  1  0  0  0  0
 11 13  1  0  0  0  0
 11 14  1  0  0  0  0
 14 15  1  0  0  0  0
 14 16  1  0  0  0  0
 14 17  1  0  0  0  0
 17 18  1  0  0  0  0
 17 19  1  0  0  0  0
 17 20  1  0  0  0  0
 20 21  1  0  0  0  0
 20 22  1  0  0  0  0
 20 23  1  0  0  0  0
 23 24  1  0  0  0  0
 23 25  1  0  0  0  0
 23 26  1  0  0  0  0
 27 28  2  0  0  0  0
 27 29  1  0  0  0  0
 29 30  1  0  0  0  0
 29 31  1  0  0  0  0
 31 32  1  0  0  0  0
 31 33  1  0  0  0  0
 31 34  1  0  0  0  0
M  CHG  1  23   1
M  END
$$$$

  -OEChem-01062216093D

 34 33  0     1  0  0  0  0  0999 V2000
   -3.5678   -2.5319    0.8329 H   0  0  0  0  0  0  0  0  0  0  0  0
   -3.5305   -1.5534    0.3454 C   0  0  0  0  0  0  0  0  0  0  0  0
   -4.5045   -1.0698    0.4488 H   0  0  0  0  0  0  0  0  0  0  0  0
   -3.3118   -1.7019   -0.7153 H   0  0  0  0  0  0  0  0  0  0  0  0
   -2.4498   -0.6965    0.9762 C   0  0  0  0  0  0  0  0  0  0  0  0
   -1.8406   -1.1224    1.9434 O   0  0  0  0  0  0  0  0  0  0  0  0
   -2.2460    0.5911    0.5023 N   0  0  0  0  0  0  0  0  0  0  0  0
   -2.8087    0.7748   -0.3243 H   0  0  0  0  0  0  0  0  0  0  0  0
   -0.9415    1.2992    0.5235 C   0  0  1  0  0  0  0  0  0  0  0  0
   -1.0829    2.2678    0.0351 H   0  0  0  0  0  0  0  0  0  0  0  0
   -0.4273    1.5554    1.9614 C   0  0  0  0  0  0  0  0  0  0  0  0
   -0.3419    0.6274    2.5304 H   0  0  0  0  0  0  0  0  0  0  0  0
    0.5847    1.9686    1.9003 H   0  0  0  0  0  0  0  0  0  0  0  0
   -1.3062    2.5658    2.7092 C   0  0  0  0  0  0  0  0  0  0  0  0
   -1.3432    3.5088    2.1532 H   0  0  0  0  0  0  0  0  0  0  0  0
   -2.3270    2.1730    2.7789 H   0  0  0  0  0  0  0  0  0  0  0  0
   -0.7477    2.8048    4.1166 C   0  0  0  0  0  0  0  0  0  0  0  0
   -0.7070    1.8494    4.6525 H   0  0  0  0  0  0  0  0  0  0  0  0
    0.2731    3.1956    4.0426 H   0  0  0  0  0  0  0  0  0  0  0  0
   -1.6287    3.7893    4.8804 C   0  0  0  0  0  0  0  0  0  0  0  0
   -1.6692    4.7429    4.3342 H   0  0  0  0  0  0  0  0  0  0  0  0
   -2.6548    3.3952    4.9234 H   0  0  0  0  0  0  0  0  0  0  0  0
   -1.0713    3.9731    6.2381 N   0  3  0  0  0  0  0  0  0  0  0  0
   -0.1216    4.3452    6.1803 H   0  0  0  0  0  0  0  0  0  0  0  0
   -1.6516    4.6231    6.7727 H   0  0  0  0  0  0  0  0  0  0  0  0
   -1.0451    3.0749    6.7263 H   0  0  0  0  0  0  0  0  0  0  0  0
    0.1557    0.5591   -0.2924 C   0  0  0  0  0  0  0  0  0  0  0  0
   -0.0730   -0.5142   -0.8339 O   0  0  0  0  0  0  0  0  0  0  0  0
    1.3255    1.2160   -0.6363 N   0  0  0  0  0  0  0  0  0  0  0  0
    1.4832    2.1443   -0.2587 H   0  0  0  0  0  0  0  0  0  0  0  0
    2.3340    0.6385   -1.5210 C   0  0  0  0  0  0  0  0  0  0  0  0
    1.9201    0.4781   -2.5225 H   0  0  0  0  0  0  0  0  0  0  0  0
    3.1945    1.3091   -1.6067 H   0  0  0  0  0  0  0  0  0  0  0  0
    2.6839   -0.3225   -1.1283 H   0  0  0  0  0  0  0  0  0  0  0  0
  1  2  1  0  0  0  0
  2  3  1  0  0  0  0
  2  4  1  0  0  0  0
  2  5  1  0  0  0  0
  5  6  2  0  0  0  0
  5  7  1  0  0  0  0
  7  8  1  0  0  0  0
  7  9  1  0  0  0  0
  9 10  1  0  0  0  0
  9 11  1  0  0  0  0
  9 27  1  0  0  0  0
 11 12  1  0  0  0  0
 11 13  1  0  0  0  0
 11 14  1  0  0  0  0
 14 15  1  0  0  0  0
 14 16  1  0  0  0  0
 14 17  1  0  0  0  0
 17 18  1  0  0  0  0
 17 19  1  0  0  0  0
 17 20  1  0  0  0  0
 20 21  1  0  0  0  0
 20 22  1  0  0  0  0
 20 23  1  0  0  0  0
 23 24  1  0  0  0  0
 23 25  1  0  0  0  0
 23 26  1  0  0  0  0
 27 28  2  0  0  0  0
 27 29  1  0  0  0  0
 29 30  1  0  0  0  0
 29 31  1  0  0  0  0
 31 32  1  0  0  0  0
 31 33  1  0  0  0  0
 31 34  1  0  0  0  0
M  CHG  1  23   1
M  END
$$$$

  -OEChem-01062216093D

 34 33  0     1  0  0  0  0  0999 V2000
   -3.5790   -2.5006    0.6366 H   0  0  0  0  0  0  0  0  0  0  0  0
   -3.5413   -1.4858    0.2309 C   0  0  0  0  0  0  0  0  0  0  0  0
   -4.5190   -1.0165    0.3617 H   0  0  0  0  0  0  0  0  0  0  0  0
   -3.3109   -1.5462   -0.8361 H   0  0  0  0  0  0  0  0  0  0  0  0
   -2.4738   -0.6760    0.9411 C   0  0  0  0  0  0  0  0  0  0  0  0
   -1.9277   -1.1489    1.9247 O   0  0  0  0  0  0  0  0  0  0  0  0
   -2.2255    0.6180    0.5119 N   0  0  0  0  0  0  0  0  0  0  0  0
   -2.7553    0.8218   -0.3332 H   0  0  0  0  0  0  0  0  0  0  0  0
   -0.9188    1.3230    0.5609 C   0  0  1  0  0  0  0  0  0  0  0  0
   -1.0976    2.3786    0.3356 H   0  0  0  0  0  0  0  0  0  0  0  0
   -0.2022    1.2416    1.9327 C   0  0  0  0  0  0  0  0  0  0  0  0
   -0.0234    0.2091    2.2401 H   0  0  0  0  0  0  0  0  0  0  0  0
    0.7869    1.6997    1.8381 H   0  0  0  0  0  0  0  0  0  0  0  0
   -0.9679    2.0235    3.0080 C   0  0  0  0  0  0  0  0  0  0  0  0
   -1.0775    3.0685    2.6982 H   0  0  0  0  0  0  0  0  0  0  0  0
   -1.9717    1.5966    3.1164 H   0  0  0  0  0  0  0  0  0  0  0  0
   -0.2301    1.9474    4.3489 C   0  0  0  0  0  0  0  0  0  0  0  0
   -0.1209    0.8960    4.6394 H   0  0  0  0  0  0  0  0  0  0  0  0
    0.7720    2.3763    4.2401 H   0  0  0  0  0  0  0  0  0  0  0  0
   -1.0088    2.7043    5.4212 C   0  0  0  0  0  0  0  0  0  0  0  0
   -1.1197    3.7553    5.1175 H   0  0  0  0  0  0  0  0  0  0  0  0
   -2.0209    2.2796    5.4970 H   0  0  0  0  0  0  0  0  0  0  0  0
   -0.2876    2.5928    6.7076 N   0  3  0  0  0  0  0  0  0  0  0  0
    0.6489    2.9915    6.6209 H   0  0  0  0  0  0  0  0  0  0  0  0
   -0.7959    3.0918    7.4411 H   0  0  0  0  0  0  0  0  0  0  0  0
   -0.2050    1.6089    6.9734 H   0  0  0  0  0  0  0  0  0  0  0  0
    0.0168    0.7838   -0.5572 C   0  0  0  0  0  0  0  0  0  0  0  0
   -0.4179    0.0089   -1.4003 O   0  0  0  0  0  0  0  0  0  0  0  0
    1.2993    1.2776   -0.7276 N   0  0  0  0  0  0  0  0  0  0  0  0
    1.6405    1.9656   -0.0649 H   0  0  0  0  0  0  0  0  0  0  0  0
    2.1746    0.8616   -1.8203 C   0  0  0  0  0  0  0  0  0  0  0  0
    1.7390    1.1344   -2.7876 H   0  0  0  0  0  0  0  0  0  0  0  0
    3.1512    1.3476   -1.7332 H   0  0  0  0  0  0  0  0  0  0  0  0
    2.3267   -0.2229   -1.7977 H   0  0  0  0  0  0  0  0  0  0  0  0
  1  2  1  0  0  0  0
  2  3  1  0  0  0  0
  2  4  1  0  0  0  0
  2  5  1  0  0  0  0
  5  6  2  0  0  0  0
  5  7  1  0  0  0  0
  7  8  1  0  0  0  0
  7  9  1  0  0  0  0
  9 10  1  0  0  0  0
  9 11  1  0  0  0  0
  9 27  1  0  0  0  0
 11 12  1  0  0  0  0
 11 13  1  0  0  0  0
 11 14  1  0  0  0  0
 14 15  1  0  0  0  0
 14 16  1  0  0  0  0
 14 17  1  0  0  0  0
 17 18  1  0  0  0  0
 17 19  1  0  0  0  0
 17 20  1  0  0  0  0
 20 21  1  0  0  0  0
 20 22  1  0  0  0  0
 20 23  1  0  0  0  0
 23 24  1  0  0  0  0
 23 25  1  0  0  0  0
 23 26  1  0  0  0  0
 27 28  2  0  0  0  0
 27 29  1  0  0  0  0
 29 30  1  0  0  0  0
 29 31  1  0  0  0  0
 31 32  1  0  0  0  0
 31 33  1  0  0  0  0
 31 34  1  0  0  0  0
M  CHG  1  23   1
M  END
$$$$

  -OEChem-01062216093D

 34 33  0     1  0  0  0  0  0999 V2000
   -3.5989   -2.4935    0.6390 H   0  0  0  0  0  0  0  0  0  0  0  0
   -3.5612   -1.4689    0.2581 C   0  0  0  0  0  0  0  0  0  0  0  0
   -4.5121   -0.9764    0.4739 H   0  0  0  0  0  0  0  0  0  0  0  0
   -3.4132   -1.5045   -0.8244 H   0  0  0  0  0  0  0  0  0  0  0  0
   -2.4208   -0.7097    0.9081 C   0  0  0  0  0  0  0  0  0  0  0  0
   -1.7798   -1.2495    1.7943 O   0  0  0  0  0  0  0  0  0  0  0  0
   -2.1820    0.5964    0.5138 N   0  0  0  0  0  0  0  0  0  0  0  0
   -2.7395    0.8417   -0.3025 H   0  0  0  0  0  0  0  0  0  0  0  0
   -0.8827    1.3112    0.5770 C   0  0  1  0  0  0  0  0  0  0  0  0
   -1.0706    2.3667    0.3585 H   0  0  0  0  0  0  0  0  0  0  0  0
   -0.1799    1.2401    1.9577 C   0  0  0  0  0  0  0  0  0  0  0  0
    0.0045    0.2118    2.2735 H   0  0  0  0  0  0  0  0  0  0  0  0
    0.8037    1.7109    1.8742 H   0  0  0  0  0  0  0  0  0  0  0  0
   -0.9663    2.0198    3.0199 C   0  0  0  0  0  0  0  0  0  0  0  0
   -1.0825    3.0623    2.7038 H   0  0  0  0  0  0  0  0  0  0  0  0
   -1.9668    1.5828    3.1177 H   0  0  0  0  0  0  0  0  0  0  0  0
   -0.2451    1.9569    4.3708 C   0  0  0  0  0  0  0  0  0  0  0  0
   -0.1296    0.9080    4.6674 H   0  0  0  0  0  0  0  0  0  0  0  0
    0.7541    2.3948    4.2726 H   0  0  0  0  0  0  0  0  0  0  0  0
   -1.0432    2.7115    5.4309 C   0  0  0  0  0  0  0  0  0  0  0  0
   -1.1598    3.7605    5.1216 H   0  0  0  0  0  0  0  0  0  0  0  0
   -2.0528    2.2791    5.4979 H   0  0  0  0  0  0  0  0  0  0  0  0
   -0.3342    2.6104    6.7250 N   0  3  0  0  0  0  0  0  0  0  0  0
    0.6010    3.0138    6.6451 H   0  0  0  0  0  0  0  0  0  0  0  0
   -0.8518    3.1109    7.4508 H   0  0  0  0  0  0  0  0  0  0  0  0
   -0.2488    1.6284    6.9972 H   0  0  0  0  0  0  0  0  0  0  0  0
    0.0397    0.7961   -0.5637 C   0  0  0  0  0  0  0  0  0  0  0  0
   -0.4633    0.2664   -1.5472 O   0  0  0  0  0  0  0  0  0  0  0  0
    1.4024    1.0421   -0.5839 N   0  0  0  0  0  0  0  0  0  0  0  0
    1.8225    1.4686    0.2345 H   0  0  0  0  0  0  0  0  0  0  0  0
    2.2746    0.5990   -1.6682 C   0  0  0  0  0  0  0  0  0  0  0  0
    1.9778    1.0640   -2.6147 H   0  0  0  0  0  0  0  0  0  0  0  0
    3.3127    0.8757   -1.4598 H   0  0  0  0  0  0  0  0  0  0  0  0
    2.2241   -0.4895   -1.7816 H   0  0  0  0  0  0  0  0  0  0  0  0
  1  2  1  0  0  0  0
  2  3  1  0  0  0  0
  2  4  1  0  0  0  0
  2  5  1  0  0  0  0
  5  6  2  0  0  0  0
  5  7  1  0  0  0  0
  7  8  1  0  0  0  0
  7  9  1  0  0  0  0
  9 10  1  0  0  0  0
  9 11  1  0  0  0  0
  9 27  1  0  0  0  0
 11 12  1  0  0  0  0
 11 13  1  0  0  0  0
 11 14  1  0  0  0  0
 14 15  1  0  0  0  0
 14 16  1  0  0  0  0
 14 17  1  0  0  0  0
 17 18  1  0  0  0  0
 17 19  1  0  0  0  0
 17 20  1  0  0  0  0
 20 21  1  0  0  0  0
 20 22  1  0  0  0  0
 20 23  1  0  0  0  0
 23 24  1  0  0  0  0
 23 25  1  0  0  0  0
 23 26  1  0  0  0  0
 27 28  2  0  0  0  0
 27 29  1  0  0  0  0
 29 30  1  0  0  0  0
 29 31  1  0  0  0  0
 31 32  1  0  0  0  0
 31 33  1  0  0  0  0
 31 34  1  0  0  0  0
M  CHG  1  23   1
M  END
$$$$

  -OEChem-01062216093D

 34 33  0     1  0  0  0  0  0999 V2000
   -3.6019   -2.4923    0.6421 H   0  0  0  0  0  0  0  0  0  0  0  0
   -3.5804   -1.4538    0.2996 C   0  0  0  0  0  0  0  0  0  0  0  0
   -4.4999   -0.9583    0.6200 H   0  0  0  0  0  0  0  0  0  0  0  0
   -3.5313   -1.4478   -0.7924 H   0  0  0  0  0  0  0  0  0  0  0  0
   -2.3736   -0.7371    0.8747 C   0  0  0  0  0  0  0  0  0  0  0  0
   -1.6545   -1.3274    1.6630 O   0  0  0  0  0  0  0  0  0  0  0  0
   -2.1411    0.5785    0.5112 N   0  0  0  0  0  0  0  0  0  0  0  0
   -2.7280    0.8679   -0.2693 H   0  0  0  0  0  0  0  0  0  0  0  0
   -0.8459    1.2955    0.5905 C   0  0  1  0  0  0  0  0  0  0  0  0
   -1.0380    2.3517    0.3787 H   0  0  0  0  0  0  0  0  0  0  0  0
   -0.1562    1.2310    1.9780 C   0  0  0  0  0  0  0  0  0  0  0  0
    0.0255    0.2050    2.3029 H   0  0  0  0  0  0  0  0  0  0  0  0
    0.8258    1.7074    1.9009 H   0  0  0  0  0  0  0  0  0  0  0  0
   -0.9574    2.0126    3.0276 C   0  0  0  0  0  0  0  0  0  0  0  0
   -1.0713    3.0536    2.7053 H   0  0  0  0  0  0  0  0  0  0  0  0
   -1.9583    1.5744    3.1144 H   0  0  0  0  0  0  0  0  0  0  0  0
   -0.2539    1.9602    4.3882 C   0  0  0  0  0  0  0  0  0  0  0  0
   -0.1385    0.9138    4.6934 H   0  0  0  0  0  0  0  0  0  0  0  0
    0.7450    2.4014    4.3016 H   0  0  0  0  0  0  0  0  0  0  0  0
   -1.0727    2.7190    5.4296 C   0  0  0  0  0  0  0  0  0  0  0  0
   -1.1881    3.7649    5.1092 H   0  0  0  0  0  0  0  0  0  0  0  0
   -2.0814    2.2830    5.4821 H   0  0  0  0  0  0  0  0  0  0  0  0
   -0.3879    2.6336    6.7378 N   0  3  0  0  0  0  0  0  0  0  0  0
    0.5485    3.0366    6.6707 H   0  0  0  0  0  0  0  0  0  0  0  0
   -0.9191    3.1432    7.4475 H   0  0  0  0  0  0  0  0  0  0  0  0
   -0.3076    1.6554    7.0241 H   0  0  0  0  0  0  0  0  0  0  0  0
    0.0698    0.8050   -0.5632 C   0  0  0  0  0  0  0  0  0  0  0  0
   -0.4434    0.5396   -1.6430 O   0  0  0  0  0  0  0  0  0  0  0  0
    1.4505    0.7711   -0.4652 N   0  0  0  0  0  0  0  0  0  0  0  0
    1.8589    0.8961    0.4546 H   0  0  0  0  0  0  0  0  0  0  0  0
    2.3078    0.3002   -1.5493 C   0  0  0  0  0  0  0  0  0  0  0  0
    2.1669    0.9147   -2.4451 H   0  0  0  0  0  0  0  0  0  0  0  0
    3.3603    0.3584   -1.2554 H   0  0  0  0  0  0  0  0  0  0  0  0
    2.0751   -0.7408   -1.7986 H   0  0  0  0  0  0  0  0  0  0  0  0
  1  2  1  0  0  0  0
  2  3  1  0  0  0  0
  2  4  1  0  0  0  0
  2  5  1  0  0  0  0
  5  6  2  0  0  0  0
  5  7  1  0  0  0  0
  7  8  1  0  0  0  0
  7  9  1  0  0  0  0
  9 10  1  0  0  0  0
  9 11  1  0  0  0  0
  9 27  1  0  0  0  0
 11 12  1  0  0  0  0
 11 13  1  0  0  0  0
 11 14  1  0  0  0  0
 14 15  1  0  0  0  0
 14 16  1  0  0  0  0
 14 17  1  0  0  0  0
 17 18  1  0  0  0  0
 17 19  1  0  0  0  0
 17 20  1  0  0  0  0
 20 21  1  0  0  0  0
 20 22  1  0  0  0  0
 20 23  1  0  0  0  0
 23 24  1  0  0  0  0
 23 25  1  0  0  0  0
 23 26  1  0  0  0  0
 27 28  2  0  0  0  0
 27 29  1  0  0  0  0
 29 30  1  0  0  0  0
 29 31  1  0  0  0  0
 31 32  1  0  0  0  0
 31 33  1  0  0  0  0
 31 34  1  0  0  0  0
M  CHG  1  23   1
M  END
$$$$

  -OEChem-01062216093D

 34 33  0     1  0  0  0  0  0999 V2000
   -3.6095   -2.4915    0.6459 H   0  0  0  0  0  0  0  0  0  0  0  0
   -3.5894   -1.4480    0.3189 C   0  0  0  0  0  0  0  0  0  0  0  0
   -4.4878   -0.9462    0.6855 H   0  0  0  0  0  0  0  0  0  0  0  0
   -3.5865   -1.4248   -0.7739 H   0  0  0  0  0  0  0  0  0  0  0  0
   -2.3505   -0.7557    0.8535 C   0  0  0  0  0  0  0  0  0  0  0  0
   -1.5881   -1.3756    1.5755 O   0  0  0  0  0  0  0  0  0  0  0  0
   -2.1175    0.5646    0.5099 N   0  0  0  0  0  0  0  0  0  0  0  0
   -2.7262    0.8906   -0.2392 H   0  0  0  0  0  0  0  0  0  0  0  0
   -0.8220    1.2753    0.6037 C   0  0  1  0  0  0  0  0  0  0  0  0
   -1.0129    2.3324    0.3943 H   0  0  0  0  0  0  0  0  0  0  0  0
   -0.1429    1.2169    1.9966 C   0  0  0  0  0  0  0  0  0  0  0  0
    0.0232    0.1915    2.3326 H   0  0  0  0  0  0  0  0  0  0  0  0
    0.8448    1.6835    1.9202 H   0  0  0  0  0  0  0  0  0  0  0  0
   -0.9504    2.0084    3.0338 C   0  0  0  0  0  0  0  0  0  0  0  0
   -1.0566    3.0474    2.7029 H   0  0  0  0  0  0  0  0  0  0  0  0
   -1.9540    1.5754    3.1144 H   0  0  0  0  0  0  0  0  0  0  0  0
   -0.2602    1.9646    4.4014 C   0  0  0  0  0  0  0  0  0  0  0  0
   -0.1513    0.9203    4.7162 H   0  0  0  0  0  0  0  0  0  0  0  0
    0.7410    2.4020    4.3204 H   0  0  0  0  0  0  0  0  0  0  0  0
   -1.0869    2.7343    5.4287 C   0  0  0  0  0  0  0  0  0  0  0  0
   -1.1952    3.7779    5.0983 H   0  0  0  0  0  0  0  0  0  0  0  0
   -2.0977    2.3027    5.4747 H   0  0  0  0  0  0  0  0  0  0  0  0
   -0.4157    2.6581    6.7445 N   0  3  0  0  0  0  0  0  0  0  0  0
    0.5188    3.0670    6.6855 H   0  0  0  0  0  0  0  0  0  0  0  0
   -0.9574    3.1675    7.4463 H   0  0  0  0  0  0  0  0  0  0  0  0
   -0.3322    1.6818    7.0359 H   0  0  0  0  0  0  0  0  0  0  0  0
    0.0934    0.7999   -0.5518 C   0  0  0  0  0  0  0  0  0  0  0  0
   -0.3708    0.7891   -1.6842 O   0  0  0  0  0  0  0  0  0  0  0  0
    1.4257    0.4708   -0.3717 N   0  0  0  0  0  0  0  0  0  0  0  0
    1.7389    0.3230    0.5823 H   0  0  0  0  0  0  0  0  0  0  0  0
    2.2674   -0.0161   -1.4609 C   0  0  0  0  0  0  0  0  0  0  0  0
    2.3053    0.7165   -2.2746 H   0  0  0  0  0  0  0  0  0  0  0  0
    3.2887   -0.1862   -1.1063 H   0  0  0  0  0  0  0  0  0  0  0  0
    1.8754   -0.9593   -1.8568 H   0  0  0  0  0  0  0  0  0  0  0  0
  1  2  1  0  0  0  0
  2  3  1  0  0  0  0
  2  4  1  0  0  0  0
  2  5  1  0  0  0  0
  5  6  2  0  0  0  0
  5  7  1  0  0  0  0
  7  8  1  0  0  0  0
  7  9  1  0  0  0  0
  9 10  1  0  0  0  0
  9 11  1  0  0  0  0
  9 27  1  0  0  0  0
 11 12  1  0  0  0  0
 11 13  1  0  0  0  0
 11 14  1  0  0  0  0
 14 15  1  0  0  0  0
 14 16  1  0  0  0  0
 14 17  1  0  0  0  0
 17 18  1  0  0  0  0
 17 19  1  0  0  0  0
 17 20  1  0  0  0  0
 20 21  1  0  0  0  0
 20 22  1  0  0  0  0
 20 23  1  0  0  0  0
 23 24  1  0  0  0  0
 23 25  1  0  0  0  0
 23 26  1  0  0  0  0
 27 28  2  0  0  0  0
 27 29  1  0  0  0  0
 29 30  1  0  0  0  0
 29 31  1  0  0  0  0
 31 32  1  0  0  0  0
 31 33  1  0  0  0  0
 31 34  1  0  0  0  0
M  CHG  1  23   1
M  END
$$$$

  -OEChem-01062216093D

 34 33  0     1  0  0  0  0  0999 V2000
   -3.6218   -2.4874    0.6716 H   0  0  0  0  0  0  0  0  0  0  0  0
   -3.6003   -1.4444    0.3424 C   0  0  0  0  0  0  0  0  0  0  0  0
   -4.4806   -0.9324    0.7382 H   0  0  0  0  0  0  0  0  0  0  0  0
   -3.6344   -1.4221   -0.7499 H   0  0  0  0  0  0  0  0  0  0  0  0
   -2.3359   -0.7661    0.8345 C   0  0  0  0  0  0  0  0  0  0  0  0
   -1.5399   -1.4009    1.5058 O   0  0  0  0  0  0  0  0  0  0  0  0
   -2.1038    0.5551    0.4957 N   0  0  0  0  0  0  0  0  0  0  0  0
   -2.7364    0.9089   -0.2199 H   0  0  0  0  0  0  0  0  0  0  0  0
   -0.8114    1.2662    0.6026 C   0  0  1  0  0  0  0  0  0  0  0  0
   -1.0041    2.3231    0.3921 H   0  0  0  0  0  0  0  0  0  0  0  0
   -0.1402    1.2149    1.9986 C   0  0  0  0  0  0  0  0  0  0  0  0
    0.0188    0.1908    2.3412 H   0  0  0  0  0  0  0  0  0  0  0  0
    0.8502    1.6766    1.9210 H   0  0  0  0  0  0  0  0  0  0  0  0
   -0.9523    2.0083    3.0309 C   0  0  0  0  0  0  0  0  0  0  0  0
   -1.0592    3.0463    2.6964 H   0  0  0  0  0  0  0  0  0  0  0  0
   -1.9556    1.5744    3.1098 H   0  0  0  0  0  0  0  0  0  0  0  0
   -0.2648    1.9688    4.4004 C   0  0  0  0  0  0  0  0  0  0  0  0
   -0.1549    0.9258    4.7186 H   0  0  0  0  0  0  0  0  0  0  0  0
    0.7362    2.4070    4.3198 H   0  0  0  0  0  0  0  0  0  0  0  0
   -1.0926    2.7393    5.4259 C   0  0  0  0  0  0  0  0  0  0  0  0
   -1.2018    3.7823    5.0941 H   0  0  0  0  0  0  0  0  0  0  0  0
   -2.1029    2.3066    5.4733 H   0  0  0  0  0  0  0  0  0  0  0  0
   -0.4194    2.6641    6.7406 N   0  3  0  0  0  0  0  0  0  0  0  0
    0.5180    3.0657    6.6772 H   0  0  0  0  0  0  0  0  0  0  0  0
   -0.9554    3.1811    7.4410 H   0  0  0  0  0  0  0  0  0  0  0  0
   -0.3422    1.6887    7.0367 H   0  0  0  0  0  0  0  0  0  0  0  0
    0.1158    0.7967   -0.5424 C   0  0  0  0  0  0  0  0  0  0  0  0
   -0.2433    1.0035   -1.6933 O   0  0  0  0  0  0  0  0  0  0  0  0
    1.3372    0.1890   -0.3115 N   0  0  0  0  0  0  0  0  0  0  0  0
    1.4941   -0.1656    0.6274 H   0  0  0  0  0  0  0  0  0  0  0  0
    2.1622   -0.3397   -1.3938 C   0  0  0  0  0  0  0  0  0  0  0  0
    2.4194    0.4539   -2.1036 H   0  0  0  0  0  0  0  0  0  0  0  0
    3.0917   -0.7567   -0.9945 H   0  0  0  0  0  0  0  0  0  0  0  0
    1.6293   -1.1312   -1.9317 H   0  0  0  0  0  0  0  0  0  0  0  0
  1  2  1  0  0  0  0
  2  3  1  0  0  0  0
  2  4  1  0  0  0  0
  2  5  1  0  0  0  0
  5  6  2  0  0  0  0
  5  7  1  0  0  0  0
  7  8  1  0  0  0  0
  7  9  1  0  0  0  0
  9 10  1  0  0  0  0
  9 11  1  0  0  0  0
  9 27  1  0  0  0  0
 11 12  1  0  0  0  0
 11 13  1  0  0  0  0
 11 14  1  0  0  0  0
 14 15  1  0  0  0  0
 14 16  1  0  0  0  0
 14 17  1  0  0  0  0
 17 18  1  0  0  0  0
 17 19  1  0  0  0  0
 17 20  1  0  0  0  0
 20 21  1  0  0  0  0
 20 22  1  0  0  0  0
 20 23  1  0  0  0  0
 23 24  1  0  0  0  0
 23 25  1  0  0  0  0
 23 26  1  0  0  0  0
 27 28  2  0  0  0  0
 27 29  1  0  0  0  0
 29 30  1  0  0  0  0
 29 31  1  0  0  0  0
 31 32  1  0  0  0  0
 31 33  1  0  0  0  0
 31 34  1  0  0  0  0
M  CHG  1  23   1
M  END
$$$$

  -OEChem-01062216093D

 34 33  0     1  0  0  0  0  0999 V2000
   -3.6583   -2.4731    0.7398 H   0  0  0  0  0  0  0  0  0  0  0  0
   -3.6366   -1.4326    0.4033 C   0  0  0  0  0  0  0  0  0  0  0  0
   -4.4814   -0.9018    0.8484 H   0  0  0  0  0  0  0  0  0  0  0  0
   -3.7360   -1.4151   -0.6850 H   0  0  0  0  0  0  0  0  0  0  0  0
   -2.3323   -0.7770    0.8152 C   0  0  0  0  0  0  0  0  0  0  0  0
   -1.4973   -1.4303    1.4190 O   0  0  0  0  0  0  0  0  0  0  0  0
   -2.0970    0.5422    0.4709 N   0  0  0  0  0  0  0  0  0  0  0  0
   -2.7620    0.9289   -0.1964 H   0  0  0  0  0  0  0  0  0  0  0  0
   -0.8054    1.2519    0.5865 C   0  0  1  0  0  0  0  0  0  0  0  0
   -0.9967    2.3086    0.3712 H   0  0  0  0  0  0  0  0  0  0  0  0
   -0.1433    1.2061    1.9860 C   0  0  0  0  0  0  0  0  0  0  0  0
    0.0078    0.1823    2.3340 H   0  0  0  0  0  0  0  0  0  0  0  0
    0.8509    1.6604    1.9083 H   0  0  0  0  0  0  0  0  0  0  0  0
   -0.9569    2.0037    3.0137 C   0  0  0  0  0  0  0  0  0  0  0  0
   -1.0598    3.0416    2.6778 H   0  0  0  0  0  0  0  0  0  0  0  0
   -1.9614    1.5729    3.0920 H   0  0  0  0  0  0  0  0  0  0  0  0
   -0.2694    1.9629    4.3829 C   0  0  0  0  0  0  0  0  0  0  0  0
   -0.1623    0.9194    4.7008 H   0  0  0  0  0  0  0  0  0  0  0  0
    0.7330    2.3979    4.3006 H   0  0  0  0  0  0  0  0  0  0  0  0
   -1.0927    2.7359    5.4102 C   0  0  0  0  0  0  0  0  0  0  0  0
   -1.1991    3.7796    5.0794 H   0  0  0  0  0  0  0  0  0  0  0  0
   -2.1044    2.3068    5.4591 H   0  0  0  0  0  0  0  0  0  0  0  0
   -0.4167    2.6573    6.7233 N   0  3  0  0  0  0  0  0  0  0  0  0
    0.5224    3.0547    6.6573 H   0  0  0  0  0  0  0  0  0  0  0  0
   -0.9484    3.1766    7.4253 H   0  0  0  0  0  0  0  0  0  0  0  0
   -0.3427    1.6816    7.0189 H   0  0  0  0  0  0  0  0  0  0  0  0
    0.1389    0.7818   -0.5407 C   0  0  0  0  0  0  0  0  0  0  0  0
   -0.0480    1.2061   -1.6719 O   0  0  0  0  0  0  0  0  0  0  0  0
    1.1917   -0.0798   -0.2937 N   0  0  0  0  0  0  0  0  0  0  0  0
    1.1423   -0.5976    0.5806 H   0  0  0  0  0  0  0  0  0  0  0  0
    2.0216   -0.6210   -1.3648 C   0  0  0  0  0  0  0  0  0  0  0  0
    2.5012    0.1883   -1.9258 H   0  0  0  0  0  0  0  0  0  0  0  0
    2.8063   -1.2615   -0.9505 H   0  0  0  0  0  0  0  0  0  0  0  0
    1.4163   -1.2164   -2.0567 H   0  0  0  0  0  0  0  0  0  0  0  0
  1  2  1  0  0  0  0
  2  3  1  0  0  0  0
  2  4  1  0  0  0  0
  2  5  1  0  0  0  0
  5  6  2  0  0  0  0
  5  7  1  0  0  0  0
  7  8  1  0  0  0  0
  7  9  1  0  0  0  0
  9 10  1  0  0  0  0
  9 11  1  0  0  0  0
  9 27  1  0  0  0  0
 11 12  1  0  0  0  0
 11 13  1  0  0  0  0
 11 14  1  0  0  0  0
 14 15  1  0  0  0  0
 14 16  1  0  0  0  0
 14 17  1  0  0  0  0
 17 18  1  0  0  0  0
 17 19  1  0  0  0  0
 17 20  1  0  0  0  0
 20 21  1  0  0  0  0
 20 22  1  0  0  0  0
 20 23  1  0  0  0  0
 23 24  1  0  0  0  0
 23 25  1  0  0  0  0
 23 26  1  0  0  0  0
 27 28  2  0  0  0  0
 27 29  1  0  0  0  0
 29 30  1  0  0  0  0
 29 31  1  0  0  0  0
 31 32  1  0  0  0  0
 31 33  1  0  0  0  0
 31 34  1  0  0  0  0
M  CHG  1  23   1
M  END
$$$$

  -OEChem-01062216093D

 34 33  0     1  0  0  0  0  0999 V2000
   -3.6998   -2.4638    0.7904 H   0  0  0  0  0  0  0  0  0  0  0  0
   -3.6766   -1.4244    0.4502 C   0  0  0  0  0  0  0  0  0  0  0  0
   -4.4915   -0.8790    0.9319 H   0  0  0  0  0  0  0  0  0  0  0  0
   -3.8256   -1.4079   -0.6324 H   0  0  0  0  0  0  0  0  0  0  0  0
   -2.3447   -0.7884    0.7997 C   0  0  0  0  0  0  0  0  0  0  0  0
   -1.4783   -1.4595    1.3375 O   0  0  0  0  0  0  0  0  0  0  0  0
   -2.1049    0.5282    0.4495 N   0  0  0  0  0  0  0  0  0  0  0  0
   -2.8016    0.9484   -0.1625 H   0  0  0  0  0  0  0  0  0  0  0  0
   -0.8116    1.2324    0.5717 C   0  0  1  0  0  0  0  0  0  0  0  0
   -1.0015    2.2889    0.3536 H   0  0  0  0  0  0  0  0  0  0  0  0
   -0.1537    1.1917    1.9717 C   0  0  0  0  0  0  0  0  0  0  0  0
   -0.0109    0.1681    2.3241 H   0  0  0  0  0  0  0  0  0  0  0  0
    0.8442    1.6371    1.8919 H   0  0  0  0  0  0  0  0  0  0  0  0
   -0.9625    1.9961    2.9971 C   0  0  0  0  0  0  0  0  0  0  0  0
   -1.0586    3.0339    2.6583 H   0  0  0  0  0  0  0  0  0  0  0  0
   -1.9696    1.5716    3.0780 H   0  0  0  0  0  0  0  0  0  0  0  0
   -0.2700    1.9542    4.3643 C   0  0  0  0  0  0  0  0  0  0  0  0
   -0.1660    0.9108    4.6830 H   0  0  0  0  0  0  0  0  0  0  0  0
    0.7340    2.3838    4.2767 H   0  0  0  0  0  0  0  0  0  0  0  0
   -1.0834    2.7328    5.3946 C   0  0  0  0  0  0  0  0  0  0  0  0
   -1.1841    3.7767    5.0627 H   0  0  0  0  0  0  0  0  0  0  0  0
   -2.0978    2.3107    5.4493 H   0  0  0  0  0  0  0  0  0  0  0  0
   -0.4011    2.6517    6.7044 N   0  3  0  0  0  0  0  0  0  0  0  0
    0.5375    3.0502    6.6350 H   0  0  0  0  0  0  0  0  0  0  0  0
   -0.9297    3.1693    7.4099 H   0  0  0  0  0  0  0  0  0  0  0  0
   -0.3248    1.6755    6.9975 H   0  0  0  0  0  0  0  0  0  0  0  0
    0.1483    0.7605   -0.5389 C   0  0  0  0  0  0  0  0  0  0  0  0
    0.1941    1.3854   -1.5882 O   0  0  0  0  0  0  0  0  0  0  0  0
    0.9864   -0.3191   -0.3342 N   0  0  0  0  0  0  0  0  0  0  0  0
    0.7182   -0.9392    0.4300 H   0  0  0  0  0  0  0  0  0  0  0  0
    1.8381   -0.8559   -1.3900 C   0  0  0  0  0  0  0  0  0  0  0  0
    2.5159   -0.0827   -1.7676 H   0  0  0  0  0  0  0  0  0  0  0  0
    2.4428   -1.6833   -1.0058 H   0  0  0  0  0  0  0  0  0  0  0  0
    1.2304   -1.2263   -2.2225 H   0  0  0  0  0  0  0  0  0  0  0  0
  1  2  1  0  0  0  0
  2  3  1  0  0  0  0
  2  4  1  0  0  0  0
  2  5  1  0  0  0  0
  5  6  2  0  0  0  0
  5  7  1  0  0  0  0
  7  8  1  0  0  0  0
  7  9  1  0  0  0  0
  9 10  1  0  0  0  0
  9 11  1  0  0  0  0
  9 27  1  0  0  0  0
 11 12  1  0  0  0  0
 11 13  1  0  0  0  0
 11 14  1  0  0  0  0
 14 15  1  0  0  0  0
 14 16  1  0  0  0  0
 14 17  1  0  0  0  0
 17 18  1  0  0  0  0
 17 19  1  0  0  0  0
 17 20  1  0  0  0  0
 20 21  1  0  0  0  0
 20 22  1  0  0  0  0
 20 23  1  0  0  0  0
 23 24  1  0  0  0  0
 23 25  1  0  0  0  0
 23 26  1  0  0  0  0
 27 28  2  0  0  0  0
 27 29  1  0  0  0  0
 29 30  1  0  0  0  0
 29 31  1  0  0  0  0
 31 32  1  0  0  0  0
 31 33  1  0  0  0  0
 31 34  1  0  0  0  0
M  CHG  1  23   1
M  END
$$$$

  -OEChem-01062216093D

 34 33  0     1  0  0  0  0  0999 V2000
   -3.7631   -2.4400    0.8504 H   0  0  0  0  0  0  0  0  0  0  0  0
   -3.7302   -1.4044    0.4998 C   0  0  0  0  0  0  0  0  0  0  0  0
   -4.5174   -0.8385    1.0034 H   0  0  0  0  0  0  0  0  0  0  0  0
   -3.9154   -1.3940   -0.5774 H   0  0  0  0  0  0  0  0  0  0  0  0
   -2.3747   -0.7930    0.7980 C   0  0  0  0  0  0  0  0  0  0  0  0
   -1.5016   -1.4774    1.3073 O   0  0  0  0  0  0  0  0  0  0  0  0
   -2.1211    0.5152    0.4278 N   0  0  0  0  0  0  0  0  0  0  0  0
   -2.8433    0.9574   -0.1372 H   0  0  0  0  0  0  0  0  0  0  0  0
   -0.8288    1.2252    0.5439 C   0  0  1  0  0  0  0  0  0  0  0  0
   -1.0210    2.2795    0.3178 H   0  0  0  0  0  0  0  0  0  0  0  0
   -0.1682    1.1865    1.9417 C   0  0  0  0  0  0  0  0  0  0  0  0
   -0.0228    0.1610    2.2882 H   0  0  0  0  0  0  0  0  0  0  0  0
    0.8290    1.6329    1.8577 H   0  0  0  0  0  0  0  0  0  0  0  0
   -0.9719    1.9862    2.9751 C   0  0  0  0  0  0  0  0  0  0  0  0
   -1.0731    3.0245    2.6402 H   0  0  0  0  0  0  0  0  0  0  0  0
   -1.9767    1.5581    3.0620 H   0  0  0  0  0  0  0  0  0  0  0  0
   -0.2695    1.9419    4.3379 C   0  0  0  0  0  0  0  0  0  0  0  0
   -0.1586    0.8979    4.6523 H   0  0  0  0  0  0  0  0  0  0  0  0
    0.7323    2.3760    4.2441 H   0  0  0  0  0  0  0  0  0  0  0  0
   -1.0750    2.7146    5.3793 C   0  0  0  0  0  0  0  0  0  0  0  0
   -1.1807    3.7597    5.0533 H   0  0  0  0  0  0  0  0  0  0  0  0
   -2.0874    2.2893    5.4421 H   0  0  0  0  0  0  0  0  0  0  0  0
   -0.3802    2.6293    6.6824 N   0  3  0  0  0  0  0  0  0  0  0  0
    0.5588    3.0252    6.6037 H   0  0  0  0  0  0  0  0  0  0  0  0
   -0.8998    3.1476    7.3941 H   0  0  0  0  0  0  0  0  0  0  0  0
   -0.3034    1.6525    6.9738 H   0  0  0  0  0  0  0  0  0  0  0  0
    0.1519    0.7453   -0.5448 C   0  0  0  0  0  0  0  0  0  0  0  0
    0.4267    1.4894   -1.4743 O   0  0  0  0  0  0  0  0  0  0  0  0
    0.7649   -0.4880   -0.4340 N   0  0  0  0  0  0  0  0  0  0  0  0
    0.3556   -1.1259    0.2519 H   0  0  0  0  0  0  0  0  0  0  0  0
    1.6344   -1.0358   -1.4690 C   0  0  0  0  0  0  0  0  0  0  0  0
    2.4788   -0.3639   -1.6563 H   0  0  0  0  0  0  0  0  0  0  0  0
    2.0314   -2.0065   -1.1560 H   0  0  0  0  0  0  0  0  0  0  0  0
    1.0809   -1.1721   -2.4042 H   0  0  0  0  0  0  0  0  0  0  0  0
  1  2  1  0  0  0  0
  2  3  1  0  0  0  0
  2  4  1  0  0  0  0
  2  5  1  0  0  0  0
  5  6  2  0  0  0  0
  5  7  1  0  0  0  0
  7  8  1  0  0  0  0
  7  9  1  0  0  0  0
  9 10  1  0  0  0  0
  9 11  1  0  0  0  0
  9 27  1  0  0  0  0
 11 12  1  0  0  0  0
 11 13  1  0  0  0  0
 11 14  1  0  0  0  0
 14 15  1  0  0  0  0
 14 16  1  0  0  0  0
 14 17  1  0  0  0  0
 17 18  1  0  0  0  0
 17 19  1  0  0  0  0
 17 20  1  0  0  0  0
 20 21  1  0  0  0  0
 20 22  1  0  0  0  0
 20 23  1  0  0  0  0
 23 24  1  0  0  0  0
 23 25  1  0  0  0  0
 23 26  1  0  0  0  0
 27 28  2  0  0  0  0
 27 29  1  0  0  0  0
 29 30  1  0  0  0  0
 29 31  1  0  0  0  0
 31 32  1  0  0  0  0
 31 33  1  0  0  0  0
 31 34  1  0  0  0  0
M  CHG  1  23   1
M  END
$$$$

  -OEChem-01062216093D

 34 33  0     1  0  0  0  0  0999 V2000
   -3.8523   -2.4073    0.9271 H   0  0  0  0  0  0  0  0  0  0  0  0
   -3.8043   -1.3779    0.5601 C   0  0  0  0  0  0  0  0  0  0  0  0
   -4.5616   -0.7849    1.0782 H   0  0  0  0  0  0  0  0  0  0  0  0
   -4.0216   -1.3787   -0.5111 H   0  0  0  0  0  0  0  0  0  0  0  0
   -2.4256   -0.7970    0.8095 C   0  0  0  0  0  0  0  0  0  0  0  0
   -1.5544   -1.4996    1.2958 O   0  0  0  0  0  0  0  0  0  0  0  0
   -2.1525    0.5023    0.4219 N   0  0  0  0  0  0  0  0  0  0  0  0
   -2.8892    0.9620   -0.1090 H   0  0  0  0  0  0  0  0  0  0  0  0
   -0.8547    1.2092    0.5196 C   0  0  1  0  0  0  0  0  0  0  0  0
   -1.0458    2.2630    0.2895 H   0  0  0  0  0  0  0  0  0  0  0  0
   -0.1904    1.1690    1.9145 C   0  0  0  0  0  0  0  0  0  0  0  0
   -0.0508    0.1419    2.2594 H   0  0  0  0  0  0  0  0  0  0  0  0
    0.8100    1.6081    1.8274 H   0  0  0  0  0  0  0  0  0  0  0  0
   -0.9842    1.9751    2.9508 C   0  0  0  0  0  0  0  0  0  0  0  0
   -1.0789    3.0142    2.6158 H   0  0  0  0  0  0  0  0  0  0  0  0
   -1.9922    1.5558    3.0434 H   0  0  0  0  0  0  0  0  0  0  0  0
   -0.2726    1.9242    4.3081 C   0  0  0  0  0  0  0  0  0  0  0  0
   -0.1686    0.8789    4.6205 H   0  0  0  0  0  0  0  0  0  0  0  0
    0.7327    2.3487    4.2072 H   0  0  0  0  0  0  0  0  0  0  0  0
   -1.0626    2.7016    5.3578 C   0  0  0  0  0  0  0  0  0  0  0  0
   -1.1630    3.7484    5.0350 H   0  0  0  0  0  0  0  0  0  0  0  0
   -2.0783    2.2853    5.4295 H   0  0  0  0  0  0  0  0  0  0  0  0
   -0.3550    2.6065    6.6534 N   0  3  0  0  0  0  0  0  0  0  0  0
    0.5840    3.0009    6.5678 H   0  0  0  0  0  0  0  0  0  0  0  0
   -0.8665    3.1209    7.3739 H   0  0  0  0  0  0  0  0  0  0  0  0
   -0.2771    1.6276    6.9370 H   0  0  0  0  0  0  0  0  0  0  0  0
    0.1406    0.7285   -0.5566 C   0  0  0  0  0  0  0  0  0  0  0  0
    0.6252    1.5417   -1.3293 O   0  0  0  0  0  0  0  0  0  0  0  0
    0.5309   -0.5952   -0.6101 N   0  0  0  0  0  0  0  0  0  0  0  0
    0.0564   -1.2386    0.0276 H   0  0  0  0  0  0  0  0  0  0  0  0
    1.4459   -1.1268   -1.6127 C   0  0  0  0  0  0  0  0  0  0  0  0
    2.4063   -0.6018   -1.5725 H   0  0  0  0  0  0  0  0  0  0  0  0
    1.6278   -2.1909   -1.4336 H   0  0  0  0  0  0  0  0  0  0  0  0
    1.0236   -1.0117   -2.6166 H   0  0  0  0  0  0  0  0  0  0  0  0
  1  2  1  0  0  0  0
  2  3  1  0  0  0  0
  2  4  1  0  0  0  0
  2  5  1  0  0  0  0
  5  6  2  0  0  0  0
  5  7  1  0  0  0  0
  7  8  1  0  0  0  0
  7  9  1  0  0  0  0
  9 10  1  0  0  0  0
  9 11  1  0  0  0  0
  9 27  1  0  0  0  0
 11 12  1  0  0  0  0
 11 13  1  0  0  0  0
 11 14  1  0  0  0  0
 14 15  1  0  0  0  0
 14 16  1  0  0  0  0
 14 17  1  0  0  0  0
 17 18  1  0  0  0  0
 17 19  1  0  0  0  0
 17 20  1  0  0  0  0
 20 21  1  0  0  0  0
 20 22  1  0  0  0  0
 20 23  1  0  0  0  0
 23 24  1  0  0  0  0
 23 25  1  0  0  0  0
 23 26  1  0  0  0  0
 27 28  2  0  0  0  0
 27 29  1  0  0  0  0
 29 30  1  0  0  0  0
 29 31  1  0  0  0  0
 31 32  1  0  0  0  0
 31 33  1  0  0  0  0
 31 34  1  0  0  0  0
M  CHG  1  23   1
M  END
$$$$

  -OEChem-01062216093D

 34 33  0     1  0  0  0  0  0999 V2000
   -3.9199   -2.3831    0.9921 H   0  0  0  0  0  0  0  0  0  0  0  0
   -3.8688   -1.3571    0.6161 C   0  0  0  0  0  0  0  0  0  0  0  0
   -4.6003   -0.7492    1.1534 H   0  0  0  0  0  0  0  0  0  0  0  0
   -4.1201   -1.3614   -0.4476 H   0  0  0  0  0  0  0  0  0  0  0  0
   -2.4748   -0.7953    0.8179 C   0  0  0  0  0  0  0  0  0  0  0  0
   -1.5969   -1.5114    1.2695 O   0  0  0  0  0  0  0  0  0  0  0  0
   -2.1950    0.4981    0.4160 N   0  0  0  0  0  0  0  0  0  0  0  0
   -2.9479    0.9720   -0.0781 H   0  0  0  0  0  0  0  0  0  0  0  0
   -0.8935    1.2041    0.4927 C   0  0  1  0  0  0  0  0  0  0  0  0
   -1.0854    2.2573    0.2611 H   0  0  0  0  0  0  0  0  0  0  0  0
   -0.2179    1.1596    1.8814 C   0  0  0  0  0  0  0  0  0  0  0  0
   -0.0799    0.1304    2.2212 H   0  0  0  0  0  0  0  0  0  0  0  0
    0.7836    1.5949    1.7875 H   0  0  0  0  0  0  0  0  0  0  0  0
   -0.9972    1.9655    2.9280 C   0  0  0  0  0  0  0  0  0  0  0  0
   -1.0899    3.0061    2.5970 H   0  0  0  0  0  0  0  0  0  0  0  0
   -2.0061    1.5508    3.0301 H   0  0  0  0  0  0  0  0  0  0  0  0
   -0.2707    1.9072    4.2771 C   0  0  0  0  0  0  0  0  0  0  0  0
   -0.1679    0.8603    4.5847 H   0  0  0  0  0  0  0  0  0  0  0  0
    0.7349    2.3279    4.1660 H   0  0  0  0  0  0  0  0  0  0  0  0
   -1.0457    2.6845    5.3374 C   0  0  0  0  0  0  0  0  0  0  0  0
   -1.1439    3.7326    5.0183 H   0  0  0  0  0  0  0  0  0  0  0  0
   -2.0625    2.2730    5.4189 H   0  0  0  0  0  0  0  0  0  0  0  0
   -0.3245    2.5824    6.6249 N   0  3  0  0  0  0  0  0  0  0  0  0
    0.6177    2.9665    6.5281 H   0  0  0  0  0  0  0  0  0  0  0  0
   -0.8218    3.1030    7.3507 H   0  0  0  0  0  0  0  0  0  0  0  0
   -0.2538    1.6030    6.9084 H   0  0  0  0  0  0  0  0  0  0  0  0
    0.1072    0.7252   -0.5805 C   0  0  0  0  0  0  0  0  0  0  0  0
    0.7817    1.5536   -1.1744 O   0  0  0  0  0  0  0  0  0  0  0  0
    0.2835   -0.6205   -0.8366 N   0  0  0  0  0  0  0  0  0  0  0  0
   -0.2235   -1.2702   -0.2316 H   0  0  0  0  0  0  0  0  0  0  0  0
    1.2612   -1.1426   -1.7835 C   0  0  0  0  0  0  0  0  0  0  0  0
    2.2748   -0.8476   -1.4925 H   0  0  0  0  0  0  0  0  0  0  0  0
    1.2136   -2.2357   -1.8122 H   0  0  0  0  0  0  0  0  0  0  0  0
    1.0601   -0.7622   -2.7906 H   0  0  0  0  0  0  0  0  0  0  0  0
  1  2  1  0  0  0  0
  2  3  1  0  0  0  0
  2  4  1  0  0  0  0
  2  5  1  0  0  0  0
  5  6  2  0  0  0  0
  5  7  1  0  0  0  0
  7  8  1  0  0  0  0
  7  9  1  0  0  0  0
  9 10  1  0  0  0  0
  9 11  1  0  0  0  0
  9 27  1  0  0  0  0
 11 12  1  0  0  0  0
 11 13  1  0  0  0  0
 11 14  1  0  0  0  0
 14 15  1  0  0  0  0
 14 16  1  0  0  0  0
 14 17  1  0  0  0  0
 17 18  1  0  0  0  0
 17 19  1  0  0  0  0
 17 20  1  0  0  0  0
 20 21  1  0  0  0  0
 20 22  1  0  0  0  0
 20 23  1  0  0  0  0
 23 24  1  0  0  0  0
 23 25  1  0  0  0  0
 23 26  1  0  0  0  0
 27 28  2  0  0  0  0
 27 29  1  0  0  0  0
 29 30  1  0  0  0  0
 29 31  1  0  0  0  0
 31 32  1  0  0  0  0
 31 33  1  0  0  0  0
 31 34  1  0  0  0  0
M  CHG  1  23   1
M  END
$$$$

  -OEChem-01062216093D

 34 33  0     1  0  0  0  0  0999 V2000
   -3.9688   -2.3625    1.0548 H   0  0  0  0  0  0  0  0  0  0  0  0
   -3.9168   -1.3380    0.6749 C   0  0  0  0  0  0  0  0  0  0  0  0
   -4.6158   -0.7186    1.2418 H   0  0  0  0  0  0  0  0  0  0  0  0
   -4.2130   -1.3400   -0.3773 H   0  0  0  0  0  0  0  0  0  0  0  0
   -2.5063   -0.7979    0.8166 C   0  0  0  0  0  0  0  0  0  0  0  0
   -1.6153   -1.5313    1.2089 O   0  0  0  0  0  0  0  0  0  0  0  0
   -2.2233    0.4923    0.4083 N   0  0  0  0  0  0  0  0  0  0  0  0
   -2.9924    0.9849   -0.0401 H   0  0  0  0  0  0  0  0  0  0  0  0
   -0.9193    1.1967    0.4726 C   0  0  1  0  0  0  0  0  0  0  0  0
   -1.1124    2.2490    0.2391 H   0  0  0  0  0  0  0  0  0  0  0  0
   -0.2418    1.1523    1.8613 C   0  0  0  0  0  0  0  0  0  0  0  0
   -0.1101    0.1216    2.1997 H   0  0  0  0  0  0  0  0  0  0  0  0
    0.7622    1.5820    1.7669 H   0  0  0  0  0  0  0  0  0  0  0  0
   -1.0113    1.9614    2.9121 C   0  0  0  0  0  0  0  0  0  0  0  0
   -1.1012    3.0026    2.5828 H   0  0  0  0  0  0  0  0  0  0  0  0
   -2.0213    1.5515    3.0207 H   0  0  0  0  0  0  0  0  0  0  0  0
   -0.2748    1.8965    4.2558 C   0  0  0  0  0  0  0  0  0  0  0  0
   -0.1760    0.8483    4.5610 H   0  0  0  0  0  0  0  0  0  0  0  0
    0.7326    2.3115    4.1381 H   0  0  0  0  0  0  0  0  0  0  0  0
   -1.0366    2.6757    5.3235 C   0  0  0  0  0  0  0  0  0  0  0  0
   -1.1308    3.7253    5.0079 H   0  0  0  0  0  0  0  0  0  0  0  0
   -2.0548    2.2692    5.4114 H   0  0  0  0  0  0  0  0  0  0  0  0
   -0.3050    2.5662    6.6044 N   0  3  0  0  0  0  0  0  0  0  0  0
    0.6400    2.9416    6.4994 H   0  0  0  0  0  0  0  0  0  0  0  0
   -0.7911    3.0909    7.3348 H   0  0  0  0  0  0  0  0  0  0  0  0
   -0.2407    1.5858    6.8867 H   0  0  0  0  0  0  0  0  0  0  0  0
    0.0898    0.7261   -0.5981 C   0  0  0  0  0  0  0  0  0  0  0  0
    0.9195    1.5228   -1.0128 O   0  0  0  0  0  0  0  0  0  0  0  0
    0.0757   -0.5680   -1.0806 N   0  0  0  0  0  0  0  0  0  0  0  0
   -0.4823   -1.2337   -0.5436 H   0  0  0  0  0  0  0  0  0  0  0  0
    1.0786   -1.0812   -2.0065 C   0  0  0  0  0  0  0  0  0  0  0  0
    2.0754   -1.0406   -1.5550 H   0  0  0  0  0  0  0  0  0  0  0  0
    0.8572   -2.1210   -2.2666 H   0  0  0  0  0  0  0  0  0  0  0  0
    1.0872   -0.4904   -2.9286 H   0  0  0  0  0  0  0  0  0  0  0  0
  1  2  1  0  0  0  0
  2  3  1  0  0  0  0
  2  4  1  0  0  0  0
  2  5  1  0  0  0  0
  5  6  2  0  0  0  0
  5  7  1  0  0  0  0
  7  8  1  0  0  0  0
  7  9  1  0  0  0  0
  9 10  1  0  0  0  0
  9 11  1  0  0  0  0
  9 27  1  0  0  0  0
 11 12  1  0  0  0  0
 11 13  1  0  0  0  0
 11 14  1  0  0  0  0
 14 15  1  0  0  0  0
 14 16  1  0  0  0  0
 14 17  1  0  0  0  0
 17 18  1  0  0  0  0
 17 19  1  0  0  0  0
 17 20  1  0  0  0  0
 20 21  1  0  0  0  0
 20 22  1  0  0  0  0
 20 23  1  0  0  0  0
 23 24  1  0  0  0  0
 23 25  1  0  0  0  0
 23 26  1  0  0  0  0
 27 28  2  0  0  0  0
 27 29  1  0  0  0  0
 29 30  1  0  0  0  0
 29 31  1  0  0  0  0
 31 32  1  0  0  0  0
 31 33  1  0  0  0  0
 31 34  1  0  0  0  0
M  CHG  1  23   1
M  END
$$$$

  -OEChem-01062216093D

 34 33  0     1  0  0  0  0  0999 V2000
   -3.9769   -2.3438    1.1142 H   0  0  0  0  0  0  0  0  0  0  0  0
   -3.9269   -1.3212    0.7290 C   0  0  0  0  0  0  0  0  0  0  0  0
   -4.5978   -0.6913    1.3179 H   0  0  0  0  0  0  0  0  0  0  0  0
   -4.2605   -1.3228   -0.3119 H   0  0  0  0  0  0  0  0  0  0  0  0
   -2.5063   -0.7969    0.8181 C   0  0  0  0  0  0  0  0  0  0  0  0
   -1.6074   -1.5407    1.1675 O   0  0  0  0  0  0  0  0  0  0  0  0
   -2.2260    0.4911    0.4030 N   0  0  0  0  0  0  0  0  0  0  0  0
   -3.0102    1.0009    0.0028 H   0  0  0  0  0  0  0  0  0  0  0  0
   -0.9213    1.1955    0.4599 C   0  0  1  0  0  0  0  0  0  0  0  0
   -1.1126    2.2474    0.2232 H   0  0  0  0  0  0  0  0  0  0  0  0
   -0.2506    1.1504    1.8530 C   0  0  0  0  0  0  0  0  0  0  0  0
   -0.1234    0.1186    2.1902 H   0  0  0  0  0  0  0  0  0  0  0  0
    0.7554    1.5767    1.7666 H   0  0  0  0  0  0  0  0  0  0  0  0
   -1.0210    1.9614    2.9023 C   0  0  0  0  0  0  0  0  0  0  0  0
   -1.1060    3.0031    2.5736 H   0  0  0  0  0  0  0  0  0  0  0  0
   -2.0326    1.5551    3.0089 H   0  0  0  0  0  0  0  0  0  0  0  0
   -0.2864    1.8919    4.2472 C   0  0  0  0  0  0  0  0  0  0  0  0
   -0.1895    0.8428    4.5493 H   0  0  0  0  0  0  0  0  0  0  0  0
    0.7221    2.3043    4.1294 H   0  0  0  0  0  0  0  0  0  0  0  0
   -1.0433    2.6710    5.3193 C   0  0  0  0  0  0  0  0  0  0  0  0
   -1.1348    3.7220    5.0078 H   0  0  0  0  0  0  0  0  0  0  0  0
   -2.0629    2.2683    5.4092 H   0  0  0  0  0  0  0  0  0  0  0  0
   -0.3087    2.5532    6.5979 N   0  3  0  0  0  0  0  0  0  0  0  0
    0.6373    2.9258    6.4917 H   0  0  0  0  0  0  0  0  0  0  0  0
   -0.7907    3.0765    7.3319 H   0  0  0  0  0  0  0  0  0  0  0  0
   -0.2468    1.5715    6.8755 H   0  0  0  0  0  0  0  0  0  0  0  0
    0.0918    0.7250   -0.6103 C   0  0  0  0  0  0  0  0  0  0  0  0
    1.0453    1.4462   -0.8702 O   0  0  0  0  0  0  0  0  0  0  0  0
   -0.0879   -0.4505   -1.3142 N   0  0  0  0  0  0  0  0  0  0  0  0
   -0.7329   -1.1163   -0.8910 H   0  0  0  0  0  0  0  0  0  0  0  0
    0.8914   -0.9504   -2.2729 C   0  0  0  0  0  0  0  0  0  0  0  0
    1.8467   -1.1510   -1.7764 H   0  0  0  0  0  0  0  0  0  0  0  0
    0.5352   -1.8789   -2.7299 H   0  0  0  0  0  0  0  0  0  0  0  0
    1.0571   -0.2179   -3.0703 H   0  0  0  0  0  0  0  0  0  0  0  0
  1  2  1  0  0  0  0
  2  3  1  0  0  0  0
  2  4  1  0  0  0  0
  2  5  1  0  0  0  0
  5  6  2  0  0  0  0
  5  7  1  0  0  0  0
  7  8  1  0  0  0  0
  7  9  1  0  0  0  0
  9 10  1  0  0  0  0
  9 11  1  0  0  0  0
  9 27  1  0  0  0  0
 11 12  1  0  0  0  0
 11 13  1  0  0  0  0
 11 14  1  0  0  0  0
 14 15  1  0  0  0  0
 14 16  1  0  0  0  0
 14 17  1  0  0  0  0
 17 18  1  0  0  0  0
 17 19  1  0  0  0  0
 17 20  1  0  0  0  0
 20 21  1  0  0  0  0
 20 22  1  0  0  0  0
 20 23  1  0  0  0  0
 23 24  1  0  0  0  0
 23 25  1  0  0  0  0
 23 26  1  0  0  0  0
 27 28  2  0  0  0  0
 27 29  1  0  0  0  0
 29 30  1  0  0  0  0
 29 31  1  0  0  0  0
 31 32  1  0  0  0  0
 31 33  1  0  0  0  0
 31 34  1  0  0  0  0
M  CHG  1  23   1
M  END
$$$$

  -OEChem-01062216093D

 34 33  0     1  0  0  0  0  0999 V2000
   -3.9553   -2.3384    1.1474 H   0  0  0  0  0  0  0  0  0  0  0  0
   -3.9079   -1.3205    0.7493 C   0  0  0  0  0  0  0  0  0  0  0  0
   -4.5730   -0.6832    1.3369 H   0  0  0  0  0  0  0  0  0  0  0  0
   -4.2508   -1.3344   -0.2884 H   0  0  0  0  0  0  0  0  0  0  0  0
   -2.4857   -0.7981    0.8211 C   0  0  0  0  0  0  0  0  0  0  0  0
   -1.5885   -1.5399    1.1760 O   0  0  0  0  0  0  0  0  0  0  0  0
   -2.2097    0.4915    0.4061 N   0  0  0  0  0  0  0  0  0  0  0  0
   -3.0007    1.0088    0.0295 H   0  0  0  0  0  0  0  0  0  0  0  0
   -0.9045    1.1964    0.4590 C   0  0  1  0  0  0  0  0  0  0  0  0
   -1.0937    2.2481    0.2219 H   0  0  0  0  0  0  0  0  0  0  0  0
   -0.2416    1.1498    1.8583 C   0  0  0  0  0  0  0  0  0  0  0  0
   -0.1160    0.1181    2.1969 H   0  0  0  0  0  0  0  0  0  0  0  0
    0.7649    1.5762    1.7831 H   0  0  0  0  0  0  0  0  0  0  0  0
   -1.0181    1.9625    2.9018 C   0  0  0  0  0  0  0  0  0  0  0  0
   -1.0987    3.0042    2.5722 H   0  0  0  0  0  0  0  0  0  0  0  0
   -2.0314    1.5582    3.0015 H   0  0  0  0  0  0  0  0  0  0  0  0
   -0.2918    1.8910    4.2511 C   0  0  0  0  0  0  0  0  0  0  0  0
   -0.1993    0.8416    4.5538 H   0  0  0  0  0  0  0  0  0  0  0  0
    0.7183    2.3012    4.1401 H   0  0  0  0  0  0  0  0  0  0  0  0
   -1.0531    2.6706    5.3189 C   0  0  0  0  0  0  0  0  0  0  0  0
   -1.1410    3.7222    5.0084 H   0  0  0  0  0  0  0  0  0  0  0  0
   -2.0737    2.2694    5.4024 H   0  0  0  0  0  0  0  0  0  0  0  0
   -0.3248    2.5493    6.6007 N   0  3  0  0  0  0  0  0  0  0  0  0
    0.6149    2.9401    6.5054 H   0  0  0  0  0  0  0  0  0  0  0  0
   -0.8207    3.0535    7.3387 H   0  0  0  0  0  0  0  0  0  0  0  0
   -0.2469    1.5651    6.8654 H   0  0  0  0  0  0  0  0  0  0  0  0
    0.1016    0.7241   -0.6196 C   0  0  0  0  0  0  0  0  0  0  0  0
    1.1621    1.3223   -0.7420 O   0  0  0  0  0  0  0  0  0  0  0  0
   -0.2238   -0.2668   -1.5271 N   0  0  0  0  0  0  0  0  0  0  0  0
   -1.0018   -0.8655   -1.2636 H   0  0  0  0  0  0  0  0  0  0  0  0
    0.7105   -0.7506   -2.5380 C   0  0  0  0  0  0  0  0  0  0  0  0
    1.5985   -1.1831   -2.0651 H   0  0  0  0  0  0  0  0  0  0  0  0
    0.2365   -1.5199   -3.1554 H   0  0  0  0  0  0  0  0  0  0  0  0
    1.0254    0.0683   -3.1936 H   0  0  0  0  0  0  0  0  0  0  0  0
  1  2  1  0  0  0  0
  2  3  1  0  0  0  0
  2  4  1  0  0  0  0
  2  5  1  0  0  0  0
  5  6  2  0  0  0  0
  5  7  1  0  0  0  0
  7  8  1  0  0  0  0
  7  9  1  0  0  0  0
  9 10  1  0  0  0  0
  9 11  1  0  0  0  0
  9 27  1  0  0  0  0
 11 12  1  0  0  0  0
 11 13  1  0  0  0  0
 11 14  1  0  0  0  0
 14 15  1  0  0  0  0
 14 16  1  0  0  0  0
 14 17  1  0  0  0  0
 17 18  1  0  0  0  0
 17 19  1  0  0  0  0
 17 20  1  0  0  0  0
 20 21  1  0  0  0  0
 20 22  1  0  0  0  0
 20 23  1  0  0  0  0
 23 24  1  0  0  0  0
 23 25  1  0  0  0  0
 23 26  1  0  0  0  0
 27 28  2  0  0  0  0
 27 29  1  0  0  0  0
 29 30  1  0  0  0  0
 29 31  1  0  0  0  0
 31 32  1  0  0  0  0
 31 33  1  0  0  0  0
 31 34  1  0  0  0  0
M  CHG  1  23   1
M  END
$$$$

  -OEChem-01062216093D

 34 33  0     1  0  0  0  0  0999 V2000
   -3.9210   -2.3561    1.1301 H   0  0  0  0  0  0  0  0  0  0  0  0
   -3.8796   -1.3365    0.7356 C   0  0  0  0  0  0  0  0  0  0  0  0
   -4.5528   -0.7073    1.3225 H   0  0  0  0  0  0  0  0  0  0  0  0
   -4.2172   -1.3499   -0.3036 H   0  0  0  0  0  0  0  0  0  0  0  0
   -2.4619   -0.8026    0.8152 C   0  0  0  0  0  0  0  0  0  0  0  0
   -1.5677   -1.5322    1.2004 O   0  0  0  0  0  0  0  0  0  0  0  0
   -2.1977    0.4915    0.4028 N   0  0  0  0  0  0  0  0  0  0  0  0
   -2.9962    1.0069    0.0399 H   0  0  0  0  0  0  0  0  0  0  0  0
   -0.8969    1.2049    0.4576 C   0  0  1  0  0  0  0  0  0  0  0  0
   -1.0891    2.2557    0.2203 H   0  0  0  0  0  0  0  0  0  0  0  0
   -0.2398    1.1629    1.8620 C   0  0  0  0  0  0  0  0  0  0  0  0
   -0.1050    0.1328    2.2000 H   0  0  0  0  0  0  0  0  0  0  0  0
    0.7627    1.5993    1.7949 H   0  0  0  0  0  0  0  0  0  0  0  0
   -1.0226    1.9697    2.9049 C   0  0  0  0  0  0  0  0  0  0  0  0
   -1.1085    3.0120    2.5784 H   0  0  0  0  0  0  0  0  0  0  0  0
   -2.0330    1.5584    3.0038 H   0  0  0  0  0  0  0  0  0  0  0  0
   -0.2951    1.8968    4.2529 C   0  0  0  0  0  0  0  0  0  0  0  0
   -0.1983    0.8465    4.5506 H   0  0  0  0  0  0  0  0  0  0  0  0
    0.7136    2.3108    4.1420 H   0  0  0  0  0  0  0  0  0  0  0  0
   -1.0571    2.6686    5.3253 C   0  0  0  0  0  0  0  0  0  0  0  0
   -1.1494    3.7212    5.0199 H   0  0  0  0  0  0  0  0  0  0  0  0
   -2.0758    2.2629    5.4105 H   0  0  0  0  0  0  0  0  0  0  0  0
   -0.3236    2.5432    6.6036 N   0  3  0  0  0  0  0  0  0  0  0  0
    0.6134    2.9404    6.5077 H   0  0  0  0  0  0  0  0  0  0  0  0
   -0.8199    3.0389    7.3470 H   0  0  0  0  0  0  0  0  0  0  0  0
   -0.2383    1.5575    6.8606 H   0  0  0  0  0  0  0  0  0  0  0  0
    0.1025    0.7318   -0.6303 C   0  0  0  0  0  0  0  0  0  0  0  0
    1.2535    1.1479   -0.6181 O   0  0  0  0  0  0  0  0  0  0  0  0
   -0.3211   -0.0214   -1.7101 N   0  0  0  0  0  0  0  0  0  0  0  0
   -1.2298   -0.4642   -1.6185 H   0  0  0  0  0  0  0  0  0  0  0  0
    0.5871   -0.5026   -2.7465 C   0  0  0  0  0  0  0  0  0  0  0  0
    1.3436   -1.1677   -2.3160 H   0  0  0  0  0  0  0  0  0  0  0  0
    0.0320   -1.0567   -3.5097 H   0  0  0  0  0  0  0  0  0  0  0  0
    1.0947    0.3371   -3.2338 H   0  0  0  0  0  0  0  0  0  0  0  0
  1  2  1  0  0  0  0
  2  3  1  0  0  0  0
  2  4  1  0  0  0  0
  2  5  1  0  0  0  0
  5  6  2  0  0  0  0
  5  7  1  0  0  0  0
  7  8  1  0  0  0  0
  7  9  1  0  0  0  0
  9 10  1  0  0  0  0
  9 11  1  0  0  0  0
  9 27  1  0  0  0  0
 11 12  1  0  0  0  0
 11 13  1  0  0  0  0
 11 14  1  0  0  0  0
 14 15  1  0  0  0  0
 14 16  1  0  0  0  0
 14 17  1  0  0  0  0
 17 18  1  0  0  0  0
 17 19  1  0  0  0  0
 17 20  1  0  0  0  0
 20 21  1  0  0  0  0
 20 22  1  0  0  0  0
 20 23  1  0  0  0  0
 23 24  1  0  0  0  0
 23 25  1  0  0  0  0
 23 26  1  0  0  0  0
 27 28  2  0  0  0  0
 27 29  1  0  0  0  0
 29 30  1  0  0  0  0
 29 31  1  0  0  0  0
 31 32  1  0  0  0  0
 31 33  1  0  0  0  0
 31 34  1  0  0  0  0
M  CHG  1  23   1
M  END
$$$$

  -OEChem-01062216093D

 34 33  0     1  0  0  0  0  0999 V2000
   -3.8790   -2.3692    1.1011 H   0  0  0  0  0  0  0  0  0  0  0  0
   -3.8440   -1.3477    0.7106 C   0  0  0  0  0  0  0  0  0  0  0  0
   -4.5274   -0.7265    1.2944 H   0  0  0  0  0  0  0  0  0  0  0  0
   -4.1723   -1.3608   -0.3314 H   0  0  0  0  0  0  0  0  0  0  0  0
   -2.4320   -0.8016    0.8047 C   0  0  0  0  0  0  0  0  0  0  0  0
   -1.5410   -1.5196    1.2174 O   0  0  0  0  0  0  0  0  0  0  0  0
   -2.1773    0.4954    0.3941 N   0  0  0  0  0  0  0  0  0  0  0  0
   -2.9815    1.0071    0.0393 H   0  0  0  0  0  0  0  0  0  0  0  0
   -0.8824    1.2182    0.4561 C   0  0  1  0  0  0  0  0  0  0  0  0
   -1.0759    2.2680    0.2168 H   0  0  0  0  0  0  0  0  0  0  0  0
   -0.2327    1.1794    1.8648 C   0  0  0  0  0  0  0  0  0  0  0  0
   -0.0870    0.1502    2.2015 H   0  0  0  0  0  0  0  0  0  0  0  0
    0.7649    1.6276    1.8038 H   0  0  0  0  0  0  0  0  0  0  0  0
   -1.0252    1.9775    2.9065 C   0  0  0  0  0  0  0  0  0  0  0  0
   -1.1187    3.0201    2.5834 H   0  0  0  0  0  0  0  0  0  0  0  0
   -2.0322    1.5569    3.0018 H   0  0  0  0  0  0  0  0  0  0  0  0
   -0.2988    1.9036    4.2553 C   0  0  0  0  0  0  0  0  0  0  0  0
   -0.1950    0.8525    4.5480 H   0  0  0  0  0  0  0  0  0  0  0  0
    0.7072    2.3248    4.1470 H   0  0  0  0  0  0  0  0  0  0  0  0
   -1.0649    2.6648    5.3322 C   0  0  0  0  0  0  0  0  0  0  0  0
   -1.1645    3.7186    5.0329 H   0  0  0  0  0  0  0  0  0  0  0  0
   -2.0809    2.2513    5.4159 H   0  0  0  0  0  0  0  0  0  0  0  0
   -0.3288    2.5361    6.6088 N   0  3  0  0  0  0  0  0  0  0  0  0
    0.6066    2.9371    6.5135 H   0  0  0  0  0  0  0  0  0  0  0  0
   -0.8259    3.0261    7.3554 H   0  0  0  0  0  0  0  0  0  0  0  0
   -0.2394    1.5494    6.8608 H   0  0  0  0  0  0  0  0  0  0  0  0
    0.1090    0.7358   -0.6369 C   0  0  0  0  0  0  0  0  0  0  0  0
    1.3118    0.9266   -0.5147 O   0  0  0  0  0  0  0  0  0  0  0  0
   -0.3632    0.2554   -1.8453 N   0  0  0  0  0  0  0  0  0  0  0  0
   -1.3460    0.0058   -1.8807 H   0  0  0  0  0  0  0  0  0  0  0  0
    0.5161   -0.2173   -2.9104 C   0  0  0  0  0  0  0  0  0  0  0  0
    1.1058   -1.0751   -2.5695 H   0  0  0  0  0  0  0  0  0  0  0  0
   -0.0729   -0.5251   -3.7799 H   0  0  0  0  0  0  0  0  0  0  0  0
    1.2017    0.5771   -3.2247 H   0  0  0  0  0  0  0  0  0  0  0  0
  1  2  1  0  0  0  0
  2  3  1  0  0  0  0
  2  4  1  0  0  0  0
  2  5  1  0  0  0  0
  5  6  2  0  0  0  0
  5  7  1  0  0  0  0
  7  8  1  0  0  0  0
  7  9  1  0  0  0  0
  9 10  1  0  0  0  0
  9 11  1  0  0  0  0
  9 27  1  0  0  0  0
 11 12  1  0  0  0  0
 11 13  1  0  0  0  0
 11 14  1  0  0  0  0
 14 15  1  0  0  0  0
 14 16  1  0  0  0  0
 14 17  1  0  0  0  0
 17 18  1  0  0  0  0
 17 19  1  0  0  0  0
 17 20  1  0  0  0  0
 20 21  1  0  0  0  0
 20 22  1  0  0  0  0
 20 23  1  0  0  0  0
 23 24  1  0  0  0  0
 23 25  1  0  0  0  0
 23 26  1  0  0  0  0
 27 28  2  0  0  0  0
 27 29  1  0  0  0  0
 29 30  1  0  0  0  0
 29 31  1  0  0  0  0
 31 32  1  0  0  0  0
 31 33  1  0  0  0  0
 31 34  1  0  0  0  0
M  CHG  1  23   1
M  END
$$$$

  -OEChem-01062216093D

 34 33  0     1  0  0  0  0  0999 V2000
   -3.8619   -2.3949    1.0278 H   0  0  0  0  0  0  0  0  0  0  0  0
   -3.8272   -1.3674    0.6533 C   0  0  0  0  0  0  0  0  0  0  0  0
   -4.5404   -0.7637    1.2192 H   0  0  0  0  0  0  0  0  0  0  0  0
   -4.1168   -1.3705   -0.4003 H   0  0  0  0  0  0  0  0  0  0  0  0
   -2.4271   -0.8034    0.8064 C   0  0  0  0  0  0  0  0  0  0  0  0
   -1.5519   -1.5050    1.2766 O   0  0  0  0  0  0  0  0  0  0  0  0
   -2.1728    0.4942    0.3960 N   0  0  0  0  0  0  0  0  0  0  0  0
   -2.9711    0.9899    0.0081 H   0  0  0  0  0  0  0  0  0  0  0  0
   -0.8820    1.2231    0.4614 C   0  0  1  0  0  0  0  0  0  0  0  0
   -1.0779    2.2723    0.2220 H   0  0  0  0  0  0  0  0  0  0  0  0
   -0.2303    1.1896    1.8699 C   0  0  0  0  0  0  0  0  0  0  0  0
   -0.0717    0.1622    2.2063 H   0  0  0  0  0  0  0  0  0  0  0  0
    0.7623    1.6480    1.8035 H   0  0  0  0  0  0  0  0  0  0  0  0
   -1.0233    1.9827    2.9147 C   0  0  0  0  0  0  0  0  0  0  0  0
   -1.1230    3.0249    2.5925 H   0  0  0  0  0  0  0  0  0  0  0  0
   -2.0283    1.5576    3.0124 H   0  0  0  0  0  0  0  0  0  0  0  0
   -0.2918    1.9115    4.2614 C   0  0  0  0  0  0  0  0  0  0  0  0
   -0.1813    0.8608    4.5536 H   0  0  0  0  0  0  0  0  0  0  0  0
    0.7115    2.3378    4.1506 H   0  0  0  0  0  0  0  0  0  0  0  0
   -1.0586    2.6679    5.3409 C   0  0  0  0  0  0  0  0  0  0  0  0
   -1.1643    3.7214    5.0425 H   0  0  0  0  0  0  0  0  0  0  0  0
   -2.0723    2.2496    5.4269 H   0  0  0  0  0  0  0  0  0  0  0  0
   -0.3178    2.5419    6.6149 N   0  3  0  0  0  0  0  0  0  0  0  0
    0.6180    2.9406    6.5149 H   0  0  0  0  0  0  0  0  0  0  0  0
   -0.8112    3.0347    7.3621 H   0  0  0  0  0  0  0  0  0  0  0  0
   -0.2295    1.5556    6.8691 H   0  0  0  0  0  0  0  0  0  0  0  0
    0.1035    0.7320   -0.6340 C   0  0  0  0  0  0  0  0  0  0  0  0
    1.3081    0.6770   -0.4241 O   0  0  0  0  0  0  0  0  0  0  0  0
   -0.3443    0.5431   -1.9298 N   0  0  0  0  0  0  0  0  0  0  0  0
   -1.3483    0.5022   -2.0686 H   0  0  0  0  0  0  0  0  0  0  0  0
    0.5288    0.1024   -3.0141 C   0  0  0  0  0  0  0  0  0  0  0  0
    0.9451   -0.8864   -2.7931 H   0  0  0  0  0  0  0  0  0  0  0  0
   -0.0306    0.0411   -3.9527 H   0  0  0  0  0  0  0  0  0  0  0  0
    1.3553    0.8076   -3.1537 H   0  0  0  0  0  0  0  0  0  0  0  0
  1  2  1  0  0  0  0
  2  3  1  0  0  0  0
  2  4  1  0  0  0  0
  2  5  1  0  0  0  0
  5  6  2  0  0  0  0
  5  7  1  0  0  0  0
  7  8  1  0  0  0  0
  7  9  1  0  0  0  0
  9 10  1  0  0  0  0
  9 11  1  0  0  0  0
  9 27  1  0  0  0  0
 11 12  1  0  0  0  0
 11 13  1  0  0  0  0
 11 14  1  0  0  0  0
 14 15  1  0  0  0  0
 14 16  1  0  0  0  0
 14 17  1  0  0  0  0
 17 18  1  0  0  0  0
 17 19  1  0  0  0  0
 17 20  1  0  0  0  0
 20 21  1  0  0  0  0
 20 22  1  0  0  0  0
 20 23  1  0  0  0  0
 23 24  1  0  0  0  0
 23 25  1  0  0  0  0
 23 26  1  0  0  0  0
 27 28  2  0  0  0  0
 27 29  1  0  0  0  0
 29 30  1  0  0  0  0
 29 31  1  0  0  0  0
 31 32  1  0  0  0  0
 31 33  1  0  0  0  0
 31 34  1  0  0  0  0
M  CHG  1  23   1
M  END
$$$$

  -OEChem-01062216093D

 34 33  0     1  0  0  0  0  0999 V2000
   -3.8521   -2.4252    0.9283 H   0  0  0  0  0  0  0  0  0  0  0  0
   -3.8127   -1.3945    0.5641 C   0  0  0  0  0  0  0  0  0  0  0  0
   -4.5791   -0.8111    1.0796 H   0  0  0  0  0  0  0  0  0  0  0  0
   -4.0227   -1.3963   -0.5082 H   0  0  0  0  0  0  0  0  0  0  0  0
   -2.4410   -0.8008    0.8245 C   0  0  0  0  0  0  0  0  0  0  0  0
   -1.6056   -1.4737    1.3977 O   0  0  0  0  0  0  0  0  0  0  0  0
   -2.1822    0.4951    0.4093 N   0  0  0  0  0  0  0  0  0  0  0  0
   -2.9526    0.9480   -0.0744 H   0  0  0  0  0  0  0  0  0  0  0  0
   -0.8947    1.2297    0.4735 C   0  0  1  0  0  0  0  0  0  0  0  0
   -1.0921    2.2788    0.2346 H   0  0  0  0  0  0  0  0  0  0  0  0
   -0.2320    1.2010    1.8758 C   0  0  0  0  0  0  0  0  0  0  0  0
   -0.0614    0.1756    2.2118 H   0  0  0  0  0  0  0  0  0  0  0  0
    0.7573    1.6652    1.7952 H   0  0  0  0  0  0  0  0  0  0  0  0
   -1.0206    1.9885    2.9276 C   0  0  0  0  0  0  0  0  0  0  0  0
   -1.1317    3.0301    2.6073 H   0  0  0  0  0  0  0  0  0  0  0  0
   -2.0210    1.5547    3.0338 H   0  0  0  0  0  0  0  0  0  0  0  0
   -0.2771    1.9216    4.2673 C   0  0  0  0  0  0  0  0  0  0  0  0
   -0.1581    0.8713    4.5575 H   0  0  0  0  0  0  0  0  0  0  0  0
    0.7226    2.3544    4.1480 H   0  0  0  0  0  0  0  0  0  0  0  0
   -1.0409    2.6732    5.3521 C   0  0  0  0  0  0  0  0  0  0  0  0
   -1.1562    3.7256    5.0538 H   0  0  0  0  0  0  0  0  0  0  0  0
   -2.0510    2.2474    5.4460 H   0  0  0  0  0  0  0  0  0  0  0  0
   -0.2904    2.5532    6.6211 N   0  3  0  0  0  0  0  0  0  0  0  0
    0.6454    2.9492    6.5115 H   0  0  0  0  0  0  0  0  0  0  0  0
   -0.7773    3.0516    7.3689 H   0  0  0  0  0  0  0  0  0  0  0  0
   -0.2022    1.5681    6.8805 H   0  0  0  0  0  0  0  0  0  0  0  0
    0.0856    0.7280   -0.6213 C   0  0  0  0  0  0  0  0  0  0  0  0
    1.2348    0.4036   -0.3535 O   0  0  0  0  0  0  0  0  0  0  0  0
   -0.2711    0.8244   -1.9550 N   0  0  0  0  0  0  0  0  0  0  0  0
   -1.2352    1.0555   -2.1688 H   0  0  0  0  0  0  0  0  0  0  0  0
    0.6107    0.4182   -3.0457 C   0  0  0  0  0  0  0  0  0  0  0  0
    0.8611   -0.6448   -2.9614 H   0  0  0  0  0  0  0  0  0  0  0  0
    0.1225    0.5834   -4.0111 H   0  0  0  0  0  0  0  0  0  0  0  0
    1.5393    0.9991   -3.0266 H   0  0  0  0  0  0  0  0  0  0  0  0
  1  2  1  0  0  0  0
  2  3  1  0  0  0  0
  2  4  1  0  0  0  0
  2  5  1  0  0  0  0
  5  6  2  0  0  0  0
  5  7  1  0  0  0  0
  7  8  1  0  0  0  0
  7  9  1  0  0  0  0
  9 10  1  0  0  0  0
  9 11  1  0  0  0  0
  9 27  1  0  0  0  0
 11 12  1  0  0  0  0
 11 13  1  0  0  0  0
 11 14  1  0  0  0  0
 14 15  1  0  0  0  0
 14 16  1  0  0  0  0
 14 17  1  0  0  0  0
 17 18  1  0  0  0  0
 17 19  1  0  0  0  0
 17 20  1  0  0  0  0
 20 21  1  0  0  0  0
 20 22  1  0  0  0  0
 20 23  1  0  0  0  0
 23 24  1  0  0  0  0
 23 25  1  0  0  0  0
 23 26  1  0  0  0  0
 27 28  2  0  0  0  0
 27 29  1  0  0  0  0
 29 30  1  0  0  0  0
 29 31  1  0  0  0  0
 31 32  1  0  0  0  0
 31 33  1  0  0  0  0
 31 34  1  0  0  0  0
M  CHG  1  23   1
M  END
$$$$

  -OEChem-01062216093D

 34 33  0     1  0  0  0  0  0999 V2000
   -3.8305   -2.4600    0.8301 H   0  0  0  0  0  0  0  0  0  0  0  0
   -3.7930   -1.4297    0.4636 C   0  0  0  0  0  0  0  0  0  0  0  0
   -4.6247   -0.8718    0.9001 H   0  0  0  0  0  0  0  0  0  0  0  0
   -3.9012   -1.4439   -0.6236 H   0  0  0  0  0  0  0  0  0  0  0  0
   -2.4732   -0.7867    0.8481 C   0  0  0  0  0  0  0  0  0  0  0  0
   -1.7023   -1.4095    1.5532 O   0  0  0  0  0  0  0  0  0  0  0  0
   -2.2116    0.5069    0.4243 N   0  0  0  0  0  0  0  0  0  0  0  0
   -2.9318    0.8961   -0.1777 H   0  0  0  0  0  0  0  0  0  0  0  0
   -0.9244    1.2436    0.4857 C   0  0  1  0  0  0  0  0  0  0  0  0
   -1.1231    2.2931    0.2498 H   0  0  0  0  0  0  0  0  0  0  0  0
   -0.2427    1.2156    1.8778 C   0  0  0  0  0  0  0  0  0  0  0  0
   -0.0600    0.1918    2.2117 H   0  0  0  0  0  0  0  0  0  0  0  0
    0.7437    1.6822    1.7781 H   0  0  0  0  0  0  0  0  0  0  0  0
   -1.0212    1.9982    2.9401 C   0  0  0  0  0  0  0  0  0  0  0  0
   -1.1412    3.0397    2.6227 H   0  0  0  0  0  0  0  0  0  0  0  0
   -2.0180    1.5590    3.0580 H   0  0  0  0  0  0  0  0  0  0  0  0
   -0.2608    1.9329    4.2700 C   0  0  0  0  0  0  0  0  0  0  0  0
   -0.1336    0.8828    4.5573 H   0  0  0  0  0  0  0  0  0  0  0  0
    0.7354    2.3702    4.1391 H   0  0  0  0  0  0  0  0  0  0  0  0
   -1.0142    2.6794    5.3653 C   0  0  0  0  0  0  0  0  0  0  0  0
   -1.1388    3.7315    5.0701 H   0  0  0  0  0  0  0  0  0  0  0  0
   -2.0207    2.2482    5.4707 H   0  0  0  0  0  0  0  0  0  0  0  0
   -0.2474    2.5609    6.6243 N   0  3  0  0  0  0  0  0  0  0  0  0
    0.6858    2.9592    6.5033 H   0  0  0  0  0  0  0  0  0  0  0  0
   -0.7262    3.0568    7.3787 H   0  0  0  0  0  0  0  0  0  0  0  0
   -0.1536    1.5757    6.8813 H   0  0  0  0  0  0  0  0  0  0  0  0
    0.0532    0.7317   -0.6055 C   0  0  0  0  0  0  0  0  0  0  0  0
    1.0809    0.1331   -0.3193 O   0  0  0  0  0  0  0  0  0  0  0  0
   -0.1482    1.0904   -1.9275 N   0  0  0  0  0  0  0  0  0  0  0  0
   -0.9949    1.5981   -2.1619 H   0  0  0  0  0  0  0  0  0  0  0  0
    0.7601    0.7055   -3.0043 C   0  0  0  0  0  0  0  0  0  0  0  0
    0.8392   -0.3852   -3.0684 H   0  0  0  0  0  0  0  0  0  0  0  0
    0.3938    1.0817   -3.9644 H   0  0  0  0  0  0  0  0  0  0  0  0
    1.7590    1.1199   -2.8305 H   0  0  0  0  0  0  0  0  0  0  0  0
  1  2  1  0  0  0  0
  2  3  1  0  0  0  0
  2  4  1  0  0  0  0
  2  5  1  0  0  0  0
  5  6  2  0  0  0  0
  5  7  1  0  0  0  0
  7  8  1  0  0  0  0
  7  9  1  0  0  0  0
  9 10  1  0  0  0  0
  9 11  1  0  0  0  0
  9 27  1  0  0  0  0
 11 12  1  0  0  0  0
 11 13  1  0  0  0  0
 11 14  1  0  0  0  0
 14 15  1  0  0  0  0
 14 16  1  0  0  0  0
 14 17  1  0  0  0  0
 17 18  1  0  0  0  0
 17 19  1  0  0  0  0
 17 20  1  0  0  0  0
 20 21  1  0  0  0  0
 20 22  1  0  0  0  0
 20 23  1  0  0  0  0
 23 24  1  0  0  0  0
 23 25  1  0  0  0  0
 23 26  1  0  0  0  0
 27 28  2  0  0  0  0
 27 29  1  0  0  0  0
 29 30  1  0  0  0  0
 29 31  1  0  0  0  0
 31 32  1  0  0  0  0
 31 33  1  0  0  0  0
 31 34  1  0  0  0  0
M  CHG  1  23   1
M  END
$$$$

  -OEChem-01062216093D

 34 33  0     1  0  0  0  0  0999 V2000
   -3.7665   -2.4821    0.7434 H   0  0  0  0  0  0  0  0  0  0  0  0
   -3.7286   -1.4610    0.3525 C   0  0  0  0  0  0  0  0  0  0  0  0
   -4.6336   -0.9325    0.6612 H   0  0  0  0  0  0  0  0  0  0  0  0
   -3.6938   -1.5081   -0.7387 H   0  0  0  0  0  0  0  0  0  0  0  0
   -2.5006   -0.7441    0.8810 C   0  0  0  0  0  0  0  0  0  0  0  0
   -1.8316   -1.2892    1.7392 O   0  0  0  0  0  0  0  0  0  0  0  0
   -2.2442    0.5457    0.4408 N   0  0  0  0  0  0  0  0  0  0  0  0
   -2.9027    0.8596   -0.2669 H   0  0  0  0  0  0  0  0  0  0  0  0
   -0.9574    1.2842    0.4972 C   0  0  1  0  0  0  0  0  0  0  0  0
   -1.1563    2.3346    0.2656 H   0  0  0  0  0  0  0  0  0  0  0  0
   -0.2538    1.2451    1.8765 C   0  0  0  0  0  0  0  0  0  0  0  0
   -0.0585    0.2198    2.1987 H   0  0  0  0  0  0  0  0  0  0  0  0
    0.7293    1.7151    1.7625 H   0  0  0  0  0  0  0  0  0  0  0  0
   -1.0210    2.0154    2.9561 C   0  0  0  0  0  0  0  0  0  0  0  0
   -1.1525    3.0586    2.6490 H   0  0  0  0  0  0  0  0  0  0  0  0
   -2.0139    1.5693    3.0834 H   0  0  0  0  0  0  0  0  0  0  0  0
   -0.2439    1.9429    4.2754 C   0  0  0  0  0  0  0  0  0  0  0  0
   -0.1107    0.8908    4.5527 H   0  0  0  0  0  0  0  0  0  0  0  0
    0.7492    2.3842    4.1366 H   0  0  0  0  0  0  0  0  0  0  0  0
   -0.9892    2.6778    5.3839 C   0  0  0  0  0  0  0  0  0  0  0  0
   -1.1224    3.7311    5.0975 H   0  0  0  0  0  0  0  0  0  0  0  0
   -1.9924    2.2409    5.4970 H   0  0  0  0  0  0  0  0  0  0  0  0
   -0.2088    2.5542    6.6343 N   0  3  0  0  0  0  0  0  0  0  0  0
    0.7204    2.9600    6.5080 H   0  0  0  0  0  0  0  0  0  0  0  0
   -0.6840    3.0396    7.3979 H   0  0  0  0  0  0  0  0  0  0  0  0
   -0.1062    1.5672    6.8811 H   0  0  0  0  0  0  0  0  0  0  0  0
    0.0162    0.7567   -0.5882 C   0  0  0  0  0  0  0  0  0  0  0  0
    0.8508   -0.1011   -0.3388 O   0  0  0  0  0  0  0  0  0  0  0  0
    0.0176    1.3298   -1.8483 N   0  0  0  0  0  0  0  0  0  0  0  0
   -0.6711    2.0476   -2.0505 H   0  0  0  0  0  0  0  0  0  0  0  0
    0.9343    0.9194   -2.9085 C   0  0  0  0  0  0  0  0  0  0  0  0
    0.8177   -0.1479   -3.1261 H   0  0  0  0  0  0  0  0  0  0  0  0
    0.7319    1.4816   -3.8255 H   0  0  0  0  0  0  0  0  0  0  0  0
    1.9722    1.1050   -2.6118 H   0  0  0  0  0  0  0  0  0  0  0  0
  1  2  1  0  0  0  0
  2  3  1  0  0  0  0
  2  4  1  0  0  0  0
  2  5  1  0  0  0  0
  5  6  2  0  0  0  0
  5  7  1  0  0  0  0
  7  8  1  0  0  0  0
  7  9  1  0  0  0  0
  9 10  1  0  0  0  0
  9 11  1  0  0  0  0
  9 27  1  0  0  0  0
 11 12  1  0  0  0  0
 11 13  1  0  0  0  0
 11 14  1  0  0  0  0
 14 15  1  0  0  0  0
 14 16  1  0  0  0  0
 14 17  1  0  0  0  0
 17 18  1  0  0  0  0
 17 19  1  0  0  0  0
 17 20  1  0  0  0  0
 20 21  1  0  0  0  0
 20 22  1  0  0  0  0
 20 23  1  0  0  0  0
 23 24  1  0  0  0  0
 23 25  1  0  0  0  0
 23 26  1  0  0  0  0
 27 28  2  0  0  0  0
 27 29  1  0  0  0  0
 29 30  1  0  0  0  0
 29 31  1  0  0  0  0
 31 32  1  0  0  0  0
 31 33  1  0  0  0  0
 31 34  1  0  0  0  0
M  CHG  1  23   1
M  END
$$$$

  -OEChem-01062216093D

 34 33  0     1  0  0  0  0  0999 V2000
   -3.6532   -2.4913    0.6932 H   0  0  0  0  0  0  0  0  0  0  0  0
   -3.6003   -1.4975    0.2391 C   0  0  0  0  0  0  0  0  0  0  0  0
   -4.5731   -1.0112    0.3416 H   0  0  0  0  0  0  0  0  0  0  0  0
   -3.3651   -1.6128   -0.8217 H   0  0  0  0  0  0  0  0  0  0  0  0
   -2.5267   -0.6702    0.9202 C   0  0  0  0  0  0  0  0  0  0  0  0
   -2.0160   -1.0997    1.9405 O   0  0  0  0  0  0  0  0  0  0  0  0
   -2.2805    0.6152    0.4606 N   0  0  0  0  0  0  0  0  0  0  0  0
   -2.8583    0.8439   -0.3439 H   0  0  0  0  0  0  0  0  0  0  0  0
   -0.9858    1.3405    0.5151 C   0  0  1  0  0  0  0  0  0  0  0  0
   -1.1739    2.3938    0.2887 H   0  0  0  0  0  0  0  0  0  0  0  0
   -0.2599    1.2745    1.8797 C   0  0  0  0  0  0  0  0  0  0  0  0
   -0.0665    0.2421    2.1824 H   0  0  0  0  0  0  0  0  0  0  0  0
    0.7246    1.7397    1.7589 H   0  0  0  0  0  0  0  0  0  0  0  0
   -1.0120    2.0364    2.9761 C   0  0  0  0  0  0  0  0  0  0  0  0
   -1.1413    3.0830    2.6806 H   0  0  0  0  0  0  0  0  0  0  0  0
   -2.0063    1.5946    3.1061 H   0  0  0  0  0  0  0  0  0  0  0  0
   -0.2286    1.9484    4.2903 C   0  0  0  0  0  0  0  0  0  0  0  0
   -0.1001    0.8930    4.5582 H   0  0  0  0  0  0  0  0  0  0  0  0
    0.7659    2.3866    4.1518 H   0  0  0  0  0  0  0  0  0  0  0  0
   -0.9690    2.6774    5.4062 C   0  0  0  0  0  0  0  0  0  0  0  0
   -1.1002    3.7335    5.1291 H   0  0  0  0  0  0  0  0  0  0  0  0
   -1.9731    2.2417    5.5163 H   0  0  0  0  0  0  0  0  0  0  0  0
   -0.1879    2.5423    6.6545 N   0  3  0  0  0  0  0  0  0  0  0  0
    0.7376    2.9576    6.5353 H   0  0  0  0  0  0  0  0  0  0  0  0
   -0.6681    3.0117    7.4247 H   0  0  0  0  0  0  0  0  0  0  0  0
   -0.0778    1.5525    6.8864 H   0  0  0  0  0  0  0  0  0  0  0  0
   -0.0217    0.7890   -0.5639 C   0  0  0  0  0  0  0  0  0  0  0  0
    0.5220   -0.2972   -0.4308 O   0  0  0  0  0  0  0  0  0  0  0  0
    0.2247    1.5196   -1.7130 N   0  0  0  0  0  0  0  0  0  0  0  0
   -0.2416    2.4147   -1.8241 H   0  0  0  0  0  0  0  0  0  0  0  0
    1.1005    1.0491   -2.7824 C   0  0  0  0  0  0  0  0  0  0  0  0
    0.7478    0.0886   -3.1734 H   0  0  0  0  0  0  0  0  0  0  0  0
    1.1174    1.7700   -3.6057 H   0  0  0  0  0  0  0  0  0  0  0  0
    2.1238    0.9230   -2.4127 H   0  0  0  0  0  0  0  0  0  0  0  0
  1  2  1  0  0  0  0
  2  3  1  0  0  0  0
  2  4  1  0  0  0  0
  2  5  1  0  0  0  0
  5  6  2  0  0  0  0
  5  7  1  0  0  0  0
  7  8  1  0  0  0  0
  7  9  1  0  0  0  0
  9 10  1  0  0  0  0
  9 11  1  0  0  0  0
  9 27  1  0  0  0  0
 11 12  1  0  0  0  0
 11 13  1  0  0  0  0
 11 14  1  0  0  0  0
 14 15  1  0  0  0  0
 14 16  1  0  0  0  0
 14 17  1  0  0  0  0
 17 18  1  0  0  0  0
 17 19  1  0  0  0  0
 17 20  1  0  0  0  0
 20 21  1  0  0  0  0
 20 22  1  0  0  0  0
 20 23  1  0  0  0  0
 23 24  1  0  0  0  0
 23 25  1  0  0  0  0
 23 26  1  0  0  0  0
 27 28  2  0  0  0  0
 27 29  1  0  0  0  0
 29 30  1  0  0  0  0
 29 31  1  0  0  0  0
 31 32  1  0  0  0  0
 31 33  1  0  0  0  0
 31 34  1  0  0  0  0
M  CHG  1  23   1
M  END
$$$$

  -OEChem-01062216093D

 34 33  0     1  0  0  0  0  0999 V2000
   -3.5853   -2.5005    0.6752 H   0  0  0  0  0  0  0  0  0  0  0  0
   -3.5530   -1.5050    0.2231 C   0  0  0  0  0  0  0  0  0  0  0  0
   -4.5458   -1.0540    0.2903 H   0  0  0  0  0  0  0  0  0  0  0  0
   -3.2750   -1.6106   -0.8286 H   0  0  0  0  0  0  0  0  0  0  0  0
   -2.5352   -0.6397    0.9409 C   0  0  0  0  0  0  0  0  0  0  0  0
   -2.0760   -1.0295    2.0023 O   0  0  0  0  0  0  0  0  0  0  0  0
   -2.2953    0.6424    0.4689 N   0  0  0  0  0  0  0  0  0  0  0  0
   -2.8448    0.8366   -0.3641 H   0  0  0  0  0  0  0  0  0  0  0  0
   -0.9967    1.3621    0.5180 C   0  0  1  0  0  0  0  0  0  0  0  0
   -1.1832    2.4158    0.2924 H   0  0  0  0  0  0  0  0  0  0  0  0
   -0.2624    1.2828    1.8756 C   0  0  0  0  0  0  0  0  0  0  0  0
   -0.0699    0.2469    2.1674 H   0  0  0  0  0  0  0  0  0  0  0  0
    0.7225    1.7467    1.7532 H   0  0  0  0  0  0  0  0  0  0  0  0
   -1.0079    2.0416    2.9791 C   0  0  0  0  0  0  0  0  0  0  0  0
   -1.1329    3.0903    2.6893 H   0  0  0  0  0  0  0  0  0  0  0  0
   -2.0044    1.6045    3.1102 H   0  0  0  0  0  0  0  0  0  0  0  0
   -0.2242    1.9462    4.2918 C   0  0  0  0  0  0  0  0  0  0  0  0
   -0.0987    0.8896    4.5562 H   0  0  0  0  0  0  0  0  0  0  0  0
    0.7711    2.3830    4.1552 H   0  0  0  0  0  0  0  0  0  0  0  0
   -0.9659    2.6743    5.4077 C   0  0  0  0  0  0  0  0  0  0  0  0
   -1.0945    3.7311    5.1322 H   0  0  0  0  0  0  0  0  0  0  0  0
   -1.9714    2.2409    5.5141 H   0  0  0  0  0  0  0  0  0  0  0  0
   -0.1892    2.5358    6.6582 N   0  3  0  0  0  0  0  0  0  0  0  0
    0.7381    2.9480    6.5421 H   0  0  0  0  0  0  0  0  0  0  0  0
   -0.6704    3.0066    7.4270 H   0  0  0  0  0  0  0  0  0  0  0  0
   -0.0838    1.5456    6.8901 H   0  0  0  0  0  0  0  0  0  0  0  0
   -0.0293    0.8050   -0.5554 C   0  0  0  0  0  0  0  0  0  0  0  0
    0.2661   -0.3807   -0.5757 O   0  0  0  0  0  0  0  0  0  0  0  0
    0.4709    1.6313   -1.5466 N   0  0  0  0  0  0  0  0  0  0  0  0
    0.1929    2.6080   -1.5465 H   0  0  0  0  0  0  0  0  0  0  0  0
    1.3496    1.1531   -2.6109 C   0  0  0  0  0  0  0  0  0  0  0  0
    0.8544    0.3705   -3.1959 H   0  0  0  0  0  0  0  0  0  0  0  0
    1.6121    1.9733   -3.2863 H   0  0  0  0  0  0  0  0  0  0  0  0
    2.2744    0.7434   -2.1904 H   0  0  0  0  0  0  0  0  0  0  0  0
  1  2  1  0  0  0  0
  2  3  1  0  0  0  0
  2  4  1  0  0  0  0
  2  5  1  0  0  0  0
  5  6  2  0  0  0  0
  5  7  1  0  0  0  0
  7  8  1  0  0  0  0
  7  9  1  0  0  0  0
  9 10  1  0  0  0  0
  9 11  1  0  0  0  0
  9 27  1  0  0  0  0
 11 12  1  0  0  0  0
 11 13  1  0  0  0  0
 11 14  1  0  0  0  0
 14 15  1  0  0  0  0
 14 16  1  0  0  0  0
 14 17  1  0  0  0  0
 17 18  1  0  0  0  0
 17 19  1  0  0  0  0
 17 20  1  0  0  0  0
 20 21  1  0  0  0  0
 20 22  1  0  0  0  0
 20 23  1  0  0  0  0
 23 24  1  0  0  0  0
 23 25  1  0  0  0  0
 23 26  1  0  0  0  0
 27 28  2  0  0  0  0
 27 29  1  0  0  0  0
 29 30  1  0  0  0  0
 29 31  1  0  0  0  0
 31 32  1  0  0  0  0
 31 33  1  0  0  0  0
 31 34  1  0  0  0  0
M  CHG  1  23   1
M  END
$$$$

  -OEChem-01062216093D

 34 33  0     1  0  0  0  0  0999 V2000
   -3.6073   -2.4899    0.6938 H   0  0  0  0  0  0  0  0  0  0  0  0
   -3.5301   -1.5132    0.2076 C   0  0  0  0  0  0  0  0  0  0  0  0
   -4.5170   -1.0448    0.1981 H   0  0  0  0  0  0  0  0  0  0  0  0
   -3.1922   -1.6627   -0.8211 H   0  0  0  0  0  0  0  0  0  0  0  0
   -2.5402   -0.6359    0.9498 C   0  0  0  0  0  0  0  0  0  0  0  0
   -2.0996   -1.0171    2.0228 O   0  0  0  0  0  0  0  0  0  0  0  0
   -2.2968    0.6456    0.4781 N   0  0  0  0  0  0  0  0  0  0  0  0
   -2.8260    0.8242   -0.3716 H   0  0  0  0  0  0  0  0  0  0  0  0
   -0.9919    1.3546    0.5261 C   0  0  1  0  0  0  0  0  0  0  0  0
   -1.1750    2.4085    0.2983 H   0  0  0  0  0  0  0  0  0  0  0  0
   -0.2569    1.2720    1.8829 C   0  0  0  0  0  0  0  0  0  0  0  0
   -0.0759    0.2345    2.1757 H   0  0  0  0  0  0  0  0  0  0  0  0
    0.7322    1.7268    1.7622 H   0  0  0  0  0  0  0  0  0  0  0  0
   -0.9976    2.0395    2.9843 C   0  0  0  0  0  0  0  0  0  0  0  0
   -1.1159    3.0881    2.6905 H   0  0  0  0  0  0  0  0  0  0  0  0
   -1.9974    1.6098    3.1154 H   0  0  0  0  0  0  0  0  0  0  0  0
   -0.2188    1.9452    4.3004 C   0  0  0  0  0  0  0  0  0  0  0  0
   -0.1003    0.8896    4.5708 H   0  0  0  0  0  0  0  0  0  0  0  0
    0.7793    2.3762    4.1663 H   0  0  0  0  0  0  0  0  0  0  0  0
   -0.9622    2.6841    5.4083 C   0  0  0  0  0  0  0  0  0  0  0  0
   -1.0847    3.7396    5.1248 H   0  0  0  0  0  0  0  0  0  0  0  0
   -1.9703    2.2556    5.5118 H   0  0  0  0  0  0  0  0  0  0  0  0
   -0.1954    2.5502    6.6654 N   0  3  0  0  0  0  0  0  0  0  0  0
    0.7336    2.9602    6.5551 H   0  0  0  0  0  0  0  0  0  0  0  0
   -0.6821    3.0257    7.4281 H   0  0  0  0  0  0  0  0  0  0  0  0
   -0.0940    1.5609    6.9032 H   0  0  0  0  0  0  0  0  0  0  0  0
   -0.0229    0.7985   -0.5478 C   0  0  0  0  0  0  0  0  0  0  0  0
    0.0341   -0.4004   -0.7807 O   0  0  0  0  0  0  0  0  0  0  0  0
    0.7199    1.6623   -1.3337 N   0  0  0  0  0  0  0  0  0  0  0  0
    0.6278    2.6604   -1.1716 H   0  0  0  0  0  0  0  0  0  0  0  0
    1.5908    1.2057   -2.4135 C   0  0  0  0  0  0  0  0  0  0  0  0
    1.0112    0.6748   -3.1765 H   0  0  0  0  0  0  0  0  0  0  0  0
    2.0871    2.0574   -2.8889 H   0  0  0  0  0  0  0  0  0  0  0  0
    2.3615    0.5305   -2.0263 H   0  0  0  0  0  0  0  0  0  0  0  0
  1  2  1  0  0  0  0
  2  3  1  0  0  0  0
  2  4  1  0  0  0  0
  2  5  1  0  0  0  0
  5  6  2  0  0  0  0
  5  7  1  0  0  0  0
  7  8  1  0  0  0  0
  7  9  1  0  0  0  0
  9 10  1  0  0  0  0
  9 11  1  0  0  0  0
  9 27  1  0  0  0  0
 11 12  1  0  0  0  0
 11 13  1  0  0  0  0
 11 14  1  0  0  0  0
 14 15  1  0  0  0  0
 14 16  1  0  0  0  0
 14 17  1  0  0  0  0
 17 18  1  0  0  0  0
 17 19  1  0  0  0  0
 17 20  1  0  0  0  0
 20 21  1  0  0  0  0
 20 22  1  0  0  0  0
 20 23  1  0  0  0  0
 23 24  1  0  0  0  0
 23 25  1  0  0  0  0
 23 26  1  0  0  0  0
 27 28  2  0  0  0  0
 27 29  1  0  0  0  0
 29 30  1  0  0  0  0
 29 31  1  0  0  0  0
 31 32  1  0  0  0  0
 31 33  1  0  0  0  0
 31 34  1  0  0  0  0
M  CHG  1  23   1
M  END
$$$$

  -OEChem-01062216093D

 34 33  0     1  0  0  0  0  0999 V2000
   -3.6212   -2.4788    0.7148 H   0  0  0  0  0  0  0  0  0  0  0  0
   -3.5194   -1.5134    0.2111 C   0  0  0  0  0  0  0  0  0  0  0  0
   -4.4987   -1.0311    0.1706 H   0  0  0  0  0  0  0  0  0  0  0  0
   -3.1612   -1.6880   -0.8068 H   0  0  0  0  0  0  0  0  0  0  0  0
   -2.5330   -0.6355    0.9569 C   0  0  0  0  0  0  0  0  0  0  0  0
   -2.0822   -1.0243    2.0232 O   0  0  0  0  0  0  0  0  0  0  0  0
   -2.2874    0.6461    0.4869 N   0  0  0  0  0  0  0  0  0  0  0  0
   -2.8062    0.8174   -0.3710 H   0  0  0  0  0  0  0  0  0  0  0  0
   -0.9789    1.3496    0.5322 C   0  0  1  0  0  0  0  0  0  0  0  0
   -1.1578    2.4039    0.3015 H   0  0  0  0  0  0  0  0  0  0  0  0
   -0.2468    1.2638    1.8912 C   0  0  0  0  0  0  0  0  0  0  0  0
   -0.0678    0.2269    2.1861 H   0  0  0  0  0  0  0  0  0  0  0  0
    0.7434    1.7166    1.7748 H   0  0  0  0  0  0  0  0  0  0  0  0
   -0.9897    2.0375    2.9875 C   0  0  0  0  0  0  0  0  0  0  0  0
   -1.1016    3.0857    2.6900 H   0  0  0  0  0  0  0  0  0  0  0  0
   -1.9926    1.6131    3.1133 H   0  0  0  0  0  0  0  0  0  0  0  0
   -0.2205    1.9443    4.3093 C   0  0  0  0  0  0  0  0  0  0  0  0
   -0.1082    0.8890    4.5839 H   0  0  0  0  0  0  0  0  0  0  0  0
    0.7802    2.3709    4.1807 H   0  0  0  0  0  0  0  0  0  0  0  0
   -0.9683    2.6900    5.4106 C   0  0  0  0  0  0  0  0  0  0  0  0
   -1.0837    3.7454    5.1237 H   0  0  0  0  0  0  0  0  0  0  0  0
   -1.9793    2.2667    5.5088 H   0  0  0  0  0  0  0  0  0  0  0  0
   -0.2106    2.5568    6.6736 N   0  3  0  0  0  0  0  0  0  0  0  0
    0.7222    2.9590    6.5674 H   0  0  0  0  0  0  0  0  0  0  0  0
   -0.6984    3.0399    7.4309 H   0  0  0  0  0  0  0  0  0  0  0  0
   -0.1186    1.5679    6.9172 H   0  0  0  0  0  0  0  0  0  0  0  0
   -0.0145    0.7914   -0.5468 C   0  0  0  0  0  0  0  0  0  0  0  0
   -0.1605   -0.3363   -0.9985 O   0  0  0  0  0  0  0  0  0  0  0  0
    0.9472    1.6090   -1.1146 N   0  0  0  0  0  0  0  0  0  0  0  0
    1.0171    2.5675   -0.7877 H   0  0  0  0  0  0  0  0  0  0  0  0
    1.8216    1.1736   -2.2005 C   0  0  0  0  0  0  0  0  0  0  0  0
    1.2340    0.9238   -3.0906 H   0  0  0  0  0  0  0  0  0  0  0  0
    2.5262    1.9685   -2.4643 H   0  0  0  0  0  0  0  0  0  0  0  0
    2.3960    0.2904   -1.9005 H   0  0  0  0  0  0  0  0  0  0  0  0
  1  2  1  0  0  0  0
  2  3  1  0  0  0  0
  2  4  1  0  0  0  0
  2  5  1  0  0  0  0
  5  6  2  0  0  0  0
  5  7  1  0  0  0  0
  7  8  1  0  0  0  0
  7  9  1  0  0  0  0
  9 10  1  0  0  0  0
  9 11  1  0  0  0  0
  9 27  1  0  0  0  0
 11 12  1  0  0  0  0
 11 13  1  0  0  0  0
 11 14  1  0  0  0  0
 14 15  1  0  0  0  0
 14 16  1  0  0  0  0
 14 17  1  0  0  0  0
 17 18  1  0  0  0  0
 17 19  1  0  0  0  0
 17 20  1  0  0  0  0
 20 21  1  0  0  0  0
 20 22  1  0  0  0  0
 20 23  1  0  0  0  0
 23 24  1  0  0  0  0
 23 25  1  0  0  0  0
 23 26  1  0  0  0  0
 27 28  2  0  0  0  0
 27 29  1  0  0  0  0
 29 30  1  0  0  0  0
 29 31  1  0  0  0  0
 31 32  1  0  0  0  0
 31 33  1  0  0  0  0
 31 34  1  0  0  0  0
M  CHG  1  23   1
M  END
$$$$

  -OEChem-01062216093D

 34 33  0     1  0  0  0  0  0999 V2000
   -3.6037   -2.4924    0.6821 H   0  0  0  0  0  0  0  0  0  0  0  0
   -3.5399   -1.4997    0.2276 C   0  0  0  0  0  0  0  0  0  0  0  0
   -4.5207   -1.0218    0.2824 H   0  0  0  0  0  0  0  0  0  0  0  0
   -3.2542   -1.6145   -0.8213 H   0  0  0  0  0  0  0  0  0  0  0  0
   -2.5067   -0.6578    0.9509 C   0  0  0  0  0  0  0  0  0  0  0  0
   -2.0054   -1.0893    1.9770 O   0  0  0  0  0  0  0  0  0  0  0  0
   -2.2581    0.6285    0.4973 N   0  0  0  0  0  0  0  0  0  0  0  0
   -2.7820    0.8134   -0.3552 H   0  0  0  0  0  0  0  0  0  0  0  0
   -0.9499    1.3324    0.5428 C   0  0  1  0  0  0  0  0  0  0  0  0
   -1.1291    2.3867    0.3123 H   0  0  0  0  0  0  0  0  0  0  0  0
   -0.2263    1.2504    1.9079 C   0  0  0  0  0  0  0  0  0  0  0  0
   -0.0472    0.2164    2.2108 H   0  0  0  0  0  0  0  0  0  0  0  0
    0.7638    1.7051    1.8020 H   0  0  0  0  0  0  0  0  0  0  0  0
   -0.9805    2.0302    2.9922 C   0  0  0  0  0  0  0  0  0  0  0  0
   -1.0896    3.0769    2.6877 H   0  0  0  0  0  0  0  0  0  0  0  0
   -1.9845    1.6060    3.1098 H   0  0  0  0  0  0  0  0  0  0  0  0
   -0.2258    1.9454    4.3230 C   0  0  0  0  0  0  0  0  0  0  0  0
   -0.1182    0.8917    4.6055 H   0  0  0  0  0  0  0  0  0  0  0  0
    0.7767    2.3699    4.2033 H   0  0  0  0  0  0  0  0  0  0  0  0
   -0.9862    2.6977    5.4107 C   0  0  0  0  0  0  0  0  0  0  0  0
   -1.0988    3.7511    5.1158 H   0  0  0  0  0  0  0  0  0  0  0  0
   -1.9982    2.2751    5.5002 H   0  0  0  0  0  0  0  0  0  0  0  0
   -0.2423    2.5724    6.6826 N   0  3  0  0  0  0  0  0  0  0  0  0
    0.6919    2.9732    6.5839 H   0  0  0  0  0  0  0  0  0  0  0  0
   -0.7380    3.0615    7.4308 H   0  0  0  0  0  0  0  0  0  0  0  0
   -0.1537    1.5854    6.9347 H   0  0  0  0  0  0  0  0  0  0  0  0
    0.0048    0.7834   -0.5514 C   0  0  0  0  0  0  0  0  0  0  0  0
   -0.3071   -0.1936   -1.2201 O   0  0  0  0  0  0  0  0  0  0  0  0
    1.1488    1.4789   -0.9038 N   0  0  0  0  0  0  0  0  0  0  0  0
    1.3680    2.3309   -0.3979 H   0  0  0  0  0  0  0  0  0  0  0  0
    2.0287    1.0632   -1.9929 C   0  0  0  0  0  0  0  0  0  0  0  0
    1.4946    1.0866   -2.9490 H   0  0  0  0  0  0  0  0  0  0  0  0
    2.8914    1.7328   -2.0634 H   0  0  0  0  0  0  0  0  0  0  0  0
    2.3966    0.0456   -1.8218 H   0  0  0  0  0  0  0  0  0  0  0  0
  1  2  1  0  0  0  0
  2  3  1  0  0  0  0
  2  4  1  0  0  0  0
  2  5  1  0  0  0  0
  5  6  2  0  0  0  0
  5  7  1  0  0  0  0
  7  8  1  0  0  0  0
  7  9  1  0  0  0  0
  9 10  1  0  0  0  0
  9 11  1  0  0  0  0
  9 27  1  0  0  0  0
 11 12  1  0  0  0  0
 11 13  1  0  0  0  0
 11 14  1  0  0  0  0
 14 15  1  0  0  0  0
 14 16  1  0  0  0  0
 14 17  1  0  0  0  0
 17 18  1  0  0  0  0
 17 19  1  0  0  0  0
 17 20  1  0  0  0  0
 20 21  1  0  0  0  0
 20 22  1  0  0  0  0
 20 23  1  0  0  0  0
 23 24  1  0  0  0  0
 23 25  1  0  0  0  0
 23 26  1  0  0  0  0
 27 28  2  0  0  0  0
 27 29  1  0  0  0  0
 29 30  1  0  0  0  0
 29 31  1  0  0  0  0
 31 32  1  0  0  0  0
 31 33  1  0  0  0  0
 31 34  1  0  0  0  0
M  CHG  1  23   1
M  END
$$$$

  -OEChem-01062216093D

 34 33  0     1  0  0  0  0  0999 V2000
   -3.7265   -2.4250    0.5683 H   0  0  0  0  0  0  0  0  0  0  0  0
   -3.6612   -1.3897    0.2216 C   0  0  0  0  0  0  0  0  0  0  0  0
   -4.6030   -0.8823    0.4436 H   0  0  0  0  0  0  0  0  0  0  0  0
   -3.5030   -1.3938   -0.8602 H   0  0  0  0  0  0  0  0  0  0  0  0
   -2.5116   -0.6779    0.9082 C   0  0  0  0  0  0  0  0  0  0  0  0
   -1.9523   -1.2308    1.8426 O   0  0  0  0  0  0  0  0  0  0  0  0
   -2.2037    0.6130    0.5088 N   0  0  0  0  0  0  0  0  0  0  0  0
   -2.7403    0.8709   -0.3183 H   0  0  0  0  0  0  0  0  0  0  0  0
   -0.8843    1.2951    0.5694 C   0  0  1  0  0  0  0  0  0  0  0  0
   -1.0708    2.3720    0.6205 H   0  0  0  0  0  0  0  0  0  0  0  0
    0.0035    0.9137    1.7797 C   0  0  0  0  0  0  0  0  0  0  0  0
    0.1913   -0.1630    1.8098 H   0  0  0  0  0  0  0  0  0  0  0  0
    0.9825    1.3888    1.6644 H   0  0  0  0  0  0  0  0  0  0  0  0
   -0.6013    1.4197    3.0978 C   0  0  0  0  0  0  0  0  0  0  0  0
   -0.7269    2.5068    3.0492 H   0  0  0  0  0  0  0  0  0  0  0  0
   -1.5927    0.9773    3.2421 H   0  0  0  0  0  0  0  0  0  0  0  0
    0.3019    1.0511    4.2790 C   0  0  0  0  0  0  0  0  0  0  0  0
    0.4275   -0.0375    4.3087 H   0  0  0  0  0  0  0  0  0  0  0  0
    1.2896    1.5052    4.1432 H   0  0  0  0  0  0  0  0  0  0  0  0
   -0.3271    1.5380    5.5814 C   0  0  0  0  0  0  0  0  0  0  0  0
   -0.4608    2.6287    5.5351 H   0  0  0  0  0  0  0  0  0  0  0  0
   -1.3280    1.0925    5.6833 H   0  0  0  0  0  0  0  0  0  0  0  0
    0.5435    1.1528    6.7130 N   0  3  0  0  0  0  0  0  0  0  0  0
    1.4650    1.5801    6.6083 H   0  0  0  0  0  0  0  0  0  0  0  0
    0.1306    1.4617    7.5956 H   0  0  0  0  0  0  0  0  0  0  0  0
    0.6502    0.1362    6.7359 H   0  0  0  0  0  0  0  0  0  0  0  0
   -0.1118    1.0419   -0.7542 C   0  0  0  0  0  0  0  0  0  0  0  0
   -0.6634    0.4633   -1.6823 O   0  0  0  0  0  0  0  0  0  0  0  0
    1.1522    1.5652   -0.9675 N   0  0  0  0  0  0  0  0  0  0  0  0
    1.5838    2.0956   -0.2181 H   0  0  0  0  0  0  0  0  0  0  0  0
    1.8764    1.4125   -2.2266 C   0  0  0  0  0  0  0  0  0  0  0  0
    1.3141    1.8635   -3.0515 H   0  0  0  0  0  0  0  0  0  0  0  0
    2.8524    1.9038   -2.1666 H   0  0  0  0  0  0  0  0  0  0  0  0
    2.0375    0.3524   -2.4508 H   0  0  0  0  0  0  0  0  0  0  0  0
  1  2  1  0  0  0  0
  2  3  1  0  0  0  0
  2  4  1  0  0  0  0
  2  5  1  0  0  0  0
  5  6  2  0  0  0  0
  5  7  1  0  0  0  0
  7  8  1  0  0  0  0
  7  9  1  0  0  0  0
  9 10  1  0  0  0  0
  9 11  1  0  0  0  0
  9 27  1  0  0  0  0
 11 12  1  0  0  0  0
 11 13  1  0  0  0  0
 11 14  1  0  0  0  0
 14 15  1  0  0  0  0
 14 16  1  0  0  0  0
 14 17  1  0  0  0  0
 17 18  1  0  0  0  0
 17 19  1  0  0  0  0
 17 20  1  0  0  0  0
 20 21  1  0  0  0  0
 20 22  1  0  0  0  0
 20 23  1  0  0  0  0
 23 24  1  0  0  0  0
 23 25  1  0  0  0  0
 23 26  1  0  0  0  0
 27 28  2  0  0  0  0
 27 29  1  0  0  0  0
 29 30  1  0  0  0  0
 29 31  1  0  0  0  0
 31 32  1  0  0  0  0
 31 33  1  0  0  0  0
 31 34  1  0  0  0  0
M  CHG  1  23   1
M  END
$$$$

  -OEChem-01062216093D

 34 33  0     1  0  0  0  0  0999 V2000
   -3.7246   -2.4185    0.5594 H   0  0  0  0  0  0  0  0  0  0  0  0
   -3.6426   -1.3853    0.2102 C   0  0  0  0  0  0  0  0  0  0  0  0
   -4.5752   -0.8621    0.4343 H   0  0  0  0  0  0  0  0  0  0  0  0
   -3.4886   -1.3944   -0.8721 H   0  0  0  0  0  0  0  0  0  0  0  0
   -2.4783   -0.6906    0.8907 C   0  0  0  0  0  0  0  0  0  0  0  0
   -1.8931   -1.2689    1.7932 O   0  0  0  0  0  0  0  0  0  0  0  0
   -2.1722    0.6071    0.5135 N   0  0  0  0  0  0  0  0  0  0  0  0
   -2.7137    0.8868   -0.3042 H   0  0  0  0  0  0  0  0  0  0  0  0
   -0.8572    1.2950    0.5865 C   0  0  1  0  0  0  0  0  0  0  0  0
   -1.0464    2.3715    0.6398 H   0  0  0  0  0  0  0  0  0  0  0  0
    0.0224    0.9175    1.8049 C   0  0  0  0  0  0  0  0  0  0  0  0
    0.2219   -0.1570    1.8365 H   0  0  0  0  0  0  0  0  0  0  0  0
    0.9961    1.4056    1.7033 H   0  0  0  0  0  0  0  0  0  0  0  0
   -0.6002    1.4207    3.1160 C   0  0  0  0  0  0  0  0  0  0  0  0
   -0.7341    2.5067    3.0660 H   0  0  0  0  0  0  0  0  0  0  0  0
   -1.5894    0.9687    3.2483 H   0  0  0  0  0  0  0  0  0  0  0  0
    0.2918    1.0587    4.3074 C   0  0  0  0  0  0  0  0  0  0  0  0
    0.4246   -0.0289    4.3380 H   0  0  0  0  0  0  0  0  0  0  0  0
    1.2775    1.5195    4.1819 H   0  0  0  0  0  0  0  0  0  0  0  0
   -0.3509    1.5409    5.6049 C   0  0  0  0  0  0  0  0  0  0  0  0
   -0.4902    2.6310    5.5596 H   0  0  0  0  0  0  0  0  0  0  0  0
   -1.3501    1.0898    5.6994 H   0  0  0  0  0  0  0  0  0  0  0  0
    0.5156    1.1579    6.7404 N   0  3  0  0  0  0  0  0  0  0  0  0
    1.4373    1.5860    6.6386 H   0  0  0  0  0  0  0  0  0  0  0  0
    0.0996    1.4678    7.6214 H   0  0  0  0  0  0  0  0  0  0  0  0
    0.6230    0.1414    6.7650 H   0  0  0  0  0  0  0  0  0  0  0  0
   -0.1005    1.0530   -0.7492 C   0  0  0  0  0  0  0  0  0  0  0  0
   -0.7375    0.7291   -1.7446 O   0  0  0  0  0  0  0  0  0  0  0  0
    1.2554    1.2956   -0.8933 N   0  0  0  0  0  0  0  0  0  0  0  0
    1.7836    1.5655   -0.0706 H   0  0  0  0  0  0  0  0  0  0  0  0
    1.9686    1.1088   -2.1541 C   0  0  0  0  0  0  0  0  0  0  0  0
    1.5547    1.7610   -2.9307 H   0  0  0  0  0  0  0  0  0  0  0  0
    3.0288    1.3506   -2.0315 H   0  0  0  0  0  0  0  0  0  0  0  0
    1.8885    0.0692   -2.4898 H   0  0  0  0  0  0  0  0  0  0  0  0
  1  2  1  0  0  0  0
  2  3  1  0  0  0  0
  2  4  1  0  0  0  0
  2  5  1  0  0  0  0
  5  6  2  0  0  0  0
  5  7  1  0  0  0  0
  7  8  1  0  0  0  0
  7  9  1  0  0  0  0
  9 10  1  0  0  0  0
  9 11  1  0  0  0  0
  9 27  1  0  0  0  0
 11 12  1  0  0  0  0
 11 13  1  0  0  0  0
 11 14  1  0  0  0  0
 14 15  1  0  0  0  0
 14 16  1  0  0  0  0
 14 17  1  0  0  0  0
 17 18  1  0  0  0  0
 17 19  1  0  0  0  0
 17 20  1  0  0  0  0
 20 21  1  0  0  0  0
 20 22  1  0  0  0  0
 20 23  1  0  0  0  0
 23 24  1  0  0  0  0
 23 25  1  0  0  0  0
 23 26  1  0  0  0  0
 27 28  2  0  0  0  0
 27 29  1  0  0  0  0
 29 30  1  0  0  0  0
 29 31  1  0  0  0  0
 31 32  1  0  0  0  0
 31 33  1  0  0  0  0
 31 34  1  0  0  0  0
M  CHG  1  23   1
M  END
$$$$

  -OEChem-01062216093D

 34 33  0     1  0  0  0  0  0999 V2000
   -3.7251   -2.4161    0.5565 H   0  0  0  0  0  0  0  0  0  0  0  0
   -3.6513   -1.3736    0.2345 C   0  0  0  0  0  0  0  0  0  0  0  0
   -4.5621   -0.8478    0.5303 H   0  0  0  0  0  0  0  0  0  0  0  0
   -3.5622   -1.3503   -0.8547 H   0  0  0  0  0  0  0  0  0  0  0  0
   -2.4406   -0.7139    0.8665 C   0  0  0  0  0  0  0  0  0  0  0  0
   -1.8135   -1.3263    1.7161 O   0  0  0  0  0  0  0  0  0  0  0  0
   -2.1347    0.5888    0.5090 N   0  0  0  0  0  0  0  0  0  0  0  0
   -2.6993    0.9044   -0.2797 H   0  0  0  0  0  0  0  0  0  0  0  0
   -0.8247    1.2821    0.5934 C   0  0  1  0  0  0  0  0  0  0  0  0
   -1.0193    2.3576    0.6503 H   0  0  0  0  0  0  0  0  0  0  0  0
    0.0479    0.9102    1.8185 C   0  0  0  0  0  0  0  0  0  0  0  0
    0.2585   -0.1616    1.8563 H   0  0  0  0  0  0  0  0  0  0  0  0
    1.0162    1.4107    1.7237 H   0  0  0  0  0  0  0  0  0  0  0  0
   -0.5922    1.4127    3.1206 C   0  0  0  0  0  0  0  0  0  0  0  0
   -0.7330    2.4977    3.0659 H   0  0  0  0  0  0  0  0  0  0  0  0
   -1.5797    0.9532    3.2413 H   0  0  0  0  0  0  0  0  0  0  0  0
    0.2871    1.0604    4.3244 C   0  0  0  0  0  0  0  0  0  0  0  0
    0.4259   -0.0262    4.3608 H   0  0  0  0  0  0  0  0  0  0  0  0
    1.2714    1.5272    4.2094 H   0  0  0  0  0  0  0  0  0  0  0  0
   -0.3764    1.5438    5.6115 C   0  0  0  0  0  0  0  0  0  0  0  0
   -0.5219    2.6328    5.5588 H   0  0  0  0  0  0  0  0  0  0  0  0
   -1.3740    1.0871    5.6944 H   0  0  0  0  0  0  0  0  0  0  0  0
    0.4749    1.1726    6.7624 N   0  3  0  0  0  0  0  0  0  0  0  0
    1.3961    1.6041    6.6712 H   0  0  0  0  0  0  0  0  0  0  0  0
    0.0445    1.4875    7.6346 H   0  0  0  0  0  0  0  0  0  0  0  0
    0.5863    0.1568    6.7966 H   0  0  0  0  0  0  0  0  0  0  0  0
   -0.0744    1.0554   -0.7468 C   0  0  0  0  0  0  0  0  0  0  0  0
   -0.7316    0.9867   -1.7781 O   0  0  0  0  0  0  0  0  0  0  0  0
    1.3060    1.0040   -0.8434 N   0  0  0  0  0  0  0  0  0  0  0  0
    1.8423    0.9982    0.0174 H   0  0  0  0  0  0  0  0  0  0  0  0
    2.0067    0.7863   -2.1061 C   0  0  0  0  0  0  0  0  0  0  0  0
    1.7595    1.5761   -2.8239 H   0  0  0  0  0  0  0  0  0  0  0  0
    3.0895    0.7937   -1.9472 H   0  0  0  0  0  0  0  0  0  0  0  0
    1.7278   -0.1802   -2.5397 H   0  0  0  0  0  0  0  0  0  0  0  0
  1  2  1  0  0  0  0
  2  3  1  0  0  0  0
  2  4  1  0  0  0  0
  2  5  1  0  0  0  0
  5  6  2  0  0  0  0
  5  7  1  0  0  0  0
  7  8  1  0  0  0  0
  7  9  1  0  0  0  0
  9 10  1  0  0  0  0
  9 11  1  0  0  0  0
  9 27  1  0  0  0  0
 11 12  1  0  0  0  0
 11 13  1  0  0  0  0
 11 14  1  0  0  0  0
 14 15  1  0  0  0  0
 14 16  1  0  0  0  0
 14 17  1  0  0  0  0
 17 18  1  0  0  0  0
 17 19  1  0  0  0  0
 17 20  1  0  0  0  0
 20 21  1  0  0  0  0
 20 22  1  0  0  0  0
 20 23  1  0  0  0  0
 23 24  1  0  0  0  0
 23 25  1  0  0  0  0
 23 26  1  0  0  0  0
 27 28  2  0  0  0  0
 27 29  1  0  0  0  0
 29 30  1  0  0  0  0
 29 31  1  0  0  0  0
 31 32  1  0  0  0  0
 31 33  1  0  0  0  0
 31 34  1  0  0  0  0
M  CHG  1  23   1
M  END
$$$$

  -OEChem-01062216093D

 34 33  0     1  0  0  0  0  0999 V2000
   -3.7419   -2.4128    0.5619 H   0  0  0  0  0  0  0  0  0  0  0  0
   -3.6640   -1.3680    0.2476 C   0  0  0  0  0  0  0  0  0  0  0  0
   -4.5544   -0.8314    0.5839 H   0  0  0  0  0  0  0  0  0  0  0  0
   -3.6170   -1.3345   -0.8440 H   0  0  0  0  0  0  0  0  0  0  0  0
   -2.4196   -0.7335    0.8394 C   0  0  0  0  0  0  0  0  0  0  0  0
   -1.7573   -1.3726    1.6405 O   0  0  0  0  0  0  0  0  0  0  0  0
   -2.1120    0.5722    0.4957 N   0  0  0  0  0  0  0  0  0  0  0  0
   -2.6970    0.9195   -0.2643 H   0  0  0  0  0  0  0  0  0  0  0  0
   -0.8060    1.2681    0.5962 C   0  0  1  0  0  0  0  0  0  0  0  0
   -1.0062    2.3428    0.6518 H   0  0  0  0  0  0  0  0  0  0  0  0
    0.0606    0.9068    1.8283 C   0  0  0  0  0  0  0  0  0  0  0  0
    0.2777   -0.1631    1.8752 H   0  0  0  0  0  0  0  0  0  0  0  0
    1.0260    1.4141    1.7317 H   0  0  0  0  0  0  0  0  0  0  0  0
   -0.5908    1.4096    3.1243 C   0  0  0  0  0  0  0  0  0  0  0  0
   -0.7394    2.4936    3.0652 H   0  0  0  0  0  0  0  0  0  0  0  0
   -1.5752    0.9416    3.2394 H   0  0  0  0  0  0  0  0  0  0  0  0
    0.2839    1.0674    4.3343 C   0  0  0  0  0  0  0  0  0  0  0  0
    0.4312   -0.0178    4.3753 H   0  0  0  0  0  0  0  0  0  0  0  0
    1.2653    1.5412    4.2232 H   0  0  0  0  0  0  0  0  0  0  0  0
   -0.3891    1.5503    5.6163 C   0  0  0  0  0  0  0  0  0  0  0  0
   -0.5406    2.6382    5.5597 H   0  0  0  0  0  0  0  0  0  0  0  0
   -1.3844    1.0878    5.6960 H   0  0  0  0  0  0  0  0  0  0  0  0
    0.4599    1.1876    6.7719 N   0  3  0  0  0  0  0  0  0  0  0  0
    1.3808    1.6202    6.6798 H   0  0  0  0  0  0  0  0  0  0  0  0
    0.0269    1.5075    7.6411 H   0  0  0  0  0  0  0  0  0  0  0  0
    0.5731    0.1722    6.8130 H   0  0  0  0  0  0  0  0  0  0  0  0
   -0.0502    1.0509   -0.7392 C   0  0  0  0  0  0  0  0  0  0  0  0
   -0.6683    1.2201   -1.7820 O   0  0  0  0  0  0  0  0  0  0  0  0
    1.2882    0.7034   -0.8083 N   0  0  0  0  0  0  0  0  0  0  0  0
    1.7496    0.4407    0.0565 H   0  0  0  0  0  0  0  0  0  0  0  0
    1.9744    0.4480   -2.0717 C   0  0  0  0  0  0  0  0  0  0  0  0
    1.9321    1.3319   -2.7174 H   0  0  0  0  0  0  0  0  0  0  0  0
    3.0262    0.2055   -1.8919 H   0  0  0  0  0  0  0  0  0  0  0  0
    1.5105   -0.3930   -2.5983 H   0  0  0  0  0  0  0  0  0  0  0  0
  1  2  1  0  0  0  0
  2  3  1  0  0  0  0
  2  4  1  0  0  0  0
  2  5  1  0  0  0  0
  5  6  2  0  0  0  0
  5  7  1  0  0  0  0
  7  8  1  0  0  0  0
  7  9  1  0  0  0  0
  9 10  1  0  0  0  0
  9 11  1  0  0  0  0
  9 27  1  0  0  0  0
 11 12  1  0  0  0  0
 11 13  1  0  0  0  0
 11 14  1  0  0  0  0
 14 15  1  0  0  0  0
 14 16  1  0  0  0  0
 14 17  1  0  0  0  0
 17 18  1  0  0  0  0
 17 19  1  0  0  0  0
 17 20  1  0  0  0  0
 20 21  1  0  0  0  0
 20 22  1  0  0  0  0
 20 23  1  0  0  0  0
 23 24  1  0  0  0  0
 23 25  1  0  0  0  0
 23 26  1  0  0  0  0
 27 28  2  0  0  0  0
 27 29  1  0  0  0  0
 29 30  1  0  0  0  0
 29 31  1  0  0  0  0
 31 32  1  0  0  0  0
 31 33  1  0  0  0  0
 31 34  1  0  0  0  0
M  CHG  1  23   1
M  END
$$$$

  -OEChem-01062216093D

 34 33  0     1  0  0  0  0  0999 V2000
   -3.7765   -2.4075    0.5808 H   0  0  0  0  0  0  0  0  0  0  0  0
   -3.6914   -1.3620    0.2714 C   0  0  0  0  0  0  0  0  0  0  0  0
   -4.5564   -0.8118    0.6494 H   0  0  0  0  0  0  0  0  0  0  0  0
   -3.6901   -1.3202   -0.8209 H   0  0  0  0  0  0  0  0  0  0  0  0
   -2.4110   -0.7568    0.8148 C   0  0  0  0  0  0  0  0  0  0  0  0
   -1.7111   -1.4241    1.5585 O   0  0  0  0  0  0  0  0  0  0  0  0
   -2.0989    0.5500    0.4816 N   0  0  0  0  0  0  0  0  0  0  0  0
   -2.7131    0.9353   -0.2352 H   0  0  0  0  0  0  0  0  0  0  0  0
   -0.7939    1.2431    0.5930 C   0  0  1  0  0  0  0  0  0  0  0  0
   -0.9982    2.3172    0.6495 H   0  0  0  0  0  0  0  0  0  0  0  0
    0.0685    0.8917    1.8303 C   0  0  0  0  0  0  0  0  0  0  0  0
    0.2836   -0.1776    1.8899 H   0  0  0  0  0  0  0  0  0  0  0  0
    1.0353    1.3962    1.7276 H   0  0  0  0  0  0  0  0  0  0  0  0
   -0.5876    1.4016    3.1202 C   0  0  0  0  0  0  0  0  0  0  0  0
   -0.7385    2.4848    3.0538 H   0  0  0  0  0  0  0  0  0  0  0  0
   -1.5712    0.9316    3.2345 H   0  0  0  0  0  0  0  0  0  0  0  0
    0.2845    1.0690    4.3347 C   0  0  0  0  0  0  0  0  0  0  0  0
    0.4328   -0.0158    4.3841 H   0  0  0  0  0  0  0  0  0  0  0  0
    1.2655    1.5435    4.2225 H   0  0  0  0  0  0  0  0  0  0  0  0
   -0.3930    1.5594    5.6114 C   0  0  0  0  0  0  0  0  0  0  0  0
   -0.5454    2.6468    5.5464 H   0  0  0  0  0  0  0  0  0  0  0  0
   -1.3880    1.0966    5.6918 H   0  0  0  0  0  0  0  0  0  0  0  0
    0.4535    1.2062    6.7714 N   0  3  0  0  0  0  0  0  0  0  0  0
    1.3732    1.6413    6.6790 H   0  0  0  0  0  0  0  0  0  0  0  0
    0.0175    1.5305    7.6372 H   0  0  0  0  0  0  0  0  0  0  0  0
    0.5703    0.1918    6.8195 H   0  0  0  0  0  0  0  0  0  0  0  0
   -0.0263    1.0378   -0.7339 C   0  0  0  0  0  0  0  0  0  0  0  0
   -0.5489    1.4380   -1.7646 O   0  0  0  0  0  0  0  0  0  0  0  0
    1.2050    0.4093   -0.8019 N   0  0  0  0  0  0  0  0  0  0  0  0
    1.5280   -0.0678    0.0341 H   0  0  0  0  0  0  0  0  0  0  0  0
    1.8815    0.1339   -2.0659 C   0  0  0  0  0  0  0  0  0  0  0  0
    2.0593    1.0637   -2.6169 H   0  0  0  0  0  0  0  0  0  0  0  0
    2.8478   -0.3462   -1.8836 H   0  0  0  0  0  0  0  0  0  0  0  0
    1.2759   -0.5325   -2.6894 H   0  0  0  0  0  0  0  0  0  0  0  0
  1  2  1  0  0  0  0
  2  3  1  0  0  0  0
  2  4  1  0  0  0  0
  2  5  1  0  0  0  0
  5  6  2  0  0  0  0
  5  7  1  0  0  0  0
  7  8  1  0  0  0  0
  7  9  1  0  0  0  0
  9 10  1  0  0  0  0
  9 11  1  0  0  0  0
  9 27  1  0  0  0  0
 11 12  1  0  0  0  0
 11 13  1  0  0  0  0
 11 14  1  0  0  0  0
 14 15  1  0  0  0  0
 14 16  1  0  0  0  0
 14 17  1  0  0  0  0
 17 18  1  0  0  0  0
 17 19  1  0  0  0  0
 17 20  1  0  0  0  0
 20 21  1  0  0  0  0
 20 22  1  0  0  0  0
 20 23  1  0  0  0  0
 23 24  1  0  0  0  0
 23 25  1  0  0  0  0
 23 26  1  0  0  0  0
 27 28  2  0  0  0  0
 27 29  1  0  0  0  0
 29 30  1  0  0  0  0
 29 31  1  0  0  0  0
 31 32  1  0  0  0  0
 31 33  1  0  0  0  0
 31 34  1  0  0  0  0
M  CHG  1  23   1
M  END
$$$$

  -OEChem-01062216093D

 34 33  0     1  0  0  0  0  0999 V2000
   -3.8229   -2.4002    0.6304 H   0  0  0  0  0  0  0  0  0  0  0  0
   -3.7320   -1.3560    0.3173 C   0  0  0  0  0  0  0  0  0  0  0  0
   -4.5619   -0.7878    0.7445 H   0  0  0  0  0  0  0  0  0  0  0  0
   -3.7929   -1.3119   -0.7732 H   0  0  0  0  0  0  0  0  0  0  0  0
   -2.4094   -0.7803    0.7873 C   0  0  0  0  0  0  0  0  0  0  0  0
   -1.6643   -1.4772    1.4553 O   0  0  0  0  0  0  0  0  0  0  0  0
   -2.0938    0.5260    0.4565 N   0  0  0  0  0  0  0  0  0  0  0  0
   -2.7446    0.9511   -0.2026 H   0  0  0  0  0  0  0  0  0  0  0  0
   -0.7902    1.2183    0.5786 C   0  0  1  0  0  0  0  0  0  0  0  0
   -0.9995    2.2919    0.6317 H   0  0  0  0  0  0  0  0  0  0  0  0
    0.0670    0.8786    1.8227 C   0  0  0  0  0  0  0  0  0  0  0  0
    0.2815   -0.1896    1.8942 H   0  0  0  0  0  0  0  0  0  0  0  0
    1.0349    1.3805    1.7149 H   0  0  0  0  0  0  0  0  0  0  0  0
   -0.5926    1.3948    3.1079 C   0  0  0  0  0  0  0  0  0  0  0  0
   -0.7458    2.4772    3.0346 H   0  0  0  0  0  0  0  0  0  0  0  0
   -1.5743    0.9216    3.2237 H   0  0  0  0  0  0  0  0  0  0  0  0
    0.2806    1.0704    4.3241 C   0  0  0  0  0  0  0  0  0  0  0  0
    0.4322   -0.0138    4.3787 H   0  0  0  0  0  0  0  0  0  0  0  0
    1.2605    1.5464    4.2079 H   0  0  0  0  0  0  0  0  0  0  0  0
   -0.3939    1.5645    5.6007 C   0  0  0  0  0  0  0  0  0  0  0  0
   -0.5479    2.6513    5.5327 H   0  0  0  0  0  0  0  0  0  0  0  0
   -1.3876    1.1006    5.6869 H   0  0  0  0  0  0  0  0  0  0  0  0
    0.4585    1.2163    6.7578 N   0  3  0  0  0  0  0  0  0  0  0  0
    1.3768    1.6533    6.6597 H   0  0  0  0  0  0  0  0  0  0  0  0
    0.0260    1.5423    7.6249 H   0  0  0  0  0  0  0  0  0  0  0  0
    0.5779    0.2023    6.8080 H   0  0  0  0  0  0  0  0  0  0  0  0
   -0.0019    1.0193   -0.7335 C   0  0  0  0  0  0  0  0  0  0  0  0
   -0.3585    1.6415   -1.7232 O   0  0  0  0  0  0  0  0  0  0  0  0
    1.0641    0.1427   -0.8255 N   0  0  0  0  0  0  0  0  0  0  0  0
    1.1923   -0.5023   -0.0505 H   0  0  0  0  0  0  0  0  0  0  0  0
    1.7397   -0.1435   -2.0870 C   0  0  0  0  0  0  0  0  0  0  0  0
    2.1470    0.7755   -2.5222 H   0  0  0  0  0  0  0  0  0  0  0  0
    2.5668   -0.8417   -1.9253 H   0  0  0  0  0  0  0  0  0  0  0  0
    1.0424   -0.5911   -2.8034 H   0  0  0  0  0  0  0  0  0  0  0  0
  1  2  1  0  0  0  0
  2  3  1  0  0  0  0
  2  4  1  0  0  0  0
  2  5  1  0  0  0  0
  5  6  2  0  0  0  0
  5  7  1  0  0  0  0
  7  8  1  0  0  0  0
  7  9  1  0  0  0  0
  9 10  1  0  0  0  0
  9 11  1  0  0  0  0
  9 27  1  0  0  0  0
 11 12  1  0  0  0  0
 11 13  1  0  0  0  0
 11 14  1  0  0  0  0
 14 15  1  0  0  0  0
 14 16  1  0  0  0  0
 14 17  1  0  0  0  0
 17 18  1  0  0  0  0
 17 19  1  0  0  0  0
 17 20  1  0  0  0  0
 20 21  1  0  0  0  0
 20 22  1  0  0  0  0
 20 23  1  0  0  0  0
 23 24  1  0  0  0  0
 23 25  1  0  0  0  0
 23 26  1  0  0  0  0
 27 28  2  0  0  0  0
 27 29  1  0  0  0  0
 29 30  1  0  0  0  0
 29 31  1  0  0  0  0
 31 32  1  0  0  0  0
 31 33  1  0  0  0  0
 31 34  1  0  0  0  0
M  CHG  1  23   1
M  END
$$$$

  -OEChem-01062216093D

 34 33  0     1  0  0  0  0  0999 V2000
   -3.8614   -2.3976    0.6653 H   0  0  0  0  0  0  0  0  0  0  0  0
   -3.7724   -1.3519    0.3567 C   0  0  0  0  0  0  0  0  0  0  0  0
   -4.5732   -0.7771    0.8282 H   0  0  0  0  0  0  0  0  0  0  0  0
   -3.8858   -1.2975   -0.7291 H   0  0  0  0  0  0  0  0  0  0  0  0
   -2.4206   -0.7970    0.7655 C   0  0  0  0  0  0  0  0  0  0  0  0
   -1.6363   -1.5172    1.3600 O   0  0  0  0  0  0  0  0  0  0  0  0
   -2.1027    0.5072    0.4307 N   0  0  0  0  0  0  0  0  0  0  0  0
   -2.7857    0.9641   -0.1715 H   0  0  0  0  0  0  0  0  0  0  0  0
   -0.8001    1.1988    0.5617 C   0  0  1  0  0  0  0  0  0  0  0  0
   -1.0132    2.2723    0.6110 H   0  0  0  0  0  0  0  0  0  0  0  0
    0.0548    0.8701    1.8098 C   0  0  0  0  0  0  0  0  0  0  0  0
    0.2705   -0.1974    1.8884 H   0  0  0  0  0  0  0  0  0  0  0  0
    1.0225    1.3711    1.6963 H   0  0  0  0  0  0  0  0  0  0  0  0
   -0.6022    1.3897    3.0950 C   0  0  0  0  0  0  0  0  0  0  0  0
   -0.7565    2.4718    3.0188 H   0  0  0  0  0  0  0  0  0  0  0  0
   -1.5830    0.9163    3.2160 H   0  0  0  0  0  0  0  0  0  0  0  0
    0.2789    1.0700    4.3079 C   0  0  0  0  0  0  0  0  0  0  0  0
    0.4346   -0.0135    4.3630 H   0  0  0  0  0  0  0  0  0  0  0  0
    1.2569    1.5484    4.1843 H   0  0  0  0  0  0  0  0  0  0  0  0
   -0.3859    1.5646    5.5899 C   0  0  0  0  0  0  0  0  0  0  0  0
   -0.5426    2.6512    5.5211 H   0  0  0  0  0  0  0  0  0  0  0  0
   -1.3781    1.0990    5.6847 H   0  0  0  0  0  0  0  0  0  0  0  0
    0.4754    1.2204    6.7422 N   0  3  0  0  0  0  0  0  0  0  0  0
    1.3933    1.6564    6.6354 H   0  0  0  0  0  0  0  0  0  0  0  0
    0.0501    1.5504    7.6112 H   0  0  0  0  0  0  0  0  0  0  0  0
    0.5951    0.2066    6.7959 H   0  0  0  0  0  0  0  0  0  0  0  0
    0.0078    0.9970   -0.7358 C   0  0  0  0  0  0  0  0  0  0  0  0
   -0.1257    1.8021   -1.6451 O   0  0  0  0  0  0  0  0  0  0  0  0
    0.8589   -0.0822   -0.8888 N   0  0  0  0  0  0  0  0  0  0  0  0
    0.7882   -0.8190   -0.1903 H   0  0  0  0  0  0  0  0  0  0  0  0
    1.5472   -0.3726   -2.1425 C   0  0  0  0  0  0  0  0  0  0  0  0
    2.1776    0.4725   -2.4390 H   0  0  0  0  0  0  0  0  0  0  0  0
    2.1861   -1.2541   -2.0298 H   0  0  0  0  0  0  0  0  0  0  0  0
    0.8245   -0.5683   -2.9418 H   0  0  0  0  0  0  0  0  0  0  0  0
  1  2  1  0  0  0  0
  2  3  1  0  0  0  0
  2  4  1  0  0  0  0
  2  5  1  0  0  0  0
  5  6  2  0  0  0  0
  5  7  1  0  0  0  0
  7  8  1  0  0  0  0
  7  9  1  0  0  0  0
  9 10  1  0  0  0  0
  9 11  1  0  0  0  0
  9 27  1  0  0  0  0
 11 12  1  0  0  0  0
 11 13  1  0  0  0  0
 11 14  1  0  0  0  0
 14 15  1  0  0  0  0
 14 16  1  0  0  0  0
 14 17  1  0  0  0  0
 17 18  1  0  0  0  0
 17 19  1  0  0  0  0
 17 20  1  0  0  0  0
 20 21  1  0  0  0  0
 20 22  1  0  0  0  0
 20 23  1  0  0  0  0
 23 24  1  0  0  0  0
 23 25  1  0  0  0  0
 23 26  1  0  0  0  0
 27 28  2  0  0  0  0
 27 29  1  0  0  0  0
 29 30  1  0  0  0  0
 29 31  1  0  0  0  0
 31 32  1  0  0  0  0
 31 33  1  0  0  0  0
 31 34  1  0  0  0  0
M  CHG  1  23   1
M  END
$$$$

  -OEChem-01062216093D

 34 33  0     1  0  0  0  0  0999 V2000
   -3.9073   -2.3754    0.7751 H   0  0  0  0  0  0  0  0  0  0  0  0
   -3.8188   -1.3352    0.4486 C   0  0  0  0  0  0  0  0  0  0  0  0
   -4.5661   -0.7370    0.9755 H   0  0  0  0  0  0  0  0  0  0  0  0
   -4.0163   -1.2881   -0.6254 H   0  0  0  0  0  0  0  0  0  0  0  0
   -2.4272   -0.8089    0.7438 C   0  0  0  0  0  0  0  0  0  0  0  0
   -1.5959   -1.5552    1.2323 O   0  0  0  0  0  0  0  0  0  0  0  0
   -2.1131    0.4931    0.3996 N   0  0  0  0  0  0  0  0  0  0  0  0
   -2.8356    0.9838   -0.1240 H   0  0  0  0  0  0  0  0  0  0  0  0
   -0.8138    1.1903    0.5340 C   0  0  1  0  0  0  0  0  0  0  0  0
   -1.0312    2.2630    0.5785 H   0  0  0  0  0  0  0  0  0  0  0  0
    0.0407    0.8666    1.7821 C   0  0  0  0  0  0  0  0  0  0  0  0
    0.2614   -0.1999    1.8602 H   0  0  0  0  0  0  0  0  0  0  0  0
    1.0067    1.3713    1.6680 H   0  0  0  0  0  0  0  0  0  0  0  0
   -0.6176    1.3818    3.0676 C   0  0  0  0  0  0  0  0  0  0  0  0
   -0.7771    2.4634    2.9931 H   0  0  0  0  0  0  0  0  0  0  0  0
   -1.5956    0.9030    3.1899 H   0  0  0  0  0  0  0  0  0  0  0  0
    0.2696    1.0637    4.2763 C   0  0  0  0  0  0  0  0  0  0  0  0
    0.4317   -0.0191    4.3279 H   0  0  0  0  0  0  0  0  0  0  0  0
    1.2443    1.5478    4.1497 H   0  0  0  0  0  0  0  0  0  0  0  0
   -0.3902    1.5511    5.5629 C   0  0  0  0  0  0  0  0  0  0  0  0
   -0.5526    2.6370    5.4995 H   0  0  0  0  0  0  0  0  0  0  0  0
   -1.3792    1.0803    5.6631 H   0  0  0  0  0  0  0  0  0  0  0  0
    0.4824    1.2053    6.7060 N   0  3  0  0  0  0  0  0  0  0  0  0
    1.3962    1.6491    6.5946 H   0  0  0  0  0  0  0  0  0  0  0  0
    0.0618    1.5262    7.5807 H   0  0  0  0  0  0  0  0  0  0  0  0
    0.6107    0.1921    6.7517 H   0  0  0  0  0  0  0  0  0  0  0  0
    0.0100    0.9832   -0.7501 C   0  0  0  0  0  0  0  0  0  0  0  0
    0.1416    1.9077   -1.5377 O   0  0  0  0  0  0  0  0  0  0  0  0
    0.6143   -0.2351   -0.9953 N   0  0  0  0  0  0  0  0  0  0  0  0
    0.3528   -1.0047   -0.3801 H   0  0  0  0  0  0  0  0  0  0  0  0
    1.3401   -0.5299   -2.2254 C   0  0  0  0  0  0  0  0  0  0  0  0
    2.1646    0.1778   -2.3635 H   0  0  0  0  0  0  0  0  0  0  0  0
    1.7584   -1.5406   -2.1864 H   0  0  0  0  0  0  0  0  0  0  0  0
    0.6719   -0.4637   -3.0905 H   0  0  0  0  0  0  0  0  0  0  0  0
  1  2  1  0  0  0  0
  2  3  1  0  0  0  0
  2  4  1  0  0  0  0
  2  5  1  0  0  0  0
  5  6  2  0  0  0  0
  5  7  1  0  0  0  0
  7  8  1  0  0  0  0
  7  9  1  0  0  0  0
  9 10  1  0  0  0  0
  9 11  1  0  0  0  0
  9 27  1  0  0  0  0
 11 12  1  0  0  0  0
 11 13  1  0  0  0  0
 11 14  1  0  0  0  0
 14 15  1  0  0  0  0
 14 16  1  0  0  0  0
 14 17  1  0  0  0  0
 17 18  1  0  0  0  0
 17 19  1  0  0  0  0
 17 20  1  0  0  0  0
 20 21  1  0  0  0  0
 20 22  1  0  0  0  0
 20 23  1  0  0  0  0
 23 24  1  0  0  0  0
 23 25  1  0  0  0  0
 23 26  1  0  0  0  0
 27 28  2  0  0  0  0
 27 29  1  0  0  0  0
 29 30  1  0  0  0  0
 29 31  1  0  0  0  0
 31 32  1  0  0  0  0
 31 33  1  0  0  0  0
 31 34  1  0  0  0  0
M  CHG  1  23   1
M  END
$$$$

  -OEChem-01062216093D

 34 33  0     1  0  0  0  0  0999 V2000
   -3.9573   -2.3584    0.8582 H   0  0  0  0  0  0  0  0  0  0  0  0
   -3.8697   -1.3221    0.5192 C   0  0  0  0  0  0  0  0  0  0  0  0
   -4.5832   -0.7097    1.0755 H   0  0  0  0  0  0  0  0  0  0  0  0
   -4.1162   -1.2801   -0.5448 H   0  0  0  0  0  0  0  0  0  0  0  0
   -2.4582   -0.8140    0.7444 C   0  0  0  0  0  0  0  0  0  0  0  0
   -1.6082   -1.5759    1.1722 O   0  0  0  0  0  0  0  0  0  0  0  0
   -2.1417    0.4834    0.3851 N   0  0  0  0  0  0  0  0  0  0  0  0
   -2.8891    0.9944   -0.0805 H   0  0  0  0  0  0  0  0  0  0  0  0
   -0.8413    1.1839    0.5103 C   0  0  1  0  0  0  0  0  0  0  0  0
   -1.0591    2.2567    0.5496 H   0  0  0  0  0  0  0  0  0  0  0  0
    0.0163    0.8615    1.7552 C   0  0  0  0  0  0  0  0  0  0  0  0
    0.2367   -0.2055    1.8307 H   0  0  0  0  0  0  0  0  0  0  0  0
    0.9825    1.3649    1.6364 H   0  0  0  0  0  0  0  0  0  0  0  0
   -0.6335    1.3763    3.0450 C   0  0  0  0  0  0  0  0  0  0  0  0
   -0.7910    2.4582    2.9724 H   0  0  0  0  0  0  0  0  0  0  0  0
   -1.6112    0.8988    3.1748 H   0  0  0  0  0  0  0  0  0  0  0  0
    0.2640    1.0548    4.2453 C   0  0  0  0  0  0  0  0  0  0  0  0
    0.4258   -0.0281    4.2934 H   0  0  0  0  0  0  0  0  0  0  0  0
    1.2385    1.5375    4.1102 H   0  0  0  0  0  0  0  0  0  0  0  0
   -0.3835    1.5401    5.5389 C   0  0  0  0  0  0  0  0  0  0  0  0
   -0.5447    2.6266    5.4788 H   0  0  0  0  0  0  0  0  0  0  0  0
   -1.3721    1.0696    5.6464 H   0  0  0  0  0  0  0  0  0  0  0  0
    0.4991    1.1908    6.6731 N   0  3  0  0  0  0  0  0  0  0  0  0
    1.4112    1.6364    6.5557 H   0  0  0  0  0  0  0  0  0  0  0  0
    0.0856    1.5071    7.5528 H   0  0  0  0  0  0  0  0  0  0  0  0
    0.6294    0.1777    6.7131 H   0  0  0  0  0  0  0  0  0  0  0  0
   -0.0043    0.9716   -0.7638 C   0  0  0  0  0  0  0  0  0  0  0  0
    0.3843    1.9384   -1.4014 O   0  0  0  0  0  0  0  0  0  0  0  0
    0.3467   -0.3076   -1.1499 N   0  0  0  0  0  0  0  0  0  0  0  0
   -0.0291   -1.0770   -0.5951 H   0  0  0  0  0  0  0  0  0  0  0  0
    1.1202   -0.6010   -2.3505 C   0  0  0  0  0  0  0  0  0  0  0  0
    2.0904   -0.0942   -2.3154 H   0  0  0  0  0  0  0  0  0  0  0  0
    1.2969   -1.6777   -2.4348 H   0  0  0  0  0  0  0  0  0  0  0  0
    0.5818   -0.2675   -3.2440 H   0  0  0  0  0  0  0  0  0  0  0  0
  1  2  1  0  0  0  0
  2  3  1  0  0  0  0
  2  4  1  0  0  0  0
  2  5  1  0  0  0  0
  5  6  2  0  0  0  0
  5  7  1  0  0  0  0
  7  8  1  0  0  0  0
  7  9  1  0  0  0  0
  9 10  1  0  0  0  0
  9 11  1  0  0  0  0
  9 27  1  0  0  0  0
 11 12  1  0  0  0  0
 11 13  1  0  0  0  0
 11 14  1  0  0  0  0
 14 15  1  0  0  0  0
 14 16  1  0  0  0  0
 14 17  1  0  0  0  0
 17 18  1  0  0  0  0
 17 19  1  0  0  0  0
 17 20  1  0  0  0  0
 20 21  1  0  0  0  0
 20 22  1  0  0  0  0
 20 23  1  0  0  0  0
 23 24  1  0  0  0  0
 23 25  1  0  0  0  0
 23 26  1  0  0  0  0
 27 28  2  0  0  0  0
 27 29  1  0  0  0  0
 29 30  1  0  0  0  0
 29 31  1  0  0  0  0
 31 32  1  0  0  0  0
 31 33  1  0  0  0  0
 31 34  1  0  0  0  0
M  CHG  1  23   1
M  END
$$$$

  -OEChem-01062216093D

 34 33  0     1  0  0  0  0  0999 V2000
   -4.0086   -2.3495    0.9134 H   0  0  0  0  0  0  0  0  0  0  0  0
   -3.9234   -1.3141    0.5707 C   0  0  0  0  0  0  0  0  0  0  0  0
   -4.6169   -0.6961    1.1459 H   0  0  0  0  0  0  0  0  0  0  0  0
   -4.1993   -1.2721   -0.4862 H   0  0  0  0  0  0  0  0  0  0  0  0
   -2.5028   -0.8160    0.7574 C   0  0  0  0  0  0  0  0  0  0  0  0
   -1.6483   -1.5841    1.1625 O   0  0  0  0  0  0  0  0  0  0  0  0
   -2.1843    0.4768    0.3842 N   0  0  0  0  0  0  0  0  0  0  0  0
   -2.9423    0.9932   -0.0575 H   0  0  0  0  0  0  0  0  0  0  0  0
   -0.8823    1.1809    0.4914 C   0  0  1  0  0  0  0  0  0  0  0  0
   -1.1009    2.2535    0.5283 H   0  0  0  0  0  0  0  0  0  0  0  0
   -0.0164    0.8586    1.7305 C   0  0  0  0  0  0  0  0  0  0  0  0
    0.2017   -0.2092    1.8021 H   0  0  0  0  0  0  0  0  0  0  0  0
    0.9502    1.3598    1.6048 H   0  0  0  0  0  0  0  0  0  0  0  0
   -0.6515    1.3736    3.0274 C   0  0  0  0  0  0  0  0  0  0  0  0
   -0.8067    2.4561    2.9579 H   0  0  0  0  0  0  0  0  0  0  0  0
   -1.6287    0.8985    3.1679 H   0  0  0  0  0  0  0  0  0  0  0  0
    0.2606    1.0478    4.2157 C   0  0  0  0  0  0  0  0  0  0  0  0
    0.4199   -0.0357    4.2589 H   0  0  0  0  0  0  0  0  0  0  0  0
    1.2344    1.5284    4.0686 H   0  0  0  0  0  0  0  0  0  0  0  0
   -0.3672    1.5312    5.5194 C   0  0  0  0  0  0  0  0  0  0  0  0
   -0.5262    2.6182    5.4642 H   0  0  0  0  0  0  0  0  0  0  0  0
   -1.3555    1.0635    5.6402 H   0  0  0  0  0  0  0  0  0  0  0  0
    0.5304    1.1771    6.6404 N   0  3  0  0  0  0  0  0  0  0  0  0
    1.4443    1.6148    6.5074 H   0  0  0  0  0  0  0  0  0  0  0  0
    0.1336    1.4992    7.5257 H   0  0  0  0  0  0  0  0  0  0  0  0
    0.6529    0.1631    6.6812 H   0  0  0  0  0  0  0  0  0  0  0  0
   -0.0375    0.9694   -0.7793 C   0  0  0  0  0  0  0  0  0  0  0  0
    0.5673    1.9146   -1.2631 O   0  0  0  0  0  0  0  0  0  0  0  0
    0.0725   -0.2888   -1.3395 N   0  0  0  0  0  0  0  0  0  0  0  0
   -0.3652   -1.0572   -0.8316 H   0  0  0  0  0  0  0  0  0  0  0  0
    0.9094   -0.5830   -2.4968 C   0  0  0  0  0  0  0  0  0  0  0  0
    1.9582   -0.3537   -2.2809 H   0  0  0  0  0  0  0  0  0  0  0  0
    0.8338   -1.6426   -2.7599 H   0  0  0  0  0  0  0  0  0  0  0  0
    0.5908    0.0100   -3.3608 H   0  0  0  0  0  0  0  0  0  0  0  0
  1  2  1  0  0  0  0
  2  3  1  0  0  0  0
  2  4  1  0  0  0  0
  2  5  1  0  0  0  0
  5  6  2  0  0  0  0
  5  7  1  0  0  0  0
  7  8  1  0  0  0  0
  7  9  1  0  0  0  0
  9 10  1  0  0  0  0
  9 11  1  0  0  0  0
  9 27  1  0  0  0  0
 11 12  1  0  0  0  0
 11 13  1  0  0  0  0
 11 14  1  0  0  0  0
 14 15  1  0  0  0  0
 14 16  1  0  0  0  0
 14 17  1  0  0  0  0
 17 18  1  0  0  0  0
 17 19  1  0  0  0  0
 17 20  1  0  0  0  0
 20 21  1  0  0  0  0
 20 22  1  0  0  0  0
 20 23  1  0  0  0  0
 23 24  1  0  0  0  0
 23 25  1  0  0  0  0
 23 26  1  0  0  0  0
 27 28  2  0  0  0  0
 27 29  1  0  0  0  0
 29 30  1  0  0  0  0
 29 31  1  0  0  0  0
 31 32  1  0  0  0  0
 31 33  1  0  0  0  0
 31 34  1  0  0  0  0
M  CHG  1  23   1
M  END
$$$$

  -OEChem-01062216093D

 34 33  0     1  0  0  0  0  0999 V2000
   -4.0495   -2.3464    0.9536 H   0  0  0  0  0  0  0  0  0  0  0  0
   -3.9622   -1.3127    0.6065 C   0  0  0  0  0  0  0  0  0  0  0  0
   -4.6451   -0.6891    1.1882 H   0  0  0  0  0  0  0  0  0  0  0  0
   -4.2510   -1.2725   -0.4469 H   0  0  0  0  0  0  0  0  0  0  0  0
   -2.5365   -0.8229    0.7745 C   0  0  0  0  0  0  0  0  0  0  0  0
   -1.6849   -1.5942    1.1768 O   0  0  0  0  0  0  0  0  0  0  0  0
   -2.2159    0.4668    0.3925 N   0  0  0  0  0  0  0  0  0  0  0  0
   -2.9804    0.9864   -0.0341 H   0  0  0  0  0  0  0  0  0  0  0  0
   -0.9116    1.1718    0.4820 C   0  0  1  0  0  0  0  0  0  0  0  0
   -1.1322    2.2438    0.5181 H   0  0  0  0  0  0  0  0  0  0  0  0
   -0.0411    0.8510    1.7194 C   0  0  0  0  0  0  0  0  0  0  0  0
    0.1733   -0.2175    1.7909 H   0  0  0  0  0  0  0  0  0  0  0  0
    0.9274    1.3473    1.5897 H   0  0  0  0  0  0  0  0  0  0  0  0
   -0.6635    1.3717    3.0199 C   0  0  0  0  0  0  0  0  0  0  0  0
   -0.8142    2.4546    2.9492 H   0  0  0  0  0  0  0  0  0  0  0  0
   -1.6412    0.9007    3.1694 H   0  0  0  0  0  0  0  0  0  0  0  0
    0.2576    1.0440    4.2007 C   0  0  0  0  0  0  0  0  0  0  0  0
    0.4121   -0.0403    4.2444 H   0  0  0  0  0  0  0  0  0  0  0  0
    1.2323    1.5194    4.0434 H   0  0  0  0  0  0  0  0  0  0  0  0
   -0.3545    1.5321    5.5098 C   0  0  0  0  0  0  0  0  0  0  0  0
   -0.5077    2.6202    5.4555 H   0  0  0  0  0  0  0  0  0  0  0  0
   -1.3438    1.0698    5.6412 H   0  0  0  0  0  0  0  0  0  0  0  0
    0.5543    1.1740    6.6203 N   0  3  0  0  0  0  0  0  0  0  0  0
    1.4696    1.6048    6.4746 H   0  0  0  0  0  0  0  0  0  0  0  0
    0.1711    1.5007    7.5097 H   0  0  0  0  0  0  0  0  0  0  0  0
    0.6701    0.1592    6.6612 H   0  0  0  0  0  0  0  0  0  0  0  0
   -0.0590    0.9690   -0.7875 C   0  0  0  0  0  0  0  0  0  0  0  0
    0.7279    1.8437   -1.1196 O   0  0  0  0  0  0  0  0  0  0  0  0
   -0.1641   -0.1874   -1.5366 N   0  0  0  0  0  0  0  0  0  0  0  0
   -0.7000   -0.9466   -1.1208 H   0  0  0  0  0  0  0  0  0  0  0  0
    0.6930   -0.4740   -2.6817 C   0  0  0  0  0  0  0  0  0  0  0  0
    1.7433   -0.5195   -2.3741 H   0  0  0  0  0  0  0  0  0  0  0  0
    0.4206   -1.4353   -3.1283 H   0  0  0  0  0  0  0  0  0  0  0  0
    0.5851    0.3032   -3.4461 H   0  0  0  0  0  0  0  0  0  0  0  0
  1  2  1  0  0  0  0
  2  3  1  0  0  0  0
  2  4  1  0  0  0  0
  2  5  1  0  0  0  0
  5  6  2  0  0  0  0
  5  7  1  0  0  0  0
  7  8  1  0  0  0  0
  7  9  1  0  0  0  0
  9 10  1  0  0  0  0
  9 11  1  0  0  0  0
  9 27  1  0  0  0  0
 11 12  1  0  0  0  0
 11 13  1  0  0  0  0
 11 14  1  0  0  0  0
 14 15  1  0  0  0  0
 14 16  1  0  0  0  0
 14 17  1  0  0  0  0
 17 18  1  0  0  0  0
 17 19  1  0  0  0  0
 17 20  1  0  0  0  0
 20 21  1  0  0  0  0
 20 22  1  0  0  0  0
 20 23  1  0  0  0  0
 23 24  1  0  0  0  0
 23 25  1  0  0  0  0
 23 26  1  0  0  0  0
 27 28  2  0  0  0  0
 27 29  1  0  0  0  0
 29 30  1  0  0  0  0
 29 31  1  0  0  0  0
 31 32  1  0  0  0  0
 31 33  1  0  0  0  0
 31 34  1  0  0  0  0
M  CHG  1  23   1
M  END
$$$$

  -OEChem-01062216093D

 34 33  0     1  0  0  0  0  0999 V2000
   -4.0601   -2.3405    0.9904 H   0  0  0  0  0  0  0  0  0  0  0  0
   -3.9667   -1.3115    0.6311 C   0  0  0  0  0  0  0  0  0  0  0  0
   -4.6474   -0.6776    1.2045 H   0  0  0  0  0  0  0  0  0  0  0  0
   -4.2539   -1.2824   -0.4231 H   0  0  0  0  0  0  0  0  0  0  0  0
   -2.5386   -0.8269    0.7961 C   0  0  0  0  0  0  0  0  0  0  0  0
   -1.6983   -1.5934    1.2287 O   0  0  0  0  0  0  0  0  0  0  0  0
   -2.2167    0.4604    0.4039 N   0  0  0  0  0  0  0  0  0  0  0  0
   -2.9850    0.9782   -0.0175 H   0  0  0  0  0  0  0  0  0  0  0  0
   -0.9128    1.1711    0.4791 C   0  0  1  0  0  0  0  0  0  0  0  0
   -1.1338    2.2429    0.5125 H   0  0  0  0  0  0  0  0  0  0  0  0
   -0.0423    0.8486    1.7174 C   0  0  0  0  0  0  0  0  0  0  0  0
    0.1739   -0.2197    1.7875 H   0  0  0  0  0  0  0  0  0  0  0  0
    0.9264    1.3452    1.5928 H   0  0  0  0  0  0  0  0  0  0  0  0
   -0.6651    1.3707    3.0167 C   0  0  0  0  0  0  0  0  0  0  0  0
   -0.8147    2.4538    2.9464 H   0  0  0  0  0  0  0  0  0  0  0  0
   -1.6434    0.9009    3.1667 H   0  0  0  0  0  0  0  0  0  0  0  0
    0.2559    1.0409    4.1965 C   0  0  0  0  0  0  0  0  0  0  0  0
    0.4090   -0.0437    4.2397 H   0  0  0  0  0  0  0  0  0  0  0  0
    1.2312    1.5150    4.0393 H   0  0  0  0  0  0  0  0  0  0  0  0
   -0.3564    1.5299    5.5047 C   0  0  0  0  0  0  0  0  0  0  0  0
   -0.5086    2.6178    5.4500 H   0  0  0  0  0  0  0  0  0  0  0  0
   -1.3461    1.0685    5.6354 H   0  0  0  0  0  0  0  0  0  0  0  0
    0.5514    1.1703    6.6152 N   0  3  0  0  0  0  0  0  0  0  0  0
    1.4653    1.6051    6.4729 H   0  0  0  0  0  0  0  0  0  0  0  0
    0.1654    1.4915    7.5053 H   0  0  0  0  0  0  0  0  0  0  0  0
    0.6711    0.1558    6.6516 H   0  0  0  0  0  0  0  0  0  0  0  0
   -0.0593    0.9679   -0.7932 C   0  0  0  0  0  0  0  0  0  0  0  0
    0.8689    1.7331   -1.0130 O   0  0  0  0  0  0  0  0  0  0  0  0
   -0.3554   -0.0263   -1.7068 N   0  0  0  0  0  0  0  0  0  0  0  0
   -1.0176   -0.7347   -1.4025 H   0  0  0  0  0  0  0  0  0  0  0  0
    0.4606   -0.2891   -2.8874 C   0  0  0  0  0  0  0  0  0  0  0  0
    1.4769   -0.5752   -2.5964 H   0  0  0  0  0  0  0  0  0  0  0  0
    0.0260   -1.1032   -3.4757 H   0  0  0  0  0  0  0  0  0  0  0  0
    0.5152    0.6018   -3.5224 H   0  0  0  0  0  0  0  0  0  0  0  0
  1  2  1  0  0  0  0
  2  3  1  0  0  0  0
  2  4  1  0  0  0  0
  2  5  1  0  0  0  0
  5  6  2  0  0  0  0
  5  7  1  0  0  0  0
  7  8  1  0  0  0  0
  7  9  1  0  0  0  0
  9 10  1  0  0  0  0
  9 11  1  0  0  0  0
  9 27  1  0  0  0  0
 11 12  1  0  0  0  0
 11 13  1  0  0  0  0
 11 14  1  0  0  0  0
 14 15  1  0  0  0  0
 14 16  1  0  0  0  0
 14 17  1  0  0  0  0
 17 18  1  0  0  0  0
 17 19  1  0  0  0  0
 17 20  1  0  0  0  0
 20 21  1  0  0  0  0
 20 22  1  0  0  0  0
 20 23  1  0  0  0  0
 23 24  1  0  0  0  0
 23 25  1  0  0  0  0
 23 26  1  0  0  0  0
 27 28  2  0  0  0  0
 27 29  1  0  0  0  0
 29 30  1  0  0  0  0
 29 31  1  0  0  0  0
 31 32  1  0  0  0  0
 31 33  1  0  0  0  0
 31 34  1  0  0  0  0
M  CHG  1  23   1
M  END
$$$$

  -OEChem-01062216093D

 34 33  0     1  0  0  0  0  0999 V2000
   -4.0475   -2.3512    0.9722 H   0  0  0  0  0  0  0  0  0  0  0  0
   -3.9545   -1.3201    0.6183 C   0  0  0  0  0  0  0  0  0  0  0  0
   -4.6472   -0.6922    1.1837 H   0  0  0  0  0  0  0  0  0  0  0  0
   -4.2263   -1.2884   -0.4398 H   0  0  0  0  0  0  0  0  0  0  0  0
   -2.5319   -0.8279    0.8066 C   0  0  0  0  0  0  0  0  0  0  0  0
   -1.7053   -1.5818    1.2846 O   0  0  0  0  0  0  0  0  0  0  0  0
   -2.2131    0.4599    0.4097 N   0  0  0  0  0  0  0  0  0  0  0  0
   -2.9843    0.9740   -0.0108 H   0  0  0  0  0  0  0  0  0  0  0  0
   -0.9112    1.1767    0.4779 C   0  0  1  0  0  0  0  0  0  0  0  0
   -1.1331    2.2481    0.5087 H   0  0  0  0  0  0  0  0  0  0  0  0
   -0.0438    0.8548    1.7215 C   0  0  0  0  0  0  0  0  0  0  0  0
    0.1763   -0.2125    1.7906 H   0  0  0  0  0  0  0  0  0  0  0  0
    0.9250    1.3532    1.6055 H   0  0  0  0  0  0  0  0  0  0  0  0
   -0.6688    1.3763    3.0202 C   0  0  0  0  0  0  0  0  0  0  0  0
   -0.8193    2.4593    2.9506 H   0  0  0  0  0  0  0  0  0  0  0  0
   -1.6466    0.9053    3.1690 H   0  0  0  0  0  0  0  0  0  0  0  0
    0.2522    1.0446    4.1999 C   0  0  0  0  0  0  0  0  0  0  0  0
    0.4055   -0.0399    4.2408 H   0  0  0  0  0  0  0  0  0  0  0  0
    1.2273    1.5192    4.0432 H   0  0  0  0  0  0  0  0  0  0  0  0
   -0.3559    1.5297    5.5115 C   0  0  0  0  0  0  0  0  0  0  0  0
   -0.5087    2.6179    5.4625 H   0  0  0  0  0  0  0  0  0  0  0  0
   -1.3448    1.0670    5.6448 H   0  0  0  0  0  0  0  0  0  0  0  0
    0.5585    1.1638    6.6145 N   0  3  0  0  0  0  0  0  0  0  0  0
    1.4730    1.5954    6.4661 H   0  0  0  0  0  0  0  0  0  0  0  0
    0.1804    1.4836    7.5085 H   0  0  0  0  0  0  0  0  0  0  0  0
    0.6745    0.1486    6.6464 H   0  0  0  0  0  0  0  0  0  0  0  0
   -0.0625    0.9710   -0.8011 C   0  0  0  0  0  0  0  0  0  0  0  0
    0.9883    1.5839   -0.9291 O   0  0  0  0  0  0  0  0  0  0  0  0
   -0.5194    0.1952   -1.8509 N   0  0  0  0  0  0  0  0  0  0  0  0
   -1.3137   -0.4063   -1.6558 H   0  0  0  0  0  0  0  0  0  0  0  0
    0.2619   -0.0469   -3.0596 C   0  0  0  0  0  0  0  0  0  0  0  0
    1.1948   -0.5665   -2.8162 H   0  0  0  0  0  0  0  0  0  0  0  0
   -0.3062   -0.6647   -3.7622 H   0  0  0  0  0  0  0  0  0  0  0  0
    0.5067    0.8990   -3.5549 H   0  0  0  0  0  0  0  0  0  0  0  0
  1  2  1  0  0  0  0
  2  3  1  0  0  0  0
  2  4  1  0  0  0  0
  2  5  1  0  0  0  0
  5  6  2  0  0  0  0
  5  7  1  0  0  0  0
  7  8  1  0  0  0  0
  7  9  1  0  0  0  0
  9 10  1  0  0  0  0
  9 11  1  0  0  0  0
  9 27  1  0  0  0  0
 11 12  1  0  0  0  0
 11 13  1  0  0  0  0
 11 14  1  0  0  0  0
 14 15  1  0  0  0  0
 14 16  1  0  0  0  0
 14 17  1  0  0  0  0
 17 18  1  0  0  0  0
 17 19  1  0  0  0  0
 17 20  1  0  0  0  0
 20 21  1  0  0  0  0
 20 22  1  0  0  0  0
 20 23  1  0  0  0  0
 23 24  1  0  0  0  0
 23 25  1  0  0  0  0
 23 26  1  0  0  0  0
 27 28  2  0  0  0  0
 27 29  1  0  0  0  0
 29 30  1  0  0  0  0
 29 31  1  0  0  0  0
 31 32  1  0  0  0  0
 31 33  1  0  0  0  0
 31 34  1  0  0  0  0
M  CHG  1  23   1
M  END
$$$$

  -OEChem-01062216093D

 34 33  0     1  0  0  0  0  0999 V2000
   -4.0278   -2.3625    0.9476 H   0  0  0  0  0  0  0  0  0  0  0  0
   -3.9357   -1.3302    0.5971 C   0  0  0  0  0  0  0  0  0  0  0  0
   -4.6392   -0.7076    1.1550 H   0  0  0  0  0  0  0  0  0  0  0  0
   -4.1932   -1.2984   -0.4644 H   0  0  0  0  0  0  0  0  0  0  0  0
   -2.5181   -0.8308    0.8040 C   0  0  0  0  0  0  0  0  0  0  0  0
   -1.7005   -1.5763    1.3099 O   0  0  0  0  0  0  0  0  0  0  0  0
   -2.2033    0.4590    0.4082 N   0  0  0  0  0  0  0  0  0  0  0  0
   -2.9801    0.9740   -0.0004 H   0  0  0  0  0  0  0  0  0  0  0  0
   -0.9029    1.1797    0.4768 C   0  0  1  0  0  0  0  0  0  0  0  0
   -1.1257    2.2507    0.5064 H   0  0  0  0  0  0  0  0  0  0  0  0
   -0.0412    0.8598    1.7268 C   0  0  0  0  0  0  0  0  0  0  0  0
    0.1834   -0.2067    1.7947 H   0  0  0  0  0  0  0  0  0  0  0  0
    0.9264    1.3617    1.6197 H   0  0  0  0  0  0  0  0  0  0  0  0
   -0.6697    1.3807    3.0242 C   0  0  0  0  0  0  0  0  0  0  0  0
   -0.8187    2.4640    2.9553 H   0  0  0  0  0  0  0  0  0  0  0  0
   -1.6479    0.9100    3.1709 H   0  0  0  0  0  0  0  0  0  0  0  0
    0.2511    1.0468    4.2037 C   0  0  0  0  0  0  0  0  0  0  0  0
    0.4041   -0.0379    4.2417 H   0  0  0  0  0  0  0  0  0  0  0  0
    1.2269    1.5204    4.0473 H   0  0  0  0  0  0  0  0  0  0  0  0
   -0.3560    1.5295    5.5166 C   0  0  0  0  0  0  0  0  0  0  0  0
   -0.5071    2.6179    5.4694 H   0  0  0  0  0  0  0  0  0  0  0  0
   -1.3454    1.0680    5.6495 H   0  0  0  0  0  0  0  0  0  0  0  0
    0.5576    1.1619    6.6199 N   0  3  0  0  0  0  0  0  0  0  0  0
    1.4713    1.5964    6.4751 H   0  0  0  0  0  0  0  0  0  0  0  0
    0.1771    1.4773    7.5145 H   0  0  0  0  0  0  0  0  0  0  0  0
    0.6764    0.1469    6.6486 H   0  0  0  0  0  0  0  0  0  0  0  0
   -0.0601    0.9718   -0.8090 C   0  0  0  0  0  0  0  0  0  0  0  0
    1.0895    1.3871   -0.8631 O   0  0  0  0  0  0  0  0  0  0  0  0
   -0.6331    0.4627   -1.9606 N   0  0  0  0  0  0  0  0  0  0  0  0
   -1.5399    0.0190   -1.8597 H   0  0  0  0  0  0  0  0  0  0  0  0
    0.1165    0.2504   -3.1950 C   0  0  0  0  0  0  0  0  0  0  0  0
    0.9238   -0.4725   -3.0350 H   0  0  0  0  0  0  0  0  0  0  0  0
   -0.5432   -0.1343   -3.9789 H   0  0  0  0  0  0  0  0  0  0  0  0
    0.5533    1.1919   -3.5457 H   0  0  0  0  0  0  0  0  0  0  0  0
  1  2  1  0  0  0  0
  2  3  1  0  0  0  0
  2  4  1  0  0  0  0
  2  5  1  0  0  0  0
  5  6  2  0  0  0  0
  5  7  1  0  0  0  0
  7  8  1  0  0  0  0
  7  9  1  0  0  0  0
  9 10  1  0  0  0  0
  9 11  1  0  0  0  0
  9 27  1  0  0  0  0
 11 12  1  0  0  0  0
 11 13  1  0  0  0  0
 11 14  1  0  0  0  0
 14 15  1  0  0  0  0
 14 16  1  0  0  0  0
 14 17  1  0  0  0  0
 17 18  1  0  0  0  0
 17 19  1  0  0  0  0
 17 20  1  0  0  0  0
 20 21  1  0  0  0  0
 20 22  1  0  0  0  0
 20 23  1  0  0  0  0
 23 24  1  0  0  0  0
 23 25  1  0  0  0  0
 23 26  1  0  0  0  0
 27 28  2  0  0  0  0
 27 29  1  0  0  0  0
 29 30  1  0  0  0  0
 29 31  1  0  0  0  0
 31 32  1  0  0  0  0
 31 33  1  0  0  0  0
 31 34  1  0  0  0  0
M  CHG  1  23   1
M  END
$$$$

  -OEChem-01062216093D

 34 33  0     1  0  0  0  0  0999 V2000
   -3.9966   -2.3720    0.9214 H   0  0  0  0  0  0  0  0  0  0  0  0
   -3.9090   -1.3399    0.5690 C   0  0  0  0  0  0  0  0  0  0  0  0
   -4.6257   -0.7222    1.1154 H   0  0  0  0  0  0  0  0  0  0  0  0
   -4.1517   -1.3150   -0.4963 H   0  0  0  0  0  0  0  0  0  0  0  0
   -2.4982   -0.8282    0.7944 C   0  0  0  0  0  0  0  0  0  0  0  0
   -1.6872   -1.5645    1.3238 O   0  0  0  0  0  0  0  0  0  0  0  0
   -2.1883    0.4650    0.4037 N   0  0  0  0  0  0  0  0  0  0  0  0
   -2.9691    0.9786    0.0027 H   0  0  0  0  0  0  0  0  0  0  0  0
   -0.8898    1.1888    0.4768 C   0  0  1  0  0  0  0  0  0  0  0  0
   -1.1124    2.2596    0.5079 H   0  0  0  0  0  0  0  0  0  0  0  0
   -0.0334    0.8686    1.7316 C   0  0  0  0  0  0  0  0  0  0  0  0
    0.1964   -0.1971    1.7977 H   0  0  0  0  0  0  0  0  0  0  0  0
    0.9318    1.3760    1.6307 H   0  0  0  0  0  0  0  0  0  0  0  0
   -0.6676    1.3859    3.0274 C   0  0  0  0  0  0  0  0  0  0  0  0
   -0.8182    2.4688    2.9605 H   0  0  0  0  0  0  0  0  0  0  0  0
   -1.6455    0.9134    3.1694 H   0  0  0  0  0  0  0  0  0  0  0  0
    0.2498    1.0504    4.2092 C   0  0  0  0  0  0  0  0  0  0  0  0
    0.4033   -0.0344    4.2446 H   0  0  0  0  0  0  0  0  0  0  0  0
    1.2255    1.5252    4.0567 H   0  0  0  0  0  0  0  0  0  0  0  0
   -0.3605    1.5283    5.5224 C   0  0  0  0  0  0  0  0  0  0  0  0
   -0.5126    2.6168    5.4787 H   0  0  0  0  0  0  0  0  0  0  0  0
   -1.3498    1.0652    5.6520 H   0  0  0  0  0  0  0  0  0  0  0  0
    0.5522    1.1576    6.6255 N   0  3  0  0  0  0  0  0  0  0  0  0
    1.4644    1.5965    6.4852 H   0  0  0  0  0  0  0  0  0  0  0  0
    0.1684    1.4659    7.5210 H   0  0  0  0  0  0  0  0  0  0  0  0
    0.6749    0.1429    6.6479 H   0  0  0  0  0  0  0  0  0  0  0  0
   -0.0580    0.9769   -0.8180 C   0  0  0  0  0  0  0  0  0  0  0  0
    1.1552    1.1367   -0.8183 O   0  0  0  0  0  0  0  0  0  0  0  0
   -0.6896    0.7678   -2.0317 N   0  0  0  0  0  0  0  0  0  0  0  0
   -1.6778    0.5420   -2.0032 H   0  0  0  0  0  0  0  0  0  0  0  0
    0.0356    0.5715   -3.2836 C   0  0  0  0  0  0  0  0  0  0  0  0
    0.6726   -0.3175   -3.2229 H   0  0  0  0  0  0  0  0  0  0  0  0
   -0.6661    0.4384   -4.1128 H   0  0  0  0  0  0  0  0  0  0  0  0
    0.6656    1.4402   -3.5035 H   0  0  0  0  0  0  0  0  0  0  0  0
  1  2  1  0  0  0  0
  2  3  1  0  0  0  0
  2  4  1  0  0  0  0
  2  5  1  0  0  0  0
  5  6  2  0  0  0  0
  5  7  1  0  0  0  0
  7  8  1  0  0  0  0
  7  9  1  0  0  0  0
  9 10  1  0  0  0  0
  9 11  1  0  0  0  0
  9 27  1  0  0  0  0
 11 12  1  0  0  0  0
 11 13  1  0  0  0  0
 11 14  1  0  0  0  0
 14 15  1  0  0  0  0
 14 16  1  0  0  0  0
 14 17  1  0  0  0  0
 17 18  1  0  0  0  0
 17 19  1  0  0  0  0
 17 20  1  0  0  0  0
 20 21  1  0  0  0  0
 20 22  1  0  0  0  0
 20 23  1  0  0  0  0
 23 24  1  0  0  0  0
 23 25  1  0  0  0  0
 23 26  1  0  0  0  0
 27 28  2  0  0  0  0
 27 29  1  0  0  0  0
 29 30  1  0  0  0  0
 29 31  1  0  0  0  0
 31 32  1  0  0  0  0
 31 33  1  0  0  0  0
 31 34  1  0  0  0  0
M  CHG  1  23   1
M  END
$$$$

  -OEChem-01062216093D

 34 33  0     1  0  0  0  0  0999 V2000
   -3.9732   -2.3959    0.8274 H   0  0  0  0  0  0  0  0  0  0  0  0
   -3.8868   -1.3601    0.4857 C   0  0  0  0  0  0  0  0  0  0  0  0
   -4.6538   -0.7619    0.9835 H   0  0  0  0  0  0  0  0  0  0  0  0
   -4.0566   -1.3355   -0.5936 H   0  0  0  0  0  0  0  0  0  0  0  0
   -2.5075   -0.8160    0.8084 C   0  0  0  0  0  0  0  0  0  0  0  0
   -1.7364   -1.5184    1.4353 O   0  0  0  0  0  0  0  0  0  0  0  0
   -2.1945    0.4755    0.4124 N   0  0  0  0  0  0  0  0  0  0  0  0
   -2.9520    0.9547   -0.0664 H   0  0  0  0  0  0  0  0  0  0  0  0
   -0.8961    1.1986    0.4880 C   0  0  1  0  0  0  0  0  0  0  0  0
   -1.1150    2.2704    0.5161 H   0  0  0  0  0  0  0  0  0  0  0  0
   -0.0391    0.8811    1.7421 C   0  0  0  0  0  0  0  0  0  0  0  0
    0.1950   -0.1838    1.8068 H   0  0  0  0  0  0  0  0  0  0  0  0
    0.9237    1.3929    1.6360 H   0  0  0  0  0  0  0  0  0  0  0  0
   -0.6691    1.3971    3.0404 C   0  0  0  0  0  0  0  0  0  0  0  0
   -0.8203    2.4800    2.9754 H   0  0  0  0  0  0  0  0  0  0  0  0
   -1.6464    0.9240    3.1860 H   0  0  0  0  0  0  0  0  0  0  0  0
    0.2554    1.0594    4.2158 C   0  0  0  0  0  0  0  0  0  0  0  0
    0.4085   -0.0256    4.2477 H   0  0  0  0  0  0  0  0  0  0  0  0
    1.2303    1.5343    4.0582 H   0  0  0  0  0  0  0  0  0  0  0  0
   -0.3452    1.5333    5.5342 C   0  0  0  0  0  0  0  0  0  0  0  0
   -0.4973    2.6219    5.4956 H   0  0  0  0  0  0  0  0  0  0  0  0
   -1.3334    1.0696    5.6701 H   0  0  0  0  0  0  0  0  0  0  0  0
    0.5771    1.1584    6.6279 N   0  3  0  0  0  0  0  0  0  0  0  0
    1.4882    1.5980    6.4820 H   0  0  0  0  0  0  0  0  0  0  0  0
    0.2009    1.4618    7.5284 H   0  0  0  0  0  0  0  0  0  0  0  0
    0.6999    0.1435    6.6439 H   0  0  0  0  0  0  0  0  0  0  0  0
   -0.0703    0.9710   -0.8089 C   0  0  0  0  0  0  0  0  0  0  0  0
    1.1452    0.8317   -0.7783 O   0  0  0  0  0  0  0  0  0  0  0  0
   -0.6823    1.0645   -2.0472 N   0  0  0  0  0  0  0  0  0  0  0  0
   -1.6933    1.1347   -2.0694 H   0  0  0  0  0  0  0  0  0  0  0  0
    0.0359    0.8965   -3.3075 C   0  0  0  0  0  0  0  0  0  0  0  0
    0.4820   -0.1022   -3.3653 H   0  0  0  0  0  0  0  0  0  0  0  0
   -0.6467    1.0194   -4.1540 H   0  0  0  0  0  0  0  0  0  0  0  0
    0.8329    1.6425   -3.3978 H   0  0  0  0  0  0  0  0  0  0  0  0
  1  2  1  0  0  0  0
  2  3  1  0  0  0  0
  2  4  1  0  0  0  0
  2  5  1  0  0  0  0
  5  6  2  0  0  0  0
  5  7  1  0  0  0  0
  7  8  1  0  0  0  0
  7  9  1  0  0  0  0
  9 10  1  0  0  0  0
  9 11  1  0  0  0  0
  9 27  1  0  0  0  0
 11 12  1  0  0  0  0
 11 13  1  0  0  0  0
 11 14  1  0  0  0  0
 14 15  1  0  0  0  0
 14 16  1  0  0  0  0
 14 17  1  0  0  0  0
 17 18  1  0  0  0  0
 17 19  1  0  0  0  0
 17 20  1  0  0  0  0
 20 21  1  0  0  0  0
 20 22  1  0  0  0  0
 20 23  1  0  0  0  0
 23 24  1  0  0  0  0
 23 25  1  0  0  0  0
 23 26  1  0  0  0  0
 27 28  2  0  0  0  0
 27 29  1  0  0  0  0
 29 30  1  0  0  0  0
 29 31  1  0  0  0  0
 31 32  1  0  0  0  0
 31 33  1  0  0  0  0
 31 34  1  0  0  0  0
M  CHG  1  23   1
M  END
$$$$

  -OEChem-01062216093D

 34 33  0     1  0  0  0  0  0999 V2000
   -3.9174   -2.4208    0.7049 H   0  0  0  0  0  0  0  0  0  0  0  0
   -3.8333   -1.3880    0.3539 C   0  0  0  0  0  0  0  0  0  0  0  0
   -4.6881   -0.8197    0.7281 H   0  0  0  0  0  0  0  0  0  0  0  0
   -3.8538   -1.3905   -0.7387 H   0  0  0  0  0  0  0  0  0  0  0  0
   -2.5383   -0.7711    0.8485 C   0  0  0  0  0  0  0  0  0  0  0  0
   -1.8612   -1.3985    1.6431 O   0  0  0  0  0  0  0  0  0  0  0  0
   -2.2212    0.5157    0.4393 N   0  0  0  0  0  0  0  0  0  0  0  0
   -2.9066    0.9097   -0.1989 H   0  0  0  0  0  0  0  0  0  0  0  0
   -0.9165    1.2270    0.5121 C   0  0  1  0  0  0  0  0  0  0  0  0
   -1.1201    2.3014    0.5422 H   0  0  0  0  0  0  0  0  0  0  0  0
   -0.0471    0.8986    1.7528 C   0  0  0  0  0  0  0  0  0  0  0  0
    0.1763   -0.1700    1.8093 H   0  0  0  0  0  0  0  0  0  0  0  0
    0.9191    1.4007    1.6305 H   0  0  0  0  0  0  0  0  0  0  0  0
   -0.6604    1.4116    3.0601 C   0  0  0  0  0  0  0  0  0  0  0  0
   -0.8077    2.4953    3.0018 H   0  0  0  0  0  0  0  0  0  0  0  0
   -1.6386    0.9430    3.2147 H   0  0  0  0  0  0  0  0  0  0  0  0
    0.2727    1.0646    4.2249 C   0  0  0  0  0  0  0  0  0  0  0  0
    0.4202   -0.0214    4.2515 H   0  0  0  0  0  0  0  0  0  0  0  0
    1.2485    1.5352    4.0612 H   0  0  0  0  0  0  0  0  0  0  0  0
   -0.3174    1.5376    5.5483 C   0  0  0  0  0  0  0  0  0  0  0  0
   -0.4658    2.6266    5.5130 H   0  0  0  0  0  0  0  0  0  0  0  0
   -1.3065    1.0773    5.6887 H   0  0  0  0  0  0  0  0  0  0  0  0
    0.6098    1.1556    6.6351 N   0  3  0  0  0  0  0  0  0  0  0  0
    1.5261    1.5794    6.4770 H   0  0  0  0  0  0  0  0  0  0  0  0
    0.2471    1.4705    7.5371 H   0  0  0  0  0  0  0  0  0  0  0  0
    0.7164    0.1387    6.6560 H   0  0  0  0  0  0  0  0  0  0  0  0
   -0.1075    0.9696   -0.7884 C   0  0  0  0  0  0  0  0  0  0  0  0
    1.0182    0.4905   -0.7662 O   0  0  0  0  0  0  0  0  0  0  0  0
   -0.6304    1.3540   -2.0117 N   0  0  0  0  0  0  0  0  0  0  0  0
   -1.5389    1.8046   -2.0242 H   0  0  0  0  0  0  0  0  0  0  0  0
    0.0841    1.1846   -3.2738 C   0  0  0  0  0  0  0  0  0  0  0  0
    0.3375    0.1308   -3.4332 H   0  0  0  0  0  0  0  0  0  0  0  0
   -0.5374    1.5189   -4.1101 H   0  0  0  0  0  0  0  0  0  0  0  0
    1.0089    1.7718   -3.2743 H   0  0  0  0  0  0  0  0  0  0  0  0
  1  2  1  0  0  0  0
  2  3  1  0  0  0  0
  2  4  1  0  0  0  0
  2  5  1  0  0  0  0
  5  6  2  0  0  0  0
  5  7  1  0  0  0  0
  7  8  1  0  0  0  0
  7  9  1  0  0  0  0
  9 10  1  0  0  0  0
  9 11  1  0  0  0  0
  9 27  1  0  0  0  0
 11 12  1  0  0  0  0
 11 13  1  0  0  0  0
 11 14  1  0  0  0  0
 14 15  1  0  0  0  0
 14 16  1  0  0  0  0
 14 17  1  0  0  0  0
 17 18  1  0  0  0  0
 17 19  1  0  0  0  0
 17 20  1  0  0  0  0
 20 21  1  0  0  0  0
 20 22  1  0  0  0  0
 20 23  1  0  0  0  0
 23 24  1  0  0  0  0
 23 25  1  0  0  0  0
 23 26  1  0  0  0  0
 27 28  2  0  0  0  0
 27 29  1  0  0  0  0
 29 30  1  0  0  0  0
 29 31  1  0  0  0  0
 31 32  1  0  0  0  0
 31 33  1  0  0  0  0
 31 34  1  0  0  0  0
M  CHG  1  23   1
M  END
$$$$

  -OEChem-01062216093D

 34 33  0     1  0  0  0  0  0999 V2000
   -3.8844   -2.4280    0.6723 H   0  0  0  0  0  0  0  0  0  0  0  0
   -3.8060   -1.3978    0.3128 C   0  0  0  0  0  0  0  0  0  0  0  0
   -4.6894   -0.8438    0.6389 H   0  0  0  0  0  0  0  0  0  0  0  0
   -3.7742   -1.4128   -0.7795 H   0  0  0  0  0  0  0  0  0  0  0  0
   -2.5505   -0.7460    0.8614 C   0  0  0  0  0  0  0  0  0  0  0  0
   -1.9181   -1.3343    1.7212 O   0  0  0  0  0  0  0  0  0  0  0  0
   -2.2388    0.5400    0.4446 N   0  0  0  0  0  0  0  0  0  0  0  0
   -2.8882    0.8913   -0.2541 H   0  0  0  0  0  0  0  0  0  0  0  0
   -0.9345    1.2498    0.5180 C   0  0  1  0  0  0  0  0  0  0  0  0
   -1.1364    2.3244    0.5527 H   0  0  0  0  0  0  0  0  0  0  0  0
   -0.0571    0.9157    1.7498 C   0  0  0  0  0  0  0  0  0  0  0  0
    0.1613   -0.1546    1.8007 H   0  0  0  0  0  0  0  0  0  0  0  0
    0.9100    1.4136    1.6178 H   0  0  0  0  0  0  0  0  0  0  0  0
   -0.6629    1.4207    3.0643 C   0  0  0  0  0  0  0  0  0  0  0  0
   -0.8111    2.5045    3.0130 H   0  0  0  0  0  0  0  0  0  0  0  0
   -1.6403    0.9522    3.2228 H   0  0  0  0  0  0  0  0  0  0  0  0
    0.2776    1.0681    4.2212 C   0  0  0  0  0  0  0  0  0  0  0  0
    0.4261   -0.0180    4.2408 H   0  0  0  0  0  0  0  0  0  0  0  0
    1.2521    1.5406    4.0548 H   0  0  0  0  0  0  0  0  0  0  0  0
   -0.3063    1.5334    5.5500 C   0  0  0  0  0  0  0  0  0  0  0  0
   -0.4573    2.6222    5.5212 H   0  0  0  0  0  0  0  0  0  0  0  0
   -1.2940    1.0703    5.6923 H   0  0  0  0  0  0  0  0  0  0  0  0
    0.6267    1.1467    6.6299 N   0  3  0  0  0  0  0  0  0  0  0  0
    1.5399    1.5771    6.4731 H   0  0  0  0  0  0  0  0  0  0  0  0
    0.2650    1.4506    7.5360 H   0  0  0  0  0  0  0  0  0  0  0  0
    0.7388    0.1304    6.6408 H   0  0  0  0  0  0  0  0  0  0  0  0
   -0.1268    0.9842   -0.7788 C   0  0  0  0  0  0  0  0  0  0  0  0
    0.8521    0.2511   -0.7903 O   0  0  0  0  0  0  0  0  0  0  0  0
   -0.4842    1.6258   -1.9523 N   0  0  0  0  0  0  0  0  0  0  0  0
   -1.2666    2.2719   -1.9275 H   0  0  0  0  0  0  0  0  0  0  0  0
    0.2465    1.4596   -3.2057 C   0  0  0  0  0  0  0  0  0  0  0  0
    0.2641    0.4054   -3.5030 H   0  0  0  0  0  0  0  0  0  0  0  0
   -0.2327    2.0340   -4.0046 H   0  0  0  0  0  0  0  0  0  0  0  0
    1.2785    1.8111   -3.0990 H   0  0  0  0  0  0  0  0  0  0  0  0
  1  2  1  0  0  0  0
  2  3  1  0  0  0  0
  2  4  1  0  0  0  0
  2  5  1  0  0  0  0
  5  6  2  0  0  0  0
  5  7  1  0  0  0  0
  7  8  1  0  0  0  0
  7  9  1  0  0  0  0
  9 10  1  0  0  0  0
  9 11  1  0  0  0  0
  9 27  1  0  0  0  0
 11 12  1  0  0  0  0
 11 13  1  0  0  0  0
 11 14  1  0  0  0  0
 14 15  1  0  0  0  0
 14 16  1  0  0  0  0
 14 17  1  0  0  0  0
 17 18  1  0  0  0  0
 17 19  1  0  0  0  0
 17 20  1  0  0  0  0
 20 21  1  0  0  0  0
 20 22  1  0  0  0  0
 20 23  1  0  0  0  0
 23 24  1  0  0  0  0
 23 25  1  0  0  0  0
 23 26  1  0  0  0  0
 27 28  2  0  0  0  0
 27 29  1  0  0  0  0
 29 30  1  0  0  0  0
 29 31  1  0  0  0  0
 31 32  1  0  0  0  0
 31 33  1  0  0  0  0
 31 34  1  0  0  0  0
M  CHG  1  23   1
M  END
$$$$

  -OEChem-01062216093D

 34 33  0     1  0  0  0  0  0999 V2000
   -3.8400   -2.4334    0.6366 H   0  0  0  0  0  0  0  0  0  0  0  0
   -3.7678   -1.4073    0.2641 C   0  0  0  0  0  0  0  0  0  0  0  0
   -4.6829   -0.8720    0.5281 H   0  0  0  0  0  0  0  0  0  0  0  0
   -3.6713   -1.4392   -0.8240 H   0  0  0  0  0  0  0  0  0  0  0  0
   -2.5635   -0.7133    0.8729 C   0  0  0  0  0  0  0  0  0  0  0  0
   -1.9744   -1.2655    1.7869 O   0  0  0  0  0  0  0  0  0  0  0  0
   -2.2593    0.5730    0.4508 N   0  0  0  0  0  0  0  0  0  0  0  0
   -2.8783    0.8910   -0.2905 H   0  0  0  0  0  0  0  0  0  0  0  0
   -0.9552    1.2817    0.5282 C   0  0  1  0  0  0  0  0  0  0  0  0
   -1.1563    2.3561    0.5686 H   0  0  0  0  0  0  0  0  0  0  0  0
   -0.0692    0.9401    1.7506 C   0  0  0  0  0  0  0  0  0  0  0  0
    0.1455   -0.1317    1.7930 H   0  0  0  0  0  0  0  0  0  0  0  0
    0.8982    1.4357    1.6129 H   0  0  0  0  0  0  0  0  0  0  0  0
   -0.6667    1.4331    3.0741 C   0  0  0  0  0  0  0  0  0  0  0  0
   -0.8160    2.5173    3.0325 H   0  0  0  0  0  0  0  0  0  0  0  0
   -1.6425    0.9633    3.2375 H   0  0  0  0  0  0  0  0  0  0  0  0
    0.2823    1.0731    4.2210 C   0  0  0  0  0  0  0  0  0  0  0  0
    0.4321   -0.0128    4.2309 H   0  0  0  0  0  0  0  0  0  0  0  0
    1.2543    1.5494    4.0521 H   0  0  0  0  0  0  0  0  0  0  0  0
   -0.2943    1.5265    5.5568 C   0  0  0  0  0  0  0  0  0  0  0  0
   -0.4484    2.6152    5.5371 H   0  0  0  0  0  0  0  0  0  0  0  0
   -1.2799    1.0594    5.7017 H   0  0  0  0  0  0  0  0  0  0  0  0
    0.6459    1.1336    6.6282 N   0  3  0  0  0  0  0  0  0  0  0  0
    1.5578    1.5652    6.4682 H   0  0  0  0  0  0  0  0  0  0  0  0
    0.2897    1.4318    7.5384 H   0  0  0  0  0  0  0  0  0  0  0  0
    0.7584    0.1173    6.6321 H   0  0  0  0  0  0  0  0  0  0  0  0
   -0.1444    1.0115   -0.7638 C   0  0  0  0  0  0  0  0  0  0  0  0
    0.6260    0.0657   -0.8447 O   0  0  0  0  0  0  0  0  0  0  0  0
   -0.2755    1.8547   -1.8535 N   0  0  0  0  0  0  0  0  0  0  0  0
   -0.9054    2.6473   -1.7758 H   0  0  0  0  0  0  0  0  0  0  0  0
    0.4604    1.6636   -3.1005 C   0  0  0  0  0  0  0  0  0  0  0  0
    0.2392    0.6806   -3.5303 H   0  0  0  0  0  0  0  0  0  0  0  0
    0.1782    2.4291   -3.8298 H   0  0  0  0  0  0  0  0  0  0  0  0
    1.5394    1.7355   -2.9257 H   0  0  0  0  0  0  0  0  0  0  0  0
  1  2  1  0  0  0  0
  2  3  1  0  0  0  0
  2  4  1  0  0  0  0
  2  5  1  0  0  0  0
  5  6  2  0  0  0  0
  5  7  1  0  0  0  0
  7  8  1  0  0  0  0
  7  9  1  0  0  0  0
  9 10  1  0  0  0  0
  9 11  1  0  0  0  0
  9 27  1  0  0  0  0
 11 12  1  0  0  0  0
 11 13  1  0  0  0  0
 11 14  1  0  0  0  0
 14 15  1  0  0  0  0
 14 16  1  0  0  0  0
 14 17  1  0  0  0  0
 17 18  1  0  0  0  0
 17 19  1  0  0  0  0
 17 20  1  0  0  0  0
 20 21  1  0  0  0  0
 20 22  1  0  0  0  0
 20 23  1  0  0  0  0
 23 24  1  0  0  0  0
 23 25  1  0  0  0  0
 23 26  1  0  0  0  0
 27 28  2  0  0  0  0
 27 29  1  0  0  0  0
 29 30  1  0  0  0  0
 29 31  1  0  0  0  0
 31 32  1  0  0  0  0
 31 33  1  0  0  0  0
 31 34  1  0  0  0  0
M  CHG  1  23   1
M  END
$$$$

  -OEChem-01062216093D

 34 33  0     1  0  0  0  0  0999 V2000
   -3.8244   -2.4218    0.6382 H   0  0  0  0  0  0  0  0  0  0  0  0
   -3.7301   -1.4110    0.2308 C   0  0  0  0  0  0  0  0  0  0  0  0
   -4.6597   -0.8679    0.4170 H   0  0  0  0  0  0  0  0  0  0  0  0
   -3.5665   -1.4850   -0.8473 H   0  0  0  0  0  0  0  0  0  0  0  0
   -2.5651   -0.6905    0.8829 C   0  0  0  0  0  0  0  0  0  0  0  0
   -2.0077   -1.2198    1.8307 O   0  0  0  0  0  0  0  0  0  0  0  0
   -2.2662    0.5968    0.4602 N   0  0  0  0  0  0  0  0  0  0  0  0
   -2.8588    0.8885   -0.3129 H   0  0  0  0  0  0  0  0  0  0  0  0
   -0.9592    1.2989    0.5376 C   0  0  1  0  0  0  0  0  0  0  0  0
   -1.1608    2.3728    0.5845 H   0  0  0  0  0  0  0  0  0  0  0  0
   -0.0645    0.9467    1.7487 C   0  0  0  0  0  0  0  0  0  0  0  0
    0.1430   -0.1270    1.7814 H   0  0  0  0  0  0  0  0  0  0  0  0
    0.9045    1.4379    1.6083 H   0  0  0  0  0  0  0  0  0  0  0  0
   -0.6563    1.4352    3.0779 C   0  0  0  0  0  0  0  0  0  0  0  0
   -0.8017    2.5201    3.0403 H   0  0  0  0  0  0  0  0  0  0  0  0
   -1.6347    0.9710    3.2419 H   0  0  0  0  0  0  0  0  0  0  0  0
    0.2909    1.0715    4.2256 C   0  0  0  0  0  0  0  0  0  0  0  0
    0.4396   -0.0146    4.2337 H   0  0  0  0  0  0  0  0  0  0  0  0
    1.2640    1.5464    4.0594 H   0  0  0  0  0  0  0  0  0  0  0  0
   -0.2898    1.5248    5.5607 C   0  0  0  0  0  0  0  0  0  0  0  0
   -0.4411    2.6137    5.5413 H   0  0  0  0  0  0  0  0  0  0  0  0
   -1.2775    1.0607    5.7009 H   0  0  0  0  0  0  0  0  0  0  0  0
    0.6438    1.1313    6.6379 N   0  3  0  0  0  0  0  0  0  0  0  0
    1.5521    1.5758    6.4938 H   0  0  0  0  0  0  0  0  0  0  0  0
    0.2736    1.4144    7.5473 H   0  0  0  0  0  0  0  0  0  0  0  0
    0.7681    0.1162    6.6319 H   0  0  0  0  0  0  0  0  0  0  0  0
   -0.1492    1.0311   -0.7528 C   0  0  0  0  0  0  0  0  0  0  0  0
    0.3625   -0.0604   -0.9535 O   0  0  0  0  0  0  0  0  0  0  0  0
   -0.0230    2.0161   -1.7166 N   0  0  0  0  0  0  0  0  0  0  0  0
   -0.4677    2.9136   -1.5493 H   0  0  0  0  0  0  0  0  0  0  0  0
    0.6969    1.8136   -2.9709 C   0  0  0  0  0  0  0  0  0  0  0  0
    0.2547    0.9884   -3.5397 H   0  0  0  0  0  0  0  0  0  0  0  0
    0.6523    2.7179   -3.5861 H   0  0  0  0  0  0  0  0  0  0  0  0
    1.7493    1.5801   -2.7762 H   0  0  0  0  0  0  0  0  0  0  0  0
  1  2  1  0  0  0  0
  2  3  1  0  0  0  0
  2  4  1  0  0  0  0
  2  5  1  0  0  0  0
  5  6  2  0  0  0  0
  5  7  1  0  0  0  0
  7  8  1  0  0  0  0
  7  9  1  0  0  0  0
  9 10  1  0  0  0  0
  9 11  1  0  0  0  0
  9 27  1  0  0  0  0
 11 12  1  0  0  0  0
 11 13  1  0  0  0  0
 11 14  1  0  0  0  0
 14 15  1  0  0  0  0
 14 16  1  0  0  0  0
 14 17  1  0  0  0  0
 17 18  1  0  0  0  0
 17 19  1  0  0  0  0
 17 20  1  0  0  0  0
 20 21  1  0  0  0  0
 20 22  1  0  0  0  0
 20 23  1  0  0  0  0
 23 24  1  0  0  0  0
 23 25  1  0  0  0  0
 23 26  1  0  0  0  0
 27 28  2  0  0  0  0
 27 29  1  0  0  0  0
 29 30  1  0  0  0  0
 29 31  1  0  0  0  0
 31 32  1  0  0  0  0
 31 33  1  0  0  0  0
 31 34  1  0  0  0  0
M  CHG  1  23   1
M  END
$$$$

  -OEChem-01062216093D

 34 33  0     1  0  0  0  0  0999 V2000
   -3.8109   -2.4110    0.6424 H   0  0  0  0  0  0  0  0  0  0  0  0
   -3.6975   -1.4133    0.2084 C   0  0  0  0  0  0  0  0  0  0  0  0
   -4.6355   -0.8671    0.3318 H   0  0  0  0  0  0  0  0  0  0  0  0
   -3.4816   -1.5199   -0.8578 H   0  0  0  0  0  0  0  0  0  0  0  0
   -2.5653   -0.6699    0.8921 C   0  0  0  0  0  0  0  0  0  0  0  0
   -2.0296   -1.1838    1.8616 O   0  0  0  0  0  0  0  0  0  0  0  0
   -2.2683    0.6167    0.4660 N   0  0  0  0  0  0  0  0  0  0  0  0
   -2.8386    0.8874   -0.3314 H   0  0  0  0  0  0  0  0  0  0  0  0
   -0.9590    1.3142    0.5465 C   0  0  1  0  0  0  0  0  0  0  0  0
   -1.1600    2.3883    0.5934 H   0  0  0  0  0  0  0  0  0  0  0  0
   -0.0616    0.9550    1.7516 C   0  0  0  0  0  0  0  0  0  0  0  0
    0.1421   -0.1201    1.7772 H   0  0  0  0  0  0  0  0  0  0  0  0
    0.9082    1.4450    1.6117 H   0  0  0  0  0  0  0  0  0  0  0  0
   -0.6506    1.4390    3.0840 C   0  0  0  0  0  0  0  0  0  0  0  0
   -0.7946    2.5242    3.0504 H   0  0  0  0  0  0  0  0  0  0  0  0
   -1.6297    0.9771    3.2491 H   0  0  0  0  0  0  0  0  0  0  0  0
    0.2962    1.0707    4.2300 C   0  0  0  0  0  0  0  0  0  0  0  0
    0.4427   -0.0157    4.2364 H   0  0  0  0  0  0  0  0  0  0  0  0
    1.2703    1.5446    4.0666 H   0  0  0  0  0  0  0  0  0  0  0  0
   -0.2885    1.5222    5.5640 C   0  0  0  0  0  0  0  0  0  0  0  0
   -0.4415    2.6110    5.5459 H   0  0  0  0  0  0  0  0  0  0  0  0
   -1.2762    1.0567    5.6993 H   0  0  0  0  0  0  0  0  0  0  0  0
    0.6399    1.1276    6.6450 N   0  3  0  0  0  0  0  0  0  0  0  0
    1.5517    1.5645    6.5003 H   0  0  0  0  0  0  0  0  0  0  0  0
    0.2698    1.4187    7.5520 H   0  0  0  0  0  0  0  0  0  0  0  0
    0.7566    0.1117    6.6450 H   0  0  0  0  0  0  0  0  0  0  0  0
   -0.1444    1.0428   -0.7398 C   0  0  0  0  0  0  0  0  0  0  0  0
    0.1052   -0.1033   -1.0836 O   0  0  0  0  0  0  0  0  0  0  0  0
    0.2555    2.0873   -1.5542 N   0  0  0  0  0  0  0  0  0  0  0  0
    0.0038    3.0330   -1.2827 H   0  0  0  0  0  0  0  0  0  0  0  0
    0.9588    1.8851   -2.8179 C   0  0  0  0  0  0  0  0  0  0  0  0
    0.3523    1.2841   -3.5041 H   0  0  0  0  0  0  0  0  0  0  0  0
    1.1665    2.8476   -3.2957 H   0  0  0  0  0  0  0  0  0  0  0  0
    1.9111    1.3705   -2.6499 H   0  0  0  0  0  0  0  0  0  0  0  0
  1  2  1  0  0  0  0
  2  3  1  0  0  0  0
  2  4  1  0  0  0  0
  2  5  1  0  0  0  0
  5  6  2  0  0  0  0
  5  7  1  0  0  0  0
  7  8  1  0  0  0  0
  7  9  1  0  0  0  0
  9 10  1  0  0  0  0
  9 11  1  0  0  0  0
  9 27  1  0  0  0  0
 11 12  1  0  0  0  0
 11 13  1  0  0  0  0
 11 14  1  0  0  0  0
 14 15  1  0  0  0  0
 14 16  1  0  0  0  0
 14 17  1  0  0  0  0
 17 18  1  0  0  0  0
 17 19  1  0  0  0  0
 17 20  1  0  0  0  0
 20 21  1  0  0  0  0
 20 22  1  0  0  0  0
 20 23  1  0  0  0  0
 23 24  1  0  0  0  0
 23 25  1  0  0  0  0
 23 26  1  0  0  0  0
 27 28  2  0  0  0  0
 27 29  1  0  0  0  0
 29 30  1  0  0  0  0
 29 31  1  0  0  0  0
 31 32  1  0  0  0  0
 31 33  1  0  0  0  0
 31 34  1  0  0  0  0
M  CHG  1  23   1
M  END
$$$$

  -OEChem-01062216093D

 34 33  0     1  0  0  0  0  0999 V2000
   -3.7269   -2.4498    0.5613 H   0  0  0  0  0  0  0  0  0  0  0  0
   -3.6974   -1.4132    0.2136 C   0  0  0  0  0  0  0  0  0  0  0  0
   -4.6556   -0.9380    0.4373 H   0  0  0  0  0  0  0  0  0  0  0  0
   -3.5407   -1.4150   -0.8682 H   0  0  0  0  0  0  0  0  0  0  0  0
   -2.5697   -0.6643    0.8988 C   0  0  0  0  0  0  0  0  0  0  0  0
   -2.0366   -1.1738    1.8725 O   0  0  0  0  0  0  0  0  0  0  0  0
   -2.2718    0.6214    0.4707 N   0  0  0  0  0  0  0  0  0  0  0  0
   -2.8278    0.8785   -0.3415 H   0  0  0  0  0  0  0  0  0  0  0  0
   -0.9580    1.3123    0.5458 C   0  0  1  0  0  0  0  0  0  0  0  0
   -1.1569    2.3870    0.5914 H   0  0  0  0  0  0  0  0  0  0  0  0
   -0.0582    0.9490    1.7474 C   0  0  0  0  0  0  0  0  0  0  0  0
    0.1403   -0.1268    1.7730 H   0  0  0  0  0  0  0  0  0  0  0  0
    0.9134    1.4348    1.6066 H   0  0  0  0  0  0  0  0  0  0  0  0
   -0.6440    1.4386    3.0795 C   0  0  0  0  0  0  0  0  0  0  0  0
   -0.7831    2.5243    3.0423 H   0  0  0  0  0  0  0  0  0  0  0  0
   -1.6258    0.9825    3.2455 H   0  0  0  0  0  0  0  0  0  0  0  0
    0.2987    1.0698    4.2289 C   0  0  0  0  0  0  0  0  0  0  0  0
    0.4402   -0.0172    4.2398 H   0  0  0  0  0  0  0  0  0  0  0  0
    1.2755    1.5384    4.0663 H   0  0  0  0  0  0  0  0  0  0  0  0
   -0.2886    1.5293    5.5589 C   0  0  0  0  0  0  0  0  0  0  0  0
   -0.4375    2.6185    5.5355 H   0  0  0  0  0  0  0  0  0  0  0  0
   -1.2786    1.0676    5.6915 H   0  0  0  0  0  0  0  0  0  0  0  0
    0.6335    1.1354    6.6456 N   0  3  0  0  0  0  0  0  0  0  0  0
    1.5431    1.5806    6.5127 H   0  0  0  0  0  0  0  0  0  0  0  0
    0.2523    1.4174    7.5509 H   0  0  0  0  0  0  0  0  0  0  0  0
    0.7580    0.1205    6.6402 H   0  0  0  0  0  0  0  0  0  0  0  0
   -0.1438    1.0415   -0.7417 C   0  0  0  0  0  0  0  0  0  0  0  0
   -0.1413   -0.0709   -1.2494 O   0  0  0  0  0  0  0  0  0  0  0  0
    0.5206    2.0707   -1.3850 N   0  0  0  0  0  0  0  0  0  0  0  0
    0.4757    3.0008   -0.9801 H   0  0  0  0  0  0  0  0  0  0  0  0
    1.2568    1.8840   -2.6322 C   0  0  0  0  0  0  0  0  0  0  0  0
    0.5897    1.5224   -3.4221 H   0  0  0  0  0  0  0  0  0  0  0  0
    1.6975    2.8307   -2.9602 H   0  0  0  0  0  0  0  0  0  0  0  0
    2.0643    1.1566   -2.4961 H   0  0  0  0  0  0  0  0  0  0  0  0
  1  2  1  0  0  0  0
  2  3  1  0  0  0  0
  2  4  1  0  0  0  0
  2  5  1  0  0  0  0
  5  6  2  0  0  0  0
  5  7  1  0  0  0  0
  7  8  1  0  0  0  0
  7  9  1  0  0  0  0
  9 10  1  0  0  0  0
  9 11  1  0  0  0  0
  9 27  1  0  0  0  0
 11 12  1  0  0  0  0
 11 13  1  0  0  0  0
 11 14  1  0  0  0  0
 14 15  1  0  0  0  0
 14 16  1  0  0  0  0
 14 17  1  0  0  0  0
 17 18  1  0  0  0  0
 17 19  1  0  0  0  0
 17 20  1  0  0  0  0
 20 21  1  0  0  0  0
 20 22  1  0  0  0  0
 20 23  1  0  0  0  0
 23 24  1  0  0  0  0
 23 25  1  0  0  0  0
 23 26  1  0  0  0  0
 27 28  2  0  0  0  0
 27 29  1  0  0  0  0
 29 30  1  0  0  0  0
 29 31  1  0  0  0  0
 31 32  1  0  0  0  0
 31 33  1  0  0  0  0
 31 34  1  0  0  0  0
M  CHG  1  23   1
M  END
$$$$

  -OEChem-01062216093D

 34 33  0     1  0  0  0  0  0999 V2000
   -3.7654   -2.4236    0.6096 H   0  0  0  0  0  0  0  0  0  0  0  0
   -3.6698   -1.4151    0.1972 C   0  0  0  0  0  0  0  0  0  0  0  0
   -4.6220   -0.8930    0.3163 H   0  0  0  0  0  0  0  0  0  0  0  0
   -3.4354   -1.4959   -0.8676 H   0  0  0  0  0  0  0  0  0  0  0  0
   -2.5654   -0.6590    0.9108 C   0  0  0  0  0  0  0  0  0  0  0  0
   -2.0407   -1.1701    1.8886 O   0  0  0  0  0  0  0  0  0  0  0  0
   -2.2633    0.6262    0.4858 N   0  0  0  0  0  0  0  0  0  0  0  0
   -2.8016    0.8710   -0.3425 H   0  0  0  0  0  0  0  0  0  0  0  0
   -0.9429    1.3049    0.5533 C   0  0  1  0  0  0  0  0  0  0  0  0
   -1.1333    2.3812    0.5969 H   0  0  0  0  0  0  0  0  0  0  0  0
   -0.0472    0.9341    1.7566 C   0  0  0  0  0  0  0  0  0  0  0  0
    0.1395   -0.1433    1.7861 H   0  0  0  0  0  0  0  0  0  0  0  0
    0.9301    1.4082    1.6181 H   0  0  0  0  0  0  0  0  0  0  0  0
   -0.6314    1.4366    3.0855 C   0  0  0  0  0  0  0  0  0  0  0  0
   -0.7583    2.5237    3.0429 H   0  0  0  0  0  0  0  0  0  0  0  0
   -1.6192    0.9929    3.2492 H   0  0  0  0  0  0  0  0  0  0  0  0
    0.3006    1.0639    4.2426 C   0  0  0  0  0  0  0  0  0  0  0  0
    0.4285   -0.0247    4.2612 H   0  0  0  0  0  0  0  0  0  0  0  0
    1.2838    1.5199    4.0830 H   0  0  0  0  0  0  0  0  0  0  0  0
   -0.2895    1.5383    5.5668 C   0  0  0  0  0  0  0  0  0  0  0  0
   -0.4255    2.6292    5.5369 H   0  0  0  0  0  0  0  0  0  0  0  0
   -1.2857    1.0897    5.6962 H   0  0  0  0  0  0  0  0  0  0  0  0
    0.6208    1.1409    6.6621 N   0  3  0  0  0  0  0  0  0  0  0  0
    1.5388    1.5681    6.5281 H   0  0  0  0  0  0  0  0  0  0  0  0
    0.2410    1.4406    7.5624 H   0  0  0  0  0  0  0  0  0  0  0  0
    0.7268    0.1239    6.6696 H   0  0  0  0  0  0  0  0  0  0  0  0
   -0.1379    1.0355   -0.7422 C   0  0  0  0  0  0  0  0  0  0  0  0
   -0.3681    0.0450   -1.4228 O   0  0  0  0  0  0  0  0  0  0  0  0
    0.7709    1.9677   -1.2113 N   0  0  0  0  0  0  0  0  0  0  0  0
    0.9055    2.8193   -0.6753 H   0  0  0  0  0  0  0  0  0  0  0  0
    1.4944    1.8096   -2.4701 C   0  0  0  0  0  0  0  0  0  0  0  0
    0.7954    1.7652   -3.3123 H   0  0  0  0  0  0  0  0  0  0  0  0
    2.1721    2.6542   -2.6290 H   0  0  0  0  0  0  0  0  0  0  0  0
    2.0885    0.8893   -2.4586 H   0  0  0  0  0  0  0  0  0  0  0  0
  1  2  1  0  0  0  0
  2  3  1  0  0  0  0
  2  4  1  0  0  0  0
  2  5  1  0  0  0  0
  5  6  2  0  0  0  0
  5  7  1  0  0  0  0
  7  8  1  0  0  0  0
  7  9  1  0  0  0  0
  9 10  1  0  0  0  0
  9 11  1  0  0  0  0
  9 27  1  0  0  0  0
 11 12  1  0  0  0  0
 11 13  1  0  0  0  0
 11 14  1  0  0  0  0
 14 15  1  0  0  0  0
 14 16  1  0  0  0  0
 14 17  1  0  0  0  0
 17 18  1  0  0  0  0
 17 19  1  0  0  0  0
 17 20  1  0  0  0  0
 20 21  1  0  0  0  0
 20 22  1  0  0  0  0
 20 23  1  0  0  0  0
 23 24  1  0  0  0  0
 23 25  1  0  0  0  0
 23 26  1  0  0  0  0
 27 28  2  0  0  0  0
 27 29  1  0  0  0  0
 29 30  1  0  0  0  0
 29 31  1  0  0  0  0
 31 32  1  0  0  0  0
 31 33  1  0  0  0  0
 31 34  1  0  0  0  0
M  CHG  1  23   1
M  END
$$$$

  -OEChem-01062216093D

 34 33  0     1  0  0  0  0  0999 V2000
   -3.7253   -2.4330    0.5702 H   0  0  0  0  0  0  0  0  0  0  0  0
   -3.6681   -1.4007    0.2138 C   0  0  0  0  0  0  0  0  0  0  0  0
   -4.6204   -0.9041    0.4132 H   0  0  0  0  0  0  0  0  0  0  0  0
   -3.4896   -1.4143   -0.8645 H   0  0  0  0  0  0  0  0  0  0  0  0
   -2.5407   -0.6662    0.9134 C   0  0  0  0  0  0  0  0  0  0  0  0
   -2.0017   -1.1959    1.8732 O   0  0  0  0  0  0  0  0  0  0  0  0
   -2.2347    0.6206    0.4975 N   0  0  0  0  0  0  0  0  0  0  0  0
   -2.7686    0.8655   -0.3345 H   0  0  0  0  0  0  0  0  0  0  0  0
   -0.9137    1.2998    0.5588 C   0  0  1  0  0  0  0  0  0  0  0  0
   -1.1011    2.3767    0.6048 H   0  0  0  0  0  0  0  0  0  0  0  0
   -0.0219    0.9223    1.7652 C   0  0  0  0  0  0  0  0  0  0  0  0
    0.1631   -0.1552    1.7956 H   0  0  0  0  0  0  0  0  0  0  0  0
    0.9577    1.3938    1.6365 H   0  0  0  0  0  0  0  0  0  0  0  0
   -0.6151    1.4283    3.0887 C   0  0  0  0  0  0  0  0  0  0  0  0
   -0.7385    2.5156    3.0416 H   0  0  0  0  0  0  0  0  0  0  0  0
   -1.6059    0.9881    3.2435 H   0  0  0  0  0  0  0  0  0  0  0  0
    0.3019    1.0565    4.2579 C   0  0  0  0  0  0  0  0  0  0  0  0
    0.4267   -0.0323    4.2829 H   0  0  0  0  0  0  0  0  0  0  0  0
    1.2882    1.5097    4.1101 H   0  0  0  0  0  0  0  0  0  0  0  0
   -0.3067    1.5388    5.5712 C   0  0  0  0  0  0  0  0  0  0  0  0
   -0.4394    2.6298    5.5319 H   0  0  0  0  0  0  0  0  0  0  0  0
   -1.3064    1.0938    5.6873 H   0  0  0  0  0  0  0  0  0  0  0  0
    0.5834    1.1462    6.6850 N   0  3  0  0  0  0  0  0  0  0  0  0
    1.5038    1.5727    6.5661 H   0  0  0  0  0  0  0  0  0  0  0  0
    0.1867    1.4502    7.5767 H   0  0  0  0  0  0  0  0  0  0  0  0
    0.6889    0.1293    6.6997 H   0  0  0  0  0  0  0  0  0  0  0  0
   -0.1232    1.0358   -0.7495 C   0  0  0  0  0  0  0  0  0  0  0  0
   -0.5373    0.2277   -1.5708 O   0  0  0  0  0  0  0  0  0  0  0  0
    0.9884    1.7945   -1.0738 N   0  0  0  0  0  0  0  0  0  0  0  0
    1.2827    2.5164   -0.4240 H   0  0  0  0  0  0  0  0  0  0  0  0
    1.7126    1.6468   -2.3335 C   0  0  0  0  0  0  0  0  0  0  0  0
    1.0533    1.8550   -3.1832 H   0  0  0  0  0  0  0  0  0  0  0  0
    2.5553    2.3438   -2.3730 H   0  0  0  0  0  0  0  0  0  0  0  0
    2.1038    0.6285   -2.4348 H   0  0  0  0  0  0  0  0  0  0  0  0
  1  2  1  0  0  0  0
  2  3  1  0  0  0  0
  2  4  1  0  0  0  0
  2  5  1  0  0  0  0
  5  6  2  0  0  0  0
  5  7  1  0  0  0  0
  7  8  1  0  0  0  0
  7  9  1  0  0  0  0
  9 10  1  0  0  0  0
  9 11  1  0  0  0  0
  9 27  1  0  0  0  0
 11 12  1  0  0  0  0
 11 13  1  0  0  0  0
 11 14  1  0  0  0  0
 14 15  1  0  0  0  0
 14 16  1  0  0  0  0
 14 17  1  0  0  0  0
 17 18  1  0  0  0  0
 17 19  1  0  0  0  0
 17 20  1  0  0  0  0
 20 21  1  0  0  0  0
 20 22  1  0  0  0  0
 20 23  1  0  0  0  0
 23 24  1  0  0  0  0
 23 25  1  0  0  0  0
 23 26  1  0  0  0  0
 27 28  2  0  0  0  0
 27 29  1  0  0  0  0
 29 30  1  0  0  0  0
 29 31  1  0  0  0  0
 31 32  1  0  0  0  0
 31 33  1  0  0  0  0
 31 34  1  0  0  0  0
M  CHG  1  23   1
M  END
$$$$

  -OEChem-01062216093D

 34 33  0     1  0  0  0  0  0999 V2000
   -3.9608   -2.3264    0.5615 H   0  0  0  0  0  0  0  0  0  0  0  0
   -3.8272   -1.2839    0.2588 C   0  0  0  0  0  0  0  0  0  0  0  0
   -4.6799   -0.7006    0.6148 H   0  0  0  0  0  0  0  0  0  0  0  0
   -3.7950   -1.2392   -0.8330 H   0  0  0  0  0  0  0  0  0  0  0  0
   -2.5387   -0.7285    0.8356 C   0  0  0  0  0  0  0  0  0  0  0  0
   -1.8913   -1.4282    1.5993 O   0  0  0  0  0  0  0  0  0  0  0  0
   -2.1701    0.5606    0.4827 N   0  0  0  0  0  0  0  0  0  0  0  0
   -2.7503    0.9205   -0.2752 H   0  0  0  0  0  0  0  0  0  0  0  0
   -0.8372    1.2152    0.5497 C   0  0  1  0  0  0  0  0  0  0  0  0
   -1.0080    2.2468    0.8718 H   0  0  0  0  0  0  0  0  0  0  0  0
    0.1826    0.6023    1.5405 C   0  0  0  0  0  0  0  0  0  0  0  0
    0.3370   -0.4586    1.3209 H   0  0  0  0  0  0  0  0  0  0  0  0
    1.1519    1.0909    1.4041 H   0  0  0  0  0  0  0  0  0  0  0  0
   -0.2435    0.8108    3.0053 C   0  0  0  0  0  0  0  0  0  0  0  0
   -0.3442    1.8839    3.2011 H   0  0  0  0  0  0  0  0  0  0  0  0
   -1.2194    0.3539    3.1925 H   0  0  0  0  0  0  0  0  0  0  0  0
    0.7984    0.2103    3.9539 C   0  0  0  0  0  0  0  0  0  0  0  0
    0.9078   -0.8580    3.7343 H   0  0  0  0  0  0  0  0  0  0  0  0
    1.7677    0.6937    3.7901 H   0  0  0  0  0  0  0  0  0  0  0  0
    0.3540    0.3989    5.4015 C   0  0  0  0  0  0  0  0  0  0  0  0
    0.2335    1.4720    5.6090 H   0  0  0  0  0  0  0  0  0  0  0  0
   -0.6316   -0.0709    5.5375 H   0  0  0  0  0  0  0  0  0  0  0  0
    1.3618   -0.2102    6.2961 N   0  3  0  0  0  0  0  0  0  0  0  0
    2.2669    0.2451    6.1673 H   0  0  0  0  0  0  0  0  0  0  0  0
    1.0734   -0.1094    7.2717 H   0  0  0  0  0  0  0  0  0  0  0  0
    1.4575   -1.2052    6.0808 H   0  0  0  0  0  0  0  0  0  0  0  0
   -0.2441    1.3177   -0.8811 C   0  0  0  0  0  0  0  0  0  0  0  0
   -0.9261    0.9937   -1.8457 O   0  0  0  0  0  0  0  0  0  0  0  0
    0.9954    1.8881   -1.1161 N   0  0  0  0  0  0  0  0  0  0  0  0
    1.5342    2.2095   -0.3188 H   0  0  0  0  0  0  0  0  0  0  0  0
    1.5470    2.0724   -2.4560 C   0  0  0  0  0  0  0  0  0  0  0  0
    0.8819    2.6950   -3.0645 H   0  0  0  0  0  0  0  0  0  0  0  0
    2.5233    2.5641   -2.4019 H   0  0  0  0  0  0  0  0  0  0  0  0
    1.6741    1.1052   -2.9545 H   0  0  0  0  0  0  0  0  0  0  0  0
  1  2  1  0  0  0  0
  2  3  1  0  0  0  0
  2  4  1  0  0  0  0
  2  5  1  0  0  0  0
  5  6  2  0  0  0  0
  5  7  1  0  0  0  0
  7  8  1  0  0  0  0
  7  9  1  0  0  0  0
  9 10  1  0  0  0  0
  9 11  1  0  0  0  0
  9 27  1  0  0  0  0
 11 12  1  0  0  0  0
 11 13  1  0  0  0  0
 11 14  1  0  0  0  0
 14 15  1  0  0  0  0
 14 16  1  0  0  0  0
 14 17  1  0  0  0  0
 17 18  1  0  0  0  0
 17 19  1  0  0  0  0
 17 20  1  0  0  0  0
 20 21  1  0  0  0  0
 20 22  1  0  0  0  0
 20 23  1  0  0  0  0
 23 24  1  0  0  0  0
 23 25  1  0  0  0  0
 23 26  1  0  0  0  0
 27 28  2  0  0  0  0
 27 29  1  0  0  0  0
 29 30  1  0  0  0  0
 29 31  1  0  0  0  0
 31 32  1  0  0  0  0
 31 33  1  0  0  0  0
 31 34  1  0  0  0  0
M  CHG  1  23   1
M  END
$$$$

  -OEChem-01062216093D

 34 33  0     1  0  0  0  0  0999 V2000
   -3.9497   -2.3179    0.5674 H   0  0  0  0  0  0  0  0  0  0  0  0
   -3.8097   -1.2755    0.2674 C   0  0  0  0  0  0  0  0  0  0  0  0
   -4.6479   -0.6845    0.6444 H   0  0  0  0  0  0  0  0  0  0  0  0
   -3.8000   -1.2249   -0.8245 H   0  0  0  0  0  0  0  0  0  0  0  0
   -2.5037   -0.7381    0.8216 C   0  0  0  0  0  0  0  0  0  0  0  0
   -1.8426   -1.4536    1.5583 O   0  0  0  0  0  0  0  0  0  0  0  0
   -2.1355    0.5552    0.4857 N   0  0  0  0  0  0  0  0  0  0  0  0
   -2.7272    0.9389   -0.2521 H   0  0  0  0  0  0  0  0  0  0  0  0
   -0.8062    1.2154    0.5596 C   0  0  1  0  0  0  0  0  0  0  0  0
   -0.9780    2.2456    0.8860 H   0  0  0  0  0  0  0  0  0  0  0  0
    0.2090    0.5993    1.5547 C   0  0  0  0  0  0  0  0  0  0  0  0
    0.3723   -0.4594    1.3324 H   0  0  0  0  0  0  0  0  0  0  0  0
    1.1758    1.0963    1.4340 H   0  0  0  0  0  0  0  0  0  0  0  0
   -0.2337    0.8033    3.0148 C   0  0  0  0  0  0  0  0  0  0  0  0
   -0.3427    1.8753    3.2119 H   0  0  0  0  0  0  0  0  0  0  0  0
   -1.2094    0.3394    3.1871 H   0  0  0  0  0  0  0  0  0  0  0  0
    0.7964    0.2042    3.9768 C   0  0  0  0  0  0  0  0  0  0  0  0
    0.9108   -0.8640    3.7586 H   0  0  0  0  0  0  0  0  0  0  0  0
    1.7668    0.6896    3.8275 H   0  0  0  0  0  0  0  0  0  0  0  0
    0.3295    0.3918    5.4174 C   0  0  0  0  0  0  0  0  0  0  0  0
    0.2040    1.4649    5.6224 H   0  0  0  0  0  0  0  0  0  0  0  0
   -0.6575   -0.0793    5.5378 H   0  0  0  0  0  0  0  0  0  0  0  0
    1.3235   -0.2147    6.3291 N   0  3  0  0  0  0  0  0  0  0  0  0
    2.2303    0.2408    6.2131 H   0  0  0  0  0  0  0  0  0  0  0  0
    1.0200   -0.1109    7.2999 H   0  0  0  0  0  0  0  0  0  0  0  0
    1.4232   -1.2104    6.1185 H   0  0  0  0  0  0  0  0  0  0  0  0
   -0.2286    1.3304   -0.8773 C   0  0  0  0  0  0  0  0  0  0  0  0
   -0.9921    1.2560   -1.8327 O   0  0  0  0  0  0  0  0  0  0  0  0
    1.1035    1.6164   -1.1251 N   0  0  0  0  0  0  0  0  0  0  0  0
    1.7339    1.6847   -0.3336 H   0  0  0  0  0  0  0  0  0  0  0  0
    1.6496    1.7672   -2.4713 C   0  0  0  0  0  0  0  0  0  0  0  0
    1.1320    2.5694   -3.0088 H   0  0  0  0  0  0  0  0  0  0  0  0
    2.7143    2.0165   -2.4251 H   0  0  0  0  0  0  0  0  0  0  0  0
    1.5369    0.8362   -3.0374 H   0  0  0  0  0  0  0  0  0  0  0  0
  1  2  1  0  0  0  0
  2  3  1  0  0  0  0
  2  4  1  0  0  0  0
  2  5  1  0  0  0  0
  5  6  2  0  0  0  0
  5  7  1  0  0  0  0
  7  8  1  0  0  0  0
  7  9  1  0  0  0  0
  9 10  1  0  0  0  0
  9 11  1  0  0  0  0
  9 27  1  0  0  0  0
 11 12  1  0  0  0  0
 11 13  1  0  0  0  0
 11 14  1  0  0  0  0
 14 15  1  0  0  0  0
 14 16  1  0  0  0  0
 14 17  1  0  0  0  0
 17 18  1  0  0  0  0
 17 19  1  0  0  0  0
 17 20  1  0  0  0  0
 20 21  1  0  0  0  0
 20 22  1  0  0  0  0
 20 23  1  0  0  0  0
 23 24  1  0  0  0  0
 23 25  1  0  0  0  0
 23 26  1  0  0  0  0
 27 28  2  0  0  0  0
 27 29  1  0  0  0  0
 29 30  1  0  0  0  0
 29 31  1  0  0  0  0
 31 32  1  0  0  0  0
 31 33  1  0  0  0  0
 31 34  1  0  0  0  0
M  CHG  1  23   1
M  END
$$$$

  -OEChem-01062216093D

 34 33  0     1  0  0  0  0  0999 V2000
   -3.9388   -2.3137    0.5597 H   0  0  0  0  0  0  0  0  0  0  0  0
   -3.7964   -1.2704    0.2636 C   0  0  0  0  0  0  0  0  0  0  0  0
   -4.6248   -0.6765    0.6571 H   0  0  0  0  0  0  0  0  0  0  0  0
   -3.8029   -1.2126   -0.8280 H   0  0  0  0  0  0  0  0  0  0  0  0
   -2.4784   -0.7453    0.8010 C   0  0  0  0  0  0  0  0  0  0  0  0
   -1.8037   -1.4739    1.5119 O   0  0  0  0  0  0  0  0  0  0  0  0
   -2.1096    0.5515    0.4807 N   0  0  0  0  0  0  0  0  0  0  0  0
   -2.7148    0.9641   -0.2303 H   0  0  0  0  0  0  0  0  0  0  0  0
   -0.7826    1.2115    0.5687 C   0  0  1  0  0  0  0  0  0  0  0  0
   -0.9573    2.2405    0.8980 H   0  0  0  0  0  0  0  0  0  0  0  0
    0.2284    0.5982    1.5690 C   0  0  0  0  0  0  0  0  0  0  0  0
    0.4025   -0.4589    1.3465 H   0  0  0  0  0  0  0  0  0  0  0  0
    1.1908    1.1065    1.4579 H   0  0  0  0  0  0  0  0  0  0  0  0
   -0.2279    0.7993    3.0249 C   0  0  0  0  0  0  0  0  0  0  0  0
   -0.3461    1.8705    3.2225 H   0  0  0  0  0  0  0  0  0  0  0  0
   -1.2021    0.3275    3.1851 H   0  0  0  0  0  0  0  0  0  0  0  0
    0.7955    0.2050    3.9973 C   0  0  0  0  0  0  0  0  0  0  0  0
    0.9186   -0.8623    3.7803 H   0  0  0  0  0  0  0  0  0  0  0  0
    1.7645    0.6965    3.8584 H   0  0  0  0  0  0  0  0  0  0  0  0
    0.3125    0.3912    5.4331 C   0  0  0  0  0  0  0  0  0  0  0  0
    0.1790    1.4639    5.6358 H   0  0  0  0  0  0  0  0  0  0  0  0
   -0.6734   -0.0848    5.5434 H   0  0  0  0  0  0  0  0  0  0  0  0
    1.2990   -0.2097    6.3565 N   0  3  0  0  0  0  0  0  0  0  0  0
    2.2058    0.2473    6.2469 H   0  0  0  0  0  0  0  0  0  0  0  0
    0.9863   -0.1022    7.3239 H   0  0  0  0  0  0  0  0  0  0  0  0
    1.4024   -1.2059    6.1513 H   0  0  0  0  0  0  0  0  0  0  0  0
   -0.2108    1.3350   -0.8685 C   0  0  0  0  0  0  0  0  0  0  0  0
   -0.9941    1.5116   -1.7935 O   0  0  0  0  0  0  0  0  0  0  0  0
    1.1455    1.3204   -1.1473 N   0  0  0  0  0  0  0  0  0  0  0  0
    1.7834    1.1011   -0.3898 H   0  0  0  0  0  0  0  0  0  0  0  0
    1.6795    1.4272   -2.5025 C   0  0  0  0  0  0  0  0  0  0  0  0
    1.3498    2.3593   -2.9742 H   0  0  0  0  0  0  0  0  0  0  0  0
    2.7737    1.4219   -2.4822 H   0  0  0  0  0  0  0  0  0  0  0  0
    1.3405    0.5856   -3.1162 H   0  0  0  0  0  0  0  0  0  0  0  0
  1  2  1  0  0  0  0
  2  3  1  0  0  0  0
  2  4  1  0  0  0  0
  2  5  1  0  0  0  0
  5  6  2  0  0  0  0
  5  7  1  0  0  0  0
  7  8  1  0  0  0  0
  7  9  1  0  0  0  0
  9 10  1  0  0  0  0
  9 11  1  0  0  0  0
  9 27  1  0  0  0  0
 11 12  1  0  0  0  0
 11 13  1  0  0  0  0
 11 14  1  0  0  0  0
 14 15  1  0  0  0  0
 14 16  1  0  0  0  0
 14 17  1  0  0  0  0
 17 18  1  0  0  0  0
 17 19  1  0  0  0  0
 17 20  1  0  0  0  0
 20 21  1  0  0  0  0
 20 22  1  0  0  0  0
 20 23  1  0  0  0  0
 23 24  1  0  0  0  0
 23 25  1  0  0  0  0
 23 26  1  0  0  0  0
 27 28  2  0  0  0  0
 27 29  1  0  0  0  0
 29 30  1  0  0  0  0
 29 31  1  0  0  0  0
 31 32  1  0  0  0  0
 31 33  1  0  0  0  0
 31 34  1  0  0  0  0
M  CHG  1  23   1
M  END
$$$$

  -OEChem-01062216093D

 34 33  0     1  0  0  0  0  0999 V2000
   -3.9400   -2.3093    0.5653 H   0  0  0  0  0  0  0  0  0  0  0  0
   -3.7951   -1.2662    0.2696 C   0  0  0  0  0  0  0  0  0  0  0  0
   -4.6108   -0.6670    0.6813 H   0  0  0  0  0  0  0  0  0  0  0  0
   -3.8236   -1.2057   -0.8214 H   0  0  0  0  0  0  0  0  0  0  0  0
   -2.4627   -0.7533    0.7826 C   0  0  0  0  0  0  0  0  0  0  0  0
   -1.7745   -1.4918    1.4696 O   0  0  0  0  0  0  0  0  0  0  0  0
   -2.0918    0.5440    0.4690 N   0  0  0  0  0  0  0  0  0  0  0  0
   -2.7119    0.9805   -0.2143 H   0  0  0  0  0  0  0  0  0  0  0  0
   -0.7675    1.2050    0.5698 C   0  0  1  0  0  0  0  0  0  0  0  0
   -0.9460    2.2343    0.8971 H   0  0  0  0  0  0  0  0  0  0  0  0
    0.2407    0.5972    1.5760 C   0  0  0  0  0  0  0  0  0  0  0  0
    0.4229   -0.4592    1.3572 H   0  0  0  0  0  0  0  0  0  0  0  0
    1.1999    1.1135    1.4658 H   0  0  0  0  0  0  0  0  0  0  0  0
   -0.2255    0.7965    3.0282 C   0  0  0  0  0  0  0  0  0  0  0  0
   -0.3521    1.8669    3.2243 H   0  0  0  0  0  0  0  0  0  0  0  0
   -1.1976    0.3171    3.1803 H   0  0  0  0  0  0  0  0  0  0  0  0
    0.7947    0.2081    4.0075 C   0  0  0  0  0  0  0  0  0  0  0  0
    0.9244   -0.8586    3.7919 H   0  0  0  0  0  0  0  0  0  0  0  0
    1.7622    0.7043    3.8744 H   0  0  0  0  0  0  0  0  0  0  0  0
    0.3023    0.3924    5.4402 C   0  0  0  0  0  0  0  0  0  0  0  0
    0.1634    1.4646    5.6418 H   0  0  0  0  0  0  0  0  0  0  0  0
   -0.6822   -0.0877    5.5453 H   0  0  0  0  0  0  0  0  0  0  0  0
    1.2867   -0.2032    6.3693 N   0  3  0  0  0  0  0  0  0  0  0  0
    2.1938    0.2533    6.2594 H   0  0  0  0  0  0  0  0  0  0  0  0
    0.9719   -0.0904    7.3354 H   0  0  0  0  0  0  0  0  0  0  0  0
    1.3909   -1.2005    6.1698 H   0  0  0  0  0  0  0  0  0  0  0  0
   -0.1896    1.3297   -0.8619 C   0  0  0  0  0  0  0  0  0  0  0  0
   -0.9343    1.7262   -1.7487 O   0  0  0  0  0  0  0  0  0  0  0  0
    1.1218    1.0212   -1.1805 N   0  0  0  0  0  0  0  0  0  0  0  0
    1.6887    0.5803   -0.4637 H   0  0  0  0  0  0  0  0  0  0  0  0
    1.6413    1.0814   -2.5438 C   0  0  0  0  0  0  0  0  0  0  0  0
    1.5296    2.0910   -2.9542 H   0  0  0  0  0  0  0  0  0  0  0  0
    2.7044    0.8218   -2.5578 H   0  0  0  0  0  0  0  0  0  0  0  0
    1.1049    0.3788   -3.1907 H   0  0  0  0  0  0  0  0  0  0  0  0
  1  2  1  0  0  0  0
  2  3  1  0  0  0  0
  2  4  1  0  0  0  0
  2  5  1  0  0  0  0
  5  6  2  0  0  0  0
  5  7  1  0  0  0  0
  7  8  1  0  0  0  0
  7  9  1  0  0  0  0
  9 10  1  0  0  0  0
  9 11  1  0  0  0  0
  9 27  1  0  0  0  0
 11 12  1  0  0  0  0
 11 13  1  0  0  0  0
 11 14  1  0  0  0  0
 14 15  1  0  0  0  0
 14 16  1  0  0  0  0
 14 17  1  0  0  0  0
 17 18  1  0  0  0  0
 17 19  1  0  0  0  0
 17 20  1  0  0  0  0
 20 21  1  0  0  0  0
 20 22  1  0  0  0  0
 20 23  1  0  0  0  0
 23 24  1  0  0  0  0
 23 25  1  0  0  0  0
 23 26  1  0  0  0  0
 27 28  2  0  0  0  0
 27 29  1  0  0  0  0
 29 30  1  0  0  0  0
 29 31  1  0  0  0  0
 31 32  1  0  0  0  0
 31 33  1  0  0  0  0
 31 34  1  0  0  0  0
M  CHG  1  23   1
M  END
$$$$

  -OEChem-01062216093D

 34 33  0     1  0  0  0  0  0999 V2000
   -3.9542   -2.3078    0.5739 H   0  0  0  0  0  0  0  0  0  0  0  0
   -3.8071   -1.2647    0.2789 C   0  0  0  0  0  0  0  0  0  0  0  0
   -4.6106   -0.6609    0.7079 H   0  0  0  0  0  0  0  0  0  0  0  0
   -3.8560   -1.1999   -0.8112 H   0  0  0  0  0  0  0  0  0  0  0  0
   -2.4610   -0.7637    0.7681 C   0  0  0  0  0  0  0  0  0  0  0  0
   -1.7611   -1.5108    1.4333 O   0  0  0  0  0  0  0  0  0  0  0  0
   -2.0856    0.5324    0.4549 N   0  0  0  0  0  0  0  0  0  0  0  0
   -2.7233    0.9924   -0.1953 H   0  0  0  0  0  0  0  0  0  0  0  0
   -0.7615    1.1904    0.5646 C   0  0  1  0  0  0  0  0  0  0  0  0
   -0.9430    2.2203    0.8894 H   0  0  0  0  0  0  0  0  0  0  0  0
    0.2451    0.5899    1.5757 C   0  0  0  0  0  0  0  0  0  0  0  0
    0.4298   -0.4675    1.3649 H   0  0  0  0  0  0  0  0  0  0  0  0
    1.2034    1.1076    1.4597 H   0  0  0  0  0  0  0  0  0  0  0  0
   -0.2246    0.7931    3.0254 C   0  0  0  0  0  0  0  0  0  0  0  0
   -0.3561    1.8635    3.2177 H   0  0  0  0  0  0  0  0  0  0  0  0
   -1.1948    0.3089    3.1755 H   0  0  0  0  0  0  0  0  0  0  0  0
    0.7964    0.2113    4.0080 C   0  0  0  0  0  0  0  0  0  0  0  0
    0.9295   -0.8558    3.7964 H   0  0  0  0  0  0  0  0  0  0  0  0
    1.7627    0.7096    3.8732 H   0  0  0  0  0  0  0  0  0  0  0  0
    0.3024    0.3988    5.4399 C   0  0  0  0  0  0  0  0  0  0  0  0
    0.1609    1.4714    5.6375 H   0  0  0  0  0  0  0  0  0  0  0  0
   -0.6811   -0.0829    5.5462 H   0  0  0  0  0  0  0  0  0  0  0  0
    1.2875   -0.1904    6.3724 N   0  3  0  0  0  0  0  0  0  0  0  0
    2.1937    0.2678    6.2615 H   0  0  0  0  0  0  0  0  0  0  0  0
    0.9714   -0.0736    7.3376 H   0  0  0  0  0  0  0  0  0  0  0  0
    1.3945   -1.1883    6.1778 H   0  0  0  0  0  0  0  0  0  0  0  0
   -0.1696    1.3133   -0.8582 C   0  0  0  0  0  0  0  0  0  0  0  0
   -0.8175    1.9244   -1.6964 O   0  0  0  0  0  0  0  0  0  0  0  0
    1.0299    0.7295   -1.2275 N   0  0  0  0  0  0  0  0  0  0  0  0
    1.4669    0.0994   -0.5623 H   0  0  0  0  0  0  0  0  0  0  0  0
    1.5356    0.7611   -2.5967 C   0  0  0  0  0  0  0  0  0  0  0  0
    1.6556    1.7951   -2.9381 H   0  0  0  0  0  0  0  0  0  0  0  0
    2.5098    0.2656   -2.6546 H   0  0  0  0  0  0  0  0  0  0  0  0
    0.8445    0.2475   -3.2736 H   0  0  0  0  0  0  0  0  0  0  0  0
  1  2  1  0  0  0  0
  2  3  1  0  0  0  0
  2  4  1  0  0  0  0
  2  5  1  0  0  0  0
  5  6  2  0  0  0  0
  5  7  1  0  0  0  0
  7  8  1  0  0  0  0
  7  9  1  0  0  0  0
  9 10  1  0  0  0  0
  9 11  1  0  0  0  0
  9 27  1  0  0  0  0
 11 12  1  0  0  0  0
 11 13  1  0  0  0  0
 11 14  1  0  0  0  0
 14 15  1  0  0  0  0
 14 16  1  0  0  0  0
 14 17  1  0  0  0  0
 17 18  1  0  0  0  0
 17 19  1  0  0  0  0
 17 20  1  0  0  0  0
 20 21  1  0  0  0  0
 20 22  1  0  0  0  0
 20 23  1  0  0  0  0
 23 24  1  0  0  0  0
 23 25  1  0  0  0  0
 23 26  1  0  0  0  0
 27 28  2  0  0  0  0
 27 29  1  0  0  0  0
 29 30  1  0  0  0  0
 29 31  1  0  0  0  0
 31 32  1  0  0  0  0
 31 33  1  0  0  0  0
 31 34  1  0  0  0  0
M  CHG  1  23   1
M  END
$$$$

  -OEChem-01062216093D

 34 33  0     1  0  0  0  0  0999 V2000
   -3.9815   -2.3027    0.6281 H   0  0  0  0  0  0  0  0  0  0  0  0
   -3.8339   -1.2630    0.3223 C   0  0  0  0  0  0  0  0  0  0  0  0
   -4.6105   -0.6476    0.7831 H   0  0  0  0  0  0  0  0  0  0  0  0
   -3.9287   -1.2025   -0.7648 H   0  0  0  0  0  0  0  0  0  0  0  0
   -2.4619   -0.7781    0.7519 C   0  0  0  0  0  0  0  0  0  0  0  0
   -1.7391   -1.5361    1.3786 O   0  0  0  0  0  0  0  0  0  0  0  0
   -2.0858    0.5158    0.4310 N   0  0  0  0  0  0  0  0  0  0  0  0
   -2.7502    1.0000   -0.1725 H   0  0  0  0  0  0  0  0  0  0  0  0
   -0.7646    1.1778    0.5484 C   0  0  1  0  0  0  0  0  0  0  0  0
   -0.9525    2.2080    0.8692 H   0  0  0  0  0  0  0  0  0  0  0  0
    0.2409    0.5868    1.5648 C   0  0  0  0  0  0  0  0  0  0  0  0
    0.4346   -0.4698    1.3607 H   0  0  0  0  0  0  0  0  0  0  0  0
    1.1960    1.1101    1.4455 H   0  0  0  0  0  0  0  0  0  0  0  0
   -0.2335    0.7901    3.0120 C   0  0  0  0  0  0  0  0  0  0  0  0
   -0.3728    1.8599    3.2030 H   0  0  0  0  0  0  0  0  0  0  0  0
   -1.2004    0.2980    3.1598 H   0  0  0  0  0  0  0  0  0  0  0  0
    0.7917    0.2155    3.9943 C   0  0  0  0  0  0  0  0  0  0  0  0
    0.9331   -0.8505    3.7822 H   0  0  0  0  0  0  0  0  0  0  0  0
    1.7538    0.7213    3.8578 H   0  0  0  0  0  0  0  0  0  0  0  0
    0.2996    0.3993    5.4269 C   0  0  0  0  0  0  0  0  0  0  0  0
    0.1515    1.4710    5.6248 H   0  0  0  0  0  0  0  0  0  0  0  0
   -0.6797   -0.0900    5.5355 H   0  0  0  0  0  0  0  0  0  0  0  0
    1.2922   -0.1841    6.3549 N   0  3  0  0  0  0  0  0  0  0  0  0
    2.1956    0.2779    6.2367 H   0  0  0  0  0  0  0  0  0  0  0  0
    0.9822   -0.0664    7.3218 H   0  0  0  0  0  0  0  0  0  0  0  0
    1.4024   -1.1819    6.1616 H   0  0  0  0  0  0  0  0  0  0  0  0
   -0.1491    1.2942   -0.8623 C   0  0  0  0  0  0  0  0  0  0  0  0
   -0.6369    2.1007   -1.6402 O   0  0  0  0  0  0  0  0  0  0  0  0
    0.8827    0.4762   -1.2877 N   0  0  0  0  0  0  0  0  0  0  0  0
    1.1409   -0.2964   -0.6808 H   0  0  0  0  0  0  0  0  0  0  0  0
    1.3853    0.4861   -2.6579 C   0  0  0  0  0  0  0  0  0  0  0  0
    1.7495    1.4837   -2.9268 H   0  0  0  0  0  0  0  0  0  0  0  0
    2.2133   -0.2217   -2.7643 H   0  0  0  0  0  0  0  0  0  0  0  0
    0.5937    0.2015   -3.3593 H   0  0  0  0  0  0  0  0  0  0  0  0
  1  2  1  0  0  0  0
  2  3  1  0  0  0  0
  2  4  1  0  0  0  0
  2  5  1  0  0  0  0
  5  6  2  0  0  0  0
  5  7  1  0  0  0  0
  7  8  1  0  0  0  0
  7  9  1  0  0  0  0
  9 10  1  0  0  0  0
  9 11  1  0  0  0  0
  9 27  1  0  0  0  0
 11 12  1  0  0  0  0
 11 13  1  0  0  0  0
 11 14  1  0  0  0  0
 14 15  1  0  0  0  0
 14 16  1  0  0  0  0
 14 17  1  0  0  0  0
 17 18  1  0  0  0  0
 17 19  1  0  0  0  0
 17 20  1  0  0  0  0
 20 21  1  0  0  0  0
 20 22  1  0  0  0  0
 20 23  1  0  0  0  0
 23 24  1  0  0  0  0
 23 25  1  0  0  0  0
 23 26  1  0  0  0  0
 27 28  2  0  0  0  0
 27 29  1  0  0  0  0
 29 30  1  0  0  0  0
 29 31  1  0  0  0  0
 31 32  1  0  0  0  0
 31 33  1  0  0  0  0
 31 34  1  0  0  0  0
M  CHG  1  23   1
M  END
$$$$

  -OEChem-01062216093D

 34 33  0     1  0  0  0  0  0999 V2000
   -4.0187   -2.3006    0.6732 H   0  0  0  0  0  0  0  0  0  0  0  0
   -3.8713   -1.2624    0.3619 C   0  0  0  0  0  0  0  0  0  0  0  0
   -4.6260   -0.6395    0.8482 H   0  0  0  0  0  0  0  0  0  0  0  0
   -4.0015   -1.2008   -0.7216 H   0  0  0  0  0  0  0  0  0  0  0  0
   -2.4812   -0.7910    0.7454 C   0  0  0  0  0  0  0  0  0  0  0  0
   -1.7389   -1.5593    1.3350 O   0  0  0  0  0  0  0  0  0  0  0  0
   -2.1023    0.4988    0.4128 N   0  0  0  0  0  0  0  0  0  0  0  0
   -2.7899    1.0039   -0.1450 H   0  0  0  0  0  0  0  0  0  0  0  0
   -0.7812    1.1608    0.5319 C   0  0  1  0  0  0  0  0  0  0  0  0
   -0.9724    2.1920    0.8482 H   0  0  0  0  0  0  0  0  0  0  0  0
    0.2284    0.5786    1.5487 C   0  0  0  0  0  0  0  0  0  0  0  0
    0.4262   -0.4778    1.3488 H   0  0  0  0  0  0  0  0  0  0  0  0
    1.1817    1.1037    1.4217 H   0  0  0  0  0  0  0  0  0  0  0  0
   -0.2414    0.7845    2.9966 C   0  0  0  0  0  0  0  0  0  0  0  0
   -0.3861    1.8540    3.1850 H   0  0  0  0  0  0  0  0  0  0  0  0
   -1.2046    0.2863    3.1488 H   0  0  0  0  0  0  0  0  0  0  0  0
    0.7915    0.2175    3.9754 C   0  0  0  0  0  0  0  0  0  0  0  0
    0.9371   -0.8483    3.7655 H   0  0  0  0  0  0  0  0  0  0  0  0
    1.7504    0.7278    3.8322 H   0  0  0  0  0  0  0  0  0  0  0  0
    0.3075    0.4023    5.4106 C   0  0  0  0  0  0  0  0  0  0  0  0
    0.1550    1.4736    5.6075 H   0  0  0  0  0  0  0  0  0  0  0  0
   -0.6689   -0.0913    5.5275 H   0  0  0  0  0  0  0  0  0  0  0  0
    1.3094   -0.1744    6.3328 N   0  3  0  0  0  0  0  0  0  0  0  0
    2.2081    0.2960    6.2112 H   0  0  0  0  0  0  0  0  0  0  0  0
    1.0029   -0.0609    7.3013 H   0  0  0  0  0  0  0  0  0  0  0  0
    1.4278   -1.1707    6.1371 H   0  0  0  0  0  0  0  0  0  0  0  0
   -0.1463    1.2664   -0.8691 C   0  0  0  0  0  0  0  0  0  0  0  0
   -0.4026    2.2416   -1.5586 O   0  0  0  0  0  0  0  0  0  0  0  0
    0.6629    0.2638   -1.3720 N   0  0  0  0  0  0  0  0  0  0  0  0
    0.7130   -0.5997   -0.8377 H   0  0  0  0  0  0  0  0  0  0  0  0
    1.1895    0.2785   -2.7330 C   0  0  0  0  0  0  0  0  0  0  0  0
    1.7874    1.1802   -2.9040 H   0  0  0  0  0  0  0  0  0  0  0  0
    1.8286   -0.5936   -2.9028 H   0  0  0  0  0  0  0  0  0  0  0  0
    0.3721    0.2567   -3.4618 H   0  0  0  0  0  0  0  0  0  0  0  0
  1  2  1  0  0  0  0
  2  3  1  0  0  0  0
  2  4  1  0  0  0  0
  2  5  1  0  0  0  0
  5  6  2  0  0  0  0
  5  7  1  0  0  0  0
  7  8  1  0  0  0  0
  7  9  1  0  0  0  0
  9 10  1  0  0  0  0
  9 11  1  0  0  0  0
  9 27  1  0  0  0  0
 11 12  1  0  0  0  0
 11 13  1  0  0  0  0
 11 14  1  0  0  0  0
 14 15  1  0  0  0  0
 14 16  1  0  0  0  0
 14 17  1  0  0  0  0
 17 18  1  0  0  0  0
 17 19  1  0  0  0  0
 17 20  1  0  0  0  0
 20 21  1  0  0  0  0
 20 22  1  0  0  0  0
 20 23  1  0  0  0  0
 23 24  1  0  0  0  0
 23 25  1  0  0  0  0
 23 26  1  0  0  0  0
 27 28  2  0  0  0  0
 27 29  1  0  0  0  0
 29 30  1  0  0  0  0
 29 31  1  0  0  0  0
 31 32  1  0  0  0  0
 31 33  1  0  0  0  0
 31 34  1  0  0  0  0
M  CHG  1  23   1
M  END
$$$$

  -OEChem-01062216093D

 34 33  0     1  0  0  0  0  0999 V2000
   -4.0573   -2.2932    0.7486 H   0  0  0  0  0  0  0  0  0  0  0  0
   -3.9116   -1.2591    0.4230 C   0  0  0  0  0  0  0  0  0  0  0  0
   -4.6355   -0.6234    0.9386 H   0  0  0  0  0  0  0  0  0  0  0  0
   -4.0907   -1.2032   -0.6537 H   0  0  0  0  0  0  0  0  0  0  0  0
   -2.5001   -0.8025    0.7394 C   0  0  0  0  0  0  0  0  0  0  0  0
   -1.7332   -1.5817    1.2802 O   0  0  0  0  0  0  0  0  0  0  0  0
   -2.1246    0.4840    0.3929 N   0  0  0  0  0  0  0  0  0  0  0  0
   -2.8370    1.0056   -0.1155 H   0  0  0  0  0  0  0  0  0  0  0  0
   -0.8069    1.1537    0.5128 C   0  0  1  0  0  0  0  0  0  0  0  0
   -1.0038    2.1852    0.8248 H   0  0  0  0  0  0  0  0  0  0  0  0
    0.2091    0.5800    1.5265 C   0  0  0  0  0  0  0  0  0  0  0  0
    0.4180   -0.4739    1.3237 H   0  0  0  0  0  0  0  0  0  0  0  0
    1.1569    1.1143    1.3970 H   0  0  0  0  0  0  0  0  0  0  0  0
   -0.2565    0.7799    2.9758 C   0  0  0  0  0  0  0  0  0  0  0  0
   -0.4105    1.8476    3.1665 H   0  0  0  0  0  0  0  0  0  0  0  0
   -1.2137    0.2708    3.1306 H   0  0  0  0  0  0  0  0  0  0  0  0
    0.7870    0.2200    3.9474 C   0  0  0  0  0  0  0  0  0  0  0  0
    0.9417   -0.8438    3.7335 H   0  0  0  0  0  0  0  0  0  0  0  0
    1.7403    0.7397    3.7996 H   0  0  0  0  0  0  0  0  0  0  0  0
    0.3117    0.3963    5.3864 C   0  0  0  0  0  0  0  0  0  0  0  0
    0.1510    1.4656    5.5874 H   0  0  0  0  0  0  0  0  0  0  0  0
   -0.6589   -0.1069    5.5089 H   0  0  0  0  0  0  0  0  0  0  0  0
    1.3260   -0.1741    6.2989 N   0  3  0  0  0  0  0  0  0  0  0  0
    2.2190    0.3062    6.1731 H   0  0  0  0  0  0  0  0  0  0  0  0
    1.0252   -0.0685    7.2701 H   0  0  0  0  0  0  0  0  0  0  0  0
    1.4534   -1.1681    6.0976 H   0  0  0  0  0  0  0  0  0  0  0  0
   -0.1551    1.2478   -0.8793 C   0  0  0  0  0  0  0  0  0  0  0  0
   -0.1391    2.3217   -1.4606 O   0  0  0  0  0  0  0  0  0  0  0  0
    0.4004    0.1304   -1.4739 N   0  0  0  0  0  0  0  0  0  0  0  0
    0.2613   -0.7611   -1.0038 H   0  0  0  0  0  0  0  0  0  0  0  0
    0.9649    0.1404   -2.8192 C   0  0  0  0  0  0  0  0  0  0  0  0
    1.7728    0.8765   -2.8911 H   0  0  0  0  0  0  0  0  0  0  0  0
    1.3744   -0.8439   -3.0669 H   0  0  0  0  0  0  0  0  0  0  0  0
    0.1955    0.3914   -3.5571 H   0  0  0  0  0  0  0  0  0  0  0  0
  1  2  1  0  0  0  0
  2  3  1  0  0  0  0
  2  4  1  0  0  0  0
  2  5  1  0  0  0  0
  5  6  2  0  0  0  0
  5  7  1  0  0  0  0
  7  8  1  0  0  0  0
  7  9  1  0  0  0  0
  9 10  1  0  0  0  0
  9 11  1  0  0  0  0
  9 27  1  0  0  0  0
 11 12  1  0  0  0  0
 11 13  1  0  0  0  0
 11 14  1  0  0  0  0
 14 15  1  0  0  0  0
 14 16  1  0  0  0  0
 14 17  1  0  0  0  0
 17 18  1  0  0  0  0
 17 19  1  0  0  0  0
 17 20  1  0  0  0  0
 20 21  1  0  0  0  0
 20 22  1  0  0  0  0
 20 23  1  0  0  0  0
 23 24  1  0  0  0  0
 23 25  1  0  0  0  0
 23 26  1  0  0  0  0
 27 28  2  0  0  0  0
 27 29  1  0  0  0  0
 29 30  1  0  0  0  0
 29 31  1  0  0  0  0
 31 32  1  0  0  0  0
 31 33  1  0  0  0  0
 31 34  1  0  0  0  0
M  CHG  1  23   1
M  END
$$$$

  -OEChem-01062216093D

 34 33  0     1  0  0  0  0  0999 V2000
   -4.0923   -2.2945    0.7893 H   0  0  0  0  0  0  0  0  0  0  0  0
   -3.9512   -1.2611    0.4595 C   0  0  0  0  0  0  0  0  0  0  0  0
   -4.6647   -0.6238    0.9873 H   0  0  0  0  0  0  0  0  0  0  0  0
   -4.1501   -1.2071   -0.6138 H   0  0  0  0  0  0  0  0  0  0  0  0
   -2.5334   -0.8058    0.7493 C   0  0  0  0  0  0  0  0  0  0  0  0
   -1.7556   -1.5886    1.2682 O   0  0  0  0  0  0  0  0  0  0  0  0
   -2.1595    0.4775    0.3881 N   0  0  0  0  0  0  0  0  0  0  0  0
   -2.8861    1.0054   -0.0927 H   0  0  0  0  0  0  0  0  0  0  0  0
   -0.8422    1.1528    0.4999 C   0  0  1  0  0  0  0  0  0  0  0  0
   -1.0405    2.1856    0.8066 H   0  0  0  0  0  0  0  0  0  0  0  0
    0.1804    0.5832    1.5087 C   0  0  0  0  0  0  0  0  0  0  0  0
    0.3913   -0.4695    1.3020 H   0  0  0  0  0  0  0  0  0  0  0  0
    1.1263    1.1196    1.3725 H   0  0  0  0  0  0  0  0  0  0  0  0
   -0.2723    0.7798    2.9627 C   0  0  0  0  0  0  0  0  0  0  0  0
   -0.4262    1.8470    3.1570 H   0  0  0  0  0  0  0  0  0  0  0  0
   -1.2264    0.2682    3.1265 H   0  0  0  0  0  0  0  0  0  0  0  0
    0.7836    0.2209    3.9218 C   0  0  0  0  0  0  0  0  0  0  0  0
    0.9384   -0.8419    3.7042 H   0  0  0  0  0  0  0  0  0  0  0  0
    1.7341    0.7426    3.7638 H   0  0  0  0  0  0  0  0  0  0  0  0
    0.3256    0.3921    5.3672 C   0  0  0  0  0  0  0  0  0  0  0  0
    0.1660    1.4607    5.5731 H   0  0  0  0  0  0  0  0  0  0  0  0
   -0.6425   -0.1129    5.5011 H   0  0  0  0  0  0  0  0  0  0  0  0
    1.3530   -0.1780    6.2653 N   0  3  0  0  0  0  0  0  0  0  0  0
    2.2429    0.3055    6.1293 H   0  0  0  0  0  0  0  0  0  0  0  0
    1.0646   -0.0760    7.2406 H   0  0  0  0  0  0  0  0  0  0  0  0
    1.4811   -1.1710    6.0595 H   0  0  0  0  0  0  0  0  0  0  0  0
   -0.1805    1.2379   -0.8876 C   0  0  0  0  0  0  0  0  0  0  0  0
    0.1159    2.3296   -1.3477 O   0  0  0  0  0  0  0  0  0  0  0  0
    0.1025    0.0860   -1.5965 N   0  0  0  0  0  0  0  0  0  0  0  0
   -0.1844   -0.7978   -1.1819 H   0  0  0  0  0  0  0  0  0  0  0  0
    0.7182    0.0879   -2.9188 C   0  0  0  0  0  0  0  0  0  0  0  0
    1.6899    0.5923   -2.8890 H   0  0  0  0  0  0  0  0  0  0  0  0
    0.8733   -0.9382   -3.2668 H   0  0  0  0  0  0  0  0  0  0  0  0
    0.0763    0.6048   -3.6402 H   0  0  0  0  0  0  0  0  0  0  0  0
  1  2  1  0  0  0  0
  2  3  1  0  0  0  0
  2  4  1  0  0  0  0
  2  5  1  0  0  0  0
  5  6  2  0  0  0  0
  5  7  1  0  0  0  0
  7  8  1  0  0  0  0
  7  9  1  0  0  0  0
  9 10  1  0  0  0  0
  9 11  1  0  0  0  0
  9 27  1  0  0  0  0
 11 12  1  0  0  0  0
 11 13  1  0  0  0  0
 11 14  1  0  0  0  0
 14 15  1  0  0  0  0
 14 16  1  0  0  0  0
 14 17  1  0  0  0  0
 17 18  1  0  0  0  0
 17 19  1  0  0  0  0
 17 20  1  0  0  0  0
 20 21  1  0  0  0  0
 20 22  1  0  0  0  0
 20 23  1  0  0  0  0
 23 24  1  0  0  0  0
 23 25  1  0  0  0  0
 23 26  1  0  0  0  0
 27 28  2  0  0  0  0
 27 29  1  0  0  0  0
 29 30  1  0  0  0  0
 29 31  1  0  0  0  0
 31 32  1  0  0  0  0
 31 33  1  0  0  0  0
 31 34  1  0  0  0  0
M  CHG  1  23   1
M  END
$$$$

  -OEChem-01062216093D

 34 33  0     1  0  0  0  0  0999 V2000
   -4.1250   -2.2934    0.8495 H   0  0  0  0  0  0  0  0  0  0  0  0
   -3.9872   -1.2628    0.5099 C   0  0  0  0  0  0  0  0  0  0  0  0
   -4.6877   -0.6203    1.0489 H   0  0  0  0  0  0  0  0  0  0  0  0
   -4.2087   -1.2160   -0.5594 H   0  0  0  0  0  0  0  0  0  0  0  0
   -2.5620   -0.8112    0.7676 C   0  0  0  0  0  0  0  0  0  0  0  0
   -1.7784   -1.5952    1.2741 O   0  0  0  0  0  0  0  0  0  0  0  0
   -2.1908    0.4693    0.3932 N   0  0  0  0  0  0  0  0  0  0  0  0
   -2.9276    0.9982   -0.0702 H   0  0  0  0  0  0  0  0  0  0  0  0
   -0.8738    1.1515    0.4900 C   0  0  1  0  0  0  0  0  0  0  0  0
   -1.0727    2.1847    0.7947 H   0  0  0  0  0  0  0  0  0  0  0  0
    0.1557    0.5826    1.4915 C   0  0  0  0  0  0  0  0  0  0  0  0
    0.3660   -0.4698    1.2808 H   0  0  0  0  0  0  0  0  0  0  0  0
    1.1007    1.1196    1.3498 H   0  0  0  0  0  0  0  0  0  0  0  0
   -0.2854    0.7787    2.9488 C   0  0  0  0  0  0  0  0  0  0  0  0
   -0.4377    1.8458    3.1441 H   0  0  0  0  0  0  0  0  0  0  0  0
   -1.2380    0.2675    3.1211 H   0  0  0  0  0  0  0  0  0  0  0  0
    0.7790    0.2193    3.8979 C   0  0  0  0  0  0  0  0  0  0  0  0
    0.9319   -0.8435    3.6777 H   0  0  0  0  0  0  0  0  0  0  0  0
    1.7278    0.7411    3.7315 H   0  0  0  0  0  0  0  0  0  0  0  0
    0.3333    0.3896    5.3468 C   0  0  0  0  0  0  0  0  0  0  0  0
    0.1753    1.4582    5.5544 H   0  0  0  0  0  0  0  0  0  0  0  0
   -0.6334   -0.1158    5.4887 H   0  0  0  0  0  0  0  0  0  0  0  0
    1.3691   -0.1811    6.2345 N   0  3  0  0  0  0  0  0  0  0  0  0
    2.2579    0.3014    6.0893 H   0  0  0  0  0  0  0  0  0  0  0  0
    1.0907   -0.0786    7.2125 H   0  0  0  0  0  0  0  0  0  0  0  0
    1.4944   -1.1741    6.0272 H   0  0  0  0  0  0  0  0  0  0  0  0
   -0.2052    1.2360   -0.8950 C   0  0  0  0  0  0  0  0  0  0  0  0
    0.3408    2.2746   -1.2344 O   0  0  0  0  0  0  0  0  0  0  0  0
   -0.1859    0.1376   -1.7335 N   0  0  0  0  0  0  0  0  0  0  0  0
   -0.5924   -0.7247   -1.3786 H   0  0  0  0  0  0  0  0  0  0  0  0
    0.4678    0.1342   -3.0376 C   0  0  0  0  0  0  0  0  0  0  0  0
    1.5343    0.3611   -2.9339 H   0  0  0  0  0  0  0  0  0  0  0  0
    0.3684   -0.8482   -3.5095 H   0  0  0  0  0  0  0  0  0  0  0  0
    0.0130    0.8813   -3.6968 H   0  0  0  0  0  0  0  0  0  0  0  0
  1  2  1  0  0  0  0
  2  3  1  0  0  0  0
  2  4  1  0  0  0  0
  2  5  1  0  0  0  0
  5  6  2  0  0  0  0
  5  7  1  0  0  0  0
  7  8  1  0  0  0  0
  7  9  1  0  0  0  0
  9 10  1  0  0  0  0
  9 11  1  0  0  0  0
  9 27  1  0  0  0  0
 11 12  1  0  0  0  0
 11 13  1  0  0  0  0
 11 14  1  0  0  0  0
 14 15  1  0  0  0  0
 14 16  1  0  0  0  0
 14 17  1  0  0  0  0
 17 18  1  0  0  0  0
 17 19  1  0  0  0  0
 17 20  1  0  0  0  0
 20 21  1  0  0  0  0
 20 22  1  0  0  0  0
 20 23  1  0  0  0  0
 23 24  1  0  0  0  0
 23 25  1  0  0  0  0
 23 26  1  0  0  0  0
 27 28  2  0  0  0  0
 27 29  1  0  0  0  0
 29 30  1  0  0  0  0
 29 31  1  0  0  0  0
 31 32  1  0  0  0  0
 31 33  1  0  0  0  0
 31 34  1  0  0  0  0
M  CHG  1  23   1
M  END
$$$$

  -OEChem-01062216093D

 34 33  0     1  0  0  0  0  0999 V2000
   -4.1544   -2.2994    0.8689 H   0  0  0  0  0  0  0  0  0  0  0  0
   -4.0165   -1.2684    0.5297 C   0  0  0  0  0  0  0  0  0  0  0  0
   -4.7158   -0.6254    1.0698 H   0  0  0  0  0  0  0  0  0  0  0  0
   -4.2401   -1.2200   -0.5390 H   0  0  0  0  0  0  0  0  0  0  0  0
   -2.5905   -0.8171    0.7855 C   0  0  0  0  0  0  0  0  0  0  0  0
   -1.8106   -1.5958    1.3052 O   0  0  0  0  0  0  0  0  0  0  0  0
   -2.2203    0.4611    0.4009 N   0  0  0  0  0  0  0  0  0  0  0  0
   -2.9630    0.9895   -0.0533 H   0  0  0  0  0  0  0  0  0  0  0  0
   -0.9035    1.1483    0.4856 C   0  0  1  0  0  0  0  0  0  0  0  0
   -1.1037    2.1820    0.7866 H   0  0  0  0  0  0  0  0  0  0  0  0
    0.1286    0.5825    1.4876 C   0  0  0  0  0  0  0  0  0  0  0  0
    0.3360   -0.4706    1.2776 H   0  0  0  0  0  0  0  0  0  0  0  0
    1.0746    1.1164    1.3423 H   0  0  0  0  0  0  0  0  0  0  0  0
   -0.3010    0.7814    2.9474 C   0  0  0  0  0  0  0  0  0  0  0  0
   -0.4497    1.8493    3.1428 H   0  0  0  0  0  0  0  0  0  0  0  0
   -1.2523    0.2708    3.1294 H   0  0  0  0  0  0  0  0  0  0  0  0
    0.7739    0.2213    3.8850 C   0  0  0  0  0  0  0  0  0  0  0  0
    0.9244   -0.8414    3.6629 H   0  0  0  0  0  0  0  0  0  0  0  0
    1.7212    0.7429    3.7082 H   0  0  0  0  0  0  0  0  0  0  0  0
    0.3474    0.3905    5.3393 C   0  0  0  0  0  0  0  0  0  0  0  0
    0.1932    1.4588    5.5500 H   0  0  0  0  0  0  0  0  0  0  0  0
   -0.6175   -0.1149    5.4934 H   0  0  0  0  0  0  0  0  0  0  0  0
    1.3958   -0.1823    6.2109 N   0  3  0  0  0  0  0  0  0  0  0  0
    2.2837    0.2973    6.0501 H   0  0  0  0  0  0  0  0  0  0  0  0
    1.1340   -0.0778    7.1932 H   0  0  0  0  0  0  0  0  0  0  0  0
    1.5145   -1.1760    6.0026 H   0  0  0  0  0  0  0  0  0  0  0  0
   -0.2248    1.2352   -0.8969 C   0  0  0  0  0  0  0  0  0  0  0  0
    0.5283    2.1683   -1.1327 O   0  0  0  0  0  0  0  0  0  0  0  0
   -0.4436    0.2683   -1.8602 N   0  0  0  0  0  0  0  0  0  0  0  0
   -0.9801   -0.5482   -1.5795 H   0  0  0  0  0  0  0  0  0  0  0  0
    0.2222    0.2680   -3.1582 C   0  0  0  0  0  0  0  0  0  0  0  0
    1.3085    0.2070   -3.0330 H   0  0  0  0  0  0  0  0  0  0  0  0
   -0.1065   -0.5897   -3.7531 H   0  0  0  0  0  0  0  0  0  0  0  0
   -0.0165    1.1826   -3.7117 H   0  0  0  0  0  0  0  0  0  0  0  0
  1  2  1  0  0  0  0
  2  3  1  0  0  0  0
  2  4  1  0  0  0  0
  2  5  1  0  0  0  0
  5  6  2  0  0  0  0
  5  7  1  0  0  0  0
  7  8  1  0  0  0  0
  7  9  1  0  0  0  0
  9 10  1  0  0  0  0
  9 11  1  0  0  0  0
  9 27  1  0  0  0  0
 11 12  1  0  0  0  0
 11 13  1  0  0  0  0
 11 14  1  0  0  0  0
 14 15  1  0  0  0  0
 14 16  1  0  0  0  0
 14 17  1  0  0  0  0
 17 18  1  0  0  0  0
 17 19  1  0  0  0  0
 17 20  1  0  0  0  0
 20 21  1  0  0  0  0
 20 22  1  0  0  0  0
 20 23  1  0  0  0  0
 23 24  1  0  0  0  0
 23 25  1  0  0  0  0
 23 26  1  0  0  0  0
 27 28  2  0  0  0  0
 27 29  1  0  0  0  0
 29 30  1  0  0  0  0
 29 31  1  0  0  0  0
 31 32  1  0  0  0  0
 31 33  1  0  0  0  0
 31 34  1  0  0  0  0
M  CHG  1  23   1
M  END
$$$$

  -OEChem-01062216093D

 34 33  0     1  0  0  0  0  0999 V2000
   -4.1508   -2.3034    0.9031 H   0  0  0  0  0  0  0  0  0  0  0  0
   -4.0164   -1.2741    0.5576 C   0  0  0  0  0  0  0  0  0  0  0  0
   -4.7110   -0.6285    1.1008 H   0  0  0  0  0  0  0  0  0  0  0  0
   -4.2495   -1.2309   -0.5092 H   0  0  0  0  0  0  0  0  0  0  0  0
   -2.5881   -0.8226    0.7976 C   0  0  0  0  0  0  0  0  0  0  0  0
   -1.8097   -1.5975    1.3244 O   0  0  0  0  0  0  0  0  0  0  0  0
   -2.2229    0.4553    0.4044 N   0  0  0  0  0  0  0  0  0  0  0  0
   -2.9732    0.9842   -0.0363 H   0  0  0  0  0  0  0  0  0  0  0  0
   -0.9080    1.1496    0.4798 C   0  0  1  0  0  0  0  0  0  0  0  0
   -1.1091    2.1839    0.7774 H   0  0  0  0  0  0  0  0  0  0  0  0
    0.1208    0.5827    1.4869 C   0  0  0  0  0  0  0  0  0  0  0  0
    0.3288   -0.4701    1.2766 H   0  0  0  0  0  0  0  0  0  0  0  0
    1.0687    1.1142    1.3469 H   0  0  0  0  0  0  0  0  0  0  0  0
   -0.3096    0.7846    2.9467 C   0  0  0  0  0  0  0  0  0  0  0  0
   -0.4537    1.8528    3.1418 H   0  0  0  0  0  0  0  0  0  0  0  0
   -1.2626    0.2776    3.1298 H   0  0  0  0  0  0  0  0  0  0  0  0
    0.7650    0.2216    3.8821 C   0  0  0  0  0  0  0  0  0  0  0  0
    0.9131   -0.8411    3.6582 H   0  0  0  0  0  0  0  0  0  0  0  0
    1.7121    0.7422    3.7027 H   0  0  0  0  0  0  0  0  0  0  0  0
    0.3450    0.3898    5.3381 C   0  0  0  0  0  0  0  0  0  0  0  0
    0.1937    1.4579    5.5522 H   0  0  0  0  0  0  0  0  0  0  0  0
   -0.6199   -0.1143    5.4966 H   0  0  0  0  0  0  0  0  0  0  0  0
    1.3970   -0.1875    6.2020 N   0  3  0  0  0  0  0  0  0  0  0  0
    2.2853    0.2890    6.0350 H   0  0  0  0  0  0  0  0  0  0  0  0
    1.1426   -0.0830    7.1863 H   0  0  0  0  0  0  0  0  0  0  0  0
    1.5107   -1.1814    5.9917 H   0  0  0  0  0  0  0  0  0  0  0  0
   -0.2282    1.2353   -0.9058 C   0  0  0  0  0  0  0  0  0  0  0  0
    0.6797    2.0359   -1.0762 O   0  0  0  0  0  0  0  0  0  0  0  0
   -0.6576    0.4591   -1.9668 N   0  0  0  0  0  0  0  0  0  0  0  0
   -1.3199   -0.2811   -1.7544 H   0  0  0  0  0  0  0  0  0  0  0  0
   -0.0262    0.4846   -3.2821 C   0  0  0  0  0  0  0  0  0  0  0  0
    1.0216    0.1740   -3.2114 H   0  0  0  0  0  0  0  0  0  0  0  0
   -0.5438   -0.1954   -3.9659 H   0  0  0  0  0  0  0  0  0  0  0  0
   -0.0655    1.4935   -3.7069 H   0  0  0  0  0  0  0  0  0  0  0  0
  1  2  1  0  0  0  0
  2  3  1  0  0  0  0
  2  4  1  0  0  0  0
  2  5  1  0  0  0  0
  5  6  2  0  0  0  0
  5  7  1  0  0  0  0
  7  8  1  0  0  0  0
  7  9  1  0  0  0  0
  9 10  1  0  0  0  0
  9 11  1  0  0  0  0
  9 27  1  0  0  0  0
 11 12  1  0  0  0  0
 11 13  1  0  0  0  0
 11 14  1  0  0  0  0
 14 15  1  0  0  0  0
 14 16  1  0  0  0  0
 14 17  1  0  0  0  0
 17 18  1  0  0  0  0
 17 19  1  0  0  0  0
 17 20  1  0  0  0  0
 20 21  1  0  0  0  0
 20 22  1  0  0  0  0
 20 23  1  0  0  0  0
 23 24  1  0  0  0  0
 23 25  1  0  0  0  0
 23 26  1  0  0  0  0
 27 28  2  0  0  0  0
 27 29  1  0  0  0  0
 29 30  1  0  0  0  0
 29 31  1  0  0  0  0
 31 32  1  0  0  0  0
 31 33  1  0  0  0  0
 31 34  1  0  0  0  0
M  CHG  1  23   1
M  END
$$$$

  -OEChem-01062216093D

 34 33  0     1  0  0  0  0  0999 V2000
   -4.1417   -2.3092    0.9254 H   0  0  0  0  0  0  0  0  0  0  0  0
   -4.0095   -1.2820    0.5728 C   0  0  0  0  0  0  0  0  0  0  0  0
   -4.6987   -0.6332    1.1186 H   0  0  0  0  0  0  0  0  0  0  0  0
   -4.2519   -1.2455   -0.4922 H   0  0  0  0  0  0  0  0  0  0  0  0
   -2.5784   -0.8305    0.7988 C   0  0  0  0  0  0  0  0  0  0  0  0
   -1.8010   -1.6032    1.3302 O   0  0  0  0  0  0  0  0  0  0  0  0
   -2.2180    0.4497    0.4057 N   0  0  0  0  0  0  0  0  0  0  0  0
   -2.9802    0.9870   -0.0027 H   0  0  0  0  0  0  0  0  0  0  0  0
   -0.9036    1.1486    0.4741 C   0  0  1  0  0  0  0  0  0  0  0  0
   -1.1050    2.1827    0.7714 H   0  0  0  0  0  0  0  0  0  0  0  0
    0.1226    0.5797    1.4859 C   0  0  0  0  0  0  0  0  0  0  0  0
    0.3308   -0.4730    1.2763 H   0  0  0  0  0  0  0  0  0  0  0  0
    1.0731    1.1082    1.3542 H   0  0  0  0  0  0  0  0  0  0  0  0
   -0.3102    0.7851    2.9441 C   0  0  0  0  0  0  0  0  0  0  0  0
   -0.4528    1.8538    3.1377 H   0  0  0  0  0  0  0  0  0  0  0  0
   -1.2642    0.2801    3.1263 H   0  0  0  0  0  0  0  0  0  0  0  0
    0.7621    0.2198    3.8809 C   0  0  0  0  0  0  0  0  0  0  0  0
    0.9061   -0.8438    3.6581 H   0  0  0  0  0  0  0  0  0  0  0  0
    1.7118    0.7364    3.7017 H   0  0  0  0  0  0  0  0  0  0  0  0
    0.3408    0.3907    5.3361 C   0  0  0  0  0  0  0  0  0  0  0  0
    0.1921    1.4595    5.5490 H   0  0  0  0  0  0  0  0  0  0  0  0
   -0.6257   -0.1107    5.4932 H   0  0  0  0  0  0  0  0  0  0  0  0
    1.3905   -0.1888    6.2011 N   0  3  0  0  0  0  0  0  0  0  0  0
    2.2785    0.2902    6.0398 H   0  0  0  0  0  0  0  0  0  0  0  0
    1.1321   -0.0898    7.1848 H   0  0  0  0  0  0  0  0  0  0  0  0
    1.5069   -1.1812    5.9859 H   0  0  0  0  0  0  0  0  0  0  0  0
   -0.2306    1.2396   -0.9180 C   0  0  0  0  0  0  0  0  0  0  0  0
    0.8106    1.8683   -1.0459 O   0  0  0  0  0  0  0  0  0  0  0  0
   -0.8351    0.7112   -2.0445 N   0  0  0  0  0  0  0  0  0  0  0  0
   -1.6271    0.0950   -1.8923 H   0  0  0  0  0  0  0  0  0  0  0  0
   -0.2318    0.7665   -3.3726 C   0  0  0  0  0  0  0  0  0  0  0  0
    0.7247    0.2330   -3.3830 H   0  0  0  0  0  0  0  0  0  0  0  0
   -0.8942    0.3044   -4.1113 H   0  0  0  0  0  0  0  0  0  0  0  0
   -0.0566    1.8057   -3.6713 H   0  0  0  0  0  0  0  0  0  0  0  0
  1  2  1  0  0  0  0
  2  3  1  0  0  0  0
  2  4  1  0  0  0  0
  2  5  1  0  0  0  0
  5  6  2  0  0  0  0
  5  7  1  0  0  0  0
  7  8  1  0  0  0  0
  7  9  1  0  0  0  0
  9 10  1  0  0  0  0
  9 11  1  0  0  0  0
  9 27  1  0  0  0  0
 11 12  1  0  0  0  0
 11 13  1  0  0  0  0
 11 14  1  0  0  0  0
 14 15  1  0  0  0  0
 14 16  1  0  0  0  0
 14 17  1  0  0  0  0
 17 18  1  0  0  0  0
 17 19  1  0  0  0  0
 17 20  1  0  0  0  0
 20 21  1  0  0  0  0
 20 22  1  0  0  0  0
 20 23  1  0  0  0  0
 23 24  1  0  0  0  0
 23 25  1  0  0  0  0
 23 26  1  0  0  0  0
 27 28  2  0  0  0  0
 27 29  1  0  0  0  0
 29 30  1  0  0  0  0
 29 31  1  0  0  0  0
 31 32  1  0  0  0  0
 31 33  1  0  0  0  0
 31 34  1  0  0  0  0
M  CHG  1  23   1
M  END
$$$$

  -OEChem-01062216093D

 34 33  0     1  0  0  0  0  0999 V2000
   -4.1269   -2.3126    0.9147 H   0  0  0  0  0  0  0  0  0  0  0  0
   -3.9936   -1.2851    0.5634 C   0  0  0  0  0  0  0  0  0  0  0  0
   -4.6834   -0.6366    1.1092 H   0  0  0  0  0  0  0  0  0  0  0  0
   -4.2344   -1.2479   -0.5021 H   0  0  0  0  0  0  0  0  0  0  0  0
   -2.5627   -0.8341    0.7911 C   0  0  0  0  0  0  0  0  0  0  0  0
   -1.7875   -1.6055    1.3278 O   0  0  0  0  0  0  0  0  0  0  0  0
   -2.2068    0.4485    0.4006 N   0  0  0  0  0  0  0  0  0  0  0  0
   -2.9775    0.9896    0.0154 H   0  0  0  0  0  0  0  0  0  0  0  0
   -0.8954    1.1532    0.4700 C   0  0  1  0  0  0  0  0  0  0  0  0
   -1.0984    2.1872    0.7658 H   0  0  0  0  0  0  0  0  0  0  0  0
    0.1250    0.5847    1.4906 C   0  0  0  0  0  0  0  0  0  0  0  0
    0.3374   -0.4672    1.2809 H   0  0  0  0  0  0  0  0  0  0  0  0
    1.0757    1.1148    1.3694 H   0  0  0  0  0  0  0  0  0  0  0  0
   -0.3134    0.7894    2.9474 C   0  0  0  0  0  0  0  0  0  0  0  0
   -0.4572    1.8579    3.1417 H   0  0  0  0  0  0  0  0  0  0  0  0
   -1.2675    0.2835    3.1261 H   0  0  0  0  0  0  0  0  0  0  0  0
    0.7574    0.2223    3.8853 C   0  0  0  0  0  0  0  0  0  0  0  0
    0.9011   -0.8407    3.6598 H   0  0  0  0  0  0  0  0  0  0  0  0
    1.7074    0.7387    3.7078 H   0  0  0  0  0  0  0  0  0  0  0  0
    0.3370    0.3890    5.3410 C   0  0  0  0  0  0  0  0  0  0  0  0
    0.1887    1.4569    5.5580 H   0  0  0  0  0  0  0  0  0  0  0  0
   -0.6290   -0.1135    5.4973 H   0  0  0  0  0  0  0  0  0  0  0  0
    1.3884   -0.1938    6.2019 N   0  3  0  0  0  0  0  0  0  0  0  0
    2.2765    0.2850    6.0404 H   0  0  0  0  0  0  0  0  0  0  0  0
    1.1321   -0.0985    7.1865 H   0  0  0  0  0  0  0  0  0  0  0  0
    1.5039   -1.1857    5.9829 H   0  0  0  0  0  0  0  0  0  0  0  0
   -0.2310    1.2441   -0.9296 C   0  0  0  0  0  0  0  0  0  0  0  0
    0.9106    1.6686   -1.0435 O   0  0  0  0  0  0  0  0  0  0  0  0
   -0.9581    0.9962   -2.0811 N   0  0  0  0  0  0  0  0  0  0  0  0
   -1.8517    0.5299   -1.9667 H   0  0  0  0  0  0  0  0  0  0  0  0
   -0.3833    1.0856   -3.4204 C   0  0  0  0  0  0  0  0  0  0  0  0
    0.4327    0.3646   -3.5373 H   0  0  0  0  0  0  0  0  0  0  0  0
   -1.1450    0.8725   -4.1770 H   0  0  0  0  0  0  0  0  0  0  0  0
    0.0091    2.0918   -3.6035 H   0  0  0  0  0  0  0  0  0  0  0  0
  1  2  1  0  0  0  0
  2  3  1  0  0  0  0
  2  4  1  0  0  0  0
  2  5  1  0  0  0  0
  5  6  2  0  0  0  0
  5  7  1  0  0  0  0
  7  8  1  0  0  0  0
  7  9  1  0  0  0  0
  9 10  1  0  0  0  0
  9 11  1  0  0  0  0
  9 27  1  0  0  0  0
 11 12  1  0  0  0  0
 11 13  1  0  0  0  0
 11 14  1  0  0  0  0
 14 15  1  0  0  0  0
 14 16  1  0  0  0  0
 14 17  1  0  0  0  0
 17 18  1  0  0  0  0
 17 19  1  0  0  0  0
 17 20  1  0  0  0  0
 20 21  1  0  0  0  0
 20 22  1  0  0  0  0
 20 23  1  0  0  0  0
 23 24  1  0  0  0  0
 23 25  1  0  0  0  0
 23 26  1  0  0  0  0
 27 28  2  0  0  0  0
 27 29  1  0  0  0  0
 29 30  1  0  0  0  0
 29 31  1  0  0  0  0
 31 32  1  0  0  0  0
 31 33  1  0  0  0  0
 31 34  1  0  0  0  0
M  CHG  1  23   1
M  END
$$$$

  -OEChem-01062216093D

 34 33  0     1  0  0  0  0  0999 V2000
   -4.1073   -2.3244    0.8836 H   0  0  0  0  0  0  0  0  0  0  0  0
   -3.9772   -1.2942    0.5389 C   0  0  0  0  0  0  0  0  0  0  0  0
   -4.6780   -0.6533    1.0791 H   0  0  0  0  0  0  0  0  0  0  0  0
   -4.2046   -1.2541   -0.5292 H   0  0  0  0  0  0  0  0  0  0  0  0
   -2.5523   -0.8342    0.7848 C   0  0  0  0  0  0  0  0  0  0  0  0
   -1.7841   -1.5990    1.3408 O   0  0  0  0  0  0  0  0  0  0  0  0
   -2.1997    0.4509    0.3977 N   0  0  0  0  0  0  0  0  0  0  0  0
   -2.9734    0.9886    0.0156 H   0  0  0  0  0  0  0  0  0  0  0  0
   -0.8885    1.1565    0.4686 C   0  0  1  0  0  0  0  0  0  0  0  0
   -1.0910    2.1901    0.7649 H   0  0  0  0  0  0  0  0  0  0  0  0
    0.1268    0.5881    1.4957 C   0  0  0  0  0  0  0  0  0  0  0  0
    0.3400   -0.4638    1.2861 H   0  0  0  0  0  0  0  0  0  0  0  0
    1.0781    1.1182    1.3794 H   0  0  0  0  0  0  0  0  0  0  0  0
   -0.3145    0.7942    2.9514 C   0  0  0  0  0  0  0  0  0  0  0  0
   -0.4548    1.8630    3.1452 H   0  0  0  0  0  0  0  0  0  0  0  0
   -1.2702    0.2910    3.1292 H   0  0  0  0  0  0  0  0  0  0  0  0
    0.7549    0.2250    3.8898 C   0  0  0  0  0  0  0  0  0  0  0  0
    0.8992   -0.8378    3.6632 H   0  0  0  0  0  0  0  0  0  0  0  0
    1.7054    0.7411    3.7138 H   0  0  0  0  0  0  0  0  0  0  0  0
    0.3358    0.3904    5.3459 C   0  0  0  0  0  0  0  0  0  0  0  0
    0.1888    1.4581    5.5650 H   0  0  0  0  0  0  0  0  0  0  0  0
   -0.6305   -0.1117    5.5022 H   0  0  0  0  0  0  0  0  0  0  0  0
    1.3886   -0.1957    6.2030 N   0  3  0  0  0  0  0  0  0  0  0  0
    2.2753    0.2870    6.0456 H   0  0  0  0  0  0  0  0  0  0  0  0
    1.1316   -0.1092    7.1883 H   0  0  0  0  0  0  0  0  0  0  0  0
    1.5073   -1.1854    5.9759 H   0  0  0  0  0  0  0  0  0  0  0  0
   -0.2327    1.2476   -0.9380 C   0  0  0  0  0  0  0  0  0  0  0  0
    0.9742    1.4068   -1.0616 O   0  0  0  0  0  0  0  0  0  0  0  0
   -1.0145    1.3072   -2.0793 N   0  0  0  0  0  0  0  0  0  0  0  0
   -1.9951    1.0697   -1.9830 H   0  0  0  0  0  0  0  0  0  0  0  0
   -0.4549    1.4270   -3.4229 C   0  0  0  0  0  0  0  0  0  0  0  0
    0.1736    0.5608   -3.6562 H   0  0  0  0  0  0  0  0  0  0  0  0
   -1.2570    1.4833   -4.1655 H   0  0  0  0  0  0  0  0  0  0  0  0
    0.1535    2.3342   -3.5067 H   0  0  0  0  0  0  0  0  0  0  0  0
  1  2  1  0  0  0  0
  2  3  1  0  0  0  0
  2  4  1  0  0  0  0
  2  5  1  0  0  0  0
  5  6  2  0  0  0  0
  5  7  1  0  0  0  0
  7  8  1  0  0  0  0
  7  9  1  0  0  0  0
  9 10  1  0  0  0  0
  9 11  1  0  0  0  0
  9 27  1  0  0  0  0
 11 12  1  0  0  0  0
 11 13  1  0  0  0  0
 11 14  1  0  0  0  0
 14 15  1  0  0  0  0
 14 16  1  0  0  0  0
 14 17  1  0  0  0  0
 17 18  1  0  0  0  0
 17 19  1  0  0  0  0
 17 20  1  0  0  0  0
 20 21  1  0  0  0  0
 20 22  1  0  0  0  0
 20 23  1  0  0  0  0
 23 24  1  0  0  0  0
 23 25  1  0  0  0  0
 23 26  1  0  0  0  0
 27 28  2  0  0  0  0
 27 29  1  0  0  0  0
 29 30  1  0  0  0  0
 29 31  1  0  0  0  0
 31 32  1  0  0  0  0
 31 33  1  0  0  0  0
 31 34  1  0  0  0  0
M  CHG  1  23   1
M  END
$$$$

  -OEChem-01062216093D

 34 33  0     1  0  0  0  0  0999 V2000
   -4.0896   -2.3474    0.7869 H   0  0  0  0  0  0  0  0  0  0  0  0
   -3.9615   -1.3124    0.4562 C   0  0  0  0  0  0  0  0  0  0  0  0
   -4.7085   -0.6900    0.9547 H   0  0  0  0  0  0  0  0  0  0  0  0
   -4.1229   -1.2706   -0.6239 H   0  0  0  0  0  0  0  0  0  0  0  0
   -2.5650   -0.8232    0.7922 C   0  0  0  0  0  0  0  0  0  0  0  0
   -1.8277   -1.5629    1.4202 O   0  0  0  0  0  0  0  0  0  0  0  0
   -2.2091    0.4621    0.4086 N   0  0  0  0  0  0  0  0  0  0  0  0
   -2.9532    0.9604   -0.0707 H   0  0  0  0  0  0  0  0  0  0  0  0
   -0.8930    1.1565    0.4813 C   0  0  1  0  0  0  0  0  0  0  0  0
   -1.0883    2.1908    0.7798 H   0  0  0  0  0  0  0  0  0  0  0  0
    0.1221    0.5889    1.5083 C   0  0  0  0  0  0  0  0  0  0  0  0
    0.3288   -0.4654    1.3017 H   0  0  0  0  0  0  0  0  0  0  0  0
    1.0735    1.1170    1.3819 H   0  0  0  0  0  0  0  0  0  0  0  0
   -0.3108    0.8004    2.9663 C   0  0  0  0  0  0  0  0  0  0  0  0
   -0.4459    1.8701    3.1594 H   0  0  0  0  0  0  0  0  0  0  0  0
   -1.2675    0.3024    3.1525 H   0  0  0  0  0  0  0  0  0  0  0  0
    0.7630    0.2289    3.8983 C   0  0  0  0  0  0  0  0  0  0  0  0
    0.9005   -0.8351    3.6729 H   0  0  0  0  0  0  0  0  0  0  0  0
    1.7145    0.7399    3.7138 H   0  0  0  0  0  0  0  0  0  0  0  0
    0.3547    0.3986    5.3571 C   0  0  0  0  0  0  0  0  0  0  0  0
    0.2126    1.4672    5.5742 H   0  0  0  0  0  0  0  0  0  0  0  0
   -0.6123   -0.0996    5.5208 H   0  0  0  0  0  0  0  0  0  0  0  0
    1.4096   -0.1891    6.2103 N   0  3  0  0  0  0  0  0  0  0  0  0
    2.2973    0.2893    6.0463 H   0  0  0  0  0  0  0  0  0  0  0  0
    1.1585   -0.0982    7.1965 H   0  0  0  0  0  0  0  0  0  0  0  0
    1.5228   -1.1801    5.9859 H   0  0  0  0  0  0  0  0  0  0  0  0
   -0.2503    1.2418   -0.9323 C   0  0  0  0  0  0  0  0  0  0  0  0
    0.9463    1.0515   -1.1038 O   0  0  0  0  0  0  0  0  0  0  0  0
   -1.0083    1.6180   -2.0292 N   0  0  0  0  0  0  0  0  0  0  0  0
   -1.9958    1.7988   -1.8902 H   0  0  0  0  0  0  0  0  0  0  0  0
   -0.4546    1.7514   -3.3744 C   0  0  0  0  0  0  0  0  0  0  0  0
   -0.0397    0.7966   -3.7153 H   0  0  0  0  0  0  0  0  0  0  0  0
   -1.2331    2.0597   -4.0790 H   0  0  0  0  0  0  0  0  0  0  0  0
    0.3409    2.5045   -3.3895 H   0  0  0  0  0  0  0  0  0  0  0  0
  1  2  1  0  0  0  0
  2  3  1  0  0  0  0
  2  4  1  0  0  0  0
  2  5  1  0  0  0  0
  5  6  2  0  0  0  0
  5  7  1  0  0  0  0
  7  8  1  0  0  0  0
  7  9  1  0  0  0  0
  9 10  1  0  0  0  0
  9 11  1  0  0  0  0
  9 27  1  0  0  0  0
 11 12  1  0  0  0  0
 11 13  1  0  0  0  0
 11 14  1  0  0  0  0
 14 15  1  0  0  0  0
 14 16  1  0  0  0  0
 14 17  1  0  0  0  0
 17 18  1  0  0  0  0
 17 19  1  0  0  0  0
 17 20  1  0  0  0  0
 20 21  1  0  0  0  0
 20 22  1  0  0  0  0
 20 23  1  0  0  0  0
 23 24  1  0  0  0  0
 23 25  1  0  0  0  0
 23 26  1  0  0  0  0
 27 28  2  0  0  0  0
 27 29  1  0  0  0  0
 29 30  1  0  0  0  0
 29 31  1  0  0  0  0
 31 32  1  0  0  0  0
 31 33  1  0  0  0  0
 31 34  1  0  0  0  0
M  CHG  1  23   1
M  END
$$$$

  -OEChem-01062216093D

 34 33  0     1  0  0  0  0  0999 V2000
   -4.0711   -2.3536    0.7103 H   0  0  0  0  0  0  0  0  0  0  0  0
   -3.9404   -1.3201    0.3763 C   0  0  0  0  0  0  0  0  0  0  0  0
   -4.7322   -0.7076    0.8144 H   0  0  0  0  0  0  0  0  0  0  0  0
   -4.0268   -1.2935   -0.7129 H   0  0  0  0  0  0  0  0  0  0  0  0
   -2.5807   -0.7987    0.8037 C   0  0  0  0  0  0  0  0  0  0  0  0
   -1.8820   -1.5105    1.5050 O   0  0  0  0  0  0  0  0  0  0  0  0
   -2.2208    0.4858    0.4200 N   0  0  0  0  0  0  0  0  0  0  0  0
   -2.9141    0.9286   -0.1765 H   0  0  0  0  0  0  0  0  0  0  0  0
   -0.8991    1.1668    0.4952 C   0  0  1  0  0  0  0  0  0  0  0  0
   -1.0846    2.2020    0.7965 H   0  0  0  0  0  0  0  0  0  0  0  0
    0.1186    0.5953    1.5151 C   0  0  0  0  0  0  0  0  0  0  0  0
    0.3111   -0.4623    1.3099 H   0  0  0  0  0  0  0  0  0  0  0  0
    1.0731    1.1143    1.3725 H   0  0  0  0  0  0  0  0  0  0  0  0
   -0.3036    0.8081    2.9766 C   0  0  0  0  0  0  0  0  0  0  0  0
   -0.4304    1.8785    3.1696 H   0  0  0  0  0  0  0  0  0  0  0  0
   -1.2624    0.3186    3.1715 H   0  0  0  0  0  0  0  0  0  0  0  0
    0.7722    0.2316    3.9026 C   0  0  0  0  0  0  0  0  0  0  0  0
    0.9008   -0.8338    3.6778 H   0  0  0  0  0  0  0  0  0  0  0  0
    1.7262    0.7364    3.7131 H   0  0  0  0  0  0  0  0  0  0  0  0
    0.3696    0.4049    5.3627 C   0  0  0  0  0  0  0  0  0  0  0  0
    0.2349    1.4746    5.5793 H   0  0  0  0  0  0  0  0  0  0  0  0
   -0.6002   -0.0865    5.5304 H   0  0  0  0  0  0  0  0  0  0  0  0
    1.4245   -0.1874    6.2126 N   0  3  0  0  0  0  0  0  0  0  0  0
    2.3167    0.2782    6.0368 H   0  0  0  0  0  0  0  0  0  0  0  0
    1.1824   -0.0847    7.2000 H   0  0  0  0  0  0  0  0  0  0  0  0
    1.5230   -1.1818    5.9961 H   0  0  0  0  0  0  0  0  0  0  0  0
   -0.2676    1.2418   -0.9204 C   0  0  0  0  0  0  0  0  0  0  0  0
    0.8254    0.7500   -1.1649 O   0  0  0  0  0  0  0  0  0  0  0  0
   -0.9288    1.9109   -1.9367 N   0  0  0  0  0  0  0  0  0  0  0  0
   -1.7920    2.3933   -1.7098 H   0  0  0  0  0  0  0  0  0  0  0  0
   -0.3830    2.0500   -3.2844 C   0  0  0  0  0  0  0  0  0  0  0  0
   -0.1988    1.0652   -3.7273 H   0  0  0  0  0  0  0  0  0  0  0  0
   -1.0863    2.5890   -3.9267 H   0  0  0  0  0  0  0  0  0  0  0  0
    0.5606    2.6058   -3.2625 H   0  0  0  0  0  0  0  0  0  0  0  0
  1  2  1  0  0  0  0
  2  3  1  0  0  0  0
  2  4  1  0  0  0  0
  2  5  1  0  0  0  0
  5  6  2  0  0  0  0
  5  7  1  0  0  0  0
  7  8  1  0  0  0  0
  7  9  1  0  0  0  0
  9 10  1  0  0  0  0
  9 11  1  0  0  0  0
  9 27  1  0  0  0  0
 11 12  1  0  0  0  0
 11 13  1  0  0  0  0
 11 14  1  0  0  0  0
 14 15  1  0  0  0  0
 14 16  1  0  0  0  0
 14 17  1  0  0  0  0
 17 18  1  0  0  0  0
 17 19  1  0  0  0  0
 17 20  1  0  0  0  0
 20 21  1  0  0  0  0
 20 22  1  0  0  0  0
 20 23  1  0  0  0  0
 23 24  1  0  0  0  0
 23 25  1  0  0  0  0
 23 26  1  0  0  0  0
 27 28  2  0  0  0  0
 27 29  1  0  0  0  0
 29 30  1  0  0  0  0
 29 31  1  0  0  0  0
 31 32  1  0  0  0  0
 31 33  1  0  0  0  0
 31 34  1  0  0  0  0
M  CHG  1  23   1
M  END
$$$$

  -OEChem-01062216093D

 34 33  0     1  0  0  0  0  0999 V2000
   -4.0556   -2.3555    0.6799 H   0  0  0  0  0  0  0  0  0  0  0  0
   -3.9307   -1.3206    0.3478 C   0  0  0  0  0  0  0  0  0  0  0  0
   -4.7424   -0.7183    0.7627 H   0  0  0  0  0  0  0  0  0  0  0  0
   -3.9874   -1.2967   -0.7432 H   0  0  0  0  0  0  0  0  0  0  0  0
   -2.5903   -0.7800    0.8106 C   0  0  0  0  0  0  0  0  0  0  0  0
   -1.9075   -1.4774    1.5418 O   0  0  0  0  0  0  0  0  0  0  0  0
   -2.2319    0.5043    0.4243 N   0  0  0  0  0  0  0  0  0  0  0  0
   -2.9064    0.9266   -0.2083 H   0  0  0  0  0  0  0  0  0  0  0  0
   -0.9112    1.1851    0.5023 C   0  0  1  0  0  0  0  0  0  0  0  0
   -1.0962    2.2192    0.8075 H   0  0  0  0  0  0  0  0  0  0  0  0
    0.1107    0.6116    1.5147 C   0  0  0  0  0  0  0  0  0  0  0  0
    0.2983   -0.4464    1.3062 H   0  0  0  0  0  0  0  0  0  0  0  0
    1.0650    1.1285    1.3635 H   0  0  0  0  0  0  0  0  0  0  0  0
   -0.3056    0.8157    2.9797 C   0  0  0  0  0  0  0  0  0  0  0  0
   -0.4319    1.8854    3.1782 H   0  0  0  0  0  0  0  0  0  0  0  0
   -1.2636    0.3267    3.1786 H   0  0  0  0  0  0  0  0  0  0  0  0
    0.7749    0.2366    3.8982 C   0  0  0  0  0  0  0  0  0  0  0  0
    0.9042   -0.8272    3.6675 H   0  0  0  0  0  0  0  0  0  0  0  0
    1.7274    0.7436    3.7078 H   0  0  0  0  0  0  0  0  0  0  0  0
    0.3766    0.4019    5.3601 C   0  0  0  0  0  0  0  0  0  0  0  0
    0.2399    1.4701    5.5828 H   0  0  0  0  0  0  0  0  0  0  0  0
   -0.5916   -0.0931    5.5277 H   0  0  0  0  0  0  0  0  0  0  0  0
    1.4351   -0.1925    6.2040 N   0  3  0  0  0  0  0  0  0  0  0  0
    2.3247    0.2801    6.0334 H   0  0  0  0  0  0  0  0  0  0  0  0
    1.1921   -0.1017    7.1924 H   0  0  0  0  0  0  0  0  0  0  0  0
    1.5395   -1.1841    5.9773 H   0  0  0  0  0  0  0  0  0  0  0  0
   -0.2789    1.2552   -0.9103 C   0  0  0  0  0  0  0  0  0  0  0  0
    0.6658    0.5452   -1.2248 O   0  0  0  0  0  0  0  0  0  0  0  0
   -0.7627    2.1632   -1.8364 N   0  0  0  0  0  0  0  0  0  0  0  0
   -1.5102    2.7880   -1.5509 H   0  0  0  0  0  0  0  0  0  0  0  0
   -0.1999    2.3101   -3.1761 C   0  0  0  0  0  0  0  0  0  0  0  0
   -0.2652    1.3650   -3.7258 H   0  0  0  0  0  0  0  0  0  0  0  0
   -0.7478    3.0730   -3.7377 H   0  0  0  0  0  0  0  0  0  0  0  0
    0.8518    2.6113   -3.1210 H   0  0  0  0  0  0  0  0  0  0  0  0
  1  2  1  0  0  0  0
  2  3  1  0  0  0  0
  2  4  1  0  0  0  0
  2  5  1  0  0  0  0
  5  6  2  0  0  0  0
  5  7  1  0  0  0  0
  7  8  1  0  0  0  0
  7  9  1  0  0  0  0
  9 10  1  0  0  0  0
  9 11  1  0  0  0  0
  9 27  1  0  0  0  0
 11 12  1  0  0  0  0
 11 13  1  0  0  0  0
 11 14  1  0  0  0  0
 14 15  1  0  0  0  0
 14 16  1  0  0  0  0
 14 17  1  0  0  0  0
 17 18  1  0  0  0  0
 17 19  1  0  0  0  0
 17 20  1  0  0  0  0
 20 21  1  0  0  0  0
 20 22  1  0  0  0  0
 20 23  1  0  0  0  0
 23 24  1  0  0  0  0
 23 25  1  0  0  0  0
 23 26  1  0  0  0  0
 27 28  2  0  0  0  0
 27 29  1  0  0  0  0
 29 30  1  0  0  0  0
 29 31  1  0  0  0  0
 31 32  1  0  0  0  0
 31 33  1  0  0  0  0
 31 34  1  0  0  0  0
M  CHG  1  23   1
M  END
$$$$

  -OEChem-01062216093D

 34 33  0     1  0  0  0  0  0999 V2000
   -4.0414   -2.3547    0.6516 H   0  0  0  0  0  0  0  0  0  0  0  0
   -3.9201   -1.3188    0.3214 C   0  0  0  0  0  0  0  0  0  0  0  0
   -4.7474   -0.7251    0.7173 H   0  0  0  0  0  0  0  0  0  0  0  0
   -3.9521   -1.2964   -0.7708 H   0  0  0  0  0  0  0  0  0  0  0  0
   -2.5962   -0.7635    0.8136 C   0  0  0  0  0  0  0  0  0  0  0  0
   -1.9250   -1.4508    1.5654 O   0  0  0  0  0  0  0  0  0  0  0  0
   -2.2414    0.5222    0.4288 N   0  0  0  0  0  0  0  0  0  0  0  0
   -2.9028    0.9312   -0.2264 H   0  0  0  0  0  0  0  0  0  0  0  0
   -0.9228    1.2040    0.5118 C   0  0  1  0  0  0  0  0  0  0  0  0
   -1.1112    2.2351    0.8239 H   0  0  0  0  0  0  0  0  0  0  0  0
    0.1051    0.6293    1.5154 C   0  0  0  0  0  0  0  0  0  0  0  0
    0.2916   -0.4280    1.3008 H   0  0  0  0  0  0  0  0  0  0  0  0
    1.0579    1.1479    1.3601 H   0  0  0  0  0  0  0  0  0  0  0  0
   -0.3069    0.8218    2.9839 C   0  0  0  0  0  0  0  0  0  0  0  0
   -0.4366    1.8896    3.1897 H   0  0  0  0  0  0  0  0  0  0  0  0
   -1.2623    0.3291    3.1852 H   0  0  0  0  0  0  0  0  0  0  0  0
    0.7790    0.2421    3.8956 C   0  0  0  0  0  0  0  0  0  0  0  0
    0.9120   -0.8198    3.6582 H   0  0  0  0  0  0  0  0  0  0  0  0
    1.7288    0.7541    3.7057 H   0  0  0  0  0  0  0  0  0  0  0  0
    0.3834    0.3968    5.3596 C   0  0  0  0  0  0  0  0  0  0  0  0
    0.2422    1.4630    5.5890 H   0  0  0  0  0  0  0  0  0  0  0  0
   -0.5821   -0.1038    5.5262 H   0  0  0  0  0  0  0  0  0  0  0  0
    1.4460   -0.1974    6.1987 N   0  3  0  0  0  0  0  0  0  0  0  0
    2.3326    0.2820    6.0322 H   0  0  0  0  0  0  0  0  0  0  0  0
    1.2023   -0.1161    7.1877 H   0  0  0  0  0  0  0  0  0  0  0  0
    1.5564   -1.1866    5.9642 H   0  0  0  0  0  0  0  0  0  0  0  0
   -0.2859    1.2767   -0.8965 C   0  0  0  0  0  0  0  0  0  0  0  0
    0.4537    0.3911   -1.3004 O   0  0  0  0  0  0  0  0  0  0  0  0
   -0.5337    2.3640   -1.7162 N   0  0  0  0  0  0  0  0  0  0  0  0
   -1.1382    3.1018   -1.3674 H   0  0  0  0  0  0  0  0  0  0  0  0
    0.0416    2.5015   -3.0515 C   0  0  0  0  0  0  0  0  0  0  0  0
   -0.2643    1.6654   -3.6896 H   0  0  0  0  0  0  0  0  0  0  0  0
   -0.2965    3.4321   -3.5178 H   0  0  0  0  0  0  0  0  0  0  0  0
    1.1355    2.5199   -2.9990 H   0  0  0  0  0  0  0  0  0  0  0  0
  1  2  1  0  0  0  0
  2  3  1  0  0  0  0
  2  4  1  0  0  0  0
  2  5  1  0  0  0  0
  5  6  2  0  0  0  0
  5  7  1  0  0  0  0
  7  8  1  0  0  0  0
  7  9  1  0  0  0  0
  9 10  1  0  0  0  0
  9 11  1  0  0  0  0
  9 27  1  0  0  0  0
 11 12  1  0  0  0  0
 11 13  1  0  0  0  0
 11 14  1  0  0  0  0
 14 15  1  0  0  0  0
 14 16  1  0  0  0  0
 14 17  1  0  0  0  0
 17 18  1  0  0  0  0
 17 19  1  0  0  0  0
 17 20  1  0  0  0  0
 20 21  1  0  0  0  0
 20 22  1  0  0  0  0
 20 23  1  0  0  0  0
 23 24  1  0  0  0  0
 23 25  1  0  0  0  0
 23 26  1  0  0  0  0
 27 28  2  0  0  0  0
 27 29  1  0  0  0  0
 29 30  1  0  0  0  0
 29 31  1  0  0  0  0
 31 32  1  0  0  0  0
 31 33  1  0  0  0  0
 31 34  1  0  0  0  0
M  CHG  1  23   1
M  END
$$$$

  -OEChem-01062216093D

 34 33  0     1  0  0  0  0  0999 V2000
   -4.0230   -2.3514    0.6312 H   0  0  0  0  0  0  0  0  0  0  0  0
   -3.9047   -1.3149    0.3022 C   0  0  0  0  0  0  0  0  0  0  0  0
   -4.7431   -0.7269    0.6832 H   0  0  0  0  0  0  0  0  0  0  0  0
   -3.9185   -1.2935   -0.7904 H   0  0  0  0  0  0  0  0  0  0  0  0
   -2.5941   -0.7483    0.8157 C   0  0  0  0  0  0  0  0  0  0  0  0
   -1.9304   -1.4294    1.5803 O   0  0  0  0  0  0  0  0  0  0  0  0
   -2.2431    0.5390    0.4333 N   0  0  0  0  0  0  0  0  0  0  0  0
   -2.8923    0.9358   -0.2415 H   0  0  0  0  0  0  0  0  0  0  0  0
   -0.9259    1.2218    0.5208 C   0  0  1  0  0  0  0  0  0  0  0  0
   -1.1199    2.2501    0.8386 H   0  0  0  0  0  0  0  0  0  0  0  0
    0.1071    0.6437    1.5157 C   0  0  0  0  0  0  0  0  0  0  0  0
    0.2928   -0.4122    1.2927 H   0  0  0  0  0  0  0  0  0  0  0  0
    1.0585    1.1641    1.3606 H   0  0  0  0  0  0  0  0  0  0  0  0
   -0.3025    0.8247    2.9870 C   0  0  0  0  0  0  0  0  0  0  0  0
   -0.4328    1.8913    3.1987 H   0  0  0  0  0  0  0  0  0  0  0  0
   -1.2574    0.3316    3.1883 H   0  0  0  0  0  0  0  0  0  0  0  0
    0.7849    0.2438    3.8958 C   0  0  0  0  0  0  0  0  0  0  0  0
    0.9226   -0.8164    3.6528 H   0  0  0  0  0  0  0  0  0  0  0  0
    1.7326    0.7614    3.7104 H   0  0  0  0  0  0  0  0  0  0  0  0
    0.3848    0.3903    5.3597 C   0  0  0  0  0  0  0  0  0  0  0  0
    0.2382    1.4547    5.5934 H   0  0  0  0  0  0  0  0  0  0  0  0
   -0.5793   -0.1149    5.5206 H   0  0  0  0  0  0  0  0  0  0  0  0
    1.4458   -0.2034    6.2011 N   0  3  0  0  0  0  0  0  0  0  0  0
    2.3312    0.2800    6.0411 H   0  0  0  0  0  0  0  0  0  0  0  0
    1.1967   -0.1272    7.1893 H   0  0  0  0  0  0  0  0  0  0  0  0
    1.5609   -1.1913    5.9634 H   0  0  0  0  0  0  0  0  0  0  0  0
   -0.2846    1.2982   -0.8840 C   0  0  0  0  0  0  0  0  0  0  0  0
    0.2031    0.3025   -1.3978 O   0  0  0  0  0  0  0  0  0  0  0  0
   -0.2612    2.4916   -1.5841 N   0  0  0  0  0  0  0  0  0  0  0  0
   -0.6859    3.3091   -1.1568 H   0  0  0  0  0  0  0  0  0  0  0  0
    0.3151    2.6184   -2.9199 C   0  0  0  0  0  0  0  0  0  0  0  0
   -0.2010    1.9582   -3.6255 H   0  0  0  0  0  0  0  0  0  0  0  0
    0.2207    3.6479   -3.2791 H   0  0  0  0  0  0  0  0  0  0  0  0
    1.3780    2.3541   -2.9065 H   0  0  0  0  0  0  0  0  0  0  0  0
  1  2  1  0  0  0  0
  2  3  1  0  0  0  0
  2  4  1  0  0  0  0
  2  5  1  0  0  0  0
  5  6  2  0  0  0  0
  5  7  1  0  0  0  0
  7  8  1  0  0  0  0
  7  9  1  0  0  0  0
  9 10  1  0  0  0  0
  9 11  1  0  0  0  0
  9 27  1  0  0  0  0
 11 12  1  0  0  0  0
 11 13  1  0  0  0  0
 11 14  1  0  0  0  0
 14 15  1  0  0  0  0
 14 16  1  0  0  0  0
 14 17  1  0  0  0  0
 17 18  1  0  0  0  0
 17 19  1  0  0  0  0
 17 20  1  0  0  0  0
 20 21  1  0  0  0  0
 20 22  1  0  0  0  0
 20 23  1  0  0  0  0
 23 24  1  0  0  0  0
 23 25  1  0  0  0  0
 23 26  1  0  0  0  0
 27 28  2  0  0  0  0
 27 29  1  0  0  0  0
 29 30  1  0  0  0  0
 29 31  1  0  0  0  0
 31 32  1  0  0  0  0
 31 33  1  0  0  0  0
 31 34  1  0  0  0  0
M  CHG  1  23   1
M  END
$$$$

  -OEChem-01062216093D

 34 33  0     1  0  0  0  0  0999 V2000
   -4.0088   -2.3484    0.6048 H   0  0  0  0  0  0  0  0  0  0  0  0
   -3.8902   -1.3106    0.2800 C   0  0  0  0  0  0  0  0  0  0  0  0
   -4.7406   -0.7286    0.6432 H   0  0  0  0  0  0  0  0  0  0  0  0
   -3.8794   -1.2873   -0.8127 H   0  0  0  0  0  0  0  0  0  0  0  0
   -2.5947   -0.7361    0.8222 C   0  0  0  0  0  0  0  0  0  0  0  0
   -1.9441   -1.4117    1.6036 O   0  0  0  0  0  0  0  0  0  0  0  0
   -2.2419    0.5511    0.4417 N   0  0  0  0  0  0  0  0  0  0  0  0
   -2.8698    0.9296   -0.2634 H   0  0  0  0  0  0  0  0  0  0  0  0
   -0.9207    1.2266    0.5279 C   0  0  1  0  0  0  0  0  0  0  0  0
   -1.1143    2.2544    0.8479 H   0  0  0  0  0  0  0  0  0  0  0  0
    0.1144    0.6437    1.5159 C   0  0  0  0  0  0  0  0  0  0  0  0
    0.2938   -0.4127    1.2898 H   0  0  0  0  0  0  0  0  0  0  0  0
    1.0674    1.1606    1.3593 H   0  0  0  0  0  0  0  0  0  0  0  0
   -0.2928    0.8258    2.9885 C   0  0  0  0  0  0  0  0  0  0  0  0
   -0.4200    1.8932    3.1983 H   0  0  0  0  0  0  0  0  0  0  0  0
   -1.2498    0.3379    3.1920 H   0  0  0  0  0  0  0  0  0  0  0  0
    0.7912    0.2424    3.8999 C   0  0  0  0  0  0  0  0  0  0  0  0
    0.9252   -0.8187    3.6595 H   0  0  0  0  0  0  0  0  0  0  0  0
    1.7414    0.7557    3.7163 H   0  0  0  0  0  0  0  0  0  0  0  0
    0.3871    0.3933    5.3623 C   0  0  0  0  0  0  0  0  0  0  0  0
    0.2423    1.4586    5.5930 H   0  0  0  0  0  0  0  0  0  0  0  0
   -0.5793   -0.1084    5.5207 H   0  0  0  0  0  0  0  0  0  0  0  0
    1.4427   -0.2021    6.2093 N   0  3  0  0  0  0  0  0  0  0  0  0
    2.3296    0.2807    6.0558 H   0  0  0  0  0  0  0  0  0  0  0  0
    1.1875   -0.1272    7.1961 H   0  0  0  0  0  0  0  0  0  0  0  0
    1.5580   -1.1898    5.9710 H   0  0  0  0  0  0  0  0  0  0  0  0
   -0.2775    1.3069   -0.8753 C   0  0  0  0  0  0  0  0  0  0  0  0
   -0.0772    0.2869   -1.5179 O   0  0  0  0  0  0  0  0  0  0  0  0
    0.0357    2.5296   -1.4430 N   0  0  0  0  0  0  0  0  0  0  0  0
   -0.1750    3.3730   -0.9181 H   0  0  0  0  0  0  0  0  0  0  0  0
    0.6016    2.6613   -2.7828 C   0  0  0  0  0  0  0  0  0  0  0  0
   -0.0760    2.2336   -3.5298 H   0  0  0  0  0  0  0  0  0  0  0  0
    0.7613    3.7163   -3.0265 H   0  0  0  0  0  0  0  0  0  0  0  0
    1.5648    2.1434   -2.8460 H   0  0  0  0  0  0  0  0  0  0  0  0
  1  2  1  0  0  0  0
  2  3  1  0  0  0  0
  2  4  1  0  0  0  0
  2  5  1  0  0  0  0
  5  6  2  0  0  0  0
  5  7  1  0  0  0  0
  7  8  1  0  0  0  0
  7  9  1  0  0  0  0
  9 10  1  0  0  0  0
  9 11  1  0  0  0  0
  9 27  1  0  0  0  0
 11 12  1  0  0  0  0
 11 13  1  0  0  0  0
 11 14  1  0  0  0  0
 14 15  1  0  0  0  0
 14 16  1  0  0  0  0
 14 17  1  0  0  0  0
 17 18  1  0  0  0  0
 17 19  1  0  0  0  0
 17 20  1  0  0  0  0
 20 21  1  0  0  0  0
 20 22  1  0  0  0  0
 20 23  1  0  0  0  0
 23 24  1  0  0  0  0
 23 25  1  0  0  0  0
 23 26  1  0  0  0  0
 27 28  2  0  0  0  0
 27 29  1  0  0  0  0
 29 30  1  0  0  0  0
 29 31  1  0  0  0  0
 31 32  1  0  0  0  0
 31 33  1  0  0  0  0
 31 34  1  0  0  0  0
M  CHG  1  23   1
M  END
$$$$

  -OEChem-01062216093D

 34 33  0     1  0  0  0  0  0999 V2000
   -3.9988   -2.3438    0.5912 H   0  0  0  0  0  0  0  0  0  0  0  0
   -3.8750   -1.3073    0.2646 C   0  0  0  0  0  0  0  0  0  0  0  0
   -4.7328   -0.7249    0.6087 H   0  0  0  0  0  0  0  0  0  0  0  0
   -3.8433   -1.2884   -0.8279 H   0  0  0  0  0  0  0  0  0  0  0  0
   -2.5915   -0.7277    0.8293 C   0  0  0  0  0  0  0  0  0  0  0  0
   -1.9512   -1.4000    1.6227 O   0  0  0  0  0  0  0  0  0  0  0  0
   -2.2345    0.5582    0.4492 N   0  0  0  0  0  0  0  0  0  0  0  0
   -2.8401    0.9184   -0.2850 H   0  0  0  0  0  0  0  0  0  0  0  0
   -0.9078    1.2235    0.5305 C   0  0  1  0  0  0  0  0  0  0  0  0
   -1.0969    2.2530    0.8479 H   0  0  0  0  0  0  0  0  0  0  0  0
    0.1240    0.6346    1.5172 C   0  0  0  0  0  0  0  0  0  0  0  0
    0.2921   -0.4242    1.2943 H   0  0  0  0  0  0  0  0  0  0  0  0
    1.0821    1.1414    1.3584 H   0  0  0  0  0  0  0  0  0  0  0  0
   -0.2822    0.8260    2.9895 C   0  0  0  0  0  0  0  0  0  0  0  0
   -0.3983    1.8953    3.1956 H   0  0  0  0  0  0  0  0  0  0  0  0
   -1.2446    0.3500    3.1945 H   0  0  0  0  0  0  0  0  0  0  0  0
    0.7943    0.2376    3.9063 C   0  0  0  0  0  0  0  0  0  0  0  0
    0.9195   -0.8260    3.6719 H   0  0  0  0  0  0  0  0  0  0  0  0
    1.7492    0.7420    3.7224 H   0  0  0  0  0  0  0  0  0  0  0  0
    0.3866    0.3999    5.3670 C   0  0  0  0  0  0  0  0  0  0  0  0
    0.2506    1.4677    5.5917 H   0  0  0  0  0  0  0  0  0  0  0  0
   -0.5849   -0.0922    5.5246 H   0  0  0  0  0  0  0  0  0  0  0  0
    1.4334   -0.1999    6.2217 N   0  3  0  0  0  0  0  0  0  0  0  0
    2.3251    0.2739    6.0688 H   0  0  0  0  0  0  0  0  0  0  0  0
    1.1748   -0.1165    7.2069 H   0  0  0  0  0  0  0  0  0  0  0  0
    1.5409   -1.1901    5.9903 H   0  0  0  0  0  0  0  0  0  0  0  0
   -0.2666    1.3049   -0.8742 C   0  0  0  0  0  0  0  0  0  0  0  0
   -0.3511    0.3604   -1.6459 O   0  0  0  0  0  0  0  0  0  0  0  0
    0.3325    2.4738   -1.3100 N   0  0  0  0  0  0  0  0  0  0  0  0
    0.3445    3.2713   -0.6817 H   0  0  0  0  0  0  0  0  0  0  0  0
    0.8863    2.6300   -2.6522 C   0  0  0  0  0  0  0  0  0  0  0  0
    0.1092    2.4791   -3.4092 H   0  0  0  0  0  0  0  0  0  0  0  0
    1.3000    3.6352   -2.7793 H   0  0  0  0  0  0  0  0  0  0  0  0
    1.6875    1.9033   -2.8237 H   0  0  0  0  0  0  0  0  0  0  0  0
  1  2  1  0  0  0  0
  2  3  1  0  0  0  0
  2  4  1  0  0  0  0
  2  5  1  0  0  0  0
  5  6  2  0  0  0  0
  5  7  1  0  0  0  0
  7  8  1  0  0  0  0
  7  9  1  0  0  0  0
  9 10  1  0  0  0  0
  9 11  1  0  0  0  0
  9 27  1  0  0  0  0
 11 12  1  0  0  0  0
 11 13  1  0  0  0  0
 11 14  1  0  0  0  0
 14 15  1  0  0  0  0
 14 16  1  0  0  0  0
 14 17  1  0  0  0  0
 17 18  1  0  0  0  0
 17 19  1  0  0  0  0
 17 20  1  0  0  0  0
 20 21  1  0  0  0  0
 20 22  1  0  0  0  0
 20 23  1  0  0  0  0
 23 24  1  0  0  0  0
 23 25  1  0  0  0  0
 23 26  1  0  0  0  0
 27 28  2  0  0  0  0
 27 29  1  0  0  0  0
 29 30  1  0  0  0  0
 29 31  1  0  0  0  0
 31 32  1  0  0  0  0
 31 33  1  0  0  0  0
 31 34  1  0  0  0  0
M  CHG  1  23   1
M  END
$$$$

  -OEChem-01062216093D

 34 33  0     1  0  0  0  0  0999 V2000
   -3.9885   -2.3410    0.5735 H   0  0  0  0  0  0  0  0  0  0  0  0
   -3.8627   -1.3020    0.2554 C   0  0  0  0  0  0  0  0  0  0  0  0
   -4.7244   -0.7220    0.5943 H   0  0  0  0  0  0  0  0  0  0  0  0
   -3.8202   -1.2750   -0.8367 H   0  0  0  0  0  0  0  0  0  0  0  0
   -2.5850   -0.7249    0.8351 C   0  0  0  0  0  0  0  0  0  0  0  0
   -1.9467   -1.4025    1.6257 O   0  0  0  0  0  0  0  0  0  0  0  0
   -2.2229    0.5607    0.4609 N   0  0  0  0  0  0  0  0  0  0  0  0
   -2.8130    0.9117   -0.2912 H   0  0  0  0  0  0  0  0  0  0  0  0
   -0.8911    1.2173    0.5343 C   0  0  1  0  0  0  0  0  0  0  0  0
   -1.0733    2.2479    0.8522 H   0  0  0  0  0  0  0  0  0  0  0  0
    0.1391    0.6208    1.5199 C   0  0  0  0  0  0  0  0  0  0  0  0
    0.2990   -0.4397    1.2999 H   0  0  0  0  0  0  0  0  0  0  0  0
    1.1015    1.1192    1.3623 H   0  0  0  0  0  0  0  0  0  0  0  0
   -0.2678    0.8218    2.9910 C   0  0  0  0  0  0  0  0  0  0  0  0
   -0.3766    1.8931    3.1913 H   0  0  0  0  0  0  0  0  0  0  0  0
   -1.2348    0.3542    3.1951 H   0  0  0  0  0  0  0  0  0  0  0  0
    0.7993    0.2296    3.9164 C   0  0  0  0  0  0  0  0  0  0  0  0
    0.9162   -0.8363    3.6891 H   0  0  0  0  0  0  0  0  0  0  0  0
    1.7596    0.7245    3.7347 H   0  0  0  0  0  0  0  0  0  0  0  0
    0.3845    0.4048    5.3741 C   0  0  0  0  0  0  0  0  0  0  0  0
    0.2562    1.4752    5.5908 H   0  0  0  0  0  0  0  0  0  0  0  0
   -0.5923   -0.0775    5.5289 H   0  0  0  0  0  0  0  0  0  0  0  0
    1.4197   -0.1977    6.2412 N   0  3  0  0  0  0  0  0  0  0  0  0
    2.3169    0.2668    6.0915 H   0  0  0  0  0  0  0  0  0  0  0  0
    1.1547   -0.1038    7.2238 H   0  0  0  0  0  0  0  0  0  0  0  0
    1.5197   -1.1907    6.0190 H   0  0  0  0  0  0  0  0  0  0  0  0
   -0.2611    1.3047   -0.8771 C   0  0  0  0  0  0  0  0  0  0  0  0
   -0.6020    0.5240   -1.7552 O   0  0  0  0  0  0  0  0  0  0  0  0
    0.6001    2.3377   -1.2043 N   0  0  0  0  0  0  0  0  0  0  0  0
    0.8228    3.0231   -0.4894 H   0  0  0  0  0  0  0  0  0  0  0  0
    1.1519    2.5180   -2.5445 C   0  0  0  0  0  0  0  0  0  0  0  0
    0.3481    2.6498   -3.2770 H   0  0  0  0  0  0  0  0  0  0  0  0
    1.7950    3.4030   -2.5765 H   0  0  0  0  0  0  0  0  0  0  0  0
    1.7495    1.6467   -2.8335 H   0  0  0  0  0  0  0  0  0  0  0  0
  1  2  1  0  0  0  0
  2  3  1  0  0  0  0
  2  4  1  0  0  0  0
  2  5  1  0  0  0  0
  5  6  2  0  0  0  0
  5  7  1  0  0  0  0
  7  8  1  0  0  0  0
  7  9  1  0  0  0  0
  9 10  1  0  0  0  0
  9 11  1  0  0  0  0
  9 27  1  0  0  0  0
 11 12  1  0  0  0  0
 11 13  1  0  0  0  0
 11 14  1  0  0  0  0
 14 15  1  0  0  0  0
 14 16  1  0  0  0  0
 14 17  1  0  0  0  0
 17 18  1  0  0  0  0
 17 19  1  0  0  0  0
 17 20  1  0  0  0  0
 20 21  1  0  0  0  0
 20 22  1  0  0  0  0
 20 23  1  0  0  0  0
 23 24  1  0  0  0  0
 23 25  1  0  0  0  0
 23 26  1  0  0  0  0
 27 28  2  0  0  0  0
 27 29  1  0  0  0  0
 29 30  1  0  0  0  0
 29 31  1  0  0  0  0
 31 32  1  0  0  0  0
 31 33  1  0  0  0  0
 31 34  1  0  0  0  0
M  CHG  1  23   1
M  END
$$$$

  -OEChem-01062216093D

 34 33  0     1  0  0  0  0  0999 V2000
   -3.9818   -2.3301    0.5903 H   0  0  0  0  0  0  0  0  0  0  0  0
   -3.8451   -1.2968    0.2589 C   0  0  0  0  0  0  0  0  0  0  0  0
   -4.7044   -0.7057    0.5843 H   0  0  0  0  0  0  0  0  0  0  0  0
   -3.7949   -1.2843   -0.8330 H   0  0  0  0  0  0  0  0  0  0  0  0
   -2.5669   -0.7228    0.8402 C   0  0  0  0  0  0  0  0  0  0  0  0
   -1.9257   -1.4070    1.6228 O   0  0  0  0  0  0  0  0  0  0  0  0
   -2.2025    0.5635    0.4719 N   0  0  0  0  0  0  0  0  0  0  0  0
   -2.7842    0.9125   -0.2887 H   0  0  0  0  0  0  0  0  0  0  0  0
   -0.8696    1.2184    0.5400 C   0  0  1  0  0  0  0  0  0  0  0  0
   -1.0452    2.2503    0.8581 H   0  0  0  0  0  0  0  0  0  0  0  0
    0.1568    0.6133    1.5262 C   0  0  0  0  0  0  0  0  0  0  0  0
    0.3126   -0.4475    1.3053 H   0  0  0  0  0  0  0  0  0  0  0  0
    1.1229    1.1058    1.3763 H   0  0  0  0  0  0  0  0  0  0  0  0
   -0.2556    0.8170    2.9955 C   0  0  0  0  0  0  0  0  0  0  0  0
   -0.3588    1.8890    3.1944 H   0  0  0  0  0  0  0  0  0  0  0  0
   -1.2269    0.3564    3.1945 H   0  0  0  0  0  0  0  0  0  0  0  0
    0.8011    0.2198    3.9294 C   0  0  0  0  0  0  0  0  0  0  0  0
    0.9148   -0.8471    3.7051 H   0  0  0  0  0  0  0  0  0  0  0  0
    1.7653    0.7097    3.7554 H   0  0  0  0  0  0  0  0  0  0  0  0
    0.3729    0.4017    5.3824 C   0  0  0  0  0  0  0  0  0  0  0  0
    0.2482    1.4735    5.5945 H   0  0  0  0  0  0  0  0  0  0  0  0
   -0.6082   -0.0748    5.5286 H   0  0  0  0  0  0  0  0  0  0  0  0
    1.3949   -0.2042    6.2625 N   0  3  0  0  0  0  0  0  0  0  0  0
    2.2980    0.2497    6.1161 H   0  0  0  0  0  0  0  0  0  0  0  0
    1.1234   -0.0991    7.2423 H   0  0  0  0  0  0  0  0  0  0  0  0
    1.4859   -1.2002    6.0495 H   0  0  0  0  0  0  0  0  0  0  0  0
   -0.2542    1.3100   -0.8798 C   0  0  0  0  0  0  0  0  0  0  0  0
   -0.7892    0.7382   -1.8209 O   0  0  0  0  0  0  0  0  0  0  0  0
    0.8248    2.1381   -1.1374 N   0  0  0  0  0  0  0  0  0  0  0  0
    1.2191    2.6661   -0.3655 H   0  0  0  0  0  0  0  0  0  0  0  0
    1.3801    2.3284   -2.4749 C   0  0  0  0  0  0  0  0  0  0  0  0
    0.6237    2.7438   -3.1496 H   0  0  0  0  0  0  0  0  0  0  0  0
    2.2280    3.0195   -2.4407 H   0  0  0  0  0  0  0  0  0  0  0  0
    1.7292    1.3746   -2.8855 H   0  0  0  0  0  0  0  0  0  0  0  0
  1  2  1  0  0  0  0
  2  3  1  0  0  0  0
  2  4  1  0  0  0  0
  2  5  1  0  0  0  0
  5  6  2  0  0  0  0
  5  7  1  0  0  0  0
  7  8  1  0  0  0  0
  7  9  1  0  0  0  0
  9 10  1  0  0  0  0
  9 11  1  0  0  0  0
  9 27  1  0  0  0  0
 11 12  1  0  0  0  0
 11 13  1  0  0  0  0
 11 14  1  0  0  0  0
 14 15  1  0  0  0  0
 14 16  1  0  0  0  0
 14 17  1  0  0  0  0
 17 18  1  0  0  0  0
 17 19  1  0  0  0  0
 17 20  1  0  0  0  0
 20 21  1  0  0  0  0
 20 22  1  0  0  0  0
 20 23  1  0  0  0  0
 23 24  1  0  0  0  0
 23 25  1  0  0  0  0
 23 26  1  0  0  0  0
 27 28  2  0  0  0  0
 27 29  1  0  0  0  0
 29 30  1  0  0  0  0
 29 31  1  0  0  0  0
 31 32  1  0  0  0  0
 31 33  1  0  0  0  0
 31 34  1  0  0  0  0
M  CHG  1  23   1
M  END
$$$$

  -OEChem-01062216093D

 34 33  0     1  0  0  0  0  0999 V2000
   -4.1829   -2.2079    0.6428 H   0  0  0  0  0  0  0  0  0  0  0  0
   -3.9828   -1.1748    0.3451 C   0  0  0  0  0  0  0  0  0  0  0  0
   -4.7091   -0.5209    0.8340 H   0  0  0  0  0  0  0  0  0  0  0  0
   -4.1018   -1.0936   -0.7386 H   0  0  0  0  0  0  0  0  0  0  0  0
   -2.5738   -0.7755    0.7410 C   0  0  0  0  0  0  0  0  0  0  0  0
   -1.8624   -1.6103    1.2774 O   0  0  0  0  0  0  0  0  0  0  0  0
   -2.1508    0.5065    0.4282 N   0  0  0  0  0  0  0  0  0  0  0  0
   -2.7877    0.9814   -0.2128 H   0  0  0  0  0  0  0  0  0  0  0  0
   -0.8050    1.1338    0.4881 C   0  0  1  0  0  0  0  0  0  0  0  0
   -0.9314    2.0566    1.0622 H   0  0  0  0  0  0  0  0  0  0  0  0
    0.3207    0.3476    1.2056 C   0  0  0  0  0  0  0  0  0  0  0  0
    0.4139   -0.6468    0.7565 H   0  0  0  0  0  0  0  0  0  0  0  0
    1.2750    0.8579    1.0459 H   0  0  0  0  0  0  0  0  0  0  0  0
    0.0946    0.2343    2.7280 C   0  0  0  0  0  0  0  0  0  0  0  0
    0.0443    1.2428    3.1524 H   0  0  0  0  0  0  0  0  0  0  0  0
   -0.8534   -0.2531    2.9623 H   0  0  0  0  0  0  0  0  0  0  0  0
    1.2467   -0.5337    3.3831 C   0  0  0  0  0  0  0  0  0  0  0  0
    1.3145   -1.5303    2.9318 H   0  0  0  0  0  0  0  0  0  0  0  0
    2.1912   -0.0102    3.1993 H   0  0  0  0  0  0  0  0  0  0  0  0
    0.9970   -0.6608    4.8833 C   0  0  0  0  0  0  0  0  0  0  0  0
    0.9155    0.3426    5.3256 H   0  0  0  0  0  0  0  0  0  0  0  0
    0.0326   -1.1656    5.0442 H   0  0  0  0  0  0  0  0  0  0  0  0
    2.1060   -1.4260    5.4926 N   0  3  0  0  0  0  0  0  0  0  0  0
    2.9917   -0.9397    5.3439 H   0  0  0  0  0  0  0  0  0  0  0  0
    1.9491   -1.5339    6.4970 H   0  0  0  0  0  0  0  0  0  0  0  0
    2.1608   -2.3532    5.0652 H   0  0  0  0  0  0  0  0  0  0  0  0
   -0.3937    1.6111   -0.9295 C   0  0  0  0  0  0  0  0  0  0  0  0
   -1.1999    1.5413   -1.8492 O   0  0  0  0  0  0  0  0  0  0  0  0
    0.8196    2.2345   -1.1661 N   0  0  0  0  0  0  0  0  0  0  0  0
    1.4633    2.3413   -0.3895 H   0  0  0  0  0  0  0  0  0  0  0  0
    1.1994    2.7665   -2.4722 C   0  0  0  0  0  0  0  0  0  0  0  0
    0.4692    3.5085   -2.8133 H   0  0  0  0  0  0  0  0  0  0  0  0
    2.1795    3.2502   -2.4169 H   0  0  0  0  0  0  0  0  0  0  0  0
    1.2526    1.9617   -3.2133 H   0  0  0  0  0  0  0  0  0  0  0  0
  1  2  1  0  0  0  0
  2  3  1  0  0  0  0
  2  4  1  0  0  0  0
  2  5  1  0  0  0  0
  5  6  2  0  0  0  0
  5  7  1  0  0  0  0
  7  8  1  0  0  0  0
  7  9  1  0  0  0  0
  9 10  1  0  0  0  0
  9 11  1  0  0  0  0
  9 27  1  0  0  0  0
 11 12  1  0  0  0  0
 11 13  1  0  0  0  0
 11 14  1  0  0  0  0
 14 15  1  0  0  0  0
 14 16  1  0  0  0  0
 14 17  1  0  0  0  0
 17 18  1  0  0  0  0
 17 19  1  0  0  0  0
 17 20  1  0  0  0  0
 20 21  1  0  0  0  0
 20 22  1  0  0  0  0
 20 23  1  0  0  0  0
 23 24  1  0  0  0  0
 23 25  1  0  0  0  0
 23 26  1  0  0  0  0
 27 28  2  0  0  0  0
 27 29  1  0  0  0  0
 29 30  1  0  0  0  0
 29 31  1  0  0  0  0
 31 32  1  0  0  0  0
 31 33  1  0  0  0  0
 31 34  1  0  0  0  0
M  CHG  1  23   1
M  END
$$$$

  -OEChem-01062216093D

 34 33  0     1  0  0  0  0  0999 V2000
   -4.1634   -2.2009    0.6411 H   0  0  0  0  0  0  0  0  0  0  0  0
   -3.9603   -1.1675    0.3462 C   0  0  0  0  0  0  0  0  0  0  0  0
   -4.6768   -0.5117    0.8468 H   0  0  0  0  0  0  0  0  0  0  0  0
   -4.0914   -1.0800   -0.7354 H   0  0  0  0  0  0  0  0  0  0  0  0
   -2.5442   -0.7791    0.7279 C   0  0  0  0  0  0  0  0  0  0  0  0
   -1.8270   -1.6238    1.2412 O   0  0  0  0  0  0  0  0  0  0  0  0
   -2.1197    0.5062    0.4316 N   0  0  0  0  0  0  0  0  0  0  0  0
   -2.7671    1.0062   -0.1799 H   0  0  0  0  0  0  0  0  0  0  0  0
   -0.7750    1.1336    0.4977 C   0  0  1  0  0  0  0  0  0  0  0  0
   -0.8996    2.0535    1.0769 H   0  0  0  0  0  0  0  0  0  0  0  0
    0.3463    0.3411    1.2169 C   0  0  0  0  0  0  0  0  0  0  0  0
    0.4442   -0.6510    0.7637 H   0  0  0  0  0  0  0  0  0  0  0  0
    1.3018    0.8531    1.0727 H   0  0  0  0  0  0  0  0  0  0  0  0
    0.1055    0.2252    2.7363 C   0  0  0  0  0  0  0  0  0  0  0  0
    0.0513    1.2329    3.1621 H   0  0  0  0  0  0  0  0  0  0  0  0
   -0.8460   -0.2624    2.9569 H   0  0  0  0  0  0  0  0  0  0  0  0
    1.2477   -0.5465    3.4040 C   0  0  0  0  0  0  0  0  0  0  0  0
    1.3186   -1.5432    2.9532 H   0  0  0  0  0  0  0  0  0  0  0  0
    2.1958   -0.0252    3.2331 H   0  0  0  0  0  0  0  0  0  0  0  0
    0.9766   -0.6719    4.9006 C   0  0  0  0  0  0  0  0  0  0  0  0
    0.8913    0.3325    5.3406 H   0  0  0  0  0  0  0  0  0  0  0  0
    0.0083   -1.1735    5.0473 H   0  0  0  0  0  0  0  0  0  0  0  0
    2.0733   -1.4400    5.5282 N   0  3  0  0  0  0  0  0  0  0  0  0
    2.9627   -0.9563    5.3936 H   0  0  0  0  0  0  0  0  0  0  0  0
    1.8994   -1.5467    6.5300 H   0  0  0  0  0  0  0  0  0  0  0  0
    2.1323   -2.3677    5.1025 H   0  0  0  0  0  0  0  0  0  0  0  0
   -0.3790    1.6244   -0.9203 C   0  0  0  0  0  0  0  0  0  0  0  0
   -1.2576    1.7908   -1.7578 O   0  0  0  0  0  0  0  0  0  0  0  0
    0.9187    1.9739   -1.2531 N   0  0  0  0  0  0  0  0  0  0  0  0
    1.6437    1.8426   -0.5561 H   0  0  0  0  0  0  0  0  0  0  0  0
    1.2960    2.4710   -2.5735 C   0  0  0  0  0  0  0  0  0  0  0  0
    0.7233    3.3705   -2.8247 H   0  0  0  0  0  0  0  0  0  0  0  0
    2.3604    2.7248   -2.5954 H   0  0  0  0  0  0  0  0  0  0  0  0
    1.1060    1.7104   -3.3385 H   0  0  0  0  0  0  0  0  0  0  0  0
  1  2  1  0  0  0  0
  2  3  1  0  0  0  0
  2  4  1  0  0  0  0
  2  5  1  0  0  0  0
  5  6  2  0  0  0  0
  5  7  1  0  0  0  0
  7  8  1  0  0  0  0
  7  9  1  0  0  0  0
  9 10  1  0  0  0  0
  9 11  1  0  0  0  0
  9 27  1  0  0  0  0
 11 12  1  0  0  0  0
 11 13  1  0  0  0  0
 11 14  1  0  0  0  0
 14 15  1  0  0  0  0
 14 16  1  0  0  0  0
 14 17  1  0  0  0  0
 17 18  1  0  0  0  0
 17 19  1  0  0  0  0
 17 20  1  0  0  0  0
 20 21  1  0  0  0  0
 20 22  1  0  0  0  0
 20 23  1  0  0  0  0
 23 24  1  0  0  0  0
 23 25  1  0  0  0  0
 23 26  1  0  0  0  0
 27 28  2  0  0  0  0
 27 29  1  0  0  0  0
 29 30  1  0  0  0  0
 29 31  1  0  0  0  0
 31 32  1  0  0  0  0
 31 33  1  0  0  0  0
 31 34  1  0  0  0  0
M  CHG  1  23   1
M  END
$$$$

  -OEChem-01062216093D

 34 33  0     1  0  0  0  0  0999 V2000
   -4.1484   -2.1952    0.6410 H   0  0  0  0  0  0  0  0  0  0  0  0
   -3.9438   -1.1617    0.3471 C   0  0  0  0  0  0  0  0  0  0  0  0
   -4.6490   -0.5038    0.8608 H   0  0  0  0  0  0  0  0  0  0  0  0
   -4.0914   -1.0684   -0.7319 H   0  0  0  0  0  0  0  0  0  0  0  0
   -2.5201   -0.7827    0.7089 C   0  0  0  0  0  0  0  0  0  0  0  0
   -1.7971   -1.6340    1.2028 O   0  0  0  0  0  0  0  0  0  0  0  0
   -2.0941    0.5043    0.4239 N   0  0  0  0  0  0  0  0  0  0  0  0
   -2.7526    1.0292   -0.1541 H   0  0  0  0  0  0  0  0  0  0  0  0
   -0.7504    1.1298    0.5029 C   0  0  1  0  0  0  0  0  0  0  0  0
   -0.8768    2.0491    1.0832 H   0  0  0  0  0  0  0  0  0  0  0  0
    0.3666    0.3375    1.2282 C   0  0  0  0  0  0  0  0  0  0  0  0
    0.4749   -0.6527    0.7737 H   0  0  0  0  0  0  0  0  0  0  0  0
    1.3194    0.8587    1.0969 H   0  0  0  0  0  0  0  0  0  0  0  0
    0.1110    0.2192    2.7448 C   0  0  0  0  0  0  0  0  0  0  0  0
    0.0490    1.2259    3.1727 H   0  0  0  0  0  0  0  0  0  0  0  0
   -0.8414   -0.2732    2.9520 H   0  0  0  0  0  0  0  0  0  0  0  0
    1.2470   -0.5517    3.4239 C   0  0  0  0  0  0  0  0  0  0  0  0
    1.3241   -1.5477    2.9732 H   0  0  0  0  0  0  0  0  0  0  0  0
    2.1962   -0.0291    3.2635 H   0  0  0  0  0  0  0  0  0  0  0  0
    0.9597   -0.6784    4.9175 C   0  0  0  0  0  0  0  0  0  0  0  0
    0.8695    0.3260    5.3561 H   0  0  0  0  0  0  0  0  0  0  0  0
   -0.0103   -1.1799    5.0539 H   0  0  0  0  0  0  0  0  0  0  0  0
    2.0498   -1.4454    5.5574 N   0  3  0  0  0  0  0  0  0  0  0  0
    2.9403   -0.9612    5.4323 H   0  0  0  0  0  0  0  0  0  0  0  0
    1.8654   -1.5509    6.5573 H   0  0  0  0  0  0  0  0  0  0  0  0
    2.1137   -2.3734    5.1333 H   0  0  0  0  0  0  0  0  0  0  0  0
   -0.3579    1.6249   -0.9130 C   0  0  0  0  0  0  0  0  0  0  0  0
   -1.2457    2.0202   -1.6585 O   0  0  0  0  0  0  0  0  0  0  0  0
    0.9529    1.6920   -1.3530 N   0  0  0  0  0  0  0  0  0  0  0  0
    1.6750    1.3013   -0.7574 H   0  0  0  0  0  0  0  0  0  0  0  0
    1.3193    2.1506   -2.6900 C   0  0  0  0  0  0  0  0  0  0  0  0
    0.9410    3.1635   -2.8662 H   0  0  0  0  0  0  0  0  0  0  0  0
    2.4078    2.1673   -2.8022 H   0  0  0  0  0  0  0  0  0  0  0  0
    0.9025    1.4837   -3.4525 H   0  0  0  0  0  0  0  0  0  0  0  0
  1  2  1  0  0  0  0
  2  3  1  0  0  0  0
  2  4  1  0  0  0  0
  2  5  1  0  0  0  0
  5  6  2  0  0  0  0
  5  7  1  0  0  0  0
  7  8  1  0  0  0  0
  7  9  1  0  0  0  0
  9 10  1  0  0  0  0
  9 11  1  0  0  0  0
  9 27  1  0  0  0  0
 11 12  1  0  0  0  0
 11 13  1  0  0  0  0
 11 14  1  0  0  0  0
 14 15  1  0  0  0  0
 14 16  1  0  0  0  0
 14 17  1  0  0  0  0
 17 18  1  0  0  0  0
 17 19  1  0  0  0  0
 17 20  1  0  0  0  0
 20 21  1  0  0  0  0
 20 22  1  0  0  0  0
 20 23  1  0  0  0  0
 23 24  1  0  0  0  0
 23 25  1  0  0  0  0
 23 26  1  0  0  0  0
 27 28  2  0  0  0  0
 27 29  1  0  0  0  0
 29 30  1  0  0  0  0
 29 31  1  0  0  0  0
 31 32  1  0  0  0  0
 31 33  1  0  0  0  0
 31 34  1  0  0  0  0
M  CHG  1  23   1
M  END
$$$$

  -OEChem-01062216093D

 34 33  0     1  0  0  0  0  0999 V2000
   -4.1442   -2.1906    0.6507 H   0  0  0  0  0  0  0  0  0  0  0  0
   -3.9390   -1.1577    0.3554 C   0  0  0  0  0  0  0  0  0  0  0  0
   -4.6300   -0.4973    0.8849 H   0  0  0  0  0  0  0  0  0  0  0  0
   -4.1071   -1.0609   -0.7202 H   0  0  0  0  0  0  0  0  0  0  0  0
   -2.5060   -0.7885    0.6899 C   0  0  0  0  0  0  0  0  0  0  0  0
   -1.7743   -1.6460    1.1597 O   0  0  0  0  0  0  0  0  0  0  0  0
   -2.0784    0.4988    0.4098 N   0  0  0  0  0  0  0  0  0  0  0  0
   -2.7521    1.0474   -0.1267 H   0  0  0  0  0  0  0  0  0  0  0  0
   -0.7362    1.1236    0.5022 C   0  0  1  0  0  0  0  0  0  0  0  0
   -0.8681    2.0425    1.0822 H   0  0  0  0  0  0  0  0  0  0  0  0
    0.3782    0.3358    1.2344 C   0  0  0  0  0  0  0  0  0  0  0  0
    0.4960   -0.6540    0.7816 H   0  0  0  0  0  0  0  0  0  0  0  0
    1.3276    0.8655    1.1077 H   0  0  0  0  0  0  0  0  0  0  0  0
    0.1108    0.2160    2.7481 C   0  0  0  0  0  0  0  0  0  0  0  0
    0.0393    1.2216    3.1767 H   0  0  0  0  0  0  0  0  0  0  0  0
   -0.8408   -0.2832    2.9441 H   0  0  0  0  0  0  0  0  0  0  0  0
    1.2451   -0.5503    3.4353 C   0  0  0  0  0  0  0  0  0  0  0  0
    1.3307   -1.5453    2.9839 H   0  0  0  0  0  0  0  0  0  0  0  0
    2.1924   -0.0224    3.2821 H   0  0  0  0  0  0  0  0  0  0  0  0
    0.9489   -0.6803    4.9269 C   0  0  0  0  0  0  0  0  0  0  0  0
    0.8511    0.3231    5.3664 H   0  0  0  0  0  0  0  0  0  0  0  0
   -0.0193   -1.1871    5.0566 H   0  0  0  0  0  0  0  0  0  0  0  0
    2.0390   -1.4431    5.5722 N   0  3  0  0  0  0  0  0  0  0  0  0
    2.9292   -0.9584    5.4455 H   0  0  0  0  0  0  0  0  0  0  0  0
    1.8537   -1.5433    6.5725 H   0  0  0  0  0  0  0  0  0  0  0  0
    2.1049   -2.3732    5.1532 H   0  0  0  0  0  0  0  0  0  0  0  0
   -0.3341    1.6179   -0.9086 C   0  0  0  0  0  0  0  0  0  0  0  0
   -1.1725    2.2177   -1.5684 O   0  0  0  0  0  0  0  0  0  0  0  0
    0.9215    1.4110   -1.4532 N   0  0  0  0  0  0  0  0  0  0  0  0
    1.5622    0.8105   -0.9449 H   0  0  0  0  0  0  0  0  0  0  0  0
    1.2746    1.8221   -2.8093 C   0  0  0  0  0  0  0  0  0  0  0  0
    1.1251    2.9000   -2.9353 H   0  0  0  0  0  0  0  0  0  0  0  0
    2.3255    1.5958   -3.0145 H   0  0  0  0  0  0  0  0  0  0  0  0
    0.6569    1.2944   -3.5441 H   0  0  0  0  0  0  0  0  0  0  0  0
  1  2  1  0  0  0  0
  2  3  1  0  0  0  0
  2  4  1  0  0  0  0
  2  5  1  0  0  0  0
  5  6  2  0  0  0  0
  5  7  1  0  0  0  0
  7  8  1  0  0  0  0
  7  9  1  0  0  0  0
  9 10  1  0  0  0  0
  9 11  1  0  0  0  0
  9 27  1  0  0  0  0
 11 12  1  0  0  0  0
 11 13  1  0  0  0  0
 11 14  1  0  0  0  0
 14 15  1  0  0  0  0
 14 16  1  0  0  0  0
 14 17  1  0  0  0  0
 17 18  1  0  0  0  0
 17 19  1  0  0  0  0
 17 20  1  0  0  0  0
 20 21  1  0  0  0  0
 20 22  1  0  0  0  0
 20 23  1  0  0  0  0
 23 24  1  0  0  0  0
 23 25  1  0  0  0  0
 23 26  1  0  0  0  0
 27 28  2  0  0  0  0
 27 29  1  0  0  0  0
 29 30  1  0  0  0  0
 29 31  1  0  0  0  0
 31 32  1  0  0  0  0
 31 33  1  0  0  0  0
 31 34  1  0  0  0  0
M  CHG  1  23   1
M  END
$$$$

  -OEChem-01062216093D

 34 33  0     1  0  0  0  0  0999 V2000
   -4.1453   -2.1902    0.6744 H   0  0  0  0  0  0  0  0  0  0  0  0
   -3.9430   -1.1579    0.3740 C   0  0  0  0  0  0  0  0  0  0  0  0
   -4.6184   -0.4943    0.9194 H   0  0  0  0  0  0  0  0  0  0  0  0
   -4.1361   -1.0606   -0.6974 H   0  0  0  0  0  0  0  0  0  0  0  0
   -2.5016   -0.7945    0.6760 C   0  0  0  0  0  0  0  0  0  0  0  0
   -1.7624   -1.6551    1.1274 O   0  0  0  0  0  0  0  0  0  0  0  0
   -2.0739    0.4918    0.3923 N   0  0  0  0  0  0  0  0  0  0  0  0
   -2.7632    1.0597   -0.1016 H   0  0  0  0  0  0  0  0  0  0  0  0
   -0.7326    1.1149    0.4939 C   0  0  1  0  0  0  0  0  0  0  0  0
   -0.8687    2.0354    1.0709 H   0  0  0  0  0  0  0  0  0  0  0  0
    0.3811    0.3329    1.2324 C   0  0  0  0  0  0  0  0  0  0  0  0
    0.5051   -0.6581    0.7843 H   0  0  0  0  0  0  0  0  0  0  0  0
    1.3284    0.8671    1.1029 H   0  0  0  0  0  0  0  0  0  0  0  0
    0.1078    0.2144    2.7444 C   0  0  0  0  0  0  0  0  0  0  0  0
    0.0284    1.2202    3.1719 H   0  0  0  0  0  0  0  0  0  0  0  0
   -0.8421   -0.2909    2.9347 H   0  0  0  0  0  0  0  0  0  0  0  0
    1.2432   -0.5464    3.4358 C   0  0  0  0  0  0  0  0  0  0  0  0
    1.3342   -1.5414    2.9856 H   0  0  0  0  0  0  0  0  0  0  0  0
    2.1887   -0.0144    3.2845 H   0  0  0  0  0  0  0  0  0  0  0  0
    0.9448   -0.6772    4.9268 C   0  0  0  0  0  0  0  0  0  0  0  0
    0.8423    0.3260    5.3659 H   0  0  0  0  0  0  0  0  0  0  0  0
   -0.0212   -1.1880    5.0552 H   0  0  0  0  0  0  0  0  0  0  0  0
    2.0375   -1.4349    5.5738 N   0  3  0  0  0  0  0  0  0  0  0  0
    2.9257   -0.9470    5.4461 H   0  0  0  0  0  0  0  0  0  0  0  0
    1.8527   -1.5337    6.5742 H   0  0  0  0  0  0  0  0  0  0  0  0
    2.1071   -2.3655    5.1567 H   0  0  0  0  0  0  0  0  0  0  0  0
   -0.3135    1.6022   -0.9112 C   0  0  0  0  0  0  0  0  0  0  0  0
   -1.0452    2.3959   -1.4859 O   0  0  0  0  0  0  0  0  0  0  0  0
    0.8211    1.1402   -1.5550 N   0  0  0  0  0  0  0  0  0  0  0  0
    1.3178    0.3659   -1.1257 H   0  0  0  0  0  0  0  0  0  0  0  0
    1.1626    1.5172   -2.9235 C   0  0  0  0  0  0  0  0  0  0  0  0
    1.2564    2.6051   -3.0107 H   0  0  0  0  0  0  0  0  0  0  0  0
    2.1163    1.0666   -3.2151 H   0  0  0  0  0  0  0  0  0  0  0  0
    0.3896    1.1756   -3.6203 H   0  0  0  0  0  0  0  0  0  0  0  0
  1  2  1  0  0  0  0
  2  3  1  0  0  0  0
  2  4  1  0  0  0  0
  2  5  1  0  0  0  0
  5  6  2  0  0  0  0
  5  7  1  0  0  0  0
  7  8  1  0  0  0  0
  7  9  1  0  0  0  0
  9 10  1  0  0  0  0
  9 11  1  0  0  0  0
  9 27  1  0  0  0  0
 11 12  1  0  0  0  0
 11 13  1  0  0  0  0
 11 14  1  0  0  0  0
 14 15  1  0  0  0  0
 14 16  1  0  0  0  0
 14 17  1  0  0  0  0
 17 18  1  0  0  0  0
 17 19  1  0  0  0  0
 17 20  1  0  0  0  0
 20 21  1  0  0  0  0
 20 22  1  0  0  0  0
 20 23  1  0  0  0  0
 23 24  1  0  0  0  0
 23 25  1  0  0  0  0
 23 26  1  0  0  0  0
 27 28  2  0  0  0  0
 27 29  1  0  0  0  0
 29 30  1  0  0  0  0
 29 31  1  0  0  0  0
 31 32  1  0  0  0  0
 31 33  1  0  0  0  0
 31 34  1  0  0  0  0
M  CHG  1  23   1
M  END
$$$$

  -OEChem-01062216093D

 34 33  0     1  0  0  0  0  0999 V2000
   -4.1587   -2.1927    0.7040 H   0  0  0  0  0  0  0  0  0  0  0  0
   -3.9592   -1.1611    0.4002 C   0  0  0  0  0  0  0  0  0  0  0  0
   -4.6213   -0.4964    0.9605 H   0  0  0  0  0  0  0  0  0  0  0  0
   -4.1746   -1.0626   -0.6669 H   0  0  0  0  0  0  0  0  0  0  0  0
   -2.5100   -0.8030    0.6711 C   0  0  0  0  0  0  0  0  0  0  0  0
   -1.7622   -1.6652    1.1044 O   0  0  0  0  0  0  0  0  0  0  0  0
   -2.0815    0.4804    0.3758 N   0  0  0  0  0  0  0  0  0  0  0  0
   -2.7866    1.0630   -0.0756 H   0  0  0  0  0  0  0  0  0  0  0  0
   -0.7399    1.1018    0.4811 C   0  0  1  0  0  0  0  0  0  0  0  0
   -0.8790    2.0245    1.0543 H   0  0  0  0  0  0  0  0  0  0  0  0
    0.3744    0.3269    1.2242 C   0  0  0  0  0  0  0  0  0  0  0  0
    0.5018   -0.6658    0.7813 H   0  0  0  0  0  0  0  0  0  0  0  0
    1.3197    0.8637    1.0881 H   0  0  0  0  0  0  0  0  0  0  0  0
    0.1024    0.2123    2.7360 C   0  0  0  0  0  0  0  0  0  0  0  0
    0.0199    1.2188    3.1608 H   0  0  0  0  0  0  0  0  0  0  0  0
   -0.8452   -0.2975    2.9269 H   0  0  0  0  0  0  0  0  0  0  0  0
    1.2420   -0.5421    3.4272 C   0  0  0  0  0  0  0  0  0  0  0  0
    1.3373   -1.5377    2.9791 H   0  0  0  0  0  0  0  0  0  0  0  0
    2.1849   -0.0062    3.2730 H   0  0  0  0  0  0  0  0  0  0  0  0
    0.9468   -0.6702    4.9190 C   0  0  0  0  0  0  0  0  0  0  0  0
    0.8416    0.3338    5.3557 H   0  0  0  0  0  0  0  0  0  0  0  0
   -0.0169   -1.1842    5.0512 H   0  0  0  0  0  0  0  0  0  0  0  0
    2.0441   -1.4220    5.5650 N   0  3  0  0  0  0  0  0  0  0  0  0
    2.9300   -0.9307    5.4341 H   0  0  0  0  0  0  0  0  0  0  0  0
    1.8620   -1.5193    6.5661 H   0  0  0  0  0  0  0  0  0  0  0  0
    2.1168   -2.3532    5.1497 H   0  0  0  0  0  0  0  0  0  0  0  0
   -0.2990    1.5769   -0.9189 C   0  0  0  0  0  0  0  0  0  0  0  0
   -0.8585    2.5494   -1.4034 O   0  0  0  0  0  0  0  0  0  0  0  0
    0.6525    0.8987   -1.6598 N   0  0  0  0  0  0  0  0  0  0  0  0
    0.9681    0.0023   -1.3011 H   0  0  0  0  0  0  0  0  0  0  0  0
    0.9918    1.2616   -3.0324 C   0  0  0  0  0  0  0  0  0  0  0  0
    1.3336    2.3011   -3.0814 H   0  0  0  0  0  0  0  0  0  0  0  0
    1.7938    0.6192   -3.4089 H   0  0  0  0  0  0  0  0  0  0  0  0
    0.1206    1.1481   -3.6865 H   0  0  0  0  0  0  0  0  0  0  0  0
  1  2  1  0  0  0  0
  2  3  1  0  0  0  0
  2  4  1  0  0  0  0
  2  5  1  0  0  0  0
  5  6  2  0  0  0  0
  5  7  1  0  0  0  0
  7  8  1  0  0  0  0
  7  9  1  0  0  0  0
  9 10  1  0  0  0  0
  9 11  1  0  0  0  0
  9 27  1  0  0  0  0
 11 12  1  0  0  0  0
 11 13  1  0  0  0  0
 11 14  1  0  0  0  0
 14 15  1  0  0  0  0
 14 16  1  0  0  0  0
 14 17  1  0  0  0  0
 17 18  1  0  0  0  0
 17 19  1  0  0  0  0
 17 20  1  0  0  0  0
 20 21  1  0  0  0  0
 20 22  1  0  0  0  0
 20 23  1  0  0  0  0
 23 24  1  0  0  0  0
 23 25  1  0  0  0  0
 23 26  1  0  0  0  0
 27 28  2  0  0  0  0
 27 29  1  0  0  0  0
 29 30  1  0  0  0  0
 29 31  1  0  0  0  0
 31 32  1  0  0  0  0
 31 33  1  0  0  0  0
 31 34  1  0  0  0  0
M  CHG  1  23   1
M  END
$$$$

  -OEChem-01062216093D

 34 33  0     1  0  0  0  0  0999 V2000
   -4.1786   -2.1961    0.7515 H   0  0  0  0  0  0  0  0  0  0  0  0
   -3.9841   -1.1660    0.4392 C   0  0  0  0  0  0  0  0  0  0  0  0
   -4.6281   -0.4975    1.0159 H   0  0  0  0  0  0  0  0  0  0  0  0
   -4.2297   -1.0700   -0.6215 H   0  0  0  0  0  0  0  0  0  0  0  0
   -2.5264   -0.8125    0.6681 C   0  0  0  0  0  0  0  0  0  0  0  0
   -1.7668   -1.6777    1.0732 O   0  0  0  0  0  0  0  0  0  0  0  0
   -2.0997    0.4680    0.3585 N   0  0  0  0  0  0  0  0  0  0  0  0
   -2.8210    1.0630   -0.0477 H   0  0  0  0  0  0  0  0  0  0  0  0
   -0.7588    1.0916    0.4667 C   0  0  1  0  0  0  0  0  0  0  0  0
   -0.9025    2.0167    1.0354 H   0  0  0  0  0  0  0  0  0  0  0  0
    0.3602    0.3256    1.2111 C   0  0  0  0  0  0  0  0  0  0  0  0
    0.4940   -0.6673    0.7704 H   0  0  0  0  0  0  0  0  0  0  0  0
    1.3019    0.8677    1.0705 H   0  0  0  0  0  0  0  0  0  0  0  0
    0.0914    0.2108    2.7229 C   0  0  0  0  0  0  0  0  0  0  0  0
    0.0002    1.2169    3.1472 H   0  0  0  0  0  0  0  0  0  0  0  0
   -0.8512   -0.3082    2.9137 H   0  0  0  0  0  0  0  0  0  0  0  0
    1.2388   -0.5350    3.4115 C   0  0  0  0  0  0  0  0  0  0  0  0
    1.3409   -1.5297    2.9629 H   0  0  0  0  0  0  0  0  0  0  0  0
    2.1768    0.0088    3.2542 H   0  0  0  0  0  0  0  0  0  0  0  0
    0.9516   -0.6662    4.9045 C   0  0  0  0  0  0  0  0  0  0  0  0
    0.8396    0.3365    5.3427 H   0  0  0  0  0  0  0  0  0  0  0  0
   -0.0069   -1.1890    5.0412 H   0  0  0  0  0  0  0  0  0  0  0  0
    2.0588   -1.4097    5.5433 N   0  3  0  0  0  0  0  0  0  0  0  0
    2.9400   -0.9113    5.4061 H   0  0  0  0  0  0  0  0  0  0  0  0
    1.8845   -1.5083    6.5457 H   0  0  0  0  0  0  0  0  0  0  0  0
    2.1359   -2.3403    5.1274 H   0  0  0  0  0  0  0  0  0  0  0  0
   -0.2974    1.5514   -0.9301 C   0  0  0  0  0  0  0  0  0  0  0  0
   -0.6205    2.6625   -1.3218 O   0  0  0  0  0  0  0  0  0  0  0  0
    0.4213    0.7120   -1.7617 N   0  0  0  0  0  0  0  0  0  0  0  0
    0.5278   -0.2539   -1.4642 H   0  0  0  0  0  0  0  0  0  0  0  0
    0.7784    1.0676   -3.1313 C   0  0  0  0  0  0  0  0  0  0  0  0
    1.3645    1.9928   -3.1477 H   0  0  0  0  0  0  0  0  0  0  0  0
    1.3789    0.2736   -3.5860 H   0  0  0  0  0  0  0  0  0  0  0  0
   -0.1220    1.2120   -3.7380 H   0  0  0  0  0  0  0  0  0  0  0  0
  1  2  1  0  0  0  0
  2  3  1  0  0  0  0
  2  4  1  0  0  0  0
  2  5  1  0  0  0  0
  5  6  2  0  0  0  0
  5  7  1  0  0  0  0
  7  8  1  0  0  0  0
  7  9  1  0  0  0  0
  9 10  1  0  0  0  0
  9 11  1  0  0  0  0
  9 27  1  0  0  0  0
 11 12  1  0  0  0  0
 11 13  1  0  0  0  0
 11 14  1  0  0  0  0
 14 15  1  0  0  0  0
 14 16  1  0  0  0  0
 14 17  1  0  0  0  0
 17 18  1  0  0  0  0
 17 19  1  0  0  0  0
 17 20  1  0  0  0  0
 20 21  1  0  0  0  0
 20 22  1  0  0  0  0
 20 23  1  0  0  0  0
 23 24  1  0  0  0  0
 23 25  1  0  0  0  0
 23 26  1  0  0  0  0
 27 28  2  0  0  0  0
 27 29  1  0  0  0  0
 29 30  1  0  0  0  0
 29 31  1  0  0  0  0
 31 32  1  0  0  0  0
 31 33  1  0  0  0  0
 31 34  1  0  0  0  0
M  CHG  1  23   1
M  END
$$$$

  -OEChem-01062216093D

 34 33  0     1  0  0  0  0  0999 V2000
   -4.1941   -2.2026    0.8227 H   0  0  0  0  0  0  0  0  0  0  0  0
   -4.0089   -1.1758    0.4945 C   0  0  0  0  0  0  0  0  0  0  0  0
   -4.6321   -0.5010    1.0865 H   0  0  0  0  0  0  0  0  0  0  0  0
   -4.2892   -1.0890   -0.5583 H   0  0  0  0  0  0  0  0  0  0  0  0
   -2.5443   -0.8232    0.6726 C   0  0  0  0  0  0  0  0  0  0  0  0
   -1.7716   -1.6889    1.0500 O   0  0  0  0  0  0  0  0  0  0  0  0
   -2.1255    0.4554    0.3447 N   0  0  0  0  0  0  0  0  0  0  0  0
   -2.8619    1.0543   -0.0260 H   0  0  0  0  0  0  0  0  0  0  0  0
   -0.7875    1.0873    0.4518 C   0  0  1  0  0  0  0  0  0  0  0  0
   -0.9367    2.0152    1.0150 H   0  0  0  0  0  0  0  0  0  0  0  0
    0.3371    0.3296    1.1947 C   0  0  0  0  0  0  0  0  0  0  0  0
    0.4799   -0.6608    0.7517 H   0  0  0  0  0  0  0  0  0  0  0  0
    1.2740    0.8795    1.0521 H   0  0  0  0  0  0  0  0  0  0  0  0
    0.0748    0.2112    2.7071 C   0  0  0  0  0  0  0  0  0  0  0  0
   -0.0215    1.2159    3.1333 H   0  0  0  0  0  0  0  0  0  0  0  0
   -0.8630   -0.3153    2.9008 H   0  0  0  0  0  0  0  0  0  0  0  0
    1.2314   -0.5275    3.3880 C   0  0  0  0  0  0  0  0  0  0  0  0
    1.3384   -1.5204    2.9364 H   0  0  0  0  0  0  0  0  0  0  0  0
    2.1646    0.0233    3.2262 H   0  0  0  0  0  0  0  0  0  0  0  0
    0.9554   -0.6649    4.8826 C   0  0  0  0  0  0  0  0  0  0  0  0
    0.8395    0.3357    5.3241 H   0  0  0  0  0  0  0  0  0  0  0  0
    0.0018   -1.1949    5.0239 H   0  0  0  0  0  0  0  0  0  0  0  0
    2.0725   -1.4016    5.5122 N   0  3  0  0  0  0  0  0  0  0  0  0
    2.9484   -0.8946    5.3729 H   0  0  0  0  0  0  0  0  0  0  0  0
    1.9045   -1.5064    6.5150 H   0  0  0  0  0  0  0  0  0  0  0  0
    2.1563   -2.3293    5.0914 H   0  0  0  0  0  0  0  0  0  0  0  0
   -0.3116    1.5307   -0.9440 C   0  0  0  0  0  0  0  0  0  0  0  0
   -0.3457    2.7150   -1.2402 O   0  0  0  0  0  0  0  0  0  0  0  0
    0.1403    0.6014   -1.8620 N   0  0  0  0  0  0  0  0  0  0  0  0
    0.0454   -0.3801   -1.6137 H   0  0  0  0  0  0  0  0  0  0  0  0
    0.5352    0.9519   -3.2221 C   0  0  0  0  0  0  0  0  0  0  0  0
    1.3393    1.6957   -3.2088 H   0  0  0  0  0  0  0  0  0  0  0  0
    0.8963    0.0659   -3.7537 H   0  0  0  0  0  0  0  0  0  0  0  0
   -0.3154    1.3654   -3.7746 H   0  0  0  0  0  0  0  0  0  0  0  0
  1  2  1  0  0  0  0
  2  3  1  0  0  0  0
  2  4  1  0  0  0  0
  2  5  1  0  0  0  0
  5  6  2  0  0  0  0
  5  7  1  0  0  0  0
  7  8  1  0  0  0  0
  7  9  1  0  0  0  0
  9 10  1  0  0  0  0
  9 11  1  0  0  0  0
  9 27  1  0  0  0  0
 11 12  1  0  0  0  0
 11 13  1  0  0  0  0
 11 14  1  0  0  0  0
 14 15  1  0  0  0  0
 14 16  1  0  0  0  0
 14 17  1  0  0  0  0
 17 18  1  0  0  0  0
 17 19  1  0  0  0  0
 17 20  1  0  0  0  0
 20 21  1  0  0  0  0
 20 22  1  0  0  0  0
 20 23  1  0  0  0  0
 23 24  1  0  0  0  0
 23 25  1  0  0  0  0
 23 26  1  0  0  0  0
 27 28  2  0  0  0  0
 27 29  1  0  0  0  0
 29 30  1  0  0  0  0
 29 31  1  0  0  0  0
 31 32  1  0  0  0  0
 31 33  1  0  0  0  0
 31 34  1  0  0  0  0
M  CHG  1  23   1
M  END
$$$$

  -OEChem-01062216093D

 34 33  0     1  0  0  0  0  0999 V2000
   -4.2174   -2.2104    0.8722 H   0  0  0  0  0  0  0  0  0  0  0  0
   -4.0391   -1.1838    0.5385 C   0  0  0  0  0  0  0  0  0  0  0  0
   -4.6490   -0.5083    1.1433 H   0  0  0  0  0  0  0  0  0  0  0  0
   -4.3428   -1.0985   -0.5080 H   0  0  0  0  0  0  0  0  0  0  0  0
   -2.5707   -0.8314    0.6834 C   0  0  0  0  0  0  0  0  0  0  0  0
   -1.7906   -1.6973    1.0433 O   0  0  0  0  0  0  0  0  0  0  0  0
   -2.1568    0.4452    0.3411 N   0  0  0  0  0  0  0  0  0  0  0  0
   -2.9038    1.0466   -0.0026 H   0  0  0  0  0  0  0  0  0  0  0  0
   -0.8204    1.0844    0.4435 C   0  0  1  0  0  0  0  0  0  0  0  0
   -0.9722    2.0149    1.0015 H   0  0  0  0  0  0  0  0  0  0  0  0
    0.3093    0.3334    1.1832 C   0  0  0  0  0  0  0  0  0  0  0  0
    0.4562   -0.6555    0.7381 H   0  0  0  0  0  0  0  0  0  0  0  0
    1.2426    0.8885    1.0357 H   0  0  0  0  0  0  0  0  0  0  0  0
    0.0563    0.2127    2.6970 C   0  0  0  0  0  0  0  0  0  0  0  0
   -0.0428    1.2165    3.1251 H   0  0  0  0  0  0  0  0  0  0  0  0
   -0.8767   -0.3205    2.8962 H   0  0  0  0  0  0  0  0  0  0  0  0
    1.2230   -0.5204    3.3665 C   0  0  0  0  0  0  0  0  0  0  0  0
    1.3315   -1.5116    2.9118 H   0  0  0  0  0  0  0  0  0  0  0  0
    2.1510    0.0365    3.1965 H   0  0  0  0  0  0  0  0  0  0  0  0
    0.9634   -0.6638    4.8630 C   0  0  0  0  0  0  0  0  0  0  0  0
    0.8469    0.3349    5.3086 H   0  0  0  0  0  0  0  0  0  0  0  0
    0.0146   -1.2001    5.0141 H   0  0  0  0  0  0  0  0  0  0  0  0
    2.0928   -1.3955    5.4758 N   0  3  0  0  0  0  0  0  0  0  0  0
    2.9637   -0.8832    5.3249 H   0  0  0  0  0  0  0  0  0  0  0  0
    1.9395   -1.5032    6.4806 H   0  0  0  0  0  0  0  0  0  0  0  0
    2.1758   -2.3219    5.0518 H   0  0  0  0  0  0  0  0  0  0  0  0
   -0.3318    1.5180   -0.9506 C   0  0  0  0  0  0  0  0  0  0  0  0
   -0.0689    2.6923   -1.1591 O   0  0  0  0  0  0  0  0  0  0  0  0
   -0.1635    0.5819   -1.9531 N   0  0  0  0  0  0  0  0  0  0  0  0
   -0.4293   -0.3772   -1.7439 H   0  0  0  0  0  0  0  0  0  0  0  0
    0.2706    0.9224   -3.3036 C   0  0  0  0  0  0  0  0  0  0  0  0
    1.2458    1.4203   -3.2795 H   0  0  0  0  0  0  0  0  0  0  0  0
    0.3611    0.0178   -3.9130 H   0  0  0  0  0  0  0  0  0  0  0  0
   -0.4528    1.5909   -3.7826 H   0  0  0  0  0  0  0  0  0  0  0  0
  1  2  1  0  0  0  0
  2  3  1  0  0  0  0
  2  4  1  0  0  0  0
  2  5  1  0  0  0  0
  5  6  2  0  0  0  0
  5  7  1  0  0  0  0
  7  8  1  0  0  0  0
  7  9  1  0  0  0  0
  9 10  1  0  0  0  0
  9 11  1  0  0  0  0
  9 27  1  0  0  0  0
 11 12  1  0  0  0  0
 11 13  1  0  0  0  0
 11 14  1  0  0  0  0
 14 15  1  0  0  0  0
 14 16  1  0  0  0  0
 14 17  1  0  0  0  0
 17 18  1  0  0  0  0
 17 19  1  0  0  0  0
 17 20  1  0  0  0  0
 20 21  1  0  0  0  0
 20 22  1  0  0  0  0
 20 23  1  0  0  0  0
 23 24  1  0  0  0  0
 23 25  1  0  0  0  0
 23 26  1  0  0  0  0
 27 28  2  0  0  0  0
 27 29  1  0  0  0  0
 29 30  1  0  0  0  0
 29 31  1  0  0  0  0
 31 32  1  0  0  0  0
 31 33  1  0  0  0  0
 31 34  1  0  0  0  0
M  CHG  1  23   1
M  END
$$$$

  -OEChem-01062216093D

 34 33  0     1  0  0  0  0  0999 V2000
   -4.2415   -2.2227    0.9046 H   0  0  0  0  0  0  0  0  0  0  0  0
   -4.0686   -1.1950    0.5724 C   0  0  0  0  0  0  0  0  0  0  0  0
   -4.6739   -0.5230    1.1858 H   0  0  0  0  0  0  0  0  0  0  0  0
   -4.3829   -1.1074   -0.4708 H   0  0  0  0  0  0  0  0  0  0  0  0
   -2.5994   -0.8406    0.7036 C   0  0  0  0  0  0  0  0  0  0  0  0
   -1.8158   -1.7041    1.0604 O   0  0  0  0  0  0  0  0  0  0  0  0
   -2.1919    0.4348    0.3491 N   0  0  0  0  0  0  0  0  0  0  0  0
   -2.9467    1.0334    0.0181 H   0  0  0  0  0  0  0  0  0  0  0  0
   -0.8568    1.0826    0.4402 C   0  0  1  0  0  0  0  0  0  0  0  0
   -1.0101    2.0146    0.9948 H   0  0  0  0  0  0  0  0  0  0  0  0
    0.2796    0.3360    1.1745 C   0  0  0  0  0  0  0  0  0  0  0  0
    0.4265   -0.6522    0.7277 H   0  0  0  0  0  0  0  0  0  0  0  0
    1.2109    0.8931    1.0213 H   0  0  0  0  0  0  0  0  0  0  0  0
    0.0407    0.2148    2.6901 C   0  0  0  0  0  0  0  0  0  0  0  0
   -0.0568    1.2184    3.1185 H   0  0  0  0  0  0  0  0  0  0  0  0
   -0.8885   -0.3211    2.8987 H   0  0  0  0  0  0  0  0  0  0  0  0
    1.2175   -0.5145    3.3465 C   0  0  0  0  0  0  0  0  0  0  0  0
    1.3252   -1.5048    2.8890 H   0  0  0  0  0  0  0  0  0  0  0  0
    2.1413    0.0465    3.1669 H   0  0  0  0  0  0  0  0  0  0  0  0
    0.9761   -0.6610    4.8454 C   0  0  0  0  0  0  0  0  0  0  0  0
    0.8606    0.3367    5.2938 H   0  0  0  0  0  0  0  0  0  0  0  0
    0.0315   -1.2015    5.0062 H   0  0  0  0  0  0  0  0  0  0  0  0
    2.1157   -1.3889    5.4440 N   0  3  0  0  0  0  0  0  0  0  0  0
    2.9834   -0.8753    5.2787 H   0  0  0  0  0  0  0  0  0  0  0  0
    1.9773   -1.4938    6.4512 H   0  0  0  0  0  0  0  0  0  0  0  0
    2.1946   -2.3163    5.0216 H   0  0  0  0  0  0  0  0  0  0  0  0
   -0.3623    1.5133   -0.9534 C   0  0  0  0  0  0  0  0  0  0  0  0
    0.1714    2.6034   -1.0905 O   0  0  0  0  0  0  0  0  0  0  0  0
   -0.4733    0.6573   -2.0325 N   0  0  0  0  0  0  0  0  0  0  0  0
   -0.8827   -0.2576   -1.8610 H   0  0  0  0  0  0  0  0  0  0  0  0
    0.0039    0.9862   -3.3713 C   0  0  0  0  0  0  0  0  0  0  0  0
    1.0793    1.1931   -3.3559 H   0  0  0  0  0  0  0  0  0  0  0  0
   -0.1767    0.1509   -4.0550 H   0  0  0  0  0  0  0  0  0  0  0  0
   -0.5182    1.8676   -3.7590 H   0  0  0  0  0  0  0  0  0  0  0  0
  1  2  1  0  0  0  0
  2  3  1  0  0  0  0
  2  4  1  0  0  0  0
  2  5  1  0  0  0  0
  5  6  2  0  0  0  0
  5  7  1  0  0  0  0
  7  8  1  0  0  0  0
  7  9  1  0  0  0  0
  9 10  1  0  0  0  0
  9 11  1  0  0  0  0
  9 27  1  0  0  0  0
 11 12  1  0  0  0  0
 11 13  1  0  0  0  0
 11 14  1  0  0  0  0
 14 15  1  0  0  0  0
 14 16  1  0  0  0  0
 14 17  1  0  0  0  0
 17 18  1  0  0  0  0
 17 19  1  0  0  0  0
 17 20  1  0  0  0  0
 20 21  1  0  0  0  0
 20 22  1  0  0  0  0
 20 23  1  0  0  0  0
 23 24  1  0  0  0  0
 23 25  1  0  0  0  0
 23 26  1  0  0  0  0
 27 28  2  0  0  0  0
 27 29  1  0  0  0  0
 29 30  1  0  0  0  0
 29 31  1  0  0  0  0
 31 32  1  0  0  0  0
 31 33  1  0  0  0  0
 31 34  1  0  0  0  0
M  CHG  1  23   1
M  END
$$$$

  -OEChem-01062216093D

 34 33  0     1  0  0  0  0  0999 V2000
   -4.2505   -2.2335    0.9477 H   0  0  0  0  0  0  0  0  0  0  0  0
   -4.0820   -1.2091    0.6030 C   0  0  0  0  0  0  0  0  0  0  0  0
   -4.6828   -0.5312    1.2143 H   0  0  0  0  0  0  0  0  0  0  0  0
   -4.4057   -1.1330   -0.4382 H   0  0  0  0  0  0  0  0  0  0  0  0
   -2.6121   -0.8518    0.7184 C   0  0  0  0  0  0  0  0  0  0  0  0
   -1.8253   -1.7133    1.0724 O   0  0  0  0  0  0  0  0  0  0  0  0
   -2.2117    0.4248    0.3579 N   0  0  0  0  0  0  0  0  0  0  0  0
   -2.9735    1.0222    0.0416 H   0  0  0  0  0  0  0  0  0  0  0  0
   -0.8776    1.0795    0.4370 C   0  0  1  0  0  0  0  0  0  0  0  0
   -1.0301    2.0119    0.9906 H   0  0  0  0  0  0  0  0  0  0  0  0
    0.2625    0.3336    1.1684 C   0  0  0  0  0  0  0  0  0  0  0  0
    0.4061   -0.6549    0.7208 H   0  0  0  0  0  0  0  0  0  0  0  0
    1.1948    0.8880    1.0117 H   0  0  0  0  0  0  0  0  0  0  0  0
    0.0325    0.2153    2.6852 C   0  0  0  0  0  0  0  0  0  0  0  0
   -0.0619    1.2194    3.1133 H   0  0  0  0  0  0  0  0  0  0  0  0
   -0.8952   -0.3206    2.9007 H   0  0  0  0  0  0  0  0  0  0  0  0
    1.2134   -0.5134    3.3342 C   0  0  0  0  0  0  0  0  0  0  0  0
    1.3174   -1.5042    2.8771 H   0  0  0  0  0  0  0  0  0  0  0  0
    2.1365    0.0466    3.1475 H   0  0  0  0  0  0  0  0  0  0  0  0
    0.9815   -0.6571    4.8349 C   0  0  0  0  0  0  0  0  0  0  0  0
    0.8698    0.3415    5.2820 H   0  0  0  0  0  0  0  0  0  0  0  0
    0.0376   -1.1966    5.0033 H   0  0  0  0  0  0  0  0  0  0  0  0
    2.1248   -1.3845    5.4265 N   0  3  0  0  0  0  0  0  0  0  0  0
    2.9917   -0.8725    5.2529 H   0  0  0  0  0  0  0  0  0  0  0  0
    1.9941   -1.4868    6.4349 H   0  0  0  0  0  0  0  0  0  0  0  0
    2.1990   -2.3129    5.0055 H   0  0  0  0  0  0  0  0  0  0  0  0
   -0.3832    1.5153   -0.9573 C   0  0  0  0  0  0  0  0  0  0  0  0
    0.3636    2.4777   -1.0529 O   0  0  0  0  0  0  0  0  0  0  0  0
   -0.7531    0.8166   -2.0910 N   0  0  0  0  0  0  0  0  0  0  0  0
   -1.2946   -0.0326   -1.9548 H   0  0  0  0  0  0  0  0  0  0  0  0
   -0.2703    1.1452   -3.4279 C   0  0  0  0  0  0  0  0  0  0  0  0
    0.8222    1.0802   -3.4685 H   0  0  0  0  0  0  0  0  0  0  0  0
   -0.6854    0.4498   -4.1639 H   0  0  0  0  0  0  0  0  0  0  0  0
   -0.5722    2.1608   -3.7059 H   0  0  0  0  0  0  0  0  0  0  0  0
  1  2  1  0  0  0  0
  2  3  1  0  0  0  0
  2  4  1  0  0  0  0
  2  5  1  0  0  0  0
  5  6  2  0  0  0  0
  5  7  1  0  0  0  0
  7  8  1  0  0  0  0
  7  9  1  0  0  0  0
  9 10  1  0  0  0  0
  9 11  1  0  0  0  0
  9 27  1  0  0  0  0
 11 12  1  0  0  0  0
 11 13  1  0  0  0  0
 11 14  1  0  0  0  0
 14 15  1  0  0  0  0
 14 16  1  0  0  0  0
 14 17  1  0  0  0  0
 17 18  1  0  0  0  0
 17 19  1  0  0  0  0
 17 20  1  0  0  0  0
 20 21  1  0  0  0  0
 20 22  1  0  0  0  0
 20 23  1  0  0  0  0
 23 24  1  0  0  0  0
 23 25  1  0  0  0  0
 23 26  1  0  0  0  0
 27 28  2  0  0  0  0
 27 29  1  0  0  0  0
 29 30  1  0  0  0  0
 29 31  1  0  0  0  0
 31 32  1  0  0  0  0
 31 33  1  0  0  0  0
 31 34  1  0  0  0  0
M  CHG  1  23   1
M  END
$$$$

  -OEChem-01062216093D

 34 33  0     1  0  0  0  0  0999 V2000
   -4.2491   -2.2448    0.9739 H   0  0  0  0  0  0  0  0  0  0  0  0
   -4.0854   -1.2205    0.6259 C   0  0  0  0  0  0  0  0  0  0  0  0
   -4.6810   -0.5428    1.2422 H   0  0  0  0  0  0  0  0  0  0  0  0
   -4.4205   -1.1469   -0.4117 H   0  0  0  0  0  0  0  0  0  0  0  0
   -2.6145   -0.8605    0.7250 C   0  0  0  0  0  0  0  0  0  0  0  0
   -1.8261   -1.7194    1.0809 O   0  0  0  0  0  0  0  0  0  0  0  0
   -2.2200    0.4171    0.3587 N   0  0  0  0  0  0  0  0  0  0  0  0
   -2.9893    1.0159    0.0643 H   0  0  0  0  0  0  0  0  0  0  0  0
   -0.8885    1.0812    0.4317 C   0  0  1  0  0  0  0  0  0  0  0  0
   -1.0431    2.0154    0.9815 H   0  0  0  0  0  0  0  0  0  0  0  0
    0.2504    0.3350    1.1681 C   0  0  0  0  0  0  0  0  0  0  0  0
    0.3945   -0.6539    0.7220 H   0  0  0  0  0  0  0  0  0  0  0  0
    1.1849    0.8864    1.0143 H   0  0  0  0  0  0  0  0  0  0  0  0
    0.0216    0.2186    2.6857 C   0  0  0  0  0  0  0  0  0  0  0  0
   -0.0704    1.2231    3.1129 H   0  0  0  0  0  0  0  0  0  0  0  0
   -0.9062   -0.3161    2.9043 H   0  0  0  0  0  0  0  0  0  0  0  0
    1.2048   -0.5112    3.3303 C   0  0  0  0  0  0  0  0  0  0  0  0
    1.3064   -1.5016    2.8721 H   0  0  0  0  0  0  0  0  0  0  0  0
    2.1274    0.0479    3.1389 H   0  0  0  0  0  0  0  0  0  0  0  0
    0.9825   -0.6577    4.8318 C   0  0  0  0  0  0  0  0  0  0  0  0
    0.8745    0.3398    5.2819 H   0  0  0  0  0  0  0  0  0  0  0  0
    0.0399   -1.1976    5.0054 H   0  0  0  0  0  0  0  0  0  0  0  0
    2.1306   -1.3863    5.4127 N   0  3  0  0  0  0  0  0  0  0  0  0
    2.9958   -0.8728    5.2347 H   0  0  0  0  0  0  0  0  0  0  0  0
    2.0074   -1.4923    6.4216 H   0  0  0  0  0  0  0  0  0  0  0  0
    2.2027   -2.3132    4.9876 H   0  0  0  0  0  0  0  0  0  0  0  0
   -0.3921    1.5181   -0.9648 C   0  0  0  0  0  0  0  0  0  0  0  0
    0.5090    2.3396   -1.0509 O   0  0  0  0  0  0  0  0  0  0  0  0
   -0.9778    1.0275   -2.1174 N   0  0  0  0  0  0  0  0  0  0  0  0
   -1.6316    0.2579   -2.0067 H   0  0  0  0  0  0  0  0  0  0  0  0
   -0.5202    1.3778   -3.4581 C   0  0  0  0  0  0  0  0  0  0  0  0
    0.5195    1.0658   -3.6035 H   0  0  0  0  0  0  0  0  0  0  0  0
   -1.1392    0.8820   -4.2124 H   0  0  0  0  0  0  0  0  0  0  0  0
   -0.5872    2.4596   -3.6163 H   0  0  0  0  0  0  0  0  0  0  0  0
  1  2  1  0  0  0  0
  2  3  1  0  0  0  0
  2  4  1  0  0  0  0
  2  5  1  0  0  0  0
  5  6  2  0  0  0  0
  5  7  1  0  0  0  0
  7  8  1  0  0  0  0
  7  9  1  0  0  0  0
  9 10  1  0  0  0  0
  9 11  1  0  0  0  0
  9 27  1  0  0  0  0
 11 12  1  0  0  0  0
 11 13  1  0  0  0  0
 11 14  1  0  0  0  0
 14 15  1  0  0  0  0
 14 16  1  0  0  0  0
 14 17  1  0  0  0  0
 17 18  1  0  0  0  0
 17 19  1  0  0  0  0
 17 20  1  0  0  0  0
 20 21  1  0  0  0  0
 20 22  1  0  0  0  0
 20 23  1  0  0  0  0
 23 24  1  0  0  0  0
 23 25  1  0  0  0  0
 23 26  1  0  0  0  0
 27 28  2  0  0  0  0
 27 29  1  0  0  0  0
 29 30  1  0  0  0  0
 29 31  1  0  0  0  0
 31 32  1  0  0  0  0
 31 33  1  0  0  0  0
 31 34  1  0  0  0  0
M  CHG  1  23   1
M  END
$$$$

  -OEChem-01062216093D

 34 33  0     1  0  0  0  0  0999 V2000
   -4.2404   -2.2524    0.9925 H   0  0  0  0  0  0  0  0  0  0  0  0
   -4.0793   -1.2301    0.6376 C   0  0  0  0  0  0  0  0  0  0  0  0
   -4.6689   -0.5490    1.2560 H   0  0  0  0  0  0  0  0  0  0  0  0
   -4.4237   -1.1620   -0.3973 H   0  0  0  0  0  0  0  0  0  0  0  0
   -2.6071   -0.8707    0.7219 C   0  0  0  0  0  0  0  0  0  0  0  0
   -1.8172   -1.7288    1.0761 O   0  0  0  0  0  0  0  0  0  0  0  0
   -2.2186    0.4089    0.3546 N   0  0  0  0  0  0  0  0  0  0  0  0
   -2.9958    1.0107    0.0899 H   0  0  0  0  0  0  0  0  0  0  0  0
   -0.8893    1.0799    0.4237 C   0  0  1  0  0  0  0  0  0  0  0  0
   -1.0458    2.0146    0.9714 H   0  0  0  0  0  0  0  0  0  0  0  0
    0.2473    0.3329    1.1676 C   0  0  0  0  0  0  0  0  0  0  0  0
    0.3921   -0.6564    0.7224 H   0  0  0  0  0  0  0  0  0  0  0  0
    1.1848    0.8801    1.0202 H   0  0  0  0  0  0  0  0  0  0  0  0
    0.0166    0.2198    2.6852 C   0  0  0  0  0  0  0  0  0  0  0  0
   -0.0755    1.2248    3.1110 H   0  0  0  0  0  0  0  0  0  0  0  0
   -0.9112   -0.3144    2.9033 H   0  0  0  0  0  0  0  0  0  0  0  0
    1.1995   -0.5107    3.3299 C   0  0  0  0  0  0  0  0  0  0  0  0
    1.2990   -1.5017    2.8723 H   0  0  0  0  0  0  0  0  0  0  0  0
    2.1228    0.0470    3.1371 H   0  0  0  0  0  0  0  0  0  0  0  0
    0.9803   -0.6564    4.8318 C   0  0  0  0  0  0  0  0  0  0  0  0
    0.8741    0.3412    5.2825 H   0  0  0  0  0  0  0  0  0  0  0  0
    0.0377   -1.1958    5.0077 H   0  0  0  0  0  0  0  0  0  0  0  0
    2.1296   -1.3861    5.4091 N   0  3  0  0  0  0  0  0  0  0  0  0
    2.9940   -0.8709    5.2326 H   0  0  0  0  0  0  0  0  0  0  0  0
    2.0072   -1.4968    6.4176 H   0  0  0  0  0  0  0  0  0  0  0  0
    2.2027   -2.3108    4.9797 H   0  0  0  0  0  0  0  0  0  0  0  0
   -0.3974    1.5202   -0.9770 C   0  0  0  0  0  0  0  0  0  0  0  0
    0.6299    2.1756   -1.0794 O   0  0  0  0  0  0  0  0  0  0  0  0
   -1.1552    1.2822   -2.1098 N   0  0  0  0  0  0  0  0  0  0  0  0
   -1.9213    0.6227   -2.0151 H   0  0  0  0  0  0  0  0  0  0  0  0
   -0.7285    1.6733   -3.4499 C   0  0  0  0  0  0  0  0  0  0  0  0
    0.2046    1.1675   -3.7196 H   0  0  0  0  0  0  0  0  0  0  0  0
   -1.4930    1.4055   -4.1859 H   0  0  0  0  0  0  0  0  0  0  0  0
   -0.5678    2.7556   -3.5010 H   0  0  0  0  0  0  0  0  0  0  0  0
  1  2  1  0  0  0  0
  2  3  1  0  0  0  0
  2  4  1  0  0  0  0
  2  5  1  0  0  0  0
  5  6  2  0  0  0  0
  5  7  1  0  0  0  0
  7  8  1  0  0  0  0
  7  9  1  0  0  0  0
  9 10  1  0  0  0  0
  9 11  1  0  0  0  0
  9 27  1  0  0  0  0
 11 12  1  0  0  0  0
 11 13  1  0  0  0  0
 11 14  1  0  0  0  0
 14 15  1  0  0  0  0
 14 16  1  0  0  0  0
 14 17  1  0  0  0  0
 17 18  1  0  0  0  0
 17 19  1  0  0  0  0
 17 20  1  0  0  0  0
 20 21  1  0  0  0  0
 20 22  1  0  0  0  0
 20 23  1  0  0  0  0
 23 24  1  0  0  0  0
 23 25  1  0  0  0  0
 23 26  1  0  0  0  0
 27 28  2  0  0  0  0
 27 29  1  0  0  0  0
 29 30  1  0  0  0  0
 29 31  1  0  0  0  0
 31 32  1  0  0  0  0
 31 33  1  0  0  0  0
 31 34  1  0  0  0  0
M  CHG  1  23   1
M  END
$$$$

  -OEChem-01062216093D

 34 33  0     1  0  0  0  0  0999 V2000
   -4.2241   -2.2539    1.0063 H   0  0  0  0  0  0  0  0  0  0  0  0
   -4.0638   -1.2352    0.6414 C   0  0  0  0  0  0  0  0  0  0  0  0
   -4.6473   -0.5474    1.2583 H   0  0  0  0  0  0  0  0  0  0  0  0
   -4.4147   -1.1753   -0.3917 H   0  0  0  0  0  0  0  0  0  0  0  0
   -2.5909   -0.8781    0.7101 C   0  0  0  0  0  0  0  0  0  0  0  0
   -1.7999   -1.7364    1.0613 O   0  0  0  0  0  0  0  0  0  0  0  0
   -2.2089    0.4048    0.3462 N   0  0  0  0  0  0  0  0  0  0  0  0
   -2.9930    1.0086    0.1105 H   0  0  0  0  0  0  0  0  0  0  0  0
   -0.8820    1.0805    0.4157 C   0  0  1  0  0  0  0  0  0  0  0  0
   -1.0401    2.0145    0.9639 H   0  0  0  0  0  0  0  0  0  0  0  0
    0.2510    0.3323    1.1666 C   0  0  0  0  0  0  0  0  0  0  0  0
    0.4006   -0.6559    0.7209 H   0  0  0  0  0  0  0  0  0  0  0  0
    1.1900    0.8793    1.0302 H   0  0  0  0  0  0  0  0  0  0  0  0
    0.0127    0.2216    2.6828 C   0  0  0  0  0  0  0  0  0  0  0  0
   -0.0794    1.2270    3.1078 H   0  0  0  0  0  0  0  0  0  0  0  0
   -0.9167   -0.3117    2.8975 H   0  0  0  0  0  0  0  0  0  0  0  0
    1.1931   -0.5096    3.3301 C   0  0  0  0  0  0  0  0  0  0  0  0
    1.2941   -1.4997    2.8709 H   0  0  0  0  0  0  0  0  0  0  0  0
    2.1159    0.0496    3.1396 H   0  0  0  0  0  0  0  0  0  0  0  0
    0.9722   -0.6567    4.8314 C   0  0  0  0  0  0  0  0  0  0  0  0
    0.8648    0.3400    5.2836 H   0  0  0  0  0  0  0  0  0  0  0  0
    0.0304   -1.1979    5.0060 H   0  0  0  0  0  0  0  0  0  0  0  0
    2.1219   -1.3873    5.4066 N   0  3  0  0  0  0  0  0  0  0  0  0
    2.9851   -0.8673    5.2379 H   0  0  0  0  0  0  0  0  0  0  0  0
    1.9963   -1.5077    6.4137 H   0  0  0  0  0  0  0  0  0  0  0  0
    2.2002   -2.3079    4.9688 H   0  0  0  0  0  0  0  0  0  0  0  0
   -0.3995    1.5254   -0.9905 C   0  0  0  0  0  0  0  0  0  0  0  0
    0.7280    1.9748   -1.1422 O   0  0  0  0  0  0  0  0  0  0  0  0
   -1.2743    1.5684   -2.0625 N   0  0  0  0  0  0  0  0  0  0  0  0
   -2.1469    1.0611   -1.9602 H   0  0  0  0  0  0  0  0  0  0  0  0
   -0.8731    2.0010   -3.3980 C   0  0  0  0  0  0  0  0  0  0  0  0
   -0.0966    1.3404   -3.7983 H   0  0  0  0  0  0  0  0  0  0  0  0
   -1.7303    1.9810   -4.0781 H   0  0  0  0  0  0  0  0  0  0  0  0
   -0.4827    3.0242   -3.3703 H   0  0  0  0  0  0  0  0  0  0  0  0
  1  2  1  0  0  0  0
  2  3  1  0  0  0  0
  2  4  1  0  0  0  0
  2  5  1  0  0  0  0
  5  6  2  0  0  0  0
  5  7  1  0  0  0  0
  7  8  1  0  0  0  0
  7  9  1  0  0  0  0
  9 10  1  0  0  0  0
  9 11  1  0  0  0  0
  9 27  1  0  0  0  0
 11 12  1  0  0  0  0
 11 13  1  0  0  0  0
 11 14  1  0  0  0  0
 14 15  1  0  0  0  0
 14 16  1  0  0  0  0
 14 17  1  0  0  0  0
 17 18  1  0  0  0  0
 17 19  1  0  0  0  0
 17 20  1  0  0  0  0
 20 21  1  0  0  0  0
 20 22  1  0  0  0  0
 20 23  1  0  0  0  0
 23 24  1  0  0  0  0
 23 25  1  0  0  0  0
 23 26  1  0  0  0  0
 27 28  2  0  0  0  0
 27 29  1  0  0  0  0
 29 30  1  0  0  0  0
 29 31  1  0  0  0  0
 31 32  1  0  0  0  0
 31 33  1  0  0  0  0
 31 34  1  0  0  0  0
M  CHG  1  23   1
M  END
$$$$

  -OEChem-01062216093D

 34 33  0     1  0  0  0  0  0999 V2000
   -4.2122   -2.2673    0.9505 H   0  0  0  0  0  0  0  0  0  0  0  0
   -4.0530   -1.2421    0.6036 C   0  0  0  0  0  0  0  0  0  0  0  0
   -4.6514   -0.5675    1.2207 H   0  0  0  0  0  0  0  0  0  0  0  0
   -4.3876   -1.1697   -0.4343 H   0  0  0  0  0  0  0  0  0  0  0  0
   -2.5838   -0.8761    0.7023 C   0  0  0  0  0  0  0  0  0  0  0  0
   -1.7965   -1.7294    1.0733 O   0  0  0  0  0  0  0  0  0  0  0  0
   -2.2046    0.4099    0.3453 N   0  0  0  0  0  0  0  0  0  0  0  0
   -2.9912    1.0067    0.1045 H   0  0  0  0  0  0  0  0  0  0  0  0
   -0.8781    1.0868    0.4165 C   0  0  1  0  0  0  0  0  0  0  0  0
   -1.0358    2.0191    0.9674 H   0  0  0  0  0  0  0  0  0  0  0  0
    0.2518    0.3375    1.1733 C   0  0  0  0  0  0  0  0  0  0  0  0
    0.4042   -0.6504    0.7274 H   0  0  0  0  0  0  0  0  0  0  0  0
    1.1909    0.8853    1.0428 H   0  0  0  0  0  0  0  0  0  0  0  0
    0.0117    0.2269    2.6893 C   0  0  0  0  0  0  0  0  0  0  0  0
   -0.0798    1.2318    3.1154 H   0  0  0  0  0  0  0  0  0  0  0  0
   -0.9177   -0.3063    2.9035 H   0  0  0  0  0  0  0  0  0  0  0  0
    1.1924   -0.5064    3.3345 C   0  0  0  0  0  0  0  0  0  0  0  0
    1.2907   -1.4963    2.8740 H   0  0  0  0  0  0  0  0  0  0  0  0
    2.1162    0.0506    3.1429 H   0  0  0  0  0  0  0  0  0  0  0  0
    0.9749   -0.6560    4.8357 C   0  0  0  0  0  0  0  0  0  0  0  0
    0.8703    0.3399    5.2904 H   0  0  0  0  0  0  0  0  0  0  0  0
    0.0328   -1.1961    5.0115 H   0  0  0  0  0  0  0  0  0  0  0  0
    2.1261   -1.3890    5.4047 N   0  3  0  0  0  0  0  0  0  0  0  0
    2.9895   -0.8709    5.2313 H   0  0  0  0  0  0  0  0  0  0  0  0
    2.0056   -1.5095    6.4123 H   0  0  0  0  0  0  0  0  0  0  0  0
    2.1999   -2.3095    4.9662 H   0  0  0  0  0  0  0  0  0  0  0  0
   -0.4066    1.5374   -0.9943 C   0  0  0  0  0  0  0  0  0  0  0  0
    0.7791    1.7232   -1.2319 O   0  0  0  0  0  0  0  0  0  0  0  0
   -1.3250    1.8783   -1.9733 N   0  0  0  0  0  0  0  0  0  0  0  0
   -2.2913    1.6170   -1.8158 H   0  0  0  0  0  0  0  0  0  0  0  0
   -0.9350    2.3240   -3.3084 C   0  0  0  0  0  0  0  0  0  0  0  0
   -0.3649    1.5433   -3.8235 H   0  0  0  0  0  0  0  0  0  0  0  0
   -1.8219    2.5563   -3.9062 H   0  0  0  0  0  0  0  0  0  0  0  0
   -0.3173    3.2266   -3.2472 H   0  0  0  0  0  0  0  0  0  0  0  0
  1  2  1  0  0  0  0
  2  3  1  0  0  0  0
  2  4  1  0  0  0  0
  2  5  1  0  0  0  0
  5  6  2  0  0  0  0
  5  7  1  0  0  0  0
  7  8  1  0  0  0  0
  7  9  1  0  0  0  0
  9 10  1  0  0  0  0
  9 11  1  0  0  0  0
  9 27  1  0  0  0  0
 11 12  1  0  0  0  0
 11 13  1  0  0  0  0
 11 14  1  0  0  0  0
 14 15  1  0  0  0  0
 14 16  1  0  0  0  0
 14 17  1  0  0  0  0
 17 18  1  0  0  0  0
 17 19  1  0  0  0  0
 17 20  1  0  0  0  0
 20 21  1  0  0  0  0
 20 22  1  0  0  0  0
 20 23  1  0  0  0  0
 23 24  1  0  0  0  0
 23 25  1  0  0  0  0
 23 26  1  0  0  0  0
 27 28  2  0  0  0  0
 27 29  1  0  0  0  0
 29 30  1  0  0  0  0
 29 31  1  0  0  0  0
 31 32  1  0  0  0  0
 31 33  1  0  0  0  0
 31 34  1  0  0  0  0
M  CHG  1  23   1
M  END
$$$$

  -OEChem-01062216093D

 34 33  0     1  0  0  0  0  0999 V2000
   -4.2217   -2.2814    0.8435 H   0  0  0  0  0  0  0  0  0  0  0  0
   -4.0552   -1.2511    0.5155 C   0  0  0  0  0  0  0  0  0  0  0  0
   -4.7017   -0.5900    1.0976 H   0  0  0  0  0  0  0  0  0  0  0  0
   -4.3224   -1.1750   -0.5415 H   0  0  0  0  0  0  0  0  0  0  0  0
   -2.6006   -0.8657    0.7125 C   0  0  0  0  0  0  0  0  0  0  0  0
   -1.8359   -1.7040    1.1585 O   0  0  0  0  0  0  0  0  0  0  0  0
   -2.2105    0.4185    0.3591 N   0  0  0  0  0  0  0  0  0  0  0  0
   -2.9699    0.9769   -0.0186 H   0  0  0  0  0  0  0  0  0  0  0  0
   -0.8775    1.0815    0.4261 C   0  0  1  0  0  0  0  0  0  0  0  0
   -1.0265    2.0140    0.9783 H   0  0  0  0  0  0  0  0  0  0  0  0
    0.2513    0.3323    1.1824 C   0  0  0  0  0  0  0  0  0  0  0  0
    0.3915   -0.6604    0.7429 H   0  0  0  0  0  0  0  0  0  0  0  0
    1.1914    0.8757    1.0367 H   0  0  0  0  0  0  0  0  0  0  0  0
    0.0215    0.2310    2.7011 C   0  0  0  0  0  0  0  0  0  0  0  0
   -0.0601    1.2391    3.1216 H   0  0  0  0  0  0  0  0  0  0  0  0
   -0.9095   -0.2930    2.9290 H   0  0  0  0  0  0  0  0  0  0  0  0
    1.2030   -0.5045    3.3413 C   0  0  0  0  0  0  0  0  0  0  0  0
    1.2918   -1.4978    2.8862 H   0  0  0  0  0  0  0  0  0  0  0  0
    2.1288    0.0457    3.1398 H   0  0  0  0  0  0  0  0  0  0  0  0
    0.9939   -0.6442    4.8445 C   0  0  0  0  0  0  0  0  0  0  0  0
    0.8972    0.3546    5.2941 H   0  0  0  0  0  0  0  0  0  0  0  0
    0.0499   -1.1784    5.0287 H   0  0  0  0  0  0  0  0  0  0  0  0
    2.1447   -1.3798    5.4108 N   0  3  0  0  0  0  0  0  0  0  0  0
    3.0102   -0.8689    5.2268 H   0  0  0  0  0  0  0  0  0  0  0  0
    2.0308   -1.4921    6.4201 H   0  0  0  0  0  0  0  0  0  0  0  0
    2.2089   -2.3042    4.9788 H   0  0  0  0  0  0  0  0  0  0  0  0
   -0.4196    1.5295   -0.9892 C   0  0  0  0  0  0  0  0  0  0  0  0
    0.7343    1.3747   -1.3650 O   0  0  0  0  0  0  0  0  0  0  0  0
   -1.3018    2.1691   -1.8448 N   0  0  0  0  0  0  0  0  0  0  0  0
   -2.2442    2.3472   -1.5175 H   0  0  0  0  0  0  0  0  0  0  0  0
   -0.9259    2.6316   -3.1781 C   0  0  0  0  0  0  0  0  0  0  0  0
   -0.5826    1.7918   -3.7921 H   0  0  0  0  0  0  0  0  0  0  0  0
   -1.7835    3.0942   -3.6765 H   0  0  0  0  0  0  0  0  0  0  0  0
   -0.1219    3.3730   -3.1164 H   0  0  0  0  0  0  0  0  0  0  0  0
  1  2  1  0  0  0  0
  2  3  1  0  0  0  0
  2  4  1  0  0  0  0
  2  5  1  0  0  0  0
  5  6  2  0  0  0  0
  5  7  1  0  0  0  0
  7  8  1  0  0  0  0
  7  9  1  0  0  0  0
  9 10  1  0  0  0  0
  9 11  1  0  0  0  0
  9 27  1  0  0  0  0
 11 12  1  0  0  0  0
 11 13  1  0  0  0  0
 11 14  1  0  0  0  0
 14 15  1  0  0  0  0
 14 16  1  0  0  0  0
 14 17  1  0  0  0  0
 17 18  1  0  0  0  0
 17 19  1  0  0  0  0
 17 20  1  0  0  0  0
 20 21  1  0  0  0  0
 20 22  1  0  0  0  0
 20 23  1  0  0  0  0
 23 24  1  0  0  0  0
 23 25  1  0  0  0  0
 23 26  1  0  0  0  0
 27 28  2  0  0  0  0
 27 29  1  0  0  0  0
 29 30  1  0  0  0  0
 29 31  1  0  0  0  0
 31 32  1  0  0  0  0
 31 33  1  0  0  0  0
 31 34  1  0  0  0  0
M  CHG  1  23   1
M  END
$$$$

  -OEChem-01062216093D

 34 33  0     1  0  0  0  0  0999 V2000
   -4.2318   -2.2770    0.7715 H   0  0  0  0  0  0  0  0  0  0  0  0
   -4.0588   -1.2461    0.4490 C   0  0  0  0  0  0  0  0  0  0  0  0
   -4.7450   -0.5904    0.9903 H   0  0  0  0  0  0  0  0  0  0  0  0
   -4.2660   -1.1773   -0.6219 H   0  0  0  0  0  0  0  0  0  0  0  0
   -2.6225   -0.8433    0.7268 C   0  0  0  0  0  0  0  0  0  0  0  0
   -1.8793   -1.6684    1.2305 O   0  0  0  0  0  0  0  0  0  0  0  0
   -2.2232    0.4374    0.3713 N   0  0  0  0  0  0  0  0  0  0  0  0
   -2.9473    0.9585   -0.1155 H   0  0  0  0  0  0  0  0  0  0  0  0
   -0.8862    1.0890    0.4383 C   0  0  1  0  0  0  0  0  0  0  0  0
   -1.0274    2.0226    0.9906 H   0  0  0  0  0  0  0  0  0  0  0  0
    0.2437    0.3396    1.1893 C   0  0  0  0  0  0  0  0  0  0  0  0
    0.3729   -0.6563    0.7527 H   0  0  0  0  0  0  0  0  0  0  0  0
    1.1835    0.8787    1.0263 H   0  0  0  0  0  0  0  0  0  0  0  0
    0.0247    0.2388    2.7103 C   0  0  0  0  0  0  0  0  0  0  0  0
   -0.0468    1.2480    3.1298 H   0  0  0  0  0  0  0  0  0  0  0  0
   -0.9069   -0.2774    2.9510 H   0  0  0  0  0  0  0  0  0  0  0  0
    1.2094   -0.4992    3.3414 C   0  0  0  0  0  0  0  0  0  0  0  0
    1.2931   -1.4926    2.8856 H   0  0  0  0  0  0  0  0  0  0  0  0
    2.1350    0.0488    3.1331 H   0  0  0  0  0  0  0  0  0  0  0  0
    1.0102   -0.6384    4.8461 C   0  0  0  0  0  0  0  0  0  0  0  0
    0.9181    0.3607    5.2963 H   0  0  0  0  0  0  0  0  0  0  0  0
    0.0662   -1.1707    5.0360 H   0  0  0  0  0  0  0  0  0  0  0  0
    2.1630   -1.3764    5.4046 N   0  3  0  0  0  0  0  0  0  0  0  0
    3.0275   -0.8641    5.2214 H   0  0  0  0  0  0  0  0  0  0  0  0
    2.0515   -1.4949    6.4133 H   0  0  0  0  0  0  0  0  0  0  0  0
    2.2264   -2.2981    4.9667 H   0  0  0  0  0  0  0  0  0  0  0  0
   -0.4366    1.5253   -0.9797 C   0  0  0  0  0  0  0  0  0  0  0  0
    0.6040    1.1144   -1.4740 O   0  0  0  0  0  0  0  0  0  0  0  0
   -1.2016    2.4247   -1.7035 N   0  0  0  0  0  0  0  0  0  0  0  0
   -2.0151    2.8321   -1.2543 H   0  0  0  0  0  0  0  0  0  0  0  0
   -0.8169    2.9097   -3.0264 C   0  0  0  0  0  0  0  0  0  0  0  0
   -0.7204    2.0746   -3.7287 H   0  0  0  0  0  0  0  0  0  0  0  0
   -1.5732    3.5989   -3.4147 H   0  0  0  0  0  0  0  0  0  0  0  0
    0.1407    3.4393   -2.9781 H   0  0  0  0  0  0  0  0  0  0  0  0
  1  2  1  0  0  0  0
  2  3  1  0  0  0  0
  2  4  1  0  0  0  0
  2  5  1  0  0  0  0
  5  6  2  0  0  0  0
  5  7  1  0  0  0  0
  7  8  1  0  0  0  0
  7  9  1  0  0  0  0
  9 10  1  0  0  0  0
  9 11  1  0  0  0  0
  9 27  1  0  0  0  0
 11 12  1  0  0  0  0
 11 13  1  0  0  0  0
 11 14  1  0  0  0  0
 14 15  1  0  0  0  0
 14 16  1  0  0  0  0
 14 17  1  0  0  0  0
 17 18  1  0  0  0  0
 17 19  1  0  0  0  0
 17 20  1  0  0  0  0
 20 21  1  0  0  0  0
 20 22  1  0  0  0  0
 20 23  1  0  0  0  0
 23 24  1  0  0  0  0
 23 25  1  0  0  0  0
 23 26  1  0  0  0  0
 27 28  2  0  0  0  0
 27 29  1  0  0  0  0
 29 30  1  0  0  0  0
 29 31  1  0  0  0  0
 31 32  1  0  0  0  0
 31 33  1  0  0  0  0
 31 34  1  0  0  0  0
M  CHG  1  23   1
M  END
$$$$

  -OEChem-01062216093D

 34 33  0     1  0  0  0  0  0999 V2000
   -4.2399   -2.2651    0.7449 H   0  0  0  0  0  0  0  0  0  0  0  0
   -4.0624   -1.2345    0.4239 C   0  0  0  0  0  0  0  0  0  0  0  0
   -4.7571   -0.5781    0.9535 H   0  0  0  0  0  0  0  0  0  0  0  0
   -4.2528   -1.1662   -0.6501 H   0  0  0  0  0  0  0  0  0  0  0  0
   -2.6306   -0.8304    0.7220 C   0  0  0  0  0  0  0  0  0  0  0  0
   -1.8930   -1.6536    1.2372 O   0  0  0  0  0  0  0  0  0  0  0  0
   -2.2294    0.4506    0.3714 N   0  0  0  0  0  0  0  0  0  0  0  0
   -2.9457    0.9682   -0.1316 H   0  0  0  0  0  0  0  0  0  0  0  0
   -0.8947    1.1024    0.4471 C   0  0  1  0  0  0  0  0  0  0  0  0
   -1.0379    2.0316    1.0061 H   0  0  0  0  0  0  0  0  0  0  0  0
    0.2411    0.3562    1.1899 C   0  0  0  0  0  0  0  0  0  0  0  0
    0.3703   -0.6380    0.7487 H   0  0  0  0  0  0  0  0  0  0  0  0
    1.1773    0.8999    1.0209 H   0  0  0  0  0  0  0  0  0  0  0  0
    0.0268    0.2418    2.7108 C   0  0  0  0  0  0  0  0  0  0  0  0
   -0.0511    1.2476    3.1370 H   0  0  0  0  0  0  0  0  0  0  0  0
   -0.9006   -0.2818    2.9505 H   0  0  0  0  0  0  0  0  0  0  0  0
    1.2169   -0.4918    3.3366 C   0  0  0  0  0  0  0  0  0  0  0  0
    1.3082   -1.4815    2.8744 H   0  0  0  0  0  0  0  0  0  0  0  0
    2.1379    0.0651    3.1322 H   0  0  0  0  0  0  0  0  0  0  0  0
    1.0162   -0.6409    4.8405 C   0  0  0  0  0  0  0  0  0  0  0  0
    0.9149    0.3550    5.2957 H   0  0  0  0  0  0  0  0  0  0  0  0
    0.0757   -1.1814    5.0251 H   0  0  0  0  0  0  0  0  0  0  0  0
    2.1716   -1.3737    5.4006 N   0  3  0  0  0  0  0  0  0  0  0  0
    3.0326   -0.8508    5.2310 H   0  0  0  0  0  0  0  0  0  0  0  0
    2.0527   -1.5045    6.4070 H   0  0  0  0  0  0  0  0  0  0  0  0
    2.2480   -2.2900    4.9534 H   0  0  0  0  0  0  0  0  0  0  0  0
   -0.4423    1.5386   -0.9669 C   0  0  0  0  0  0  0  0  0  0  0  0
    0.4415    0.9401   -1.5635 O   0  0  0  0  0  0  0  0  0  0  0  0
   -1.0153    2.6483   -1.5635 N   0  0  0  0  0  0  0  0  0  0  0  0
   -1.7096    3.1714   -1.0390 H   0  0  0  0  0  0  0  0  0  0  0  0
   -0.6197    3.1346   -2.8822 C   0  0  0  0  0  0  0  0  0  0  0  0
   -0.7836    2.3621   -3.6415 H   0  0  0  0  0  0  0  0  0  0  0  0
   -1.2085    4.0157   -3.1554 H   0  0  0  0  0  0  0  0  0  0  0  0
    0.4399    3.4124   -2.8875 H   0  0  0  0  0  0  0  0  0  0  0  0
  1  2  1  0  0  0  0
  2  3  1  0  0  0  0
  2  4  1  0  0  0  0
  2  5  1  0  0  0  0
  5  6  2  0  0  0  0
  5  7  1  0  0  0  0
  7  8  1  0  0  0  0
  7  9  1  0  0  0  0
  9 10  1  0  0  0  0
  9 11  1  0  0  0  0
  9 27  1  0  0  0  0
 11 12  1  0  0  0  0
 11 13  1  0  0  0  0
 11 14  1  0  0  0  0
 14 15  1  0  0  0  0
 14 16  1  0  0  0  0
 14 17  1  0  0  0  0
 17 18  1  0  0  0  0
 17 19  1  0  0  0  0
 17 20  1  0  0  0  0
 20 21  1  0  0  0  0
 20 22  1  0  0  0  0
 20 23  1  0  0  0  0
 23 24  1  0  0  0  0
 23 25  1  0  0  0  0
 23 26  1  0  0  0  0
 27 28  2  0  0  0  0
 27 29  1  0  0  0  0
 29 30  1  0  0  0  0
 29 31  1  0  0  0  0
 31 32  1  0  0  0  0
 31 33  1  0  0  0  0
 31 34  1  0  0  0  0
M  CHG  1  23   1
M  END
$$$$

  -OEChem-01062216093D

 34 33  0     1  0  0  0  0  0999 V2000
   -4.2350   -2.2613    0.7222 H   0  0  0  0  0  0  0  0  0  0  0  0
   -4.0591   -1.2297    0.4034 C   0  0  0  0  0  0  0  0  0  0  0  0
   -4.7685   -0.5777    0.9186 H   0  0  0  0  0  0  0  0  0  0  0  0
   -4.2292   -1.1639   -0.6741 H   0  0  0  0  0  0  0  0  0  0  0  0
   -2.6364   -0.8145    0.7282 C   0  0  0  0  0  0  0  0  0  0  0  0
   -1.9033   -1.6329    1.2573 O   0  0  0  0  0  0  0  0  0  0  0  0
   -2.2367    0.4679    0.3803 N   0  0  0  0  0  0  0  0  0  0  0  0
   -2.9443    0.9758   -0.1449 H   0  0  0  0  0  0  0  0  0  0  0  0
   -0.9039    1.1222    0.4604 C   0  0  1  0  0  0  0  0  0  0  0  0
   -1.0506    2.0464    1.0266 H   0  0  0  0  0  0  0  0  0  0  0  0
    0.2368    0.3755    1.1927 C   0  0  0  0  0  0  0  0  0  0  0  0
    0.3640   -0.6159    0.7444 H   0  0  0  0  0  0  0  0  0  0  0  0
    1.1707    0.9216    1.0202 H   0  0  0  0  0  0  0  0  0  0  0  0
    0.0278    0.2472    2.7137 C   0  0  0  0  0  0  0  0  0  0  0  0
   -0.0511    1.2494    3.1474 H   0  0  0  0  0  0  0  0  0  0  0  0
   -0.8973   -0.2788    2.9551 H   0  0  0  0  0  0  0  0  0  0  0  0
    1.2210   -0.4861    3.3330 C   0  0  0  0  0  0  0  0  0  0  0  0
    1.3155   -1.4725    2.8643 H   0  0  0  0  0  0  0  0  0  0  0  0
    2.1402    0.0754    3.1327 H   0  0  0  0  0  0  0  0  0  0  0  0
    1.0201   -0.6462    4.8359 C   0  0  0  0  0  0  0  0  0  0  0  0
    0.9146    0.3459    5.2983 H   0  0  0  0  0  0  0  0  0  0  0  0
    0.0816   -1.1917    5.0162 H   0  0  0  0  0  0  0  0  0  0  0  0
    2.1780   -1.3787    5.3913 N   0  3  0  0  0  0  0  0  0  0  0  0
    3.0377   -0.8529    5.2240 H   0  0  0  0  0  0  0  0  0  0  0  0
    2.0599   -1.5156    6.3971 H   0  0  0  0  0  0  0  0  0  0  0  0
    2.2561   -2.2924    4.9390 H   0  0  0  0  0  0  0  0  0  0  0  0
   -0.4469    1.5613   -0.9496 C   0  0  0  0  0  0  0  0  0  0  0  0
    0.2300    0.8190   -1.6457 O   0  0  0  0  0  0  0  0  0  0  0  0
   -0.7699    2.8186   -1.4298 N   0  0  0  0  0  0  0  0  0  0  0  0
   -1.3199    3.4339   -0.8380 H   0  0  0  0  0  0  0  0  0  0  0  0
   -0.3568    3.2960   -2.7464 C   0  0  0  0  0  0  0  0  0  0  0  0
   -0.7605    2.6496   -3.5333 H   0  0  0  0  0  0  0  0  0  0  0  0
   -0.7228    4.3134   -2.9151 H   0  0  0  0  0  0  0  0  0  0  0  0
    0.7355    3.3049   -2.8266 H   0  0  0  0  0  0  0  0  0  0  0  0
  1  2  1  0  0  0  0
  2  3  1  0  0  0  0
  2  4  1  0  0  0  0
  2  5  1  0  0  0  0
  5  6  2  0  0  0  0
  5  7  1  0  0  0  0
  7  8  1  0  0  0  0
  7  9  1  0  0  0  0
  9 10  1  0  0  0  0
  9 11  1  0  0  0  0
  9 27  1  0  0  0  0
 11 12  1  0  0  0  0
 11 13  1  0  0  0  0
 11 14  1  0  0  0  0
 14 15  1  0  0  0  0
 14 16  1  0  0  0  0
 14 17  1  0  0  0  0
 17 18  1  0  0  0  0
 17 19  1  0  0  0  0
 17 20  1  0  0  0  0
 20 21  1  0  0  0  0
 20 22  1  0  0  0  0
 20 23  1  0  0  0  0
 23 24  1  0  0  0  0
 23 25  1  0  0  0  0
 23 26  1  0  0  0  0
 27 28  2  0  0  0  0
 27 29  1  0  0  0  0
 29 30  1  0  0  0  0
 29 31  1  0  0  0  0
 31 32  1  0  0  0  0
 31 33  1  0  0  0  0
 31 34  1  0  0  0  0
M  CHG  1  23   1
M  END
$$$$

  -OEChem-01062216093D

 34 33  0     1  0  0  0  0  0999 V2000
   -4.2315   -2.2559    0.6883 H   0  0  0  0  0  0  0  0  0  0  0  0
   -4.0561   -1.2233    0.3722 C   0  0  0  0  0  0  0  0  0  0  0  0
   -4.7838   -0.5761    0.8676 H   0  0  0  0  0  0  0  0  0  0  0  0
   -4.1993   -1.1615   -0.7097 H   0  0  0  0  0  0  0  0  0  0  0  0
   -2.6452   -0.7961    0.7327 C   0  0  0  0  0  0  0  0  0  0  0  0
   -1.9210   -1.6083    1.2839 O   0  0  0  0  0  0  0  0  0  0  0  0
   -2.2439    0.4862    0.3869 N   0  0  0  0  0  0  0  0  0  0  0  0
   -2.9359    0.9810   -0.1710 H   0  0  0  0  0  0  0  0  0  0  0  0
   -0.9113    1.1391    0.4742 C   0  0  1  0  0  0  0  0  0  0  0  0
   -1.0649    2.0606    1.0429 H   0  0  0  0  0  0  0  0  0  0  0  0
    0.2305    0.3927    1.2031 C   0  0  0  0  0  0  0  0  0  0  0  0
    0.3576   -0.5961    0.7489 H   0  0  0  0  0  0  0  0  0  0  0  0
    1.1632    0.9410    1.0319 H   0  0  0  0  0  0  0  0  0  0  0  0
    0.0262    0.2539    2.7247 C   0  0  0  0  0  0  0  0  0  0  0  0
   -0.0543    1.2535    3.1647 H   0  0  0  0  0  0  0  0  0  0  0  0
   -0.8963   -0.2752    2.9683 H   0  0  0  0  0  0  0  0  0  0  0  0
    1.2244   -0.4802    3.3346 C   0  0  0  0  0  0  0  0  0  0  0  0
    1.3188   -1.4633    2.8591 H   0  0  0  0  0  0  0  0  0  0  0  0
    2.1421    0.0839    3.1345 H   0  0  0  0  0  0  0  0  0  0  0  0
    1.0300   -0.6513    4.8371 C   0  0  0  0  0  0  0  0  0  0  0  0
    0.9243    0.3374    5.3066 H   0  0  0  0  0  0  0  0  0  0  0  0
    0.0934   -1.1999    5.0173 H   0  0  0  0  0  0  0  0  0  0  0  0
    2.1921   -1.3844    5.3834 N   0  3  0  0  0  0  0  0  0  0  0  0
    3.0509   -0.8600    5.2084 H   0  0  0  0  0  0  0  0  0  0  0  0
    2.0824   -1.5201    6.3903 H   0  0  0  0  0  0  0  0  0  0  0  0
    2.2652   -2.2988    4.9317 H   0  0  0  0  0  0  0  0  0  0  0  0
   -0.4434    1.5793   -0.9310 C   0  0  0  0  0  0  0  0  0  0  0  0
   -0.0281    0.7522   -1.7287 O   0  0  0  0  0  0  0  0  0  0  0  0
   -0.4782    2.9116   -1.3034 N   0  0  0  0  0  0  0  0  0  0  0  0
   -0.8471    3.5879   -0.6417 H   0  0  0  0  0  0  0  0  0  0  0  0
   -0.0572    3.3782   -2.6214 C   0  0  0  0  0  0  0  0  0  0  0  0
   -0.6698    2.9194   -3.4051 H   0  0  0  0  0  0  0  0  0  0  0  0
   -0.1635    4.4651   -2.6925 H   0  0  0  0  0  0  0  0  0  0  0  0
    0.9923    3.1222   -2.8027 H   0  0  0  0  0  0  0  0  0  0  0  0
  1  2  1  0  0  0  0
  2  3  1  0  0  0  0
  2  4  1  0  0  0  0
  2  5  1  0  0  0  0
  5  6  2  0  0  0  0
  5  7  1  0  0  0  0
  7  8  1  0  0  0  0
  7  9  1  0  0  0  0
  9 10  1  0  0  0  0
  9 11  1  0  0  0  0
  9 27  1  0  0  0  0
 11 12  1  0  0  0  0
 11 13  1  0  0  0  0
 11 14  1  0  0  0  0
 14 15  1  0  0  0  0
 14 16  1  0  0  0  0
 14 17  1  0  0  0  0
 17 18  1  0  0  0  0
 17 19  1  0  0  0  0
 17 20  1  0  0  0  0
 20 21  1  0  0  0  0
 20 22  1  0  0  0  0
 20 23  1  0  0  0  0
 23 24  1  0  0  0  0
 23 25  1  0  0  0  0
 23 26  1  0  0  0  0
 27 28  2  0  0  0  0
 27 29  1  0  0  0  0
 29 30  1  0  0  0  0
 29 31  1  0  0  0  0
 31 32  1  0  0  0  0
 31 33  1  0  0  0  0
 31 34  1  0  0  0  0
M  CHG  1  23   1
M  END
$$$$

  -OEChem-01062216093D

 34 33  0     1  0  0  0  0  0999 V2000
   -4.2279   -2.2441    0.6606 H   0  0  0  0  0  0  0  0  0  0  0  0
   -4.0469   -1.2113    0.3488 C   0  0  0  0  0  0  0  0  0  0  0  0
   -4.7834   -0.5644    0.8313 H   0  0  0  0  0  0  0  0  0  0  0  0
   -4.1702   -1.1480   -0.7354 H   0  0  0  0  0  0  0  0  0  0  0  0
   -2.6430   -0.7837    0.7352 C   0  0  0  0  0  0  0  0  0  0  0  0
   -1.9282   -1.5943    1.3015 O   0  0  0  0  0  0  0  0  0  0  0  0
   -2.2363    0.4977    0.3940 N   0  0  0  0  0  0  0  0  0  0  0  0
   -2.9109    0.9801   -0.1956 H   0  0  0  0  0  0  0  0  0  0  0  0
   -0.8994    1.1418    0.4791 C   0  0  1  0  0  0  0  0  0  0  0  0
   -1.0518    2.0617    1.0507 H   0  0  0  0  0  0  0  0  0  0  0  0
    0.2424    0.3911    1.2017 C   0  0  0  0  0  0  0  0  0  0  0  0
    0.3625   -0.5985    0.7473 H   0  0  0  0  0  0  0  0  0  0  0  0
    1.1772    0.9351    1.0284 H   0  0  0  0  0  0  0  0  0  0  0  0
    0.0395    0.2541    2.7241 C   0  0  0  0  0  0  0  0  0  0  0  0
   -0.0355    1.2549    3.1623 H   0  0  0  0  0  0  0  0  0  0  0  0
   -0.8857   -0.2685    2.9704 H   0  0  0  0  0  0  0  0  0  0  0  0
    1.2331   -0.4839    3.3382 C   0  0  0  0  0  0  0  0  0  0  0  0
    1.3241   -1.4688    2.8662 H   0  0  0  0  0  0  0  0  0  0  0  0
    2.1537    0.0755    3.1390 H   0  0  0  0  0  0  0  0  0  0  0  0
    1.0321   -0.6490    4.8407 C   0  0  0  0  0  0  0  0  0  0  0  0
    0.9289    0.3421    5.3058 H   0  0  0  0  0  0  0  0  0  0  0  0
    0.0918   -1.1921    5.0187 H   0  0  0  0  0  0  0  0  0  0  0  0
    2.1872   -1.3856    5.3969 N   0  3  0  0  0  0  0  0  0  0  0  0
    3.0496   -0.8656    5.2269 H   0  0  0  0  0  0  0  0  0  0  0  0
    2.0695   -1.5181    6.4034 H   0  0  0  0  0  0  0  0  0  0  0  0
    2.2594   -2.3017    4.9484 H   0  0  0  0  0  0  0  0  0  0  0  0
   -0.4314    1.5870   -0.9241 C   0  0  0  0  0  0  0  0  0  0  0  0
   -0.3278    0.7662   -1.8232 O   0  0  0  0  0  0  0  0  0  0  0  0
   -0.1620    2.9172   -1.1943 N   0  0  0  0  0  0  0  0  0  0  0  0
   -0.2970    3.5967   -0.4518 H   0  0  0  0  0  0  0  0  0  0  0  0
    0.2364    3.3934   -2.5160 C   0  0  0  0  0  0  0  0  0  0  0  0
   -0.5411    3.1711   -3.2549 H   0  0  0  0  0  0  0  0  0  0  0  0
    0.3958    4.4760   -2.4989 H   0  0  0  0  0  0  0  0  0  0  0  0
    1.1686    2.9131   -2.8325 H   0  0  0  0  0  0  0  0  0  0  0  0
  1  2  1  0  0  0  0
  2  3  1  0  0  0  0
  2  4  1  0  0  0  0
  2  5  1  0  0  0  0
  5  6  2  0  0  0  0
  5  7  1  0  0  0  0
  7  8  1  0  0  0  0
  7  9  1  0  0  0  0
  9 10  1  0  0  0  0
  9 11  1  0  0  0  0
  9 27  1  0  0  0  0
 11 12  1  0  0  0  0
 11 13  1  0  0  0  0
 11 14  1  0  0  0  0
 14 15  1  0  0  0  0
 14 16  1  0  0  0  0
 14 17  1  0  0  0  0
 17 18  1  0  0  0  0
 17 19  1  0  0  0  0
 17 20  1  0  0  0  0
 20 21  1  0  0  0  0
 20 22  1  0  0  0  0
 20 23  1  0  0  0  0
 23 24  1  0  0  0  0
 23 25  1  0  0  0  0
 23 26  1  0  0  0  0
 27 28  2  0  0  0  0
 27 29  1  0  0  0  0
 29 30  1  0  0  0  0
 29 31  1  0  0  0  0
 31 32  1  0  0  0  0
 31 33  1  0  0  0  0
 31 34  1  0  0  0  0
M  CHG  1  23   1
M  END
$$$$

  -OEChem-01062216093D

 34 33  0     1  0  0  0  0  0999 V2000
   -4.2211   -2.2337    0.6518 H   0  0  0  0  0  0  0  0  0  0  0  0
   -4.0333   -1.2020    0.3407 C   0  0  0  0  0  0  0  0  0  0  0  0
   -4.7731   -0.5519    0.8137 H   0  0  0  0  0  0  0  0  0  0  0  0
   -4.1438   -1.1394   -0.7450 H   0  0  0  0  0  0  0  0  0  0  0  0
   -2.6333   -0.7771    0.7425 C   0  0  0  0  0  0  0  0  0  0  0  0
   -1.9254   -1.5889    1.3163 O   0  0  0  0  0  0  0  0  0  0  0  0
   -2.2217    0.5028    0.4032 N   0  0  0  0  0  0  0  0  0  0  0  0
   -2.8755    0.9673   -0.2239 H   0  0  0  0  0  0  0  0  0  0  0  0
   -0.8801    1.1384    0.4782 C   0  0  1  0  0  0  0  0  0  0  0  0
   -1.0275    2.0597    1.0489 H   0  0  0  0  0  0  0  0  0  0  0  0
    0.2586    0.3801    1.1968 C   0  0  0  0  0  0  0  0  0  0  0  0
    0.3686   -0.6120    0.7455 H   0  0  0  0  0  0  0  0  0  0  0  0
    1.1979    0.9147    1.0204 H   0  0  0  0  0  0  0  0  0  0  0  0
    0.0551    0.2527    2.7205 C   0  0  0  0  0  0  0  0  0  0  0  0
   -0.0101    1.2570    3.1524 H   0  0  0  0  0  0  0  0  0  0  0  0
   -0.8759   -0.2578    2.9704 H   0  0  0  0  0  0  0  0  0  0  0  0
    1.2397   -0.4930    3.3423 C   0  0  0  0  0  0  0  0  0  0  0  0
    1.3220   -1.4822    2.8774 H   0  0  0  0  0  0  0  0  0  0  0  0
    2.1665    0.0557    3.1426 H   0  0  0  0  0  0  0  0  0  0  0  0
    1.0296   -0.6442    4.8454 C   0  0  0  0  0  0  0  0  0  0  0  0
    0.9334    0.3515    5.3019 H   0  0  0  0  0  0  0  0  0  0  0  0
    0.0827   -1.1760    5.0221 H   0  0  0  0  0  0  0  0  0  0  0  0
    2.1731   -1.3881    5.4156 N   0  3  0  0  0  0  0  0  0  0  0  0
    3.0425   -0.8797    5.2459 H   0  0  0  0  0  0  0  0  0  0  0  0
    2.0478   -1.5090    6.4226 H   0  0  0  0  0  0  0  0  0  0  0  0
    2.2373   -2.3096    4.9770 H   0  0  0  0  0  0  0  0  0  0  0  0
   -0.4187    1.5887   -0.9267 C   0  0  0  0  0  0  0  0  0  0  0  0
   -0.6265    0.8765   -1.8981 O   0  0  0  0  0  0  0  0  0  0  0  0
    0.1485    2.8361   -1.1204 N   0  0  0  0  0  0  0  0  0  0  0  0
    0.2573    3.4456   -0.3158 H   0  0  0  0  0  0  0  0  0  0  0  0
    0.5262    3.3411   -2.4376 C   0  0  0  0  0  0  0  0  0  0  0  0
   -0.3472    3.3862   -3.0973 H   0  0  0  0  0  0  0  0  0  0  0  0
    0.9464    4.3482   -2.3533 H   0  0  0  0  0  0  0  0  0  0  0  0
    1.2789    2.6910   -2.8969 H   0  0  0  0  0  0  0  0  0  0  0  0
  1  2  1  0  0  0  0
  2  3  1  0  0  0  0
  2  4  1  0  0  0  0
  2  5  1  0  0  0  0
  5  6  2  0  0  0  0
  5  7  1  0  0  0  0
  7  8  1  0  0  0  0
  7  9  1  0  0  0  0
  9 10  1  0  0  0  0
  9 11  1  0  0  0  0
  9 27  1  0  0  0  0
 11 12  1  0  0  0  0
 11 13  1  0  0  0  0
 11 14  1  0  0  0  0
 14 15  1  0  0  0  0
 14 16  1  0  0  0  0
 14 17  1  0  0  0  0
 17 18  1  0  0  0  0
 17 19  1  0  0  0  0
 17 20  1  0  0  0  0
 20 21  1  0  0  0  0
 20 22  1  0  0  0  0
 20 23  1  0  0  0  0
 23 24  1  0  0  0  0
 23 25  1  0  0  0  0
 23 26  1  0  0  0  0
 27 28  2  0  0  0  0
 27 29  1  0  0  0  0
 29 30  1  0  0  0  0
 29 31  1  0  0  0  0
 31 32  1  0  0  0  0
 31 33  1  0  0  0  0
 31 34  1  0  0  0  0
M  CHG  1  23   1
M  END
$$$$

  -OEChem-01062216093D

 34 33  0     1  0  0  0  0  0999 V2000
   -4.2168   -2.2252    0.6322 H   0  0  0  0  0  0  0  0  0  0  0  0
   -4.0226   -1.1932    0.3271 C   0  0  0  0  0  0  0  0  0  0  0  0
   -4.7673   -0.5431    0.7924 H   0  0  0  0  0  0  0  0  0  0  0  0
   -4.1187   -1.1265   -0.7597 H   0  0  0  0  0  0  0  0  0  0  0  0
   -2.6270   -0.7721    0.7483 C   0  0  0  0  0  0  0  0  0  0  0  0
   -1.9241   -1.5875    1.3242 O   0  0  0  0  0  0  0  0  0  0  0  0
   -2.2082    0.5063    0.4137 N   0  0  0  0  0  0  0  0  0  0  0  0
   -2.8455    0.9623   -0.2375 H   0  0  0  0  0  0  0  0  0  0  0  0
   -0.8619    1.1318    0.4782 C   0  0  1  0  0  0  0  0  0  0  0  0
   -1.0005    2.0558    1.0469 H   0  0  0  0  0  0  0  0  0  0  0  0
    0.2725    0.3651    1.1962 C   0  0  0  0  0  0  0  0  0  0  0  0
    0.3695   -0.6310    0.7510 H   0  0  0  0  0  0  0  0  0  0  0  0
    1.2179    0.8873    1.0153 H   0  0  0  0  0  0  0  0  0  0  0  0
    0.0690    0.2496    2.7212 C   0  0  0  0  0  0  0  0  0  0  0  0
    0.0147    1.2573    3.1467 H   0  0  0  0  0  0  0  0  0  0  0  0
   -0.8676   -0.2491    2.9736 H   0  0  0  0  0  0  0  0  0  0  0  0
    1.2444   -0.5038    3.3512 C   0  0  0  0  0  0  0  0  0  0  0  0
    1.3173   -1.4976    2.8945 H   0  0  0  0  0  0  0  0  0  0  0  0
    2.1770    0.0340    3.1493 H   0  0  0  0  0  0  0  0  0  0  0  0
    1.0297   -0.6408    4.8557 C   0  0  0  0  0  0  0  0  0  0  0  0
    0.9429    0.3594    5.3044 H   0  0  0  0  0  0  0  0  0  0  0  0
    0.0766   -1.1612    5.0349 H   0  0  0  0  0  0  0  0  0  0  0  0
    2.1637   -1.3924    5.4348 N   0  3  0  0  0  0  0  0  0  0  0  0
    3.0388   -0.8948    5.2627 H   0  0  0  0  0  0  0  0  0  0  0  0
    2.0347   -1.5030    6.4427 H   0  0  0  0  0  0  0  0  0  0  0  0
    2.2187   -2.3183    5.0047 H   0  0  0  0  0  0  0  0  0  0  0  0
   -0.4126    1.5888   -0.9302 C   0  0  0  0  0  0  0  0  0  0  0  0
   -0.8921    1.0694   -1.9286 O   0  0  0  0  0  0  0  0  0  0  0  0
    0.4273    2.6777   -1.0858 N   0  0  0  0  0  0  0  0  0  0  0  0
    0.7608    3.1499   -0.2514 H   0  0  0  0  0  0  0  0  0  0  0  0
    0.8004    3.2129   -2.3926 C   0  0  0  0  0  0  0  0  0  0  0  0
   -0.0892    3.5320   -2.9466 H   0  0  0  0  0  0  0  0  0  0  0  0
    1.4613    4.0773   -2.2760 H   0  0  0  0  0  0  0  0  0  0  0  0
    1.3259    2.4539   -2.9821 H   0  0  0  0  0  0  0  0  0  0  0  0
  1  2  1  0  0  0  0
  2  3  1  0  0  0  0
  2  4  1  0  0  0  0
  2  5  1  0  0  0  0
  5  6  2  0  0  0  0
  5  7  1  0  0  0  0
  7  8  1  0  0  0  0
  7  9  1  0  0  0  0
  9 10  1  0  0  0  0
  9 11  1  0  0  0  0
  9 27  1  0  0  0  0
 11 12  1  0  0  0  0
 11 13  1  0  0  0  0
 11 14  1  0  0  0  0
 14 15  1  0  0  0  0
 14 16  1  0  0  0  0
 14 17  1  0  0  0  0
 17 18  1  0  0  0  0
 17 19  1  0  0  0  0
 17 20  1  0  0  0  0
 20 21  1  0  0  0  0
 20 22  1  0  0  0  0
 20 23  1  0  0  0  0
 23 24  1  0  0  0  0
 23 25  1  0  0  0  0
 23 26  1  0  0  0  0
 27 28  2  0  0  0  0
 27 29  1  0  0  0  0
 29 30  1  0  0  0  0
 29 31  1  0  0  0  0
 31 32  1  0  0  0  0
 31 33  1  0  0  0  0
 31 34  1  0  0  0  0
M  CHG  1  23   1
M  END
$$$$

  -OEChem-01062216093D

 34 33  0     1  0  0  0  0  0999 V2000
   -4.1981   -2.2196    0.6229 H   0  0  0  0  0  0  0  0  0  0  0  0
   -4.0027   -1.1853    0.3260 C   0  0  0  0  0  0  0  0  0  0  0  0
   -4.7481   -0.5381    0.7942 H   0  0  0  0  0  0  0  0  0  0  0  0
   -4.0970   -1.1096   -0.7605 H   0  0  0  0  0  0  0  0  0  0  0  0
   -2.6078   -0.7684    0.7534 C   0  0  0  0  0  0  0  0  0  0  0  0
   -1.9055   -1.5894    1.3221 O   0  0  0  0  0  0  0  0  0  0  0  0
   -2.1852    0.5104    0.4261 N   0  0  0  0  0  0  0  0  0  0  0  0
   -2.8139    0.9657   -0.2355 H   0  0  0  0  0  0  0  0  0  0  0  0
   -0.8374    1.1337    0.4839 C   0  0  1  0  0  0  0  0  0  0  0  0
   -0.9670    2.0592    1.0529 H   0  0  0  0  0  0  0  0  0  0  0  0
    0.2922    0.3560    1.2013 C   0  0  0  0  0  0  0  0  0  0  0  0
    0.3834   -0.6406    0.7564 H   0  0  0  0  0  0  0  0  0  0  0  0
    1.2435    0.8684    1.0273 H   0  0  0  0  0  0  0  0  0  0  0  0
    0.0814    0.2452    2.7259 C   0  0  0  0  0  0  0  0  0  0  0  0
    0.0338    1.2545    3.1486 H   0  0  0  0  0  0  0  0  0  0  0  0
   -0.8618   -0.2431    2.9746 H   0  0  0  0  0  0  0  0  0  0  0  0
    1.2460   -0.5178    3.3646 C   0  0  0  0  0  0  0  0  0  0  0  0
    1.3111   -1.5136    2.9112 H   0  0  0  0  0  0  0  0  0  0  0  0
    2.1855    0.0097    3.1674 H   0  0  0  0  0  0  0  0  0  0  0  0
    1.0202   -0.6476    4.8681 C   0  0  0  0  0  0  0  0  0  0  0  0
    0.9406    0.3550    5.3130 H   0  0  0  0  0  0  0  0  0  0  0  0
    0.0606   -1.1574    5.0426 H   0  0  0  0  0  0  0  0  0  0  0  0
    2.1423   -1.4083    5.4588 N   0  3  0  0  0  0  0  0  0  0  0  0
    3.0239   -0.9205    5.2917 H   0  0  0  0  0  0  0  0  0  0  0  0
    2.0044   -1.5138    6.4662 H   0  0  0  0  0  0  0  0  0  0  0  0
    2.1913   -2.3366    5.0330 H   0  0  0  0  0  0  0  0  0  0  0  0
   -0.4070    1.5977   -0.9303 C   0  0  0  0  0  0  0  0  0  0  0  0
   -1.0837    1.2984   -1.9057 O   0  0  0  0  0  0  0  0  0  0  0  0
    0.6526    2.4714   -1.1042 N   0  0  0  0  0  0  0  0  0  0  0  0
    1.1668    2.7721   -0.2827 H   0  0  0  0  0  0  0  0  0  0  0  0
    1.0288    3.0157   -2.4061 C   0  0  0  0  0  0  0  0  0  0  0  0
    0.1935    3.5708   -2.8467 H   0  0  0  0  0  0  0  0  0  0  0  0
    1.8791    3.6970   -2.3032 H   0  0  0  0  0  0  0  0  0  0  0  0
    1.3133    2.2096   -3.0910 H   0  0  0  0  0  0  0  0  0  0  0  0
  1  2  1  0  0  0  0
  2  3  1  0  0  0  0
  2  4  1  0  0  0  0
  2  5  1  0  0  0  0
  5  6  2  0  0  0  0
  5  7  1  0  0  0  0
  7  8  1  0  0  0  0
  7  9  1  0  0  0  0
  9 10  1  0  0  0  0
  9 11  1  0  0  0  0
  9 27  1  0  0  0  0
 11 12  1  0  0  0  0
 11 13  1  0  0  0  0
 11 14  1  0  0  0  0
 14 15  1  0  0  0  0
 14 16  1  0  0  0  0
 14 17  1  0  0  0  0
 17 18  1  0  0  0  0
 17 19  1  0  0  0  0
 17 20  1  0  0  0  0
 20 21  1  0  0  0  0
 20 22  1  0  0  0  0
 20 23  1  0  0  0  0
 23 24  1  0  0  0  0
 23 25  1  0  0  0  0
 23 26  1  0  0  0  0
 27 28  2  0  0  0  0
 27 29  1  0  0  0  0
 29 30  1  0  0  0  0
 29 31  1  0  0  0  0
 31 32  1  0  0  0  0
 31 33  1  0  0  0  0
 31 34  1  0  0  0  0
M  CHG  1  23   1
M  END
$$$$

  -OEChem-01062216093D

 34 33  0     1  0  0  0  0  0999 V2000
   -4.3643   -2.0764    0.7647 H   0  0  0  0  0  0  0  0  0  0  0  0
   -4.1197   -1.0521    0.4692 C   0  0  0  0  0  0  0  0  0  0  0  0
   -4.7071   -0.3616    1.0794 H   0  0  0  0  0  0  0  0  0  0  0  0
   -4.3885   -0.9166   -0.5816 H   0  0  0  0  0  0  0  0  0  0  0  0
   -2.6381   -0.7866    0.6619 C   0  0  0  0  0  0  0  0  0  0  0  0
   -1.9148   -1.7227    0.9611 O   0  0  0  0  0  0  0  0  0  0  0  0
   -2.1622    0.4809    0.3733 N   0  0  0  0  0  0  0  0  0  0  0  0
   -2.8453    1.0630   -0.1141 H   0  0  0  0  0  0  0  0  0  0  0  0
   -0.8026    1.0781    0.4097 C   0  0  1  0  0  0  0  0  0  0  0  0
   -0.8502    1.8380    1.1955 H   0  0  0  0  0  0  0  0  0  0  0  0
    0.3956    0.1791    0.8100 C   0  0  0  0  0  0  0  0  0  0  0  0
    0.3999   -0.7033    0.1608 H   0  0  0  0  0  0  0  0  0  0  0  0
    1.3300    0.7175    0.6271 H   0  0  0  0  0  0  0  0  0  0  0  0
    0.3847   -0.2625    2.2915 C   0  0  0  0  0  0  0  0  0  0  0  0
    0.4143    0.6348    2.9190 H   0  0  0  0  0  0  0  0  0  0  0  0
   -0.5199   -0.7999    2.5696 H   0  0  0  0  0  0  0  0  0  0  0  0
    1.6116   -1.1270    2.5971 C   0  0  0  0  0  0  0  0  0  0  0  0
    1.6059   -2.0019    1.9371 H   0  0  0  0  0  0  0  0  0  0  0  0
    2.5249   -0.5556    2.3995 H   0  0  0  0  0  0  0  0  0  0  0  0
    1.5757   -1.5782    4.0549 C   0  0  0  0  0  0  0  0  0  0  0  0
    1.5653   -0.6947    4.7097 H   0  0  0  0  0  0  0  0  0  0  0  0
    0.6396   -2.1276    4.2366 H   0  0  0  0  0  0  0  0  0  0  0  0
    2.7527   -2.4314    4.3251 N   0  3  0  0  0  0  0  0  0  0  0  0
    3.6128   -1.9083    4.1530 H   0  0  0  0  0  0  0  0  0  0  0  0
    2.7426   -2.7467    5.2975 H   0  0  0  0  0  0  0  0  0  0  0  0
    2.7333   -3.2495    3.7122 H   0  0  0  0  0  0  0  0  0  0  0  0
   -0.5610    1.9048   -0.8802 C   0  0  0  0  0  0  0  0  0  0  0  0
   -1.4806    2.0690   -1.6724 O   0  0  0  0  0  0  0  0  0  0  0  0
    0.6302    2.5726   -1.1086 N   0  0  0  0  0  0  0  0  0  0  0  0
    1.3739    2.4740   -0.4259 H   0  0  0  0  0  0  0  0  0  0  0  0
    0.8595    3.4143   -2.2799 C   0  0  0  0  0  0  0  0  0  0  0  0
    0.1385    4.2385   -2.3087 H   0  0  0  0  0  0  0  0  0  0  0  0
    1.8673    3.8398   -2.2521 H   0  0  0  0  0  0  0  0  0  0  0  0
    0.7581    2.8277   -3.1995 H   0  0  0  0  0  0  0  0  0  0  0  0
  1  2  1  0  0  0  0
  2  3  1  0  0  0  0
  2  4  1  0  0  0  0
  2  5  1  0  0  0  0
  5  6  2  0  0  0  0
  5  7  1  0  0  0  0
  7  8  1  0  0  0  0
  7  9  1  0  0  0  0
  9 10  1  0  0  0  0
  9 11  1  0  0  0  0
  9 27  1  0  0  0  0
 11 12  1  0  0  0  0
 11 13  1  0  0  0  0
 11 14  1  0  0  0  0
 14 15  1  0  0  0  0
 14 16  1  0  0  0  0
 14 17  1  0  0  0  0
 17 18  1  0  0  0  0
 17 19  1  0  0  0  0
 17 20  1  0  0  0  0
 20 21  1  0  0  0  0
 20 22  1  0  0  0  0
 20 23  1  0  0  0  0
 23 24  1  0  0  0  0
 23 25  1  0  0  0  0
 23 26  1  0  0  0  0
 27 28  2  0  0  0  0
 27 29  1  0  0  0  0
 29 30  1  0  0  0  0
 29 31  1  0  0  0  0
 31 32  1  0  0  0  0
 31 33  1  0  0  0  0
 31 34  1  0  0  0  0
M  CHG  1  23   1
M  END
$$$$

  -OEChem-01062216093D

 34 33  0     1  0  0  0  0  0999 V2000
   -4.3348   -2.0676    0.7715 H   0  0  0  0  0  0  0  0  0  0  0  0
   -4.0891   -1.0447    0.4727 C   0  0  0  0  0  0  0  0  0  0  0  0
   -4.6644   -0.3509    1.0906 H   0  0  0  0  0  0  0  0  0  0  0  0
   -4.3712   -0.9074   -0.5743 H   0  0  0  0  0  0  0  0  0  0  0  0
   -2.6039   -0.7875    0.6443 C   0  0  0  0  0  0  0  0  0  0  0  0
   -1.8771   -1.7310    0.9110 O   0  0  0  0  0  0  0  0  0  0  0  0
   -2.1275    0.4835    0.3727 N   0  0  0  0  0  0  0  0  0  0  0  0
   -2.8206    1.0913   -0.0677 H   0  0  0  0  0  0  0  0  0  0  0  0
   -0.7677    1.0783    0.4159 C   0  0  1  0  0  0  0  0  0  0  0  0
   -0.8120    1.8339    1.2063 H   0  0  0  0  0  0  0  0  0  0  0  0
    0.4251    0.1711    0.8164 C   0  0  0  0  0  0  0  0  0  0  0  0
    0.4349   -0.7074    0.1621 H   0  0  0  0  0  0  0  0  0  0  0  0
    1.3629    0.7091    0.6520 H   0  0  0  0  0  0  0  0  0  0  0  0
    0.3961   -0.2735    2.2964 C   0  0  0  0  0  0  0  0  0  0  0  0
    0.4234    0.6225    2.9259 H   0  0  0  0  0  0  0  0  0  0  0  0
   -0.5161   -0.8059    2.5601 H   0  0  0  0  0  0  0  0  0  0  0  0
    1.6128   -1.1470    2.6173 C   0  0  0  0  0  0  0  0  0  0  0  0
    1.6090   -2.0223    1.9577 H   0  0  0  0  0  0  0  0  0  0  0  0
    2.5329   -0.5825    2.4317 H   0  0  0  0  0  0  0  0  0  0  0  0
    1.5531   -1.5974    4.0745 C   0  0  0  0  0  0  0  0  0  0  0  0
    1.5397   -0.7133    4.7283 H   0  0  0  0  0  0  0  0  0  0  0  0
    0.6098   -2.1389    4.2419 H   0  0  0  0  0  0  0  0  0  0  0  0
    2.7193   -2.4596    4.3635 N   0  3  0  0  0  0  0  0  0  0  0  0
    3.5862   -1.9443    4.2025 H   0  0  0  0  0  0  0  0  0  0  0  0
    2.6927   -2.7722    5.3364 H   0  0  0  0  0  0  0  0  0  0  0  0
    2.7020   -3.2793    3.7528 H   0  0  0  0  0  0  0  0  0  0  0  0
   -0.5419    1.9189   -0.8686 C   0  0  0  0  0  0  0  0  0  0  0  0
   -1.5163    2.2941   -1.5096 O   0  0  0  0  0  0  0  0  0  0  0  0
    0.7123    2.3464   -1.2698 N   0  0  0  0  0  0  0  0  0  0  0  0
    1.5178    2.0238   -0.7449 H   0  0  0  0  0  0  0  0  0  0  0  0
    0.9324    3.1556   -2.4655 C   0  0  0  0  0  0  0  0  0  0  0  0
    0.3707    4.0941   -2.4037 H   0  0  0  0  0  0  0  0  0  0  0  0
    1.9944    3.3976   -2.5716 H   0  0  0  0  0  0  0  0  0  0  0  0
    0.6105    2.6127   -3.3607 H   0  0  0  0  0  0  0  0  0  0  0  0
  1  2  1  0  0  0  0
  2  3  1  0  0  0  0
  2  4  1  0  0  0  0
  2  5  1  0  0  0  0
  5  6  2  0  0  0  0
  5  7  1  0  0  0  0
  7  8  1  0  0  0  0
  7  9  1  0  0  0  0
  9 10  1  0  0  0  0
  9 11  1  0  0  0  0
  9 27  1  0  0  0  0
 11 12  1  0  0  0  0
 11 13  1  0  0  0  0
 11 14  1  0  0  0  0
 14 15  1  0  0  0  0
 14 16  1  0  0  0  0
 14 17  1  0  0  0  0
 17 18  1  0  0  0  0
 17 19  1  0  0  0  0
 17 20  1  0  0  0  0
 20 21  1  0  0  0  0
 20 22  1  0  0  0  0
 20 23  1  0  0  0  0
 23 24  1  0  0  0  0
 23 25  1  0  0  0  0
 23 26  1  0  0  0  0
 27 28  2  0  0  0  0
 27 29  1  0  0  0  0
 29 30  1  0  0  0  0
 29 31  1  0  0  0  0
 31 32  1  0  0  0  0
 31 33  1  0  0  0  0
 31 34  1  0  0  0  0
M  CHG  1  23   1
M  END
$$$$

  -OEChem-01062216093D

 34 33  0     1  0  0  0  0  0999 V2000
   -4.3141   -2.0640    0.7713 H   0  0  0  0  0  0  0  0  0  0  0  0
   -4.0707   -1.0398    0.4745 C   0  0  0  0  0  0  0  0  0  0  0  0
   -4.6326   -0.3485    1.1073 H   0  0  0  0  0  0  0  0  0  0  0  0
   -4.3718   -0.8950   -0.5662 H   0  0  0  0  0  0  0  0  0  0  0  0
   -2.5816   -0.7883    0.6210 C   0  0  0  0  0  0  0  0  0  0  0  0
   -1.8510   -1.7356    0.8636 O   0  0  0  0  0  0  0  0  0  0  0  0
   -2.1028    0.4837    0.3592 N   0  0  0  0  0  0  0  0  0  0  0  0
   -2.8038    1.1156   -0.0318 H   0  0  0  0  0  0  0  0  0  0  0  0
   -0.7416    1.0722    0.4160 C   0  0  1  0  0  0  0  0  0  0  0  0
   -0.7881    1.8268    1.2073 H   0  0  0  0  0  0  0  0  0  0  0  0
    0.4467    0.1632    0.8253 C   0  0  0  0  0  0  0  0  0  0  0  0
    0.4662   -0.7138    0.1692 H   0  0  0  0  0  0  0  0  0  0  0  0
    1.3843    0.7067    0.6756 H   0  0  0  0  0  0  0  0  0  0  0  0
    0.4011   -0.2825    2.3046 C   0  0  0  0  0  0  0  0  0  0  0  0
    0.4193    0.6119    2.9370 H   0  0  0  0  0  0  0  0  0  0  0  0
   -0.5147   -0.8173    2.5537 H   0  0  0  0  0  0  0  0  0  0  0  0
    1.6132   -1.1576    2.6384 C   0  0  0  0  0  0  0  0  0  0  0  0
    1.6172   -2.0321    1.9779 H   0  0  0  0  0  0  0  0  0  0  0  0
    2.5355   -0.5928    2.4649 H   0  0  0  0  0  0  0  0  0  0  0  0
    1.5360   -1.6082    4.0946 C   0  0  0  0  0  0  0  0  0  0  0  0
    1.5165   -0.7243    4.7488 H   0  0  0  0  0  0  0  0  0  0  0  0
    0.5903   -2.1487    4.2517 H   0  0  0  0  0  0  0  0  0  0  0  0
    2.6980   -2.4718    4.3951 N   0  3  0  0  0  0  0  0  0  0  0  0
    3.5667   -1.9562    4.2449 H   0  0  0  0  0  0  0  0  0  0  0  0
    2.6605   -2.7861    5.3671 H   0  0  0  0  0  0  0  0  0  0  0  0
    2.6876   -3.2903    3.7827 H   0  0  0  0  0  0  0  0  0  0  0  0
   -0.5156    1.9154   -0.8653 C   0  0  0  0  0  0  0  0  0  0  0  0
   -1.4775    2.4894   -1.3608 O   0  0  0  0  0  0  0  0  0  0  0  0
    0.7307    2.0957   -1.4408 N   0  0  0  0  0  0  0  0  0  0  0  0
    1.5047    1.5515   -1.0753 H   0  0  0  0  0  0  0  0  0  0  0  0
    0.9369    2.8743   -2.6594 C   0  0  0  0  0  0  0  0  0  0  0  0
    0.5756    3.8999   -2.5263 H   0  0  0  0  0  0  0  0  0  0  0  0
    2.0017    2.9161   -2.9087 H   0  0  0  0  0  0  0  0  0  0  0  0
    0.4020    2.4209   -3.5010 H   0  0  0  0  0  0  0  0  0  0  0  0
  1  2  1  0  0  0  0
  2  3  1  0  0  0  0
  2  4  1  0  0  0  0
  2  5  1  0  0  0  0
  5  6  2  0  0  0  0
  5  7  1  0  0  0  0
  7  8  1  0  0  0  0
  7  9  1  0  0  0  0
  9 10  1  0  0  0  0
  9 11  1  0  0  0  0
  9 27  1  0  0  0  0
 11 12  1  0  0  0  0
 11 13  1  0  0  0  0
 11 14  1  0  0  0  0
 14 15  1  0  0  0  0
 14 16  1  0  0  0  0
 14 17  1  0  0  0  0
 17 18  1  0  0  0  0
 17 19  1  0  0  0  0
 17 20  1  0  0  0  0
 20 21  1  0  0  0  0
 20 22  1  0  0  0  0
 20 23  1  0  0  0  0
 23 24  1  0  0  0  0
 23 25  1  0  0  0  0
 23 26  1  0  0  0  0
 27 28  2  0  0  0  0
 27 29  1  0  0  0  0
 29 30  1  0  0  0  0
 29 31  1  0  0  0  0
 31 32  1  0  0  0  0
 31 33  1  0  0  0  0
 31 34  1  0  0  0  0
M  CHG  1  23   1
M  END
$$$$

  -OEChem-01062216093D

 34 33  0     1  0  0  0  0  0999 V2000
   -4.2990   -2.0588    0.8040 H   0  0  0  0  0  0  0  0  0  0  0  0
   -4.0588   -1.0375    0.4950 C   0  0  0  0  0  0  0  0  0  0  0  0
   -4.5997   -0.3402    1.1395 H   0  0  0  0  0  0  0  0  0  0  0  0
   -4.3871   -0.8964   -0.5379 H   0  0  0  0  0  0  0  0  0  0  0  0
   -2.5655   -0.7926    0.6002 C   0  0  0  0  0  0  0  0  0  0  0  0
   -1.8299   -1.7426    0.8164 O   0  0  0  0  0  0  0  0  0  0  0  0
   -2.0890    0.4807    0.3416 N   0  0  0  0  0  0  0  0  0  0  0  0
   -2.8002    1.1301    0.0019 H   0  0  0  0  0  0  0  0  0  0  0  0
   -0.7280    1.0658    0.4107 C   0  0  1  0  0  0  0  0  0  0  0  0
   -0.7798    1.8192    1.2032 H   0  0  0  0  0  0  0  0  0  0  0  0
    0.4586    0.1595    0.8256 C   0  0  0  0  0  0  0  0  0  0  0  0
    0.4865   -0.7163    0.1685 H   0  0  0  0  0  0  0  0  0  0  0  0
    1.3939    0.7101    0.6825 H   0  0  0  0  0  0  0  0  0  0  0  0
    0.4001   -0.2873    2.3030 C   0  0  0  0  0  0  0  0  0  0  0  0
    0.4092    0.6063    2.9367 H   0  0  0  0  0  0  0  0  0  0  0  0
   -0.5173   -0.8254    2.5394 H   0  0  0  0  0  0  0  0  0  0  0  0
    1.6111   -1.1602    2.6462 C   0  0  0  0  0  0  0  0  0  0  0  0
    1.6227   -2.0339    1.9846 H   0  0  0  0  0  0  0  0  0  0  0  0
    2.5338   -0.5933    2.4810 H   0  0  0  0  0  0  0  0  0  0  0  0
    1.5228   -1.6131    4.1012 C   0  0  0  0  0  0  0  0  0  0  0  0
    1.4964   -0.7298    4.7556 H   0  0  0  0  0  0  0  0  0  0  0  0
    0.5767   -2.1550    4.2501 H   0  0  0  0  0  0  0  0  0  0  0  0
    2.6841   -2.4746    4.4112 N   0  3  0  0  0  0  0  0  0  0  0  0
    3.5528   -1.9570    4.2675 H   0  0  0  0  0  0  0  0  0  0  0  0
    2.6399   -2.7879    5.3833 H   0  0  0  0  0  0  0  0  0  0  0  0
    2.6803   -3.2935    3.7995 H   0  0  0  0  0  0  0  0  0  0  0  0
   -0.4893    1.9077   -0.8652 C   0  0  0  0  0  0  0  0  0  0  0  0
   -1.3829    2.6573   -1.2362 O   0  0  0  0  0  0  0  0  0  0  0  0
    0.6831    1.8472   -1.5986 N   0  0  0  0  0  0  0  0  0  0  0  0
    1.3530    1.1257   -1.3531 H   0  0  0  0  0  0  0  0  0  0  0  0
    0.8750    2.5828   -2.8454 C   0  0  0  0  0  0  0  0  0  0  0  0
    0.7388    3.6576   -2.6829 H   0  0  0  0  0  0  0  0  0  0  0  0
    1.8860    2.4205   -3.2316 H   0  0  0  0  0  0  0  0  0  0  0  0
    0.1571    2.2495   -3.6025 H   0  0  0  0  0  0  0  0  0  0  0  0
  1  2  1  0  0  0  0
  2  3  1  0  0  0  0
  2  4  1  0  0  0  0
  2  5  1  0  0  0  0
  5  6  2  0  0  0  0
  5  7  1  0  0  0  0
  7  8  1  0  0  0  0
  7  9  1  0  0  0  0
  9 10  1  0  0  0  0
  9 11  1  0  0  0  0
  9 27  1  0  0  0  0
 11 12  1  0  0  0  0
 11 13  1  0  0  0  0
 11 14  1  0  0  0  0
 14 15  1  0  0  0  0
 14 16  1  0  0  0  0
 14 17  1  0  0  0  0
 17 18  1  0  0  0  0
 17 19  1  0  0  0  0
 17 20  1  0  0  0  0
 20 21  1  0  0  0  0
 20 22  1  0  0  0  0
 20 23  1  0  0  0  0
 23 24  1  0  0  0  0
 23 25  1  0  0  0  0
 23 26  1  0  0  0  0
 27 28  2  0  0  0  0
 27 29  1  0  0  0  0
 29 30  1  0  0  0  0
 29 31  1  0  0  0  0
 31 32  1  0  0  0  0
 31 33  1  0  0  0  0
 31 34  1  0  0  0  0
M  CHG  1  23   1
M  END
$$$$

  -OEChem-01062216093D

 34 33  0     1  0  0  0  0  0999 V2000
   -4.2981   -2.0577    0.8143 H   0  0  0  0  0  0  0  0  0  0  0  0
   -4.0619   -1.0356    0.5055 C   0  0  0  0  0  0  0  0  0  0  0  0
   -4.5924   -0.3403    1.1607 H   0  0  0  0  0  0  0  0  0  0  0  0
   -4.4060   -0.8905   -0.5217 H   0  0  0  0  0  0  0  0  0  0  0  0
   -2.5665   -0.7937    0.5888 C   0  0  0  0  0  0  0  0  0  0  0  0
   -1.8279   -1.7444    0.7903 O   0  0  0  0  0  0  0  0  0  0  0  0
   -2.0881    0.4776    0.3250 N   0  0  0  0  0  0  0  0  0  0  0  0
   -2.8052    1.1394    0.0253 H   0  0  0  0  0  0  0  0  0  0  0  0
   -0.7250    1.0553    0.4023 C   0  0  1  0  0  0  0  0  0  0  0  0
   -0.7797    1.8111    1.1927 H   0  0  0  0  0  0  0  0  0  0  0  0
    0.4620    0.1534    0.8239 C   0  0  0  0  0  0  0  0  0  0  0  0
    0.4955   -0.7250    0.1710 H   0  0  0  0  0  0  0  0  0  0  0  0
    1.3944    0.7090    0.6774 H   0  0  0  0  0  0  0  0  0  0  0  0
    0.3998   -0.2911    2.3014 C   0  0  0  0  0  0  0  0  0  0  0  0
    0.4022    0.6028    2.9346 H   0  0  0  0  0  0  0  0  0  0  0  0
   -0.5167   -0.8342    2.5317 H   0  0  0  0  0  0  0  0  0  0  0  0
    1.6123   -1.1594    2.6507 C   0  0  0  0  0  0  0  0  0  0  0  0
    1.6302   -2.0338    1.9900 H   0  0  0  0  0  0  0  0  0  0  0  0
    2.5332   -0.5887    2.4881 H   0  0  0  0  0  0  0  0  0  0  0  0
    1.5212   -1.6106    4.1062 C   0  0  0  0  0  0  0  0  0  0  0  0
    1.4899   -0.7265    4.7594 H   0  0  0  0  0  0  0  0  0  0  0  0
    0.5771   -2.1563    4.2540 H   0  0  0  0  0  0  0  0  0  0  0  0
    2.6846   -2.4673    4.4210 N   0  3  0  0  0  0  0  0  0  0  0  0
    3.5520   -1.9479    4.2748 H   0  0  0  0  0  0  0  0  0  0  0  0
    2.6412   -2.7755    5.3948 H   0  0  0  0  0  0  0  0  0  0  0  0
    2.6834   -3.2894    3.8134 H   0  0  0  0  0  0  0  0  0  0  0  0
   -0.4679    1.8875   -0.8724 C   0  0  0  0  0  0  0  0  0  0  0  0
   -1.2383    2.8024   -1.1280 O   0  0  0  0  0  0  0  0  0  0  0  0
    0.5622    1.6031   -1.7514 N   0  0  0  0  0  0  0  0  0  0  0  0
    1.0784    0.7419   -1.6013 H   0  0  0  0  0  0  0  0  0  0  0  0
    0.7389    2.3120   -3.0152 C   0  0  0  0  0  0  0  0  0  0  0  0
    0.8448    3.3883   -2.8407 H   0  0  0  0  0  0  0  0  0  0  0  0
    1.6388    1.9579   -3.5275 H   0  0  0  0  0  0  0  0  0  0  0  0
   -0.1222    2.1469   -3.6719 H   0  0  0  0  0  0  0  0  0  0  0  0
  1  2  1  0  0  0  0
  2  3  1  0  0  0  0
  2  4  1  0  0  0  0
  2  5  1  0  0  0  0
  5  6  2  0  0  0  0
  5  7  1  0  0  0  0
  7  8  1  0  0  0  0
  7  9  1  0  0  0  0
  9 10  1  0  0  0  0
  9 11  1  0  0  0  0
  9 27  1  0  0  0  0
 11 12  1  0  0  0  0
 11 13  1  0  0  0  0
 11 14  1  0  0  0  0
 14 15  1  0  0  0  0
 14 16  1  0  0  0  0
 14 17  1  0  0  0  0
 17 18  1  0  0  0  0
 17 19  1  0  0  0  0
 17 20  1  0  0  0  0
 20 21  1  0  0  0  0
 20 22  1  0  0  0  0
 20 23  1  0  0  0  0
 23 24  1  0  0  0  0
 23 25  1  0  0  0  0
 23 26  1  0  0  0  0
 27 28  2  0  0  0  0
 27 29  1  0  0  0  0
 29 30  1  0  0  0  0
 29 31  1  0  0  0  0
 31 32  1  0  0  0  0
 31 33  1  0  0  0  0
 31 34  1  0  0  0  0
M  CHG  1  23   1
M  END
$$$$

  -OEChem-01062216093D

 34 33  0     1  0  0  0  0  0999 V2000
   -4.2973   -2.0656    0.8499 H   0  0  0  0  0  0  0  0  0  0  0  0
   -4.0680   -1.0433    0.5362 C   0  0  0  0  0  0  0  0  0  0  0  0
   -4.5834   -0.3482    1.2036 H   0  0  0  0  0  0  0  0  0  0  0  0
   -4.4350   -0.8981   -0.4831 H   0  0  0  0  0  0  0  0  0  0  0  0
   -2.5712   -0.8016    0.5856 C   0  0  0  0  0  0  0  0  0  0  0  0
   -1.8280   -1.7520    0.7703 O   0  0  0  0  0  0  0  0  0  0  0  0
   -2.0967    0.4683    0.3081 N   0  0  0  0  0  0  0  0  0  0  0  0
   -2.8222    1.1363    0.0472 H   0  0  0  0  0  0  0  0  0  0  0  0
   -0.7337    1.0451    0.3885 C   0  0  1  0  0  0  0  0  0  0  0  0
   -0.7919    1.8038    1.1761 H   0  0  0  0  0  0  0  0  0  0  0  0
    0.4540    0.1489    0.8162 C   0  0  0  0  0  0  0  0  0  0  0  0
    0.4916   -0.7321    0.1670 H   0  0  0  0  0  0  0  0  0  0  0  0
    1.3840    0.7074    0.6646 H   0  0  0  0  0  0  0  0  0  0  0  0
    0.3914   -0.2914    2.2947 C   0  0  0  0  0  0  0  0  0  0  0  0
    0.3893    0.6041    2.9257 H   0  0  0  0  0  0  0  0  0  0  0  0
   -0.5230   -0.8390    2.5239 H   0  0  0  0  0  0  0  0  0  0  0  0
    1.6075   -1.1539    2.6454 C   0  0  0  0  0  0  0  0  0  0  0  0
    1.6280   -2.0293    1.9862 H   0  0  0  0  0  0  0  0  0  0  0  0
    2.5260   -0.5800    2.4804 H   0  0  0  0  0  0  0  0  0  0  0  0
    1.5205   -1.6033    4.1016 C   0  0  0  0  0  0  0  0  0  0  0  0
    1.4870   -0.7182    4.7535 H   0  0  0  0  0  0  0  0  0  0  0  0
    0.5793   -2.1529    4.2524 H   0  0  0  0  0  0  0  0  0  0  0  0
    2.6888   -2.4540    4.4145 N   0  3  0  0  0  0  0  0  0  0  0  0
    3.5532   -1.9301    4.2664 H   0  0  0  0  0  0  0  0  0  0  0  0
    2.6488   -2.7622    5.3883 H   0  0  0  0  0  0  0  0  0  0  0  0
    2.6907   -3.2760    3.8069 H   0  0  0  0  0  0  0  0  0  0  0  0
   -0.4543    1.8635   -0.8876 C   0  0  0  0  0  0  0  0  0  0  0  0
   -1.0428    2.9239   -1.0389 O   0  0  0  0  0  0  0  0  0  0  0  0
    0.3762    1.3938   -1.8890 N   0  0  0  0  0  0  0  0  0  0  0  0
    0.7003    0.4344   -1.8096 H   0  0  0  0  0  0  0  0  0  0  0  0
    0.5500    2.0873   -3.1617 C   0  0  0  0  0  0  0  0  0  0  0  0
    0.9056    3.1102   -2.9971 H   0  0  0  0  0  0  0  0  0  0  0  0
    1.2851    1.5648   -3.7817 H   0  0  0  0  0  0  0  0  0  0  0  0
   -0.3980    2.1299   -3.7086 H   0  0  0  0  0  0  0  0  0  0  0  0
  1  2  1  0  0  0  0
  2  3  1  0  0  0  0
  2  4  1  0  0  0  0
  2  5  1  0  0  0  0
  5  6  2  0  0  0  0
  5  7  1  0  0  0  0
  7  8  1  0  0  0  0
  7  9  1  0  0  0  0
  9 10  1  0  0  0  0
  9 11  1  0  0  0  0
  9 27  1  0  0  0  0
 11 12  1  0  0  0  0
 11 13  1  0  0  0  0
 11 14  1  0  0  0  0
 14 15  1  0  0  0  0
 14 16  1  0  0  0  0
 14 17  1  0  0  0  0
 17 18  1  0  0  0  0
 17 19  1  0  0  0  0
 17 20  1  0  0  0  0
 20 21  1  0  0  0  0
 20 22  1  0  0  0  0
 20 23  1  0  0  0  0
 23 24  1  0  0  0  0
 23 25  1  0  0  0  0
 23 26  1  0  0  0  0
 27 28  2  0  0  0  0
 27 29  1  0  0  0  0
 29 30  1  0  0  0  0
 29 31  1  0  0  0  0
 31 32  1  0  0  0  0
 31 33  1  0  0  0  0
 31 34  1  0  0  0  0
M  CHG  1  23   1
M  END
$$$$

  -OEChem-01062216093D

 34 33  0     1  0  0  0  0  0999 V2000
   -4.3018   -2.0773    0.8964 H   0  0  0  0  0  0  0  0  0  0  0  0
   -4.0813   -1.0544    0.5777 C   0  0  0  0  0  0  0  0  0  0  0  0
   -4.5785   -0.3606    1.2599 H   0  0  0  0  0  0  0  0  0  0  0  0
   -4.4769   -0.9078   -0.4306 H   0  0  0  0  0  0  0  0  0  0  0  0
   -2.5835   -0.8123    0.5865 C   0  0  0  0  0  0  0  0  0  0  0  0
   -1.8341   -1.7616    0.7495 O   0  0  0  0  0  0  0  0  0  0  0  0
   -2.1155    0.4561    0.2915 N   0  0  0  0  0  0  0  0  0  0  0  0
   -2.8510    1.1264    0.0703 H   0  0  0  0  0  0  0  0  0  0  0  0
   -0.7538    1.0373    0.3751 C   0  0  1  0  0  0  0  0  0  0  0  0
   -0.8184    1.8009    1.1580 H   0  0  0  0  0  0  0  0  0  0  0  0
    0.4377    0.1491    0.8074 C   0  0  0  0  0  0  0  0  0  0  0  0
    0.4828   -0.7327    0.1598 H   0  0  0  0  0  0  0  0  0  0  0  0
    1.3642    0.7138    0.6543 H   0  0  0  0  0  0  0  0  0  0  0  0
    0.3781   -0.2905    2.2853 C   0  0  0  0  0  0  0  0  0  0  0  0
    0.3702    0.6046    2.9166 H   0  0  0  0  0  0  0  0  0  0  0  0
   -0.5326   -0.8449    2.5135 H   0  0  0  0  0  0  0  0  0  0  0  0
    1.6011   -1.1445    2.6327 C   0  0  0  0  0  0  0  0  0  0  0  0
    1.6261   -2.0194    1.9733 H   0  0  0  0  0  0  0  0  0  0  0  0
    2.5149   -0.5636    2.4655 H   0  0  0  0  0  0  0  0  0  0  0  0
    1.5218   -1.5961    4.0881 C   0  0  0  0  0  0  0  0  0  0  0  0
    1.4836   -0.7121    4.7414 H   0  0  0  0  0  0  0  0  0  0  0  0
    0.5851   -2.1530    4.2401 H   0  0  0  0  0  0  0  0  0  0  0  0
    2.6978   -2.4384    4.3952 N   0  3  0  0  0  0  0  0  0  0  0  0
    3.5576   -1.9083    4.2421 H   0  0  0  0  0  0  0  0  0  0  0  0
    2.6655   -2.7462    5.3694 H   0  0  0  0  0  0  0  0  0  0  0  0
    2.7026   -3.2606    3.7879 H   0  0  0  0  0  0  0  0  0  0  0  0
   -0.4534    1.8381   -0.9061 C   0  0  0  0  0  0  0  0  0  0  0  0
   -0.7927    3.0102   -0.9655 O   0  0  0  0  0  0  0  0  0  0  0  0
    0.1316    1.2344   -2.0037 N   0  0  0  0  0  0  0  0  0  0  0  0
    0.2428    0.2247   -1.9708 H   0  0  0  0  0  0  0  0  0  0  0  0
    0.3183    1.9193   -3.2788 C   0  0  0  0  0  0  0  0  0  0  0  0
    0.9181    2.8258   -3.1433 H   0  0  0  0  0  0  0  0  0  0  0  0
    0.8377    1.2672   -3.9878 H   0  0  0  0  0  0  0  0  0  0  0  0
   -0.6487    2.1999   -3.7099 H   0  0  0  0  0  0  0  0  0  0  0  0
  1  2  1  0  0  0  0
  2  3  1  0  0  0  0
  2  4  1  0  0  0  0
  2  5  1  0  0  0  0
  5  6  2  0  0  0  0
  5  7  1  0  0  0  0
  7  8  1  0  0  0  0
  7  9  1  0  0  0  0
  9 10  1  0  0  0  0
  9 11  1  0  0  0  0
  9 27  1  0  0  0  0
 11 12  1  0  0  0  0
 11 13  1  0  0  0  0
 11 14  1  0  0  0  0
 14 15  1  0  0  0  0
 14 16  1  0  0  0  0
 14 17  1  0  0  0  0
 17 18  1  0  0  0  0
 17 19  1  0  0  0  0
 17 20  1  0  0  0  0
 20 21  1  0  0  0  0
 20 22  1  0  0  0  0
 20 23  1  0  0  0  0
 23 24  1  0  0  0  0
 23 25  1  0  0  0  0
 23 26  1  0  0  0  0
 27 28  2  0  0  0  0
 27 29  1  0  0  0  0
 29 30  1  0  0  0  0
 29 31  1  0  0  0  0
 31 32  1  0  0  0  0
 31 33  1  0  0  0  0
 31 34  1  0  0  0  0
M  CHG  1  23   1
M  END
$$$$

  -OEChem-01062216093D

 34 33  0     1  0  0  0  0  0999 V2000
   -4.3090   -2.0941    0.9580 H   0  0  0  0  0  0  0  0  0  0  0  0
   -4.0990   -1.0736    0.6259 C   0  0  0  0  0  0  0  0  0  0  0  0
   -4.5802   -0.3757    1.3154 H   0  0  0  0  0  0  0  0  0  0  0  0
   -4.5202   -0.9360   -0.3730 H   0  0  0  0  0  0  0  0  0  0  0  0
   -2.6021   -0.8286    0.5943 C   0  0  0  0  0  0  0  0  0  0  0  0
   -1.8463   -1.7756    0.7379 O   0  0  0  0  0  0  0  0  0  0  0  0
   -2.1438    0.4391    0.2815 N   0  0  0  0  0  0  0  0  0  0  0  0
   -2.8882    1.1079    0.0893 H   0  0  0  0  0  0  0  0  0  0  0  0
   -0.7841    1.0278    0.3638 C   0  0  1  0  0  0  0  0  0  0  0  0
   -0.8542    1.7950    1.1427 H   0  0  0  0  0  0  0  0  0  0  0  0
    0.4138    0.1498    0.7956 C   0  0  0  0  0  0  0  0  0  0  0  0
    0.4659   -0.7315    0.1479 H   0  0  0  0  0  0  0  0  0  0  0  0
    1.3355    0.7216    0.6395 H   0  0  0  0  0  0  0  0  0  0  0  0
    0.3609   -0.2892    2.2735 C   0  0  0  0  0  0  0  0  0  0  0  0
    0.3455    0.6057    2.9053 H   0  0  0  0  0  0  0  0  0  0  0  0
   -0.5431   -0.8543    2.5020 H   0  0  0  0  0  0  0  0  0  0  0  0
    1.5925   -1.1322    2.6154 C   0  0  0  0  0  0  0  0  0  0  0  0
    1.6230   -2.0060    1.9547 H   0  0  0  0  0  0  0  0  0  0  0  0
    2.5000   -0.5426    2.4446 H   0  0  0  0  0  0  0  0  0  0  0  0
    1.5244   -1.5857    4.0705 C   0  0  0  0  0  0  0  0  0  0  0  0
    1.4816   -0.7027    4.7250 H   0  0  0  0  0  0  0  0  0  0  0  0
    0.5939   -2.1517    4.2271 H   0  0  0  0  0  0  0  0  0  0  0  0
    2.7103   -2.4168    4.3685 N   0  3  0  0  0  0  0  0  0  0  0  0
    3.5635   -1.8769    4.2127 H   0  0  0  0  0  0  0  0  0  0  0  0
    2.6862   -2.7285    5.3417 H   0  0  0  0  0  0  0  0  0  0  0  0
    2.7205   -3.2366    3.7580 H   0  0  0  0  0  0  0  0  0  0  0  0
   -0.4697    1.8133   -0.9221 C   0  0  0  0  0  0  0  0  0  0  0  0
   -0.5044    3.0340   -0.9046 O   0  0  0  0  0  0  0  0  0  0  0  0
   -0.1647    1.1468   -2.0935 N   0  0  0  0  0  0  0  0  0  0  0  0
   -0.2591    0.1344   -2.0886 H   0  0  0  0  0  0  0  0  0  0  0  0
    0.0594    1.8294   -3.3635 C   0  0  0  0  0  0  0  0  0  0  0  0
    0.8763    2.5532   -3.2716 H   0  0  0  0  0  0  0  0  0  0  0  0
    0.3270    1.1067   -4.1406 H   0  0  0  0  0  0  0  0  0  0  0  0
   -0.8453    2.3595   -3.6801 H   0  0  0  0  0  0  0  0  0  0  0  0
  1  2  1  0  0  0  0
  2  3  1  0  0  0  0
  2  4  1  0  0  0  0
  2  5  1  0  0  0  0
  5  6  2  0  0  0  0
  5  7  1  0  0  0  0
  7  8  1  0  0  0  0
  7  9  1  0  0  0  0
  9 10  1  0  0  0  0
  9 11  1  0  0  0  0
  9 27  1  0  0  0  0
 11 12  1  0  0  0  0
 11 13  1  0  0  0  0
 11 14  1  0  0  0  0
 14 15  1  0  0  0  0
 14 16  1  0  0  0  0
 14 17  1  0  0  0  0
 17 18  1  0  0  0  0
 17 19  1  0  0  0  0
 17 20  1  0  0  0  0
 20 21  1  0  0  0  0
 20 22  1  0  0  0  0
 20 23  1  0  0  0  0
 23 24  1  0  0  0  0
 23 25  1  0  0  0  0
 23 26  1  0  0  0  0
 27 28  2  0  0  0  0
 27 29  1  0  0  0  0
 29 30  1  0  0  0  0
 29 31  1  0  0  0  0
 31 32  1  0  0  0  0
 31 33  1  0  0  0  0
 31 34  1  0  0  0  0
M  CHG  1  23   1
M  END
$$$$

  -OEChem-01062216093D

 34 33  0     1  0  0  0  0  0999 V2000
   -4.3294   -2.1141    0.9846 H   0  0  0  0  0  0  0  0  0  0  0  0
   -4.1262   -1.0894    0.6604 C   0  0  0  0  0  0  0  0  0  0  0  0
   -4.6000   -0.4000    1.3635 H   0  0  0  0  0  0  0  0  0  0  0  0
   -4.5613   -0.9424   -0.3314 H   0  0  0  0  0  0  0  0  0  0  0  0
   -2.6304   -0.8400    0.6119 C   0  0  0  0  0  0  0  0  0  0  0  0
   -1.8701   -1.7841    0.7473 O   0  0  0  0  0  0  0  0  0  0  0  0
   -2.1797    0.4268    0.2844 N   0  0  0  0  0  0  0  0  0  0  0  0
   -2.9303    1.0934    0.1107 H   0  0  0  0  0  0  0  0  0  0  0  0
   -0.8211    1.0222    0.3608 C   0  0  1  0  0  0  0  0  0  0  0  0
   -0.8930    1.7945    1.1347 H   0  0  0  0  0  0  0  0  0  0  0  0
    0.3837    0.1526    0.7891 C   0  0  0  0  0  0  0  0  0  0  0  0
    0.4376   -0.7277    0.1401 H   0  0  0  0  0  0  0  0  0  0  0  0
    1.3009    0.7300    0.6269 H   0  0  0  0  0  0  0  0  0  0  0  0
    0.3458   -0.2875    2.2669 C   0  0  0  0  0  0  0  0  0  0  0  0
    0.3291    0.6068    2.8995 H   0  0  0  0  0  0  0  0  0  0  0  0
   -0.5524   -0.8591    2.5027 H   0  0  0  0  0  0  0  0  0  0  0  0
    1.5877   -1.1216    2.5970 C   0  0  0  0  0  0  0  0  0  0  0  0
    1.6200   -1.9945    1.9352 H   0  0  0  0  0  0  0  0  0  0  0  0
    2.4890   -0.5245    2.4191 H   0  0  0  0  0  0  0  0  0  0  0  0
    1.5374   -1.5777    4.0518 C   0  0  0  0  0  0  0  0  0  0  0  0
    1.4940   -0.6961    4.7077 H   0  0  0  0  0  0  0  0  0  0  0  0
    0.6129   -2.1509    4.2164 H   0  0  0  0  0  0  0  0  0  0  0  0
    2.7327   -2.3998    4.3377 N   0  3  0  0  0  0  0  0  0  0  0  0
    3.5802   -1.8550    4.1683 H   0  0  0  0  0  0  0  0  0  0  0  0
    2.7241   -2.7075    5.3123 H   0  0  0  0  0  0  0  0  0  0  0  0
    2.7405   -3.2217    3.7303 H   0  0  0  0  0  0  0  0  0  0  0  0
   -0.5002    1.7968   -0.9298 C   0  0  0  0  0  0  0  0  0  0  0  0
   -0.2155    2.9828   -0.8675 O   0  0  0  0  0  0  0  0  0  0  0  0
   -0.4932    1.1457   -2.1482 N   0  0  0  0  0  0  0  0  0  0  0  0
   -0.7744    0.1684   -2.1552 H   0  0  0  0  0  0  0  0  0  0  0  0
   -0.2165    1.8163   -3.4138 C   0  0  0  0  0  0  0  0  0  0  0  0
    0.7693    2.2929   -3.3890 H   0  0  0  0  0  0  0  0  0  0  0  0
   -0.2285    1.0949   -4.2366 H   0  0  0  0  0  0  0  0  0  0  0  0
   -0.9719    2.5834   -3.6146 H   0  0  0  0  0  0  0  0  0  0  0  0
  1  2  1  0  0  0  0
  2  3  1  0  0  0  0
  2  4  1  0  0  0  0
  2  5  1  0  0  0  0
  5  6  2  0  0  0  0
  5  7  1  0  0  0  0
  7  8  1  0  0  0  0
  7  9  1  0  0  0  0
  9 10  1  0  0  0  0
  9 11  1  0  0  0  0
  9 27  1  0  0  0  0
 11 12  1  0  0  0  0
 11 13  1  0  0  0  0
 11 14  1  0  0  0  0
 14 15  1  0  0  0  0
 14 16  1  0  0  0  0
 14 17  1  0  0  0  0
 17 18  1  0  0  0  0
 17 19  1  0  0  0  0
 17 20  1  0  0  0  0
 20 21  1  0  0  0  0
 20 22  1  0  0  0  0
 20 23  1  0  0  0  0
 23 24  1  0  0  0  0
 23 25  1  0  0  0  0
 23 26  1  0  0  0  0
 27 28  2  0  0  0  0
 27 29  1  0  0  0  0
 29 30  1  0  0  0  0
 29 31  1  0  0  0  0
 31 32  1  0  0  0  0
 31 33  1  0  0  0  0
 31 34  1  0  0  0  0
M  CHG  1  23   1
M  END
$$$$

  -OEChem-01062216093D

 34 33  0     1  0  0  0  0  0999 V2000
   -4.3384   -2.1354    1.0336 H   0  0  0  0  0  0  0  0  0  0  0  0
   -4.1446   -1.1110    0.7024 C   0  0  0  0  0  0  0  0  0  0  0  0
   -4.6097   -0.4207    1.4104 H   0  0  0  0  0  0  0  0  0  0  0  0
   -4.5964   -0.9698   -0.2827 H   0  0  0  0  0  0  0  0  0  0  0  0
   -2.6508   -0.8557    0.6297 C   0  0  0  0  0  0  0  0  0  0  0  0
   -1.8858   -1.7963    0.7607 O   0  0  0  0  0  0  0  0  0  0  0  0
   -2.2102    0.4119    0.2908 N   0  0  0  0  0  0  0  0  0  0  0  0
   -2.9671    1.0734    0.1266 H   0  0  0  0  0  0  0  0  0  0  0  0
   -0.8537    1.0166    0.3573 C   0  0  1  0  0  0  0  0  0  0  0  0
   -0.9267    1.7920    1.1275 H   0  0  0  0  0  0  0  0  0  0  0  0
    0.3555    0.1521    0.7828 C   0  0  0  0  0  0  0  0  0  0  0  0
    0.4083   -0.7288    0.1342 H   0  0  0  0  0  0  0  0  0  0  0  0
    1.2705    0.7316    0.6147 H   0  0  0  0  0  0  0  0  0  0  0  0
    0.3291   -0.2845    2.2615 C   0  0  0  0  0  0  0  0  0  0  0  0
    0.3152    0.6112    2.8920 H   0  0  0  0  0  0  0  0  0  0  0  0
   -0.5650   -0.8588    2.5056 H   0  0  0  0  0  0  0  0  0  0  0  0
    1.5770   -1.1129    2.5816 C   0  0  0  0  0  0  0  0  0  0  0  0
    1.6071   -1.9853    1.9191 H   0  0  0  0  0  0  0  0  0  0  0  0
    2.4735   -0.5115    2.3950 H   0  0  0  0  0  0  0  0  0  0  0  0
    1.5443   -1.5692    4.0370 C   0  0  0  0  0  0  0  0  0  0  0  0
    1.5044   -0.6876    4.6935 H   0  0  0  0  0  0  0  0  0  0  0  0
    0.6249   -2.1475    4.2124 H   0  0  0  0  0  0  0  0  0  0  0  0
    2.7472   -2.3850    4.3078 N   0  3  0  0  0  0  0  0  0  0  0  0
    3.5894   -1.8338    4.1327 H   0  0  0  0  0  0  0  0  0  0  0  0
    2.7495   -2.6971    5.2809 H   0  0  0  0  0  0  0  0  0  0  0  0
    2.7544   -3.2040    3.6964 H   0  0  0  0  0  0  0  0  0  0  0  0
   -0.5270    1.7888   -0.9343 C   0  0  0  0  0  0  0  0  0  0  0  0
    0.0251    2.8761   -0.8614 O   0  0  0  0  0  0  0  0  0  0  0  0
   -0.8056    1.2367   -2.1699 N   0  0  0  0  0  0  0  0  0  0  0  0
   -1.2292    0.3124   -2.1820 H   0  0  0  0  0  0  0  0  0  0  0  0
   -0.4959    1.8974   -3.4333 C   0  0  0  0  0  0  0  0  0  0  0  0
    0.5779    2.0997   -3.5081 H   0  0  0  0  0  0  0  0  0  0  0  0
   -0.7865    1.2621   -4.2758 H   0  0  0  0  0  0  0  0  0  0  0  0
   -1.0378    2.8458   -3.5127 H   0  0  0  0  0  0  0  0  0  0  0  0
  1  2  1  0  0  0  0
  2  3  1  0  0  0  0
  2  4  1  0  0  0  0
  2  5  1  0  0  0  0
  5  6  2  0  0  0  0
  5  7  1  0  0  0  0
  7  8  1  0  0  0  0
  7  9  1  0  0  0  0
  9 10  1  0  0  0  0
  9 11  1  0  0  0  0
  9 27  1  0  0  0  0
 11 12  1  0  0  0  0
 11 13  1  0  0  0  0
 11 14  1  0  0  0  0
 14 15  1  0  0  0  0
 14 16  1  0  0  0  0
 14 17  1  0  0  0  0
 17 18  1  0  0  0  0
 17 19  1  0  0  0  0
 17 20  1  0  0  0  0
 20 21  1  0  0  0  0
 20 22  1  0  0  0  0
 20 23  1  0  0  0  0
 23 24  1  0  0  0  0
 23 25  1  0  0  0  0
 23 26  1  0  0  0  0
 27 28  2  0  0  0  0
 27 29  1  0  0  0  0
 29 30  1  0  0  0  0
 29 31  1  0  0  0  0
 31 32  1  0  0  0  0
 31 33  1  0  0  0  0
 31 34  1  0  0  0  0
M  CHG  1  23   1
M  END
$$$$

  -OEChem-01062216093D

 34 33  0     1  0  0  0  0  0999 V2000
   -4.3445   -2.1571    1.0530 H   0  0  0  0  0  0  0  0  0  0  0  0
   -4.1576   -1.1312    0.7219 C   0  0  0  0  0  0  0  0  0  0  0  0
   -4.6258   -0.4442    1.4310 H   0  0  0  0  0  0  0  0  0  0  0  0
   -4.6128   -0.9928   -0.2621 H   0  0  0  0  0  0  0  0  0  0  0  0
   -2.6654   -0.8677    0.6451 C   0  0  0  0  0  0  0  0  0  0  0  0
   -1.8967   -1.8050    0.7754 O   0  0  0  0  0  0  0  0  0  0  0  0
   -2.2332    0.4019    0.3004 N   0  0  0  0  0  0  0  0  0  0  0  0
   -2.9957    1.0605    0.1516 H   0  0  0  0  0  0  0  0  0  0  0  0
   -0.8784    1.0159    0.3579 C   0  0  1  0  0  0  0  0  0  0  0  0
   -0.9516    1.7938    1.1254 H   0  0  0  0  0  0  0  0  0  0  0  0
    0.3341    0.1531    0.7824 C   0  0  0  0  0  0  0  0  0  0  0  0
    0.3846   -0.7290    0.1353 H   0  0  0  0  0  0  0  0  0  0  0  0
    1.2495    0.7305    0.6097 H   0  0  0  0  0  0  0  0  0  0  0  0
    0.3184   -0.2816    2.2619 C   0  0  0  0  0  0  0  0  0  0  0  0
    0.3070    0.6144    2.8919 H   0  0  0  0  0  0  0  0  0  0  0  0
   -0.5720   -0.8582    2.5132 H   0  0  0  0  0  0  0  0  0  0  0  0
    1.5713   -1.1070    2.5710 C   0  0  0  0  0  0  0  0  0  0  0  0
    1.5964   -1.9801    1.9091 H   0  0  0  0  0  0  0  0  0  0  0  0
    2.4652   -0.5045    2.3748 H   0  0  0  0  0  0  0  0  0  0  0  0
    1.5533   -1.5632    4.0263 C   0  0  0  0  0  0  0  0  0  0  0  0
    1.5175   -0.6814    4.6827 H   0  0  0  0  0  0  0  0  0  0  0  0
    0.6365   -2.1434    4.2099 H   0  0  0  0  0  0  0  0  0  0  0  0
    2.7607   -2.3761    4.2861 N   0  3  0  0  0  0  0  0  0  0  0  0
    3.5997   -1.8243    4.0982 H   0  0  0  0  0  0  0  0  0  0  0  0
    2.7754   -2.6839    5.2606 H   0  0  0  0  0  0  0  0  0  0  0  0
    2.7618   -3.1978    3.6782 H   0  0  0  0  0  0  0  0  0  0  0  0
   -0.5519    1.7904   -0.9348 C   0  0  0  0  0  0  0  0  0  0  0  0
    0.2077    2.7465   -0.8857 O   0  0  0  0  0  0  0  0  0  0  0  0
   -1.0890    1.4009   -2.1472 N   0  0  0  0  0  0  0  0  0  0  0  0
   -1.6330    0.5423   -2.1572 H   0  0  0  0  0  0  0  0  0  0  0  0
   -0.7701    2.0554   -3.4115 C   0  0  0  0  0  0  0  0  0  0  0  0
    0.3042    1.9938   -3.6153 H   0  0  0  0  0  0  0  0  0  0  0  0
   -1.3067    1.5738   -4.2348 H   0  0  0  0  0  0  0  0  0  0  0  0
   -1.0619    3.1107   -3.3813 H   0  0  0  0  0  0  0  0  0  0  0  0
  1  2  1  0  0  0  0
  2  3  1  0  0  0  0
  2  4  1  0  0  0  0
  2  5  1  0  0  0  0
  5  6  2  0  0  0  0
  5  7  1  0  0  0  0
  7  8  1  0  0  0  0
  7  9  1  0  0  0  0
  9 10  1  0  0  0  0
  9 11  1  0  0  0  0
  9 27  1  0  0  0  0
 11 12  1  0  0  0  0
 11 13  1  0  0  0  0
 11 14  1  0  0  0  0
 14 15  1  0  0  0  0
 14 16  1  0  0  0  0
 14 17  1  0  0  0  0
 17 18  1  0  0  0  0
 17 19  1  0  0  0  0
 17 20  1  0  0  0  0
 20 21  1  0  0  0  0
 20 22  1  0  0  0  0
 20 23  1  0  0  0  0
 23 24  1  0  0  0  0
 23 25  1  0  0  0  0
 23 26  1  0  0  0  0
 27 28  2  0  0  0  0
 27 29  1  0  0  0  0
 29 30  1  0  0  0  0
 29 31  1  0  0  0  0
 31 32  1  0  0  0  0
 31 33  1  0  0  0  0
 31 34  1  0  0  0  0
M  CHG  1  23   1
M  END
$$$$

  -OEChem-01062216093D

 34 33  0     1  0  0  0  0  0999 V2000
   -4.3315   -2.1723    1.0939 H   0  0  0  0  0  0  0  0  0  0  0  0
   -4.1534   -1.1501    0.7479 C   0  0  0  0  0  0  0  0  0  0  0  0
   -4.6149   -0.4569    1.4553 H   0  0  0  0  0  0  0  0  0  0  0  0
   -4.6218   -1.0258   -0.2316 H   0  0  0  0  0  0  0  0  0  0  0  0
   -2.6631   -0.8822    0.6477 C   0  0  0  0  0  0  0  0  0  0  0  0
   -1.8911   -1.8170    0.7745 O   0  0  0  0  0  0  0  0  0  0  0  0
   -2.2404    0.3900    0.2983 N   0  0  0  0  0  0  0  0  0  0  0  0
   -3.0086    1.0462    0.1719 H   0  0  0  0  0  0  0  0  0  0  0  0
   -0.8888    1.0146    0.3505 C   0  0  1  0  0  0  0  0  0  0  0  0
   -0.9639    1.7943    1.1154 H   0  0  0  0  0  0  0  0  0  0  0  0
    0.3238    0.1508    0.7798 C   0  0  0  0  0  0  0  0  0  0  0  0
    0.3746   -0.7324    0.1343 H   0  0  0  0  0  0  0  0  0  0  0  0
    1.2420    0.7239    0.6094 H   0  0  0  0  0  0  0  0  0  0  0  0
    0.3085   -0.2794    2.2605 C   0  0  0  0  0  0  0  0  0  0  0  0
    0.3000    0.6186    2.8876 H   0  0  0  0  0  0  0  0  0  0  0  0
   -0.5819   -0.8544    2.5157 H   0  0  0  0  0  0  0  0  0  0  0  0
    1.5621   -1.1045    2.5667 C   0  0  0  0  0  0  0  0  0  0  0  0
    1.5855   -1.9780    1.9052 H   0  0  0  0  0  0  0  0  0  0  0  0
    2.4552   -0.5019    2.3667 H   0  0  0  0  0  0  0  0  0  0  0  0
    1.5506   -1.5597    4.0219 C   0  0  0  0  0  0  0  0  0  0  0  0
    1.5173   -0.6780    4.6785 H   0  0  0  0  0  0  0  0  0  0  0  0
    0.6356   -2.1411    4.2089 H   0  0  0  0  0  0  0  0  0  0  0  0
    2.7602   -2.3717    4.2738 N   0  3  0  0  0  0  0  0  0  0  0  0
    3.5976   -1.8170    4.0860 H   0  0  0  0  0  0  0  0  0  0  0  0
    2.7788   -2.6851    5.2463 H   0  0  0  0  0  0  0  0  0  0  0  0
    2.7612   -3.1898    3.6611 H   0  0  0  0  0  0  0  0  0  0  0  0
   -0.5633    1.7917   -0.9445 C   0  0  0  0  0  0  0  0  0  0  0  0
    0.3452    2.6097   -0.9419 O   0  0  0  0  0  0  0  0  0  0  0  0
   -1.3117    1.6102   -2.0930 N   0  0  0  0  0  0  0  0  0  0  0  0
   -1.9641    0.8312   -2.0958 H   0  0  0  0  0  0  0  0  0  0  0  0
   -1.0210    2.2913   -3.3505 C   0  0  0  0  0  0  0  0  0  0  0  0
   -0.0207    2.0263   -3.7093 H   0  0  0  0  0  0  0  0  0  0  0  0
   -1.7500    2.0052   -4.1151 H   0  0  0  0  0  0  0  0  0  0  0  0
   -1.0702    3.3777   -3.2187 H   0  0  0  0  0  0  0  0  0  0  0  0
  1  2  1  0  0  0  0
  2  3  1  0  0  0  0
  2  4  1  0  0  0  0
  2  5  1  0  0  0  0
  5  6  2  0  0  0  0
  5  7  1  0  0  0  0
  7  8  1  0  0  0  0
  7  9  1  0  0  0  0
  9 10  1  0  0  0  0
  9 11  1  0  0  0  0
  9 27  1  0  0  0  0
 11 12  1  0  0  0  0
 11 13  1  0  0  0  0
 11 14  1  0  0  0  0
 14 15  1  0  0  0  0
 14 16  1  0  0  0  0
 14 17  1  0  0  0  0
 17 18  1  0  0  0  0
 17 19  1  0  0  0  0
 17 20  1  0  0  0  0
 20 21  1  0  0  0  0
 20 22  1  0  0  0  0
 20 23  1  0  0  0  0
 23 24  1  0  0  0  0
 23 25  1  0  0  0  0
 23 26  1  0  0  0  0
 27 28  2  0  0  0  0
 27 29  1  0  0  0  0
 29 30  1  0  0  0  0
 29 31  1  0  0  0  0
 31 32  1  0  0  0  0
 31 33  1  0  0  0  0
 31 34  1  0  0  0  0
M  CHG  1  23   1
M  END
$$$$

  -OEChem-01062216093D

 34 33  0     1  0  0  0  0  0999 V2000
   -4.3148   -2.1827    1.1119 H   0  0  0  0  0  0  0  0  0  0  0  0
   -4.1421   -1.1622    0.7577 C   0  0  0  0  0  0  0  0  0  0  0  0
   -4.5971   -0.4655    1.4658 H   0  0  0  0  0  0  0  0  0  0  0  0
   -4.6216   -1.0447   -0.2174 H   0  0  0  0  0  0  0  0  0  0  0  0
   -2.6536   -0.8918    0.6402 C   0  0  0  0  0  0  0  0  0  0  0  0
   -1.8792   -1.8254    0.7612 O   0  0  0  0  0  0  0  0  0  0  0  0
   -2.2393    0.3834    0.2902 N   0  0  0  0  0  0  0  0  0  0  0  0
   -3.0125    1.0385    0.1940 H   0  0  0  0  0  0  0  0  0  0  0  0
   -0.8906    1.0162    0.3410 C   0  0  1  0  0  0  0  0  0  0  0  0
   -0.9678    1.7973    1.1040 H   0  0  0  0  0  0  0  0  0  0  0  0
    0.3204    0.1502    0.7770 C   0  0  0  0  0  0  0  0  0  0  0  0
    0.3730   -0.7332    0.1321 H   0  0  0  0  0  0  0  0  0  0  0  0
    1.2424    0.7185    0.6126 H   0  0  0  0  0  0  0  0  0  0  0  0
    0.3011   -0.2769    2.2588 C   0  0  0  0  0  0  0  0  0  0  0  0
    0.2936    0.6221    2.8846 H   0  0  0  0  0  0  0  0  0  0  0  0
   -0.5904   -0.8504    2.5137 H   0  0  0  0  0  0  0  0  0  0  0  0
    1.5540   -1.1032    2.5667 C   0  0  0  0  0  0  0  0  0  0  0  0
    1.5764   -1.9768    1.9054 H   0  0  0  0  0  0  0  0  0  0  0  0
    2.4471   -0.5011    2.3659 H   0  0  0  0  0  0  0  0  0  0  0  0
    1.5455   -1.5591    4.0214 C   0  0  0  0  0  0  0  0  0  0  0  0
    1.5147   -0.6780    4.6789 H   0  0  0  0  0  0  0  0  0  0  0  0
    0.6311   -2.1405    4.2115 H   0  0  0  0  0  0  0  0  0  0  0  0
    2.7562   -2.3711    4.2677 N   0  3  0  0  0  0  0  0  0  0  0  0
    3.5927   -1.8153    4.0795 H   0  0  0  0  0  0  0  0  0  0  0  0
    2.7775   -2.6875    5.2392 H   0  0  0  0  0  0  0  0  0  0  0  0
    2.7561   -3.1872    3.6521 H   0  0  0  0  0  0  0  0  0  0  0  0
   -0.5711    1.7965   -0.9576 C   0  0  0  0  0  0  0  0  0  0  0  0
    0.4533    2.4604   -1.0302 O   0  0  0  0  0  0  0  0  0  0  0  0
   -1.4799    1.8517   -1.9991 N   0  0  0  0  0  0  0  0  0  0  0  0
   -2.2365    1.1748   -1.9780 H   0  0  0  0  0  0  0  0  0  0  0  0
   -1.2212    2.5725   -3.2417 C   0  0  0  0  0  0  0  0  0  0  0  0
   -0.3487    2.1539   -3.7546 H   0  0  0  0  0  0  0  0  0  0  0  0
   -2.0846    2.4997   -3.9102 H   0  0  0  0  0  0  0  0  0  0  0  0
   -1.0335    3.6326   -3.0390 H   0  0  0  0  0  0  0  0  0  0  0  0
  1  2  1  0  0  0  0
  2  3  1  0  0  0  0
  2  4  1  0  0  0  0
  2  5  1  0  0  0  0
  5  6  2  0  0  0  0
  5  7  1  0  0  0  0
  7  8  1  0  0  0  0
  7  9  1  0  0  0  0
  9 10  1  0  0  0  0
  9 11  1  0  0  0  0
  9 27  1  0  0  0  0
 11 12  1  0  0  0  0
 11 13  1  0  0  0  0
 11 14  1  0  0  0  0
 14 15  1  0  0  0  0
 14 16  1  0  0  0  0
 14 17  1  0  0  0  0
 17 18  1  0  0  0  0
 17 19  1  0  0  0  0
 17 20  1  0  0  0  0
 20 21  1  0  0  0  0
 20 22  1  0  0  0  0
 20 23  1  0  0  0  0
 23 24  1  0  0  0  0
 23 25  1  0  0  0  0
 23 26  1  0  0  0  0
 27 28  2  0  0  0  0
 27 29  1  0  0  0  0
 29 30  1  0  0  0  0
 29 31  1  0  0  0  0
 31 32  1  0  0  0  0
 31 33  1  0  0  0  0
 31 34  1  0  0  0  0
M  CHG  1  23   1
M  END
$$$$

  -OEChem-01062216093D

 34 33  0     1  0  0  0  0  0999 V2000
   -4.2982   -2.1946    1.0978 H   0  0  0  0  0  0  0  0  0  0  0  0
   -4.1303   -1.1709    0.7505 C   0  0  0  0  0  0  0  0  0  0  0  0
   -4.5849   -0.4808    1.4654 H   0  0  0  0  0  0  0  0  0  0  0  0
   -4.6137   -1.0480   -0.2220 H   0  0  0  0  0  0  0  0  0  0  0  0
   -2.6431   -0.8959    0.6287 C   0  0  0  0  0  0  0  0  0  0  0  0
   -1.8667   -1.8281    0.7476 O   0  0  0  0  0  0  0  0  0  0  0  0
   -2.2351    0.3828    0.2824 N   0  0  0  0  0  0  0  0  0  0  0  0
   -3.0122    1.0353    0.2112 H   0  0  0  0  0  0  0  0  0  0  0  0
   -0.8884    1.0212    0.3331 C   0  0  1  0  0  0  0  0  0  0  0  0
   -0.9662    1.8021    1.0960 H   0  0  0  0  0  0  0  0  0  0  0  0
    0.3210    0.1520    0.7755 C   0  0  0  0  0  0  0  0  0  0  0  0
    0.3755   -0.7310    0.1306 H   0  0  0  0  0  0  0  0  0  0  0  0
    1.2460    0.7163    0.6180 H   0  0  0  0  0  0  0  0  0  0  0  0
    0.2974   -0.2734    2.2579 C   0  0  0  0  0  0  0  0  0  0  0  0
    0.2897    0.6256    2.8836 H   0  0  0  0  0  0  0  0  0  0  0  0
   -0.5952   -0.8460    2.5109 H   0  0  0  0  0  0  0  0  0  0  0  0
    1.5490   -1.1016    2.5667 C   0  0  0  0  0  0  0  0  0  0  0  0
    1.5706   -1.9749    1.9048 H   0  0  0  0  0  0  0  0  0  0  0  0
    2.4432   -0.5009    2.3663 H   0  0  0  0  0  0  0  0  0  0  0  0
    1.5411   -1.5584    4.0215 C   0  0  0  0  0  0  0  0  0  0  0  0
    1.5117   -0.6780    4.6798 H   0  0  0  0  0  0  0  0  0  0  0  0
    0.6265   -2.1395    4.2118 H   0  0  0  0  0  0  0  0  0  0  0  0
    2.7513   -2.3719    4.2657 N   0  3  0  0  0  0  0  0  0  0  0  0
    3.5881   -1.8166    4.0773 H   0  0  0  0  0  0  0  0  0  0  0  0
    2.7732   -2.6897    5.2366 H   0  0  0  0  0  0  0  0  0  0  0  0
    2.7500   -3.1870    3.6488 H   0  0  0  0  0  0  0  0  0  0  0  0
   -0.5803    1.8071   -0.9688 C   0  0  0  0  0  0  0  0  0  0  0  0
    0.5305    2.2853   -1.1517 O   0  0  0  0  0  0  0  0  0  0  0  0
   -1.5864    2.1198   -1.8669 N   0  0  0  0  0  0  0  0  0  0  0  0
   -2.4450    1.5849   -1.7926 H   0  0  0  0  0  0  0  0  0  0  0  0
   -1.3461    2.8755   -3.0931 C   0  0  0  0  0  0  0  0  0  0  0  0
   -0.6471    2.3397   -3.7445 H   0  0  0  0  0  0  0  0  0  0  0  0
   -2.2836    3.0244   -3.6379 H   0  0  0  0  0  0  0  0  0  0  0  0
   -0.9248    3.8600   -2.8616 H   0  0  0  0  0  0  0  0  0  0  0  0
  1  2  1  0  0  0  0
  2  3  1  0  0  0  0
  2  4  1  0  0  0  0
  2  5  1  0  0  0  0
  5  6  2  0  0  0  0
  5  7  1  0  0  0  0
  7  8  1  0  0  0  0
  7  9  1  0  0  0  0
  9 10  1  0  0  0  0
  9 11  1  0  0  0  0
  9 27  1  0  0  0  0
 11 12  1  0  0  0  0
 11 13  1  0  0  0  0
 11 14  1  0  0  0  0
 14 15  1  0  0  0  0
 14 16  1  0  0  0  0
 14 17  1  0  0  0  0
 17 18  1  0  0  0  0
 17 19  1  0  0  0  0
 17 20  1  0  0  0  0
 20 21  1  0  0  0  0
 20 22  1  0  0  0  0
 20 23  1  0  0  0  0
 23 24  1  0  0  0  0
 23 25  1  0  0  0  0
 23 26  1  0  0  0  0
 27 28  2  0  0  0  0
 27 29  1  0  0  0  0
 29 30  1  0  0  0  0
 29 31  1  0  0  0  0
 31 32  1  0  0  0  0
 31 33  1  0  0  0  0
 31 34  1  0  0  0  0
M  CHG  1  23   1
M  END
$$$$

  -OEChem-01062216093D

 34 33  0     1  0  0  0  0  0999 V2000
   -4.2906   -2.2045    1.0680 H   0  0  0  0  0  0  0  0  0  0  0  0
   -4.1240   -1.1801    0.7221 C   0  0  0  0  0  0  0  0  0  0  0  0
   -4.5914   -0.4919    1.4305 H   0  0  0  0  0  0  0  0  0  0  0  0
   -4.5947   -1.0611   -0.2571 H   0  0  0  0  0  0  0  0  0  0  0  0
   -2.6368   -0.8972    0.6195 C   0  0  0  0  0  0  0  0  0  0  0  0
   -1.8592   -1.8261    0.7555 O   0  0  0  0  0  0  0  0  0  0  0  0
   -2.2329    0.3849    0.2794 N   0  0  0  0  0  0  0  0  0  0  0  0
   -3.0149    1.0283    0.1974 H   0  0  0  0  0  0  0  0  0  0  0  0
   -0.8875    1.0263    0.3296 C   0  0  1  0  0  0  0  0  0  0  0  0
   -0.9653    1.8046    1.0947 H   0  0  0  0  0  0  0  0  0  0  0  0
    0.3198    0.1554    0.7773 C   0  0  0  0  0  0  0  0  0  0  0  0
    0.3778   -0.7267    0.1311 H   0  0  0  0  0  0  0  0  0  0  0  0
    1.2451    0.7208    0.6259 H   0  0  0  0  0  0  0  0  0  0  0  0
    0.2951   -0.2684    2.2606 C   0  0  0  0  0  0  0  0  0  0  0  0
    0.2897    0.6312    2.8851 H   0  0  0  0  0  0  0  0  0  0  0  0
   -0.5984   -0.8382    2.5161 H   0  0  0  0  0  0  0  0  0  0  0  0
    1.5462   -1.0981    2.5684 C   0  0  0  0  0  0  0  0  0  0  0  0
    1.5649   -1.9714    1.9062 H   0  0  0  0  0  0  0  0  0  0  0  0
    2.4410   -0.4988    2.3658 H   0  0  0  0  0  0  0  0  0  0  0  0
    1.5416   -1.5560    4.0229 C   0  0  0  0  0  0  0  0  0  0  0  0
    1.5151   -0.6763    4.6821 H   0  0  0  0  0  0  0  0  0  0  0  0
    0.6273   -2.1366    4.2161 H   0  0  0  0  0  0  0  0  0  0  0  0
    2.7522   -2.3705    4.2625 N   0  3  0  0  0  0  0  0  0  0  0  0
    3.5889   -1.8135    4.0786 H   0  0  0  0  0  0  0  0  0  0  0  0
    2.7735   -2.6956    5.2311 H   0  0  0  0  0  0  0  0  0  0  0  0
    2.7515   -3.1813    3.6396 H   0  0  0  0  0  0  0  0  0  0  0  0
   -0.5895    1.8205   -0.9728 C   0  0  0  0  0  0  0  0  0  0  0  0
    0.5613    2.0587   -1.3127 O   0  0  0  0  0  0  0  0  0  0  0  0
   -1.6132    2.3999   -1.7044 N   0  0  0  0  0  0  0  0  0  0  0  0
   -2.5605    2.1067   -1.4963 H   0  0  0  0  0  0  0  0  0  0  0  0
   -1.3803    3.1741   -2.9211 C   0  0  0  0  0  0  0  0  0  0  0  0
   -0.9044    2.5528   -3.6875 H   0  0  0  0  0  0  0  0  0  0  0  0
   -2.3280    3.5499   -3.3192 H   0  0  0  0  0  0  0  0  0  0  0  0
   -0.7319    4.0323   -2.7133 H   0  0  0  0  0  0  0  0  0  0  0  0
  1  2  1  0  0  0  0
  2  3  1  0  0  0  0
  2  4  1  0  0  0  0
  2  5  1  0  0  0  0
  5  6  2  0  0  0  0
  5  7  1  0  0  0  0
  7  8  1  0  0  0  0
  7  9  1  0  0  0  0
  9 10  1  0  0  0  0
  9 11  1  0  0  0  0
  9 27  1  0  0  0  0
 11 12  1  0  0  0  0
 11 13  1  0  0  0  0
 11 14  1  0  0  0  0
 14 15  1  0  0  0  0
 14 16  1  0  0  0  0
 14 17  1  0  0  0  0
 17 18  1  0  0  0  0
 17 19  1  0  0  0  0
 17 20  1  0  0  0  0
 20 21  1  0  0  0  0
 20 22  1  0  0  0  0
 20 23  1  0  0  0  0
 23 24  1  0  0  0  0
 23 25  1  0  0  0  0
 23 26  1  0  0  0  0
 27 28  2  0  0  0  0
 27 29  1  0  0  0  0
 29 30  1  0  0  0  0
 29 31  1  0  0  0  0
 31 32  1  0  0  0  0
 31 33  1  0  0  0  0
 31 34  1  0  0  0  0
M  CHG  1  23   1
M  END
$$$$

  -OEChem-01062216093D

 34 33  0     1  0  0  0  0  0999 V2000
   -4.3565   -2.1973    0.9378 H   0  0  0  0  0  0  0  0  0  0  0  0
   -4.1634   -1.1698    0.6157 C   0  0  0  0  0  0  0  0  0  0  0  0
   -4.6876   -0.4881    1.2897 H   0  0  0  0  0  0  0  0  0  0  0  0
   -4.5532   -1.0426   -0.3974 H   0  0  0  0  0  0  0  0  0  0  0  0
   -2.6731   -0.8843    0.6380 C   0  0  0  0  0  0  0  0  0  0  0  0
   -1.9116   -1.8072    0.8698 O   0  0  0  0  0  0  0  0  0  0  0  0
   -2.2446    0.3903    0.3002 N   0  0  0  0  0  0  0  0  0  0  0  0
   -3.0068    1.0038    0.0286 H   0  0  0  0  0  0  0  0  0  0  0  0
   -0.8910    1.0126    0.3388 C   0  0  1  0  0  0  0  0  0  0  0  0
   -0.9572    1.7923    1.1033 H   0  0  0  0  0  0  0  0  0  0  0  0
    0.3167    0.1443    0.7858 C   0  0  0  0  0  0  0  0  0  0  0  0
    0.3612   -0.7470    0.1507 H   0  0  0  0  0  0  0  0  0  0  0  0
    1.2397    0.7080    0.6121 H   0  0  0  0  0  0  0  0  0  0  0  0
    0.3096   -0.2662    2.2730 C   0  0  0  0  0  0  0  0  0  0  0  0
    0.3161    0.6394    2.8888 H   0  0  0  0  0  0  0  0  0  0  0  0
   -0.5811   -0.8296    2.5494 H   0  0  0  0  0  0  0  0  0  0  0  0
    1.5630   -1.0950    2.5718 C   0  0  0  0  0  0  0  0  0  0  0  0
    1.5724   -1.9745    1.9177 H   0  0  0  0  0  0  0  0  0  0  0  0
    2.4560   -0.4991    2.3536 H   0  0  0  0  0  0  0  0  0  0  0  0
    1.5734   -1.5388    4.0301 C   0  0  0  0  0  0  0  0  0  0  0  0
    1.5549   -0.6532    4.6816 H   0  0  0  0  0  0  0  0  0  0  0  0
    0.6598   -2.1159    4.2370 H   0  0  0  0  0  0  0  0  0  0  0  0
    2.7847   -2.3535    4.2643 N   0  3  0  0  0  0  0  0  0  0  0  0
    3.6208   -1.7995    4.0698 H   0  0  0  0  0  0  0  0  0  0  0  0
    2.8135   -2.6729    5.2345 H   0  0  0  0  0  0  0  0  0  0  0  0
    2.7771   -3.1679    3.6465 H   0  0  0  0  0  0  0  0  0  0  0  0
   -0.6069    1.8027   -0.9669 C   0  0  0  0  0  0  0  0  0  0  0  0
    0.4740    1.7238   -1.5339 O   0  0  0  0  0  0  0  0  0  0  0  0
   -1.5671    2.6433   -1.5065 N   0  0  0  0  0  0  0  0  0  0  0  0
   -2.4245    2.7889   -0.9859 H   0  0  0  0  0  0  0  0  0  0  0  0
   -1.3408    3.4371   -2.7114 C   0  0  0  0  0  0  0  0  0  0  0  0
   -1.1011    2.7868   -3.5598 H   0  0  0  0  0  0  0  0  0  0  0  0
   -2.2372    4.0126   -2.9624 H   0  0  0  0  0  0  0  0  0  0  0  0
   -0.5116    4.1368   -2.5614 H   0  0  0  0  0  0  0  0  0  0  0  0
  1  2  1  0  0  0  0
  2  3  1  0  0  0  0
  2  4  1  0  0  0  0
  2  5  1  0  0  0  0
  5  6  2  0  0  0  0
  5  7  1  0  0  0  0
  7  8  1  0  0  0  0
  7  9  1  0  0  0  0
  9 10  1  0  0  0  0
  9 11  1  0  0  0  0
  9 27  1  0  0  0  0
 11 12  1  0  0  0  0
 11 13  1  0  0  0  0
 11 14  1  0  0  0  0
 14 15  1  0  0  0  0
 14 16  1  0  0  0  0
 14 17  1  0  0  0  0
 17 18  1  0  0  0  0
 17 19  1  0  0  0  0
 17 20  1  0  0  0  0
 20 21  1  0  0  0  0
 20 22  1  0  0  0  0
 20 23  1  0  0  0  0
 23 24  1  0  0  0  0
 23 25  1  0  0  0  0
 23 26  1  0  0  0  0
 27 28  2  0  0  0  0
 27 29  1  0  0  0  0
 29 30  1  0  0  0  0
 29 31  1  0  0  0  0
 31 32  1  0  0  0  0
 31 33  1  0  0  0  0
 31 34  1  0  0  0  0
M  CHG  1  23   1
M  END
$$$$

  -OEChem-01062216093D

 34 33  0     1  0  0  0  0  0999 V2000
   -4.3852   -2.1720    0.8879 H   0  0  0  0  0  0  0  0  0  0  0  0
   -4.1791   -1.1484    0.5612 C   0  0  0  0  0  0  0  0  0  0  0  0
   -4.7335   -0.4590    1.2023 H   0  0  0  0  0  0  0  0  0  0  0  0
   -4.5231   -1.0349   -0.4700 H   0  0  0  0  0  0  0  0  0  0  0  0
   -2.6918   -0.8599    0.6455 C   0  0  0  0  0  0  0  0  0  0  0  0
   -1.9409   -1.7796    0.9199 O   0  0  0  0  0  0  0  0  0  0  0  0
   -2.2511    0.4110    0.3096 N   0  0  0  0  0  0  0  0  0  0  0  0
   -2.9956    1.0100   -0.0371 H   0  0  0  0  0  0  0  0  0  0  0  0
   -0.8963    1.0269    0.3559 C   0  0  1  0  0  0  0  0  0  0  0  0
   -0.9603    1.8048    1.1223 H   0  0  0  0  0  0  0  0  0  0  0  0
    0.3135    0.1613    0.7966 C   0  0  0  0  0  0  0  0  0  0  0  0
    0.3549   -0.7278    0.1580 H   0  0  0  0  0  0  0  0  0  0  0  0
    1.2323    0.7300    0.6149 H   0  0  0  0  0  0  0  0  0  0  0  0
    0.3141   -0.2606    2.2811 C   0  0  0  0  0  0  0  0  0  0  0  0
    0.3206    0.6419    2.9016 H   0  0  0  0  0  0  0  0  0  0  0  0
   -0.5725   -0.8273    2.5618 H   0  0  0  0  0  0  0  0  0  0  0  0
    1.5712   -1.0868    2.5705 C   0  0  0  0  0  0  0  0  0  0  0  0
    1.5811   -1.9624    1.9114 H   0  0  0  0  0  0  0  0  0  0  0  0
    2.4623   -0.4877    2.3535 H   0  0  0  0  0  0  0  0  0  0  0  0
    1.5846   -1.5393    4.0261 C   0  0  0  0  0  0  0  0  0  0  0  0
    1.5641   -0.6574    4.6830 H   0  0  0  0  0  0  0  0  0  0  0  0
    0.6726   -2.1199    4.2306 H   0  0  0  0  0  0  0  0  0  0  0  0
    2.7984   -2.3518    4.2543 N   0  3  0  0  0  0  0  0  0  0  0  0
    3.6330   -1.7938    4.0658 H   0  0  0  0  0  0  0  0  0  0  0  0
    2.8269   -2.6803    5.2214 H   0  0  0  0  0  0  0  0  0  0  0  0
    2.7934   -3.1604    3.6288 H   0  0  0  0  0  0  0  0  0  0  0  0
   -0.6164    1.8078   -0.9522 C   0  0  0  0  0  0  0  0  0  0  0  0
    0.3366    1.5294   -1.6662 O   0  0  0  0  0  0  0  0  0  0  0  0
   -1.4361    2.8616   -1.3204 N   0  0  0  0  0  0  0  0  0  0  0  0
   -2.1645    3.1498   -0.6754 H   0  0  0  0  0  0  0  0  0  0  0  0
   -1.2057    3.6659   -2.5174 C   0  0  0  0  0  0  0  0  0  0  0  0
   -1.2236    3.0352   -3.4129 H   0  0  0  0  0  0  0  0  0  0  0  0
   -1.9836    4.4290   -2.6192 H   0  0  0  0  0  0  0  0  0  0  0  0
   -0.2340    4.1684   -2.4622 H   0  0  0  0  0  0  0  0  0  0  0  0
  1  2  1  0  0  0  0
  2  3  1  0  0  0  0
  2  4  1  0  0  0  0
  2  5  1  0  0  0  0
  5  6  2  0  0  0  0
  5  7  1  0  0  0  0
  7  8  1  0  0  0  0
  7  9  1  0  0  0  0
  9 10  1  0  0  0  0
  9 11  1  0  0  0  0
  9 27  1  0  0  0  0
 11 12  1  0  0  0  0
 11 13  1  0  0  0  0
 11 14  1  0  0  0  0
 14 15  1  0  0  0  0
 14 16  1  0  0  0  0
 14 17  1  0  0  0  0
 17 18  1  0  0  0  0
 17 19  1  0  0  0  0
 17 20  1  0  0  0  0
 20 21  1  0  0  0  0
 20 22  1  0  0  0  0
 20 23  1  0  0  0  0
 23 24  1  0  0  0  0
 23 25  1  0  0  0  0
 23 26  1  0  0  0  0
 27 28  2  0  0  0  0
 27 29  1  0  0  0  0
 29 30  1  0  0  0  0
 29 31  1  0  0  0  0
 31 32  1  0  0  0  0
 31 33  1  0  0  0  0
 31 34  1  0  0  0  0
M  CHG  1  23   1
M  END
$$$$

  -OEChem-01062216093D

 34 33  0     1  0  0  0  0  0999 V2000
   -4.4043   -2.1591    0.8656 H   0  0  0  0  0  0  0  0  0  0  0  0
   -4.1935   -1.1363    0.5400 C   0  0  0  0  0  0  0  0  0  0  0  0
   -4.7626   -0.4458    1.1670 H   0  0  0  0  0  0  0  0  0  0  0  0
   -4.5170   -1.0274   -0.4983 H   0  0  0  0  0  0  0  0  0  0  0  0
   -2.7082   -0.8443    0.6533 C   0  0  0  0  0  0  0  0  0  0  0  0
   -1.9617   -1.7616    0.9474 O   0  0  0  0  0  0  0  0  0  0  0  0
   -2.2628    0.4253    0.3189 N   0  0  0  0  0  0  0  0  0  0  0  0
   -3.0005    1.0203   -0.0500 H   0  0  0  0  0  0  0  0  0  0  0  0
   -0.9090    1.0410    0.3700 C   0  0  1  0  0  0  0  0  0  0  0  0
   -0.9729    1.8141    1.1413 H   0  0  0  0  0  0  0  0  0  0  0  0
    0.3056    0.1794    0.8020 C   0  0  0  0  0  0  0  0  0  0  0  0
    0.3459   -0.7069    0.1593 H   0  0  0  0  0  0  0  0  0  0  0  0
    1.2197    0.7534    0.6142 H   0  0  0  0  0  0  0  0  0  0  0  0
    0.3143   -0.2544    2.2831 C   0  0  0  0  0  0  0  0  0  0  0  0
    0.3195    0.6441    2.9092 H   0  0  0  0  0  0  0  0  0  0  0  0
   -0.5684   -0.8257    2.5648 H   0  0  0  0  0  0  0  0  0  0  0  0
    1.5764   -1.0763    2.5643 C   0  0  0  0  0  0  0  0  0  0  0  0
    1.5892   -1.9476    1.8992 H   0  0  0  0  0  0  0  0  0  0  0  0
    2.4641   -0.4709    2.3497 H   0  0  0  0  0  0  0  0  0  0  0  0
    1.5936   -1.5383    4.0172 C   0  0  0  0  0  0  0  0  0  0  0  0
    1.5676   -0.6612    4.6798 H   0  0  0  0  0  0  0  0  0  0  0  0
    0.6844   -2.1245    4.2168 H   0  0  0  0  0  0  0  0  0  0  0  0
    2.8107   -2.3472    4.2431 N   0  3  0  0  0  0  0  0  0  0  0  0
    3.6440   -1.7809    4.0740 H   0  0  0  0  0  0  0  0  0  0  0  0
    2.8310   -2.6933    5.2045 H   0  0  0  0  0  0  0  0  0  0  0  0
    2.8178   -3.1447    3.6033 H   0  0  0  0  0  0  0  0  0  0  0  0
   -0.6250    1.8195   -0.9364 C   0  0  0  0  0  0  0  0  0  0  0  0
    0.1631    1.3896   -1.7663 O   0  0  0  0  0  0  0  0  0  0  0  0
   -1.2296    3.0447   -1.1607 N   0  0  0  0  0  0  0  0  0  0  0  0
   -1.8323    3.4228   -0.4363 H   0  0  0  0  0  0  0  0  0  0  0  0
   -0.9738    3.8519   -2.3507 C   0  0  0  0  0  0  0  0  0  0  0  0
   -1.2497    3.2998   -3.2557 H   0  0  0  0  0  0  0  0  0  0  0  0
   -1.5612    4.7749   -2.3190 H   0  0  0  0  0  0  0  0  0  0  0  0
    0.0864    4.1198   -2.4126 H   0  0  0  0  0  0  0  0  0  0  0  0
  1  2  1  0  0  0  0
  2  3  1  0  0  0  0
  2  4  1  0  0  0  0
  2  5  1  0  0  0  0
  5  6  2  0  0  0  0
  5  7  1  0  0  0  0
  7  8  1  0  0  0  0
  7  9  1  0  0  0  0
  9 10  1  0  0  0  0
  9 11  1  0  0  0  0
  9 27  1  0  0  0  0
 11 12  1  0  0  0  0
 11 13  1  0  0  0  0
 11 14  1  0  0  0  0
 14 15  1  0  0  0  0
 14 16  1  0  0  0  0
 14 17  1  0  0  0  0
 17 18  1  0  0  0  0
 17 19  1  0  0  0  0
 17 20  1  0  0  0  0
 20 21  1  0  0  0  0
 20 22  1  0  0  0  0
 20 23  1  0  0  0  0
 23 24  1  0  0  0  0
 23 25  1  0  0  0  0
 23 26  1  0  0  0  0
 27 28  2  0  0  0  0
 27 29  1  0  0  0  0
 29 30  1  0  0  0  0
 29 31  1  0  0  0  0
 31 32  1  0  0  0  0
 31 33  1  0  0  0  0
 31 34  1  0  0  0  0
M  CHG  1  23   1
M  END
$$$$

  -OEChem-01062216093D

 34 33  0     1  0  0  0  0  0999 V2000
   -4.4110   -2.1412    0.8442 H   0  0  0  0  0  0  0  0  0  0  0  0
   -4.1949   -1.1183    0.5224 C   0  0  0  0  0  0  0  0  0  0  0  0
   -4.7688   -0.4275    1.1448 H   0  0  0  0  0  0  0  0  0  0  0  0
   -4.5073   -1.0067   -0.5189 H   0  0  0  0  0  0  0  0  0  0  0  0
   -2.7109   -0.8293    0.6508 C   0  0  0  0  0  0  0  0  0  0  0  0
   -1.9681   -1.7472    0.9519 O   0  0  0  0  0  0  0  0  0  0  0  0
   -2.2636    0.4407    0.3228 N   0  0  0  0  0  0  0  0  0  0  0  0
   -2.9980    1.0342   -0.0556 H   0  0  0  0  0  0  0  0  0  0  0  0
   -0.9140    1.0615    0.3902 C   0  0  1  0  0  0  0  0  0  0  0  0
   -0.9883    1.8274    1.1672 H   0  0  0  0  0  0  0  0  0  0  0  0
    0.3039    0.2042    0.8164 C   0  0  0  0  0  0  0  0  0  0  0  0
    0.3493   -0.6749    0.1636 H   0  0  0  0  0  0  0  0  0  0  0  0
    1.2138    0.7867    0.6346 H   0  0  0  0  0  0  0  0  0  0  0  0
    0.3119   -0.2505    2.2916 C   0  0  0  0  0  0  0  0  0  0  0  0
    0.3077    0.6386    2.9309 H   0  0  0  0  0  0  0  0  0  0  0  0
   -0.5658   -0.8335    2.5642 H   0  0  0  0  0  0  0  0  0  0  0  0
    1.5794   -1.0659    2.5643 C   0  0  0  0  0  0  0  0  0  0  0  0
    1.6021   -1.9274    1.8871 H   0  0  0  0  0  0  0  0  0  0  0  0
    2.4626   -0.4502    2.3617 H   0  0  0  0  0  0  0  0  0  0  0  0
    1.5947   -1.5473    4.0105 C   0  0  0  0  0  0  0  0  0  0  0  0
    1.5603   -0.6793    4.6847 H   0  0  0  0  0  0  0  0  0  0  0  0
    0.6891   -2.1431    4.1995 H   0  0  0  0  0  0  0  0  0  0  0  0
    2.8176   -2.3495    4.2281 N   0  3  0  0  0  0  0  0  0  0  0  0
    3.6464   -1.7797    4.0498 H   0  0  0  0  0  0  0  0  0  0  0  0
    2.8482   -2.6928    5.1902 H   0  0  0  0  0  0  0  0  0  0  0  0
    2.8224   -3.1487    3.5904 H   0  0  0  0  0  0  0  0  0  0  0  0
   -0.6182    1.8401   -0.9115 C   0  0  0  0  0  0  0  0  0  0  0  0
   -0.0404    1.2978   -1.8418 O   0  0  0  0  0  0  0  0  0  0  0  0
   -0.9609    3.1763   -1.0224 N   0  0  0  0  0  0  0  0  0  0  0  0
   -1.4285    3.6195   -0.2374 H   0  0  0  0  0  0  0  0  0  0  0  0
   -0.6950    3.9693   -2.2195 C   0  0  0  0  0  0  0  0  0  0  0  0
   -1.2082    3.5404   -3.0870 H   0  0  0  0  0  0  0  0  0  0  0  0
   -1.0504    4.9953   -2.0826 H   0  0  0  0  0  0  0  0  0  0  0  0
    0.3799    4.0024   -2.4282 H   0  0  0  0  0  0  0  0  0  0  0  0
  1  2  1  0  0  0  0
  2  3  1  0  0  0  0
  2  4  1  0  0  0  0
  2  5  1  0  0  0  0
  5  6  2  0  0  0  0
  5  7  1  0  0  0  0
  7  8  1  0  0  0  0
  7  9  1  0  0  0  0
  9 10  1  0  0  0  0
  9 11  1  0  0  0  0
  9 27  1  0  0  0  0
 11 12  1  0  0  0  0
 11 13  1  0  0  0  0
 11 14  1  0  0  0  0
 14 15  1  0  0  0  0
 14 16  1  0  0  0  0
 14 17  1  0  0  0  0
 17 18  1  0  0  0  0
 17 19  1  0  0  0  0
 17 20  1  0  0  0  0
 20 21  1  0  0  0  0
 20 22  1  0  0  0  0
 20 23  1  0  0  0  0
 23 24  1  0  0  0  0
 23 25  1  0  0  0  0
 23 26  1  0  0  0  0
 27 28  2  0  0  0  0
 27 29  1  0  0  0  0
 29 30  1  0  0  0  0
 29 31  1  0  0  0  0
 31 32  1  0  0  0  0
 31 33  1  0  0  0  0
 31 34  1  0  0  0  0
M  CHG  1  23   1
M  END
$$$$

  -OEChem-01062216093D

 34 33  0     1  0  0  0  0  0999 V2000
   -4.4293   -2.1271    0.7925 H   0  0  0  0  0  0  0  0  0  0  0  0
   -4.2047   -1.1013    0.4858 C   0  0  0  0  0  0  0  0  0  0  0  0
   -4.7994   -0.4159    1.0944 H   0  0  0  0  0  0  0  0  0  0  0  0
   -4.4844   -0.9821   -0.5641 H   0  0  0  0  0  0  0  0  0  0  0  0
   -2.7260   -0.8099    0.6631 C   0  0  0  0  0  0  0  0  0  0  0  0
   -1.9933   -1.7248    0.9963 O   0  0  0  0  0  0  0  0  0  0  0  0
   -2.2696    0.4574    0.3389 N   0  0  0  0  0  0  0  0  0  0  0  0
   -2.9885    1.0399   -0.0841 H   0  0  0  0  0  0  0  0  0  0  0  0
   -0.9178    1.0720    0.4068 C   0  0  1  0  0  0  0  0  0  0  0  0
   -0.9943    1.8336    1.1878 H   0  0  0  0  0  0  0  0  0  0  0  0
    0.3030    0.2156    0.8245 C   0  0  0  0  0  0  0  0  0  0  0  0
    0.3433   -0.6611    0.1686 H   0  0  0  0  0  0  0  0  0  0  0  0
    1.2117    0.7984    0.6384 H   0  0  0  0  0  0  0  0  0  0  0  0
    0.3204   -0.2467    2.2978 C   0  0  0  0  0  0  0  0  0  0  0  0
    0.3177    0.6400    2.9406 H   0  0  0  0  0  0  0  0  0  0  0  0
   -0.5538   -0.8319    2.5741 H   0  0  0  0  0  0  0  0  0  0  0  0
    1.5904   -1.0612    2.5640 C   0  0  0  0  0  0  0  0  0  0  0  0
    1.6118   -1.9206    1.8840 H   0  0  0  0  0  0  0  0  0  0  0  0
    2.4726   -0.4442    2.3609 H   0  0  0  0  0  0  0  0  0  0  0  0
    1.6096   -1.5474    4.0095 C   0  0  0  0  0  0  0  0  0  0  0  0
    1.5755   -0.6814    4.6865 H   0  0  0  0  0  0  0  0  0  0  0  0
    0.7049   -2.1447    4.1983 H   0  0  0  0  0  0  0  0  0  0  0  0
    2.8329   -2.3492    4.2253 N   0  3  0  0  0  0  0  0  0  0  0  0
    3.6615   -1.7777    4.0520 H   0  0  0  0  0  0  0  0  0  0  0  0
    2.8615   -2.6975    5.1856 H   0  0  0  0  0  0  0  0  0  0  0  0
    2.8399   -3.1454    3.5838 H   0  0  0  0  0  0  0  0  0  0  0  0
   -0.6171    1.8523   -0.8916 C   0  0  0  0  0  0  0  0  0  0  0  0
   -0.3270    1.2514   -1.9148 O   0  0  0  0  0  0  0  0  0  0  0  0
   -0.6569    3.2355   -0.9116 N   0  0  0  0  0  0  0  0  0  0  0  0
   -0.9175    3.7219   -0.0590 H   0  0  0  0  0  0  0  0  0  0  0  0
   -0.3861    4.0216   -2.1120 C   0  0  0  0  0  0  0  0  0  0  0  0
   -1.1023    3.7751   -2.9033 H   0  0  0  0  0  0  0  0  0  0  0  0
   -0.4687    5.0908   -1.8932 H   0  0  0  0  0  0  0  0  0  0  0  0
    0.6259    3.8231   -2.4813 H   0  0  0  0  0  0  0  0  0  0  0  0
  1  2  1  0  0  0  0
  2  3  1  0  0  0  0
  2  4  1  0  0  0  0
  2  5  1  0  0  0  0
  5  6  2  0  0  0  0
  5  7  1  0  0  0  0
  7  8  1  0  0  0  0
  7  9  1  0  0  0  0
  9 10  1  0  0  0  0
  9 11  1  0  0  0  0
  9 27  1  0  0  0  0
 11 12  1  0  0  0  0
 11 13  1  0  0  0  0
 11 14  1  0  0  0  0
 14 15  1  0  0  0  0
 14 16  1  0  0  0  0
 14 17  1  0  0  0  0
 17 18  1  0  0  0  0
 17 19  1  0  0  0  0
 17 20  1  0  0  0  0
 20 21  1  0  0  0  0
 20 22  1  0  0  0  0
 20 23  1  0  0  0  0
 23 24  1  0  0  0  0
 23 25  1  0  0  0  0
 23 26  1  0  0  0  0
 27 28  2  0  0  0  0
 27 29  1  0  0  0  0
 29 30  1  0  0  0  0
 29 31  1  0  0  0  0
 31 32  1  0  0  0  0
 31 33  1  0  0  0  0
 31 34  1  0  0  0  0
M  CHG  1  23   1
M  END
$$$$

  -OEChem-01062216093D

 34 33  0     1  0  0  0  0  0999 V2000
   -4.4239   -2.1068    0.7849 H   0  0  0  0  0  0  0  0  0  0  0  0
   -4.1934   -1.0841    0.4725 C   0  0  0  0  0  0  0  0  0  0  0  0
   -4.7940   -0.3926    1.0681 H   0  0  0  0  0  0  0  0  0  0  0  0
   -4.4593   -0.9716   -0.5817 H   0  0  0  0  0  0  0  0  0  0  0  0
   -2.7163   -0.7949    0.6662 C   0  0  0  0  0  0  0  0  0  0  0  0
   -1.9886   -1.7117    1.0064 O   0  0  0  0  0  0  0  0  0  0  0  0
   -2.2539    0.4711    0.3467 N   0  0  0  0  0  0  0  0  0  0  0  0
   -2.9594    1.0441   -0.1117 H   0  0  0  0  0  0  0  0  0  0  0  0
   -0.8991    1.0792    0.4112 C   0  0  1  0  0  0  0  0  0  0  0  0
   -0.9749    1.8384    1.1945 H   0  0  0  0  0  0  0  0  0  0  0  0
    0.3187    0.2171    0.8220 C   0  0  0  0  0  0  0  0  0  0  0  0
    0.3531   -0.6596    0.1655 H   0  0  0  0  0  0  0  0  0  0  0  0
    1.2300    0.7957    0.6354 H   0  0  0  0  0  0  0  0  0  0  0  0
    0.3344   -0.2457    2.2954 C   0  0  0  0  0  0  0  0  0  0  0  0
    0.3379    0.6417    2.9370 H   0  0  0  0  0  0  0  0  0  0  0  0
   -0.5434   -0.8238    2.5744 H   0  0  0  0  0  0  0  0  0  0  0  0
    1.5982   -1.0679    2.5650 C   0  0  0  0  0  0  0  0  0  0  0  0
    1.6165   -1.9286    1.8866 H   0  0  0  0  0  0  0  0  0  0  0  0
    2.4849   -0.4567    2.3641 H   0  0  0  0  0  0  0  0  0  0  0  0
    1.6065   -1.5500    4.0117 C   0  0  0  0  0  0  0  0  0  0  0  0
    1.5757   -0.6815    4.6856 H   0  0  0  0  0  0  0  0  0  0  0  0
    0.6959   -2.1392    4.1980 H   0  0  0  0  0  0  0  0  0  0  0  0
    2.8224   -2.3604    4.2358 N   0  3  0  0  0  0  0  0  0  0  0  0
    3.6564   -1.7973    4.0616 H   0  0  0  0  0  0  0  0  0  0  0  0
    2.8449   -2.7030    5.1984 H   0  0  0  0  0  0  0  0  0  0  0  0
    2.8242   -3.1607    3.5995 H   0  0  0  0  0  0  0  0  0  0  0  0
   -0.5979    1.8652   -0.8836 C   0  0  0  0  0  0  0  0  0  0  0  0
   -0.6326    1.2971   -1.9644 O   0  0  0  0  0  0  0  0  0  0  0  0
   -0.3247    3.2214   -0.8456 N   0  0  0  0  0  0  0  0  0  0  0  0
   -0.3515    3.6924    0.0536 H   0  0  0  0  0  0  0  0  0  0  0  0
   -0.0881    4.0180   -2.0464 C   0  0  0  0  0  0  0  0  0  0  0  0
   -0.9609    3.9854   -2.7076 H   0  0  0  0  0  0  0  0  0  0  0  0
    0.1030    5.0620   -1.7793 H   0  0  0  0  0  0  0  0  0  0  0  0
    0.7807    3.6380   -2.5947 H   0  0  0  0  0  0  0  0  0  0  0  0
  1  2  1  0  0  0  0
  2  3  1  0  0  0  0
  2  4  1  0  0  0  0
  2  5  1  0  0  0  0
  5  6  2  0  0  0  0
  5  7  1  0  0  0  0
  7  8  1  0  0  0  0
  7  9  1  0  0  0  0
  9 10  1  0  0  0  0
  9 11  1  0  0  0  0
  9 27  1  0  0  0  0
 11 12  1  0  0  0  0
 11 13  1  0  0  0  0
 11 14  1  0  0  0  0
 14 15  1  0  0  0  0
 14 16  1  0  0  0  0
 14 17  1  0  0  0  0
 17 18  1  0  0  0  0
 17 19  1  0  0  0  0
 17 20  1  0  0  0  0
 20 21  1  0  0  0  0
 20 22  1  0  0  0  0
 20 23  1  0  0  0  0
 23 24  1  0  0  0  0
 23 25  1  0  0  0  0
 23 26  1  0  0  0  0
 27 28  2  0  0  0  0
 27 29  1  0  0  0  0
 29 30  1  0  0  0  0
 29 31  1  0  0  0  0
 31 32  1  0  0  0  0
 31 33  1  0  0  0  0
 31 34  1  0  0  0  0
M  CHG  1  23   1
M  END
$$$$

  -OEChem-01062216093D

 34 33  0     1  0  0  0  0  0999 V2000
   -4.4263   -2.0922    0.7400 H   0  0  0  0  0  0  0  0  0  0  0  0
   -4.1864   -1.0683    0.4392 C   0  0  0  0  0  0  0  0  0  0  0  0
   -4.8049   -0.3783    1.0183 H   0  0  0  0  0  0  0  0  0  0  0  0
   -4.4190   -0.9525   -0.6226 H   0  0  0  0  0  0  0  0  0  0  0  0
   -2.7166   -0.7794    0.6797 C   0  0  0  0  0  0  0  0  0  0  0  0
   -2.0008   -1.6958    1.0453 O   0  0  0  0  0  0  0  0  0  0  0  0
   -2.2438    0.4827    0.3624 N   0  0  0  0  0  0  0  0  0  0  0  0
   -2.9253    1.0373   -0.1528 H   0  0  0  0  0  0  0  0  0  0  0  0
   -0.8840    1.0796    0.4161 C   0  0  1  0  0  0  0  0  0  0  0  0
   -0.9520    1.8417    1.1974 H   0  0  0  0  0  0  0  0  0  0  0  0
    0.3301    0.2102    0.8228 C   0  0  0  0  0  0  0  0  0  0  0  0
    0.3525   -0.6697    0.1702 H   0  0  0  0  0  0  0  0  0  0  0  0
    1.2453    0.7797    0.6283 H   0  0  0  0  0  0  0  0  0  0  0  0
    0.3497   -0.2452    2.2993 C   0  0  0  0  0  0  0  0  0  0  0  0
    0.3628    0.6460    2.9354 H   0  0  0  0  0  0  0  0  0  0  0  0
   -0.5318   -0.8133    2.5867 H   0  0  0  0  0  0  0  0  0  0  0  0
    1.6075   -1.0766    2.5709 C   0  0  0  0  0  0  0  0  0  0  0  0
    1.6152   -1.9427    1.8991 H   0  0  0  0  0  0  0  0  0  0  0  0
    2.4994   -0.4754    2.3627 H   0  0  0  0  0  0  0  0  0  0  0  0
    1.6165   -1.5497    4.0214 C   0  0  0  0  0  0  0  0  0  0  0  0
    1.5933   -0.6768    4.6897 H   0  0  0  0  0  0  0  0  0  0  0  0
    0.7016   -2.1303    4.2135 H   0  0  0  0  0  0  0  0  0  0  0  0
    2.8257   -2.3695    4.2509 N   0  3  0  0  0  0  0  0  0  0  0  0
    3.6644   -1.8185    4.0616 H   0  0  0  0  0  0  0  0  0  0  0  0
    2.8516   -2.6955    5.2194 H   0  0  0  0  0  0  0  0  0  0  0  0
    2.8149   -3.1810    3.6288 H   0  0  0  0  0  0  0  0  0  0  0  0
   -0.5914    1.8692   -0.8796 C   0  0  0  0  0  0  0  0  0  0  0  0
   -0.9581    1.4292   -1.9592 O   0  0  0  0  0  0  0  0  0  0  0  0
   -0.0131    3.1257   -0.8316 N   0  0  0  0  0  0  0  0  0  0  0  0
    0.2203    3.5137    0.0771 H   0  0  0  0  0  0  0  0  0  0  0  0
    0.2044    3.9448   -2.0212 C   0  0  0  0  0  0  0  0  0  0  0  0
   -0.7476    4.1650   -2.5163 H   0  0  0  0  0  0  0  0  0  0  0  0
    0.6790    4.8929   -1.7498 H   0  0  0  0  0  0  0  0  0  0  0  0
    0.8561    3.4247   -2.7318 H   0  0  0  0  0  0  0  0  0  0  0  0
  1  2  1  0  0  0  0
  2  3  1  0  0  0  0
  2  4  1  0  0  0  0
  2  5  1  0  0  0  0
  5  6  2  0  0  0  0
  5  7  1  0  0  0  0
  7  8  1  0  0  0  0
  7  9  1  0  0  0  0
  9 10  1  0  0  0  0
  9 11  1  0  0  0  0
  9 27  1  0  0  0  0
 11 12  1  0  0  0  0
 11 13  1  0  0  0  0
 11 14  1  0  0  0  0
 14 15  1  0  0  0  0
 14 16  1  0  0  0  0
 14 17  1  0  0  0  0
 17 18  1  0  0  0  0
 17 19  1  0  0  0  0
 17 20  1  0  0  0  0
 20 21  1  0  0  0  0
 20 22  1  0  0  0  0
 20 23  1  0  0  0  0
 23 24  1  0  0  0  0
 23 25  1  0  0  0  0
 23 26  1  0  0  0  0
 27 28  2  0  0  0  0
 27 29  1  0  0  0  0
 29 30  1  0  0  0  0
 29 31  1  0  0  0  0
 31 32  1  0  0  0  0
 31 33  1  0  0  0  0
 31 34  1  0  0  0  0
M  CHG  1  23   1
M  END
$$$$

  -OEChem-01062216093D

 34 33  0     1  0  0  0  0  0999 V2000
   -4.4164   -2.0819    0.7410 H   0  0  0  0  0  0  0  0  0  0  0  0
   -4.1719   -1.0591    0.4405 C   0  0  0  0  0  0  0  0  0  0  0  0
   -4.7881   -0.3669    1.0195 H   0  0  0  0  0  0  0  0  0  0  0  0
   -4.4040   -0.9413   -0.6212 H   0  0  0  0  0  0  0  0  0  0  0  0
   -2.7008   -0.7764    0.6818 C   0  0  0  0  0  0  0  0  0  0  0  0
   -1.9858   -1.6969    1.0403 O   0  0  0  0  0  0  0  0  0  0  0  0
   -2.2235    0.4844    0.3677 N   0  0  0  0  0  0  0  0  0  0  0  0
   -2.8954    1.0366   -0.1645 H   0  0  0  0  0  0  0  0  0  0  0  0
   -0.8604    1.0738    0.4072 C   0  0  1  0  0  0  0  0  0  0  0  0
   -0.9189    1.8391    1.1867 H   0  0  0  0  0  0  0  0  0  0  0  0
    0.3483    0.1946    0.8120 C   0  0  0  0  0  0  0  0  0  0  0  0
    0.3577   -0.6911    0.1673 H   0  0  0  0  0  0  0  0  0  0  0  0
    1.2699    0.7507    0.6108 H   0  0  0  0  0  0  0  0  0  0  0  0
    0.3655   -0.2480    2.2928 C   0  0  0  0  0  0  0  0  0  0  0  0
    0.3894    0.6488    2.9212 H   0  0  0  0  0  0  0  0  0  0  0  0
   -0.5230   -0.8023    2.5858 H   0  0  0  0  0  0  0  0  0  0  0  0
    1.6129   -1.0915    2.5746 C   0  0  0  0  0  0  0  0  0  0  0  0
    1.6113   -1.9646    1.9120 H   0  0  0  0  0  0  0  0  0  0  0  0
    2.5120   -0.5029    2.3622 H   0  0  0  0  0  0  0  0  0  0  0  0
    1.6122   -1.5480    4.0309 C   0  0  0  0  0  0  0  0  0  0  0  0
    1.5994   -0.6667    4.6884 H   0  0  0  0  0  0  0  0  0  0  0  0
    0.6890   -2.1139    4.2282 H   0  0  0  0  0  0  0  0  0  0  0  0
    2.8096   -2.3805    4.2751 N   0  3  0  0  0  0  0  0  0  0  0  0
    3.6565   -1.8418    4.0863 H   0  0  0  0  0  0  0  0  0  0  0  0
    2.8252   -2.6981    5.2465 H   0  0  0  0  0  0  0  0  0  0  0  0
    2.7924   -3.1975    3.6605 H   0  0  0  0  0  0  0  0  0  0  0  0
   -0.5819    1.8718   -0.8887 C   0  0  0  0  0  0  0  0  0  0  0  0
   -1.2131    1.6262   -1.9076 O   0  0  0  0  0  0  0  0  0  0  0  0
    0.2662    2.9655   -0.8794 N   0  0  0  0  0  0  0  0  0  0  0  0
    0.7192    3.2142   -0.0058 H   0  0  0  0  0  0  0  0  0  0  0  0
    0.4738    3.8196   -2.0455 C   0  0  0  0  0  0  0  0  0  0  0  0
   -0.4725    4.2683   -2.3670 H   0  0  0  0  0  0  0  0  0  0  0  0
    1.1742    4.6260   -1.8074 H   0  0  0  0  0  0  0  0  0  0  0  0
    0.8867    3.2393   -2.8776 H   0  0  0  0  0  0  0  0  0  0  0  0
  1  2  1  0  0  0  0
  2  3  1  0  0  0  0
  2  4  1  0  0  0  0
  2  5  1  0  0  0  0
  5  6  2  0  0  0  0
  5  7  1  0  0  0  0
  7  8  1  0  0  0  0
  7  9  1  0  0  0  0
  9 10  1  0  0  0  0
  9 11  1  0  0  0  0
  9 27  1  0  0  0  0
 11 12  1  0  0  0  0
 11 13  1  0  0  0  0
 11 14  1  0  0  0  0
 14 15  1  0  0  0  0
 14 16  1  0  0  0  0
 14 17  1  0  0  0  0
 17 18  1  0  0  0  0
 17 19  1  0  0  0  0
 17 20  1  0  0  0  0
 20 21  1  0  0  0  0
 20 22  1  0  0  0  0
 20 23  1  0  0  0  0
 23 24  1  0  0  0  0
 23 25  1  0  0  0  0
 23 26  1  0  0  0  0
 27 28  2  0  0  0  0
 27 29  1  0  0  0  0
 29 30  1  0  0  0  0
 29 31  1  0  0  0  0
 31 32  1  0  0  0  0
 31 33  1  0  0  0  0
 31 34  1  0  0  0  0
M  CHG  1  23   1
M  END
$$$$

  -OEChem-01062216093D

 34 33  0     1  0  0  0  0  0999 V2000
   -4.3975   -2.0764    0.7536 H   0  0  0  0  0  0  0  0  0  0  0  0
   -4.1499   -1.0543    0.4534 C   0  0  0  0  0  0  0  0  0  0  0  0
   -4.7521   -0.3596    1.0440 H   0  0  0  0  0  0  0  0  0  0  0  0
   -4.3967   -0.9305   -0.6043 H   0  0  0  0  0  0  0  0  0  0  0  0
   -2.6739   -0.7819    0.6748 C   0  0  0  0  0  0  0  0  0  0  0  0
   -1.9568   -1.7099    1.0102 O   0  0  0  0  0  0  0  0  0  0  0  0
   -2.1958    0.4810    0.3704 N   0  0  0  0  0  0  0  0  0  0  0  0
   -2.8698    1.0426   -0.1513 H   0  0  0  0  0  0  0  0  0  0  0  0
   -0.8345    1.0750    0.4060 C   0  0  1  0  0  0  0  0  0  0  0  0
   -0.8870    1.8391    1.1873 H   0  0  0  0  0  0  0  0  0  0  0  0
    0.3701    0.1867    0.8076 C   0  0  0  0  0  0  0  0  0  0  0  0
    0.3747   -0.6983    0.1617 H   0  0  0  0  0  0  0  0  0  0  0  0
    1.2979    0.7333    0.6121 H   0  0  0  0  0  0  0  0  0  0  0  0
    0.3759   -0.2545    2.2892 C   0  0  0  0  0  0  0  0  0  0  0  0
    0.4024    0.6433    2.9159 H   0  0  0  0  0  0  0  0  0  0  0  0
   -0.5198   -0.8007    2.5772 H   0  0  0  0  0  0  0  0  0  0  0  0
    1.6144   -1.1079    2.5821 C   0  0  0  0  0  0  0  0  0  0  0  0
    1.6102   -1.9826    1.9217 H   0  0  0  0  0  0  0  0  0  0  0  0
    2.5204   -0.5279    2.3750 H   0  0  0  0  0  0  0  0  0  0  0  0
    1.5980   -1.5606    4.0401 C   0  0  0  0  0  0  0  0  0  0  0  0
    1.5855   -0.6776    4.6956 H   0  0  0  0  0  0  0  0  0  0  0  0
    0.6688   -2.1189    4.2302 H   0  0  0  0  0  0  0  0  0  0  0  0
    2.7857   -2.4027    4.2987 N   0  3  0  0  0  0  0  0  0  0  0  0
    3.6390   -1.8719    4.1168 H   0  0  0  0  0  0  0  0  0  0  0  0
    2.7890   -2.7166    5.2715 H   0  0  0  0  0  0  0  0  0  0  0  0
    2.7677   -3.2218    3.6871 H   0  0  0  0  0  0  0  0  0  0  0  0
   -0.5731    1.8847   -0.8885 C   0  0  0  0  0  0  0  0  0  0  0  0
   -1.3776    1.8396   -1.8103 O   0  0  0  0  0  0  0  0  0  0  0  0
    0.4807    2.7783   -0.9741 N   0  0  0  0  0  0  0  0  0  0  0  0
    1.0973    2.8709   -0.1735 H   0  0  0  0  0  0  0  0  0  0  0  0
    0.7009    3.6401   -2.1324 C   0  0  0  0  0  0  0  0  0  0  0  0
   -0.1608    4.2973   -2.2930 H   0  0  0  0  0  0  0  0  0  0  0  0
    1.5865    4.2648   -1.9795 H   0  0  0  0  0  0  0  0  0  0  0  0
    0.8554    3.0382   -3.0346 H   0  0  0  0  0  0  0  0  0  0  0  0
  1  2  1  0  0  0  0
  2  3  1  0  0  0  0
  2  4  1  0  0  0  0
  2  5  1  0  0  0  0
  5  6  2  0  0  0  0
  5  7  1  0  0  0  0
  7  8  1  0  0  0  0
  7  9  1  0  0  0  0
  9 10  1  0  0  0  0
  9 11  1  0  0  0  0
  9 27  1  0  0  0  0
 11 12  1  0  0  0  0
 11 13  1  0  0  0  0
 11 14  1  0  0  0  0
 14 15  1  0  0  0  0
 14 16  1  0  0  0  0
 14 17  1  0  0  0  0
 17 18  1  0  0  0  0
 17 19  1  0  0  0  0
 17 20  1  0  0  0  0
 20 21  1  0  0  0  0
 20 22  1  0  0  0  0
 20 23  1  0  0  0  0
 23 24  1  0  0  0  0
 23 25  1  0  0  0  0
 23 26  1  0  0  0  0
 27 28  2  0  0  0  0
 27 29  1  0  0  0  0
 29 30  1  0  0  0  0
 29 31  1  0  0  0  0
 31 32  1  0  0  0  0
 31 33  1  0  0  0  0
 31 34  1  0  0  0  0
M  CHG  1  23   1
M  END
$$$$

  -OEChem-01062216093D

 34 33  0     1  0  0  0  0  0999 V2000
   -4.2850   -0.7185    1.7097 H   0  0  0  0  0  0  0  0  0  0  0  0
   -3.2406   -1.0401    1.7290 C   0  0  0  0  0  0  0  0  0  0  0  0
   -2.7158   -0.4831    2.5080 H   0  0  0  0  0  0  0  0  0  0  0  0
   -3.2049   -2.1069    1.9653 H   0  0  0  0  0  0  0  0  0  0  0  0
   -2.6049   -0.7801    0.3747 C   0  0  0  0  0  0  0  0  0  0  0  0
   -2.3156   -1.6984   -0.3710 O   0  0  0  0  0  0  0  0  0  0  0  0
   -2.3030    0.4956   -0.0240 N   0  0  0  0  0  0  0  0  0  0  0  0
   -2.5095    0.5947   -1.0232 H   0  0  0  0  0  0  0  0  0  0  0  0
   -1.0466    1.2162    0.2865 C   0  0  1  0  0  0  0  0  0  0  0  0
   -1.1812    1.7934    1.2063 H   0  0  0  0  0  0  0  0  0  0  0  0
    0.2188    0.3101    0.4136 C   0  0  0  0  0  0  0  0  0  0  0  0
    0.3009   -0.2753   -0.5099 H   0  0  0  0  0  0  0  0  0  0  0  0
    1.1034    0.9522    0.4694 H   0  0  0  0  0  0  0  0  0  0  0  0
    0.2942   -0.6583    1.6125 C   0  0  0  0  0  0  0  0  0  0  0  0
   -0.5147   -1.3873    1.5935 H   0  0  0  0  0  0  0  0  0  0  0  0
    0.2158   -0.0895    2.5454 H   0  0  0  0  0  0  0  0  0  0  0  0
    1.6172   -1.4351    1.5698 C   0  0  0  0  0  0  0  0  0  0  0  0
    1.6830   -1.9810    0.6214 H   0  0  0  0  0  0  0  0  0  0  0  0
    2.4561   -0.7319    1.6167 H   0  0  0  0  0  0  0  0  0  0  0  0
    1.6961   -2.4177    2.7364 C   0  0  0  0  0  0  0  0  0  0  0  0
    1.6221   -1.8651    3.6844 H   0  0  0  0  0  0  0  0  0  0  0  0
    0.8344   -3.1005    2.6900 H   0  0  0  0  0  0  0  0  0  0  0  0
    2.9695   -3.1657    2.6511 N   0  3  0  0  0  0  0  0  0  0  0  0
    3.7604   -2.5213    2.7060 H   0  0  0  0  0  0  0  0  0  0  0  0
    3.0352   -3.8384    3.4183 H   0  0  0  0  0  0  0  0  0  0  0  0
    3.0161   -3.6719    1.7639 H   0  0  0  0  0  0  0  0  0  0  0  0
   -0.7596    2.2089   -0.8765 C   0  0  0  0  0  0  0  0  0  0  0  0
   -1.4824    2.2137   -1.8649 O   0  0  0  0  0  0  0  0  0  0  0  0
    0.3527    3.0350   -0.8753 N   0  0  0  0  0  0  0  0  0  0  0  0
    0.9047    3.0882   -0.0255 H   0  0  0  0  0  0  0  0  0  0  0  0
    0.6404    3.9782   -1.9531 C   0  0  0  0  0  0  0  0  0  0  0  0
   -0.1851    4.6882   -2.0741 H   0  0  0  0  0  0  0  0  0  0  0  0
    1.5510    4.5435   -1.7317 H   0  0  0  0  0  0  0  0  0  0  0  0
    0.7869    3.4468   -2.8998 H   0  0  0  0  0  0  0  0  0  0  0  0
  1  2  1  0  0  0  0
  2  3  1  0  0  0  0
  2  4  1  0  0  0  0
  2  5  1  0  0  0  0
  5  6  2  0  0  0  0
  5  7  1  0  0  0  0
  7  8  1  0  0  0  0
  7  9  1  0  0  0  0
  9 10  1  0  0  0  0
  9 11  1  0  0  0  0
  9 27  1  0  0  0  0
 11 12  1  0  0  0  0
 11 13  1  0  0  0  0
 11 14  1  0  0  0  0
 14 15  1  0  0  0  0
 14 16  1  0  0  0  0
 14 17  1  0  0  0  0
 17 18  1  0  0  0  0
 17 19  1  0  0  0  0
 17 20  1  0  0  0  0
 20 21  1  0  0  0  0
 20 22  1  0  0  0  0
 20 23  1  0  0  0  0
 23 24  1  0  0  0  0
 23 25  1  0  0  0  0
 23 26  1  0  0  0  0
 27 28  2  0  0  0  0
 27 29  1  0  0  0  0
 29 30  1  0  0  0  0
 29 31  1  0  0  0  0
 31 32  1  0  0  0  0
 31 33  1  0  0  0  0
 31 34  1  0  0  0  0
M  CHG  1  23   1
M  END
$$$$

  -OEChem-01062216093D

 34 33  0     1  0  0  0  0  0999 V2000
   -4.6709   -0.5708   -0.1299 H   0  0  0  0  0  0  0  0  0  0  0  0
   -4.2151   -0.8827    0.8133 C   0  0  0  0  0  0  0  0  0  0  0  0
   -4.6007   -0.2552    1.6204 H   0  0  0  0  0  0  0  0  0  0  0  0
   -4.4946   -1.9213    1.0113 H   0  0  0  0  0  0  0  0  0  0  0  0
   -2.7064   -0.7491    0.7276 C   0  0  0  0  0  0  0  0  0  0  0  0
   -2.0287   -1.7606    0.7769 O   0  0  0  0  0  0  0  0  0  0  0  0
   -2.1802    0.4943    0.4329 N   0  0  0  0  0  0  0  0  0  0  0  0
   -2.8925    1.1840    0.1832 H   0  0  0  0  0  0  0  0  0  0  0  0
   -0.8047    1.0524    0.3881 C   0  0  1  0  0  0  0  0  0  0  0  0
   -0.7026    1.6034    1.3280 H   0  0  0  0  0  0  0  0  0  0  0  0
    0.4242    0.1006    0.3851 C   0  0  0  0  0  0  0  0  0  0  0  0
    0.2933   -0.6141   -0.4347 H   0  0  0  0  0  0  0  0  0  0  0  0
    1.3288    0.6778    0.1765 H   0  0  0  0  0  0  0  0  0  0  0  0
    0.6667   -0.6756    1.7010 C   0  0  0  0  0  0  0  0  0  0  0  0
   -0.1740   -1.2878    2.0100 H   0  0  0  0  0  0  0  0  0  0  0  0
    0.8233    0.0540    2.5028 H   0  0  0  0  0  0  0  0  0  0  0  0
    1.9125   -1.5590    1.5783 C   0  0  0  0  0  0  0  0  0  0  0  0
    1.7762   -2.2568    0.7443 H   0  0  0  0  0  0  0  0  0  0  0  0
    2.7882   -0.9368    1.3644 H   0  0  0  0  0  0  0  0  0  0  0  0
    2.1205   -2.3360    2.8761 C   0  0  0  0  0  0  0  0  0  0  0  0
    2.2384   -1.6277    3.7090 H   0  0  0  0  0  0  0  0  0  0  0  0
    1.2191   -2.9322    3.0838 H   0  0  0  0  0  0  0  0  0  0  0  0
    3.3103   -3.2034    2.7378 N   0  3  0  0  0  0  0  0  0  0  0  0
    4.1420   -2.6354    2.5682 H   0  0  0  0  0  0  0  0  0  0  0  0
    3.4479   -3.7490    3.5913 H   0  0  0  0  0  0  0  0  0  0  0  0
    3.1805   -3.8452    1.9529 H   0  0  0  0  0  0  0  0  0  0  0  0
   -0.7583    2.1757   -0.6824 C   0  0  0  0  0  0  0  0  0  0  0  0
   -1.8096    2.6899   -1.0450 O   0  0  0  0  0  0  0  0  0  0  0  0
    0.4272    2.6868   -1.1832 N   0  0  0  0  0  0  0  0  0  0  0  0
    1.2964    2.2554   -0.8888 H   0  0  0  0  0  0  0  0  0  0  0  0
    0.4788    3.7655   -2.1663 C   0  0  0  0  0  0  0  0  0  0  0  0
    0.0025    4.6692   -1.7709 H   0  0  0  0  0  0  0  0  0  0  0  0
    1.5176    4.0047   -2.4141 H   0  0  0  0  0  0  0  0  0  0  0  0
   -0.0370    3.4722   -3.0872 H   0  0  0  0  0  0  0  0  0  0  0  0
  1  2  1  0  0  0  0
  2  3  1  0  0  0  0
  2  4  1  0  0  0  0
  2  5  1  0  0  0  0
  5  6  2  0  0  0  0
  5  7  1  0  0  0  0
  7  8  1  0  0  0  0
  7  9  1  0  0  0  0
  9 10  1  0  0  0  0
  9 11  1  0  0  0  0
  9 27  1  0  0  0  0
 11 12  1  0  0  0  0
 11 13  1  0  0  0  0
 11 14  1  0  0  0  0
 14 15  1  0  0  0  0
 14 16  1  0  0  0  0
 14 17  1  0  0  0  0
 17 18  1  0  0  0  0
 17 19  1  0  0  0  0
 17 20  1  0  0  0  0
 20 21  1  0  0  0  0
 20 22  1  0  0  0  0
 20 23  1  0  0  0  0
 23 24  1  0  0  0  0
 23 25  1  0  0  0  0
 23 26  1  0  0  0  0
 27 28  2  0  0  0  0
 27 29  1  0  0  0  0
 29 30  1  0  0  0  0
 29 31  1  0  0  0  0
 31 32  1  0  0  0  0
 31 33  1  0  0  0  0
 31 34  1  0  0  0  0
M  CHG  1  23   1
M  END
$$$$

  -OEChem-01062216093D

 34 33  0     1  0  0  0  0  0999 V2000
   -4.6683   -0.5568   -0.0836 H   0  0  0  0  0  0  0  0  0  0  0  0
   -4.1727   -0.9025    0.8272 C   0  0  0  0  0  0  0  0  0  0  0  0
   -4.5263   -0.3072    1.6726 H   0  0  0  0  0  0  0  0  0  0  0  0
   -4.4415   -1.9489    0.9975 H   0  0  0  0  0  0  0  0  0  0  0  0
   -2.6686   -0.7613    0.6849 C   0  0  0  0  0  0  0  0  0  0  0  0
   -1.9848   -1.7707    0.6798 O   0  0  0  0  0  0  0  0  0  0  0  0
   -2.1516    0.4883    0.4002 N   0  0  0  0  0  0  0  0  0  0  0  0
   -2.8685    1.1927    0.2142 H   0  0  0  0  0  0  0  0  0  0  0  0
   -0.7761    1.0448    0.3691 C   0  0  1  0  0  0  0  0  0  0  0  0
   -0.6808    1.5957    1.3102 H   0  0  0  0  0  0  0  0  0  0  0  0
    0.4523    0.0939    0.3797 C   0  0  0  0  0  0  0  0  0  0  0  0
    0.3378   -0.6214   -0.4420 H   0  0  0  0  0  0  0  0  0  0  0  0
    1.3585    0.6760    0.1897 H   0  0  0  0  0  0  0  0  0  0  0  0
    0.6710   -0.6764    1.7027 C   0  0  0  0  0  0  0  0  0  0  0  0
   -0.1786   -1.2848    1.9969 H   0  0  0  0  0  0  0  0  0  0  0  0
    0.8146    0.0560    2.5047 H   0  0  0  0  0  0  0  0  0  0  0  0
    1.9163   -1.5639    1.6067 C   0  0  0  0  0  0  0  0  0  0  0  0
    1.7930   -2.2665    0.7748 H   0  0  0  0  0  0  0  0  0  0  0  0
    2.7976   -0.9455    1.4048 H   0  0  0  0  0  0  0  0  0  0  0  0
    2.0981   -2.3338    2.9125 C   0  0  0  0  0  0  0  0  0  0  0  0
    2.2031   -1.6210    3.7435 H   0  0  0  0  0  0  0  0  0  0  0  0
    1.1908   -2.9257    3.1062 H   0  0  0  0  0  0  0  0  0  0  0  0
    3.2873   -3.2054    2.8010 N   0  3  0  0  0  0  0  0  0  0  0  0
    4.1235   -2.6403    2.6450 H   0  0  0  0  0  0  0  0  0  0  0  0
    3.4068   -3.7475    3.6593 H   0  0  0  0  0  0  0  0  0  0  0  0
    3.1707   -3.8503    2.0165 H   0  0  0  0  0  0  0  0  0  0  0  0
   -0.7312    2.1717   -0.6943 C   0  0  0  0  0  0  0  0  0  0  0  0
   -1.7421    2.8388   -0.8773 O   0  0  0  0  0  0  0  0  0  0  0  0
    0.4087    2.4889   -1.4129 N   0  0  0  0  0  0  0  0  0  0  0  0
    1.2139    1.8794   -1.3185 H   0  0  0  0  0  0  0  0  0  0  0  0
    0.4335    3.5264   -2.4402 C   0  0  0  0  0  0  0  0  0  0  0  0
    0.1720    4.4992   -2.0098 H   0  0  0  0  0  0  0  0  0  0  0  0
    1.4324    3.6033   -2.8807 H   0  0  0  0  0  0  0  0  0  0  0  0
   -0.2797    3.2932   -3.2384 H   0  0  0  0  0  0  0  0  0  0  0  0
  1  2  1  0  0  0  0
  2  3  1  0  0  0  0
  2  4  1  0  0  0  0
  2  5  1  0  0  0  0
  5  6  2  0  0  0  0
  5  7  1  0  0  0  0
  7  8  1  0  0  0  0
  7  9  1  0  0  0  0
  9 10  1  0  0  0  0
  9 11  1  0  0  0  0
  9 27  1  0  0  0  0
 11 12  1  0  0  0  0
 11 13  1  0  0  0  0
 11 14  1  0  0  0  0
 14 15  1  0  0  0  0
 14 16  1  0  0  0  0
 14 17  1  0  0  0  0
 17 18  1  0  0  0  0
 17 19  1  0  0  0  0
 17 20  1  0  0  0  0
 20 21  1  0  0  0  0
 20 22  1  0  0  0  0
 20 23  1  0  0  0  0
 23 24  1  0  0  0  0
 23 25  1  0  0  0  0
 23 26  1  0  0  0  0
 27 28  2  0  0  0  0
 27 29  1  0  0  0  0
 29 30  1  0  0  0  0
 29 31  1  0  0  0  0
 31 32  1  0  0  0  0
 31 33  1  0  0  0  0
 31 34  1  0  0  0  0
M  CHG  1  23   1
M  END
$$$$

  -OEChem-01062216093D

 34 33  0     1  0  0  0  0  0999 V2000
   -4.6708   -0.5611   -0.0672 H   0  0  0  0  0  0  0  0  0  0  0  0
   -4.1539   -0.9029    0.8331 C   0  0  0  0  0  0  0  0  0  0  0  0
   -4.4876   -0.3047    1.6845 H   0  0  0  0  0  0  0  0  0  0  0  0
   -4.4182   -1.9487    1.0135 H   0  0  0  0  0  0  0  0  0  0  0  0
   -2.6538   -0.7623    0.6545 C   0  0  0  0  0  0  0  0  0  0  0  0
   -1.9705   -1.7716    0.6209 O   0  0  0  0  0  0  0  0  0  0  0  0
   -2.1387    0.4891    0.3738 N   0  0  0  0  0  0  0  0  0  0  0  0
   -2.8553    1.2060    0.2465 H   0  0  0  0  0  0  0  0  0  0  0  0
   -0.7599    1.0354    0.3528 C   0  0  1  0  0  0  0  0  0  0  0  0
   -0.6688    1.5832    1.2962 H   0  0  0  0  0  0  0  0  0  0  0  0
    0.4666    0.0842    0.3713 C   0  0  0  0  0  0  0  0  0  0  0  0
    0.3598   -0.6310   -0.4516 H   0  0  0  0  0  0  0  0  0  0  0  0
    1.3728    0.6704    0.1890 H   0  0  0  0  0  0  0  0  0  0  0  0
    0.6705   -0.6846    1.6969 C   0  0  0  0  0  0  0  0  0  0  0  0
   -0.1847   -1.2910    1.9802 H   0  0  0  0  0  0  0  0  0  0  0  0
    0.8066    0.0483    2.4994 H   0  0  0  0  0  0  0  0  0  0  0  0
    1.9144   -1.5747    1.6162 C   0  0  0  0  0  0  0  0  0  0  0  0
    1.8003   -2.2786    0.7840 H   0  0  0  0  0  0  0  0  0  0  0  0
    2.7988   -0.9575    1.4245 H   0  0  0  0  0  0  0  0  0  0  0  0
    2.0782   -2.3414    2.9261 C   0  0  0  0  0  0  0  0  0  0  0  0
    2.1752   -1.6265    3.7561 H   0  0  0  0  0  0  0  0  0  0  0  0
    1.1669   -2.9301    3.1110 H   0  0  0  0  0  0  0  0  0  0  0  0
    3.2658   -3.2170    2.8327 N   0  3  0  0  0  0  0  0  0  0  0  0
    4.1072   -2.6541    2.6967 H   0  0  0  0  0  0  0  0  0  0  0  0
    3.3663   -3.7646    3.6901 H   0  0  0  0  0  0  0  0  0  0  0  0
    3.1622   -3.8567    2.0422 H   0  0  0  0  0  0  0  0  0  0  0  0
   -0.6986    2.1625   -0.7050 C   0  0  0  0  0  0  0  0  0  0  0  0
   -1.6115    2.9775   -0.7310 O   0  0  0  0  0  0  0  0  0  0  0  0
    0.3334    2.2818   -1.6196 N   0  0  0  0  0  0  0  0  0  0  0  0
    1.0041    1.5221   -1.6725 H   0  0  0  0  0  0  0  0  0  0  0  0
    0.3468    3.2992   -2.6668 C   0  0  0  0  0  0  0  0  0  0  0  0
    0.2875    4.3018   -2.2294 H   0  0  0  0  0  0  0  0  0  0  0  0
    1.2708    3.2341   -3.2495 H   0  0  0  0  0  0  0  0  0  0  0  0
   -0.5017    3.1625   -3.3459 H   0  0  0  0  0  0  0  0  0  0  0  0
  1  2  1  0  0  0  0
  2  3  1  0  0  0  0
  2  4  1  0  0  0  0
  2  5  1  0  0  0  0
  5  6  2  0  0  0  0
  5  7  1  0  0  0  0
  7  8  1  0  0  0  0
  7  9  1  0  0  0  0
  9 10  1  0  0  0  0
  9 11  1  0  0  0  0
  9 27  1  0  0  0  0
 11 12  1  0  0  0  0
 11 13  1  0  0  0  0
 11 14  1  0  0  0  0
 14 15  1  0  0  0  0
 14 16  1  0  0  0  0
 14 17  1  0  0  0  0
 17 18  1  0  0  0  0
 17 19  1  0  0  0  0
 17 20  1  0  0  0  0
 20 21  1  0  0  0  0
 20 22  1  0  0  0  0
 20 23  1  0  0  0  0
 23 24  1  0  0  0  0
 23 25  1  0  0  0  0
 23 26  1  0  0  0  0
 27 28  2  0  0  0  0
 27 29  1  0  0  0  0
 29 30  1  0  0  0  0
 29 31  1  0  0  0  0
 31 32  1  0  0  0  0
 31 33  1  0  0  0  0
 31 34  1  0  0  0  0
M  CHG  1  23   1
M  END
$$$$

  -OEChem-01062216093D

 34 33  0     1  0  0  0  0  0999 V2000
   -4.6854   -0.5429   -0.0195 H   0  0  0  0  0  0  0  0  0  0  0  0
   -4.1500   -0.8900    0.8678 C   0  0  0  0  0  0  0  0  0  0  0  0
   -4.4636   -0.2946    1.7287 H   0  0  0  0  0  0  0  0  0  0  0  0
   -4.4135   -1.9359    1.0490 H   0  0  0  0  0  0  0  0  0  0  0  0
   -2.6538   -0.7528    0.6572 C   0  0  0  0  0  0  0  0  0  0  0  0
   -1.9729   -1.7629    0.6035 O   0  0  0  0  0  0  0  0  0  0  0  0
   -2.1398    0.4963    0.3650 N   0  0  0  0  0  0  0  0  0  0  0  0
   -2.8546    1.2206    0.2813 H   0  0  0  0  0  0  0  0  0  0  0  0
   -0.7572    1.0317    0.3459 C   0  0  1  0  0  0  0  0  0  0  0  0
   -0.6654    1.5835    1.2874 H   0  0  0  0  0  0  0  0  0  0  0  0
    0.4675    0.0790    0.3696 C   0  0  0  0  0  0  0  0  0  0  0  0
    0.3606   -0.6395   -0.4504 H   0  0  0  0  0  0  0  0  0  0  0  0
    1.3722    0.6670    0.1817 H   0  0  0  0  0  0  0  0  0  0  0  0
    0.6707   -0.6884    1.6959 C   0  0  0  0  0  0  0  0  0  0  0  0
   -0.1852   -1.2959    1.9762 H   0  0  0  0  0  0  0  0  0  0  0  0
    0.8056    0.0441    2.4992 H   0  0  0  0  0  0  0  0  0  0  0  0
    1.9149   -1.5783    1.6140 C   0  0  0  0  0  0  0  0  0  0  0  0
    1.8006   -2.2819    0.7815 H   0  0  0  0  0  0  0  0  0  0  0  0
    2.7987   -0.9602    1.4214 H   0  0  0  0  0  0  0  0  0  0  0  0
    2.0829   -2.3462    2.9228 C   0  0  0  0  0  0  0  0  0  0  0  0
    2.1815   -1.6325    3.7538 H   0  0  0  0  0  0  0  0  0  0  0  0
    1.1734   -2.9369    3.1097 H   0  0  0  0  0  0  0  0  0  0  0  0
    3.2720   -3.2193    2.8228 N   0  3  0  0  0  0  0  0  0  0  0  0
    4.1074   -2.6558    2.6554 H   0  0  0  0  0  0  0  0  0  0  0  0
    3.3944   -3.7471    3.6897 H   0  0  0  0  0  0  0  0  0  0  0  0
    3.1544   -3.8770    2.0492 H   0  0  0  0  0  0  0  0  0  0  0  0
   -0.6757    2.1470   -0.7188 C   0  0  0  0  0  0  0  0  0  0  0  0
   -1.4430    3.0944   -0.6210 O   0  0  0  0  0  0  0  0  0  0  0  0
    0.1831    2.0782   -1.8017 N   0  0  0  0  0  0  0  0  0  0  0  0
    0.6781    1.2040   -1.9476 H   0  0  0  0  0  0  0  0  0  0  0  0
    0.1746    3.0628   -2.8796 C   0  0  0  0  0  0  0  0  0  0  0  0
    0.3619    4.0674   -2.4850 H   0  0  0  0  0  0  0  0  0  0  0  0
    0.9543    2.8317   -3.6120 H   0  0  0  0  0  0  0  0  0  0  0  0
   -0.7933    3.0625   -3.3924 H   0  0  0  0  0  0  0  0  0  0  0  0
  1  2  1  0  0  0  0
  2  3  1  0  0  0  0
  2  4  1  0  0  0  0
  2  5  1  0  0  0  0
  5  6  2  0  0  0  0
  5  7  1  0  0  0  0
  7  8  1  0  0  0  0
  7  9  1  0  0  0  0
  9 10  1  0  0  0  0
  9 11  1  0  0  0  0
  9 27  1  0  0  0  0
 11 12  1  0  0  0  0
 11 13  1  0  0  0  0
 11 14  1  0  0  0  0
 14 15  1  0  0  0  0
 14 16  1  0  0  0  0
 14 17  1  0  0  0  0
 17 18  1  0  0  0  0
 17 19  1  0  0  0  0
 17 20  1  0  0  0  0
 20 21  1  0  0  0  0
 20 22  1  0  0  0  0
 20 23  1  0  0  0  0
 23 24  1  0  0  0  0
 23 25  1  0  0  0  0
 23 26  1  0  0  0  0
 27 28  2  0  0  0  0
 27 29  1  0  0  0  0
 29 30  1  0  0  0  0
 29 31  1  0  0  0  0
 31 32  1  0  0  0  0
 31 33  1  0  0  0  0
 31 34  1  0  0  0  0
M  CHG  1  23   1
M  END
$$$$

  -OEChem-01062216093D

 34 33  0     1  0  0  0  0  0999 V2000
   -4.7020   -0.5734    0.0191 H   0  0  0  0  0  0  0  0  0  0  0  0
   -4.1387   -0.9093    0.8933 C   0  0  0  0  0  0  0  0  0  0  0  0
   -4.4300   -0.3076    1.7575 H   0  0  0  0  0  0  0  0  0  0  0  0
   -4.3909   -1.9547    1.0924 H   0  0  0  0  0  0  0  0  0  0  0  0
   -2.6501   -0.7668    0.6380 C   0  0  0  0  0  0  0  0  0  0  0  0
   -1.9664   -1.7736    0.5620 O   0  0  0  0  0  0  0  0  0  0  0  0
   -2.1467    0.4836    0.3331 N   0  0  0  0  0  0  0  0  0  0  0  0
   -2.8650    1.2067    0.2871 H   0  0  0  0  0  0  0  0  0  0  0  0
   -0.7650    1.0209    0.3224 C   0  0  1  0  0  0  0  0  0  0  0  0
   -0.6833    1.5777    1.2620 H   0  0  0  0  0  0  0  0  0  0  0  0
    0.4627    0.0749    0.3591 C   0  0  0  0  0  0  0  0  0  0  0  0
    0.3665   -0.6479   -0.4582 H   0  0  0  0  0  0  0  0  0  0  0  0
    1.3641    0.6686    0.1719 H   0  0  0  0  0  0  0  0  0  0  0  0
    0.6588   -0.6856    1.6900 C   0  0  0  0  0  0  0  0  0  0  0  0
   -0.1971   -1.2963    1.9651 H   0  0  0  0  0  0  0  0  0  0  0  0
    0.7847    0.0504    2.4916 H   0  0  0  0  0  0  0  0  0  0  0  0
    1.9080   -1.5690    1.6184 C   0  0  0  0  0  0  0  0  0  0  0  0
    1.8019   -2.2754    0.7875 H   0  0  0  0  0  0  0  0  0  0  0  0
    2.7890   -0.9466    1.4278 H   0  0  0  0  0  0  0  0  0  0  0  0
    2.0742   -2.3327    2.9296 C   0  0  0  0  0  0  0  0  0  0  0  0
    2.1661   -1.6156    3.7585 H   0  0  0  0  0  0  0  0  0  0  0  0
    1.1673   -2.9277    3.1149 H   0  0  0  0  0  0  0  0  0  0  0  0
    3.2688   -3.1988    2.8364 N   0  3  0  0  0  0  0  0  0  0  0  0
    4.1000   -2.6313    2.6618 H   0  0  0  0  0  0  0  0  0  0  0  0
    3.3962   -3.7166    3.7085 H   0  0  0  0  0  0  0  0  0  0  0  0
    3.1544   -3.8651    2.0698 H   0  0  0  0  0  0  0  0  0  0  0  0
   -0.6612    2.1224   -0.7510 C   0  0  0  0  0  0  0  0  0  0  0  0
   -1.2355    3.1832   -0.5543 O   0  0  0  0  0  0  0  0  0  0  0  0
   -0.0220    1.9045   -1.9581 N   0  0  0  0  0  0  0  0  0  0  0  0
    0.2811    0.9558   -2.1573 H   0  0  0  0  0  0  0  0  0  0  0  0
   -0.0444    2.8739   -3.0491 C   0  0  0  0  0  0  0  0  0  0  0  0
    0.3607    3.8359   -2.7171 H   0  0  0  0  0  0  0  0  0  0  0  0
    0.5626    2.5180   -3.8873 H   0  0  0  0  0  0  0  0  0  0  0  0
   -1.0688    3.0288   -3.4043 H   0  0  0  0  0  0  0  0  0  0  0  0
  1  2  1  0  0  0  0
  2  3  1  0  0  0  0
  2  4  1  0  0  0  0
  2  5  1  0  0  0  0
  5  6  2  0  0  0  0
  5  7  1  0  0  0  0
  7  8  1  0  0  0  0
  7  9  1  0  0  0  0
  9 10  1  0  0  0  0
  9 11  1  0  0  0  0
  9 27  1  0  0  0  0
 11 12  1  0  0  0  0
 11 13  1  0  0  0  0
 11 14  1  0  0  0  0
 14 15  1  0  0  0  0
 14 16  1  0  0  0  0
 14 17  1  0  0  0  0
 17 18  1  0  0  0  0
 17 19  1  0  0  0  0
 17 20  1  0  0  0  0
 20 21  1  0  0  0  0
 20 22  1  0  0  0  0
 20 23  1  0  0  0  0
 23 24  1  0  0  0  0
 23 25  1  0  0  0  0
 23 26  1  0  0  0  0
 27 28  2  0  0  0  0
 27 29  1  0  0  0  0
 29 30  1  0  0  0  0
 29 31  1  0  0  0  0
 31 32  1  0  0  0  0
 31 33  1  0  0  0  0
 31 34  1  0  0  0  0
M  CHG  1  23   1
M  END
$$$$

  -OEChem-01062216093D

 34 33  0     1  0  0  0  0  0999 V2000
   -4.7287   -0.5981    0.0688 H   0  0  0  0  0  0  0  0  0  0  0  0
   -4.1408   -0.9357    0.9260 C   0  0  0  0  0  0  0  0  0  0  0  0
   -4.4108   -0.3391    1.8006 H   0  0  0  0  0  0  0  0  0  0  0  0
   -4.3839   -1.9830    1.1268 H   0  0  0  0  0  0  0  0  0  0  0  0
   -2.6599   -0.7861    0.6322 C   0  0  0  0  0  0  0  0  0  0  0  0
   -1.9721   -1.7886    0.5382 O   0  0  0  0  0  0  0  0  0  0  0  0
   -2.1702    0.4654    0.3102 N   0  0  0  0  0  0  0  0  0  0  0  0
   -2.8930    1.1844    0.2958 H   0  0  0  0  0  0  0  0  0  0  0  0
   -0.7896    1.0072    0.3010 C   0  0  1  0  0  0  0  0  0  0  0  0
   -0.7154    1.5694    1.2385 H   0  0  0  0  0  0  0  0  0  0  0  0
    0.4431    0.0697    0.3470 C   0  0  0  0  0  0  0  0  0  0  0  0
    0.3542   -0.6583   -0.4663 H   0  0  0  0  0  0  0  0  0  0  0  0
    1.3399    0.6692    0.1557 H   0  0  0  0  0  0  0  0  0  0  0  0
    0.6426   -0.6835    1.6815 C   0  0  0  0  0  0  0  0  0  0  0  0
   -0.2098   -1.2999    1.9566 H   0  0  0  0  0  0  0  0  0  0  0  0
    0.7619    0.0569    2.4803 H   0  0  0  0  0  0  0  0  0  0  0  0
    1.8991   -1.5577    1.6136 C   0  0  0  0  0  0  0  0  0  0  0  0
    1.7990   -2.2675    0.7848 H   0  0  0  0  0  0  0  0  0  0  0  0
    2.7749   -0.9284    1.4215 H   0  0  0  0  0  0  0  0  0  0  0  0
    2.0738   -2.3168    2.9263 C   0  0  0  0  0  0  0  0  0  0  0  0
    2.1612   -1.5976    3.7539 H   0  0  0  0  0  0  0  0  0  0  0  0
    1.1728   -2.9199    3.1143 H   0  0  0  0  0  0  0  0  0  0  0  0
    3.2764   -3.1719    2.8310 N   0  3  0  0  0  0  0  0  0  0  0  0
    4.1022   -2.5965    2.6559 H   0  0  0  0  0  0  0  0  0  0  0  0
    3.4100   -3.6897    3.7022 H   0  0  0  0  0  0  0  0  0  0  0  0
    3.1673   -3.8380    2.0634 H   0  0  0  0  0  0  0  0  0  0  0  0
   -0.6653    2.0950   -0.7826 C   0  0  0  0  0  0  0  0  0  0  0  0
   -0.9694    3.2453   -0.5058 O   0  0  0  0  0  0  0  0  0  0  0  0
   -0.2905    1.7746   -2.0742 N   0  0  0  0  0  0  0  0  0  0  0  0
   -0.2107    0.7872   -2.3007 H   0  0  0  0  0  0  0  0  0  0  0  0
   -0.2915    2.7460   -3.1636 C   0  0  0  0  0  0  0  0  0  0  0  0
    0.3473    3.6010   -2.9166 H   0  0  0  0  0  0  0  0  0  0  0  0
    0.0890    2.2881   -4.0820 H   0  0  0  0  0  0  0  0  0  0  0  0
   -1.3071    3.1103   -3.3525 H   0  0  0  0  0  0  0  0  0  0  0  0
  1  2  1  0  0  0  0
  2  3  1  0  0  0  0
  2  4  1  0  0  0  0
  2  5  1  0  0  0  0
  5  6  2  0  0  0  0
  5  7  1  0  0  0  0
  7  8  1  0  0  0  0
  7  9  1  0  0  0  0
  9 10  1  0  0  0  0
  9 11  1  0  0  0  0
  9 27  1  0  0  0  0
 11 12  1  0  0  0  0
 11 13  1  0  0  0  0
 11 14  1  0  0  0  0
 14 15  1  0  0  0  0
 14 16  1  0  0  0  0
 14 17  1  0  0  0  0
 17 18  1  0  0  0  0
 17 19  1  0  0  0  0
 17 20  1  0  0  0  0
 20 21  1  0  0  0  0
 20 22  1  0  0  0  0
 20 23  1  0  0  0  0
 23 24  1  0  0  0  0
 23 25  1  0  0  0  0
 23 26  1  0  0  0  0
 27 28  2  0  0  0  0
 27 29  1  0  0  0  0
 29 30  1  0  0  0  0
 29 31  1  0  0  0  0
 31 32  1  0  0  0  0
 31 33  1  0  0  0  0
 31 34  1  0  0  0  0
M  CHG  1  23   1
M  END
$$$$

  -OEChem-01062216093D

 34 33  0     1  0  0  0  0  0999 V2000
   -4.2984   -0.8554    1.7857 H   0  0  0  0  0  0  0  0  0  0  0  0
   -3.2357   -1.1108    1.7779 C   0  0  0  0  0  0  0  0  0  0  0  0
   -2.7277   -0.5185    2.5423 H   0  0  0  0  0  0  0  0  0  0  0  0
   -3.1255   -2.1722    2.0150 H   0  0  0  0  0  0  0  0  0  0  0  0
   -2.6506   -0.8142    0.4087 C   0  0  0  0  0  0  0  0  0  0  0  0
   -2.3851   -1.7019   -0.3816 O   0  0  0  0  0  0  0  0  0  0  0  0
   -2.3757    0.4671    0.0117 N   0  0  0  0  0  0  0  0  0  0  0  0
   -2.6842    0.5825   -0.9528 H   0  0  0  0  0  0  0  0  0  0  0  0
   -1.0769    1.1366    0.2487 C   0  0  1  0  0  0  0  0  0  0  0  0
   -1.1660    1.7122    1.1770 H   0  0  0  0  0  0  0  0  0  0  0  0
    0.1936    0.2453    0.3662 C   0  0  0  0  0  0  0  0  0  0  0  0
    0.2556   -0.3856   -0.5273 H   0  0  0  0  0  0  0  0  0  0  0  0
    1.0684    0.9058    0.3628 H   0  0  0  0  0  0  0  0  0  0  0  0
    0.2935   -0.6628    1.6078 C   0  0  0  0  0  0  0  0  0  0  0  0
   -0.5226   -1.3844    1.6388 H   0  0  0  0  0  0  0  0  0  0  0  0
    0.2375   -0.0473    2.5127 H   0  0  0  0  0  0  0  0  0  0  0  0
    1.6112   -1.4477    1.5785 C   0  0  0  0  0  0  0  0  0  0  0  0
    1.6563   -2.0415    0.6586 H   0  0  0  0  0  0  0  0  0  0  0  0
    2.4535   -0.7470    1.5727 H   0  0  0  0  0  0  0  0  0  0  0  0
    1.7065   -2.3685    2.7934 C   0  0  0  0  0  0  0  0  0  0  0  0
    1.6551   -1.7646    3.7113 H   0  0  0  0  0  0  0  0  0  0  0  0
    0.8402   -3.0465    2.8023 H   0  0  0  0  0  0  0  0  0  0  0  0
    2.9737   -3.1287    2.7257 N   0  3  0  0  0  0  0  0  0  0  0  0
    3.7681   -2.4857    2.7232 H   0  0  0  0  0  0  0  0  0  0  0  0
    3.0543   -3.7514    3.5326 H   0  0  0  0  0  0  0  0  0  0  0  0
    2.9991   -3.6896    1.8715 H   0  0  0  0  0  0  0  0  0  0  0  0
   -0.8263    2.1545   -0.8847 C   0  0  0  0  0  0  0  0  0  0  0  0
   -0.9057    3.3480   -0.6438 O   0  0  0  0  0  0  0  0  0  0  0  0
   -0.4511    1.7385   -2.1503 N   0  0  0  0  0  0  0  0  0  0  0  0
   -0.4589    0.7401   -2.3414 H   0  0  0  0  0  0  0  0  0  0  0  0
   -0.2390    2.6650   -3.2586 C   0  0  0  0  0  0  0  0  0  0  0  0
    0.5381    3.3951   -3.0072 H   0  0  0  0  0  0  0  0  0  0  0  0
    0.0775    2.1217   -4.1544 H   0  0  0  0  0  0  0  0  0  0  0  0
   -1.1641    3.2038   -3.4902 H   0  0  0  0  0  0  0  0  0  0  0  0
  1  2  1  0  0  0  0
  2  3  1  0  0  0  0
  2  4  1  0  0  0  0
  2  5  1  0  0  0  0
  5  6  2  0  0  0  0
  5  7  1  0  0  0  0
  7  8  1  0  0  0  0
  7  9  1  0  0  0  0
  9 10  1  0  0  0  0
  9 11  1  0  0  0  0
  9 27  1  0  0  0  0
 11 12  1  0  0  0  0
 11 13  1  0  0  0  0
 11 14  1  0  0  0  0
 14 15  1  0  0  0  0
 14 16  1  0  0  0  0
 14 17  1  0  0  0  0
 17 18  1  0  0  0  0
 17 19  1  0  0  0  0
 17 20  1  0  0  0  0
 20 21  1  0  0  0  0
 20 22  1  0  0  0  0
 20 23  1  0  0  0  0
 23 24  1  0  0  0  0
 23 25  1  0  0  0  0
 23 26  1  0  0  0  0
 27 28  2  0  0  0  0
 27 29  1  0  0  0  0
 29 30  1  0  0  0  0
 29 31  1  0  0  0  0
 31 32  1  0  0  0  0
 31 33  1  0  0  0  0
 31 34  1  0  0  0  0
M  CHG  1  23   1
M  END
$$$$

  -OEChem-01062216093D

 34 33  0     1  0  0  0  0  0999 V2000
   -4.2250   -0.9716    1.9497 H   0  0  0  0  0  0  0  0  0  0  0  0
   -3.1502   -1.1336    1.8329 C   0  0  0  0  0  0  0  0  0  0  0  0
   -2.6228   -0.4804    2.5315 H   0  0  0  0  0  0  0  0  0  0  0  0
   -2.9218   -2.1752    2.0715 H   0  0  0  0  0  0  0  0  0  0  0  0
   -2.7442   -0.8229    0.4026 C   0  0  0  0  0  0  0  0  0  0  0  0
   -2.9198   -1.6283   -0.4902 O   0  0  0  0  0  0  0  0  0  0  0  0
   -2.4373    0.4493    0.0028 N   0  0  0  0  0  0  0  0  0  0  0  0
   -2.7619    0.5814   -0.9543 H   0  0  0  0  0  0  0  0  0  0  0  0
   -1.1616    1.1431    0.2836 C   0  0  1  0  0  0  0  0  0  0  0  0
   -1.2816    1.7230    1.2056 H   0  0  0  0  0  0  0  0  0  0  0  0
    0.1281    0.2790    0.4042 C   0  0  0  0  0  0  0  0  0  0  0  0
    0.2233   -0.3214   -0.5074 H   0  0  0  0  0  0  0  0  0  0  0  0
    0.9849    0.9629    0.4351 H   0  0  0  0  0  0  0  0  0  0  0  0
    0.2439   -0.6655    1.6142 C   0  0  0  0  0  0  0  0  0  0  0  0
   -0.5464   -1.4154    1.5983 H   0  0  0  0  0  0  0  0  0  0  0  0
    0.1540   -0.0879    2.5410 H   0  0  0  0  0  0  0  0  0  0  0  0
    1.5886   -1.4058    1.5712 C   0  0  0  0  0  0  0  0  0  0  0  0
    1.6639   -1.9637    0.6310 H   0  0  0  0  0  0  0  0  0  0  0  0
    2.4063   -0.6765    1.5990 H   0  0  0  0  0  0  0  0  0  0  0  0
    1.7113   -2.3671    2.7526 C   0  0  0  0  0  0  0  0  0  0  0  0
    1.6342   -1.7995    3.6918 H   0  0  0  0  0  0  0  0  0  0  0  0
    0.8704   -3.0761    2.7323 H   0  0  0  0  0  0  0  0  0  0  0  0
    3.0061   -3.0779    2.6645 N   0  3  0  0  0  0  0  0  0  0  0  0
    3.7760   -2.4057    2.6751 H   0  0  0  0  0  0  0  0  0  0  0  0
    3.1131   -3.7154    3.4568 H   0  0  0  0  0  0  0  0  0  0  0  0
    3.0506   -3.6177    1.7976 H   0  0  0  0  0  0  0  0  0  0  0  0
   -0.8770    2.1381   -0.8619 C   0  0  0  0  0  0  0  0  0  0  0  0
   -0.6497    3.3065   -0.5929 O   0  0  0  0  0  0  0  0  0  0  0  0
   -0.7415    1.6998   -2.1682 N   0  0  0  0  0  0  0  0  0  0  0  0
   -0.9372    0.7219   -2.3658 H   0  0  0  0  0  0  0  0  0  0  0  0
   -0.4344    2.5948   -3.2798 C   0  0  0  0  0  0  0  0  0  0  0  0
    0.5409    3.0711   -3.1317 H   0  0  0  0  0  0  0  0  0  0  0  0
   -0.4059    2.0365   -4.2207 H   0  0  0  0  0  0  0  0  0  0  0  0
   -1.1970    3.3764   -3.3664 H   0  0  0  0  0  0  0  0  0  0  0  0
  1  2  1  0  0  0  0
  2  3  1  0  0  0  0
  2  4  1  0  0  0  0
  2  5  1  0  0  0  0
  5  6  2  0  0  0  0
  5  7  1  0  0  0  0
  7  8  1  0  0  0  0
  7  9  1  0  0  0  0
  9 10  1  0  0  0  0
  9 11  1  0  0  0  0
  9 27  1  0  0  0  0
 11 12  1  0  0  0  0
 11 13  1  0  0  0  0
 11 14  1  0  0  0  0
 14 15  1  0  0  0  0
 14 16  1  0  0  0  0
 14 17  1  0  0  0  0
 17 18  1  0  0  0  0
 17 19  1  0  0  0  0
 17 20  1  0  0  0  0
 20 21  1  0  0  0  0
 20 22  1  0  0  0  0
 20 23  1  0  0  0  0
 23 24  1  0  0  0  0
 23 25  1  0  0  0  0
 23 26  1  0  0  0  0
 27 28  2  0  0  0  0
 27 29  1  0  0  0  0
 29 30  1  0  0  0  0
 29 31  1  0  0  0  0
 31 32  1  0  0  0  0
 31 33  1  0  0  0  0
 31 34  1  0  0  0  0
M  CHG  1  23   1
M  END
$$$$

  -OEChem-01062216093D

 34 33  0     1  0  0  0  0  0999 V2000
   -4.2096   -1.0052    2.0181 H   0  0  0  0  0  0  0  0  0  0  0  0
   -3.1357   -1.1467    1.8699 C   0  0  0  0  0  0  0  0  0  0  0  0
   -2.6019   -0.4835    2.5541 H   0  0  0  0  0  0  0  0  0  0  0  0
   -2.8810   -2.1840    2.1006 H   0  0  0  0  0  0  0  0  0  0  0  0
   -2.7798   -0.8282    0.4274 C   0  0  0  0  0  0  0  0  0  0  0  0
   -3.0572   -1.6013   -0.4676 O   0  0  0  0  0  0  0  0  0  0  0  0
   -2.4626    0.4419    0.0277 N   0  0  0  0  0  0  0  0  0  0  0  0
   -2.8120    0.5935   -0.9172 H   0  0  0  0  0  0  0  0  0  0  0  0
   -1.1957    1.1511    0.3152 C   0  0  1  0  0  0  0  0  0  0  0  0
   -1.3200    1.7293    1.2374 H   0  0  0  0  0  0  0  0  0  0  0  0
    0.0998    0.2939    0.4219 C   0  0  0  0  0  0  0  0  0  0  0  0
    0.1969   -0.2898   -0.5006 H   0  0  0  0  0  0  0  0  0  0  0  0
    0.9530    0.9817    0.4624 H   0  0  0  0  0  0  0  0  0  0  0  0
    0.2279   -0.6661    1.6170 C   0  0  0  0  0  0  0  0  0  0  0  0
   -0.5547   -1.4231    1.5906 H   0  0  0  0  0  0  0  0  0  0  0  0
    0.1351   -0.1030    2.5524 H   0  0  0  0  0  0  0  0  0  0  0  0
    1.5781   -1.3942    1.5575 C   0  0  0  0  0  0  0  0  0  0  0  0
    1.6553   -1.9373    0.6085 H   0  0  0  0  0  0  0  0  0  0  0  0
    2.3893   -0.6582    1.5941 H   0  0  0  0  0  0  0  0  0  0  0  0
    1.7122   -2.3708    2.7247 C   0  0  0  0  0  0  0  0  0  0  0  0
    1.6348   -1.8156    3.6712 H   0  0  0  0  0  0  0  0  0  0  0  0
    0.8762   -3.0852    2.6982 H   0  0  0  0  0  0  0  0  0  0  0  0
    3.0118   -3.0707    2.6223 N   0  3  0  0  0  0  0  0  0  0  0  0
    3.7767   -2.3928    2.6374 H   0  0  0  0  0  0  0  0  0  0  0  0
    3.1271   -3.7169    3.4065 H   0  0  0  0  0  0  0  0  0  0  0  0
    3.0564   -3.6000    1.7490 H   0  0  0  0  0  0  0  0  0  0  0  0
   -0.8975    2.1423   -0.8306 C   0  0  0  0  0  0  0  0  0  0  0  0
   -0.4315    3.2380   -0.5606 O   0  0  0  0  0  0  0  0  0  0  0  0
   -1.0380    1.7657   -2.1557 N   0  0  0  0  0  0  0  0  0  0  0  0
   -1.3394    0.8156   -2.3552 H   0  0  0  0  0  0  0  0  0  0  0  0
   -0.7127    2.6487   -3.2715 C   0  0  0  0  0  0  0  0  0  0  0  0
    0.3547    2.8940   -3.2692 H   0  0  0  0  0  0  0  0  0  0  0  0
   -0.9541    2.1645   -4.2230 H   0  0  0  0  0  0  0  0  0  0  0  0
   -1.2867    3.5794   -3.2047 H   0  0  0  0  0  0  0  0  0  0  0  0
  1  2  1  0  0  0  0
  2  3  1  0  0  0  0
  2  4  1  0  0  0  0
  2  5  1  0  0  0  0
  5  6  2  0  0  0  0
  5  7  1  0  0  0  0
  7  8  1  0  0  0  0
  7  9  1  0  0  0  0
  9 10  1  0  0  0  0
  9 11  1  0  0  0  0
  9 27  1  0  0  0  0
 11 12  1  0  0  0  0
 11 13  1  0  0  0  0
 11 14  1  0  0  0  0
 14 15  1  0  0  0  0
 14 16  1  0  0  0  0
 14 17  1  0  0  0  0
 17 18  1  0  0  0  0
 17 19  1  0  0  0  0
 17 20  1  0  0  0  0
 20 21  1  0  0  0  0
 20 22  1  0  0  0  0
 20 23  1  0  0  0  0
 23 24  1  0  0  0  0
 23 25  1  0  0  0  0
 23 26  1  0  0  0  0
 27 28  2  0  0  0  0
 27 29  1  0  0  0  0
 29 30  1  0  0  0  0
 29 31  1  0  0  0  0
 31 32  1  0  0  0  0
 31 33  1  0  0  0  0
 31 34  1  0  0  0  0
M  CHG  1  23   1
M  END
$$$$

  -OEChem-01062216093D

 34 33  0     1  0  0  0  0  0999 V2000
   -4.1992   -1.0536    2.0598 H   0  0  0  0  0  0  0  0  0  0  0  0
   -3.1257   -1.1712    1.8894 C   0  0  0  0  0  0  0  0  0  0  0  0
   -2.5930   -0.4975    2.5641 H   0  0  0  0  0  0  0  0  0  0  0  0
   -2.8438   -2.2031    2.1118 H   0  0  0  0  0  0  0  0  0  0  0  0
   -2.8076   -0.8419    0.4405 C   0  0  0  0  0  0  0  0  0  0  0  0
   -3.1736   -1.5785   -0.4530 O   0  0  0  0  0  0  0  0  0  0  0  0
   -2.4804    0.4274    0.0453 N   0  0  0  0  0  0  0  0  0  0  0  0
   -2.8572    0.6009   -0.8841 H   0  0  0  0  0  0  0  0  0  0  0  0
   -1.2235    1.1529    0.3401 C   0  0  1  0  0  0  0  0  0  0  0  0
   -1.3561    1.7292    1.2621 H   0  0  0  0  0  0  0  0  0  0  0  0
    0.0756    0.2983    0.4450 C   0  0  0  0  0  0  0  0  0  0  0  0
    0.1751   -0.2760   -0.4832 H   0  0  0  0  0  0  0  0  0  0  0  0
    0.9283    0.9863    0.4937 H   0  0  0  0  0  0  0  0  0  0  0  0
    0.2128   -0.6707    1.6312 C   0  0  0  0  0  0  0  0  0  0  0  0
   -0.5634   -1.4338    1.5985 H   0  0  0  0  0  0  0  0  0  0  0  0
    0.1187   -0.1169    2.5722 H   0  0  0  0  0  0  0  0  0  0  0  0
    1.5689   -1.3872    1.5587 C   0  0  0  0  0  0  0  0  0  0  0  0
    1.6449   -1.9205    0.6044 H   0  0  0  0  0  0  0  0  0  0  0  0
    2.3743   -0.6451    1.5972 H   0  0  0  0  0  0  0  0  0  0  0  0
    1.7188   -2.3744    2.7146 C   0  0  0  0  0  0  0  0  0  0  0  0
    1.6422   -1.8303    3.6677 H   0  0  0  0  0  0  0  0  0  0  0  0
    0.8897   -3.0968    2.6853 H   0  0  0  0  0  0  0  0  0  0  0  0
    3.0247   -3.0598    2.5956 N   0  3  0  0  0  0  0  0  0  0  0  0
    3.7824   -2.3737    2.6090 H   0  0  0  0  0  0  0  0  0  0  0  0
    3.1542   -3.7106    3.3737 H   0  0  0  0  0  0  0  0  0  0  0  0
    3.0673   -3.5816    1.7176 H   0  0  0  0  0  0  0  0  0  0  0  0
   -0.9102    2.1465   -0.8036 C   0  0  0  0  0  0  0  0  0  0  0  0
   -0.2538    3.1458   -0.5530 O   0  0  0  0  0  0  0  0  0  0  0  0
   -1.3017    1.9000   -2.1096 N   0  0  0  0  0  0  0  0  0  0  0  0
   -1.7107    0.9950   -2.3235 H   0  0  0  0  0  0  0  0  0  0  0  0
   -0.9749    2.7942   -3.2164 C   0  0  0  0  0  0  0  0  0  0  0  0
    0.1091    2.8425   -3.3647 H   0  0  0  0  0  0  0  0  0  0  0  0
   -1.4358    2.4368   -4.1426 H   0  0  0  0  0  0  0  0  0  0  0  0
   -1.3471    3.8051   -3.0170 H   0  0  0  0  0  0  0  0  0  0  0  0
  1  2  1  0  0  0  0
  2  3  1  0  0  0  0
  2  4  1  0  0  0  0
  2  5  1  0  0  0  0
  5  6  2  0  0  0  0
  5  7  1  0  0  0  0
  7  8  1  0  0  0  0
  7  9  1  0  0  0  0
  9 10  1  0  0  0  0
  9 11  1  0  0  0  0
  9 27  1  0  0  0  0
 11 12  1  0  0  0  0
 11 13  1  0  0  0  0
 11 14  1  0  0  0  0
 14 15  1  0  0  0  0
 14 16  1  0  0  0  0
 14 17  1  0  0  0  0
 17 18  1  0  0  0  0
 17 19  1  0  0  0  0
 17 20  1  0  0  0  0
 20 21  1  0  0  0  0
 20 22  1  0  0  0  0
 20 23  1  0  0  0  0
 23 24  1  0  0  0  0
 23 25  1  0  0  0  0
 23 26  1  0  0  0  0
 27 28  2  0  0  0  0
 27 29  1  0  0  0  0
 29 30  1  0  0  0  0
 29 31  1  0  0  0  0
 31 32  1  0  0  0  0
 31 33  1  0  0  0  0
 31 34  1  0  0  0  0
M  CHG  1  23   1
M  END
$$$$

  -OEChem-01062216093D

 34 33  0     1  0  0  0  0  0999 V2000
   -4.1873   -1.0508    2.1008 H   0  0  0  0  0  0  0  0  0  0  0  0
   -3.1155   -1.1731    1.9237 C   0  0  0  0  0  0  0  0  0  0  0  0
   -2.5763   -0.4970    2.5909 H   0  0  0  0  0  0  0  0  0  0  0  0
   -2.8357   -2.2047    2.1504 H   0  0  0  0  0  0  0  0  0  0  0  0
   -2.8043   -0.8546    0.4707 C   0  0  0  0  0  0  0  0  0  0  0  0
   -3.1846   -1.5939   -0.4146 O   0  0  0  0  0  0  0  0  0  0  0  0
   -2.4860    0.4135    0.0645 N   0  0  0  0  0  0  0  0  0  0  0  0
   -2.8594    0.5622   -0.8684 H   0  0  0  0  0  0  0  0  0  0  0  0
   -1.2322    1.1520    0.3486 C   0  0  1  0  0  0  0  0  0  0  0  0
   -1.3620    1.7306    1.2695 H   0  0  0  0  0  0  0  0  0  0  0  0
    0.0640    0.2874    0.4535 C   0  0  0  0  0  0  0  0  0  0  0  0
    0.1544   -0.2907   -0.4731 H   0  0  0  0  0  0  0  0  0  0  0  0
    0.9244    0.9656    0.4956 H   0  0  0  0  0  0  0  0  0  0  0  0
    0.2085   -0.6771    1.6429 C   0  0  0  0  0  0  0  0  0  0  0  0
   -0.5673   -1.4404    1.6209 H   0  0  0  0  0  0  0  0  0  0  0  0
    0.1249   -0.1195    2.5828 H   0  0  0  0  0  0  0  0  0  0  0  0
    1.5618   -1.3971    1.5585 C   0  0  0  0  0  0  0  0  0  0  0  0
    1.6264   -1.9339    0.6053 H   0  0  0  0  0  0  0  0  0  0  0  0
    2.3689   -0.6562    1.5858 H   0  0  0  0  0  0  0  0  0  0  0  0
    1.7230   -2.3808    2.7153 C   0  0  0  0  0  0  0  0  0  0  0  0
    1.6589   -1.8344    3.6679 H   0  0  0  0  0  0  0  0  0  0  0  0
    0.8928   -3.1019    2.6980 H   0  0  0  0  0  0  0  0  0  0  0  0
    3.0265   -3.0674    2.5811 N   0  3  0  0  0  0  0  0  0  0  0  0
    3.7851   -2.3822    2.5894 H   0  0  0  0  0  0  0  0  0  0  0  0
    3.1627   -3.7211    3.3555 H   0  0  0  0  0  0  0  0  0  0  0  0
    3.0597   -3.5860    1.7007 H   0  0  0  0  0  0  0  0  0  0  0  0
   -0.9095    2.1493   -0.7960 C   0  0  0  0  0  0  0  0  0  0  0  0
   -0.0895    3.0326   -0.5904 O   0  0  0  0  0  0  0  0  0  0  0  0
   -1.5249    2.0885   -2.0367 N   0  0  0  0  0  0  0  0  0  0  0  0
   -2.0983    1.2797   -2.2512 H   0  0  0  0  0  0  0  0  0  0  0  0
   -1.2238    3.0251   -3.1157 C   0  0  0  0  0  0  0  0  0  0  0  0
   -0.1761    2.9367   -3.4223 H   0  0  0  0  0  0  0  0  0  0  0  0
   -1.8571    2.8200   -3.9844 H   0  0  0  0  0  0  0  0  0  0  0  0
   -1.4086    4.0556   -2.7927 H   0  0  0  0  0  0  0  0  0  0  0  0
  1  2  1  0  0  0  0
  2  3  1  0  0  0  0
  2  4  1  0  0  0  0
  2  5  1  0  0  0  0
  5  6  2  0  0  0  0
  5  7  1  0  0  0  0
  7  8  1  0  0  0  0
  7  9  1  0  0  0  0
  9 10  1  0  0  0  0
  9 11  1  0  0  0  0
  9 27  1  0  0  0  0
 11 12  1  0  0  0  0
 11 13  1  0  0  0  0
 11 14  1  0  0  0  0
 14 15  1  0  0  0  0
 14 16  1  0  0  0  0
 14 17  1  0  0  0  0
 17 18  1  0  0  0  0
 17 19  1  0  0  0  0
 17 20  1  0  0  0  0
 20 21  1  0  0  0  0
 20 22  1  0  0  0  0
 20 23  1  0  0  0  0
 23 24  1  0  0  0  0
 23 25  1  0  0  0  0
 23 26  1  0  0  0  0
 27 28  2  0  0  0  0
 27 29  1  0  0  0  0
 29 30  1  0  0  0  0
 29 31  1  0  0  0  0
 31 32  1  0  0  0  0
 31 33  1  0  0  0  0
 31 34  1  0  0  0  0
M  CHG  1  23   1
M  END
$$$$

  -OEChem-01062216093D

 34 33  0     1  0  0  0  0  0999 V2000
   -4.2269   -0.9967    1.9904 H   0  0  0  0  0  0  0  0  0  0  0  0
   -3.1518   -1.1667    1.8893 C   0  0  0  0  0  0  0  0  0  0  0  0
   -2.6293   -0.5154    2.5932 H   0  0  0  0  0  0  0  0  0  0  0  0
   -2.9340   -2.2092    2.1351 H   0  0  0  0  0  0  0  0  0  0  0  0
   -2.7228   -0.8641    0.4633 C   0  0  0  0  0  0  0  0  0  0  0  0
   -2.8822   -1.6772   -0.4247 O   0  0  0  0  0  0  0  0  0  0  0  0
   -2.4591    0.4142    0.0522 N   0  0  0  0  0  0  0  0  0  0  0  0
   -2.6738    0.4276   -0.9421 H   0  0  0  0  0  0  0  0  0  0  0  0
   -1.2092    1.1581    0.3484 C   0  0  1  0  0  0  0  0  0  0  0  0
   -1.3460    1.7286    1.2728 H   0  0  0  0  0  0  0  0  0  0  0  0
    0.0837    0.2821    0.4672 C   0  0  0  0  0  0  0  0  0  0  0  0
    0.1800   -0.2922   -0.4614 H   0  0  0  0  0  0  0  0  0  0  0  0
    0.9510    0.9492    0.5238 H   0  0  0  0  0  0  0  0  0  0  0  0
    0.2178   -0.6861    1.6574 C   0  0  0  0  0  0  0  0  0  0  0  0
   -0.5594   -1.4478    1.6392 H   0  0  0  0  0  0  0  0  0  0  0  0
    0.1351   -0.1279    2.5966 H   0  0  0  0  0  0  0  0  0  0  0  0
    1.5697   -1.4090    1.5747 C   0  0  0  0  0  0  0  0  0  0  0  0
    1.6360   -1.9420    0.6195 H   0  0  0  0  0  0  0  0  0  0  0  0
    2.3785   -0.6703    1.6068 H   0  0  0  0  0  0  0  0  0  0  0  0
    1.7260   -2.3971    2.7282 C   0  0  0  0  0  0  0  0  0  0  0  0
    1.6599   -1.8546    3.6827 H   0  0  0  0  0  0  0  0  0  0  0  0
    0.8944   -3.1170    2.7047 H   0  0  0  0  0  0  0  0  0  0  0  0
    3.0286   -3.0853    2.5940 N   0  3  0  0  0  0  0  0  0  0  0  0
    3.7885   -2.4019    2.6116 H   0  0  0  0  0  0  0  0  0  0  0  0
    3.1596   -3.7467    3.3626 H   0  0  0  0  0  0  0  0  0  0  0  0
    3.0642   -3.5954    1.7088 H   0  0  0  0  0  0  0  0  0  0  0  0
   -0.9074    2.1746   -0.7919 C   0  0  0  0  0  0  0  0  0  0  0  0
    0.1055    2.8591   -0.7438 O   0  0  0  0  0  0  0  0  0  0  0  0
   -1.7357    2.3101   -1.8955 N   0  0  0  0  0  0  0  0  0  0  0  0
   -2.6701    1.9199   -1.8296 H   0  0  0  0  0  0  0  0  0  0  0  0
   -1.4778    3.2774   -2.9594 C   0  0  0  0  0  0  0  0  0  0  0  0
   -0.4943    3.1020   -3.4090 H   0  0  0  0  0  0  0  0  0  0  0  0
   -2.2336    3.1871   -3.7460 H   0  0  0  0  0  0  0  0  0  0  0  0
   -1.5063    4.2994   -2.5661 H   0  0  0  0  0  0  0  0  0  0  0  0
  1  2  1  0  0  0  0
  2  3  1  0  0  0  0
  2  4  1  0  0  0  0
  2  5  1  0  0  0  0
  5  6  2  0  0  0  0
  5  7  1  0  0  0  0
  7  8  1  0  0  0  0
  7  9  1  0  0  0  0
  9 10  1  0  0  0  0
  9 11  1  0  0  0  0
  9 27  1  0  0  0  0
 11 12  1  0  0  0  0
 11 13  1  0  0  0  0
 11 14  1  0  0  0  0
 14 15  1  0  0  0  0
 14 16  1  0  0  0  0
 14 17  1  0  0  0  0
 17 18  1  0  0  0  0
 17 19  1  0  0  0  0
 17 20  1  0  0  0  0
 20 21  1  0  0  0  0
 20 22  1  0  0  0  0
 20 23  1  0  0  0  0
 23 24  1  0  0  0  0
 23 25  1  0  0  0  0
 23 26  1  0  0  0  0
 27 28  2  0  0  0  0
 27 29  1  0  0  0  0
 29 30  1  0  0  0  0
 29 31  1  0  0  0  0
 31 32  1  0  0  0  0
 31 33  1  0  0  0  0
 31 34  1  0  0  0  0
M  CHG  1  23   1
M  END
$$$$

  -OEChem-01062216093D

 34 33  0     1  0  0  0  0  0999 V2000
   -4.2260   -1.0263    1.9001 H   0  0  0  0  0  0  0  0  0  0  0  0
   -3.1472   -1.1841    1.8202 C   0  0  0  0  0  0  0  0  0  0  0  0
   -2.6470   -0.5376    2.5447 H   0  0  0  0  0  0  0  0  0  0  0  0
   -2.9239   -2.2279    2.0554 H   0  0  0  0  0  0  0  0  0  0  0  0
   -2.6916   -0.8567    0.4083 C   0  0  0  0  0  0  0  0  0  0  0  0
   -2.8562   -1.6478   -0.4980 O   0  0  0  0  0  0  0  0  0  0  0  0
   -2.4209    0.4302    0.0292 N   0  0  0  0  0  0  0  0  0  0  0  0
   -2.6213    0.4702   -0.9698 H   0  0  0  0  0  0  0  0  0  0  0  0
   -1.1747    1.1675    0.3548 C   0  0  1  0  0  0  0  0  0  0  0  0
   -1.3242    1.7281    1.2832 H   0  0  0  0  0  0  0  0  0  0  0  0
    0.1160    0.2904    0.4869 C   0  0  0  0  0  0  0  0  0  0  0  0
    0.2313   -0.2713   -0.4473 H   0  0  0  0  0  0  0  0  0  0  0  0
    0.9804    0.9579    0.5716 H   0  0  0  0  0  0  0  0  0  0  0  0
    0.2296   -0.6905    1.6687 C   0  0  0  0  0  0  0  0  0  0  0  0
   -0.5479   -1.4518    1.6289 H   0  0  0  0  0  0  0  0  0  0  0  0
    0.1320   -0.1436    2.6130 H   0  0  0  0  0  0  0  0  0  0  0  0
    1.5841   -1.4106    1.5987 C   0  0  0  0  0  0  0  0  0  0  0  0
    1.6647   -1.9320    0.6382 H   0  0  0  0  0  0  0  0  0  0  0  0
    2.3914   -0.6712    1.6503 H   0  0  0  0  0  0  0  0  0  0  0  0
    1.7282   -2.4131    2.7413 C   0  0  0  0  0  0  0  0  0  0  0  0
    1.6481   -1.8842    3.7026 H   0  0  0  0  0  0  0  0  0  0  0  0
    0.9003   -3.1363    2.6975 H   0  0  0  0  0  0  0  0  0  0  0  0
    3.0360   -3.0922    2.6111 N   0  3  0  0  0  0  0  0  0  0  0  0
    3.7920   -2.4057    2.6551 H   0  0  0  0  0  0  0  0  0  0  0  0
    3.1593   -3.7704    3.3662 H   0  0  0  0  0  0  0  0  0  0  0  0
    3.0871   -3.5815    1.7150 H   0  0  0  0  0  0  0  0  0  0  0  0
   -0.8904    2.1986   -0.7789 C   0  0  0  0  0  0  0  0  0  0  0  0
    0.2080    2.7256   -0.8926 O   0  0  0  0  0  0  0  0  0  0  0  0
   -1.8747    2.5365   -1.6941 N   0  0  0  0  0  0  0  0  0  0  0  0
   -2.8272    2.2645   -1.4680 H   0  0  0  0  0  0  0  0  0  0  0  0
   -1.6784    3.5435   -2.7335 C   0  0  0  0  0  0  0  0  0  0  0  0
   -0.8514    3.2590   -3.3931 H   0  0  0  0  0  0  0  0  0  0  0  0
   -2.5829    3.6424   -3.3420 H   0  0  0  0  0  0  0  0  0  0  0  0
   -1.4525    4.5184   -2.2882 H   0  0  0  0  0  0  0  0  0  0  0  0
  1  2  1  0  0  0  0
  2  3  1  0  0  0  0
  2  4  1  0  0  0  0
  2  5  1  0  0  0  0
  5  6  2  0  0  0  0
  5  7  1  0  0  0  0
  7  8  1  0  0  0  0
  7  9  1  0  0  0  0
  9 10  1  0  0  0  0
  9 11  1  0  0  0  0
  9 27  1  0  0  0  0
 11 12  1  0  0  0  0
 11 13  1  0  0  0  0
 11 14  1  0  0  0  0
 14 15  1  0  0  0  0
 14 16  1  0  0  0  0
 14 17  1  0  0  0  0
 17 18  1  0  0  0  0
 17 19  1  0  0  0  0
 17 20  1  0  0  0  0
 20 21  1  0  0  0  0
 20 22  1  0  0  0  0
 20 23  1  0  0  0  0
 23 24  1  0  0  0  0
 23 25  1  0  0  0  0
 23 26  1  0  0  0  0
 27 28  2  0  0  0  0
 27 29  1  0  0  0  0
 29 30  1  0  0  0  0
 29 31  1  0  0  0  0
 31 32  1  0  0  0  0
 31 33  1  0  0  0  0
 31 34  1  0  0  0  0
M  CHG  1  23   1
M  END
$$$$

  -OEChem-01062216093D

 34 33  0     1  0  0  0  0  0999 V2000
   -4.2077   -1.0131    1.8758 H   0  0  0  0  0  0  0  0  0  0  0  0
   -3.1302   -1.1735    1.7844 C   0  0  0  0  0  0  0  0  0  0  0  0
   -2.6216   -0.5396    2.5140 H   0  0  0  0  0  0  0  0  0  0  0  0
   -2.9092   -2.2214    2.0017 H   0  0  0  0  0  0  0  0  0  0  0  0
   -2.6853   -0.8273    0.3735 C   0  0  0  0  0  0  0  0  0  0  0  0
   -2.8983   -1.5913   -0.5456 O   0  0  0  0  0  0  0  0  0  0  0  0
   -2.3933    0.4618    0.0164 N   0  0  0  0  0  0  0  0  0  0  0  0
   -2.6052    0.5377   -0.9793 H   0  0  0  0  0  0  0  0  0  0  0  0
   -1.1448    1.1845    0.3622 C   0  0  1  0  0  0  0  0  0  0  0  0
   -1.2993    1.7412    1.2920 H   0  0  0  0  0  0  0  0  0  0  0  0
    0.1400    0.3013    0.5035 C   0  0  0  0  0  0  0  0  0  0  0  0
    0.2671   -0.2527   -0.4338 H   0  0  0  0  0  0  0  0  0  0  0  0
    1.0028    0.9689    0.6070 H   0  0  0  0  0  0  0  0  0  0  0  0
    0.2374   -0.6893    1.6775 C   0  0  0  0  0  0  0  0  0  0  0  0
   -0.5413   -1.4480    1.6191 H   0  0  0  0  0  0  0  0  0  0  0  0
    0.1294   -0.1513    2.6258 H   0  0  0  0  0  0  0  0  0  0  0  0
    1.5913   -1.4114    1.6138 C   0  0  0  0  0  0  0  0  0  0  0  0
    1.6806   -1.9238    0.6488 H   0  0  0  0  0  0  0  0  0  0  0  0
    2.3994   -0.6739    1.6803 H   0  0  0  0  0  0  0  0  0  0  0  0
    1.7229   -2.4247    2.7481 C   0  0  0  0  0  0  0  0  0  0  0  0
    1.6348   -1.9040    3.7130 H   0  0  0  0  0  0  0  0  0  0  0  0
    0.8938   -3.1451    2.6895 H   0  0  0  0  0  0  0  0  0  0  0  0
    3.0301   -3.1066    2.6262 N   0  3  0  0  0  0  0  0  0  0  0  0
    3.7876   -2.4228    2.6842 H   0  0  0  0  0  0  0  0  0  0  0  0
    3.1430   -3.7911    3.3772 H   0  0  0  0  0  0  0  0  0  0  0  0
    3.0896   -3.5887    1.7266 H   0  0  0  0  0  0  0  0  0  0  0  0
   -0.8654    2.2180   -0.7707 C   0  0  0  0  0  0  0  0  0  0  0  0
    0.2699    2.5577   -1.0761 O   0  0  0  0  0  0  0  0  0  0  0  0
   -1.9226    2.7754   -1.4700 N   0  0  0  0  0  0  0  0  0  0  0  0
   -2.8599    2.5926   -1.1204 H   0  0  0  0  0  0  0  0  0  0  0  0
   -1.7513    3.7837   -2.5122 C   0  0  0  0  0  0  0  0  0  0  0  0
   -1.1482    3.3866   -3.3359 H   0  0  0  0  0  0  0  0  0  0  0  0
   -2.7243    4.0842   -2.9132 H   0  0  0  0  0  0  0  0  0  0  0  0
   -1.2538    4.6728   -2.1100 H   0  0  0  0  0  0  0  0  0  0  0  0
  1  2  1  0  0  0  0
  2  3  1  0  0  0  0
  2  4  1  0  0  0  0
  2  5  1  0  0  0  0
  5  6  2  0  0  0  0
  5  7  1  0  0  0  0
  7  8  1  0  0  0  0
  7  9  1  0  0  0  0
  9 10  1  0  0  0  0
  9 11  1  0  0  0  0
  9 27  1  0  0  0  0
 11 12  1  0  0  0  0
 11 13  1  0  0  0  0
 11 14  1  0  0  0  0
 14 15  1  0  0  0  0
 14 16  1  0  0  0  0
 14 17  1  0  0  0  0
 17 18  1  0  0  0  0
 17 19  1  0  0  0  0
 17 20  1  0  0  0  0
 20 21  1  0  0  0  0
 20 22  1  0  0  0  0
 20 23  1  0  0  0  0
 23 24  1  0  0  0  0
 23 25  1  0  0  0  0
 23 26  1  0  0  0  0
 27 28  2  0  0  0  0
 27 29  1  0  0  0  0
 29 30  1  0  0  0  0
 29 31  1  0  0  0  0
 31 32  1  0  0  0  0
 31 33  1  0  0  0  0
 31 34  1  0  0  0  0
M  CHG  1  23   1
M  END
$$$$

  -OEChem-01062216093D

 34 33  0     1  0  0  0  0  0999 V2000
   -4.1923   -1.0187    1.8484 H   0  0  0  0  0  0  0  0  0  0  0  0
   -3.1134   -1.1665    1.7518 C   0  0  0  0  0  0  0  0  0  0  0  0
   -2.6096   -0.5348    2.4865 H   0  0  0  0  0  0  0  0  0  0  0  0
   -2.8809   -2.2144    1.9573 H   0  0  0  0  0  0  0  0  0  0  0  0
   -2.6774   -0.8020    0.3423 C   0  0  0  0  0  0  0  0  0  0  0  0
   -2.9276   -1.5426   -0.5865 O   0  0  0  0  0  0  0  0  0  0  0  0
   -2.3704    0.4892    0.0045 N   0  0  0  0  0  0  0  0  0  0  0  0
   -2.5888    0.5943   -0.9874 H   0  0  0  0  0  0  0  0  0  0  0  0
   -1.1244    1.2017    0.3737 C   0  0  1  0  0  0  0  0  0  0  0  0
   -1.2861    1.7507    1.3066 H   0  0  0  0  0  0  0  0  0  0  0  0
    0.1583    0.3170    0.5201 C   0  0  0  0  0  0  0  0  0  0  0  0
    0.2947   -0.2284   -0.4212 H   0  0  0  0  0  0  0  0  0  0  0  0
    1.0167    0.9884    0.6370 H   0  0  0  0  0  0  0  0  0  0  0  0
    0.2443   -0.6883    1.6816 C   0  0  0  0  0  0  0  0  0  0  0  0
   -0.5330   -1.4468    1.6021 H   0  0  0  0  0  0  0  0  0  0  0  0
    0.1242   -0.1636    2.6359 H   0  0  0  0  0  0  0  0  0  0  0  0
    1.5994   -1.4086    1.6244 C   0  0  0  0  0  0  0  0  0  0  0  0
    1.7012   -1.9077    0.6539 H   0  0  0  0  0  0  0  0  0  0  0  0
    2.4059   -0.6716    1.7109 H   0  0  0  0  0  0  0  0  0  0  0  0
    1.7176   -2.4360    2.7474 C   0  0  0  0  0  0  0  0  0  0  0  0
    1.6165   -1.9279    3.7177 H   0  0  0  0  0  0  0  0  0  0  0  0
    0.8897   -3.1560    2.6685 H   0  0  0  0  0  0  0  0  0  0  0  0
    3.0263   -3.1167    2.6338 N   0  3  0  0  0  0  0  0  0  0  0  0
    3.7833   -2.4336    2.7064 H   0  0  0  0  0  0  0  0  0  0  0  0
    3.1310   -3.8083    3.3795 H   0  0  0  0  0  0  0  0  0  0  0  0
    3.0957   -3.5906    1.7306 H   0  0  0  0  0  0  0  0  0  0  0  0
   -0.8405    2.2390   -0.7530 C   0  0  0  0  0  0  0  0  0  0  0  0
    0.2704    2.3941   -1.2432 O   0  0  0  0  0  0  0  0  0  0  0  0
   -1.8803    3.0169   -1.2309 N   0  0  0  0  0  0  0  0  0  0  0  0
   -2.7911    2.9073   -0.7918 H   0  0  0  0  0  0  0  0  0  0  0  0
   -1.7220    4.0159   -2.2841 C   0  0  0  0  0  0  0  0  0  0  0  0
   -1.3936    3.5429   -3.2158 H   0  0  0  0  0  0  0  0  0  0  0  0
   -2.6731    4.5238   -2.4727 H   0  0  0  0  0  0  0  0  0  0  0  0
   -0.9816    4.7687   -1.9925 H   0  0  0  0  0  0  0  0  0  0  0  0
  1  2  1  0  0  0  0
  2  3  1  0  0  0  0
  2  4  1  0  0  0  0
  2  5  1  0  0  0  0
  5  6  2  0  0  0  0
  5  7  1  0  0  0  0
  7  8  1  0  0  0  0
  7  9  1  0  0  0  0
  9 10  1  0  0  0  0
  9 11  1  0  0  0  0
  9 27  1  0  0  0  0
 11 12  1  0  0  0  0
 11 13  1  0  0  0  0
 11 14  1  0  0  0  0
 14 15  1  0  0  0  0
 14 16  1  0  0  0  0
 14 17  1  0  0  0  0
 17 18  1  0  0  0  0
 17 19  1  0  0  0  0
 17 20  1  0  0  0  0
 20 21  1  0  0  0  0
 20 22  1  0  0  0  0
 20 23  1  0  0  0  0
 23 24  1  0  0  0  0
 23 25  1  0  0  0  0
 23 26  1  0  0  0  0
 27 28  2  0  0  0  0
 27 29  1  0  0  0  0
 29 30  1  0  0  0  0
 29 31  1  0  0  0  0
 31 32  1  0  0  0  0
 31 33  1  0  0  0  0
 31 34  1  0  0  0  0
M  CHG  1  23   1
M  END
$$$$

  -OEChem-01062216093D

 34 33  0     1  0  0  0  0  0999 V2000
   -4.1948   -1.0125    1.8060 H   0  0  0  0  0  0  0  0  0  0  0  0
   -3.1139   -1.1528    1.7212 C   0  0  0  0  0  0  0  0  0  0  0  0
   -2.6222   -0.5210    2.4638 H   0  0  0  0  0  0  0  0  0  0  0  0
   -2.8771   -2.1999    1.9254 H   0  0  0  0  0  0  0  0  0  0  0  0
   -2.6661   -0.7795    0.3179 C   0  0  0  0  0  0  0  0  0  0  0  0
   -2.9135   -1.5141   -0.6164 O   0  0  0  0  0  0  0  0  0  0  0  0
   -2.3486    0.5126   -0.0079 N   0  0  0  0  0  0  0  0  0  0  0  0
   -2.5635    0.6319   -0.9992 H   0  0  0  0  0  0  0  0  0  0  0  0
   -1.1029    1.2151    0.3768 C   0  0  1  0  0  0  0  0  0  0  0  0
   -1.2673    1.7578    1.3128 H   0  0  0  0  0  0  0  0  0  0  0  0
    0.1748    0.3256    0.5271 C   0  0  0  0  0  0  0  0  0  0  0  0
    0.3130   -0.2201   -0.4141 H   0  0  0  0  0  0  0  0  0  0  0  0
    1.0342    0.9965    0.6435 H   0  0  0  0  0  0  0  0  0  0  0  0
    0.2472   -0.6878    1.6826 C   0  0  0  0  0  0  0  0  0  0  0  0
   -0.5326   -1.4421    1.5914 H   0  0  0  0  0  0  0  0  0  0  0  0
    0.1217   -0.1695    2.6395 H   0  0  0  0  0  0  0  0  0  0  0  0
    1.5999   -1.4131    1.6314 C   0  0  0  0  0  0  0  0  0  0  0  0
    1.7072   -1.9064    0.6584 H   0  0  0  0  0  0  0  0  0  0  0  0
    2.4083   -0.6795    1.7284 H   0  0  0  0  0  0  0  0  0  0  0  0
    1.7069   -2.4493    2.7477 C   0  0  0  0  0  0  0  0  0  0  0  0
    1.6009   -1.9484    3.7213 H   0  0  0  0  0  0  0  0  0  0  0  0
    0.8773   -3.1662    2.6581 H   0  0  0  0  0  0  0  0  0  0  0  0
    3.0145   -3.1325    2.6368 N   0  3  0  0  0  0  0  0  0  0  0  0
    3.7729   -2.4525    2.7199 H   0  0  0  0  0  0  0  0  0  0  0  0
    3.1125   -3.8312    3.3768 H   0  0  0  0  0  0  0  0  0  0  0  0
    3.0879   -3.5987    1.7298 H   0  0  0  0  0  0  0  0  0  0  0  0
   -0.8068    2.2561   -0.7405 C   0  0  0  0  0  0  0  0  0  0  0  0
    0.2190    2.2340   -1.4084 O   0  0  0  0  0  0  0  0  0  0  0  0
   -1.7400    3.2427   -1.0005 N   0  0  0  0  0  0  0  0  0  0  0  0
   -2.6064    3.2240   -0.4684 H   0  0  0  0  0  0  0  0  0  0  0  0
   -1.5860    4.2370   -2.0589 C   0  0  0  0  0  0  0  0  0  0  0  0
   -1.5547    3.7515   -3.0403 H   0  0  0  0  0  0  0  0  0  0  0  0
   -2.4265    4.9380   -2.0470 H   0  0  0  0  0  0  0  0  0  0  0  0
   -0.6614    4.8076   -1.9201 H   0  0  0  0  0  0  0  0  0  0  0  0
  1  2  1  0  0  0  0
  2  3  1  0  0  0  0
  2  4  1  0  0  0  0
  2  5  1  0  0  0  0
  5  6  2  0  0  0  0
  5  7  1  0  0  0  0
  7  8  1  0  0  0  0
  7  9  1  0  0  0  0
  9 10  1  0  0  0  0
  9 11  1  0  0  0  0
  9 27  1  0  0  0  0
 11 12  1  0  0  0  0
 11 13  1  0  0  0  0
 11 14  1  0  0  0  0
 14 15  1  0  0  0  0
 14 16  1  0  0  0  0
 14 17  1  0  0  0  0
 17 18  1  0  0  0  0
 17 19  1  0  0  0  0
 17 20  1  0  0  0  0
 20 21  1  0  0  0  0
 20 22  1  0  0  0  0
 20 23  1  0  0  0  0
 23 24  1  0  0  0  0
 23 25  1  0  0  0  0
 23 26  1  0  0  0  0
 27 28  2  0  0  0  0
 27 29  1  0  0  0  0
 29 30  1  0  0  0  0
 29 31  1  0  0  0  0
 31 32  1  0  0  0  0
 31 33  1  0  0  0  0
 31 34  1  0  0  0  0
M  CHG  1  23   1
M  END
$$$$

  -OEChem-01062216093D

 34 33  0     1  0  0  0  0  0999 V2000
   -4.1958   -0.9859    1.7992 H   0  0  0  0  0  0  0  0  0  0  0  0
   -3.1154   -1.1312    1.7147 C   0  0  0  0  0  0  0  0  0  0  0  0
   -2.6216   -0.4926    2.4500 H   0  0  0  0  0  0  0  0  0  0  0  0
   -2.8816   -2.1769    1.9298 H   0  0  0  0  0  0  0  0  0  0  0  0
   -2.6666   -0.7732    0.3076 C   0  0  0  0  0  0  0  0  0  0  0  0
   -2.9208   -1.5148   -0.6193 O   0  0  0  0  0  0  0  0  0  0  0  0
   -2.3424    0.5158   -0.0240 N   0  0  0  0  0  0  0  0  0  0  0  0
   -2.5483    0.6308   -1.0178 H   0  0  0  0  0  0  0  0  0  0  0  0
   -1.0984    1.2150    0.3671 C   0  0  1  0  0  0  0  0  0  0  0  0
   -1.2667    1.7575    1.3025 H   0  0  0  0  0  0  0  0  0  0  0  0
    0.1790    0.3270    0.5238 C   0  0  0  0  0  0  0  0  0  0  0  0
    0.3176   -0.2258   -0.4132 H   0  0  0  0  0  0  0  0  0  0  0  0
    1.0370    1.0008    0.6338 H   0  0  0  0  0  0  0  0  0  0  0  0
    0.2476   -0.6867    1.6789 C   0  0  0  0  0  0  0  0  0  0  0  0
   -0.5315   -1.4416    1.5826 H   0  0  0  0  0  0  0  0  0  0  0  0
    0.1168   -0.1697    2.6357 H   0  0  0  0  0  0  0  0  0  0  0  0
    1.6017   -1.4100    1.6333 C   0  0  0  0  0  0  0  0  0  0  0  0
    1.7144   -1.9027    0.6607 H   0  0  0  0  0  0  0  0  0  0  0  0
    2.4085   -0.6753    1.7349 H   0  0  0  0  0  0  0  0  0  0  0  0
    1.7051   -2.4465    2.7494 C   0  0  0  0  0  0  0  0  0  0  0  0
    1.5933   -1.9470    3.7229 H   0  0  0  0  0  0  0  0  0  0  0  0
    0.8771   -3.1646    2.6553 H   0  0  0  0  0  0  0  0  0  0  0  0
    3.0143   -3.1276    2.6440 N   0  3  0  0  0  0  0  0  0  0  0  0
    3.7714   -2.4471    2.7343 H   0  0  0  0  0  0  0  0  0  0  0  0
    3.1084   -3.8288    3.3819 H   0  0  0  0  0  0  0  0  0  0  0  0
    3.0942   -3.5905    1.7360 H   0  0  0  0  0  0  0  0  0  0  0  0
   -0.7838    2.2490   -0.7492 C   0  0  0  0  0  0  0  0  0  0  0  0
    0.1012    2.0692   -1.5756 O   0  0  0  0  0  0  0  0  0  0  0  0
   -1.5329    3.4086   -0.8222 N   0  0  0  0  0  0  0  0  0  0  0  0
   -2.3205    3.5015   -0.1861 H   0  0  0  0  0  0  0  0  0  0  0  0
   -1.3568    4.4109   -1.8690 C   0  0  0  0  0  0  0  0  0  0  0  0
   -1.6024    3.9890   -2.8494 H   0  0  0  0  0  0  0  0  0  0  0  0
   -2.0111    5.2692   -1.6872 H   0  0  0  0  0  0  0  0  0  0  0  0
   -0.3215    4.7682   -1.8903 H   0  0  0  0  0  0  0  0  0  0  0  0
  1  2  1  0  0  0  0
  2  3  1  0  0  0  0
  2  4  1  0  0  0  0
  2  5  1  0  0  0  0
  5  6  2  0  0  0  0
  5  7  1  0  0  0  0
  7  8  1  0  0  0  0
  7  9  1  0  0  0  0
  9 10  1  0  0  0  0
  9 11  1  0  0  0  0
  9 27  1  0  0  0  0
 11 12  1  0  0  0  0
 11 13  1  0  0  0  0
 11 14  1  0  0  0  0
 14 15  1  0  0  0  0
 14 16  1  0  0  0  0
 14 17  1  0  0  0  0
 17 18  1  0  0  0  0
 17 19  1  0  0  0  0
 17 20  1  0  0  0  0
 20 21  1  0  0  0  0
 20 22  1  0  0  0  0
 20 23  1  0  0  0  0
 23 24  1  0  0  0  0
 23 25  1  0  0  0  0
 23 26  1  0  0  0  0
 27 28  2  0  0  0  0
 27 29  1  0  0  0  0
 29 30  1  0  0  0  0
 29 31  1  0  0  0  0
 31 32  1  0  0  0  0
 31 33  1  0  0  0  0
 31 34  1  0  0  0  0
M  CHG  1  23   1
M  END
$$$$

  -OEChem-01062216093D

 34 33  0     1  0  0  0  0  0999 V2000
   -4.1896   -0.9632    1.7943 H   0  0  0  0  0  0  0  0  0  0  0  0
   -3.1106   -1.1165    1.7092 C   0  0  0  0  0  0  0  0  0  0  0  0
   -2.6107   -0.4819    2.4438 H   0  0  0  0  0  0  0  0  0  0  0  0
   -2.8842   -2.1637    1.9240 H   0  0  0  0  0  0  0  0  0  0  0  0
   -2.6618   -0.7638    0.3009 C   0  0  0  0  0  0  0  0  0  0  0  0
   -2.9065   -1.5145   -0.6213 O   0  0  0  0  0  0  0  0  0  0  0  0
   -2.3320    0.5223   -0.0359 N   0  0  0  0  0  0  0  0  0  0  0  0
   -2.5200    0.6296   -1.0347 H   0  0  0  0  0  0  0  0  0  0  0  0
   -1.0930    1.2224    0.3656 C   0  0  1  0  0  0  0  0  0  0  0  0
   -1.2677    1.7638    1.3004 H   0  0  0  0  0  0  0  0  0  0  0  0
    0.1846    0.3361    0.5238 C   0  0  0  0  0  0  0  0  0  0  0  0
    0.3269   -0.2167   -0.4126 H   0  0  0  0  0  0  0  0  0  0  0  0
    1.0414    1.0109    0.6355 H   0  0  0  0  0  0  0  0  0  0  0  0
    0.2476   -0.6835    1.6742 C   0  0  0  0  0  0  0  0  0  0  0  0
   -0.5306   -1.4385    1.5699 H   0  0  0  0  0  0  0  0  0  0  0  0
    0.1103   -0.1704    2.6324 H   0  0  0  0  0  0  0  0  0  0  0  0
    1.6021   -1.4066    1.6339 C   0  0  0  0  0  0  0  0  0  0  0  0
    1.7203   -1.8948    0.6597 H   0  0  0  0  0  0  0  0  0  0  0  0
    2.4083   -0.6727    1.7437 H   0  0  0  0  0  0  0  0  0  0  0  0
    1.6983   -2.4485    2.7458 C   0  0  0  0  0  0  0  0  0  0  0  0
    1.5813   -1.9532    3.7210 H   0  0  0  0  0  0  0  0  0  0  0  0
    0.8706   -3.1659    2.6430 H   0  0  0  0  0  0  0  0  0  0  0  0
    3.0077   -3.1299    2.6463 N   0  3  0  0  0  0  0  0  0  0  0  0
    3.7647   -2.4497    2.7379 H   0  0  0  0  0  0  0  0  0  0  0  0
    3.0992   -3.8301    3.3857 H   0  0  0  0  0  0  0  0  0  0  0  0
    3.0901   -3.5945    1.7391 H   0  0  0  0  0  0  0  0  0  0  0  0
   -0.7590    2.2482   -0.7500 C   0  0  0  0  0  0  0  0  0  0  0  0
   -0.0719    1.9413   -1.7147 O   0  0  0  0  0  0  0  0  0  0  0  0
   -1.2656    3.5325   -0.6745 N   0  0  0  0  0  0  0  0  0  0  0  0
   -1.9347    3.7321    0.0640 H   0  0  0  0  0  0  0  0  0  0  0  0
   -1.0750    4.5259   -1.7279 C   0  0  0  0  0  0  0  0  0  0  0  0
   -1.5521    4.1968   -2.6573 H   0  0  0  0  0  0  0  0  0  0  0  0
   -1.5167    5.4827   -1.4323 H   0  0  0  0  0  0  0  0  0  0  0  0
   -0.0083    4.6858   -1.9188 H   0  0  0  0  0  0  0  0  0  0  0  0
  1  2  1  0  0  0  0
  2  3  1  0  0  0  0
  2  4  1  0  0  0  0
  2  5  1  0  0  0  0
  5  6  2  0  0  0  0
  5  7  1  0  0  0  0
  7  8  1  0  0  0  0
  7  9  1  0  0  0  0
  9 10  1  0  0  0  0
  9 11  1  0  0  0  0
  9 27  1  0  0  0  0
 11 12  1  0  0  0  0
 11 13  1  0  0  0  0
 11 14  1  0  0  0  0
 14 15  1  0  0  0  0
 14 16  1  0  0  0  0
 14 17  1  0  0  0  0
 17 18  1  0  0  0  0
 17 19  1  0  0  0  0
 17 20  1  0  0  0  0
 20 21  1  0  0  0  0
 20 22  1  0  0  0  0
 20 23  1  0  0  0  0
 23 24  1  0  0  0  0
 23 25  1  0  0  0  0
 23 26  1  0  0  0  0
 27 28  2  0  0  0  0
 27 29  1  0  0  0  0
 29 30  1  0  0  0  0
 29 31  1  0  0  0  0
 31 32  1  0  0  0  0
 31 33  1  0  0  0  0
 31 34  1  0  0  0  0
M  CHG  1  23   1
M  END
$$$$

  -OEChem-01062216093D

 34 33  0     1  0  0  0  0  0999 V2000
   -4.1975   -0.9137    1.7925 H   0  0  0  0  0  0  0  0  0  0  0  0
   -3.1212   -1.0878    1.7131 C   0  0  0  0  0  0  0  0  0  0  0  0
   -2.6120   -0.4564    2.4441 H   0  0  0  0  0  0  0  0  0  0  0  0
   -2.9160   -2.1373    1.9382 H   0  0  0  0  0  0  0  0  0  0  0  0
   -2.6611   -0.7555    0.3034 C   0  0  0  0  0  0  0  0  0  0  0  0
   -2.8824   -1.5276   -0.6071 O   0  0  0  0  0  0  0  0  0  0  0  0
   -2.3254    0.5256   -0.0464 N   0  0  0  0  0  0  0  0  0  0  0  0
   -2.4893    0.6181   -1.0517 H   0  0  0  0  0  0  0  0  0  0  0  0
   -1.0896    1.2257    0.3628 C   0  0  1  0  0  0  0  0  0  0  0  0
   -1.2704    1.7698    1.2947 H   0  0  0  0  0  0  0  0  0  0  0  0
    0.1892    0.3429    0.5195 C   0  0  0  0  0  0  0  0  0  0  0  0
    0.3363   -0.2042   -0.4196 H   0  0  0  0  0  0  0  0  0  0  0  0
    1.0440    1.0191    0.6368 H   0  0  0  0  0  0  0  0  0  0  0  0
    0.2484   -0.6830    1.6653 C   0  0  0  0  0  0  0  0  0  0  0  0
   -0.5287   -1.4384    1.5537 H   0  0  0  0  0  0  0  0  0  0  0  0
    0.1061   -0.1755    2.6257 H   0  0  0  0  0  0  0  0  0  0  0  0
    1.6035   -1.4044    1.6287 C   0  0  0  0  0  0  0  0  0  0  0  0
    1.7263   -1.8874    0.6524 H   0  0  0  0  0  0  0  0  0  0  0  0
    2.4086   -0.6705    1.7459 H   0  0  0  0  0  0  0  0  0  0  0  0
    1.6954   -2.4520    2.7361 C   0  0  0  0  0  0  0  0  0  0  0  0
    1.5726   -1.9623    3.7133 H   0  0  0  0  0  0  0  0  0  0  0  0
    0.8694   -3.1702    2.6255 H   0  0  0  0  0  0  0  0  0  0  0  0
    3.0060   -3.1322    2.6408 N   0  3  0  0  0  0  0  0  0  0  0  0
    3.7626   -2.4525    2.7407 H   0  0  0  0  0  0  0  0  0  0  0  0
    3.0929   -3.8363    3.3772 H   0  0  0  0  0  0  0  0  0  0  0  0
    3.0942   -3.5925    1.7318 H   0  0  0  0  0  0  0  0  0  0  0  0
   -0.7358    2.2364   -0.7576 C   0  0  0  0  0  0  0  0  0  0  0  0
   -0.2956    1.8464   -1.8301 O   0  0  0  0  0  0  0  0  0  0  0  0
   -0.9588    3.5889   -0.5756 N   0  0  0  0  0  0  0  0  0  0  0  0
   -1.4487    3.8782    0.2663 H   0  0  0  0  0  0  0  0  0  0  0  0
   -0.7514    4.5753   -1.6325 C   0  0  0  0  0  0  0  0  0  0  0  0
   -1.4240    4.3823   -2.4753 H   0  0  0  0  0  0  0  0  0  0  0  0
   -0.9491    5.5836   -1.2557 H   0  0  0  0  0  0  0  0  0  0  0  0
    0.2819    4.5411   -1.9942 H   0  0  0  0  0  0  0  0  0  0  0  0
  1  2  1  0  0  0  0
  2  3  1  0  0  0  0
  2  4  1  0  0  0  0
  2  5  1  0  0  0  0
  5  6  2  0  0  0  0
  5  7  1  0  0  0  0
  7  8  1  0  0  0  0
  7  9  1  0  0  0  0
  9 10  1  0  0  0  0
  9 11  1  0  0  0  0
  9 27  1  0  0  0  0
 11 12  1  0  0  0  0
 11 13  1  0  0  0  0
 11 14  1  0  0  0  0
 14 15  1  0  0  0  0
 14 16  1  0  0  0  0
 14 17  1  0  0  0  0
 17 18  1  0  0  0  0
 17 19  1  0  0  0  0
 17 20  1  0  0  0  0
 20 21  1  0  0  0  0
 20 22  1  0  0  0  0
 20 23  1  0  0  0  0
 23 24  1  0  0  0  0
 23 25  1  0  0  0  0
 23 26  1  0  0  0  0
 27 28  2  0  0  0  0
 27 29  1  0  0  0  0
 29 30  1  0  0  0  0
 29 31  1  0  0  0  0
 31 32  1  0  0  0  0
 31 33  1  0  0  0  0
 31 34  1  0  0  0  0
M  CHG  1  23   1
M  END
$$$$

  -OEChem-01062216093D

 34 33  0     1  0  0  0  0  0999 V2000
   -4.1956   -0.8852    1.8001 H   0  0  0  0  0  0  0  0  0  0  0  0
   -3.1198   -1.0630    1.7225 C   0  0  0  0  0  0  0  0  0  0  0  0
   -2.6083   -0.4215    2.4429 H   0  0  0  0  0  0  0  0  0  0  0  0
   -2.9166   -2.1091    1.9642 H   0  0  0  0  0  0  0  0  0  0  0  0
   -2.6590   -0.7534    0.3078 C   0  0  0  0  0  0  0  0  0  0  0  0
   -2.8467   -1.5546   -0.5854 O   0  0  0  0  0  0  0  0  0  0  0  0
   -2.3204    0.5220   -0.0603 N   0  0  0  0  0  0  0  0  0  0  0  0
   -2.4645    0.6004   -1.0706 H   0  0  0  0  0  0  0  0  0  0  0  0
   -1.0889    1.2267    0.3527 C   0  0  1  0  0  0  0  0  0  0  0  0
   -1.2755    1.7787    1.2788 H   0  0  0  0  0  0  0  0  0  0  0  0
    0.1913    0.3483    0.5078 C   0  0  0  0  0  0  0  0  0  0  0  0
    0.3417   -0.1932   -0.4341 H   0  0  0  0  0  0  0  0  0  0  0  0
    1.0446    1.0252    0.6311 H   0  0  0  0  0  0  0  0  0  0  0  0
    0.2484   -0.6802    1.6511 C   0  0  0  0  0  0  0  0  0  0  0  0
   -0.5271   -1.4366    1.5346 H   0  0  0  0  0  0  0  0  0  0  0  0
    0.1012   -0.1749    2.6119 H   0  0  0  0  0  0  0  0  0  0  0  0
    1.6033   -1.4013    1.6198 C   0  0  0  0  0  0  0  0  0  0  0  0
    1.7308   -1.8838    0.6439 H   0  0  0  0  0  0  0  0  0  0  0  0
    2.4081   -0.6679    1.7427 H   0  0  0  0  0  0  0  0  0  0  0  0
    1.6864   -2.4498    2.7269 C   0  0  0  0  0  0  0  0  0  0  0  0
    1.5576   -1.9610    3.7037 H   0  0  0  0  0  0  0  0  0  0  0  0
    0.8598   -3.1665    2.6097 H   0  0  0  0  0  0  0  0  0  0  0  0
    2.9964   -3.1314    2.6389 N   0  3  0  0  0  0  0  0  0  0  0  0
    3.7531   -2.4535    2.7487 H   0  0  0  0  0  0  0  0  0  0  0  0
    3.0759   -3.8399    3.3717 H   0  0  0  0  0  0  0  0  0  0  0  0
    3.0909   -3.5867    1.7281 H   0  0  0  0  0  0  0  0  0  0  0  0
   -0.7199    2.2181   -0.7772 C   0  0  0  0  0  0  0  0  0  0  0  0
   -0.5247    1.8044   -1.9115 O   0  0  0  0  0  0  0  0  0  0  0  0
   -0.6444    3.5765   -0.5301 N   0  0  0  0  0  0  0  0  0  0  0  0
   -0.9394    3.9093    0.3832 H   0  0  0  0  0  0  0  0  0  0  0  0
   -0.4090    4.5588   -1.5845 C   0  0  0  0  0  0  0  0  0  0  0  0
   -1.2312    4.5502   -2.3082 H   0  0  0  0  0  0  0  0  0  0  0  0
   -0.3341    5.5638   -1.1577 H   0  0  0  0  0  0  0  0  0  0  0  0
    0.5254    4.3404   -2.1131 H   0  0  0  0  0  0  0  0  0  0  0  0
  1  2  1  0  0  0  0
  2  3  1  0  0  0  0
  2  4  1  0  0  0  0
  2  5  1  0  0  0  0
  5  6  2  0  0  0  0
  5  7  1  0  0  0  0
  7  8  1  0  0  0  0
  7  9  1  0  0  0  0
  9 10  1  0  0  0  0
  9 11  1  0  0  0  0
  9 27  1  0  0  0  0
 11 12  1  0  0  0  0
 11 13  1  0  0  0  0
 11 14  1  0  0  0  0
 14 15  1  0  0  0  0
 14 16  1  0  0  0  0
 14 17  1  0  0  0  0
 17 18  1  0  0  0  0
 17 19  1  0  0  0  0
 17 20  1  0  0  0  0
 20 21  1  0  0  0  0
 20 22  1  0  0  0  0
 20 23  1  0  0  0  0
 23 24  1  0  0  0  0
 23 25  1  0  0  0  0
 23 26  1  0  0  0  0
 27 28  2  0  0  0  0
 27 29  1  0  0  0  0
 29 30  1  0  0  0  0
 29 31  1  0  0  0  0
 31 32  1  0  0  0  0
 31 33  1  0  0  0  0
 31 34  1  0  0  0  0
M  CHG  1  23   1
M  END
$$$$

  -OEChem-01062216093D

 34 33  0     1  0  0  0  0  0999 V2000
   -4.2091   -0.8569    1.7861 H   0  0  0  0  0  0  0  0  0  0  0  0
   -3.1342   -1.0457    1.7227 C   0  0  0  0  0  0  0  0  0  0  0  0
   -2.6242   -0.4001    2.4407 H   0  0  0  0  0  0  0  0  0  0  0  0
   -2.9436   -2.0908    1.9794 H   0  0  0  0  0  0  0  0  0  0  0  0
   -2.6553   -0.7580    0.3096 C   0  0  0  0  0  0  0  0  0  0  0  0
   -2.7850   -1.5906   -0.5651 O   0  0  0  0  0  0  0  0  0  0  0  0
   -2.3171    0.5121   -0.0759 N   0  0  0  0  0  0  0  0  0  0  0  0
   -2.4463    0.5781   -1.0901 H   0  0  0  0  0  0  0  0  0  0  0  0
   -1.0894    1.2250    0.3342 C   0  0  1  0  0  0  0  0  0  0  0  0
   -1.2803    1.7873    1.2532 H   0  0  0  0  0  0  0  0  0  0  0  0
    0.1911    0.3491    0.4911 C   0  0  0  0  0  0  0  0  0  0  0  0
    0.3421   -0.1916   -0.4512 H   0  0  0  0  0  0  0  0  0  0  0  0
    1.0436    1.0269    0.6144 H   0  0  0  0  0  0  0  0  0  0  0  0
    0.2487   -0.6760    1.6387 C   0  0  0  0  0  0  0  0  0  0  0  0
   -0.5275   -1.4326    1.5269 H   0  0  0  0  0  0  0  0  0  0  0  0
    0.1016   -0.1668    2.5974 H   0  0  0  0  0  0  0  0  0  0  0  0
    1.6034   -1.3983    1.6121 C   0  0  0  0  0  0  0  0  0  0  0  0
    1.7319   -1.8855    0.6386 H   0  0  0  0  0  0  0  0  0  0  0  0
    2.4090   -0.6656    1.7324 H   0  0  0  0  0  0  0  0  0  0  0  0
    1.6826   -2.4420    2.7245 C   0  0  0  0  0  0  0  0  0  0  0  0
    1.5524   -1.9481    3.6987 H   0  0  0  0  0  0  0  0  0  0  0  0
    0.8543   -3.1570    2.6090 H   0  0  0  0  0  0  0  0  0  0  0  0
    2.9912   -3.1283    2.6453 N   0  3  0  0  0  0  0  0  0  0  0  0
    3.7499   -2.4534    2.7592 H   0  0  0  0  0  0  0  0  0  0  0  0
    3.0634   -3.8361    3.3798 H   0  0  0  0  0  0  0  0  0  0  0  0
    3.0897   -3.5855    1.7359 H   0  0  0  0  0  0  0  0  0  0  0  0
   -0.7126    2.2001   -0.8069 C   0  0  0  0  0  0  0  0  0  0  0  0
   -0.7465    1.8147   -1.9675 O   0  0  0  0  0  0  0  0  0  0  0  0
   -0.3393    3.5039   -0.5353 N   0  0  0  0  0  0  0  0  0  0  0  0
   -0.4333    3.8359    0.4200 H   0  0  0  0  0  0  0  0  0  0  0  0
   -0.0683    4.4805   -1.5866 C   0  0  0  0  0  0  0  0  0  0  0  0
   -0.9716    4.6692   -2.1768 H   0  0  0  0  0  0  0  0  0  0  0  0
    0.2647    5.4272   -1.1499 H   0  0  0  0  0  0  0  0  0  0  0  0
    0.7180    4.1171   -2.2572 H   0  0  0  0  0  0  0  0  0  0  0  0
  1  2  1  0  0  0  0
  2  3  1  0  0  0  0
  2  4  1  0  0  0  0
  2  5  1  0  0  0  0
  5  6  2  0  0  0  0
  5  7  1  0  0  0  0
  7  8  1  0  0  0  0
  7  9  1  0  0  0  0
  9 10  1  0  0  0  0
  9 11  1  0  0  0  0
  9 27  1  0  0  0  0
 11 12  1  0  0  0  0
 11 13  1  0  0  0  0
 11 14  1  0  0  0  0
 14 15  1  0  0  0  0
 14 16  1  0  0  0  0
 14 17  1  0  0  0  0
 17 18  1  0  0  0  0
 17 19  1  0  0  0  0
 17 20  1  0  0  0  0
 20 21  1  0  0  0  0
 20 22  1  0  0  0  0
 20 23  1  0  0  0  0
 23 24  1  0  0  0  0
 23 25  1  0  0  0  0
 23 26  1  0  0  0  0
 27 28  2  0  0  0  0
 27 29  1  0  0  0  0
 29 30  1  0  0  0  0
 29 31  1  0  0  0  0
 31 32  1  0  0  0  0
 31 33  1  0  0  0  0
 31 34  1  0  0  0  0
M  CHG  1  23   1
M  END
$$$$

  -OEChem-01062216093D

 34 33  0     1  0  0  0  0  0999 V2000
   -4.2063   -0.8282    1.8056 H   0  0  0  0  0  0  0  0  0  0  0  0
   -3.1353   -1.0374    1.7414 C   0  0  0  0  0  0  0  0  0  0  0  0
   -2.6119   -0.3972    2.4544 H   0  0  0  0  0  0  0  0  0  0  0  0
   -2.9630   -2.0839    2.0044 H   0  0  0  0  0  0  0  0  0  0  0  0
   -2.6524   -0.7672    0.3263 C   0  0  0  0  0  0  0  0  0  0  0  0
   -2.7388   -1.6249   -0.5298 O   0  0  0  0  0  0  0  0  0  0  0  0
   -2.3211    0.4997   -0.0754 N   0  0  0  0  0  0  0  0  0  0  0  0
   -2.4632    0.5646   -1.0887 H   0  0  0  0  0  0  0  0  0  0  0  0
   -1.0919    1.2229    0.3144 C   0  0  1  0  0  0  0  0  0  0  0  0
   -1.2748    1.7946    1.2292 H   0  0  0  0  0  0  0  0  0  0  0  0
    0.1888    0.3454    0.4645 C   0  0  0  0  0  0  0  0  0  0  0  0
    0.3264   -0.2032   -0.4754 H   0  0  0  0  0  0  0  0  0  0  0  0
    1.0464    1.0189    0.5733 H   0  0  0  0  0  0  0  0  0  0  0  0
    0.2544   -0.6689    1.6219 C   0  0  0  0  0  0  0  0  0  0  0  0
   -0.5246   -1.4246    1.5256 H   0  0  0  0  0  0  0  0  0  0  0  0
    0.1165   -0.1491    2.5763 H   0  0  0  0  0  0  0  0  0  0  0  0
    1.6048   -1.3990    1.5933 C   0  0  0  0  0  0  0  0  0  0  0  0
    1.7233   -1.8988    0.6250 H   0  0  0  0  0  0  0  0  0  0  0  0
    2.4159   -0.6701    1.7000 H   0  0  0  0  0  0  0  0  0  0  0  0
    1.6825   -2.4297    2.7183 C   0  0  0  0  0  0  0  0  0  0  0  0
    1.5595   -1.9222    3.6864 H   0  0  0  0  0  0  0  0  0  0  0  0
    0.8484   -3.1399    2.6157 H   0  0  0  0  0  0  0  0  0  0  0  0
    2.9848   -3.1276    2.6424 N   0  3  0  0  0  0  0  0  0  0  0  0
    3.7493   -2.4574    2.7432 H   0  0  0  0  0  0  0  0  0  0  0  0
    3.0549   -3.8256    3.3864 H   0  0  0  0  0  0  0  0  0  0  0  0
    3.0751   -3.5985    1.7392 H   0  0  0  0  0  0  0  0  0  0  0  0
   -0.7250    2.1892   -0.8398 C   0  0  0  0  0  0  0  0  0  0  0  0
   -0.9815    1.8787   -1.9953 O   0  0  0  0  0  0  0  0  0  0  0  0
   -0.0672    3.3809   -0.5904 N   0  0  0  0  0  0  0  0  0  0  0  0
    0.0391    3.6715    0.3768 H   0  0  0  0  0  0  0  0  0  0  0  0
    0.2443    4.3435   -1.6437 C   0  0  0  0  0  0  0  0  0  0  0  0
   -0.6757    4.7320   -2.0938 H   0  0  0  0  0  0  0  0  0  0  0  0
    0.8114    5.1850   -1.2342 H   0  0  0  0  0  0  0  0  0  0  0  0
    0.8469    3.8743   -2.4290 H   0  0  0  0  0  0  0  0  0  0  0  0
  1  2  1  0  0  0  0
  2  3  1  0  0  0  0
  2  4  1  0  0  0  0
  2  5  1  0  0  0  0
  5  6  2  0  0  0  0
  5  7  1  0  0  0  0
  7  8  1  0  0  0  0
  7  9  1  0  0  0  0
  9 10  1  0  0  0  0
  9 11  1  0  0  0  0
  9 27  1  0  0  0  0
 11 12  1  0  0  0  0
 11 13  1  0  0  0  0
 11 14  1  0  0  0  0
 14 15  1  0  0  0  0
 14 16  1  0  0  0  0
 14 17  1  0  0  0  0
 17 18  1  0  0  0  0
 17 19  1  0  0  0  0
 17 20  1  0  0  0  0
 20 21  1  0  0  0  0
 20 22  1  0  0  0  0
 20 23  1  0  0  0  0
 23 24  1  0  0  0  0
 23 25  1  0  0  0  0
 23 26  1  0  0  0  0
 27 28  2  0  0  0  0
 27 29  1  0  0  0  0
 29 30  1  0  0  0  0
 29 31  1  0  0  0  0
 31 32  1  0  0  0  0
 31 33  1  0  0  0  0
 31 34  1  0  0  0  0
M  CHG  1  23   1
M  END
$$$$

  -OEChem-01062216093D

 34 33  0     1  0  0  0  0  0999 V2000
   -4.2158   -0.8029    1.8042 H   0  0  0  0  0  0  0  0  0  0  0  0
   -3.1481   -1.0322    1.7547 C   0  0  0  0  0  0  0  0  0  0  0  0
   -2.6220   -0.3999    2.4727 H   0  0  0  0  0  0  0  0  0  0  0  0
   -2.9984   -2.0811    2.0226 H   0  0  0  0  0  0  0  0  0  0  0  0
   -2.6413   -0.7736    0.3460 C   0  0  0  0  0  0  0  0  0  0  0  0
   -2.6613   -1.6533   -0.4924 O   0  0  0  0  0  0  0  0  0  0  0  0
   -2.3169    0.4923   -0.0638 N   0  0  0  0  0  0  0  0  0  0  0  0
   -2.4815    0.5643   -1.0735 H   0  0  0  0  0  0  0  0  0  0  0  0
   -1.0822    1.2229    0.2982 C   0  0  1  0  0  0  0  0  0  0  0  0
   -1.2509    1.8022    1.2110 H   0  0  0  0  0  0  0  0  0  0  0  0
    0.1941    0.3353    0.4408 C   0  0  0  0  0  0  0  0  0  0  0  0
    0.3117   -0.2262   -0.4941 H   0  0  0  0  0  0  0  0  0  0  0  0
    1.0622    0.9973    0.5303 H   0  0  0  0  0  0  0  0  0  0  0  0
    0.2646   -0.6631    1.6125 C   0  0  0  0  0  0  0  0  0  0  0  0
   -0.5236   -1.4114    1.5409 H   0  0  0  0  0  0  0  0  0  0  0  0
    0.1460   -0.1267    2.5601 H   0  0  0  0  0  0  0  0  0  0  0  0
    1.6057   -1.4095    1.5791 C   0  0  0  0  0  0  0  0  0  0  0  0
    1.7069   -1.9263    0.6177 H   0  0  0  0  0  0  0  0  0  0  0  0
    2.4269   -0.6895    1.6656 H   0  0  0  0  0  0  0  0  0  0  0  0
    1.6821   -2.4228    2.7198 C   0  0  0  0  0  0  0  0  0  0  0  0
    1.5773   -1.8977    3.6807 H   0  0  0  0  0  0  0  0  0  0  0  0
    0.8373   -3.1231    2.6390 H   0  0  0  0  0  0  0  0  0  0  0  0
    2.9743   -3.1388    2.6412 N   0  3  0  0  0  0  0  0  0  0  0  0
    3.7486   -2.4769    2.7197 H   0  0  0  0  0  0  0  0  0  0  0  0
    3.0448   -3.8237    3.3973 H   0  0  0  0  0  0  0  0  0  0  0  0
    3.0468   -3.6278    1.7460 H   0  0  0  0  0  0  0  0  0  0  0  0
   -0.7372    2.1884   -0.8673 C   0  0  0  0  0  0  0  0  0  0  0  0
   -1.2176    1.9996   -1.9771 O   0  0  0  0  0  0  0  0  0  0  0  0
    0.1729    3.2185   -0.7014 N   0  0  0  0  0  0  0  0  0  0  0  0
    0.4838    3.4292    0.2417 H   0  0  0  0  0  0  0  0  0  0  0  0
    0.4946    4.1647   -1.7667 C   0  0  0  0  0  0  0  0  0  0  0  0
   -0.3945    4.7364   -2.0544 H   0  0  0  0  0  0  0  0  0  0  0  0
    1.2642    4.8676   -1.4327 H   0  0  0  0  0  0  0  0  0  0  0  0
    0.8722    3.6373   -2.6496 H   0  0  0  0  0  0  0  0  0  0  0  0
  1  2  1  0  0  0  0
  2  3  1  0  0  0  0
  2  4  1  0  0  0  0
  2  5  1  0  0  0  0
  5  6  2  0  0  0  0
  5  7  1  0  0  0  0
  7  8  1  0  0  0  0
  7  9  1  0  0  0  0
  9 10  1  0  0  0  0
  9 11  1  0  0  0  0
  9 27  1  0  0  0  0
 11 12  1  0  0  0  0
 11 13  1  0  0  0  0
 11 14  1  0  0  0  0
 14 15  1  0  0  0  0
 14 16  1  0  0  0  0
 14 17  1  0  0  0  0
 17 18  1  0  0  0  0
 17 19  1  0  0  0  0
 17 20  1  0  0  0  0
 20 21  1  0  0  0  0
 20 22  1  0  0  0  0
 20 23  1  0  0  0  0
 23 24  1  0  0  0  0
 23 25  1  0  0  0  0
 23 26  1  0  0  0  0
 27 28  2  0  0  0  0
 27 29  1  0  0  0  0
 29 30  1  0  0  0  0
 29 31  1  0  0  0  0
 31 32  1  0  0  0  0
 31 33  1  0  0  0  0
 31 34  1  0  0  0  0
M  CHG  1  23   1
M  END
$$$$

  -OEChem-01062216093D

 34 33  0     1  0  0  0  0  0999 V2000
   -4.2444   -2.0722    1.0763 H   0  0  0  0  0  0  0  0  0  0  0  0
   -3.9837   -1.1641    0.5256 C   0  0  0  0  0  0  0  0  0  0  0  0
   -3.8718   -1.4127   -0.5324 H   0  0  0  0  0  0  0  0  0  0  0  0
   -4.7955   -0.4407    0.6371 H   0  0  0  0  0  0  0  0  0  0  0  0
   -2.6914   -0.5779    1.0610 C   0  0  0  0  0  0  0  0  0  0  0  0
   -2.1729   -1.0702    2.0492 O   0  0  0  0  0  0  0  0  0  0  0  0
   -2.2245    0.6066    0.5337 N   0  0  0  0  0  0  0  0  0  0  0  0
   -2.8150    0.9956   -0.2064 H   0  0  0  0  0  0  0  0  0  0  0  0
   -0.8874    1.2398    0.5950 C   0  0  1  0  0  0  0  0  0  0  0  0
   -0.7406    1.6845    1.5845 H   0  0  0  0  0  0  0  0  0  0  0  0
    0.3388    0.3401    0.2218 C   0  0  0  0  0  0  0  0  0  0  0  0
    0.1561   -0.0759   -0.7755 H   0  0  0  0  0  0  0  0  0  0  0  0
    1.2291    0.9727    0.1531 H   0  0  0  0  0  0  0  0  0  0  0  0
    0.7035   -0.8152    1.1661 C   0  0  0  0  0  0  0  0  0  0  0  0
   -0.0972   -1.5500    1.1784 H   0  0  0  0  0  0  0  0  0  0  0  0
    0.8498   -0.4337    2.1828 H   0  0  0  0  0  0  0  0  0  0  0  0
    1.9394   -1.5753    0.6752 C   0  0  0  0  0  0  0  0  0  0  0  0
    1.7552   -1.9657   -0.3318 H   0  0  0  0  0  0  0  0  0  0  0  0
    2.7964   -0.8948    0.6275 H   0  0  0  0  0  0  0  0  0  0  0  0
    2.2309   -2.7220    1.6420 C   0  0  0  0  0  0  0  0  0  0  0  0
    2.4028   -2.3108    2.6478 H   0  0  0  0  0  0  0  0  0  0  0  0
    1.3438   -3.3699    1.7080 H   0  0  0  0  0  0  0  0  0  0  0  0
    3.4084   -3.4809    1.1678 N   0  3  0  0  0  0  0  0  0  0  0  0
    4.2234   -2.8672    1.1160 H   0  0  0  0  0  0  0  0  0  0  0  0
    3.6115   -4.2493    1.8113 H   0  0  0  0  0  0  0  0  0  0  0  0
    3.2231   -3.8667    0.2399 H   0  0  0  0  0  0  0  0  0  0  0  0
   -0.8785    2.3598   -0.4882 C   0  0  0  0  0  0  0  0  0  0  0  0
   -1.8436    2.4950   -1.2334 O   0  0  0  0  0  0  0  0  0  0  0  0
    0.2282    3.1646   -0.7050 N   0  0  0  0  0  0  0  0  0  0  0  0
    0.9848    3.1169   -0.0299 H   0  0  0  0  0  0  0  0  0  0  0  0
    0.2497    4.2340   -1.6993 C   0  0  0  0  0  0  0  0  0  0  0  0
   -0.5229    4.9788   -1.4798 H   0  0  0  0  0  0  0  0  0  0  0  0
    1.2227    4.7351   -1.6983 H   0  0  0  0  0  0  0  0  0  0  0  0
    0.0724    3.8303   -2.7020 H   0  0  0  0  0  0  0  0  0  0  0  0
  1  2  1  0  0  0  0
  2  3  1  0  0  0  0
  2  4  1  0  0  0  0
  2  5  1  0  0  0  0
  5  6  2  0  0  0  0
  5  7  1  0  0  0  0
  7  8  1  0  0  0  0
  7  9  1  0  0  0  0
  9 10  1  0  0  0  0
  9 11  1  0  0  0  0
  9 27  1  0  0  0  0
 11 12  1  0  0  0  0
 11 13  1  0  0  0  0
 11 14  1  0  0  0  0
 14 15  1  0  0  0  0
 14 16  1  0  0  0  0
 14 17  1  0  0  0  0
 17 18  1  0  0  0  0
 17 19  1  0  0  0  0
 17 20  1  0  0  0  0
 20 21  1  0  0  0  0
 20 22  1  0  0  0  0
 20 23  1  0  0  0  0
 23 24  1  0  0  0  0
 23 25  1  0  0  0  0
 23 26  1  0  0  0  0
 27 28  2  0  0  0  0
 27 29  1  0  0  0  0
 29 30  1  0  0  0  0
 29 31  1  0  0  0  0
 31 32  1  0  0  0  0
 31 33  1  0  0  0  0
 31 34  1  0  0  0  0
M  CHG  1  23   1
M  END
$$$$

  -OEChem-01062216093D

 34 33  0     1  0  0  0  0  0999 V2000
   -4.3200   -2.0149    1.0413 H   0  0  0  0  0  0  0  0  0  0  0  0
   -4.0228   -1.1213    0.4855 C   0  0  0  0  0  0  0  0  0  0  0  0
   -3.9374   -1.3770   -0.5734 H   0  0  0  0  0  0  0  0  0  0  0  0
   -4.7978   -0.3598    0.6064 H   0  0  0  0  0  0  0  0  0  0  0  0
   -2.6963   -0.5970    1.0017 C   0  0  0  0  0  0  0  0  0  0  0  0
   -2.1740   -1.1382    1.9612 O   0  0  0  0  0  0  0  0  0  0  0  0
   -2.2076    0.5896    0.4981 N   0  0  0  0  0  0  0  0  0  0  0  0
   -2.8245    1.0387   -0.1844 H   0  0  0  0  0  0  0  0  0  0  0  0
   -0.8677    1.2199    0.5629 C   0  0  1  0  0  0  0  0  0  0  0  0
   -0.7252    1.6645    1.5530 H   0  0  0  0  0  0  0  0  0  0  0  0
    0.3655    0.3181    0.2088 C   0  0  0  0  0  0  0  0  0  0  0  0
    0.1955   -0.1044   -0.7878 H   0  0  0  0  0  0  0  0  0  0  0  0
    1.2566    0.9496    0.1520 H   0  0  0  0  0  0  0  0  0  0  0  0
    0.7271   -0.8285    1.1654 C   0  0  0  0  0  0  0  0  0  0  0  0
   -0.0688   -1.5669    1.1753 H   0  0  0  0  0  0  0  0  0  0  0  0
    0.8623   -0.4381    2.1802 H   0  0  0  0  0  0  0  0  0  0  0  0
    1.9692   -1.5917    0.6944 C   0  0  0  0  0  0  0  0  0  0  0  0
    1.7951   -1.9939   -0.3099 H   0  0  0  0  0  0  0  0  0  0  0  0
    2.8259   -0.9105    0.6473 H   0  0  0  0  0  0  0  0  0  0  0  0
    2.2519   -2.7279    1.6772 C   0  0  0  0  0  0  0  0  0  0  0  0
    2.4113   -2.3053    2.6801 H   0  0  0  0  0  0  0  0  0  0  0  0
    1.3646   -3.3758    1.7405 H   0  0  0  0  0  0  0  0  0  0  0  0
    3.4347   -3.4921    1.2258 N   0  3  0  0  0  0  0  0  0  0  0  0
    4.2514   -2.8802    1.1813 H   0  0  0  0  0  0  0  0  0  0  0  0
    3.6271   -4.2553    1.8785 H   0  0  0  0  0  0  0  0  0  0  0  0
    3.2625   -3.8856    0.2987 H   0  0  0  0  0  0  0  0  0  0  0  0
   -0.8764    2.3542   -0.5119 C   0  0  0  0  0  0  0  0  0  0  0  0
   -1.9321    2.6611   -1.0566 O   0  0  0  0  0  0  0  0  0  0  0  0
    0.2768    2.9763   -0.9648 N   0  0  0  0  0  0  0  0  0  0  0  0
    1.1377    2.7968   -0.4588 H   0  0  0  0  0  0  0  0  0  0  0  0
    0.2667    4.0481   -1.9572 C   0  0  0  0  0  0  0  0  0  0  0  0
   -0.3250    4.8979   -1.5996 H   0  0  0  0  0  0  0  0  0  0  0  0
    1.2861    4.3953   -2.1521 H   0  0  0  0  0  0  0  0  0  0  0  0
   -0.1621    3.6945   -2.9010 H   0  0  0  0  0  0  0  0  0  0  0  0
  1  2  1  0  0  0  0
  2  3  1  0  0  0  0
  2  4  1  0  0  0  0
  2  5  1  0  0  0  0
  5  6  2  0  0  0  0
  5  7  1  0  0  0  0
  7  8  1  0  0  0  0
  7  9  1  0  0  0  0
  9 10  1  0  0  0  0
  9 11  1  0  0  0  0
  9 27  1  0  0  0  0
 11 12  1  0  0  0  0
 11 13  1  0  0  0  0
 11 14  1  0  0  0  0
 14 15  1  0  0  0  0
 14 16  1  0  0  0  0
 14 17  1  0  0  0  0
 17 18  1  0  0  0  0
 17 19  1  0  0  0  0
 17 20  1  0  0  0  0
 20 21  1  0  0  0  0
 20 22  1  0  0  0  0
 20 23  1  0  0  0  0
 23 24  1  0  0  0  0
 23 25  1  0  0  0  0
 23 26  1  0  0  0  0
 27 28  2  0  0  0  0
 27 29  1  0  0  0  0
 29 30  1  0  0  0  0
 29 31  1  0  0  0  0
 31 32  1  0  0  0  0
 31 33  1  0  0  0  0
 31 34  1  0  0  0  0
M  CHG  1  23   1
M  END
$$$$

  -OEChem-01062216093D

 34 33  0     1  0  0  0  0  0999 V2000
   -4.4049   -1.9258    1.0588 H   0  0  0  0  0  0  0  0  0  0  0  0
   -4.0783   -1.0459    0.4974 C   0  0  0  0  0  0  0  0  0  0  0  0
   -4.0467   -1.2978   -0.5652 H   0  0  0  0  0  0  0  0  0  0  0  0
   -4.8041   -0.2433    0.6519 H   0  0  0  0  0  0  0  0  0  0  0  0
   -2.7061   -0.6009    0.9671 C   0  0  0  0  0  0  0  0  0  0  0  0
   -2.1681   -1.2041    1.8787 O   0  0  0  0  0  0  0  0  0  0  0  0
   -2.1913    0.5825    0.4809 N   0  0  0  0  0  0  0  0  0  0  0  0
   -2.8353    1.0965   -0.1264 H   0  0  0  0  0  0  0  0  0  0  0  0
   -0.8404    1.1919    0.5331 C   0  0  1  0  0  0  0  0  0  0  0  0
   -0.6905    1.6361    1.5223 H   0  0  0  0  0  0  0  0  0  0  0  0
    0.3945    0.2890    0.1894 C   0  0  0  0  0  0  0  0  0  0  0  0
    0.2308   -0.1425   -0.8045 H   0  0  0  0  0  0  0  0  0  0  0  0
    1.2823    0.9262    0.1369 H   0  0  0  0  0  0  0  0  0  0  0  0
    0.7571   -0.8472    1.1587 C   0  0  0  0  0  0  0  0  0  0  0  0
   -0.0360   -1.5875    1.1758 H   0  0  0  0  0  0  0  0  0  0  0  0
    0.8894   -0.4471    2.1702 H   0  0  0  0  0  0  0  0  0  0  0  0
    2.0010   -1.6139    0.6981 C   0  0  0  0  0  0  0  0  0  0  0  0
    1.8300   -2.0275   -0.3020 H   0  0  0  0  0  0  0  0  0  0  0  0
    2.8574   -0.9330    0.6459 H   0  0  0  0  0  0  0  0  0  0  0  0
    2.2817   -2.7382    1.6945 C   0  0  0  0  0  0  0  0  0  0  0  0
    2.4397   -2.3035    2.6927 H   0  0  0  0  0  0  0  0  0  0  0  0
    1.3938   -3.3847    1.7639 H   0  0  0  0  0  0  0  0  0  0  0  0
    3.4661   -3.5069    1.2545 N   0  3  0  0  0  0  0  0  0  0  0  0
    4.2834   -2.8961    1.2093 H   0  0  0  0  0  0  0  0  0  0  0  0
    3.6547   -4.2653    1.9140 H   0  0  0  0  0  0  0  0  0  0  0  0
    3.2978   -3.9074    0.3297 H   0  0  0  0  0  0  0  0  0  0  0  0
   -0.8705    2.3386   -0.5291 C   0  0  0  0  0  0  0  0  0  0  0  0
   -1.9496    2.8393   -0.8267 O   0  0  0  0  0  0  0  0  0  0  0  0
    0.2396    2.7705   -1.2395 N   0  0  0  0  0  0  0  0  0  0  0  0
    1.1454    2.3957   -0.9804 H   0  0  0  0  0  0  0  0  0  0  0  0
    0.1873    3.8494   -2.2237 C   0  0  0  0  0  0  0  0  0  0  0  0
   -0.1778    4.7734   -1.7619 H   0  0  0  0  0  0  0  0  0  0  0  0
    1.1837    4.0401   -2.6341 H   0  0  0  0  0  0  0  0  0  0  0  0
   -0.4802    3.5840   -3.0507 H   0  0  0  0  0  0  0  0  0  0  0  0
  1  2  1  0  0  0  0
  2  3  1  0  0  0  0
  2  4  1  0  0  0  0
  2  5  1  0  0  0  0
  5  6  2  0  0  0  0
  5  7  1  0  0  0  0
  7  8  1  0  0  0  0
  7  9  1  0  0  0  0
  9 10  1  0  0  0  0
  9 11  1  0  0  0  0
  9 27  1  0  0  0  0
 11 12  1  0  0  0  0
 11 13  1  0  0  0  0
 11 14  1  0  0  0  0
 14 15  1  0  0  0  0
 14 16  1  0  0  0  0
 14 17  1  0  0  0  0
 17 18  1  0  0  0  0
 17 19  1  0  0  0  0
 17 20  1  0  0  0  0
 20 21  1  0  0  0  0
 20 22  1  0  0  0  0
 20 23  1  0  0  0  0
 23 24  1  0  0  0  0
 23 25  1  0  0  0  0
 23 26  1  0  0  0  0
 27 28  2  0  0  0  0
 27 29  1  0  0  0  0
 29 30  1  0  0  0  0
 29 31  1  0  0  0  0
 31 32  1  0  0  0  0
 31 33  1  0  0  0  0
 31 34  1  0  0  0  0
M  CHG  1  23   1
M  END
$$$$

  -OEChem-01062216093D

 34 33  0     1  0  0  0  0  0999 V2000
   -4.4511   -1.9100    0.9837 H   0  0  0  0  0  0  0  0  0  0  0  0
   -4.1515   -0.9652    0.5211 C   0  0  0  0  0  0  0  0  0  0  0  0
   -4.2184   -1.0689   -0.5646 H   0  0  0  0  0  0  0  0  0  0  0  0
   -4.8402   -0.1815    0.8475 H   0  0  0  0  0  0  0  0  0  0  0  0
   -2.7329   -0.6079    0.9236 C   0  0  0  0  0  0  0  0  0  0  0  0
   -2.1716   -1.2909    1.7602 O   0  0  0  0  0  0  0  0  0  0  0  0
   -2.1930    0.5733    0.4572 N   0  0  0  0  0  0  0  0  0  0  0  0
   -2.8565    1.1497   -0.0663 H   0  0  0  0  0  0  0  0  0  0  0  0
   -0.8313    1.1596    0.5044 C   0  0  1  0  0  0  0  0  0  0  0  0
   -0.6813    1.5981    1.4963 H   0  0  0  0  0  0  0  0  0  0  0  0
    0.4122    0.2657    0.1744 C   0  0  0  0  0  0  0  0  0  0  0  0
    0.2556   -0.1773   -0.8154 H   0  0  0  0  0  0  0  0  0  0  0  0
    1.2915    0.9157    0.1195 H   0  0  0  0  0  0  0  0  0  0  0  0
    0.7804   -0.8615    1.1519 C   0  0  0  0  0  0  0  0  0  0  0  0
   -0.0041   -1.6094    1.1747 H   0  0  0  0  0  0  0  0  0  0  0  0
    0.9072   -0.4522    2.1604 H   0  0  0  0  0  0  0  0  0  0  0  0
    2.0334   -1.6183    0.7009 C   0  0  0  0  0  0  0  0  0  0  0  0
    1.8700   -2.0389   -0.2975 H   0  0  0  0  0  0  0  0  0  0  0  0
    2.8834   -0.9295    0.6491 H   0  0  0  0  0  0  0  0  0  0  0  0
    2.3198   -2.7345    1.7050 C   0  0  0  0  0  0  0  0  0  0  0  0
    2.4685   -2.2936    2.7019 H   0  0  0  0  0  0  0  0  0  0  0  0
    1.4381   -3.3897    1.7728 H   0  0  0  0  0  0  0  0  0  0  0  0
    3.5133   -3.4940    1.2749 N   0  3  0  0  0  0  0  0  0  0  0  0
    4.3242   -2.8748    1.2279 H   0  0  0  0  0  0  0  0  0  0  0  0
    3.7079   -4.2455    1.9406 H   0  0  0  0  0  0  0  0  0  0  0  0
    3.3519   -3.9029    0.3527 H   0  0  0  0  0  0  0  0  0  0  0  0
   -0.8639    2.3209   -0.5372 C   0  0  0  0  0  0  0  0  0  0  0  0
   -1.8814    2.9980   -0.6163 O   0  0  0  0  0  0  0  0  0  0  0  0
    0.1344    2.5648   -1.4689 N   0  0  0  0  0  0  0  0  0  0  0  0
    0.9637    1.9821   -1.4432 H   0  0  0  0  0  0  0  0  0  0  0  0
    0.0515    3.6191   -2.4769 C   0  0  0  0  0  0  0  0  0  0  0  0
   -0.0840    4.5967   -2.0014 H   0  0  0  0  0  0  0  0  0  0  0  0
    0.9704    3.6505   -3.0703 H   0  0  0  0  0  0  0  0  0  0  0  0
   -0.7906    3.4387   -3.1536 H   0  0  0  0  0  0  0  0  0  0  0  0
  1  2  1  0  0  0  0
  2  3  1  0  0  0  0
  2  4  1  0  0  0  0
  2  5  1  0  0  0  0
  5  6  2  0  0  0  0
  5  7  1  0  0  0  0
  7  8  1  0  0  0  0
  7  9  1  0  0  0  0
  9 10  1  0  0  0  0
  9 11  1  0  0  0  0
  9 27  1  0  0  0  0
 11 12  1  0  0  0  0
 11 13  1  0  0  0  0
 11 14  1  0  0  0  0
 14 15  1  0  0  0  0
 14 16  1  0  0  0  0
 14 17  1  0  0  0  0
 17 18  1  0  0  0  0
 17 19  1  0  0  0  0
 17 20  1  0  0  0  0
 20 21  1  0  0  0  0
 20 22  1  0  0  0  0
 20 23  1  0  0  0  0
 23 24  1  0  0  0  0
 23 25  1  0  0  0  0
 23 26  1  0  0  0  0
 27 28  2  0  0  0  0
 27 29  1  0  0  0  0
 29 30  1  0  0  0  0
 29 31  1  0  0  0  0
 31 32  1  0  0  0  0
 31 33  1  0  0  0  0
 31 34  1  0  0  0  0
M  CHG  1  23   1
M  END
$$$$

  -OEChem-01062216093D

 34 33  0     1  0  0  0  0  0999 V2000
   -4.5095   -1.8688    0.9340 H   0  0  0  0  0  0  0  0  0  0  0  0
   -4.1847   -0.9356    0.4649 C   0  0  0  0  0  0  0  0  0  0  0  0
   -4.2575   -1.0436   -0.6200 H   0  0  0  0  0  0  0  0  0  0  0  0
   -4.8502   -0.1311    0.7886 H   0  0  0  0  0  0  0  0  0  0  0  0
   -2.7549   -0.6172    0.8602 C   0  0  0  0  0  0  0  0  0  0  0  0
   -2.1912   -1.3471    1.6536 O   0  0  0  0  0  0  0  0  0  0  0  0
   -2.1995    0.5663    0.4175 N   0  0  0  0  0  0  0  0  0  0  0  0
   -2.8668    1.1724   -0.0638 H   0  0  0  0  0  0  0  0  0  0  0  0
   -0.8329    1.1388    0.4816 C   0  0  1  0  0  0  0  0  0  0  0  0
   -0.6943    1.5660    1.4803 H   0  0  0  0  0  0  0  0  0  0  0  0
    0.4201    0.2543    0.1686 C   0  0  0  0  0  0  0  0  0  0  0  0
    0.2764   -0.1954   -0.8198 H   0  0  0  0  0  0  0  0  0  0  0  0
    1.2920    0.9157    0.1163 H   0  0  0  0  0  0  0  0  0  0  0  0
    0.7814   -0.8732    1.1493 C   0  0  0  0  0  0  0  0  0  0  0  0
    0.0021   -1.6263    1.1634 H   0  0  0  0  0  0  0  0  0  0  0  0
    0.8924   -0.4629    2.1594 H   0  0  0  0  0  0  0  0  0  0  0  0
    2.0460   -1.6212    0.7156 C   0  0  0  0  0  0  0  0  0  0  0  0
    1.9005   -2.0409   -0.2857 H   0  0  0  0  0  0  0  0  0  0  0  0
    2.8915   -0.9258    0.6775 H   0  0  0  0  0  0  0  0  0  0  0  0
    2.3252   -2.7381    1.7213 C   0  0  0  0  0  0  0  0  0  0  0  0
    2.4556   -2.2985    2.7214 H   0  0  0  0  0  0  0  0  0  0  0  0
    1.4470   -3.3993    1.7744 H   0  0  0  0  0  0  0  0  0  0  0  0
    3.5300   -3.4896    1.3083 N   0  3  0  0  0  0  0  0  0  0  0  0
    4.3354   -2.8628    1.2643 H   0  0  0  0  0  0  0  0  0  0  0  0
    3.7254   -4.2339    1.9817 H   0  0  0  0  0  0  0  0  0  0  0  0
    3.3818   -3.9074    0.3878 H   0  0  0  0  0  0  0  0  0  0  0  0
   -0.8485    2.3139   -0.5374 C   0  0  0  0  0  0  0  0  0  0  0  0
   -1.7459    3.1397   -0.4431 O   0  0  0  0  0  0  0  0  0  0  0  0
   -0.0130    2.3962   -1.6410 N   0  0  0  0  0  0  0  0  0  0  0  0
    0.6716    1.6602   -1.7754 H   0  0  0  0  0  0  0  0  0  0  0  0
   -0.1254    3.4428   -2.6539 C   0  0  0  0  0  0  0  0  0  0  0  0
   -0.0157    4.4328   -2.1977 H   0  0  0  0  0  0  0  0  0  0  0  0
    0.6558    3.3254   -3.4112 H   0  0  0  0  0  0  0  0  0  0  0  0
   -1.0997    3.3929   -3.1521 H   0  0  0  0  0  0  0  0  0  0  0  0
  1  2  1  0  0  0  0
  2  3  1  0  0  0  0
  2  4  1  0  0  0  0
  2  5  1  0  0  0  0
  5  6  2  0  0  0  0
  5  7  1  0  0  0  0
  7  8  1  0  0  0  0
  7  9  1  0  0  0  0
  9 10  1  0  0  0  0
  9 11  1  0  0  0  0
  9 27  1  0  0  0  0
 11 12  1  0  0  0  0
 11 13  1  0  0  0  0
 11 14  1  0  0  0  0
 14 15  1  0  0  0  0
 14 16  1  0  0  0  0
 14 17  1  0  0  0  0
 17 18  1  0  0  0  0
 17 19  1  0  0  0  0
 17 20  1  0  0  0  0
 20 21  1  0  0  0  0
 20 22  1  0  0  0  0
 20 23  1  0  0  0  0
 23 24  1  0  0  0  0
 23 25  1  0  0  0  0
 23 26  1  0  0  0  0
 27 28  2  0  0  0  0
 27 29  1  0  0  0  0
 29 30  1  0  0  0  0
 29 31  1  0  0  0  0
 31 32  1  0  0  0  0
 31 33  1  0  0  0  0
 31 34  1  0  0  0  0
M  CHG  1  23   1
M  END
$$$$

  -OEChem-01062216093D

 34 33  0     1  0  0  0  0  0999 V2000
   -4.5237   -1.8816    0.8408 H   0  0  0  0  0  0  0  0  0  0  0  0
   -4.2219   -0.9028    0.4571 C   0  0  0  0  0  0  0  0  0  0  0  0
   -4.3412   -0.9005   -0.6291 H   0  0  0  0  0  0  0  0  0  0  0  0
   -4.8750   -0.1404    0.8895 H   0  0  0  0  0  0  0  0  0  0  0  0
   -2.7780   -0.6157    0.8245 C   0  0  0  0  0  0  0  0  0  0  0  0
   -2.2097   -1.3717    1.5886 O   0  0  0  0  0  0  0  0  0  0  0  0
   -2.2123    0.5648    0.3852 N   0  0  0  0  0  0  0  0  0  0  0  0
   -2.8818    1.1836   -0.0738 H   0  0  0  0  0  0  0  0  0  0  0  0
   -0.8392    1.1216    0.4517 C   0  0  1  0  0  0  0  0  0  0  0  0
   -0.7059    1.5458    1.4528 H   0  0  0  0  0  0  0  0  0  0  0  0
    0.4173    0.2380    0.1543 C   0  0  0  0  0  0  0  0  0  0  0  0
    0.2789   -0.2247   -0.8284 H   0  0  0  0  0  0  0  0  0  0  0  0
    1.2862    0.9033    0.0938 H   0  0  0  0  0  0  0  0  0  0  0  0
    0.7742   -0.8821    1.1447 C   0  0  0  0  0  0  0  0  0  0  0  0
   -0.0028   -1.6371    1.1625 H   0  0  0  0  0  0  0  0  0  0  0  0
    0.8799   -0.4639    2.1521 H   0  0  0  0  0  0  0  0  0  0  0  0
    2.0438   -1.6274    0.7214 C   0  0  0  0  0  0  0  0  0  0  0  0
    1.9056   -2.0528   -0.2787 H   0  0  0  0  0  0  0  0  0  0  0  0
    2.8868   -0.9288    0.6846 H   0  0  0  0  0  0  0  0  0  0  0  0
    2.3223   -2.7380    1.7339 C   0  0  0  0  0  0  0  0  0  0  0  0
    2.4474   -2.2924    2.7319 H   0  0  0  0  0  0  0  0  0  0  0  0
    1.4464   -3.4022    1.7874 H   0  0  0  0  0  0  0  0  0  0  0  0
    3.5322   -3.4852    1.3288 N   0  3  0  0  0  0  0  0  0  0  0  0
    4.3345   -2.8544    1.2852 H   0  0  0  0  0  0  0  0  0  0  0  0
    3.7287   -4.2256    2.0061 H   0  0  0  0  0  0  0  0  0  0  0  0
    3.3896   -3.9074    0.4094 H   0  0  0  0  0  0  0  0  0  0  0  0
   -0.8264    2.3001   -0.5565 C   0  0  0  0  0  0  0  0  0  0  0  0
   -1.5200    3.2740   -0.3063 O   0  0  0  0  0  0  0  0  0  0  0  0
   -0.2113    2.2383   -1.7970 N   0  0  0  0  0  0  0  0  0  0  0  0
    0.2510    1.3724   -2.0532 H   0  0  0  0  0  0  0  0  0  0  0  0
   -0.3328    3.2923   -2.8009 C   0  0  0  0  0  0  0  0  0  0  0  0
    0.0043    4.2520   -2.3940 H   0  0  0  0  0  0  0  0  0  0  0  0
    0.2805    3.0572   -3.6762 H   0  0  0  0  0  0  0  0  0  0  0  0
   -1.3738    3.3960   -3.1256 H   0  0  0  0  0  0  0  0  0  0  0  0
  1  2  1  0  0  0  0
  2  3  1  0  0  0  0
  2  4  1  0  0  0  0
  2  5  1  0  0  0  0
  5  6  2  0  0  0  0
  5  7  1  0  0  0  0
  7  8  1  0  0  0  0
  7  9  1  0  0  0  0
  9 10  1  0  0  0  0
  9 11  1  0  0  0  0
  9 27  1  0  0  0  0
 11 12  1  0  0  0  0
 11 13  1  0  0  0  0
 11 14  1  0  0  0  0
 14 15  1  0  0  0  0
 14 16  1  0  0  0  0
 14 17  1  0  0  0  0
 17 18  1  0  0  0  0
 17 19  1  0  0  0  0
 17 20  1  0  0  0  0
 20 21  1  0  0  0  0
 20 22  1  0  0  0  0
 20 23  1  0  0  0  0
 23 24  1  0  0  0  0
 23 25  1  0  0  0  0
 23 26  1  0  0  0  0
 27 28  2  0  0  0  0
 27 29  1  0  0  0  0
 29 30  1  0  0  0  0
 29 31  1  0  0  0  0
 31 32  1  0  0  0  0
 31 33  1  0  0  0  0
 31 34  1  0  0  0  0
M  CHG  1  23   1
M  END
$$$$

  -OEChem-01062216093D

 34 33  0     1  0  0  0  0  0999 V2000
   -4.5703   -1.8351    1.0319 H   0  0  0  0  0  0  0  0  0  0  0  0
   -4.2413   -0.9254    0.5214 C   0  0  0  0  0  0  0  0  0  0  0  0
   -4.3509   -1.0683   -0.5563 H   0  0  0  0  0  0  0  0  0  0  0  0
   -4.8799   -0.0969    0.8387 H   0  0  0  0  0  0  0  0  0  0  0  0
   -2.7933   -0.6258    0.8620 C   0  0  0  0  0  0  0  0  0  0  0  0
   -2.2053   -1.3742    1.6180 O   0  0  0  0  0  0  0  0  0  0  0  0
   -2.2413    0.5541    0.4033 N   0  0  0  0  0  0  0  0  0  0  0  0
   -2.9212    1.1627   -0.0519 H   0  0  0  0  0  0  0  0  0  0  0  0
   -0.8663    1.1099    0.4525 C   0  0  1  0  0  0  0  0  0  0  0  0
   -0.7238    1.5349    1.4523 H   0  0  0  0  0  0  0  0  0  0  0  0
    0.3925    0.2359    0.1425 C   0  0  0  0  0  0  0  0  0  0  0  0
    0.2504   -0.2285   -0.8385 H   0  0  0  0  0  0  0  0  0  0  0  0
    1.2543    0.9092    0.0701 H   0  0  0  0  0  0  0  0  0  0  0  0
    0.7685   -0.8812    1.1284 C   0  0  0  0  0  0  0  0  0  0  0  0
   -0.0030   -1.6422    1.1551 H   0  0  0  0  0  0  0  0  0  0  0  0
    0.8839   -0.4629    2.1346 H   0  0  0  0  0  0  0  0  0  0  0  0
    2.0393   -1.6124    0.6860 C   0  0  0  0  0  0  0  0  0  0  0  0
    1.8912   -2.0359   -0.3133 H   0  0  0  0  0  0  0  0  0  0  0  0
    2.8738   -0.9043    0.6387 H   0  0  0  0  0  0  0  0  0  0  0  0
    2.3455   -2.7231    1.6894 C   0  0  0  0  0  0  0  0  0  0  0  0
    2.4808   -2.2800    2.6871 H   0  0  0  0  0  0  0  0  0  0  0  0
    1.4784   -3.3977    1.7530 H   0  0  0  0  0  0  0  0  0  0  0  0
    3.5578   -3.4536    1.2613 N   0  3  0  0  0  0  0  0  0  0  0  0
    4.3507   -2.8118    1.2049 H   0  0  0  0  0  0  0  0  0  0  0  0
    3.7762   -4.1924    1.9335 H   0  0  0  0  0  0  0  0  0  0  0  0
    3.4049   -3.8756    0.3437 H   0  0  0  0  0  0  0  0  0  0  0  0
   -0.8430    2.2807   -0.5589 C   0  0  0  0  0  0  0  0  0  0  0  0
   -1.2441    3.3741   -0.1939 O   0  0  0  0  0  0  0  0  0  0  0  0
   -0.5047    2.1093   -1.8912 N   0  0  0  0  0  0  0  0  0  0  0  0
   -0.3079    1.1660   -2.2099 H   0  0  0  0  0  0  0  0  0  0  0  0
   -0.6028    3.1792   -2.8801 C   0  0  0  0  0  0  0  0  0  0  0  0
    0.0097    4.0365   -2.5801 H   0  0  0  0  0  0  0  0  0  0  0  0
   -0.2499    2.8303   -3.8555 H   0  0  0  0  0  0  0  0  0  0  0  0
   -1.6414    3.5107   -2.9858 H   0  0  0  0  0  0  0  0  0  0  0  0
  1  2  1  0  0  0  0
  2  3  1  0  0  0  0
  2  4  1  0  0  0  0
  2  5  1  0  0  0  0
  5  6  2  0  0  0  0
  5  7  1  0  0  0  0
  7  8  1  0  0  0  0
  7  9  1  0  0  0  0
  9 10  1  0  0  0  0
  9 11  1  0  0  0  0
  9 27  1  0  0  0  0
 11 12  1  0  0  0  0
 11 13  1  0  0  0  0
 11 14  1  0  0  0  0
 14 15  1  0  0  0  0
 14 16  1  0  0  0  0
 14 17  1  0  0  0  0
 17 18  1  0  0  0  0
 17 19  1  0  0  0  0
 17 20  1  0  0  0  0
 20 21  1  0  0  0  0
 20 22  1  0  0  0  0
 20 23  1  0  0  0  0
 23 24  1  0  0  0  0
 23 25  1  0  0  0  0
 23 26  1  0  0  0  0
 27 28  2  0  0  0  0
 27 29  1  0  0  0  0
 29 30  1  0  0  0  0
 29 31  1  0  0  0  0
 31 32  1  0  0  0  0
 31 33  1  0  0  0  0
 31 34  1  0  0  0  0
M  CHG  1  23   1
M  END
$$$$

  -OEChem-01062216093D

 34 33  0     1  0  0  0  0  0999 V2000
   -4.5238   -1.9280    1.0267 H   0  0  0  0  0  0  0  0  0  0  0  0
   -4.2359   -0.9867    0.5496 C   0  0  0  0  0  0  0  0  0  0  0  0
   -4.3395   -1.0965   -0.5325 H   0  0  0  0  0  0  0  0  0  0  0  0
   -4.9107   -0.1995    0.8955 H   0  0  0  0  0  0  0  0  0  0  0  0
   -2.8031   -0.6343    0.9033 C   0  0  0  0  0  0  0  0  0  0  0  0
   -2.2069   -1.3355    1.6977 O   0  0  0  0  0  0  0  0  0  0  0  0
   -2.2755    0.5460    0.4175 N   0  0  0  0  0  0  0  0  0  0  0  0
   -2.9607    1.1204   -0.0710 H   0  0  0  0  0  0  0  0  0  0  0  0
   -0.9051    1.1148    0.4573 C   0  0  1  0  0  0  0  0  0  0  0  0
   -0.7607    1.5471    1.4540 H   0  0  0  0  0  0  0  0  0  0  0  0
    0.3574    0.2505    0.1371 C   0  0  0  0  0  0  0  0  0  0  0  0
    0.2142   -0.2109   -0.8453 H   0  0  0  0  0  0  0  0  0  0  0  0
    1.2138    0.9308    0.0602 H   0  0  0  0  0  0  0  0  0  0  0  0
    0.7484   -0.8644    1.1196 C   0  0  0  0  0  0  0  0  0  0  0  0
   -0.0198   -1.6294    1.1490 H   0  0  0  0  0  0  0  0  0  0  0  0
    0.8673   -0.4461    2.1253 H   0  0  0  0  0  0  0  0  0  0  0  0
    2.0214   -1.5878    0.6696 C   0  0  0  0  0  0  0  0  0  0  0  0
    1.8697   -2.0131   -0.3285 H   0  0  0  0  0  0  0  0  0  0  0  0
    2.8516   -0.8748    0.6169 H   0  0  0  0  0  0  0  0  0  0  0  0
    2.3403   -2.6960    1.6720 C   0  0  0  0  0  0  0  0  0  0  0  0
    2.4790   -2.2511    2.6686 H   0  0  0  0  0  0  0  0  0  0  0  0
    1.4778   -3.3759    1.7420 H   0  0  0  0  0  0  0  0  0  0  0  0
    3.5544   -3.4195    1.2377 N   0  3  0  0  0  0  0  0  0  0  0  0
    4.3428   -2.7726    1.1759 H   0  0  0  0  0  0  0  0  0  0  0  0
    3.7816   -4.1561    1.9095 H   0  0  0  0  0  0  0  0  0  0  0  0
    3.3985   -3.8431    0.3214 H   0  0  0  0  0  0  0  0  0  0  0  0
   -0.8721    2.2698   -0.5692 C   0  0  0  0  0  0  0  0  0  0  0  0
   -0.9294    3.4211   -0.1699 O   0  0  0  0  0  0  0  0  0  0  0  0
   -0.8240    2.0334   -1.9327 N   0  0  0  0  0  0  0  0  0  0  0  0
   -0.8628    1.0685   -2.2463 H   0  0  0  0  0  0  0  0  0  0  0  0
   -0.8638    3.1016   -2.9276 C   0  0  0  0  0  0  0  0  0  0  0  0
   -0.0426    3.8087   -2.7669 H   0  0  0  0  0  0  0  0  0  0  0  0
   -0.7670    2.6871   -3.9358 H   0  0  0  0  0  0  0  0  0  0  0  0
   -1.8117    3.6472   -2.8676 H   0  0  0  0  0  0  0  0  0  0  0  0
  1  2  1  0  0  0  0
  2  3  1  0  0  0  0
  2  4  1  0  0  0  0
  2  5  1  0  0  0  0
  5  6  2  0  0  0  0
  5  7  1  0  0  0  0
  7  8  1  0  0  0  0
  7  9  1  0  0  0  0
  9 10  1  0  0  0  0
  9 11  1  0  0  0  0
  9 27  1  0  0  0  0
 11 12  1  0  0  0  0
 11 13  1  0  0  0  0
 11 14  1  0  0  0  0
 14 15  1  0  0  0  0
 14 16  1  0  0  0  0
 14 17  1  0  0  0  0
 17 18  1  0  0  0  0
 17 19  1  0  0  0  0
 17 20  1  0  0  0  0
 20 21  1  0  0  0  0
 20 22  1  0  0  0  0
 20 23  1  0  0  0  0
 23 24  1  0  0  0  0
 23 25  1  0  0  0  0
 23 26  1  0  0  0  0
 27 28  2  0  0  0  0
 27 29  1  0  0  0  0
 29 30  1  0  0  0  0
 29 31  1  0  0  0  0
 31 32  1  0  0  0  0
 31 33  1  0  0  0  0
 31 34  1  0  0  0  0
M  CHG  1  23   1
M  END
$$$$

  -OEChem-01062216093D

 34 33  0     1  0  0  0  0  0999 V2000
   -4.5154   -1.9465    1.1579 H   0  0  0  0  0  0  0  0  0  0  0  0
   -4.2457   -1.0211    0.6406 C   0  0  0  0  0  0  0  0  0  0  0  0
   -4.3509   -1.1775   -0.4356 H   0  0  0  0  0  0  0  0  0  0  0  0
   -4.9331   -0.2318    0.9555 H   0  0  0  0  0  0  0  0  0  0  0  0
   -2.8181   -0.6299    0.9740 C   0  0  0  0  0  0  0  0  0  0  0  0
   -2.2057   -1.2872    1.7934 O   0  0  0  0  0  0  0  0  0  0  0  0
   -2.3145    0.5440    0.4484 N   0  0  0  0  0  0  0  0  0  0  0  0
   -3.0081    1.0888   -0.0608 H   0  0  0  0  0  0  0  0  0  0  0  0
   -0.9491    1.1269    0.4716 C   0  0  1  0  0  0  0  0  0  0  0  0
   -0.7988    1.5771    1.4592 H   0  0  0  0  0  0  0  0  0  0  0  0
    0.3145    0.2708    0.1391 C   0  0  0  0  0  0  0  0  0  0  0  0
    0.1649   -0.1889   -0.8434 H   0  0  0  0  0  0  0  0  0  0  0  0
    1.1660    0.9565    0.0534 H   0  0  0  0  0  0  0  0  0  0  0  0
    0.7241   -0.8387    1.1186 C   0  0  0  0  0  0  0  0  0  0  0  0
   -0.0393   -1.6093    1.1558 H   0  0  0  0  0  0  0  0  0  0  0  0
    0.8515   -0.4186    2.1224 H   0  0  0  0  0  0  0  0  0  0  0  0
    1.9969   -1.5510    0.6516 C   0  0  0  0  0  0  0  0  0  0  0  0
    1.8365   -1.9761   -0.3453 H   0  0  0  0  0  0  0  0  0  0  0  0
    2.8195   -0.8299    0.5884 H   0  0  0  0  0  0  0  0  0  0  0  0
    2.3406   -2.6564    1.6482 C   0  0  0  0  0  0  0  0  0  0  0  0
    2.4887   -2.2117    2.6435 H   0  0  0  0  0  0  0  0  0  0  0  0
    1.4861   -3.3449    1.7287 H   0  0  0  0  0  0  0  0  0  0  0  0
    3.5555   -3.3661    1.1939 N   0  3  0  0  0  0  0  0  0  0  0  0
    4.3410   -2.7146    1.1433 H   0  0  0  0  0  0  0  0  0  0  0  0
    3.7880   -4.1159    1.8489 H   0  0  0  0  0  0  0  0  0  0  0  0
    3.3985   -3.7703    0.2691 H   0  0  0  0  0  0  0  0  0  0  0  0
   -0.9123    2.2532   -0.5836 C   0  0  0  0  0  0  0  0  0  0  0  0
   -0.6113    3.3857   -0.2440 O   0  0  0  0  0  0  0  0  0  0  0  0
   -1.1631    1.9898   -1.9193 N   0  0  0  0  0  0  0  0  0  0  0  0
   -1.4013    1.0371   -2.1778 H   0  0  0  0  0  0  0  0  0  0  0  0
   -1.1126    3.0150   -2.9572 C   0  0  0  0  0  0  0  0  0  0  0  0
   -0.1147    3.4642   -3.0048 H   0  0  0  0  0  0  0  0  0  0  0  0
   -1.3412    2.5794   -3.9349 H   0  0  0  0  0  0  0  0  0  0  0  0
   -1.8427    3.8054   -2.7517 H   0  0  0  0  0  0  0  0  0  0  0  0
  1  2  1  0  0  0  0
  2  3  1  0  0  0  0
  2  4  1  0  0  0  0
  2  5  1  0  0  0  0
  5  6  2  0  0  0  0
  5  7  1  0  0  0  0
  7  8  1  0  0  0  0
  7  9  1  0  0  0  0
  9 10  1  0  0  0  0
  9 11  1  0  0  0  0
  9 27  1  0  0  0  0
 11 12  1  0  0  0  0
 11 13  1  0  0  0  0
 11 14  1  0  0  0  0
 14 15  1  0  0  0  0
 14 16  1  0  0  0  0
 14 17  1  0  0  0  0
 17 18  1  0  0  0  0
 17 19  1  0  0  0  0
 17 20  1  0  0  0  0
 20 21  1  0  0  0  0
 20 22  1  0  0  0  0
 20 23  1  0  0  0  0
 23 24  1  0  0  0  0
 23 25  1  0  0  0  0
 23 26  1  0  0  0  0
 27 28  2  0  0  0  0
 27 29  1  0  0  0  0
 29 30  1  0  0  0  0
 29 31  1  0  0  0  0
 31 32  1  0  0  0  0
 31 33  1  0  0  0  0
 31 34  1  0  0  0  0
M  CHG  1  23   1
M  END
$$$$

  -OEChem-01062216093D

 34 33  0     1  0  0  0  0  0999 V2000
   -4.4899   -2.0122    1.1211 H   0  0  0  0  0  0  0  0  0  0  0  0
   -4.2486   -1.0545    0.6510 C   0  0  0  0  0  0  0  0  0  0  0  0
   -4.3565   -1.1589   -0.4312 H   0  0  0  0  0  0  0  0  0  0  0  0
   -4.9549   -0.3015    1.0100 H   0  0  0  0  0  0  0  0  0  0  0  0
   -2.8299   -0.6423    0.9978 C   0  0  0  0  0  0  0  0  0  0  0  0
   -2.2171   -1.2881    1.8260 O   0  0  0  0  0  0  0  0  0  0  0  0
   -2.3364    0.5377    0.4758 N   0  0  0  0  0  0  0  0  0  0  0  0
   -3.0353    1.0809   -0.0278 H   0  0  0  0  0  0  0  0  0  0  0  0
   -0.9752    1.1337    0.5110 C   0  0  1  0  0  0  0  0  0  0  0  0
   -0.8276    1.5764    1.5024 H   0  0  0  0  0  0  0  0  0  0  0  0
    0.2875    0.2818    0.1638 C   0  0  0  0  0  0  0  0  0  0  0  0
    0.1340   -0.1583   -0.8273 H   0  0  0  0  0  0  0  0  0  0  0  0
    1.1407    0.9668    0.0882 H   0  0  0  0  0  0  0  0  0  0  0  0
    0.7019   -0.8449    1.1217 C   0  0  0  0  0  0  0  0  0  0  0  0
   -0.0611   -1.6168    1.1477 H   0  0  0  0  0  0  0  0  0  0  0  0
    0.8341   -0.4432    2.1326 H   0  0  0  0  0  0  0  0  0  0  0  0
    1.9742   -1.5457    0.6350 C   0  0  0  0  0  0  0  0  0  0  0  0
    1.8087   -1.9527   -0.3685 H   0  0  0  0  0  0  0  0  0  0  0  0
    2.7945   -0.8215    0.5803 H   0  0  0  0  0  0  0  0  0  0  0  0
    2.3278   -2.6698    1.6067 C   0  0  0  0  0  0  0  0  0  0  0  0
    2.4822   -2.2440    2.6092 H   0  0  0  0  0  0  0  0  0  0  0  0
    1.4762   -3.3628    1.6806 H   0  0  0  0  0  0  0  0  0  0  0  0
    3.5421   -3.3660    1.1297 N   0  3  0  0  0  0  0  0  0  0  0  0
    4.3211   -2.7073    1.0715 H   0  0  0  0  0  0  0  0  0  0  0  0
    3.7910   -4.1180    1.7761 H   0  0  0  0  0  0  0  0  0  0  0  0
    3.3744   -3.7654    0.2047 H   0  0  0  0  0  0  0  0  0  0  0  0
   -0.9249    2.2646   -0.5396 C   0  0  0  0  0  0  0  0  0  0  0  0
   -0.3676    3.3158   -0.2669 O   0  0  0  0  0  0  0  0  0  0  0  0
   -1.4458    2.0810   -1.8093 N   0  0  0  0  0  0  0  0  0  0  0  0
   -1.8140    1.1632   -2.0403 H   0  0  0  0  0  0  0  0  0  0  0  0
   -1.3705    3.0966   -2.8554 C   0  0  0  0  0  0  0  0  0  0  0  0
   -0.3268    3.3077   -3.1117 H   0  0  0  0  0  0  0  0  0  0  0  0
   -1.8861    2.7535   -3.7578 H   0  0  0  0  0  0  0  0  0  0  0  0
   -1.8442    4.0266   -2.5224 H   0  0  0  0  0  0  0  0  0  0  0  0
  1  2  1  0  0  0  0
  2  3  1  0  0  0  0
  2  4  1  0  0  0  0
  2  5  1  0  0  0  0
  5  6  2  0  0  0  0
  5  7  1  0  0  0  0
  7  8  1  0  0  0  0
  7  9  1  0  0  0  0
  9 10  1  0  0  0  0
  9 11  1  0  0  0  0
  9 27  1  0  0  0  0
 11 12  1  0  0  0  0
 11 13  1  0  0  0  0
 11 14  1  0  0  0  0
 14 15  1  0  0  0  0
 14 16  1  0  0  0  0
 14 17  1  0  0  0  0
 17 18  1  0  0  0  0
 17 19  1  0  0  0  0
 17 20  1  0  0  0  0
 20 21  1  0  0  0  0
 20 22  1  0  0  0  0
 20 23  1  0  0  0  0
 23 24  1  0  0  0  0
 23 25  1  0  0  0  0
 23 26  1  0  0  0  0
 27 28  2  0  0  0  0
 27 29  1  0  0  0  0
 29 30  1  0  0  0  0
 29 31  1  0  0  0  0
 31 32  1  0  0  0  0
 31 33  1  0  0  0  0
 31 34  1  0  0  0  0
M  CHG  1  23   1
M  END
$$$$

  -OEChem-01062216093D

 34 33  0     1  0  0  0  0  0999 V2000
   -4.4879   -2.0255    1.1767 H   0  0  0  0  0  0  0  0  0  0  0  0
   -4.2480   -1.0762    0.6887 C   0  0  0  0  0  0  0  0  0  0  0  0
   -4.3555   -1.2017   -0.3914 H   0  0  0  0  0  0  0  0  0  0  0  0
   -4.9558   -0.3179    1.0335 H   0  0  0  0  0  0  0  0  0  0  0  0
   -2.8304   -0.6542    1.0273 C   0  0  0  0  0  0  0  0  0  0  0  0
   -2.2155   -1.2844    1.8659 O   0  0  0  0  0  0  0  0  0  0  0  0
   -2.3469    0.5263    0.4965 N   0  0  0  0  0  0  0  0  0  0  0  0
   -3.0569    1.0743    0.0150 H   0  0  0  0  0  0  0  0  0  0  0  0
   -0.9914    1.1368    0.5342 C   0  0  1  0  0  0  0  0  0  0  0  0
   -0.8452    1.5835    1.5239 H   0  0  0  0  0  0  0  0  0  0  0  0
    0.2694    0.2824    0.1812 C   0  0  0  0  0  0  0  0  0  0  0  0
    0.1117   -0.1504   -0.8125 H   0  0  0  0  0  0  0  0  0  0  0  0
    1.1262    0.9628    0.1079 H   0  0  0  0  0  0  0  0  0  0  0  0
    0.6892   -0.8488    1.1308 C   0  0  0  0  0  0  0  0  0  0  0  0
   -0.0718   -1.6226    1.1558 H   0  0  0  0  0  0  0  0  0  0  0  0
    0.8266   -0.4536    2.1434 H   0  0  0  0  0  0  0  0  0  0  0  0
    1.9589   -1.5430    0.6289 C   0  0  0  0  0  0  0  0  0  0  0  0
    1.7865   -1.9413   -0.3769 H   0  0  0  0  0  0  0  0  0  0  0  0
    2.7769   -0.8160    0.5737 H   0  0  0  0  0  0  0  0  0  0  0  0
    2.3246   -2.6737    1.5878 C   0  0  0  0  0  0  0  0  0  0  0  0
    2.4868   -2.2560    2.5925 H   0  0  0  0  0  0  0  0  0  0  0  0
    1.4765   -3.3705    1.6624 H   0  0  0  0  0  0  0  0  0  0  0  0
    3.5368   -3.3594    1.0911 N   0  3  0  0  0  0  0  0  0  0  0  0
    4.3114   -2.6960    1.0302 H   0  0  0  0  0  0  0  0  0  0  0  0
    3.7970   -4.1160    1.7275 H   0  0  0  0  0  0  0  0  0  0  0  0
    3.3609   -3.7506    0.1639 H   0  0  0  0  0  0  0  0  0  0  0  0
   -0.9327    2.2635   -0.5251 C   0  0  0  0  0  0  0  0  0  0  0  0
   -0.1954    3.2207   -0.3455 O   0  0  0  0  0  0  0  0  0  0  0  0
   -1.6898    2.2025   -1.6839 N   0  0  0  0  0  0  0  0  0  0  0  0
   -2.1654    1.3285   -1.8856 H   0  0  0  0  0  0  0  0  0  0  0  0
   -1.6271    3.2231   -2.7265 C   0  0  0  0  0  0  0  0  0  0  0  0
   -0.6241    3.2645   -3.1646 H   0  0  0  0  0  0  0  0  0  0  0  0
   -2.3445    2.9995   -3.5223 H   0  0  0  0  0  0  0  0  0  0  0  0
   -1.8700    4.2087   -2.3143 H   0  0  0  0  0  0  0  0  0  0  0  0
  1  2  1  0  0  0  0
  2  3  1  0  0  0  0
  2  4  1  0  0  0  0
  2  5  1  0  0  0  0
  5  6  2  0  0  0  0
  5  7  1  0  0  0  0
  7  8  1  0  0  0  0
  7  9  1  0  0  0  0
  9 10  1  0  0  0  0
  9 11  1  0  0  0  0
  9 27  1  0  0  0  0
 11 12  1  0  0  0  0
 11 13  1  0  0  0  0
 11 14  1  0  0  0  0
 14 15  1  0  0  0  0
 14 16  1  0  0  0  0
 14 17  1  0  0  0  0
 17 18  1  0  0  0  0
 17 19  1  0  0  0  0
 17 20  1  0  0  0  0
 20 21  1  0  0  0  0
 20 22  1  0  0  0  0
 20 23  1  0  0  0  0
 23 24  1  0  0  0  0
 23 25  1  0  0  0  0
 23 26  1  0  0  0  0
 27 28  2  0  0  0  0
 27 29  1  0  0  0  0
 29 30  1  0  0  0  0
 29 31  1  0  0  0  0
 31 32  1  0  0  0  0
 31 33  1  0  0  0  0
 31 34  1  0  0  0  0
M  CHG  1  23   1
M  END
$$$$

  -OEChem-01062216093D

 34 33  0     1  0  0  0  0  0999 V2000
   -4.4695   -2.0461    1.2399 H   0  0  0  0  0  0  0  0  0  0  0  0
   -4.2288   -1.1192    0.7111 C   0  0  0  0  0  0  0  0  0  0  0  0
   -4.3199   -1.2961   -0.3632 H   0  0  0  0  0  0  0  0  0  0  0  0
   -4.9460   -0.3507    1.0100 H   0  0  0  0  0  0  0  0  0  0  0  0
   -2.8185   -0.6734    1.0490 C   0  0  0  0  0  0  0  0  0  0  0  0
   -2.2021   -1.2792    1.9041 O   0  0  0  0  0  0  0  0  0  0  0  0
   -2.3500    0.5067    0.5038 N   0  0  0  0  0  0  0  0  0  0  0  0
   -3.0761    1.0534    0.0475 H   0  0  0  0  0  0  0  0  0  0  0  0
   -1.0018    1.1364    0.5289 C   0  0  1  0  0  0  0  0  0  0  0  0
   -0.8532    1.5923    1.5139 H   0  0  0  0  0  0  0  0  0  0  0  0
    0.2588    0.2750    0.1798 C   0  0  0  0  0  0  0  0  0  0  0  0
    0.0921   -0.1709   -0.8067 H   0  0  0  0  0  0  0  0  0  0  0  0
    1.1188    0.9489    0.0901 H   0  0  0  0  0  0  0  0  0  0  0  0
    0.6893   -0.8432    1.1402 C   0  0  0  0  0  0  0  0  0  0  0  0
   -0.0677   -1.6200    1.1809 H   0  0  0  0  0  0  0  0  0  0  0  0
    0.8344   -0.4348    2.1466 H   0  0  0  0  0  0  0  0  0  0  0  0
    1.9554   -1.5415    0.6359 C   0  0  0  0  0  0  0  0  0  0  0  0
    1.7740   -1.9537   -0.3628 H   0  0  0  0  0  0  0  0  0  0  0  0
    2.7718   -0.8145    0.5633 H   0  0  0  0  0  0  0  0  0  0  0  0
    2.3308   -2.6583    1.6068 C   0  0  0  0  0  0  0  0  0  0  0  0
    2.5023   -2.2260    2.6038 H   0  0  0  0  0  0  0  0  0  0  0  0
    1.4841   -3.3550    1.6998 H   0  0  0  0  0  0  0  0  0  0  0  0
    3.5396   -3.3486    1.1086 N   0  3  0  0  0  0  0  0  0  0  0  0
    4.3132   -2.6852    1.0341 H   0  0  0  0  0  0  0  0  0  0  0  0
    3.8050   -4.0976    1.7517 H   0  0  0  0  0  0  0  0  0  0  0  0
    3.3569   -3.7505    0.1875 H   0  0  0  0  0  0  0  0  0  0  0  0
   -0.9469    2.2575   -0.5422 C   0  0  0  0  0  0  0  0  0  0  0  0
   -0.0817    3.1179   -0.4682 O   0  0  0  0  0  0  0  0  0  0  0  0
   -1.8979    2.3565   -1.5461 N   0  0  0  0  0  0  0  0  0  0  0  0
   -2.4776    1.5419   -1.7179 H   0  0  0  0  0  0  0  0  0  0  0  0
   -1.8683    3.4090   -2.5583 C   0  0  0  0  0  0  0  0  0  0  0  0
   -0.9578    3.3370   -3.1626 H   0  0  0  0  0  0  0  0  0  0  0  0
   -2.7335    3.3225   -3.2228 H   0  0  0  0  0  0  0  0  0  0  0  0
   -1.8978    4.3968   -2.0855 H   0  0  0  0  0  0  0  0  0  0  0  0
  1  2  1  0  0  0  0
  2  3  1  0  0  0  0
  2  4  1  0  0  0  0
  2  5  1  0  0  0  0
  5  6  2  0  0  0  0
  5  7  1  0  0  0  0
  7  8  1  0  0  0  0
  7  9  1  0  0  0  0
  9 10  1  0  0  0  0
  9 11  1  0  0  0  0
  9 27  1  0  0  0  0
 11 12  1  0  0  0  0
 11 13  1  0  0  0  0
 11 14  1  0  0  0  0
 14 15  1  0  0  0  0
 14 16  1  0  0  0  0
 14 17  1  0  0  0  0
 17 18  1  0  0  0  0
 17 19  1  0  0  0  0
 17 20  1  0  0  0  0
 20 21  1  0  0  0  0
 20 22  1  0  0  0  0
 20 23  1  0  0  0  0
 23 24  1  0  0  0  0
 23 25  1  0  0  0  0
 23 26  1  0  0  0  0
 27 28  2  0  0  0  0
 27 29  1  0  0  0  0
 29 30  1  0  0  0  0
 29 31  1  0  0  0  0
 31 32  1  0  0  0  0
 31 33  1  0  0  0  0
 31 34  1  0  0  0  0
M  CHG  1  23   1
M  END
$$$$

  -OEChem-01062216093D

 34 33  0     1  0  0  0  0  0999 V2000
   -4.3716   -2.1234    1.3011 H   0  0  0  0  0  0  0  0  0  0  0  0
   -4.1603   -1.2027    0.7493 C   0  0  0  0  0  0  0  0  0  0  0  0
   -4.2127   -1.4167   -0.3208 H   0  0  0  0  0  0  0  0  0  0  0  0
   -4.9214   -0.4612    1.0046 H   0  0  0  0  0  0  0  0  0  0  0  0
   -2.7820   -0.6805    1.1094 C   0  0  0  0  0  0  0  0  0  0  0  0
   -2.1699   -1.2178    2.0126 O   0  0  0  0  0  0  0  0  0  0  0  0
   -2.3489    0.5025    0.5418 N   0  0  0  0  0  0  0  0  0  0  0  0
   -3.0842    1.0021    0.0528 H   0  0  0  0  0  0  0  0  0  0  0  0
   -1.0095    1.1535    0.5412 C   0  0  1  0  0  0  0  0  0  0  0  0
   -0.8487    1.6168    1.5205 H   0  0  0  0  0  0  0  0  0  0  0  0
    0.2409    0.2745    0.1808 C   0  0  0  0  0  0  0  0  0  0  0  0
    0.0533   -0.1788   -0.7986 H   0  0  0  0  0  0  0  0  0  0  0  0
    1.1091    0.9337    0.0716 H   0  0  0  0  0  0  0  0  0  0  0  0
    0.6865   -0.8351    1.1444 C   0  0  0  0  0  0  0  0  0  0  0  0
   -0.0725   -1.6085    1.2082 H   0  0  0  0  0  0  0  0  0  0  0  0
    0.8548   -0.4164    2.1428 H   0  0  0  0  0  0  0  0  0  0  0  0
    1.9381   -1.5456    0.6196 C   0  0  0  0  0  0  0  0  0  0  0  0
    1.7329   -1.9679   -0.3704 H   0  0  0  0  0  0  0  0  0  0  0  0
    2.7562   -0.8234    0.5200 H   0  0  0  0  0  0  0  0  0  0  0  0
    2.3304   -2.6539    1.5936 C   0  0  0  0  0  0  0  0  0  0  0  0
    2.5250   -2.2127    2.5823 H   0  0  0  0  0  0  0  0  0  0  0  0
    1.4829   -3.3454    1.7118 H   0  0  0  0  0  0  0  0  0  0  0  0
    3.5244   -3.3558    1.0761 N   0  3  0  0  0  0  0  0  0  0  0  0
    4.3009   -2.6982    0.9821 H   0  0  0  0  0  0  0  0  0  0  0  0
    3.7975   -4.1027    1.7184 H   0  0  0  0  0  0  0  0  0  0  0  0
    3.3207   -3.7618    0.1612 H   0  0  0  0  0  0  0  0  0  0  0  0
   -0.9681    2.2735   -0.5407 C   0  0  0  0  0  0  0  0  0  0  0  0
    0.0065    3.0095   -0.6135 O   0  0  0  0  0  0  0  0  0  0  0  0
   -2.0549    2.5657   -1.3524 N   0  0  0  0  0  0  0  0  0  0  0  0
   -2.7909    1.8742   -1.4235 H   0  0  0  0  0  0  0  0  0  0  0  0
   -2.0402    3.6509   -2.3306 C   0  0  0  0  0  0  0  0  0  0  0  0
   -1.2727    3.4731   -3.0915 H   0  0  0  0  0  0  0  0  0  0  0  0
   -3.0116    3.7271   -2.8288 H   0  0  0  0  0  0  0  0  0  0  0  0
   -1.8320    4.6083   -1.8402 H   0  0  0  0  0  0  0  0  0  0  0  0
  1  2  1  0  0  0  0
  2  3  1  0  0  0  0
  2  4  1  0  0  0  0
  2  5  1  0  0  0  0
  5  6  2  0  0  0  0
  5  7  1  0  0  0  0
  7  8  1  0  0  0  0
  7  9  1  0  0  0  0
  9 10  1  0  0  0  0
  9 11  1  0  0  0  0
  9 27  1  0  0  0  0
 11 12  1  0  0  0  0
 11 13  1  0  0  0  0
 11 14  1  0  0  0  0
 14 15  1  0  0  0  0
 14 16  1  0  0  0  0
 14 17  1  0  0  0  0
 17 18  1  0  0  0  0
 17 19  1  0  0  0  0
 17 20  1  0  0  0  0
 20 21  1  0  0  0  0
 20 22  1  0  0  0  0
 20 23  1  0  0  0  0
 23 24  1  0  0  0  0
 23 25  1  0  0  0  0
 23 26  1  0  0  0  0
 27 28  2  0  0  0  0
 27 29  1  0  0  0  0
 29 30  1  0  0  0  0
 29 31  1  0  0  0  0
 31 32  1  0  0  0  0
 31 33  1  0  0  0  0
 31 34  1  0  0  0  0
M  CHG  1  23   1
M  END
$$$$

  -OEChem-01062216093D

 34 33  0     1  0  0  0  0  0999 V2000
   -2.9023   -2.5827    1.0750 H   0  0  0  0  0  0  0  0  0  0  0  0
   -2.9048   -1.7111    0.4152 C   0  0  0  0  0  0  0  0  0  0  0  0
   -2.1503   -1.8502   -0.3616 H   0  0  0  0  0  0  0  0  0  0  0  0
   -3.8864   -1.6310   -0.0584 H   0  0  0  0  0  0  0  0  0  0  0  0
   -2.6177   -0.4512    1.2124 C   0  0  0  0  0  0  0  0  0  0  0  0
   -2.6429   -0.4467    2.4281 O   0  0  0  0  0  0  0  0  0  0  0  0
   -2.3705    0.7474    0.5973 N   0  0  0  0  0  0  0  0  0  0  0  0
   -2.9069    1.4424    1.1152 H   0  0  0  0  0  0  0  0  0  0  0  0
   -0.9990    1.2644    0.3571 C   0  0  1  0  0  0  0  0  0  0  0  0
   -0.6749    1.7264    1.2960 H   0  0  0  0  0  0  0  0  0  0  0  0
    0.1066    0.2278   -0.0154 C   0  0  0  0  0  0  0  0  0  0  0  0
   -0.2320   -0.3338   -0.8921 H   0  0  0  0  0  0  0  0  0  0  0  0
    1.0138    0.7663   -0.3094 H   0  0  0  0  0  0  0  0  0  0  0  0
    0.5193   -0.7557    1.1002 C   0  0  0  0  0  0  0  0  0  0  0  0
   -0.3157   -1.3726    1.4290 H   0  0  0  0  0  0  0  0  0  0  0  0
    0.8706   -0.1850    1.9673 H   0  0  0  0  0  0  0  0  0  0  0  0
    1.6268   -1.6914    0.6025 C   0  0  0  0  0  0  0  0  0  0  0  0
    1.2731   -2.2369   -0.2793 H   0  0  0  0  0  0  0  0  0  0  0  0
    2.5001   -1.0988    0.3077 H   0  0  0  0  0  0  0  0  0  0  0  0
    2.0102   -2.6752    1.7062 C   0  0  0  0  0  0  0  0  0  0  0  0
    2.3606   -2.1129    2.5844 H   0  0  0  0  0  0  0  0  0  0  0  0
    1.1171   -3.2365    2.0180 H   0  0  0  0  0  0  0  0  0  0  0  0
    3.0620   -3.5843    1.2013 N   0  3  0  0  0  0  0  0  0  0  0  0
    3.8842   -3.0445    0.9228 H   0  0  0  0  0  0  0  0  0  0  0  0
    3.3334   -4.2478    1.9305 H   0  0  0  0  0  0  0  0  0  0  0  0
    2.7173   -4.1038    0.3918 H   0  0  0  0  0  0  0  0  0  0  0  0
   -1.0225    2.4271   -0.6722 C   0  0  0  0  0  0  0  0  0  0  0  0
    0.0184    2.8468   -1.1584 O   0  0  0  0  0  0  0  0  0  0  0  0
   -2.2080    3.0585   -1.0053 N   0  0  0  0  0  0  0  0  0  0  0  0
   -3.0691    2.6249   -0.6863 H   0  0  0  0  0  0  0  0  0  0  0  0
   -2.2902    4.1528   -1.9678 C   0  0  0  0  0  0  0  0  0  0  0  0
   -1.9938    3.8106   -2.9650 H   0  0  0  0  0  0  0  0  0  0  0  0
   -3.3145    4.5346   -2.0221 H   0  0  0  0  0  0  0  0  0  0  0  0
   -1.6335    4.9772   -1.6697 H   0  0  0  0  0  0  0  0  0  0  0  0
  1  2  1  0  0  0  0
  2  3  1  0  0  0  0
  2  4  1  0  0  0  0
  2  5  1  0  0  0  0
  5  6  2  0  0  0  0
  5  7  1  0  0  0  0
  7  8  1  0  0  0  0
  7  9  1  0  0  0  0
  9 10  1  0  0  0  0
  9 11  1  0  0  0  0
  9 27  1  0  0  0  0
 11 12  1  0  0  0  0
 11 13  1  0  0  0  0
 11 14  1  0  0  0  0
 14 15  1  0  0  0  0
 14 16  1  0  0  0  0
 14 17  1  0  0  0  0
 17 18  1  0  0  0  0
 17 19  1  0  0  0  0
 17 20  1  0  0  0  0
 20 21  1  0  0  0  0
 20 22  1  0  0  0  0
 20 23  1  0  0  0  0
 23 24  1  0  0  0  0
 23 25  1  0  0  0  0
 23 26  1  0  0  0  0
 27 28  2  0  0  0  0
 27 29  1  0  0  0  0
 29 30  1  0  0  0  0
 29 31  1  0  0  0  0
 31 32  1  0  0  0  0
 31 33  1  0  0  0  0
 31 34  1  0  0  0  0
M  CHG  1  23   1
M  END
$$$$

  -OEChem-01062216093D

 34 33  0     1  0  0  0  0  0999 V2000
   -3.0031   -2.5664    1.0945 H   0  0  0  0  0  0  0  0  0  0  0  0
   -2.9252   -1.7055    0.4251 C   0  0  0  0  0  0  0  0  0  0  0  0
   -2.1384   -1.8933   -0.3085 H   0  0  0  0  0  0  0  0  0  0  0  0
   -3.8745   -1.5821   -0.1022 H   0  0  0  0  0  0  0  0  0  0  0  0
   -2.6160   -0.4507    1.2213 C   0  0  0  0  0  0  0  0  0  0  0  0
   -2.6005   -0.4527    2.4376 O   0  0  0  0  0  0  0  0  0  0  0  0
   -2.3742    0.7481    0.6055 N   0  0  0  0  0  0  0  0  0  0  0  0
   -2.9175    1.4390    1.1190 H   0  0  0  0  0  0  0  0  0  0  0  0
   -1.0045    1.2685    0.3663 C   0  0  1  0  0  0  0  0  0  0  0  0
   -0.6792    1.7317    1.3041 H   0  0  0  0  0  0  0  0  0  0  0  0
    0.1027    0.2310   -0.0054 C   0  0  0  0  0  0  0  0  0  0  0  0
   -0.2338   -0.3283   -0.8847 H   0  0  0  0  0  0  0  0  0  0  0  0
    1.0102    0.7722   -0.2944 H   0  0  0  0  0  0  0  0  0  0  0  0
    0.5191   -0.7551    1.1071 C   0  0  0  0  0  0  0  0  0  0  0  0
   -0.3141   -1.3756    1.4332 H   0  0  0  0  0  0  0  0  0  0  0  0
    0.8692   -0.1867    1.9761 H   0  0  0  0  0  0  0  0  0  0  0  0
    1.6273   -1.6884    0.6058 C   0  0  0  0  0  0  0  0  0  0  0  0
    1.2728   -2.2324   -0.2768 H   0  0  0  0  0  0  0  0  0  0  0  0
    2.4995   -1.0940    0.3112 H   0  0  0  0  0  0  0  0  0  0  0  0
    2.0139   -2.6747    1.7066 C   0  0  0  0  0  0  0  0  0  0  0  0
    2.3642   -2.1152    2.5867 H   0  0  0  0  0  0  0  0  0  0  0  0
    1.1217   -3.2384    2.0170 H   0  0  0  0  0  0  0  0  0  0  0  0
    3.0662   -3.5814    1.1982 N   0  3  0  0  0  0  0  0  0  0  0  0
    3.8886   -3.0410    0.9217 H   0  0  0  0  0  0  0  0  0  0  0  0
    3.3371   -4.2478    1.9250 H   0  0  0  0  0  0  0  0  0  0  0  0
    2.7214   -4.0975    0.3866 H   0  0  0  0  0  0  0  0  0  0  0  0
   -1.0443    2.4310   -0.6662 C   0  0  0  0  0  0  0  0  0  0  0  0
   -0.0730    2.6868   -1.3649 O   0  0  0  0  0  0  0  0  0  0  0  0
   -2.1562    3.2496   -0.7698 N   0  0  0  0  0  0  0  0  0  0  0  0
   -2.9934    2.9675   -0.2711 H   0  0  0  0  0  0  0  0  0  0  0  0
   -2.2530    4.3526   -1.7218 C   0  0  0  0  0  0  0  0  0  0  0  0
   -2.2311    3.9762   -2.7500 H   0  0  0  0  0  0  0  0  0  0  0  0
   -3.1884    4.9009   -1.5731 H   0  0  0  0  0  0  0  0  0  0  0  0
   -1.4216    5.0526   -1.5862 H   0  0  0  0  0  0  0  0  0  0  0  0
  1  2  1  0  0  0  0
  2  3  1  0  0  0  0
  2  4  1  0  0  0  0
  2  5  1  0  0  0  0
  5  6  2  0  0  0  0
  5  7  1  0  0  0  0
  7  8  1  0  0  0  0
  7  9  1  0  0  0  0
  9 10  1  0  0  0  0
  9 11  1  0  0  0  0
  9 27  1  0  0  0  0
 11 12  1  0  0  0  0
 11 13  1  0  0  0  0
 11 14  1  0  0  0  0
 14 15  1  0  0  0  0
 14 16  1  0  0  0  0
 14 17  1  0  0  0  0
 17 18  1  0  0  0  0
 17 19  1  0  0  0  0
 17 20  1  0  0  0  0
 20 21  1  0  0  0  0
 20 22  1  0  0  0  0
 20 23  1  0  0  0  0
 23 24  1  0  0  0  0
 23 25  1  0  0  0  0
 23 26  1  0  0  0  0
 27 28  2  0  0  0  0
 27 29  1  0  0  0  0
 29 30  1  0  0  0  0
 29 31  1  0  0  0  0
 31 32  1  0  0  0  0
 31 33  1  0  0  0  0
 31 34  1  0  0  0  0
M  CHG  1  23   1
M  END
$$$$

  -OEChem-01062216093D

 34 33  0     1  0  0  0  0  0999 V2000
   -4.1496   -2.1647    1.1645 H   0  0  0  0  0  0  0  0  0  0  0  0
   -3.9621   -1.2376    0.6154 C   0  0  0  0  0  0  0  0  0  0  0  0
   -3.8557   -1.4736   -0.4462 H   0  0  0  0  0  0  0  0  0  0  0  0
   -4.8186   -0.5723    0.7500 H   0  0  0  0  0  0  0  0  0  0  0  0
   -2.7012   -0.5700    1.1305 C   0  0  0  0  0  0  0  0  0  0  0  0
   -2.1716   -0.9899    2.1443 O   0  0  0  0  0  0  0  0  0  0  0  0
   -2.2863    0.6197    0.5691 N   0  0  0  0  0  0  0  0  0  0  0  0
   -2.8773    0.9112   -0.2078 H   0  0  0  0  0  0  0  0  0  0  0  0
   -0.9254    1.2131    0.5541 C   0  0  1  0  0  0  0  0  0  0  0  0
   -0.7297    1.6659    1.5314 H   0  0  0  0  0  0  0  0  0  0  0  0
    0.2825    0.2833    0.1889 C   0  0  0  0  0  0  0  0  0  0  0  0
    0.0738   -0.1693   -0.7869 H   0  0  0  0  0  0  0  0  0  0  0  0
    1.1697    0.9164    0.0745 H   0  0  0  0  0  0  0  0  0  0  0  0
    0.6811   -0.8362    1.1619 C   0  0  0  0  0  0  0  0  0  0  0  0
   -0.1182   -1.5686    1.2442 H   0  0  0  0  0  0  0  0  0  0  0  0
    0.8794   -0.4156    2.1538 H   0  0  0  0  0  0  0  0  0  0  0  0
    1.8975   -1.6017    0.6313 C   0  0  0  0  0  0  0  0  0  0  0  0
    1.6655   -2.0183   -0.3553 H   0  0  0  0  0  0  0  0  0  0  0  0
    2.7431   -0.9138    0.5205 H   0  0  0  0  0  0  0  0  0  0  0  0
    2.2581   -2.7228    1.6023 C   0  0  0  0  0  0  0  0  0  0  0  0
    2.4829   -2.2895    2.5880 H   0  0  0  0  0  0  0  0  0  0  0  0
    1.3869   -3.3821    1.7315 H   0  0  0  0  0  0  0  0  0  0  0  0
    3.4177   -3.4677    1.0667 N   0  3  0  0  0  0  0  0  0  0  0  0
    4.2161   -2.8388    0.9606 H   0  0  0  0  0  0  0  0  0  0  0  0
    3.6733   -4.2249    1.7039 H   0  0  0  0  0  0  0  0  0  0  0  0
    3.1853   -3.8648    0.1545 H   0  0  0  0  0  0  0  0  0  0  0  0
   -0.9571    2.3453   -0.5147 C   0  0  0  0  0  0  0  0  0  0  0  0
   -0.1140    2.4551   -1.3960 O   0  0  0  0  0  0  0  0  0  0  0  0
   -2.0324    3.2177   -0.5317 N   0  0  0  0  0  0  0  0  0  0  0  0
   -2.6607    3.1911    0.2677 H   0  0  0  0  0  0  0  0  0  0  0  0
   -2.1438    4.3332   -1.4678 C   0  0  0  0  0  0  0  0  0  0  0  0
   -2.0925    3.9761   -2.5022 H   0  0  0  0  0  0  0  0  0  0  0  0
   -3.0993    4.8495   -1.3317 H   0  0  0  0  0  0  0  0  0  0  0  0
   -1.3348    5.0532   -1.3049 H   0  0  0  0  0  0  0  0  0  0  0  0
  1  2  1  0  0  0  0
  2  3  1  0  0  0  0
  2  4  1  0  0  0  0
  2  5  1  0  0  0  0
  5  6  2  0  0  0  0
  5  7  1  0  0  0  0
  7  8  1  0  0  0  0
  7  9  1  0  0  0  0
  9 10  1  0  0  0  0
  9 11  1  0  0  0  0
  9 27  1  0  0  0  0
 11 12  1  0  0  0  0
 11 13  1  0  0  0  0
 11 14  1  0  0  0  0
 14 15  1  0  0  0  0
 14 16  1  0  0  0  0
 14 17  1  0  0  0  0
 17 18  1  0  0  0  0
 17 19  1  0  0  0  0
 17 20  1  0  0  0  0
 20 21  1  0  0  0  0
 20 22  1  0  0  0  0
 20 23  1  0  0  0  0
 23 24  1  0  0  0  0
 23 25  1  0  0  0  0
 23 26  1  0  0  0  0
 27 28  2  0  0  0  0
 27 29  1  0  0  0  0
 29 30  1  0  0  0  0
 29 31  1  0  0  0  0
 31 32  1  0  0  0  0
 31 33  1  0  0  0  0
 31 34  1  0  0  0  0
M  CHG  1  23   1
M  END
$$$$

  -OEChem-01062216093D

 34 33  0     1  0  0  0  0  0999 V2000
   -4.1662   -2.1505    1.1508 H   0  0  0  0  0  0  0  0  0  0  0  0
   -3.9530   -1.2403    0.5830 C   0  0  0  0  0  0  0  0  0  0  0  0
   -3.8161   -1.5059   -0.4681 H   0  0  0  0  0  0  0  0  0  0  0  0
   -4.8066   -0.5637    0.6728 H   0  0  0  0  0  0  0  0  0  0  0  0
   -2.7013   -0.5713    1.1180 C   0  0  0  0  0  0  0  0  0  0  0  0
   -2.1770   -1.0007    2.1309 O   0  0  0  0  0  0  0  0  0  0  0  0
   -2.2840    0.6241    0.5714 N   0  0  0  0  0  0  0  0  0  0  0  0
   -2.8733    0.9293   -0.2016 H   0  0  0  0  0  0  0  0  0  0  0  0
   -0.9246    1.2166    0.5739 C   0  0  1  0  0  0  0  0  0  0  0  0
   -0.7341    1.6563    1.5583 H   0  0  0  0  0  0  0  0  0  0  0  0
    0.2874    0.2957    0.2034 C   0  0  0  0  0  0  0  0  0  0  0  0
    0.0839   -0.1503   -0.7767 H   0  0  0  0  0  0  0  0  0  0  0  0
    1.1700    0.9368    0.0951 H   0  0  0  0  0  0  0  0  0  0  0  0
    0.6799   -0.8361    1.1641 C   0  0  0  0  0  0  0  0  0  0  0  0
   -0.1200   -1.5701    1.2280 H   0  0  0  0  0  0  0  0  0  0  0  0
    0.8677   -0.4288    2.1636 H   0  0  0  0  0  0  0  0  0  0  0  0
    1.9011   -1.5952    0.6361 C   0  0  0  0  0  0  0  0  0  0  0  0
    1.6784   -2.0002   -0.3575 H   0  0  0  0  0  0  0  0  0  0  0  0
    2.7481   -0.9065    0.5417 H   0  0  0  0  0  0  0  0  0  0  0  0
    2.2499   -2.7270    1.5995 C   0  0  0  0  0  0  0  0  0  0  0  0
    2.4653   -2.3028    2.5913 H   0  0  0  0  0  0  0  0  0  0  0  0
    1.3759   -3.3855    1.7141 H   0  0  0  0  0  0  0  0  0  0  0  0
    3.4140   -3.4704    1.0717 N   0  3  0  0  0  0  0  0  0  0  0  0
    4.2132   -2.8415    0.9721 H   0  0  0  0  0  0  0  0  0  0  0  0
    3.6649   -4.2286    1.7099 H   0  0  0  0  0  0  0  0  0  0  0  0
    3.1881   -3.8667    0.1574 H   0  0  0  0  0  0  0  0  0  0  0  0
   -0.9496    2.3567   -0.4824 C   0  0  0  0  0  0  0  0  0  0  0  0
   -0.2751    2.3319   -1.5042 O   0  0  0  0  0  0  0  0  0  0  0  0
   -1.8398    3.4014   -0.3111 N   0  0  0  0  0  0  0  0  0  0  0  0
   -2.3768    3.4241    0.5523 H   0  0  0  0  0  0  0  0  0  0  0  0
   -1.9564    4.5206   -1.2413 C   0  0  0  0  0  0  0  0  0  0  0  0
   -2.2425    4.1651   -2.2371 H   0  0  0  0  0  0  0  0  0  0  0  0
   -2.7196    5.2247   -0.8950 H   0  0  0  0  0  0  0  0  0  0  0  0
   -1.0036    5.0555   -1.3197 H   0  0  0  0  0  0  0  0  0  0  0  0
  1  2  1  0  0  0  0
  2  3  1  0  0  0  0
  2  4  1  0  0  0  0
  2  5  1  0  0  0  0
  5  6  2  0  0  0  0
  5  7  1  0  0  0  0
  7  8  1  0  0  0  0
  7  9  1  0  0  0  0
  9 10  1  0  0  0  0
  9 11  1  0  0  0  0
  9 27  1  0  0  0  0
 11 12  1  0  0  0  0
 11 13  1  0  0  0  0
 11 14  1  0  0  0  0
 14 15  1  0  0  0  0
 14 16  1  0  0  0  0
 14 17  1  0  0  0  0
 17 18  1  0  0  0  0
 17 19  1  0  0  0  0
 17 20  1  0  0  0  0
 20 21  1  0  0  0  0
 20 22  1  0  0  0  0
 20 23  1  0  0  0  0
 23 24  1  0  0  0  0
 23 25  1  0  0  0  0
 23 26  1  0  0  0  0
 27 28  2  0  0  0  0
 27 29  1  0  0  0  0
 29 30  1  0  0  0  0
 29 31  1  0  0  0  0
 31 32  1  0  0  0  0
 31 33  1  0  0  0  0
 31 34  1  0  0  0  0
M  CHG  1  23   1
M  END
$$$$

  -OEChem-01062216093D

 34 33  0     1  0  0  0  0  0999 V2000
   -4.1489   -2.1766    1.0496 H   0  0  0  0  0  0  0  0  0  0  0  0
   -3.9533   -1.2371    0.5247 C   0  0  0  0  0  0  0  0  0  0  0  0
   -3.8180   -1.4507   -0.5383 H   0  0  0  0  0  0  0  0  0  0  0  0
   -4.8172   -0.5792    0.6489 H   0  0  0  0  0  0  0  0  0  0  0  0
   -2.7102   -0.5722    1.0849 C   0  0  0  0  0  0  0  0  0  0  0  0
   -2.2020   -1.0070    2.1041 O   0  0  0  0  0  0  0  0  0  0  0  0
   -2.2830    0.6251    0.5507 N   0  0  0  0  0  0  0  0  0  0  0  0
   -2.8533    0.9296   -0.2368 H   0  0  0  0  0  0  0  0  0  0  0  0
   -0.9258    1.2176    0.5827 C   0  0  1  0  0  0  0  0  0  0  0  0
   -0.7539    1.6497    1.5737 H   0  0  0  0  0  0  0  0  0  0  0  0
    0.2956    0.3053    0.2261 C   0  0  0  0  0  0  0  0  0  0  0  0
    0.1076   -0.1414   -0.7569 H   0  0  0  0  0  0  0  0  0  0  0  0
    1.1748    0.9523    0.1280 H   0  0  0  0  0  0  0  0  0  0  0  0
    0.6724   -0.8328    1.1856 C   0  0  0  0  0  0  0  0  0  0  0  0
   -0.1280   -1.5683    1.2290 H   0  0  0  0  0  0  0  0  0  0  0  0
    0.8400   -0.4329    2.1917 H   0  0  0  0  0  0  0  0  0  0  0  0
    1.9060   -1.5844    0.6754 C   0  0  0  0  0  0  0  0  0  0  0  0
    1.7041   -1.9823   -0.3255 H   0  0  0  0  0  0  0  0  0  0  0  0
    2.7530   -0.8931    0.6031 H   0  0  0  0  0  0  0  0  0  0  0  0
    2.2391   -2.7227    1.6366 C   0  0  0  0  0  0  0  0  0  0  0  0
    2.4330   -2.3057    2.6358 H   0  0  0  0  0  0  0  0  0  0  0  0
    1.3654   -3.3852    1.7277 H   0  0  0  0  0  0  0  0  0  0  0  0
    3.4156   -3.4589    1.1262 N   0  3  0  0  0  0  0  0  0  0  0  0
    4.2156   -2.8280    1.0501 H   0  0  0  0  0  0  0  0  0  0  0  0
    3.6542   -4.2233    1.7616 H   0  0  0  0  0  0  0  0  0  0  0  0
    3.2101   -3.8463    0.2033 H   0  0  0  0  0  0  0  0  0  0  0  0
   -0.9249    2.3598   -0.4671 C   0  0  0  0  0  0  0  0  0  0  0  0
   -0.4648    2.2115   -1.5921 O   0  0  0  0  0  0  0  0  0  0  0  0
   -1.5713    3.5450   -0.1690 N   0  0  0  0  0  0  0  0  0  0  0  0
   -1.9989    3.6322    0.7496 H   0  0  0  0  0  0  0  0  0  0  0  0
   -1.6947    4.6535   -1.1104 C   0  0  0  0  0  0  0  0  0  0  0  0
   -2.2620    4.3452   -1.9951 H   0  0  0  0  0  0  0  0  0  0  0  0
   -2.2163    5.4938   -0.6416 H   0  0  0  0  0  0  0  0  0  0  0  0
   -0.7052    4.9977   -1.4299 H   0  0  0  0  0  0  0  0  0  0  0  0
  1  2  1  0  0  0  0
  2  3  1  0  0  0  0
  2  4  1  0  0  0  0
  2  5  1  0  0  0  0
  5  6  2  0  0  0  0
  5  7  1  0  0  0  0
  7  8  1  0  0  0  0
  7  9  1  0  0  0  0
  9 10  1  0  0  0  0
  9 11  1  0  0  0  0
  9 27  1  0  0  0  0
 11 12  1  0  0  0  0
 11 13  1  0  0  0  0
 11 14  1  0  0  0  0
 14 15  1  0  0  0  0
 14 16  1  0  0  0  0
 14 17  1  0  0  0  0
 17 18  1  0  0  0  0
 17 19  1  0  0  0  0
 17 20  1  0  0  0  0
 20 21  1  0  0  0  0
 20 22  1  0  0  0  0
 20 23  1  0  0  0  0
 23 24  1  0  0  0  0
 23 25  1  0  0  0  0
 23 26  1  0  0  0  0
 27 28  2  0  0  0  0
 27 29  1  0  0  0  0
 29 30  1  0  0  0  0
 29 31  1  0  0  0  0
 31 32  1  0  0  0  0
 31 33  1  0  0  0  0
 31 34  1  0  0  0  0
M  CHG  1  23   1
M  END
$$$$

  -OEChem-01062216093D

 34 33  0     1  0  0  0  0  0999 V2000
   -4.1647   -2.1302    1.1004 H   0  0  0  0  0  0  0  0  0  0  0  0
   -3.9307   -1.2275    0.5289 C   0  0  0  0  0  0  0  0  0  0  0  0
   -3.7557   -1.5063   -0.5131 H   0  0  0  0  0  0  0  0  0  0  0  0
   -4.7868   -0.5499    0.5788 H   0  0  0  0  0  0  0  0  0  0  0  0
   -2.6991   -0.5502    1.0996 C   0  0  0  0  0  0  0  0  0  0  0  0
   -2.1949   -0.9781    2.1243 O   0  0  0  0  0  0  0  0  0  0  0  0
   -2.2690    0.6434    0.5602 N   0  0  0  0  0  0  0  0  0  0  0  0
   -2.8240    0.9347   -0.2435 H   0  0  0  0  0  0  0  0  0  0  0  0
   -0.9111    1.2312    0.5987 C   0  0  1  0  0  0  0  0  0  0  0  0
   -0.7392    1.6586    1.5917 H   0  0  0  0  0  0  0  0  0  0  0  0
    0.3066    0.3200    0.2326 C   0  0  0  0  0  0  0  0  0  0  0  0
    0.1181   -0.1197   -0.7533 H   0  0  0  0  0  0  0  0  0  0  0  0
    1.1878    0.9650    0.1390 H   0  0  0  0  0  0  0  0  0  0  0  0
    0.6724   -0.8272    1.1856 C   0  0  0  0  0  0  0  0  0  0  0  0
   -0.1345   -1.5563    1.2193 H   0  0  0  0  0  0  0  0  0  0  0  0
    0.8364   -0.4356    2.1956 H   0  0  0  0  0  0  0  0  0  0  0  0
    1.9026   -1.5871    0.6805 C   0  0  0  0  0  0  0  0  0  0  0  0
    1.7034   -1.9795   -0.3229 H   0  0  0  0  0  0  0  0  0  0  0  0
    2.7557   -0.9029    0.6158 H   0  0  0  0  0  0  0  0  0  0  0  0
    2.2171   -2.7321    1.6408 C   0  0  0  0  0  0  0  0  0  0  0  0
    2.4064   -2.3207    2.6432 H   0  0  0  0  0  0  0  0  0  0  0  0
    1.3357   -3.3856    1.7228 H   0  0  0  0  0  0  0  0  0  0  0  0
    3.3902   -3.4796    1.1392 N   0  3  0  0  0  0  0  0  0  0  0  0
    4.1997   -2.8592    1.0795 H   0  0  0  0  0  0  0  0  0  0  0  0
    3.6097   -4.2530    1.7709 H   0  0  0  0  0  0  0  0  0  0  0  0
    3.1919   -3.8559    0.2102 H   0  0  0  0  0  0  0  0  0  0  0  0
   -0.8959    2.3664   -0.4550 C   0  0  0  0  0  0  0  0  0  0  0  0
   -0.7144    2.1255   -1.6416 O   0  0  0  0  0  0  0  0  0  0  0  0
   -1.2501    3.6498   -0.0832 N   0  0  0  0  0  0  0  0  0  0  0  0
   -1.5030    3.8075    0.8888 H   0  0  0  0  0  0  0  0  0  0  0  0
   -1.4003    4.7483   -1.0330 C   0  0  0  0  0  0  0  0  0  0  0  0
   -2.2045    4.5341   -1.7451 H   0  0  0  0  0  0  0  0  0  0  0  0
   -1.6444    5.6756   -0.5051 H   0  0  0  0  0  0  0  0  0  0  0  0
   -0.4704    4.9052   -1.5902 H   0  0  0  0  0  0  0  0  0  0  0  0
  1  2  1  0  0  0  0
  2  3  1  0  0  0  0
  2  4  1  0  0  0  0
  2  5  1  0  0  0  0
  5  6  2  0  0  0  0
  5  7  1  0  0  0  0
  7  8  1  0  0  0  0
  7  9  1  0  0  0  0
  9 10  1  0  0  0  0
  9 11  1  0  0  0  0
  9 27  1  0  0  0  0
 11 12  1  0  0  0  0
 11 13  1  0  0  0  0
 11 14  1  0  0  0  0
 14 15  1  0  0  0  0
 14 16  1  0  0  0  0
 14 17  1  0  0  0  0
 17 18  1  0  0  0  0
 17 19  1  0  0  0  0
 17 20  1  0  0  0  0
 20 21  1  0  0  0  0
 20 22  1  0  0  0  0
 20 23  1  0  0  0  0
 23 24  1  0  0  0  0
 23 25  1  0  0  0  0
 23 26  1  0  0  0  0
 27 28  2  0  0  0  0
 27 29  1  0  0  0  0
 29 30  1  0  0  0  0
 29 31  1  0  0  0  0
 31 32  1  0  0  0  0
 31 33  1  0  0  0  0
 31 34  1  0  0  0  0
M  CHG  1  23   1
M  END
$$$$

  -OEChem-01062216093D

 34 33  0     1  0  0  0  0  0999 V2000
   -4.1916   -2.1143    1.1218 H   0  0  0  0  0  0  0  0  0  0  0  0
   -3.9464   -1.2211    0.5401 C   0  0  0  0  0  0  0  0  0  0  0  0
   -3.7763   -1.5131   -0.4990 H   0  0  0  0  0  0  0  0  0  0  0  0
   -4.7938   -0.5320    0.5830 H   0  0  0  0  0  0  0  0  0  0  0  0
   -2.7060   -0.5536    1.1027 C   0  0  0  0  0  0  0  0  0  0  0  0
   -2.1976   -0.9861    2.1236 O   0  0  0  0  0  0  0  0  0  0  0  0
   -2.2708    0.6368    0.5611 N   0  0  0  0  0  0  0  0  0  0  0  0
   -2.8118    0.9250   -0.2542 H   0  0  0  0  0  0  0  0  0  0  0  0
   -0.9165    1.2282    0.6183 C   0  0  1  0  0  0  0  0  0  0  0  0
   -0.7577    1.6555    1.6134 H   0  0  0  0  0  0  0  0  0  0  0  0
    0.3083    0.3303    0.2501 C   0  0  0  0  0  0  0  0  0  0  0  0
    0.1325   -0.0946   -0.7447 H   0  0  0  0  0  0  0  0  0  0  0  0
    1.1870    0.9811    0.1747 H   0  0  0  0  0  0  0  0  0  0  0  0
    0.6705   -0.8279    1.1909 C   0  0  0  0  0  0  0  0  0  0  0  0
   -0.1341   -1.5606    1.2065 H   0  0  0  0  0  0  0  0  0  0  0  0
    0.8232   -0.4498    2.2077 H   0  0  0  0  0  0  0  0  0  0  0  0
    1.9097   -1.5733    0.6856 C   0  0  0  0  0  0  0  0  0  0  0  0
    1.7229   -1.9515   -0.3257 H   0  0  0  0  0  0  0  0  0  0  0  0
    2.7589   -0.8828    0.6404 H   0  0  0  0  0  0  0  0  0  0  0  0
    2.2239   -2.7309    1.6302 C   0  0  0  0  0  0  0  0  0  0  0  0
    2.4007   -2.3352    2.6413 H   0  0  0  0  0  0  0  0  0  0  0  0
    1.3462   -3.3915    1.6926 H   0  0  0  0  0  0  0  0  0  0  0  0
    3.4063   -3.4619    1.1253 N   0  3  0  0  0  0  0  0  0  0  0  0
    4.2111   -2.8344    1.0788 H   0  0  0  0  0  0  0  0  0  0  0  0
    3.6286   -4.2420    1.7474 H   0  0  0  0  0  0  0  0  0  0  0  0
    3.2161   -3.8273    0.1902 H   0  0  0  0  0  0  0  0  0  0  0  0
   -0.8874    2.3532   -0.4432 C   0  0  0  0  0  0  0  0  0  0  0  0
   -0.9540    2.0769   -1.6344 O   0  0  0  0  0  0  0  0  0  0  0  0
   -0.9428    3.6794   -0.0572 N   0  0  0  0  0  0  0  0  0  0  0  0
   -1.0180    3.8806    0.9364 H   0  0  0  0  0  0  0  0  0  0  0  0
   -1.0613    4.7831   -1.0056 C   0  0  0  0  0  0  0  0  0  0  0  0
   -2.0120    4.7253   -1.5463 H   0  0  0  0  0  0  0  0  0  0  0  0
   -1.0201    5.7422   -0.4797 H   0  0  0  0  0  0  0  0  0  0  0  0
   -0.2423    4.7555   -1.7325 H   0  0  0  0  0  0  0  0  0  0  0  0
  1  2  1  0  0  0  0
  2  3  1  0  0  0  0
  2  4  1  0  0  0  0
  2  5  1  0  0  0  0
  5  6  2  0  0  0  0
  5  7  1  0  0  0  0
  7  8  1  0  0  0  0
  7  9  1  0  0  0  0
  9 10  1  0  0  0  0
  9 11  1  0  0  0  0
  9 27  1  0  0  0  0
 11 12  1  0  0  0  0
 11 13  1  0  0  0  0
 11 14  1  0  0  0  0
 14 15  1  0  0  0  0
 14 16  1  0  0  0  0
 14 17  1  0  0  0  0
 17 18  1  0  0  0  0
 17 19  1  0  0  0  0
 17 20  1  0  0  0  0
 20 21  1  0  0  0  0
 20 22  1  0  0  0  0
 20 23  1  0  0  0  0
 23 24  1  0  0  0  0
 23 25  1  0  0  0  0
 23 26  1  0  0  0  0
 27 28  2  0  0  0  0
 27 29  1  0  0  0  0
 29 30  1  0  0  0  0
 29 31  1  0  0  0  0
 31 32  1  0  0  0  0
 31 33  1  0  0  0  0
 31 34  1  0  0  0  0
M  CHG  1  23   1
M  END
$$$$

  -OEChem-01062216093D

 34 33  0     1  0  0  0  0  0999 V2000
   -4.1869   -2.1111    1.1133 H   0  0  0  0  0  0  0  0  0  0  0  0
   -3.9393   -1.2171    0.5343 C   0  0  0  0  0  0  0  0  0  0  0  0
   -3.7612   -1.5078   -0.5038 H   0  0  0  0  0  0  0  0  0  0  0  0
   -4.7881   -0.5298    0.5715 H   0  0  0  0  0  0  0  0  0  0  0  0
   -2.7045   -0.5467    1.1057 C   0  0  0  0  0  0  0  0  0  0  0  0
   -2.1997   -0.9779    2.1293 O   0  0  0  0  0  0  0  0  0  0  0  0
   -2.2629    0.6384    0.5584 N   0  0  0  0  0  0  0  0  0  0  0  0
   -2.7927    0.9213   -0.2670 H   0  0  0  0  0  0  0  0  0  0  0  0
   -0.9116    1.2351    0.6227 C   0  0  1  0  0  0  0  0  0  0  0  0
   -0.7593    1.6674    1.6167 H   0  0  0  0  0  0  0  0  0  0  0  0
    0.3127    0.3396    0.2524 C   0  0  0  0  0  0  0  0  0  0  0  0
    0.1375   -0.0784   -0.7456 H   0  0  0  0  0  0  0  0  0  0  0  0
    1.1931    0.9885    0.1825 H   0  0  0  0  0  0  0  0  0  0  0  0
    0.6698   -0.8219    1.1908 C   0  0  0  0  0  0  0  0  0  0  0  0
   -0.1372   -1.5521    1.2038 H   0  0  0  0  0  0  0  0  0  0  0  0
    0.8207   -0.4455    2.2087 H   0  0  0  0  0  0  0  0  0  0  0  0
    1.9090   -1.5705    0.6899 C   0  0  0  0  0  0  0  0  0  0  0  0
    1.7248   -1.9480   -0.3222 H   0  0  0  0  0  0  0  0  0  0  0  0
    2.7617   -0.8840    0.6484 H   0  0  0  0  0  0  0  0  0  0  0  0
    2.2127   -2.7295    1.6364 C   0  0  0  0  0  0  0  0  0  0  0  0
    2.3870   -2.3337    2.6477 H   0  0  0  0  0  0  0  0  0  0  0  0
    1.3316   -3.3858    1.6959 H   0  0  0  0  0  0  0  0  0  0  0  0
    3.3944   -3.4666    1.1394 N   0  3  0  0  0  0  0  0  0  0  0  0
    4.2026   -2.8432    1.0974 H   0  0  0  0  0  0  0  0  0  0  0  0
    3.6088   -4.2470    1.7640 H   0  0  0  0  0  0  0  0  0  0  0  0
    3.2083   -3.8323    0.2037 H   0  0  0  0  0  0  0  0  0  0  0  0
   -0.8740    2.3487   -0.4487 C   0  0  0  0  0  0  0  0  0  0  0  0
   -1.1640    2.0821   -1.6086 O   0  0  0  0  0  0  0  0  0  0  0  0
   -0.6271    3.6622   -0.0954 N   0  0  0  0  0  0  0  0  0  0  0  0
   -0.5263    3.8752    0.8933 H   0  0  0  0  0  0  0  0  0  0  0  0
   -0.7150    4.7703   -1.0420 C   0  0  0  0  0  0  0  0  0  0  0  0
   -1.7387    4.8748   -1.4174 H   0  0  0  0  0  0  0  0  0  0  0  0
   -0.4271    5.7082   -0.5567 H   0  0  0  0  0  0  0  0  0  0  0  0
   -0.0447    4.6046   -1.8925 H   0  0  0  0  0  0  0  0  0  0  0  0
  1  2  1  0  0  0  0
  2  3  1  0  0  0  0
  2  4  1  0  0  0  0
  2  5  1  0  0  0  0
  5  6  2  0  0  0  0
  5  7  1  0  0  0  0
  7  8  1  0  0  0  0
  7  9  1  0  0  0  0
  9 10  1  0  0  0  0
  9 11  1  0  0  0  0
  9 27  1  0  0  0  0
 11 12  1  0  0  0  0
 11 13  1  0  0  0  0
 11 14  1  0  0  0  0
 14 15  1  0  0  0  0
 14 16  1  0  0  0  0
 14 17  1  0  0  0  0
 17 18  1  0  0  0  0
 17 19  1  0  0  0  0
 17 20  1  0  0  0  0
 20 21  1  0  0  0  0
 20 22  1  0  0  0  0
 20 23  1  0  0  0  0
 23 24  1  0  0  0  0
 23 25  1  0  0  0  0
 23 26  1  0  0  0  0
 27 28  2  0  0  0  0
 27 29  1  0  0  0  0
 29 30  1  0  0  0  0
 29 31  1  0  0  0  0
 31 32  1  0  0  0  0
 31 33  1  0  0  0  0
 31 34  1  0  0  0  0
M  CHG  1  23   1
M  END
$$$$

  -OEChem-01062216093D

 34 33  0     1  0  0  0  0  0999 V2000
   -4.2089   -2.0906    1.1422 H   0  0  0  0  0  0  0  0  0  0  0  0
   -3.9509   -1.2054    0.5542 C   0  0  0  0  0  0  0  0  0  0  0  0
   -3.7891   -1.5065   -0.4836 H   0  0  0  0  0  0  0  0  0  0  0  0
   -4.7862   -0.5017    0.5955 H   0  0  0  0  0  0  0  0  0  0  0  0
   -2.6979   -0.5546    1.1081 C   0  0  0  0  0  0  0  0  0  0  0  0
   -2.1821   -1.0000    2.1202 O   0  0  0  0  0  0  0  0  0  0  0  0
   -2.2544    0.6317    0.5653 N   0  0  0  0  0  0  0  0  0  0  0  0
   -2.7918    0.9331   -0.2498 H   0  0  0  0  0  0  0  0  0  0  0  0
   -0.9064    1.2350    0.6313 C   0  0  1  0  0  0  0  0  0  0  0  0
   -0.7547    1.6627    1.6270 H   0  0  0  0  0  0  0  0  0  0  0  0
    0.3166    0.3465    0.2443 C   0  0  0  0  0  0  0  0  0  0  0  0
    0.1359   -0.0581   -0.7584 H   0  0  0  0  0  0  0  0  0  0  0  0
    1.1974    0.9954    0.1792 H   0  0  0  0  0  0  0  0  0  0  0  0
    0.6775   -0.8249    1.1692 C   0  0  0  0  0  0  0  0  0  0  0  0
   -0.1289   -1.5559    1.1742 H   0  0  0  0  0  0  0  0  0  0  0  0
    0.8292   -0.4603    2.1912 H   0  0  0  0  0  0  0  0  0  0  0  0
    1.9146   -1.5700    0.6597 C   0  0  0  0  0  0  0  0  0  0  0  0
    1.7285   -1.9378   -0.3555 H   0  0  0  0  0  0  0  0  0  0  0  0
    2.7683   -0.8843    0.6238 H   0  0  0  0  0  0  0  0  0  0  0  0
    2.2162   -2.7374    1.5969 C   0  0  0  0  0  0  0  0  0  0  0  0
    2.3907   -2.3502    2.6117 H   0  0  0  0  0  0  0  0  0  0  0  0
    1.3334   -3.3920    1.6505 H   0  0  0  0  0  0  0  0  0  0  0  0
    3.3958   -3.4738    1.0947 N   0  3  0  0  0  0  0  0  0  0  0  0
    4.2084   -2.8554    1.0669 H   0  0  0  0  0  0  0  0  0  0  0  0
    3.6015   -4.2654    1.7080 H   0  0  0  0  0  0  0  0  0  0  0  0
    3.2122   -3.8237    0.1524 H   0  0  0  0  0  0  0  0  0  0  0  0
   -0.8683    2.3511   -0.4381 C   0  0  0  0  0  0  0  0  0  0  0  0
   -1.3674    2.1500   -1.5390 O   0  0  0  0  0  0  0  0  0  0  0  0
   -0.3329    3.5928   -0.1491 N   0  0  0  0  0  0  0  0  0  0  0  0
   -0.0390    3.7698    0.8075 H   0  0  0  0  0  0  0  0  0  0  0  0
   -0.3975    4.7182   -1.0766 C   0  0  0  0  0  0  0  0  0  0  0  0
   -1.4392    4.9965   -1.2701 H   0  0  0  0  0  0  0  0  0  0  0  0
    0.1196    5.5867   -0.6570 H   0  0  0  0  0  0  0  0  0  0  0  0
    0.0800    4.4615   -2.0284 H   0  0  0  0  0  0  0  0  0  0  0  0
  1  2  1  0  0  0  0
  2  3  1  0  0  0  0
  2  4  1  0  0  0  0
  2  5  1  0  0  0  0
  5  6  2  0  0  0  0
  5  7  1  0  0  0  0
  7  8  1  0  0  0  0
  7  9  1  0  0  0  0
  9 10  1  0  0  0  0
  9 11  1  0  0  0  0
  9 27  1  0  0  0  0
 11 12  1  0  0  0  0
 11 13  1  0  0  0  0
 11 14  1  0  0  0  0
 14 15  1  0  0  0  0
 14 16  1  0  0  0  0
 14 17  1  0  0  0  0
 17 18  1  0  0  0  0
 17 19  1  0  0  0  0
 17 20  1  0  0  0  0
 20 21  1  0  0  0  0
 20 22  1  0  0  0  0
 20 23  1  0  0  0  0
 23 24  1  0  0  0  0
 23 25  1  0  0  0  0
 23 26  1  0  0  0  0
 27 28  2  0  0  0  0
 27 29  1  0  0  0  0
 29 30  1  0  0  0  0
 29 31  1  0  0  0  0
 31 32  1  0  0  0  0
 31 33  1  0  0  0  0
 31 34  1  0  0  0  0
M  CHG  1  23   1
M  END
$$$$

  -OEChem-01062216093D

 34 33  0     1  0  0  0  0  0999 V2000
   -4.1933   -2.1225    1.1071 H   0  0  0  0  0  0  0  0  0  0  0  0
   -3.9702   -1.2029    0.5591 C   0  0  0  0  0  0  0  0  0  0  0  0
   -3.8403   -1.4456   -0.4984 H   0  0  0  0  0  0  0  0  0  0  0  0
   -4.8147   -0.5172    0.6662 H   0  0  0  0  0  0  0  0  0  0  0  0
   -2.7093   -0.5594    1.1041 C   0  0  0  0  0  0  0  0  0  0  0  0
   -2.1907   -1.0051    2.1147 O   0  0  0  0  0  0  0  0  0  0  0  0
   -2.2604    0.6193    0.5497 N   0  0  0  0  0  0  0  0  0  0  0  0
   -2.8065    0.9291   -0.2575 H   0  0  0  0  0  0  0  0  0  0  0  0
   -0.9181    1.2365    0.6139 C   0  0  1  0  0  0  0  0  0  0  0  0
   -0.7742    1.6818    1.6033 H   0  0  0  0  0  0  0  0  0  0  0  0
    0.3098    0.3470    0.2430 C   0  0  0  0  0  0  0  0  0  0  0  0
    0.1315   -0.0701   -0.7550 H   0  0  0  0  0  0  0  0  0  0  0  0
    1.1897    0.9960    0.1717 H   0  0  0  0  0  0  0  0  0  0  0  0
    0.6757   -0.8114    1.1827 C   0  0  0  0  0  0  0  0  0  0  0  0
   -0.1258   -1.5474    1.1941 H   0  0  0  0  0  0  0  0  0  0  0  0
    0.8230   -0.4349    2.2011 H   0  0  0  0  0  0  0  0  0  0  0  0
    1.9179   -1.5552    0.6824 C   0  0  0  0  0  0  0  0  0  0  0  0
    1.7343   -1.9369   -0.3282 H   0  0  0  0  0  0  0  0  0  0  0  0
    2.7672   -0.8647    0.6384 H   0  0  0  0  0  0  0  0  0  0  0  0
    2.2276   -2.7103    1.6323 C   0  0  0  0  0  0  0  0  0  0  0  0
    2.4003   -2.3106    2.6425 H   0  0  0  0  0  0  0  0  0  0  0  0
    1.3491   -3.3701    1.6941 H   0  0  0  0  0  0  0  0  0  0  0  0
    3.4122   -3.4448    1.1383 N   0  3  0  0  0  0  0  0  0  0  0  0
    4.2188   -2.8193    1.0956 H   0  0  0  0  0  0  0  0  0  0  0  0
    3.6278   -4.2229    1.7654 H   0  0  0  0  0  0  0  0  0  0  0  0
    3.2281   -3.8140    0.2035 H   0  0  0  0  0  0  0  0  0  0  0  0
   -0.8785    2.3373   -0.4744 C   0  0  0  0  0  0  0  0  0  0  0  0
   -1.5428    2.2045   -1.4962 O   0  0  0  0  0  0  0  0  0  0  0  0
   -0.0956    3.4672   -0.3179 N   0  0  0  0  0  0  0  0  0  0  0  0
    0.3599    3.6076    0.5794 H   0  0  0  0  0  0  0  0  0  0  0  0
   -0.0855    4.5625   -1.2835 C   0  0  0  0  0  0  0  0  0  0  0  0
   -1.0817    5.0103   -1.3665 H   0  0  0  0  0  0  0  0  0  0  0  0
    0.6179    5.3402   -0.9698 H   0  0  0  0  0  0  0  0  0  0  0  0
    0.2203    4.2020   -2.2717 H   0  0  0  0  0  0  0  0  0  0  0  0
  1  2  1  0  0  0  0
  2  3  1  0  0  0  0
  2  4  1  0  0  0  0
  2  5  1  0  0  0  0
  5  6  2  0  0  0  0
  5  7  1  0  0  0  0
  7  8  1  0  0  0  0
  7  9  1  0  0  0  0
  9 10  1  0  0  0  0
  9 11  1  0  0  0  0
  9 27  1  0  0  0  0
 11 12  1  0  0  0  0
 11 13  1  0  0  0  0
 11 14  1  0  0  0  0
 14 15  1  0  0  0  0
 14 16  1  0  0  0  0
 14 17  1  0  0  0  0
 17 18  1  0  0  0  0
 17 19  1  0  0  0  0
 17 20  1  0  0  0  0
 20 21  1  0  0  0  0
 20 22  1  0  0  0  0
 20 23  1  0  0  0  0
 23 24  1  0  0  0  0
 23 25  1  0  0  0  0
 23 26  1  0  0  0  0
 27 28  2  0  0  0  0
 27 29  1  0  0  0  0
 29 30  1  0  0  0  0
 29 31  1  0  0  0  0
 31 32  1  0  0  0  0
 31 33  1  0  0  0  0
 31 34  1  0  0  0  0
M  CHG  1  23   1
M  END
$$$$

  -OEChem-01062216093D

 34 33  0     1  0  0  0  0  0999 V2000
   -4.2106   -2.1046    1.0976 H   0  0  0  0  0  0  0  0  0  0  0  0
   -3.9507   -1.2139    0.5189 C   0  0  0  0  0  0  0  0  0  0  0  0
   -3.7923   -1.5032   -0.5228 H   0  0  0  0  0  0  0  0  0  0  0  0
   -4.7830   -0.5074    0.5697 H   0  0  0  0  0  0  0  0  0  0  0  0
   -2.6942   -0.5741    1.0771 C   0  0  0  0  0  0  0  0  0  0  0  0
   -2.1810   -1.0326    2.0848 O   0  0  0  0  0  0  0  0  0  0  0  0
   -2.2449    0.6128    0.5403 N   0  0  0  0  0  0  0  0  0  0  0  0
   -2.8047    0.9520   -0.2463 H   0  0  0  0  0  0  0  0  0  0  0  0
   -0.9082    1.2434    0.6121 C   0  0  1  0  0  0  0  0  0  0  0  0
   -0.7664    1.6818    1.6049 H   0  0  0  0  0  0  0  0  0  0  0  0
    0.3193    0.3524    0.2322 C   0  0  0  0  0  0  0  0  0  0  0  0
    0.1386   -0.0552   -0.7691 H   0  0  0  0  0  0  0  0  0  0  0  0
    1.2039    0.9944    0.1668 H   0  0  0  0  0  0  0  0  0  0  0  0
    0.6835   -0.8136    1.1638 C   0  0  0  0  0  0  0  0  0  0  0  0
   -0.1185   -1.5483    1.1690 H   0  0  0  0  0  0  0  0  0  0  0  0
    0.8296   -0.4434    2.1846 H   0  0  0  0  0  0  0  0  0  0  0  0
    1.9225   -1.5634    0.6648 C   0  0  0  0  0  0  0  0  0  0  0  0
    1.7405   -1.9405   -0.3478 H   0  0  0  0  0  0  0  0  0  0  0  0
    2.7771   -0.8792    0.6268 H   0  0  0  0  0  0  0  0  0  0  0  0
    2.2187   -2.7229    1.6151 C   0  0  0  0  0  0  0  0  0  0  0  0
    2.3892   -2.3262    2.6270 H   0  0  0  0  0  0  0  0  0  0  0  0
    1.3344   -3.3754    1.6720 H   0  0  0  0  0  0  0  0  0  0  0  0
    3.3995   -3.4685    1.1286 N   0  3  0  0  0  0  0  0  0  0  0  0
    4.2141   -2.8529    1.0984 H   0  0  0  0  0  0  0  0  0  0  0  0
    3.5990   -4.2535    1.7526 H   0  0  0  0  0  0  0  0  0  0  0  0
    3.2208   -3.8297    0.1896 H   0  0  0  0  0  0  0  0  0  0  0  0
   -0.8774    2.3590   -0.4670 C   0  0  0  0  0  0  0  0  0  0  0  0
   -1.7015    2.3531   -1.3753 O   0  0  0  0  0  0  0  0  0  0  0  0
    0.1021    3.3372   -0.4602 N   0  0  0  0  0  0  0  0  0  0  0  0
    0.7044    3.3934    0.3557 H   0  0  0  0  0  0  0  0  0  0  0  0
    0.1229    4.4415   -1.4154 C   0  0  0  0  0  0  0  0  0  0  0  0
   -0.7698    5.0656   -1.2994 H   0  0  0  0  0  0  0  0  0  0  0  0
    1.0060    5.0676   -1.2543 H   0  0  0  0  0  0  0  0  0  0  0  0
    0.1546    4.0625   -2.4426 H   0  0  0  0  0  0  0  0  0  0  0  0
  1  2  1  0  0  0  0
  2  3  1  0  0  0  0
  2  4  1  0  0  0  0
  2  5  1  0  0  0  0
  5  6  2  0  0  0  0
  5  7  1  0  0  0  0
  7  8  1  0  0  0  0
  7  9  1  0  0  0  0
  9 10  1  0  0  0  0
  9 11  1  0  0  0  0
  9 27  1  0  0  0  0
 11 12  1  0  0  0  0
 11 13  1  0  0  0  0
 11 14  1  0  0  0  0
 14 15  1  0  0  0  0
 14 16  1  0  0  0  0
 14 17  1  0  0  0  0
 17 18  1  0  0  0  0
 17 19  1  0  0  0  0
 17 20  1  0  0  0  0
 20 21  1  0  0  0  0
 20 22  1  0  0  0  0
 20 23  1  0  0  0  0
 23 24  1  0  0  0  0
 23 25  1  0  0  0  0
 23 26  1  0  0  0  0
 27 28  2  0  0  0  0
 27 29  1  0  0  0  0
 29 30  1  0  0  0  0
 29 31  1  0  0  0  0
 31 32  1  0  0  0  0
 31 33  1  0  0  0  0
 31 34  1  0  0  0  0
M  CHG  1  23   1
M  END
$$$$
