default_name
  -OEChem-01062215323D

 34 33  0     1  0  0  0  0  0999 V2000
   -3.8899   -3.6747    1.6490 H   0  0  0  0  0  0  0  0  0  0  0  0
   -3.9109   -2.6717    1.2250 C   0  0  0  0  0  0  0  0  0  0  0  0
   -4.6009   -2.0517    1.7950 H   0  0  0  0  0  0  0  0  0  0  0  0
   -4.2309   -2.7237    0.1860 H   0  0  0  0  0  0  0  0  0  0  0  0
   -2.5229   -2.0787    1.2980 C   0  0  0  0  0  0  0  0  0  0  0  0
   -1.5999   -2.7227    1.7810 O   0  0  0  0  0  0  0  0  0  0  0  0
   -2.3659   -0.8447    0.8120 N   0  0  0  0  0  0  0  0  0  0  0  0
   -3.1749   -0.3807    0.4220 H   0  0  0  0  0  0  0  0  0  0  0  0
   -1.0919   -0.1077    0.8170 C   0  0  1  0  0  0  0  0  0  0  0  0
   -0.7740    0.0196    1.8534 H   0  0  0  0  0  0  0  0  0  0  0  0
   -0.0372   -0.9482    0.0730 C   0  0  0  0  0  0  0  0  0  0  0  0
   -0.4381   -1.2239   -0.9036 H   0  0  0  0  0  0  0  0  0  0  0  0
    0.8575   -0.3428   -0.0852 H   0  0  0  0  0  0  0  0  0  0  0  0
    0.3482   -2.2355    0.8179 C   0  0  0  0  0  0  0  0  0  0  0  0
    0.7394   -1.9857    1.8050 H   0  0  0  0  0  0  0  0  0  0  0  0
   -0.5379   -2.8626    0.9338 H   0  0  0  0  0  0  0  0  0  0  0  0
    1.4178   -3.0074    0.0329 C   0  0  0  0  0  0  0  0  0  0  0  0
    1.0285   -3.2430   -0.9604 H   0  0  0  0  0  0  0  0  0  0  0  0
    2.3048   -2.3795   -0.0722 H   0  0  0  0  0  0  0  0  0  0  0  0
    1.7855   -4.3053    0.7630 C   0  0  0  0  0  0  0  0  0  0  0  0
    2.1656   -4.0485    1.7572 H   0  0  0  0  0  0  0  0  0  0  0  0
    0.8763   -4.8995    0.8950 H   0  0  0  0  0  0  0  0  0  0  0  0
    2.8024   -5.0844    0.0125 N   0  3  0  0  0  0  0  0  0  0  0  0
    3.6502   -4.5435   -0.1037 H   0  0  0  0  0  0  0  0  0  0  0  0
    3.0337   -5.9371    0.5068 H   0  0  0  0  0  0  0  0  0  0  0  0
    2.4520   -5.3322   -0.9055 H   0  0  0  0  0  0  0  0  0  0  0  0
   -1.2709    1.2741    0.1840 C   0  0  0  0  0  0  0  0  0  0  0  0
   -2.3647    1.5994   -0.2624 O   0  0  0  0  0  0  0  0  0  0  0  0
   -0.1916    2.0606    0.1192 N   0  0  0  0  0  0  0  0  0  0  0  0
    0.6598    1.7263    0.5393 H   0  0  0  0  0  0  0  0  0  0  0  0
   -0.1930    3.4090   -0.4512 C   0  0  0  0  0  0  0  0  0  0  0  0
   -0.8662    4.0508    0.1212 H   0  0  0  0  0  0  0  0  0  0  0  0
    0.8106    3.8349   -0.4248 H   0  0  0  0  0  0  0  0  0  0  0  0
   -0.5441    3.3775   -1.4850 H   0  0  0  0  0  0  0  0  0  0  0  0
  5  6  2  0  0  0  0
  5  7  1  0  0  0  0
  2  3  1  0  0  0  0
  2  4  1  0  0  0  0
  2  5  1  0  0  0  0
  1  2  1  0  0  0  0
 27 28  2  0  0  0  0
 27 29  1  0  0  0  0
 23 24  1  0  0  0  0
 23 25  1  0  0  0  0
 23 26  1  0  0  0  0
 20 21  1  0  0  0  0
 20 22  1  0  0  0  0
 20 23  1  0  0  0  0
 17 18  1  0  0  0  0
 17 19  1  0  0  0  0
 17 20  1  0  0  0  0
 14 15  1  0  0  0  0
 14 16  1  0  0  0  0
 14 17  1  0  0  0  0
 11 12  1  0  0  0  0
 11 13  1  0  0  0  0
 11 14  1  0  0  0  0
  9 10  1  0  0  0  0
  9 11  1  0  0  0  0
  9 27  1  0  0  0  0
  7  8  1  0  0  0  0
  7  9  1  0  0  0  0
 31 32  1  0  0  0  0
 31 33  1  0  0  0  0
 31 34  1  0  0  0  0
 29 30  1  0  0  0  0
 29 31  1  0  0  0  0
M  CHG  1  23   1
M  END
$$$$
default_name
  -OEChem-01062215323D

 34 33  0     1  0  0  0  0  0999 V2000
   -3.8899   -3.6747    1.6490 H   0  0  0  0  0  0  0  0  0  0  0  0
   -3.9109   -2.6717    1.2250 C   0  0  0  0  0  0  0  0  0  0  0  0
   -4.6009   -2.0517    1.7950 H   0  0  0  0  0  0  0  0  0  0  0  0
   -4.2309   -2.7237    0.1860 H   0  0  0  0  0  0  0  0  0  0  0  0
   -2.5229   -2.0787    1.2980 C   0  0  0  0  0  0  0  0  0  0  0  0
   -1.5999   -2.7227    1.7810 O   0  0  0  0  0  0  0  0  0  0  0  0
   -2.3659   -0.8447    0.8120 N   0  0  0  0  0  0  0  0  0  0  0  0
   -3.1749   -0.3807    0.4220 H   0  0  0  0  0  0  0  0  0  0  0  0
   -1.0919   -0.1077    0.8170 C   0  0  1  0  0  0  0  0  0  0  0  0
   -0.7740    0.0196    1.8534 H   0  0  0  0  0  0  0  0  0  0  0  0
   -0.0372   -0.9482    0.0730 C   0  0  0  0  0  0  0  0  0  0  0  0
   -0.4381   -1.2239   -0.9036 H   0  0  0  0  0  0  0  0  0  0  0  0
    0.8575   -0.3428   -0.0852 H   0  0  0  0  0  0  0  0  0  0  0  0
    0.3482   -2.2355    0.8179 C   0  0  0  0  0  0  0  0  0  0  0  0
    0.7394   -1.9857    1.8050 H   0  0  0  0  0  0  0  0  0  0  0  0
   -0.5379   -2.8626    0.9338 H   0  0  0  0  0  0  0  0  0  0  0  0
    1.4178   -3.0074    0.0329 C   0  0  0  0  0  0  0  0  0  0  0  0
    1.0285   -3.2430   -0.9604 H   0  0  0  0  0  0  0  0  0  0  0  0
    2.3048   -2.3795   -0.0722 H   0  0  0  0  0  0  0  0  0  0  0  0
    1.7855   -4.3053    0.7630 C   0  0  0  0  0  0  0  0  0  0  0  0
    2.1656   -4.0485    1.7572 H   0  0  0  0  0  0  0  0  0  0  0  0
    0.8763   -4.8995    0.8950 H   0  0  0  0  0  0  0  0  0  0  0  0
    2.8024   -5.0844    0.0125 N   0  3  0  0  0  0  0  0  0  0  0  0
    3.6502   -4.5435   -0.1037 H   0  0  0  0  0  0  0  0  0  0  0  0
    3.0337   -5.9371    0.5068 H   0  0  0  0  0  0  0  0  0  0  0  0
    2.4520   -5.3322   -0.9055 H   0  0  0  0  0  0  0  0  0  0  0  0
   -1.2709    1.2741    0.1840 C   0  0  0  0  0  0  0  0  0  0  0  0
   -2.3993    1.7106   -0.0099 O   0  0  0  0  0  0  0  0  0  0  0  0
   -0.1618    1.9351   -0.1632 N   0  0  0  0  0  0  0  0  0  0  0  0
    0.7253    1.5160    0.0619 H   0  0  0  0  0  0  0  0  0  0  0  0
   -0.1579    3.2652   -0.7751 C   0  0  0  0  0  0  0  0  0  0  0  0
   -0.6073    3.9874   -0.0902 H   0  0  0  0  0  0  0  0  0  0  0  0
    0.8623    3.5778   -1.0007 H   0  0  0  0  0  0  0  0  0  0  0  0
   -0.7437    3.2546   -1.6969 H   0  0  0  0  0  0  0  0  0  0  0  0
  5  6  2  0  0  0  0
  5  7  1  0  0  0  0
  2  3  1  0  0  0  0
  2  4  1  0  0  0  0
  2  5  1  0  0  0  0
  1  2  1  0  0  0  0
 27 28  2  0  0  0  0
 27 29  1  0  0  0  0
 23 24  1  0  0  0  0
 23 25  1  0  0  0  0
 23 26  1  0  0  0  0
 20 21  1  0  0  0  0
 20 22  1  0  0  0  0
 20 23  1  0  0  0  0
 17 18  1  0  0  0  0
 17 19  1  0  0  0  0
 17 20  1  0  0  0  0
 14 15  1  0  0  0  0
 14 16  1  0  0  0  0
 14 17  1  0  0  0  0
 11 12  1  0  0  0  0
 11 13  1  0  0  0  0
 11 14  1  0  0  0  0
  9 10  1  0  0  0  0
  9 11  1  0  0  0  0
  9 27  1  0  0  0  0
  7  8  1  0  0  0  0
  7  9  1  0  0  0  0
 31 32  1  0  0  0  0
 31 33  1  0  0  0  0
 31 34  1  0  0  0  0
 29 30  1  0  0  0  0
 29 31  1  0  0  0  0
M  CHG  1  23   1
M  END
$$$$
default_name
  -OEChem-01062215323D

 34 33  0     1  0  0  0  0  0999 V2000
   -3.8899   -3.6747    1.6490 H   0  0  0  0  0  0  0  0  0  0  0  0
   -3.9109   -2.6717    1.2250 C   0  0  0  0  0  0  0  0  0  0  0  0
   -4.6009   -2.0517    1.7950 H   0  0  0  0  0  0  0  0  0  0  0  0
   -4.2309   -2.7237    0.1860 H   0  0  0  0  0  0  0  0  0  0  0  0
   -2.5229   -2.0787    1.2980 C   0  0  0  0  0  0  0  0  0  0  0  0
   -1.5999   -2.7227    1.7810 O   0  0  0  0  0  0  0  0  0  0  0  0
   -2.3659   -0.8447    0.8120 N   0  0  0  0  0  0  0  0  0  0  0  0
   -3.1749   -0.3807    0.4220 H   0  0  0  0  0  0  0  0  0  0  0  0
   -1.0919   -0.1077    0.8170 C   0  0  1  0  0  0  0  0  0  0  0  0
   -0.7740    0.0196    1.8534 H   0  0  0  0  0  0  0  0  0  0  0  0
   -0.0372   -0.9482    0.0730 C   0  0  0  0  0  0  0  0  0  0  0  0
   -0.4381   -1.2239   -0.9036 H   0  0  0  0  0  0  0  0  0  0  0  0
    0.8575   -0.3428   -0.0852 H   0  0  0  0  0  0  0  0  0  0  0  0
    0.3482   -2.2355    0.8179 C   0  0  0  0  0  0  0  0  0  0  0  0
    0.7394   -1.9857    1.8050 H   0  0  0  0  0  0  0  0  0  0  0  0
   -0.5379   -2.8626    0.9338 H   0  0  0  0  0  0  0  0  0  0  0  0
    1.4178   -3.0074    0.0329 C   0  0  0  0  0  0  0  0  0  0  0  0
    1.0285   -3.2430   -0.9604 H   0  0  0  0  0  0  0  0  0  0  0  0
    2.3048   -2.3795   -0.0722 H   0  0  0  0  0  0  0  0  0  0  0  0
    1.7855   -4.3053    0.7630 C   0  0  0  0  0  0  0  0  0  0  0  0
    2.1656   -4.0485    1.7572 H   0  0  0  0  0  0  0  0  0  0  0  0
    0.8763   -4.8995    0.8950 H   0  0  0  0  0  0  0  0  0  0  0  0
    2.8024   -5.0844    0.0125 N   0  3  0  0  0  0  0  0  0  0  0  0
    3.6502   -4.5435   -0.1037 H   0  0  0  0  0  0  0  0  0  0  0  0
    3.0337   -5.9371    0.5068 H   0  0  0  0  0  0  0  0  0  0  0  0
    2.4520   -5.3322   -0.9055 H   0  0  0  0  0  0  0  0  0  0  0  0
   -1.2709    1.2741    0.1840 C   0  0  0  0  0  0  0  0  0  0  0  0
   -2.3619    1.8293    0.2386 O   0  0  0  0  0  0  0  0  0  0  0  0
   -0.2124    1.8022   -0.4392 N   0  0  0  0  0  0  0  0  0  0  0  0
    0.6545    1.2915   -0.4083 H   0  0  0  0  0  0  0  0  0  0  0  0
   -0.2151    3.1127   -1.0919 C   0  0  0  0  0  0  0  0  0  0  0  0
   -0.4134    3.8921   -0.3531 H   0  0  0  0  0  0  0  0  0  0  0  0
    0.7501    3.3065   -1.5612 H   0  0  0  0  0  0  0  0  0  0  0  0
   -0.9992    3.1508   -1.8512 H   0  0  0  0  0  0  0  0  0  0  0  0
  5  6  2  0  0  0  0
  5  7  1  0  0  0  0
  2  3  1  0  0  0  0
  2  4  1  0  0  0  0
  2  5  1  0  0  0  0
  1  2  1  0  0  0  0
 27 28  2  0  0  0  0
 27 29  1  0  0  0  0
 23 24  1  0  0  0  0
 23 25  1  0  0  0  0
 23 26  1  0  0  0  0
 20 21  1  0  0  0  0
 20 22  1  0  0  0  0
 20 23  1  0  0  0  0
 17 18  1  0  0  0  0
 17 19  1  0  0  0  0
 17 20  1  0  0  0  0
 14 15  1  0  0  0  0
 14 16  1  0  0  0  0
 14 17  1  0  0  0  0
 11 12  1  0  0  0  0
 11 13  1  0  0  0  0
 11 14  1  0  0  0  0
  9 10  1  0  0  0  0
  9 11  1  0  0  0  0
  9 27  1  0  0  0  0
  7  8  1  0  0  0  0
  7  9  1  0  0  0  0
 31 32  1  0  0  0  0
 31 33  1  0  0  0  0
 31 34  1  0  0  0  0
 29 30  1  0  0  0  0
 29 31  1  0  0  0  0
M  CHG  1  23   1
M  END
$$$$
default_name
  -OEChem-01062215323D

 34 33  0     1  0  0  0  0  0999 V2000
   -3.8899   -3.6747    1.6490 H   0  0  0  0  0  0  0  0  0  0  0  0
   -3.9109   -2.6717    1.2250 C   0  0  0  0  0  0  0  0  0  0  0  0
   -4.6009   -2.0517    1.7950 H   0  0  0  0  0  0  0  0  0  0  0  0
   -4.2309   -2.7237    0.1860 H   0  0  0  0  0  0  0  0  0  0  0  0
   -2.5229   -2.0787    1.2980 C   0  0  0  0  0  0  0  0  0  0  0  0
   -1.5999   -2.7227    1.7810 O   0  0  0  0  0  0  0  0  0  0  0  0
   -2.3659   -0.8447    0.8120 N   0  0  0  0  0  0  0  0  0  0  0  0
   -3.1749   -0.3807    0.4220 H   0  0  0  0  0  0  0  0  0  0  0  0
   -1.0919   -0.1077    0.8170 C   0  0  1  0  0  0  0  0  0  0  0  0
   -0.7740    0.0196    1.8534 H   0  0  0  0  0  0  0  0  0  0  0  0
   -0.0372   -0.9482    0.0730 C   0  0  0  0  0  0  0  0  0  0  0  0
   -0.4381   -1.2239   -0.9036 H   0  0  0  0  0  0  0  0  0  0  0  0
    0.8575   -0.3428   -0.0852 H   0  0  0  0  0  0  0  0  0  0  0  0
    0.3482   -2.2355    0.8179 C   0  0  0  0  0  0  0  0  0  0  0  0
    0.7394   -1.9857    1.8050 H   0  0  0  0  0  0  0  0  0  0  0  0
   -0.5379   -2.8626    0.9338 H   0  0  0  0  0  0  0  0  0  0  0  0
    1.4178   -3.0074    0.0329 C   0  0  0  0  0  0  0  0  0  0  0  0
    1.0285   -3.2430   -0.9604 H   0  0  0  0  0  0  0  0  0  0  0  0
    2.3048   -2.3795   -0.0722 H   0  0  0  0  0  0  0  0  0  0  0  0
    1.7855   -4.3053    0.7630 C   0  0  0  0  0  0  0  0  0  0  0  0
    2.1656   -4.0485    1.7572 H   0  0  0  0  0  0  0  0  0  0  0  0
    0.8763   -4.8995    0.8950 H   0  0  0  0  0  0  0  0  0  0  0  0
    2.8024   -5.0844    0.0125 N   0  3  0  0  0  0  0  0  0  0  0  0
    3.6502   -4.5435   -0.1037 H   0  0  0  0  0  0  0  0  0  0  0  0
    3.0337   -5.9371    0.5068 H   0  0  0  0  0  0  0  0  0  0  0  0
    2.4520   -5.3322   -0.9055 H   0  0  0  0  0  0  0  0  0  0  0  0
   -1.2709    1.2741    0.1840 C   0  0  0  0  0  0  0  0  0  0  0  0
   -2.2549    1.9475    0.4664 O   0  0  0  0  0  0  0  0  0  0  0  0
   -0.3400    1.6708   -0.6899 N   0  0  0  0  0  0  0  0  0  0  0  0
    0.4522    1.0680   -0.8391 H   0  0  0  0  0  0  0  0  0  0  0  0
   -0.3606    2.9619   -1.3799 C   0  0  0  0  0  0  0  0  0  0  0  0
   -0.2978    3.7714   -0.6494 H   0  0  0  0  0  0  0  0  0  0  0  0
    0.4817    3.0395   -2.0683 H   0  0  0  0  0  0  0  0  0  0  0  0
   -1.2931    3.0733   -1.9375 H   0  0  0  0  0  0  0  0  0  0  0  0
  5  6  2  0  0  0  0
  5  7  1  0  0  0  0
  2  3  1  0  0  0  0
  2  4  1  0  0  0  0
  2  5  1  0  0  0  0
  1  2  1  0  0  0  0
 27 28  2  0  0  0  0
 27 29  1  0  0  0  0
 23 24  1  0  0  0  0
 23 25  1  0  0  0  0
 23 26  1  0  0  0  0
 20 21  1  0  0  0  0
 20 22  1  0  0  0  0
 20 23  1  0  0  0  0
 17 18  1  0  0  0  0
 17 19  1  0  0  0  0
 17 20  1  0  0  0  0
 14 15  1  0  0  0  0
 14 16  1  0  0  0  0
 14 17  1  0  0  0  0
 11 12  1  0  0  0  0
 11 13  1  0  0  0  0
 11 14  1  0  0  0  0
  9 10  1  0  0  0  0
  9 11  1  0  0  0  0
  9 27  1  0  0  0  0
  7  8  1  0  0  0  0
  7  9  1  0  0  0  0
 31 32  1  0  0  0  0
 31 33  1  0  0  0  0
 31 34  1  0  0  0  0
 29 30  1  0  0  0  0
 29 31  1  0  0  0  0
M  CHG  1  23   1
M  END
$$$$
default_name
  -OEChem-01062215323D

 34 33  0     1  0  0  0  0  0999 V2000
   -3.8899   -3.6747    1.6490 H   0  0  0  0  0  0  0  0  0  0  0  0
   -3.9109   -2.6717    1.2250 C   0  0  0  0  0  0  0  0  0  0  0  0
   -4.6009   -2.0517    1.7950 H   0  0  0  0  0  0  0  0  0  0  0  0
   -4.2309   -2.7237    0.1860 H   0  0  0  0  0  0  0  0  0  0  0  0
   -2.5229   -2.0787    1.2980 C   0  0  0  0  0  0  0  0  0  0  0  0
   -1.5999   -2.7227    1.7810 O   0  0  0  0  0  0  0  0  0  0  0  0
   -2.3659   -0.8447    0.8120 N   0  0  0  0  0  0  0  0  0  0  0  0
   -3.1749   -0.3807    0.4220 H   0  0  0  0  0  0  0  0  0  0  0  0
   -1.0919   -0.1077    0.8170 C   0  0  1  0  0  0  0  0  0  0  0  0
   -0.7740    0.0196    1.8534 H   0  0  0  0  0  0  0  0  0  0  0  0
   -0.0372   -0.9482    0.0730 C   0  0  0  0  0  0  0  0  0  0  0  0
   -0.4381   -1.2239   -0.9036 H   0  0  0  0  0  0  0  0  0  0  0  0
    0.8575   -0.3428   -0.0852 H   0  0  0  0  0  0  0  0  0  0  0  0
    0.3482   -2.2355    0.8179 C   0  0  0  0  0  0  0  0  0  0  0  0
    0.7394   -1.9857    1.8050 H   0  0  0  0  0  0  0  0  0  0  0  0
   -0.5379   -2.8626    0.9338 H   0  0  0  0  0  0  0  0  0  0  0  0
    1.4178   -3.0074    0.0329 C   0  0  0  0  0  0  0  0  0  0  0  0
    1.0285   -3.2430   -0.9604 H   0  0  0  0  0  0  0  0  0  0  0  0
    2.3048   -2.3795   -0.0722 H   0  0  0  0  0  0  0  0  0  0  0  0
    1.7855   -4.3053    0.7630 C   0  0  0  0  0  0  0  0  0  0  0  0
    2.1656   -4.0485    1.7572 H   0  0  0  0  0  0  0  0  0  0  0  0
    0.8763   -4.8995    0.8950 H   0  0  0  0  0  0  0  0  0  0  0  0
    2.8024   -5.0844    0.0125 N   0  3  0  0  0  0  0  0  0  0  0  0
    3.6502   -4.5435   -0.1037 H   0  0  0  0  0  0  0  0  0  0  0  0
    3.0337   -5.9371    0.5068 H   0  0  0  0  0  0  0  0  0  0  0  0
    2.4520   -5.3322   -0.9055 H   0  0  0  0  0  0  0  0  0  0  0  0
   -1.2709    1.2741    0.1840 C   0  0  0  0  0  0  0  0  0  0  0  0
   -2.0857    2.0571    0.6578 O   0  0  0  0  0  0  0  0  0  0  0  0
   -0.5359    1.5500   -0.8983 N   0  0  0  0  0  0  0  0  0  0  0  0
    0.1322    0.8607   -1.2011 H   0  0  0  0  0  0  0  0  0  0  0  0
   -0.5846    2.8232   -1.6195 C   0  0  0  0  0  0  0  0  0  0  0  0
   -0.2683    3.6334   -0.9590 H   0  0  0  0  0  0  0  0  0  0  0  0
    0.0754    2.7950   -2.4872 H   0  0  0  0  0  0  0  0  0  0  0  0
   -1.6055    3.0272   -1.9497 H   0  0  0  0  0  0  0  0  0  0  0  0
  5  6  2  0  0  0  0
  5  7  1  0  0  0  0
  2  3  1  0  0  0  0
  2  4  1  0  0  0  0
  2  5  1  0  0  0  0
  1  2  1  0  0  0  0
 27 28  2  0  0  0  0
 27 29  1  0  0  0  0
 23 24  1  0  0  0  0
 23 25  1  0  0  0  0
 23 26  1  0  0  0  0
 20 21  1  0  0  0  0
 20 22  1  0  0  0  0
 20 23  1  0  0  0  0
 17 18  1  0  0  0  0
 17 19  1  0  0  0  0
 17 20  1  0  0  0  0
 14 15  1  0  0  0  0
 14 16  1  0  0  0  0
 14 17  1  0  0  0  0
 11 12  1  0  0  0  0
 11 13  1  0  0  0  0
 11 14  1  0  0  0  0
  9 10  1  0  0  0  0
  9 11  1  0  0  0  0
  9 27  1  0  0  0  0
  7  8  1  0  0  0  0
  7  9  1  0  0  0  0
 31 32  1  0  0  0  0
 31 33  1  0  0  0  0
 31 34  1  0  0  0  0
 29 30  1  0  0  0  0
 29 31  1  0  0  0  0
M  CHG  1  23   1
M  END
$$$$
default_name
  -OEChem-01062215323D

 34 33  0     1  0  0  0  0  0999 V2000
   -3.8899   -3.6747    1.6490 H   0  0  0  0  0  0  0  0  0  0  0  0
   -3.9109   -2.6717    1.2250 C   0  0  0  0  0  0  0  0  0  0  0  0
   -4.6009   -2.0517    1.7950 H   0  0  0  0  0  0  0  0  0  0  0  0
   -4.2309   -2.7237    0.1860 H   0  0  0  0  0  0  0  0  0  0  0  0
   -2.5229   -2.0787    1.2980 C   0  0  0  0  0  0  0  0  0  0  0  0
   -1.5999   -2.7227    1.7810 O   0  0  0  0  0  0  0  0  0  0  0  0
   -2.3659   -0.8447    0.8120 N   0  0  0  0  0  0  0  0  0  0  0  0
   -3.1749   -0.3807    0.4220 H   0  0  0  0  0  0  0  0  0  0  0  0
   -1.0919   -0.1077    0.8170 C   0  0  1  0  0  0  0  0  0  0  0  0
   -0.7740    0.0196    1.8534 H   0  0  0  0  0  0  0  0  0  0  0  0
   -0.0372   -0.9482    0.0730 C   0  0  0  0  0  0  0  0  0  0  0  0
   -0.4381   -1.2239   -0.9036 H   0  0  0  0  0  0  0  0  0  0  0  0
    0.8575   -0.3428   -0.0852 H   0  0  0  0  0  0  0  0  0  0  0  0
    0.3482   -2.2355    0.8179 C   0  0  0  0  0  0  0  0  0  0  0  0
    0.7394   -1.9857    1.8050 H   0  0  0  0  0  0  0  0  0  0  0  0
   -0.5379   -2.8626    0.9338 H   0  0  0  0  0  0  0  0  0  0  0  0
    1.4178   -3.0074    0.0329 C   0  0  0  0  0  0  0  0  0  0  0  0
    1.0285   -3.2430   -0.9604 H   0  0  0  0  0  0  0  0  0  0  0  0
    2.3048   -2.3795   -0.0722 H   0  0  0  0  0  0  0  0  0  0  0  0
    1.7855   -4.3053    0.7630 C   0  0  0  0  0  0  0  0  0  0  0  0
    2.1656   -4.0485    1.7572 H   0  0  0  0  0  0  0  0  0  0  0  0
    0.8763   -4.8995    0.8950 H   0  0  0  0  0  0  0  0  0  0  0  0
    2.8024   -5.0844    0.0125 N   0  3  0  0  0  0  0  0  0  0  0  0
    3.6502   -4.5435   -0.1037 H   0  0  0  0  0  0  0  0  0  0  0  0
    3.0337   -5.9371    0.5068 H   0  0  0  0  0  0  0  0  0  0  0  0
    2.4520   -5.3322   -0.9055 H   0  0  0  0  0  0  0  0  0  0  0  0
   -1.2709    1.2741    0.1840 C   0  0  0  0  0  0  0  0  0  0  0  0
   -1.8658    2.1506    0.7999 O   0  0  0  0  0  0  0  0  0  0  0  0
   -0.7868    1.4479   -1.0501 N   0  0  0  0  0  0  0  0  0  0  0  0
   -0.2837    0.6838   -1.4698 H   0  0  0  0  0  0  0  0  0  0  0  0
   -0.8719    2.7059   -1.7944 C   0  0  0  0  0  0  0  0  0  0  0  0
   -0.3270    3.4876   -1.2608 H   0  0  0  0  0  0  0  0  0  0  0  0
   -0.4412    2.5896   -2.7895 H   0  0  0  0  0  0  0  0  0  0  0  0
   -1.9151    3.0158   -1.8871 H   0  0  0  0  0  0  0  0  0  0  0  0
  5  6  2  0  0  0  0
  5  7  1  0  0  0  0
  2  3  1  0  0  0  0
  2  4  1  0  0  0  0
  2  5  1  0  0  0  0
  1  2  1  0  0  0  0
 27 28  2  0  0  0  0
 27 29  1  0  0  0  0
 23 24  1  0  0  0  0
 23 25  1  0  0  0  0
 23 26  1  0  0  0  0
 20 21  1  0  0  0  0
 20 22  1  0  0  0  0
 20 23  1  0  0  0  0
 17 18  1  0  0  0  0
 17 19  1  0  0  0  0
 17 20  1  0  0  0  0
 14 15  1  0  0  0  0
 14 16  1  0  0  0  0
 14 17  1  0  0  0  0
 11 12  1  0  0  0  0
 11 13  1  0  0  0  0
 11 14  1  0  0  0  0
  9 10  1  0  0  0  0
  9 11  1  0  0  0  0
  9 27  1  0  0  0  0
  7  8  1  0  0  0  0
  7  9  1  0  0  0  0
 31 32  1  0  0  0  0
 31 33  1  0  0  0  0
 31 34  1  0  0  0  0
 29 30  1  0  0  0  0
 29 31  1  0  0  0  0
M  CHG  1  23   1
M  END
$$$$
default_name
  -OEChem-01062215323D

 34 33  0     1  0  0  0  0  0999 V2000
   -3.8899   -3.6747    1.6490 H   0  0  0  0  0  0  0  0  0  0  0  0
   -3.9109   -2.6717    1.2250 C   0  0  0  0  0  0  0  0  0  0  0  0
   -4.6009   -2.0517    1.7950 H   0  0  0  0  0  0  0  0  0  0  0  0
   -4.2309   -2.7237    0.1860 H   0  0  0  0  0  0  0  0  0  0  0  0
   -2.5229   -2.0787    1.2980 C   0  0  0  0  0  0  0  0  0  0  0  0
   -1.5999   -2.7227    1.7810 O   0  0  0  0  0  0  0  0  0  0  0  0
   -2.3659   -0.8447    0.8120 N   0  0  0  0  0  0  0  0  0  0  0  0
   -3.1749   -0.3807    0.4220 H   0  0  0  0  0  0  0  0  0  0  0  0
   -1.0919   -0.1077    0.8170 C   0  0  1  0  0  0  0  0  0  0  0  0
   -0.7740    0.0196    1.8534 H   0  0  0  0  0  0  0  0  0  0  0  0
   -0.0372   -0.9482    0.0730 C   0  0  0  0  0  0  0  0  0  0  0  0
   -0.4381   -1.2239   -0.9036 H   0  0  0  0  0  0  0  0  0  0  0  0
    0.8575   -0.3428   -0.0852 H   0  0  0  0  0  0  0  0  0  0  0  0
    0.3482   -2.2355    0.8179 C   0  0  0  0  0  0  0  0  0  0  0  0
    0.7394   -1.9857    1.8050 H   0  0  0  0  0  0  0  0  0  0  0  0
   -0.5379   -2.8626    0.9338 H   0  0  0  0  0  0  0  0  0  0  0  0
    1.4178   -3.0074    0.0329 C   0  0  0  0  0  0  0  0  0  0  0  0
    1.0285   -3.2430   -0.9604 H   0  0  0  0  0  0  0  0  0  0  0  0
    2.3048   -2.3795   -0.0722 H   0  0  0  0  0  0  0  0  0  0  0  0
    1.7855   -4.3053    0.7630 C   0  0  0  0  0  0  0  0  0  0  0  0
    2.1656   -4.0485    1.7572 H   0  0  0  0  0  0  0  0  0  0  0  0
    0.8763   -4.8995    0.8950 H   0  0  0  0  0  0  0  0  0  0  0  0
    2.8024   -5.0844    0.0125 N   0  3  0  0  0  0  0  0  0  0  0  0
    3.6502   -4.5435   -0.1037 H   0  0  0  0  0  0  0  0  0  0  0  0
    3.0337   -5.9371    0.5068 H   0  0  0  0  0  0  0  0  0  0  0  0
    2.4520   -5.3322   -0.9055 H   0  0  0  0  0  0  0  0  0  0  0  0
   -1.2709    1.2741    0.1840 C   0  0  0  0  0  0  0  0  0  0  0  0
   -1.6102    2.2217    0.8829 O   0  0  0  0  0  0  0  0  0  0  0  0
   -1.0755    1.3716   -1.1351 N   0  0  0  0  0  0  0  0  0  0  0  0
   -0.7672    0.5493   -1.6268 H   0  0  0  0  0  0  0  0  0  0  0  0
   -1.2028    2.6180   -1.8926 C   0  0  0  0  0  0  0  0  0  0  0  0
   -0.4697    3.3438   -1.5342 H   0  0  0  0  0  0  0  0  0  0  0  0
   -1.0328    2.4374   -2.9546 H   0  0  0  0  0  0  0  0  0  0  0  0
   -2.2007    3.0398   -1.7540 H   0  0  0  0  0  0  0  0  0  0  0  0
  5  6  2  0  0  0  0
  5  7  1  0  0  0  0
  2  3  1  0  0  0  0
  2  4  1  0  0  0  0
  2  5  1  0  0  0  0
  1  2  1  0  0  0  0
 27 28  2  0  0  0  0
 27 29  1  0  0  0  0
 23 24  1  0  0  0  0
 23 25  1  0  0  0  0
 23 26  1  0  0  0  0
 20 21  1  0  0  0  0
 20 22  1  0  0  0  0
 20 23  1  0  0  0  0
 17 18  1  0  0  0  0
 17 19  1  0  0  0  0
 17 20  1  0  0  0  0
 14 15  1  0  0  0  0
 14 16  1  0  0  0  0
 14 17  1  0  0  0  0
 11 12  1  0  0  0  0
 11 13  1  0  0  0  0
 11 14  1  0  0  0  0
  9 10  1  0  0  0  0
  9 11  1  0  0  0  0
  9 27  1  0  0  0  0
  7  8  1  0  0  0  0
  7  9  1  0  0  0  0
 31 32  1  0  0  0  0
 31 33  1  0  0  0  0
 31 34  1  0  0  0  0
 29 30  1  0  0  0  0
 29 31  1  0  0  0  0
M  CHG  1  23   1
M  END
$$$$
default_name
  -OEChem-01062215323D

 34 33  0     1  0  0  0  0  0999 V2000
   -3.8899   -3.6747    1.6490 H   0  0  0  0  0  0  0  0  0  0  0  0
   -3.9109   -2.6717    1.2250 C   0  0  0  0  0  0  0  0  0  0  0  0
   -4.6009   -2.0517    1.7950 H   0  0  0  0  0  0  0  0  0  0  0  0
   -4.2309   -2.7237    0.1860 H   0  0  0  0  0  0  0  0  0  0  0  0
   -2.5229   -2.0787    1.2980 C   0  0  0  0  0  0  0  0  0  0  0  0
   -1.5999   -2.7227    1.7810 O   0  0  0  0  0  0  0  0  0  0  0  0
   -2.3659   -0.8447    0.8120 N   0  0  0  0  0  0  0  0  0  0  0  0
   -3.1749   -0.3807    0.4220 H   0  0  0  0  0  0  0  0  0  0  0  0
   -1.0919   -0.1077    0.8170 C   0  0  1  0  0  0  0  0  0  0  0  0
   -0.7740    0.0196    1.8534 H   0  0  0  0  0  0  0  0  0  0  0  0
   -0.0372   -0.9482    0.0730 C   0  0  0  0  0  0  0  0  0  0  0  0
   -0.4381   -1.2239   -0.9036 H   0  0  0  0  0  0  0  0  0  0  0  0
    0.8575   -0.3428   -0.0852 H   0  0  0  0  0  0  0  0  0  0  0  0
    0.3482   -2.2355    0.8179 C   0  0  0  0  0  0  0  0  0  0  0  0
    0.7394   -1.9857    1.8050 H   0  0  0  0  0  0  0  0  0  0  0  0
   -0.5379   -2.8626    0.9338 H   0  0  0  0  0  0  0  0  0  0  0  0
    1.4178   -3.0074    0.0329 C   0  0  0  0  0  0  0  0  0  0  0  0
    1.0285   -3.2430   -0.9604 H   0  0  0  0  0  0  0  0  0  0  0  0
    2.3048   -2.3795   -0.0722 H   0  0  0  0  0  0  0  0  0  0  0  0
    1.7855   -4.3053    0.7630 C   0  0  0  0  0  0  0  0  0  0  0  0
    2.1656   -4.0485    1.7572 H   0  0  0  0  0  0  0  0  0  0  0  0
    0.8763   -4.8995    0.8950 H   0  0  0  0  0  0  0  0  0  0  0  0
    2.8024   -5.0844    0.0125 N   0  3  0  0  0  0  0  0  0  0  0  0
    3.6502   -4.5435   -0.1037 H   0  0  0  0  0  0  0  0  0  0  0  0
    3.0337   -5.9371    0.5068 H   0  0  0  0  0  0  0  0  0  0  0  0
    2.4520   -5.3322   -0.9055 H   0  0  0  0  0  0  0  0  0  0  0  0
   -1.2709    1.2741    0.1840 C   0  0  0  0  0  0  0  0  0  0  0  0
   -1.3363    2.2656    0.9011 O   0  0  0  0  0  0  0  0  0  0  0  0
   -1.3824    1.3263   -1.1474 N   0  0  0  0  0  0  0  0  0  0  0  0
   -1.2853    0.4663   -1.6614 H   0  0  0  0  0  0  0  0  0  0  0  0
   -1.5548    2.5656   -1.9075 C   0  0  0  0  0  0  0  0  0  0  0  0
   -0.6869    3.2121   -1.7605 H   0  0  0  0  0  0  0  0  0  0  0  0
   -1.6591    2.3487   -2.9712 H   0  0  0  0  0  0  0  0  0  0  0  0
   -2.4429    3.0976   -1.5594 H   0  0  0  0  0  0  0  0  0  0  0  0
  5  6  2  0  0  0  0
  5  7  1  0  0  0  0
  2  3  1  0  0  0  0
  2  4  1  0  0  0  0
  2  5  1  0  0  0  0
  1  2  1  0  0  0  0
 27 28  2  0  0  0  0
 27 29  1  0  0  0  0
 23 24  1  0  0  0  0
 23 25  1  0  0  0  0
 23 26  1  0  0  0  0
 20 21  1  0  0  0  0
 20 22  1  0  0  0  0
 20 23  1  0  0  0  0
 17 18  1  0  0  0  0
 17 19  1  0  0  0  0
 17 20  1  0  0  0  0
 14 15  1  0  0  0  0
 14 16  1  0  0  0  0
 14 17  1  0  0  0  0
 11 12  1  0  0  0  0
 11 13  1  0  0  0  0
 11 14  1  0  0  0  0
  9 10  1  0  0  0  0
  9 11  1  0  0  0  0
  9 27  1  0  0  0  0
  7  8  1  0  0  0  0
  7  9  1  0  0  0  0
 31 32  1  0  0  0  0
 31 33  1  0  0  0  0
 31 34  1  0  0  0  0
 29 30  1  0  0  0  0
 29 31  1  0  0  0  0
M  CHG  1  23   1
M  END
$$$$
default_name
  -OEChem-01062215323D

 34 33  0     1  0  0  0  0  0999 V2000
   -3.8899   -3.6747    1.6490 H   0  0  0  0  0  0  0  0  0  0  0  0
   -3.9109   -2.6717    1.2250 C   0  0  0  0  0  0  0  0  0  0  0  0
   -4.6009   -2.0517    1.7950 H   0  0  0  0  0  0  0  0  0  0  0  0
   -4.2309   -2.7237    0.1860 H   0  0  0  0  0  0  0  0  0  0  0  0
   -2.5229   -2.0787    1.2980 C   0  0  0  0  0  0  0  0  0  0  0  0
   -1.5999   -2.7227    1.7810 O   0  0  0  0  0  0  0  0  0  0  0  0
   -2.3659   -0.8447    0.8120 N   0  0  0  0  0  0  0  0  0  0  0  0
   -3.1749   -0.3807    0.4220 H   0  0  0  0  0  0  0  0  0  0  0  0
   -1.0919   -0.1077    0.8170 C   0  0  1  0  0  0  0  0  0  0  0  0
   -0.7740    0.0196    1.8534 H   0  0  0  0  0  0  0  0  0  0  0  0
   -0.0372   -0.9482    0.0730 C   0  0  0  0  0  0  0  0  0  0  0  0
   -0.4381   -1.2239   -0.9036 H   0  0  0  0  0  0  0  0  0  0  0  0
    0.8575   -0.3428   -0.0852 H   0  0  0  0  0  0  0  0  0  0  0  0
    0.3482   -2.2355    0.8179 C   0  0  0  0  0  0  0  0  0  0  0  0
    0.7394   -1.9857    1.8050 H   0  0  0  0  0  0  0  0  0  0  0  0
   -0.5379   -2.8626    0.9338 H   0  0  0  0  0  0  0  0  0  0  0  0
    1.4178   -3.0074    0.0329 C   0  0  0  0  0  0  0  0  0  0  0  0
    1.0285   -3.2430   -0.9604 H   0  0  0  0  0  0  0  0  0  0  0  0
    2.3048   -2.3795   -0.0722 H   0  0  0  0  0  0  0  0  0  0  0  0
    1.7855   -4.3053    0.7630 C   0  0  0  0  0  0  0  0  0  0  0  0
    2.1656   -4.0485    1.7572 H   0  0  0  0  0  0  0  0  0  0  0  0
    0.8763   -4.8995    0.8950 H   0  0  0  0  0  0  0  0  0  0  0  0
    2.8024   -5.0844    0.0125 N   0  3  0  0  0  0  0  0  0  0  0  0
    3.6502   -4.5435   -0.1037 H   0  0  0  0  0  0  0  0  0  0  0  0
    3.0337   -5.9371    0.5068 H   0  0  0  0  0  0  0  0  0  0  0  0
    2.4520   -5.3322   -0.9055 H   0  0  0  0  0  0  0  0  0  0  0  0
   -1.2709    1.2741    0.1840 C   0  0  0  0  0  0  0  0  0  0  0  0
   -1.0628    2.2791    0.8535 O   0  0  0  0  0  0  0  0  0  0  0  0
   -1.6866    1.3149   -1.0861 N   0  0  0  0  0  0  0  0  0  0  0  0
   -1.8026    0.4407   -1.5712 H   0  0  0  0  0  0  0  0  0  0  0  0
   -1.9038    2.5522   -1.8381 C   0  0  0  0  0  0  0  0  0  0  0  0
   -0.9637    3.1011   -1.9244 H   0  0  0  0  0  0  0  0  0  0  0  0
   -2.2774    2.3296   -2.8382 H   0  0  0  0  0  0  0  0  0  0  0  0
   -2.6251    3.1852   -1.3166 H   0  0  0  0  0  0  0  0  0  0  0  0
  5  6  2  0  0  0  0
  5  7  1  0  0  0  0
  2  3  1  0  0  0  0
  2  4  1  0  0  0  0
  2  5  1  0  0  0  0
  1  2  1  0  0  0  0
 27 28  2  0  0  0  0
 27 29  1  0  0  0  0
 23 24  1  0  0  0  0
 23 25  1  0  0  0  0
 23 26  1  0  0  0  0
 20 21  1  0  0  0  0
 20 22  1  0  0  0  0
 20 23  1  0  0  0  0
 17 18  1  0  0  0  0
 17 19  1  0  0  0  0
 17 20  1  0  0  0  0
 14 15  1  0  0  0  0
 14 16  1  0  0  0  0
 14 17  1  0  0  0  0
 11 12  1  0  0  0  0
 11 13  1  0  0  0  0
 11 14  1  0  0  0  0
  9 10  1  0  0  0  0
  9 11  1  0  0  0  0
  9 27  1  0  0  0  0
  7  8  1  0  0  0  0
  7  9  1  0  0  0  0
 31 32  1  0  0  0  0
 31 33  1  0  0  0  0
 31 34  1  0  0  0  0
 29 30  1  0  0  0  0
 29 31  1  0  0  0  0
M  CHG  1  23   1
M  END
$$$$
default_name
  -OEChem-01062215323D

 34 33  0     1  0  0  0  0  0999 V2000
   -3.8899   -3.6747    1.6490 H   0  0  0  0  0  0  0  0  0  0  0  0
   -3.9109   -2.6717    1.2250 C   0  0  0  0  0  0  0  0  0  0  0  0
   -4.6009   -2.0517    1.7950 H   0  0  0  0  0  0  0  0  0  0  0  0
   -4.2309   -2.7237    0.1860 H   0  0  0  0  0  0  0  0  0  0  0  0
   -2.5229   -2.0787    1.2980 C   0  0  0  0  0  0  0  0  0  0  0  0
   -1.5999   -2.7227    1.7810 O   0  0  0  0  0  0  0  0  0  0  0  0
   -2.3659   -0.8447    0.8120 N   0  0  0  0  0  0  0  0  0  0  0  0
   -3.1749   -0.3807    0.4220 H   0  0  0  0  0  0  0  0  0  0  0  0
   -1.0919   -0.1077    0.8170 C   0  0  1  0  0  0  0  0  0  0  0  0
   -0.7740    0.0196    1.8534 H   0  0  0  0  0  0  0  0  0  0  0  0
   -0.0372   -0.9482    0.0730 C   0  0  0  0  0  0  0  0  0  0  0  0
   -0.4381   -1.2239   -0.9036 H   0  0  0  0  0  0  0  0  0  0  0  0
    0.8575   -0.3428   -0.0852 H   0  0  0  0  0  0  0  0  0  0  0  0
    0.3482   -2.2355    0.8179 C   0  0  0  0  0  0  0  0  0  0  0  0
    0.7394   -1.9857    1.8050 H   0  0  0  0  0  0  0  0  0  0  0  0
   -0.5379   -2.8626    0.9338 H   0  0  0  0  0  0  0  0  0  0  0  0
    1.4178   -3.0074    0.0329 C   0  0  0  0  0  0  0  0  0  0  0  0
    1.0285   -3.2430   -0.9604 H   0  0  0  0  0  0  0  0  0  0  0  0
    2.3048   -2.3795   -0.0722 H   0  0  0  0  0  0  0  0  0  0  0  0
    1.7855   -4.3053    0.7630 C   0  0  0  0  0  0  0  0  0  0  0  0
    2.1656   -4.0485    1.7572 H   0  0  0  0  0  0  0  0  0  0  0  0
    0.8763   -4.8995    0.8950 H   0  0  0  0  0  0  0  0  0  0  0  0
    2.8024   -5.0844    0.0125 N   0  3  0  0  0  0  0  0  0  0  0  0
    3.6502   -4.5435   -0.1037 H   0  0  0  0  0  0  0  0  0  0  0  0
    3.0337   -5.9371    0.5068 H   0  0  0  0  0  0  0  0  0  0  0  0
    2.4520   -5.3322   -0.9055 H   0  0  0  0  0  0  0  0  0  0  0  0
   -1.2709    1.2741    0.1840 C   0  0  0  0  0  0  0  0  0  0  0  0
   -0.8083    2.2615    0.7431 O   0  0  0  0  0  0  0  0  0  0  0  0
   -1.9673    1.3384   -0.9555 N   0  0  0  0  0  0  0  0  0  0  0  0
   -2.2840    0.4740   -1.3624 H   0  0  0  0  0  0  0  0  0  0  0  0
   -2.2262    2.5787   -1.6890 C   0  0  0  0  0  0  0  0  0  0  0  0
   -1.2812    3.0187   -2.0146 H   0  0  0  0  0  0  0  0  0  0  0  0
   -2.8457    2.3813   -2.5647 H   0  0  0  0  0  0  0  0  0  0  0  0
   -2.7351    3.2967   -1.0421 H   0  0  0  0  0  0  0  0  0  0  0  0
  5  6  2  0  0  0  0
  5  7  1  0  0  0  0
  2  3  1  0  0  0  0
  2  4  1  0  0  0  0
  2  5  1  0  0  0  0
  1  2  1  0  0  0  0
 27 28  2  0  0  0  0
 27 29  1  0  0  0  0
 23 24  1  0  0  0  0
 23 25  1  0  0  0  0
 23 26  1  0  0  0  0
 20 21  1  0  0  0  0
 20 22  1  0  0  0  0
 20 23  1  0  0  0  0
 17 18  1  0  0  0  0
 17 19  1  0  0  0  0
 17 20  1  0  0  0  0
 14 15  1  0  0  0  0
 14 16  1  0  0  0  0
 14 17  1  0  0  0  0
 11 12  1  0  0  0  0
 11 13  1  0  0  0  0
 11 14  1  0  0  0  0
  9 10  1  0  0  0  0
  9 11  1  0  0  0  0
  9 27  1  0  0  0  0
  7  8  1  0  0  0  0
  7  9  1  0  0  0  0
 31 32  1  0  0  0  0
 31 33  1  0  0  0  0
 31 34  1  0  0  0  0
 29 30  1  0  0  0  0
 29 31  1  0  0  0  0
M  CHG  1  23   1
M  END
$$$$
default_name
  -OEChem-01062215323D

 34 33  0     1  0  0  0  0  0999 V2000
   -3.8899   -3.6747    1.6490 H   0  0  0  0  0  0  0  0  0  0  0  0
   -3.9109   -2.6717    1.2250 C   0  0  0  0  0  0  0  0  0  0  0  0
   -4.6009   -2.0517    1.7950 H   0  0  0  0  0  0  0  0  0  0  0  0
   -4.2309   -2.7237    0.1860 H   0  0  0  0  0  0  0  0  0  0  0  0
   -2.5229   -2.0787    1.2980 C   0  0  0  0  0  0  0  0  0  0  0  0
   -1.5999   -2.7227    1.7810 O   0  0  0  0  0  0  0  0  0  0  0  0
   -2.3659   -0.8447    0.8120 N   0  0  0  0  0  0  0  0  0  0  0  0
   -3.1749   -0.3807    0.4220 H   0  0  0  0  0  0  0  0  0  0  0  0
   -1.0919   -0.1077    0.8170 C   0  0  1  0  0  0  0  0  0  0  0  0
   -0.7740    0.0196    1.8534 H   0  0  0  0  0  0  0  0  0  0  0  0
   -0.0372   -0.9482    0.0730 C   0  0  0  0  0  0  0  0  0  0  0  0
   -0.4381   -1.2239   -0.9036 H   0  0  0  0  0  0  0  0  0  0  0  0
    0.8575   -0.3428   -0.0852 H   0  0  0  0  0  0  0  0  0  0  0  0
    0.3482   -2.2355    0.8179 C   0  0  0  0  0  0  0  0  0  0  0  0
    0.7394   -1.9857    1.8050 H   0  0  0  0  0  0  0  0  0  0  0  0
   -0.5379   -2.8626    0.9338 H   0  0  0  0  0  0  0  0  0  0  0  0
    1.4178   -3.0074    0.0329 C   0  0  0  0  0  0  0  0  0  0  0  0
    1.0285   -3.2430   -0.9604 H   0  0  0  0  0  0  0  0  0  0  0  0
    2.3048   -2.3795   -0.0722 H   0  0  0  0  0  0  0  0  0  0  0  0
    1.7855   -4.3053    0.7630 C   0  0  0  0  0  0  0  0  0  0  0  0
    2.1656   -4.0485    1.7572 H   0  0  0  0  0  0  0  0  0  0  0  0
    0.8763   -4.8995    0.8950 H   0  0  0  0  0  0  0  0  0  0  0  0
    2.8024   -5.0844    0.0125 N   0  3  0  0  0  0  0  0  0  0  0  0
    3.6502   -4.5435   -0.1037 H   0  0  0  0  0  0  0  0  0  0  0  0
    3.0337   -5.9371    0.5068 H   0  0  0  0  0  0  0  0  0  0  0  0
    2.4520   -5.3322   -0.9055 H   0  0  0  0  0  0  0  0  0  0  0  0
   -1.2709    1.2741    0.1840 C   0  0  0  0  0  0  0  0  0  0  0  0
   -0.5901    2.2139    0.5775 O   0  0  0  0  0  0  0  0  0  0  0  0
   -2.2054    1.3951   -0.7645 N   0  0  0  0  0  0  0  0  0  0  0  0
   -2.6967    0.5640   -1.0492 H   0  0  0  0  0  0  0  0  0  0  0  0
   -2.5000    2.6434   -1.4705 C   0  0  0  0  0  0  0  0  0  0  0  0
   -1.6178    2.9703   -2.0251 H   0  0  0  0  0  0  0  0  0  0  0  0
   -3.3251    2.5004   -2.1692 H   0  0  0  0  0  0  0  0  0  0  0  0
   -2.7652    3.4245   -0.7546 H   0  0  0  0  0  0  0  0  0  0  0  0
  5  6  2  0  0  0  0
  5  7  1  0  0  0  0
  2  3  1  0  0  0  0
  2  4  1  0  0  0  0
  2  5  1  0  0  0  0
  1  2  1  0  0  0  0
 27 28  2  0  0  0  0
 27 29  1  0  0  0  0
 23 24  1  0  0  0  0
 23 25  1  0  0  0  0
 23 26  1  0  0  0  0
 20 21  1  0  0  0  0
 20 22  1  0  0  0  0
 20 23  1  0  0  0  0
 17 18  1  0  0  0  0
 17 19  1  0  0  0  0
 17 20  1  0  0  0  0
 14 15  1  0  0  0  0
 14 16  1  0  0  0  0
 14 17  1  0  0  0  0
 11 12  1  0  0  0  0
 11 13  1  0  0  0  0
 11 14  1  0  0  0  0
  9 10  1  0  0  0  0
  9 11  1  0  0  0  0
  9 27  1  0  0  0  0
  7  8  1  0  0  0  0
  7  9  1  0  0  0  0
 31 32  1  0  0  0  0
 31 33  1  0  0  0  0
 31 34  1  0  0  0  0
 29 30  1  0  0  0  0
 29 31  1  0  0  0  0
M  CHG  1  23   1
M  END
$$$$
default_name
  -OEChem-01062215323D

 34 33  0     1  0  0  0  0  0999 V2000
   -3.8899   -3.6747    1.6490 H   0  0  0  0  0  0  0  0  0  0  0  0
   -3.9109   -2.6717    1.2250 C   0  0  0  0  0  0  0  0  0  0  0  0
   -4.6009   -2.0517    1.7950 H   0  0  0  0  0  0  0  0  0  0  0  0
   -4.2309   -2.7237    0.1860 H   0  0  0  0  0  0  0  0  0  0  0  0
   -2.5229   -2.0787    1.2980 C   0  0  0  0  0  0  0  0  0  0  0  0
   -1.5999   -2.7227    1.7810 O   0  0  0  0  0  0  0  0  0  0  0  0
   -2.3659   -0.8447    0.8120 N   0  0  0  0  0  0  0  0  0  0  0  0
   -3.1749   -0.3807    0.4220 H   0  0  0  0  0  0  0  0  0  0  0  0
   -1.0919   -0.1077    0.8170 C   0  0  1  0  0  0  0  0  0  0  0  0
   -0.7740    0.0196    1.8534 H   0  0  0  0  0  0  0  0  0  0  0  0
   -0.0372   -0.9482    0.0730 C   0  0  0  0  0  0  0  0  0  0  0  0
   -0.4381   -1.2239   -0.9036 H   0  0  0  0  0  0  0  0  0  0  0  0
    0.8575   -0.3428   -0.0852 H   0  0  0  0  0  0  0  0  0  0  0  0
    0.3482   -2.2355    0.8179 C   0  0  0  0  0  0  0  0  0  0  0  0
    0.7394   -1.9857    1.8050 H   0  0  0  0  0  0  0  0  0  0  0  0
   -0.5379   -2.8626    0.9338 H   0  0  0  0  0  0  0  0  0  0  0  0
    1.4178   -3.0074    0.0329 C   0  0  0  0  0  0  0  0  0  0  0  0
    1.0285   -3.2430   -0.9604 H   0  0  0  0  0  0  0  0  0  0  0  0
    2.3048   -2.3795   -0.0722 H   0  0  0  0  0  0  0  0  0  0  0  0
    1.7855   -4.3053    0.7630 C   0  0  0  0  0  0  0  0  0  0  0  0
    2.1656   -4.0485    1.7572 H   0  0  0  0  0  0  0  0  0  0  0  0
    0.8763   -4.8995    0.8950 H   0  0  0  0  0  0  0  0  0  0  0  0
    2.8024   -5.0844    0.0125 N   0  3  0  0  0  0  0  0  0  0  0  0
    3.6502   -4.5435   -0.1037 H   0  0  0  0  0  0  0  0  0  0  0  0
    3.0337   -5.9371    0.5068 H   0  0  0  0  0  0  0  0  0  0  0  0
    2.4520   -5.3322   -0.9055 H   0  0  0  0  0  0  0  0  0  0  0  0
   -1.2709    1.2741    0.1840 C   0  0  0  0  0  0  0  0  0  0  0  0
   -0.4232    2.1396    0.3680 O   0  0  0  0  0  0  0  0  0  0  0  0
   -2.3847    1.4811   -0.5261 N   0  0  0  0  0  0  0  0  0  0  0  0
   -3.0125    0.7046   -0.6530 H   0  0  0  0  0  0  0  0  0  0  0  0
   -2.7064    2.7417   -1.1974 C   0  0  0  0  0  0  0  0  0  0  0  0
   -1.9506    2.9593   -1.9552 H   0  0  0  0  0  0  0  0  0  0  0  0
   -3.6830    2.6787   -1.6788 H   0  0  0  0  0  0  0  0  0  0  0  0
   -2.7134    3.5598   -0.4738 H   0  0  0  0  0  0  0  0  0  0  0  0
  5  6  2  0  0  0  0
  5  7  1  0  0  0  0
  2  3  1  0  0  0  0
  2  4  1  0  0  0  0
  2  5  1  0  0  0  0
  1  2  1  0  0  0  0
 27 28  2  0  0  0  0
 27 29  1  0  0  0  0
 23 24  1  0  0  0  0
 23 25  1  0  0  0  0
 23 26  1  0  0  0  0
 20 21  1  0  0  0  0
 20 22  1  0  0  0  0
 20 23  1  0  0  0  0
 17 18  1  0  0  0  0
 17 19  1  0  0  0  0
 17 20  1  0  0  0  0
 14 15  1  0  0  0  0
 14 16  1  0  0  0  0
 14 17  1  0  0  0  0
 11 12  1  0  0  0  0
 11 13  1  0  0  0  0
 11 14  1  0  0  0  0
  9 10  1  0  0  0  0
  9 11  1  0  0  0  0
  9 27  1  0  0  0  0
  7  8  1  0  0  0  0
  7  9  1  0  0  0  0
 31 32  1  0  0  0  0
 31 33  1  0  0  0  0
 31 34  1  0  0  0  0
 29 30  1  0  0  0  0
 29 31  1  0  0  0  0
M  CHG  1  23   1
M  END
$$$$
default_name
  -OEChem-01062215323D

 34 33  0     1  0  0  0  0  0999 V2000
   -3.8899   -3.6747    1.6490 H   0  0  0  0  0  0  0  0  0  0  0  0
   -3.9109   -2.6717    1.2250 C   0  0  0  0  0  0  0  0  0  0  0  0
   -4.6009   -2.0517    1.7950 H   0  0  0  0  0  0  0  0  0  0  0  0
   -4.2309   -2.7237    0.1860 H   0  0  0  0  0  0  0  0  0  0  0  0
   -2.5229   -2.0787    1.2980 C   0  0  0  0  0  0  0  0  0  0  0  0
   -1.5999   -2.7227    1.7810 O   0  0  0  0  0  0  0  0  0  0  0  0
   -2.3659   -0.8447    0.8120 N   0  0  0  0  0  0  0  0  0  0  0  0
   -3.1749   -0.3807    0.4220 H   0  0  0  0  0  0  0  0  0  0  0  0
   -1.0919   -0.1077    0.8170 C   0  0  1  0  0  0  0  0  0  0  0  0
   -0.7740    0.0196    1.8534 H   0  0  0  0  0  0  0  0  0  0  0  0
   -0.0372   -0.9482    0.0730 C   0  0  0  0  0  0  0  0  0  0  0  0
   -0.4381   -1.2239   -0.9036 H   0  0  0  0  0  0  0  0  0  0  0  0
    0.8575   -0.3428   -0.0852 H   0  0  0  0  0  0  0  0  0  0  0  0
    0.3482   -2.2355    0.8179 C   0  0  0  0  0  0  0  0  0  0  0  0
    0.7394   -1.9857    1.8050 H   0  0  0  0  0  0  0  0  0  0  0  0
   -0.5379   -2.8626    0.9338 H   0  0  0  0  0  0  0  0  0  0  0  0
    1.4178   -3.0074    0.0329 C   0  0  0  0  0  0  0  0  0  0  0  0
    1.0285   -3.2430   -0.9604 H   0  0  0  0  0  0  0  0  0  0  0  0
    2.3048   -2.3795   -0.0722 H   0  0  0  0  0  0  0  0  0  0  0  0
    1.7855   -4.3053    0.7630 C   0  0  0  0  0  0  0  0  0  0  0  0
    2.1656   -4.0485    1.7572 H   0  0  0  0  0  0  0  0  0  0  0  0
    0.8763   -4.8995    0.8950 H   0  0  0  0  0  0  0  0  0  0  0  0
    2.8024   -5.0844    0.0125 N   0  3  0  0  0  0  0  0  0  0  0  0
    3.6502   -4.5435   -0.1037 H   0  0  0  0  0  0  0  0  0  0  0  0
    3.0337   -5.9371    0.5068 H   0  0  0  0  0  0  0  0  0  0  0  0
    2.4520   -5.3322   -0.9055 H   0  0  0  0  0  0  0  0  0  0  0  0
   -1.2709    1.2741    0.1840 C   0  0  0  0  0  0  0  0  0  0  0  0
   -0.3188    2.0436    0.1289 O   0  0  0  0  0  0  0  0  0  0  0  0
   -2.4930    1.5906   -0.2564 N   0  0  0  0  0  0  0  0  0  0  0  0
   -3.2098    0.8862   -0.2007 H   0  0  0  0  0  0  0  0  0  0  0  0
   -2.8314    2.8671   -0.8884 C   0  0  0  0  0  0  0  0  0  0  0  0
   -2.2568    2.9863   -1.8095 H   0  0  0  0  0  0  0  0  0  0  0  0
   -3.8950    2.9040   -1.1268 H   0  0  0  0  0  0  0  0  0  0  0  0
   -2.5833    3.6935   -0.2188 H   0  0  0  0  0  0  0  0  0  0  0  0
  5  6  2  0  0  0  0
  5  7  1  0  0  0  0
  2  3  1  0  0  0  0
  2  4  1  0  0  0  0
  2  5  1  0  0  0  0
  1  2  1  0  0  0  0
 27 28  2  0  0  0  0
 27 29  1  0  0  0  0
 23 24  1  0  0  0  0
 23 25  1  0  0  0  0
 23 26  1  0  0  0  0
 20 21  1  0  0  0  0
 20 22  1  0  0  0  0
 20 23  1  0  0  0  0
 17 18  1  0  0  0  0
 17 19  1  0  0  0  0
 17 20  1  0  0  0  0
 14 15  1  0  0  0  0
 14 16  1  0  0  0  0
 14 17  1  0  0  0  0
 11 12  1  0  0  0  0
 11 13  1  0  0  0  0
 11 14  1  0  0  0  0
  9 10  1  0  0  0  0
  9 11  1  0  0  0  0
  9 27  1  0  0  0  0
  7  8  1  0  0  0  0
  7  9  1  0  0  0  0
 31 32  1  0  0  0  0
 31 33  1  0  0  0  0
 31 34  1  0  0  0  0
 29 30  1  0  0  0  0
 29 31  1  0  0  0  0
M  CHG  1  23   1
M  END
$$$$
default_name
  -OEChem-01062215323D

 34 33  0     1  0  0  0  0  0999 V2000
   -3.8899   -3.6747    1.6490 H   0  0  0  0  0  0  0  0  0  0  0  0
   -3.9109   -2.6717    1.2250 C   0  0  0  0  0  0  0  0  0  0  0  0
   -4.6009   -2.0517    1.7950 H   0  0  0  0  0  0  0  0  0  0  0  0
   -4.2309   -2.7237    0.1860 H   0  0  0  0  0  0  0  0  0  0  0  0
   -2.5229   -2.0787    1.2980 C   0  0  0  0  0  0  0  0  0  0  0  0
   -1.5999   -2.7227    1.7810 O   0  0  0  0  0  0  0  0  0  0  0  0
   -2.3659   -0.8447    0.8120 N   0  0  0  0  0  0  0  0  0  0  0  0
   -3.1749   -0.3807    0.4220 H   0  0  0  0  0  0  0  0  0  0  0  0
   -1.0919   -0.1077    0.8170 C   0  0  1  0  0  0  0  0  0  0  0  0
   -0.7740    0.0196    1.8534 H   0  0  0  0  0  0  0  0  0  0  0  0
   -0.0372   -0.9482    0.0730 C   0  0  0  0  0  0  0  0  0  0  0  0
   -0.4381   -1.2239   -0.9036 H   0  0  0  0  0  0  0  0  0  0  0  0
    0.8575   -0.3428   -0.0852 H   0  0  0  0  0  0  0  0  0  0  0  0
    0.3482   -2.2355    0.8179 C   0  0  0  0  0  0  0  0  0  0  0  0
    0.7394   -1.9857    1.8050 H   0  0  0  0  0  0  0  0  0  0  0  0
   -0.5379   -2.8626    0.9338 H   0  0  0  0  0  0  0  0  0  0  0  0
    1.4178   -3.0074    0.0329 C   0  0  0  0  0  0  0  0  0  0  0  0
    1.0285   -3.2430   -0.9604 H   0  0  0  0  0  0  0  0  0  0  0  0
    2.3048   -2.3795   -0.0722 H   0  0  0  0  0  0  0  0  0  0  0  0
    1.7855   -4.3053    0.7630 C   0  0  0  0  0  0  0  0  0  0  0  0
    2.1656   -4.0485    1.7572 H   0  0  0  0  0  0  0  0  0  0  0  0
    0.8763   -4.8995    0.8950 H   0  0  0  0  0  0  0  0  0  0  0  0
    2.8024   -5.0844    0.0125 N   0  3  0  0  0  0  0  0  0  0  0  0
    3.6502   -4.5435   -0.1037 H   0  0  0  0  0  0  0  0  0  0  0  0
    3.0337   -5.9371    0.5068 H   0  0  0  0  0  0  0  0  0  0  0  0
    2.4520   -5.3322   -0.9055 H   0  0  0  0  0  0  0  0  0  0  0  0
   -1.2709    1.2741    0.1840 C   0  0  0  0  0  0  0  0  0  0  0  0
   -0.2842    1.9324   -0.1235 O   0  0  0  0  0  0  0  0  0  0  0  0
   -2.5228    1.7161    0.0260 N   0  0  0  0  0  0  0  0  0  0  0  0
   -3.2753    1.0964    0.2767 H   0  0  0  0  0  0  0  0  0  0  0  0
   -2.8666    3.0109   -0.5645 C   0  0  0  0  0  0  0  0  0  0  0  0
   -2.5157    3.0497   -1.5980 H   0  0  0  0  0  0  0  0  0  0  0  0
   -3.9467    3.1611   -0.5509 H   0  0  0  0  0  0  0  0  0  0  0  0
   -2.3837    3.8164   -0.0068 H   0  0  0  0  0  0  0  0  0  0  0  0
  5  6  2  0  0  0  0
  5  7  1  0  0  0  0
  2  3  1  0  0  0  0
  2  4  1  0  0  0  0
  2  5  1  0  0  0  0
  1  2  1  0  0  0  0
 27 28  2  0  0  0  0
 27 29  1  0  0  0  0
 23 24  1  0  0  0  0
 23 25  1  0  0  0  0
 23 26  1  0  0  0  0
 20 21  1  0  0  0  0
 20 22  1  0  0  0  0
 20 23  1  0  0  0  0
 17 18  1  0  0  0  0
 17 19  1  0  0  0  0
 17 20  1  0  0  0  0
 14 15  1  0  0  0  0
 14 16  1  0  0  0  0
 14 17  1  0  0  0  0
 11 12  1  0  0  0  0
 11 13  1  0  0  0  0
 11 14  1  0  0  0  0
  9 10  1  0  0  0  0
  9 11  1  0  0  0  0
  9 27  1  0  0  0  0
  7  8  1  0  0  0  0
  7  9  1  0  0  0  0
 31 32  1  0  0  0  0
 31 33  1  0  0  0  0
 31 34  1  0  0  0  0
 29 30  1  0  0  0  0
 29 31  1  0  0  0  0
M  CHG  1  23   1
M  END
$$$$
default_name
  -OEChem-01062215323D

 34 33  0     1  0  0  0  0  0999 V2000
   -3.8899   -3.6747    1.6490 H   0  0  0  0  0  0  0  0  0  0  0  0
   -3.9109   -2.6717    1.2250 C   0  0  0  0  0  0  0  0  0  0  0  0
   -4.6009   -2.0517    1.7950 H   0  0  0  0  0  0  0  0  0  0  0  0
   -4.2309   -2.7237    0.1860 H   0  0  0  0  0  0  0  0  0  0  0  0
   -2.5229   -2.0787    1.2980 C   0  0  0  0  0  0  0  0  0  0  0  0
   -1.5999   -2.7227    1.7810 O   0  0  0  0  0  0  0  0  0  0  0  0
   -2.3659   -0.8447    0.8120 N   0  0  0  0  0  0  0  0  0  0  0  0
   -3.1749   -0.3807    0.4220 H   0  0  0  0  0  0  0  0  0  0  0  0
   -1.0919   -0.1077    0.8170 C   0  0  1  0  0  0  0  0  0  0  0  0
   -0.7740    0.0196    1.8534 H   0  0  0  0  0  0  0  0  0  0  0  0
   -0.0372   -0.9482    0.0730 C   0  0  0  0  0  0  0  0  0  0  0  0
   -0.4381   -1.2239   -0.9036 H   0  0  0  0  0  0  0  0  0  0  0  0
    0.8575   -0.3428   -0.0852 H   0  0  0  0  0  0  0  0  0  0  0  0
    0.3482   -2.2355    0.8179 C   0  0  0  0  0  0  0  0  0  0  0  0
    0.7394   -1.9857    1.8050 H   0  0  0  0  0  0  0  0  0  0  0  0
   -0.5379   -2.8626    0.9338 H   0  0  0  0  0  0  0  0  0  0  0  0
    1.4178   -3.0074    0.0329 C   0  0  0  0  0  0  0  0  0  0  0  0
    1.0285   -3.2430   -0.9604 H   0  0  0  0  0  0  0  0  0  0  0  0
    2.3048   -2.3795   -0.0722 H   0  0  0  0  0  0  0  0  0  0  0  0
    1.7855   -4.3053    0.7630 C   0  0  0  0  0  0  0  0  0  0  0  0
    2.1656   -4.0485    1.7572 H   0  0  0  0  0  0  0  0  0  0  0  0
    0.8763   -4.8995    0.8950 H   0  0  0  0  0  0  0  0  0  0  0  0
    2.8024   -5.0844    0.0125 N   0  3  0  0  0  0  0  0  0  0  0  0
    3.6502   -4.5435   -0.1037 H   0  0  0  0  0  0  0  0  0  0  0  0
    3.0337   -5.9371    0.5068 H   0  0  0  0  0  0  0  0  0  0  0  0
    2.4520   -5.3322   -0.9055 H   0  0  0  0  0  0  0  0  0  0  0  0
   -1.2709    1.2741    0.1840 C   0  0  0  0  0  0  0  0  0  0  0  0
   -0.3216    1.8137   -0.3721 O   0  0  0  0  0  0  0  0  0  0  0  0
   -2.4722    1.8490    0.3020 N   0  0  0  0  0  0  0  0  0  0  0  0
   -3.2045    1.3210    0.7469 H   0  0  0  0  0  0  0  0  0  0  0  0
   -2.8094    3.1634   -0.2477 C   0  0  0  0  0  0  0  0  0  0  0  0
   -2.7096    3.1450   -1.3351 H   0  0  0  0  0  0  0  0  0  0  0  0
   -3.8345    3.4324    0.0096 H   0  0  0  0  0  0  0  0  0  0  0  0
   -2.1282    3.9202    0.1475 H   0  0  0  0  0  0  0  0  0  0  0  0
  5  6  2  0  0  0  0
  5  7  1  0  0  0  0
  2  3  1  0  0  0  0
  2  4  1  0  0  0  0
  2  5  1  0  0  0  0
  1  2  1  0  0  0  0
 27 28  2  0  0  0  0
 27 29  1  0  0  0  0
 23 24  1  0  0  0  0
 23 25  1  0  0  0  0
 23 26  1  0  0  0  0
 20 21  1  0  0  0  0
 20 22  1  0  0  0  0
 20 23  1  0  0  0  0
 17 18  1  0  0  0  0
 17 19  1  0  0  0  0
 17 20  1  0  0  0  0
 14 15  1  0  0  0  0
 14 16  1  0  0  0  0
 14 17  1  0  0  0  0
 11 12  1  0  0  0  0
 11 13  1  0  0  0  0
 11 14  1  0  0  0  0
  9 10  1  0  0  0  0
  9 11  1  0  0  0  0
  9 27  1  0  0  0  0
  7  8  1  0  0  0  0
  7  9  1  0  0  0  0
 31 32  1  0  0  0  0
 31 33  1  0  0  0  0
 31 34  1  0  0  0  0
 29 30  1  0  0  0  0
 29 31  1  0  0  0  0
M  CHG  1  23   1
M  END
$$$$
default_name
  -OEChem-01062215323D

 34 33  0     1  0  0  0  0  0999 V2000
   -3.8899   -3.6747    1.6490 H   0  0  0  0  0  0  0  0  0  0  0  0
   -3.9109   -2.6717    1.2250 C   0  0  0  0  0  0  0  0  0  0  0  0
   -4.6009   -2.0517    1.7950 H   0  0  0  0  0  0  0  0  0  0  0  0
   -4.2309   -2.7237    0.1860 H   0  0  0  0  0  0  0  0  0  0  0  0
   -2.5229   -2.0787    1.2980 C   0  0  0  0  0  0  0  0  0  0  0  0
   -1.5999   -2.7227    1.7810 O   0  0  0  0  0  0  0  0  0  0  0  0
   -2.3659   -0.8447    0.8120 N   0  0  0  0  0  0  0  0  0  0  0  0
   -3.1749   -0.3807    0.4220 H   0  0  0  0  0  0  0  0  0  0  0  0
   -1.0919   -0.1077    0.8170 C   0  0  1  0  0  0  0  0  0  0  0  0
   -0.7740    0.0196    1.8534 H   0  0  0  0  0  0  0  0  0  0  0  0
   -0.0372   -0.9482    0.0730 C   0  0  0  0  0  0  0  0  0  0  0  0
   -0.4381   -1.2239   -0.9036 H   0  0  0  0  0  0  0  0  0  0  0  0
    0.8575   -0.3428   -0.0852 H   0  0  0  0  0  0  0  0  0  0  0  0
    0.3482   -2.2355    0.8179 C   0  0  0  0  0  0  0  0  0  0  0  0
    0.7394   -1.9857    1.8050 H   0  0  0  0  0  0  0  0  0  0  0  0
   -0.5379   -2.8626    0.9338 H   0  0  0  0  0  0  0  0  0  0  0  0
    1.4178   -3.0074    0.0329 C   0  0  0  0  0  0  0  0  0  0  0  0
    1.0285   -3.2430   -0.9604 H   0  0  0  0  0  0  0  0  0  0  0  0
    2.3048   -2.3795   -0.0722 H   0  0  0  0  0  0  0  0  0  0  0  0
    1.7855   -4.3053    0.7630 C   0  0  0  0  0  0  0  0  0  0  0  0
    2.1656   -4.0485    1.7572 H   0  0  0  0  0  0  0  0  0  0  0  0
    0.8763   -4.8995    0.8950 H   0  0  0  0  0  0  0  0  0  0  0  0
    2.8024   -5.0844    0.0125 N   0  3  0  0  0  0  0  0  0  0  0  0
    3.6502   -4.5435   -0.1037 H   0  0  0  0  0  0  0  0  0  0  0  0
    3.0337   -5.9371    0.5068 H   0  0  0  0  0  0  0  0  0  0  0  0
    2.4520   -5.3322   -0.9055 H   0  0  0  0  0  0  0  0  0  0  0  0
   -1.2709    1.2741    0.1840 C   0  0  0  0  0  0  0  0  0  0  0  0
   -0.4286    1.6955   -0.5999 O   0  0  0  0  0  0  0  0  0  0  0  0
   -2.3446    1.9804    0.5527 N   0  0  0  0  0  0  0  0  0  0  0  0
   -3.0022    1.5445    1.1777 H   0  0  0  0  0  0  0  0  0  0  0  0
   -2.6639    3.3142    0.0403 C   0  0  0  0  0  0  0  0  0  0  0  0
   -2.8252    3.2658   -1.0388 H   0  0  0  0  0  0  0  0  0  0  0  0
   -3.5661    3.6994    0.5167 H   0  0  0  0  0  0  0  0  0  0  0  0
   -1.8343    3.9977    0.2337 H   0  0  0  0  0  0  0  0  0  0  0  0
  5  6  2  0  0  0  0
  5  7  1  0  0  0  0
  2  3  1  0  0  0  0
  2  4  1  0  0  0  0
  2  5  1  0  0  0  0
  1  2  1  0  0  0  0
 27 28  2  0  0  0  0
 27 29  1  0  0  0  0
 23 24  1  0  0  0  0
 23 25  1  0  0  0  0
 23 26  1  0  0  0  0
 20 21  1  0  0  0  0
 20 22  1  0  0  0  0
 20 23  1  0  0  0  0
 17 18  1  0  0  0  0
 17 19  1  0  0  0  0
 17 20  1  0  0  0  0
 14 15  1  0  0  0  0
 14 16  1  0  0  0  0
 14 17  1  0  0  0  0
 11 12  1  0  0  0  0
 11 13  1  0  0  0  0
 11 14  1  0  0  0  0
  9 10  1  0  0  0  0
  9 11  1  0  0  0  0
  9 27  1  0  0  0  0
  7  8  1  0  0  0  0
  7  9  1  0  0  0  0
 31 32  1  0  0  0  0
 31 33  1  0  0  0  0
 31 34  1  0  0  0  0
 29 30  1  0  0  0  0
 29 31  1  0  0  0  0
M  CHG  1  23   1
M  END
$$$$
default_name
  -OEChem-01062215323D

 34 33  0     1  0  0  0  0  0999 V2000
   -3.8899   -3.6747    1.6490 H   0  0  0  0  0  0  0  0  0  0  0  0
   -3.9109   -2.6717    1.2250 C   0  0  0  0  0  0  0  0  0  0  0  0
   -4.6009   -2.0517    1.7950 H   0  0  0  0  0  0  0  0  0  0  0  0
   -4.2309   -2.7237    0.1860 H   0  0  0  0  0  0  0  0  0  0  0  0
   -2.5229   -2.0787    1.2980 C   0  0  0  0  0  0  0  0  0  0  0  0
   -1.5999   -2.7227    1.7810 O   0  0  0  0  0  0  0  0  0  0  0  0
   -2.3659   -0.8447    0.8120 N   0  0  0  0  0  0  0  0  0  0  0  0
   -3.1749   -0.3807    0.4220 H   0  0  0  0  0  0  0  0  0  0  0  0
   -1.0919   -0.1077    0.8170 C   0  0  1  0  0  0  0  0  0  0  0  0
   -0.7740    0.0196    1.8534 H   0  0  0  0  0  0  0  0  0  0  0  0
   -0.0372   -0.9482    0.0730 C   0  0  0  0  0  0  0  0  0  0  0  0
   -0.4381   -1.2239   -0.9036 H   0  0  0  0  0  0  0  0  0  0  0  0
    0.8575   -0.3428   -0.0852 H   0  0  0  0  0  0  0  0  0  0  0  0
    0.3482   -2.2355    0.8179 C   0  0  0  0  0  0  0  0  0  0  0  0
    0.7394   -1.9857    1.8050 H   0  0  0  0  0  0  0  0  0  0  0  0
   -0.5379   -2.8626    0.9338 H   0  0  0  0  0  0  0  0  0  0  0  0
    1.4178   -3.0074    0.0329 C   0  0  0  0  0  0  0  0  0  0  0  0
    1.0285   -3.2430   -0.9604 H   0  0  0  0  0  0  0  0  0  0  0  0
    2.3048   -2.3795   -0.0722 H   0  0  0  0  0  0  0  0  0  0  0  0
    1.7855   -4.3053    0.7630 C   0  0  0  0  0  0  0  0  0  0  0  0
    2.1656   -4.0485    1.7572 H   0  0  0  0  0  0  0  0  0  0  0  0
    0.8763   -4.8995    0.8950 H   0  0  0  0  0  0  0  0  0  0  0  0
    2.8024   -5.0844    0.0125 N   0  3  0  0  0  0  0  0  0  0  0  0
    3.6502   -4.5435   -0.1037 H   0  0  0  0  0  0  0  0  0  0  0  0
    3.0337   -5.9371    0.5068 H   0  0  0  0  0  0  0  0  0  0  0  0
    2.4520   -5.3322   -0.9055 H   0  0  0  0  0  0  0  0  0  0  0  0
   -1.2709    1.2741    0.1840 C   0  0  0  0  0  0  0  0  0  0  0  0
   -0.5978    1.5860   -0.7913 O   0  0  0  0  0  0  0  0  0  0  0  0
   -2.1487    2.1012    0.7611 N   0  0  0  0  0  0  0  0  0  0  0  0
   -2.6822    1.7518    1.5397 H   0  0  0  0  0  0  0  0  0  0  0  0
   -2.4398    3.4530    0.2799 C   0  0  0  0  0  0  0  0  0  0  0  0
   -2.8547    3.4038   -0.7292 H   0  0  0  0  0  0  0  0  0  0  0  0
   -3.1598    3.9440    0.9356 H   0  0  0  0  0  0  0  0  0  0  0  0
   -1.5219    4.0438    0.2460 H   0  0  0  0  0  0  0  0  0  0  0  0
  5  6  2  0  0  0  0
  5  7  1  0  0  0  0
  2  3  1  0  0  0  0
  2  4  1  0  0  0  0
  2  5  1  0  0  0  0
  1  2  1  0  0  0  0
 27 28  2  0  0  0  0
 27 29  1  0  0  0  0
 23 24  1  0  0  0  0
 23 25  1  0  0  0  0
 23 26  1  0  0  0  0
 20 21  1  0  0  0  0
 20 22  1  0  0  0  0
 20 23  1  0  0  0  0
 17 18  1  0  0  0  0
 17 19  1  0  0  0  0
 17 20  1  0  0  0  0
 14 15  1  0  0  0  0
 14 16  1  0  0  0  0
 14 17  1  0  0  0  0
 11 12  1  0  0  0  0
 11 13  1  0  0  0  0
 11 14  1  0  0  0  0
  9 10  1  0  0  0  0
  9 11  1  0  0  0  0
  9 27  1  0  0  0  0
  7  8  1  0  0  0  0
  7  9  1  0  0  0  0
 31 32  1  0  0  0  0
 31 33  1  0  0  0  0
 31 34  1  0  0  0  0
 29 30  1  0  0  0  0
 29 31  1  0  0  0  0
M  CHG  1  23   1
M  END
$$$$
default_name
  -OEChem-01062215323D

 34 33  0     1  0  0  0  0  0999 V2000
   -3.8899   -3.6747    1.6490 H   0  0  0  0  0  0  0  0  0  0  0  0
   -3.9109   -2.6717    1.2250 C   0  0  0  0  0  0  0  0  0  0  0  0
   -4.6009   -2.0517    1.7950 H   0  0  0  0  0  0  0  0  0  0  0  0
   -4.2309   -2.7237    0.1860 H   0  0  0  0  0  0  0  0  0  0  0  0
   -2.5229   -2.0787    1.2980 C   0  0  0  0  0  0  0  0  0  0  0  0
   -1.5999   -2.7227    1.7810 O   0  0  0  0  0  0  0  0  0  0  0  0
   -2.3659   -0.8447    0.8120 N   0  0  0  0  0  0  0  0  0  0  0  0
   -3.1749   -0.3807    0.4220 H   0  0  0  0  0  0  0  0  0  0  0  0
   -1.0919   -0.1077    0.8170 C   0  0  1  0  0  0  0  0  0  0  0  0
   -0.7740    0.0196    1.8534 H   0  0  0  0  0  0  0  0  0  0  0  0
   -0.0372   -0.9482    0.0730 C   0  0  0  0  0  0  0  0  0  0  0  0
   -0.4381   -1.2239   -0.9036 H   0  0  0  0  0  0  0  0  0  0  0  0
    0.8575   -0.3428   -0.0852 H   0  0  0  0  0  0  0  0  0  0  0  0
    0.3482   -2.2355    0.8179 C   0  0  0  0  0  0  0  0  0  0  0  0
    0.7394   -1.9857    1.8050 H   0  0  0  0  0  0  0  0  0  0  0  0
   -0.5379   -2.8626    0.9338 H   0  0  0  0  0  0  0  0  0  0  0  0
    1.4178   -3.0074    0.0329 C   0  0  0  0  0  0  0  0  0  0  0  0
    1.0285   -3.2430   -0.9604 H   0  0  0  0  0  0  0  0  0  0  0  0
    2.3048   -2.3795   -0.0722 H   0  0  0  0  0  0  0  0  0  0  0  0
    1.7855   -4.3053    0.7630 C   0  0  0  0  0  0  0  0  0  0  0  0
    2.1656   -4.0485    1.7572 H   0  0  0  0  0  0  0  0  0  0  0  0
    0.8763   -4.8995    0.8950 H   0  0  0  0  0  0  0  0  0  0  0  0
    2.8024   -5.0844    0.0125 N   0  3  0  0  0  0  0  0  0  0  0  0
    3.6502   -4.5435   -0.1037 H   0  0  0  0  0  0  0  0  0  0  0  0
    3.0337   -5.9371    0.5068 H   0  0  0  0  0  0  0  0  0  0  0  0
    2.4520   -5.3322   -0.9055 H   0  0  0  0  0  0  0  0  0  0  0  0
   -1.2709    1.2741    0.1840 C   0  0  0  0  0  0  0  0  0  0  0  0
   -0.8177    1.4924   -0.9333 O   0  0  0  0  0  0  0  0  0  0  0  0
   -1.8978    2.2033    0.9129 N   0  0  0  0  0  0  0  0  0  0  0  0
   -2.2663    1.9287    1.8084 H   0  0  0  0  0  0  0  0  0  0  0  0
   -2.1526    3.5703    0.4548 C   0  0  0  0  0  0  0  0  0  0  0  0
   -2.7960    3.5496   -0.4274 H   0  0  0  0  0  0  0  0  0  0  0  0
   -2.6432    4.1493    1.2379 H   0  0  0  0  0  0  0  0  0  0  0  0
   -1.2123    4.0552    0.1834 H   0  0  0  0  0  0  0  0  0  0  0  0
  5  6  2  0  0  0  0
  5  7  1  0  0  0  0
  2  3  1  0  0  0  0
  2  4  1  0  0  0  0
  2  5  1  0  0  0  0
  1  2  1  0  0  0  0
 27 28  2  0  0  0  0
 27 29  1  0  0  0  0
 23 24  1  0  0  0  0
 23 25  1  0  0  0  0
 23 26  1  0  0  0  0
 20 21  1  0  0  0  0
 20 22  1  0  0  0  0
 20 23  1  0  0  0  0
 17 18  1  0  0  0  0
 17 19  1  0  0  0  0
 17 20  1  0  0  0  0
 14 15  1  0  0  0  0
 14 16  1  0  0  0  0
 14 17  1  0  0  0  0
 11 12  1  0  0  0  0
 11 13  1  0  0  0  0
 11 14  1  0  0  0  0
  9 10  1  0  0  0  0
  9 11  1  0  0  0  0
  9 27  1  0  0  0  0
  7  8  1  0  0  0  0
  7  9  1  0  0  0  0
 31 32  1  0  0  0  0
 31 33  1  0  0  0  0
 31 34  1  0  0  0  0
 29 30  1  0  0  0  0
 29 31  1  0  0  0  0
M  CHG  1  23   1
M  END
$$$$
default_name
  -OEChem-01062215323D

 34 33  0     1  0  0  0  0  0999 V2000
   -3.8899   -3.6747    1.6490 H   0  0  0  0  0  0  0  0  0  0  0  0
   -3.9109   -2.6717    1.2250 C   0  0  0  0  0  0  0  0  0  0  0  0
   -4.6009   -2.0517    1.7950 H   0  0  0  0  0  0  0  0  0  0  0  0
   -4.2309   -2.7237    0.1860 H   0  0  0  0  0  0  0  0  0  0  0  0
   -2.5229   -2.0787    1.2980 C   0  0  0  0  0  0  0  0  0  0  0  0
   -1.5999   -2.7227    1.7810 O   0  0  0  0  0  0  0  0  0  0  0  0
   -2.3659   -0.8447    0.8120 N   0  0  0  0  0  0  0  0  0  0  0  0
   -3.1749   -0.3807    0.4220 H   0  0  0  0  0  0  0  0  0  0  0  0
   -1.0919   -0.1077    0.8170 C   0  0  1  0  0  0  0  0  0  0  0  0
   -0.7740    0.0196    1.8534 H   0  0  0  0  0  0  0  0  0  0  0  0
   -0.0372   -0.9482    0.0730 C   0  0  0  0  0  0  0  0  0  0  0  0
   -0.4381   -1.2239   -0.9036 H   0  0  0  0  0  0  0  0  0  0  0  0
    0.8575   -0.3428   -0.0852 H   0  0  0  0  0  0  0  0  0  0  0  0
    0.3482   -2.2355    0.8179 C   0  0  0  0  0  0  0  0  0  0  0  0
    0.7394   -1.9857    1.8050 H   0  0  0  0  0  0  0  0  0  0  0  0
   -0.5379   -2.8626    0.9338 H   0  0  0  0  0  0  0  0  0  0  0  0
    1.4178   -3.0074    0.0329 C   0  0  0  0  0  0  0  0  0  0  0  0
    1.0285   -3.2430   -0.9604 H   0  0  0  0  0  0  0  0  0  0  0  0
    2.3048   -2.3795   -0.0722 H   0  0  0  0  0  0  0  0  0  0  0  0
    1.7855   -4.3053    0.7630 C   0  0  0  0  0  0  0  0  0  0  0  0
    2.1656   -4.0485    1.7572 H   0  0  0  0  0  0  0  0  0  0  0  0
    0.8763   -4.8995    0.8950 H   0  0  0  0  0  0  0  0  0  0  0  0
    2.8024   -5.0844    0.0125 N   0  3  0  0  0  0  0  0  0  0  0  0
    3.6502   -4.5435   -0.1037 H   0  0  0  0  0  0  0  0  0  0  0  0
    3.0337   -5.9371    0.5068 H   0  0  0  0  0  0  0  0  0  0  0  0
    2.4520   -5.3322   -0.9055 H   0  0  0  0  0  0  0  0  0  0  0  0
   -1.2709    1.2741    0.1840 C   0  0  0  0  0  0  0  0  0  0  0  0
   -1.0733    1.4213   -1.0163 O   0  0  0  0  0  0  0  0  0  0  0  0
   -1.6091    2.2796    0.9978 N   0  0  0  0  0  0  0  0  0  0  0  0
   -1.7829    2.0632    1.9654 H   0  0  0  0  0  0  0  0  0  0  0  0
   -1.8217    3.6581    0.5530 C   0  0  0  0  0  0  0  0  0  0  0  0
   -2.6533    3.6933   -0.1540 H   0  0  0  0  0  0  0  0  0  0  0  0
   -2.0516    4.3016    1.4030 H   0  0  0  0  0  0  0  0  0  0  0  0
   -0.9267    4.0312    0.0503 H   0  0  0  0  0  0  0  0  0  0  0  0
  5  6  2  0  0  0  0
  5  7  1  0  0  0  0
  2  3  1  0  0  0  0
  2  4  1  0  0  0  0
  2  5  1  0  0  0  0
  1  2  1  0  0  0  0
 27 28  2  0  0  0  0
 27 29  1  0  0  0  0
 23 24  1  0  0  0  0
 23 25  1  0  0  0  0
 23 26  1  0  0  0  0
 20 21  1  0  0  0  0
 20 22  1  0  0  0  0
 20 23  1  0  0  0  0
 17 18  1  0  0  0  0
 17 19  1  0  0  0  0
 17 20  1  0  0  0  0
 14 15  1  0  0  0  0
 14 16  1  0  0  0  0
 14 17  1  0  0  0  0
 11 12  1  0  0  0  0
 11 13  1  0  0  0  0
 11 14  1  0  0  0  0
  9 10  1  0  0  0  0
  9 11  1  0  0  0  0
  9 27  1  0  0  0  0
  7  8  1  0  0  0  0
  7  9  1  0  0  0  0
 31 32  1  0  0  0  0
 31 33  1  0  0  0  0
 31 34  1  0  0  0  0
 29 30  1  0  0  0  0
 29 31  1  0  0  0  0
M  CHG  1  23   1
M  END
$$$$
default_name
  -OEChem-01062215323D

 34 33  0     1  0  0  0  0  0999 V2000
   -3.8899   -3.6747    1.6490 H   0  0  0  0  0  0  0  0  0  0  0  0
   -3.9109   -2.6717    1.2250 C   0  0  0  0  0  0  0  0  0  0  0  0
   -4.6009   -2.0517    1.7950 H   0  0  0  0  0  0  0  0  0  0  0  0
   -4.2309   -2.7237    0.1860 H   0  0  0  0  0  0  0  0  0  0  0  0
   -2.5229   -2.0787    1.2980 C   0  0  0  0  0  0  0  0  0  0  0  0
   -1.5999   -2.7227    1.7810 O   0  0  0  0  0  0  0  0  0  0  0  0
   -2.3659   -0.8447    0.8120 N   0  0  0  0  0  0  0  0  0  0  0  0
   -3.1749   -0.3807    0.4220 H   0  0  0  0  0  0  0  0  0  0  0  0
   -1.0919   -0.1077    0.8170 C   0  0  1  0  0  0  0  0  0  0  0  0
   -0.7740    0.0196    1.8534 H   0  0  0  0  0  0  0  0  0  0  0  0
   -0.0372   -0.9482    0.0730 C   0  0  0  0  0  0  0  0  0  0  0  0
   -0.4381   -1.2239   -0.9036 H   0  0  0  0  0  0  0  0  0  0  0  0
    0.8575   -0.3428   -0.0852 H   0  0  0  0  0  0  0  0  0  0  0  0
    0.3482   -2.2355    0.8179 C   0  0  0  0  0  0  0  0  0  0  0  0
    0.7394   -1.9857    1.8050 H   0  0  0  0  0  0  0  0  0  0  0  0
   -0.5379   -2.8626    0.9338 H   0  0  0  0  0  0  0  0  0  0  0  0
    1.4178   -3.0074    0.0329 C   0  0  0  0  0  0  0  0  0  0  0  0
    1.0285   -3.2430   -0.9604 H   0  0  0  0  0  0  0  0  0  0  0  0
    2.3048   -2.3795   -0.0722 H   0  0  0  0  0  0  0  0  0  0  0  0
    1.7855   -4.3053    0.7630 C   0  0  0  0  0  0  0  0  0  0  0  0
    2.1656   -4.0485    1.7572 H   0  0  0  0  0  0  0  0  0  0  0  0
    0.8763   -4.8995    0.8950 H   0  0  0  0  0  0  0  0  0  0  0  0
    2.8024   -5.0844    0.0125 N   0  3  0  0  0  0  0  0  0  0  0  0
    3.6502   -4.5435   -0.1037 H   0  0  0  0  0  0  0  0  0  0  0  0
    3.0337   -5.9371    0.5068 H   0  0  0  0  0  0  0  0  0  0  0  0
    2.4520   -5.3322   -0.9055 H   0  0  0  0  0  0  0  0  0  0  0  0
   -1.2709    1.2741    0.1840 C   0  0  0  0  0  0  0  0  0  0  0  0
   -1.3472    1.3775   -1.0346 O   0  0  0  0  0  0  0  0  0  0  0  0
   -1.3022    2.3249    1.0101 N   0  0  0  0  0  0  0  0  0  0  0  0
   -1.2648    2.1461    1.9999 H   0  0  0  0  0  0  0  0  0  0  0  0
   -1.4697    3.7105    0.5679 C   0  0  0  0  0  0  0  0  0  0  0  0
   -2.4361    3.8251    0.0723 H   0  0  0  0  0  0  0  0  0  0  0  0
   -1.4253    4.3903    1.4196 H   0  0  0  0  0  0  0  0  0  0  0  0
   -0.6845    3.9735   -0.1443 H   0  0  0  0  0  0  0  0  0  0  0  0
  5  6  2  0  0  0  0
  5  7  1  0  0  0  0
  2  3  1  0  0  0  0
  2  4  1  0  0  0  0
  2  5  1  0  0  0  0
  1  2  1  0  0  0  0
 27 28  2  0  0  0  0
 27 29  1  0  0  0  0
 23 24  1  0  0  0  0
 23 25  1  0  0  0  0
 23 26  1  0  0  0  0
 20 21  1  0  0  0  0
 20 22  1  0  0  0  0
 20 23  1  0  0  0  0
 17 18  1  0  0  0  0
 17 19  1  0  0  0  0
 17 20  1  0  0  0  0
 14 15  1  0  0  0  0
 14 16  1  0  0  0  0
 14 17  1  0  0  0  0
 11 12  1  0  0  0  0
 11 13  1  0  0  0  0
 11 14  1  0  0  0  0
  9 10  1  0  0  0  0
  9 11  1  0  0  0  0
  9 27  1  0  0  0  0
  7  8  1  0  0  0  0
  7  9  1  0  0  0  0
 31 32  1  0  0  0  0
 31 33  1  0  0  0  0
 31 34  1  0  0  0  0
 29 30  1  0  0  0  0
 29 31  1  0  0  0  0
M  CHG  1  23   1
M  END
$$$$
default_name
  -OEChem-01062215323D

 34 33  0     1  0  0  0  0  0999 V2000
   -3.8899   -3.6747    1.6490 H   0  0  0  0  0  0  0  0  0  0  0  0
   -3.9109   -2.6717    1.2250 C   0  0  0  0  0  0  0  0  0  0  0  0
   -4.6009   -2.0517    1.7950 H   0  0  0  0  0  0  0  0  0  0  0  0
   -4.2309   -2.7237    0.1860 H   0  0  0  0  0  0  0  0  0  0  0  0
   -2.5229   -2.0787    1.2980 C   0  0  0  0  0  0  0  0  0  0  0  0
   -1.5999   -2.7227    1.7810 O   0  0  0  0  0  0  0  0  0  0  0  0
   -2.3659   -0.8447    0.8120 N   0  0  0  0  0  0  0  0  0  0  0  0
   -3.1749   -0.3807    0.4220 H   0  0  0  0  0  0  0  0  0  0  0  0
   -1.0919   -0.1077    0.8170 C   0  0  1  0  0  0  0  0  0  0  0  0
   -0.7740    0.0196    1.8534 H   0  0  0  0  0  0  0  0  0  0  0  0
   -0.0372   -0.9482    0.0730 C   0  0  0  0  0  0  0  0  0  0  0  0
   -0.4381   -1.2239   -0.9036 H   0  0  0  0  0  0  0  0  0  0  0  0
    0.8575   -0.3428   -0.0852 H   0  0  0  0  0  0  0  0  0  0  0  0
    0.3482   -2.2355    0.8179 C   0  0  0  0  0  0  0  0  0  0  0  0
    0.7394   -1.9857    1.8050 H   0  0  0  0  0  0  0  0  0  0  0  0
   -0.5379   -2.8626    0.9338 H   0  0  0  0  0  0  0  0  0  0  0  0
    1.4178   -3.0074    0.0329 C   0  0  0  0  0  0  0  0  0  0  0  0
    1.0285   -3.2430   -0.9604 H   0  0  0  0  0  0  0  0  0  0  0  0
    2.3048   -2.3795   -0.0722 H   0  0  0  0  0  0  0  0  0  0  0  0
    1.7855   -4.3053    0.7630 C   0  0  0  0  0  0  0  0  0  0  0  0
    2.1656   -4.0485    1.7572 H   0  0  0  0  0  0  0  0  0  0  0  0
    0.8763   -4.8995    0.8950 H   0  0  0  0  0  0  0  0  0  0  0  0
    2.8024   -5.0844    0.0125 N   0  3  0  0  0  0  0  0  0  0  0  0
    3.6502   -4.5435   -0.1037 H   0  0  0  0  0  0  0  0  0  0  0  0
    3.0337   -5.9371    0.5068 H   0  0  0  0  0  0  0  0  0  0  0  0
    2.4520   -5.3322   -0.9055 H   0  0  0  0  0  0  0  0  0  0  0  0
   -1.2709    1.2741    0.1840 C   0  0  0  0  0  0  0  0  0  0  0  0
   -1.6207    1.3639   -0.9869 O   0  0  0  0  0  0  0  0  0  0  0  0
   -0.9980    2.3363    0.9489 N   0  0  0  0  0  0  0  0  0  0  0  0
   -0.7474    2.1718    1.9098 H   0  0  0  0  0  0  0  0  0  0  0  0
   -1.1206    3.7239    0.4985 C   0  0  0  0  0  0  0  0  0  0  0  0
   -2.1593    3.9360    0.2362 H   0  0  0  0  0  0  0  0  0  0  0  0
   -0.8070    4.4094    1.2866 H   0  0  0  0  0  0  0  0  0  0  0  0
   -0.5022    3.8858   -0.3871 H   0  0  0  0  0  0  0  0  0  0  0  0
  5  6  2  0  0  0  0
  5  7  1  0  0  0  0
  2  3  1  0  0  0  0
  2  4  1  0  0  0  0
  2  5  1  0  0  0  0
  1  2  1  0  0  0  0
 27 28  2  0  0  0  0
 27 29  1  0  0  0  0
 23 24  1  0  0  0  0
 23 25  1  0  0  0  0
 23 26  1  0  0  0  0
 20 21  1  0  0  0  0
 20 22  1  0  0  0  0
 20 23  1  0  0  0  0
 17 18  1  0  0  0  0
 17 19  1  0  0  0  0
 17 20  1  0  0  0  0
 14 15  1  0  0  0  0
 14 16  1  0  0  0  0
 14 17  1  0  0  0  0
 11 12  1  0  0  0  0
 11 13  1  0  0  0  0
 11 14  1  0  0  0  0
  9 10  1  0  0  0  0
  9 11  1  0  0  0  0
  9 27  1  0  0  0  0
  7  8  1  0  0  0  0
  7  9  1  0  0  0  0
 31 32  1  0  0  0  0
 31 33  1  0  0  0  0
 31 34  1  0  0  0  0
 29 30  1  0  0  0  0
 29 31  1  0  0  0  0
M  CHG  1  23   1
M  END
$$$$
default_name
  -OEChem-01062215323D

 34 33  0     1  0  0  0  0  0999 V2000
   -3.8899   -3.6747    1.6490 H   0  0  0  0  0  0  0  0  0  0  0  0
   -3.9109   -2.6717    1.2250 C   0  0  0  0  0  0  0  0  0  0  0  0
   -4.6009   -2.0517    1.7950 H   0  0  0  0  0  0  0  0  0  0  0  0
   -4.2309   -2.7237    0.1860 H   0  0  0  0  0  0  0  0  0  0  0  0
   -2.5229   -2.0787    1.2980 C   0  0  0  0  0  0  0  0  0  0  0  0
   -1.5999   -2.7227    1.7810 O   0  0  0  0  0  0  0  0  0  0  0  0
   -2.3659   -0.8447    0.8120 N   0  0  0  0  0  0  0  0  0  0  0  0
   -3.1749   -0.3807    0.4220 H   0  0  0  0  0  0  0  0  0  0  0  0
   -1.0919   -0.1077    0.8170 C   0  0  1  0  0  0  0  0  0  0  0  0
   -0.7740    0.0196    1.8534 H   0  0  0  0  0  0  0  0  0  0  0  0
   -0.0372   -0.9482    0.0730 C   0  0  0  0  0  0  0  0  0  0  0  0
   -0.4381   -1.2239   -0.9036 H   0  0  0  0  0  0  0  0  0  0  0  0
    0.8575   -0.3428   -0.0852 H   0  0  0  0  0  0  0  0  0  0  0  0
    0.3482   -2.2355    0.8179 C   0  0  0  0  0  0  0  0  0  0  0  0
    0.7394   -1.9857    1.8050 H   0  0  0  0  0  0  0  0  0  0  0  0
   -0.5379   -2.8626    0.9338 H   0  0  0  0  0  0  0  0  0  0  0  0
    1.4178   -3.0074    0.0329 C   0  0  0  0  0  0  0  0  0  0  0  0
    1.0285   -3.2430   -0.9604 H   0  0  0  0  0  0  0  0  0  0  0  0
    2.3048   -2.3795   -0.0722 H   0  0  0  0  0  0  0  0  0  0  0  0
    1.7855   -4.3053    0.7630 C   0  0  0  0  0  0  0  0  0  0  0  0
    2.1656   -4.0485    1.7572 H   0  0  0  0  0  0  0  0  0  0  0  0
    0.8763   -4.8995    0.8950 H   0  0  0  0  0  0  0  0  0  0  0  0
    2.8024   -5.0844    0.0125 N   0  3  0  0  0  0  0  0  0  0  0  0
    3.6502   -4.5435   -0.1037 H   0  0  0  0  0  0  0  0  0  0  0  0
    3.0337   -5.9371    0.5068 H   0  0  0  0  0  0  0  0  0  0  0  0
    2.4520   -5.3322   -0.9055 H   0  0  0  0  0  0  0  0  0  0  0  0
   -1.2709    1.2741    0.1840 C   0  0  0  0  0  0  0  0  0  0  0  0
   -1.8752    1.3815   -0.8765 O   0  0  0  0  0  0  0  0  0  0  0  0
   -0.7173    2.3128    0.8183 N   0  0  0  0  0  0  0  0  0  0  0  0
   -0.2660    2.1385    1.7010 H   0  0  0  0  0  0  0  0  0  0  0  0
   -0.7982    3.6974    0.3494 C   0  0  0  0  0  0  0  0  0  0  0  0
   -1.8418    4.0185    0.3264 H   0  0  0  0  0  0  0  0  0  0  0  0
   -0.2387    4.3577    1.0130 H   0  0  0  0  0  0  0  0  0  0  0  0
   -0.3923    3.7743   -0.6616 H   0  0  0  0  0  0  0  0  0  0  0  0
  5  6  2  0  0  0  0
  5  7  1  0  0  0  0
  2  3  1  0  0  0  0
  2  4  1  0  0  0  0
  2  5  1  0  0  0  0
  1  2  1  0  0  0  0
 27 28  2  0  0  0  0
 27 29  1  0  0  0  0
 23 24  1  0  0  0  0
 23 25  1  0  0  0  0
 23 26  1  0  0  0  0
 20 21  1  0  0  0  0
 20 22  1  0  0  0  0
 20 23  1  0  0  0  0
 17 18  1  0  0  0  0
 17 19  1  0  0  0  0
 17 20  1  0  0  0  0
 14 15  1  0  0  0  0
 14 16  1  0  0  0  0
 14 17  1  0  0  0  0
 11 12  1  0  0  0  0
 11 13  1  0  0  0  0
 11 14  1  0  0  0  0
  9 10  1  0  0  0  0
  9 11  1  0  0  0  0
  9 27  1  0  0  0  0
  7  8  1  0  0  0  0
  7  9  1  0  0  0  0
 31 32  1  0  0  0  0
 31 33  1  0  0  0  0
 31 34  1  0  0  0  0
 29 30  1  0  0  0  0
 29 31  1  0  0  0  0
M  CHG  1  23   1
M  END
$$$$
default_name
  -OEChem-01062215323D

 34 33  0     1  0  0  0  0  0999 V2000
   -3.8899   -3.6747    1.6490 H   0  0  0  0  0  0  0  0  0  0  0  0
   -3.9109   -2.6717    1.2250 C   0  0  0  0  0  0  0  0  0  0  0  0
   -4.6009   -2.0517    1.7950 H   0  0  0  0  0  0  0  0  0  0  0  0
   -4.2309   -2.7237    0.1860 H   0  0  0  0  0  0  0  0  0  0  0  0
   -2.5229   -2.0787    1.2980 C   0  0  0  0  0  0  0  0  0  0  0  0
   -1.5999   -2.7227    1.7810 O   0  0  0  0  0  0  0  0  0  0  0  0
   -2.3659   -0.8447    0.8120 N   0  0  0  0  0  0  0  0  0  0  0  0
   -3.1749   -0.3807    0.4220 H   0  0  0  0  0  0  0  0  0  0  0  0
   -1.0919   -0.1077    0.8170 C   0  0  1  0  0  0  0  0  0  0  0  0
   -0.7740    0.0196    1.8534 H   0  0  0  0  0  0  0  0  0  0  0  0
   -0.0372   -0.9482    0.0730 C   0  0  0  0  0  0  0  0  0  0  0  0
   -0.4381   -1.2239   -0.9036 H   0  0  0  0  0  0  0  0  0  0  0  0
    0.8575   -0.3428   -0.0852 H   0  0  0  0  0  0  0  0  0  0  0  0
    0.3482   -2.2355    0.8179 C   0  0  0  0  0  0  0  0  0  0  0  0
    0.7394   -1.9857    1.8050 H   0  0  0  0  0  0  0  0  0  0  0  0
   -0.5379   -2.8626    0.9338 H   0  0  0  0  0  0  0  0  0  0  0  0
    1.4178   -3.0074    0.0329 C   0  0  0  0  0  0  0  0  0  0  0  0
    1.0285   -3.2430   -0.9604 H   0  0  0  0  0  0  0  0  0  0  0  0
    2.3048   -2.3795   -0.0722 H   0  0  0  0  0  0  0  0  0  0  0  0
    1.7855   -4.3053    0.7630 C   0  0  0  0  0  0  0  0  0  0  0  0
    2.1656   -4.0485    1.7572 H   0  0  0  0  0  0  0  0  0  0  0  0
    0.8763   -4.8995    0.8950 H   0  0  0  0  0  0  0  0  0  0  0  0
    2.8024   -5.0844    0.0125 N   0  3  0  0  0  0  0  0  0  0  0  0
    3.6502   -4.5435   -0.1037 H   0  0  0  0  0  0  0  0  0  0  0  0
    3.0337   -5.9371    0.5068 H   0  0  0  0  0  0  0  0  0  0  0  0
    2.4520   -5.3322   -0.9055 H   0  0  0  0  0  0  0  0  0  0  0  0
   -1.2709    1.2741    0.1840 C   0  0  0  0  0  0  0  0  0  0  0  0
   -2.0934    1.4291   -0.7110 O   0  0  0  0  0  0  0  0  0  0  0  0
   -0.4792    2.2561    0.6273 N   0  0  0  0  0  0  0  0  0  0  0  0
    0.1466    2.0485    1.3878 H   0  0  0  0  0  0  0  0  0  0  0  0
   -0.5245    3.6328    0.1309 C   0  0  0  0  0  0  0  0  0  0  0  0
   -1.5052    4.0669    0.3369 H   0  0  0  0  0  0  0  0  0  0  0  0
    0.2407    4.2386    0.6176 H   0  0  0  0  0  0  0  0  0  0  0  0
   -0.3622    3.6466   -0.9491 H   0  0  0  0  0  0  0  0  0  0  0  0
  5  6  2  0  0  0  0
  5  7  1  0  0  0  0
  2  3  1  0  0  0  0
  2  4  1  0  0  0  0
  2  5  1  0  0  0  0
  1  2  1  0  0  0  0
 27 28  2  0  0  0  0
 27 29  1  0  0  0  0
 23 24  1  0  0  0  0
 23 25  1  0  0  0  0
 23 26  1  0  0  0  0
 20 21  1  0  0  0  0
 20 22  1  0  0  0  0
 20 23  1  0  0  0  0
 17 18  1  0  0  0  0
 17 19  1  0  0  0  0
 17 20  1  0  0  0  0
 14 15  1  0  0  0  0
 14 16  1  0  0  0  0
 14 17  1  0  0  0  0
 11 12  1  0  0  0  0
 11 13  1  0  0  0  0
 11 14  1  0  0  0  0
  9 10  1  0  0  0  0
  9 11  1  0  0  0  0
  9 27  1  0  0  0  0
  7  8  1  0  0  0  0
  7  9  1  0  0  0  0
 31 32  1  0  0  0  0
 31 33  1  0  0  0  0
 31 34  1  0  0  0  0
 29 30  1  0  0  0  0
 29 31  1  0  0  0  0
M  CHG  1  23   1
M  END
$$$$
default_name
  -OEChem-01062215323D

 34 33  0     1  0  0  0  0  0999 V2000
   -3.8899   -3.6747    1.6490 H   0  0  0  0  0  0  0  0  0  0  0  0
   -3.9109   -2.6717    1.2250 C   0  0  0  0  0  0  0  0  0  0  0  0
   -4.6009   -2.0517    1.7950 H   0  0  0  0  0  0  0  0  0  0  0  0
   -4.2309   -2.7237    0.1860 H   0  0  0  0  0  0  0  0  0  0  0  0
   -2.5229   -2.0787    1.2980 C   0  0  0  0  0  0  0  0  0  0  0  0
   -1.5999   -2.7227    1.7810 O   0  0  0  0  0  0  0  0  0  0  0  0
   -2.3659   -0.8447    0.8120 N   0  0  0  0  0  0  0  0  0  0  0  0
   -3.1749   -0.3807    0.4220 H   0  0  0  0  0  0  0  0  0  0  0  0
   -1.0919   -0.1077    0.8170 C   0  0  1  0  0  0  0  0  0  0  0  0
   -0.7740    0.0196    1.8534 H   0  0  0  0  0  0  0  0  0  0  0  0
   -0.0372   -0.9482    0.0730 C   0  0  0  0  0  0  0  0  0  0  0  0
   -0.4381   -1.2239   -0.9036 H   0  0  0  0  0  0  0  0  0  0  0  0
    0.8575   -0.3428   -0.0852 H   0  0  0  0  0  0  0  0  0  0  0  0
    0.3482   -2.2355    0.8179 C   0  0  0  0  0  0  0  0  0  0  0  0
    0.7394   -1.9857    1.8050 H   0  0  0  0  0  0  0  0  0  0  0  0
   -0.5379   -2.8626    0.9338 H   0  0  0  0  0  0  0  0  0  0  0  0
    1.4178   -3.0074    0.0329 C   0  0  0  0  0  0  0  0  0  0  0  0
    1.0285   -3.2430   -0.9604 H   0  0  0  0  0  0  0  0  0  0  0  0
    2.3048   -2.3795   -0.0722 H   0  0  0  0  0  0  0  0  0  0  0  0
    1.7855   -4.3053    0.7630 C   0  0  0  0  0  0  0  0  0  0  0  0
    2.1656   -4.0485    1.7572 H   0  0  0  0  0  0  0  0  0  0  0  0
    0.8763   -4.8995    0.8950 H   0  0  0  0  0  0  0  0  0  0  0  0
    2.8024   -5.0844    0.0125 N   0  3  0  0  0  0  0  0  0  0  0  0
    3.6502   -4.5435   -0.1037 H   0  0  0  0  0  0  0  0  0  0  0  0
    3.0337   -5.9371    0.5068 H   0  0  0  0  0  0  0  0  0  0  0  0
    2.4520   -5.3322   -0.9055 H   0  0  0  0  0  0  0  0  0  0  0  0
   -1.2709    1.2741    0.1840 C   0  0  0  0  0  0  0  0  0  0  0  0
   -2.2603    1.5034   -0.5015 O   0  0  0  0  0  0  0  0  0  0  0  0
   -0.2999    2.1701    0.3888 N   0  0  0  0  0  0  0  0  0  0  0  0
    0.4624    1.9079    0.9916 H   0  0  0  0  0  0  0  0  0  0  0  0
   -0.3181    3.5344   -0.1422 C   0  0  0  0  0  0  0  0  0  0  0  0
   -1.1724    4.0779    0.2670 H   0  0  0  0  0  0  0  0  0  0  0  0
    0.5986    4.0603    0.1271 H   0  0  0  0  0  0  0  0  0  0  0  0
   -0.4140    3.5112   -1.2299 H   0  0  0  0  0  0  0  0  0  0  0  0
  5  6  2  0  0  0  0
  5  7  1  0  0  0  0
  2  3  1  0  0  0  0
  2  4  1  0  0  0  0
  2  5  1  0  0  0  0
  1  2  1  0  0  0  0
 27 28  2  0  0  0  0
 27 29  1  0  0  0  0
 23 24  1  0  0  0  0
 23 25  1  0  0  0  0
 23 26  1  0  0  0  0
 20 21  1  0  0  0  0
 20 22  1  0  0  0  0
 20 23  1  0  0  0  0
 17 18  1  0  0  0  0
 17 19  1  0  0  0  0
 17 20  1  0  0  0  0
 14 15  1  0  0  0  0
 14 16  1  0  0  0  0
 14 17  1  0  0  0  0
 11 12  1  0  0  0  0
 11 13  1  0  0  0  0
 11 14  1  0  0  0  0
  9 10  1  0  0  0  0
  9 11  1  0  0  0  0
  9 27  1  0  0  0  0
  7  8  1  0  0  0  0
  7  9  1  0  0  0  0
 31 32  1  0  0  0  0
 31 33  1  0  0  0  0
 31 34  1  0  0  0  0
 29 30  1  0  0  0  0
 29 31  1  0  0  0  0
M  CHG  1  23   1
M  END
$$$$
default_name
  -OEChem-01062215323D

 34 33  0     1  0  0  0  0  0999 V2000
   -3.8899   -3.6747    1.6490 H   0  0  0  0  0  0  0  0  0  0  0  0
   -3.9109   -2.6717    1.2250 C   0  0  0  0  0  0  0  0  0  0  0  0
   -4.6009   -2.0517    1.7950 H   0  0  0  0  0  0  0  0  0  0  0  0
   -4.2309   -2.7237    0.1860 H   0  0  0  0  0  0  0  0  0  0  0  0
   -2.5229   -2.0787    1.2980 C   0  0  0  0  0  0  0  0  0  0  0  0
   -1.5999   -2.7227    1.7810 O   0  0  0  0  0  0  0  0  0  0  0  0
   -2.3659   -0.8447    0.8120 N   0  0  0  0  0  0  0  0  0  0  0  0
   -3.1749   -0.3807    0.4220 H   0  0  0  0  0  0  0  0  0  0  0  0
   -1.0919   -0.1077    0.8170 C   0  0  1  0  0  0  0  0  0  0  0  0
   -0.6405   -0.2108    1.8055 H   0  0  0  0  0  0  0  0  0  0  0  0
   -0.1543   -0.7436   -0.2266 C   0  0  0  0  0  0  0  0  0  0  0  0
   -0.6824   -0.7999   -1.1797 H   0  0  0  0  0  0  0  0  0  0  0  0
    0.7206   -0.1042   -0.3596 H   0  0  0  0  0  0  0  0  0  0  0  0
    0.3064   -2.1588    0.1545 C   0  0  0  0  0  0  0  0  0  0  0  0
    0.8258   -2.1304    1.1133 H   0  0  0  0  0  0  0  0  0  0  0  0
   -0.5658   -2.8098    0.2407 H   0  0  0  0  0  0  0  0  0  0  0  0
    1.2544   -2.7185   -0.9151 C   0  0  0  0  0  0  0  0  0  0  0  0
    0.7363   -2.7317   -1.8770 H   0  0  0  0  0  0  0  0  0  0  0  0
    2.1289   -2.0693   -0.9908 H   0  0  0  0  0  0  0  0  0  0  0  0
    1.6956   -4.1410   -0.5484 C   0  0  0  0  0  0  0  0  0  0  0  0
    2.2049   -4.1075    0.4202 H   0  0  0  0  0  0  0  0  0  0  0  0
    0.8030   -4.7638   -0.4364 H   0  0  0  0  0  0  0  0  0  0  0  0
    2.5957   -4.7162   -1.5797 N   0  3  0  0  0  0  0  0  0  0  0  0
    3.4286   -4.1498   -1.6805 H   0  0  0  0  0  0  0  0  0  0  0  0
    2.8773   -5.6543   -1.3232 H   0  0  0  0  0  0  0  0  0  0  0  0
    2.1258   -4.7576   -2.4765 H   0  0  0  0  0  0  0  0  0  0  0  0
   -1.3322    1.3778    0.5384 C   0  0  0  0  0  0  0  0  0  0  0  0
   -2.4701    1.7777    0.3218 O   0  0  0  0  0  0  0  0  0  0  0  0
   -0.2597    2.1757    0.5123 N   0  0  0  0  0  0  0  0  0  0  0  0
    0.6343    1.7690    0.7329 H   0  0  0  0  0  0  0  0  0  0  0  0
   -0.3164    3.6173    0.2637 C   0  0  0  0  0  0  0  0  0  0  0  0
   -0.9006    4.1040    1.0476 H   0  0  0  0  0  0  0  0  0  0  0  0
    0.6880    4.0422    0.2546 H   0  0  0  0  0  0  0  0  0  0  0  0
   -0.7989    3.8127   -0.6965 H   0  0  0  0  0  0  0  0  0  0  0  0
  5  6  2  0  0  0  0
  5  7  1  0  0  0  0
  2  3  1  0  0  0  0
  2  4  1  0  0  0  0
  2  5  1  0  0  0  0
  1  2  1  0  0  0  0
 27 28  2  0  0  0  0
 27 29  1  0  0  0  0
 23 24  1  0  0  0  0
 23 25  1  0  0  0  0
 23 26  1  0  0  0  0
 20 21  1  0  0  0  0
 20 22  1  0  0  0  0
 20 23  1  0  0  0  0
 17 18  1  0  0  0  0
 17 19  1  0  0  0  0
 17 20  1  0  0  0  0
 14 15  1  0  0  0  0
 14 16  1  0  0  0  0
 14 17  1  0  0  0  0
 11 12  1  0  0  0  0
 11 13  1  0  0  0  0
 11 14  1  0  0  0  0
  9 10  1  0  0  0  0
  9 11  1  0  0  0  0
  9 27  1  0  0  0  0
  7  8  1  0  0  0  0
  7  9  1  0  0  0  0
 31 32  1  0  0  0  0
 31 33  1  0  0  0  0
 31 34  1  0  0  0  0
 29 30  1  0  0  0  0
 29 31  1  0  0  0  0
M  CHG  1  23   1
M  END
$$$$
default_name
  -OEChem-01062215323D

 34 33  0     1  0  0  0  0  0999 V2000
   -3.8899   -3.6747    1.6490 H   0  0  0  0  0  0  0  0  0  0  0  0
   -3.9109   -2.6717    1.2250 C   0  0  0  0  0  0  0  0  0  0  0  0
   -4.6009   -2.0517    1.7950 H   0  0  0  0  0  0  0  0  0  0  0  0
   -4.2309   -2.7237    0.1860 H   0  0  0  0  0  0  0  0  0  0  0  0
   -2.5229   -2.0787    1.2980 C   0  0  0  0  0  0  0  0  0  0  0  0
   -1.5999   -2.7227    1.7810 O   0  0  0  0  0  0  0  0  0  0  0  0
   -2.3659   -0.8447    0.8120 N   0  0  0  0  0  0  0  0  0  0  0  0
   -3.1749   -0.3807    0.4220 H   0  0  0  0  0  0  0  0  0  0  0  0
   -1.0919   -0.1077    0.8170 C   0  0  1  0  0  0  0  0  0  0  0  0
   -0.6405   -0.2108    1.8055 H   0  0  0  0  0  0  0  0  0  0  0  0
   -0.1543   -0.7436   -0.2266 C   0  0  0  0  0  0  0  0  0  0  0  0
   -0.6824   -0.7999   -1.1797 H   0  0  0  0  0  0  0  0  0  0  0  0
    0.7206   -0.1042   -0.3596 H   0  0  0  0  0  0  0  0  0  0  0  0
    0.3064   -2.1588    0.1545 C   0  0  0  0  0  0  0  0  0  0  0  0
    0.8258   -2.1304    1.1133 H   0  0  0  0  0  0  0  0  0  0  0  0
   -0.5658   -2.8098    0.2407 H   0  0  0  0  0  0  0  0  0  0  0  0
    1.2544   -2.7185   -0.9151 C   0  0  0  0  0  0  0  0  0  0  0  0
    0.7363   -2.7317   -1.8770 H   0  0  0  0  0  0  0  0  0  0  0  0
    2.1289   -2.0693   -0.9908 H   0  0  0  0  0  0  0  0  0  0  0  0
    1.6956   -4.1410   -0.5484 C   0  0  0  0  0  0  0  0  0  0  0  0
    2.2049   -4.1075    0.4202 H   0  0  0  0  0  0  0  0  0  0  0  0
    0.8030   -4.7638   -0.4364 H   0  0  0  0  0  0  0  0  0  0  0  0
    2.5957   -4.7162   -1.5797 N   0  3  0  0  0  0  0  0  0  0  0  0
    3.4286   -4.1498   -1.6805 H   0  0  0  0  0  0  0  0  0  0  0  0
    2.8773   -5.6543   -1.3232 H   0  0  0  0  0  0  0  0  0  0  0  0
    2.1258   -4.7576   -2.4765 H   0  0  0  0  0  0  0  0  0  0  0  0
   -1.3322    1.3778    0.5384 C   0  0  0  0  0  0  0  0  0  0  0  0
   -2.4702    1.8289    0.5950 O   0  0  0  0  0  0  0  0  0  0  0  0
   -0.2685    2.1171    0.2075 N   0  0  0  0  0  0  0  0  0  0  0  0
    0.6344    1.6721    0.2161 H   0  0  0  0  0  0  0  0  0  0  0  0
   -0.3255    3.5503   -0.0860 C   0  0  0  0  0  0  0  0  0  0  0  0
   -0.6722    4.0937    0.7956 H   0  0  0  0  0  0  0  0  0  0  0  0
    0.6610    3.9214   -0.3659 H   0  0  0  0  0  0  0  0  0  0  0  0
   -1.0260    3.7373   -0.9029 H   0  0  0  0  0  0  0  0  0  0  0  0
  5  6  2  0  0  0  0
  5  7  1  0  0  0  0
  2  3  1  0  0  0  0
  2  4  1  0  0  0  0
  2  5  1  0  0  0  0
  1  2  1  0  0  0  0
 27 28  2  0  0  0  0
 27 29  1  0  0  0  0
 23 24  1  0  0  0  0
 23 25  1  0  0  0  0
 23 26  1  0  0  0  0
 20 21  1  0  0  0  0
 20 22  1  0  0  0  0
 20 23  1  0  0  0  0
 17 18  1  0  0  0  0
 17 19  1  0  0  0  0
 17 20  1  0  0  0  0
 14 15  1  0  0  0  0
 14 16  1  0  0  0  0
 14 17  1  0  0  0  0
 11 12  1  0  0  0  0
 11 13  1  0  0  0  0
 11 14  1  0  0  0  0
  9 10  1  0  0  0  0
  9 11  1  0  0  0  0
  9 27  1  0  0  0  0
  7  8  1  0  0  0  0
  7  9  1  0  0  0  0
 31 32  1  0  0  0  0
 31 33  1  0  0  0  0
 31 34  1  0  0  0  0
 29 30  1  0  0  0  0
 29 31  1  0  0  0  0
M  CHG  1  23   1
M  END
$$$$
default_name
  -OEChem-01062215323D

 34 33  0     1  0  0  0  0  0999 V2000
   -3.8899   -3.6747    1.6490 H   0  0  0  0  0  0  0  0  0  0  0  0
   -3.9109   -2.6717    1.2250 C   0  0  0  0  0  0  0  0  0  0  0  0
   -4.6009   -2.0517    1.7950 H   0  0  0  0  0  0  0  0  0  0  0  0
   -4.2309   -2.7237    0.1860 H   0  0  0  0  0  0  0  0  0  0  0  0
   -2.5229   -2.0787    1.2980 C   0  0  0  0  0  0  0  0  0  0  0  0
   -1.5999   -2.7227    1.7810 O   0  0  0  0  0  0  0  0  0  0  0  0
   -2.3659   -0.8447    0.8120 N   0  0  0  0  0  0  0  0  0  0  0  0
   -3.1749   -0.3807    0.4220 H   0  0  0  0  0  0  0  0  0  0  0  0
   -1.0919   -0.1077    0.8170 C   0  0  1  0  0  0  0  0  0  0  0  0
   -0.6405   -0.2108    1.8055 H   0  0  0  0  0  0  0  0  0  0  0  0
   -0.1543   -0.7436   -0.2266 C   0  0  0  0  0  0  0  0  0  0  0  0
   -0.6824   -0.7999   -1.1797 H   0  0  0  0  0  0  0  0  0  0  0  0
    0.7206   -0.1042   -0.3596 H   0  0  0  0  0  0  0  0  0  0  0  0
    0.3064   -2.1588    0.1545 C   0  0  0  0  0  0  0  0  0  0  0  0
    0.8258   -2.1304    1.1133 H   0  0  0  0  0  0  0  0  0  0  0  0
   -0.5658   -2.8098    0.2407 H   0  0  0  0  0  0  0  0  0  0  0  0
    1.2544   -2.7185   -0.9151 C   0  0  0  0  0  0  0  0  0  0  0  0
    0.7363   -2.7317   -1.8770 H   0  0  0  0  0  0  0  0  0  0  0  0
    2.1289   -2.0693   -0.9908 H   0  0  0  0  0  0  0  0  0  0  0  0
    1.6956   -4.1410   -0.5484 C   0  0  0  0  0  0  0  0  0  0  0  0
    2.2049   -4.1075    0.4202 H   0  0  0  0  0  0  0  0  0  0  0  0
    0.8030   -4.7638   -0.4364 H   0  0  0  0  0  0  0  0  0  0  0  0
    2.5957   -4.7162   -1.5797 N   0  3  0  0  0  0  0  0  0  0  0  0
    3.4286   -4.1498   -1.6805 H   0  0  0  0  0  0  0  0  0  0  0  0
    2.8773   -5.6543   -1.3232 H   0  0  0  0  0  0  0  0  0  0  0  0
    2.1258   -4.7576   -2.4765 H   0  0  0  0  0  0  0  0  0  0  0  0
   -1.3322    1.3778    0.5384 C   0  0  0  0  0  0  0  0  0  0  0  0
   -2.3991    1.8895    0.8569 O   0  0  0  0  0  0  0  0  0  0  0  0
   -0.3563    2.0485   -0.0823 N   0  0  0  0  0  0  0  0  0  0  0  0
    0.5001    1.5575   -0.2792 H   0  0  0  0  0  0  0  0  0  0  0  0
   -0.4254    3.4717   -0.4188 C   0  0  0  0  0  0  0  0  0  0  0  0
   -0.5155    4.0627    0.4952 H   0  0  0  0  0  0  0  0  0  0  0  0
    0.4733    3.7808   -0.9537 H   0  0  0  0  0  0  0  0  0  0  0  0
   -1.3008    3.6667   -1.0421 H   0  0  0  0  0  0  0  0  0  0  0  0
  5  6  2  0  0  0  0
  5  7  1  0  0  0  0
  2  3  1  0  0  0  0
  2  4  1  0  0  0  0
  2  5  1  0  0  0  0
  1  2  1  0  0  0  0
 27 28  2  0  0  0  0
 27 29  1  0  0  0  0
 23 24  1  0  0  0  0
 23 25  1  0  0  0  0
 23 26  1  0  0  0  0
 20 21  1  0  0  0  0
 20 22  1  0  0  0  0
 20 23  1  0  0  0  0
 17 18  1  0  0  0  0
 17 19  1  0  0  0  0
 17 20  1  0  0  0  0
 14 15  1  0  0  0  0
 14 16  1  0  0  0  0
 14 17  1  0  0  0  0
 11 12  1  0  0  0  0
 11 13  1  0  0  0  0
 11 14  1  0  0  0  0
  9 10  1  0  0  0  0
  9 11  1  0  0  0  0
  9 27  1  0  0  0  0
  7  8  1  0  0  0  0
  7  9  1  0  0  0  0
 31 32  1  0  0  0  0
 31 33  1  0  0  0  0
 31 34  1  0  0  0  0
 29 30  1  0  0  0  0
 29 31  1  0  0  0  0
M  CHG  1  23   1
M  END
$$$$
default_name
  -OEChem-01062215323D

 34 33  0     1  0  0  0  0  0999 V2000
   -3.8899   -3.6747    1.6490 H   0  0  0  0  0  0  0  0  0  0  0  0
   -3.9109   -2.6717    1.2250 C   0  0  0  0  0  0  0  0  0  0  0  0
   -4.6009   -2.0517    1.7950 H   0  0  0  0  0  0  0  0  0  0  0  0
   -4.2309   -2.7237    0.1860 H   0  0  0  0  0  0  0  0  0  0  0  0
   -2.5229   -2.0787    1.2980 C   0  0  0  0  0  0  0  0  0  0  0  0
   -1.5999   -2.7227    1.7810 O   0  0  0  0  0  0  0  0  0  0  0  0
   -2.3659   -0.8447    0.8120 N   0  0  0  0  0  0  0  0  0  0  0  0
   -3.1749   -0.3807    0.4220 H   0  0  0  0  0  0  0  0  0  0  0  0
   -1.0919   -0.1077    0.8170 C   0  0  1  0  0  0  0  0  0  0  0  0
   -0.6405   -0.2108    1.8055 H   0  0  0  0  0  0  0  0  0  0  0  0
   -0.1543   -0.7436   -0.2266 C   0  0  0  0  0  0  0  0  0  0  0  0
   -0.6824   -0.7999   -1.1797 H   0  0  0  0  0  0  0  0  0  0  0  0
    0.7206   -0.1042   -0.3596 H   0  0  0  0  0  0  0  0  0  0  0  0
    0.3064   -2.1588    0.1545 C   0  0  0  0  0  0  0  0  0  0  0  0
    0.8258   -2.1304    1.1133 H   0  0  0  0  0  0  0  0  0  0  0  0
   -0.5658   -2.8098    0.2407 H   0  0  0  0  0  0  0  0  0  0  0  0
    1.2544   -2.7185   -0.9151 C   0  0  0  0  0  0  0  0  0  0  0  0
    0.7363   -2.7317   -1.8770 H   0  0  0  0  0  0  0  0  0  0  0  0
    2.1289   -2.0693   -0.9908 H   0  0  0  0  0  0  0  0  0  0  0  0
    1.6956   -4.1410   -0.5484 C   0  0  0  0  0  0  0  0  0  0  0  0
    2.2049   -4.1075    0.4202 H   0  0  0  0  0  0  0  0  0  0  0  0
    0.8030   -4.7638   -0.4364 H   0  0  0  0  0  0  0  0  0  0  0  0
    2.5957   -4.7162   -1.5797 N   0  3  0  0  0  0  0  0  0  0  0  0
    3.4286   -4.1498   -1.6805 H   0  0  0  0  0  0  0  0  0  0  0  0
    2.8773   -5.6543   -1.3232 H   0  0  0  0  0  0  0  0  0  0  0  0
    2.1258   -4.7576   -2.4765 H   0  0  0  0  0  0  0  0  0  0  0  0
   -1.3322    1.3778    0.5384 C   0  0  0  0  0  0  0  0  0  0  0  0
   -2.2619    1.9553    1.0895 O   0  0  0  0  0  0  0  0  0  0  0  0
   -0.5171    1.9747   -0.3374 N   0  0  0  0  0  0  0  0  0  0  0  0
    0.2405    1.4330   -0.7192 H   0  0  0  0  0  0  0  0  0  0  0  0
   -0.6092    3.3870   -0.7119 C   0  0  0  0  0  0  0  0  0  0  0  0
   -0.4409    4.0132    0.1670 H   0  0  0  0  0  0  0  0  0  0  0  0
    0.1378    3.6300   -1.4685 H   0  0  0  0  0  0  0  0  0  0  0  0
   -1.6045    3.6058   -1.1047 H   0  0  0  0  0  0  0  0  0  0  0  0
  5  6  2  0  0  0  0
  5  7  1  0  0  0  0
  2  3  1  0  0  0  0
  2  4  1  0  0  0  0
  2  5  1  0  0  0  0
  1  2  1  0  0  0  0
 27 28  2  0  0  0  0
 27 29  1  0  0  0  0
 23 24  1  0  0  0  0
 23 25  1  0  0  0  0
 23 26  1  0  0  0  0
 20 21  1  0  0  0  0
 20 22  1  0  0  0  0
 20 23  1  0  0  0  0
 17 18  1  0  0  0  0
 17 19  1  0  0  0  0
 17 20  1  0  0  0  0
 14 15  1  0  0  0  0
 14 16  1  0  0  0  0
 14 17  1  0  0  0  0
 11 12  1  0  0  0  0
 11 13  1  0  0  0  0
 11 14  1  0  0  0  0
  9 10  1  0  0  0  0
  9 11  1  0  0  0  0
  9 27  1  0  0  0  0
  7  8  1  0  0  0  0
  7  9  1  0  0  0  0
 31 32  1  0  0  0  0
 31 33  1  0  0  0  0
 31 34  1  0  0  0  0
 29 30  1  0  0  0  0
 29 31  1  0  0  0  0
M  CHG  1  23   1
M  END
$$$$
default_name
  -OEChem-01062215323D

 34 33  0     1  0  0  0  0  0999 V2000
   -3.8899   -3.6747    1.6490 H   0  0  0  0  0  0  0  0  0  0  0  0
   -3.9109   -2.6717    1.2250 C   0  0  0  0  0  0  0  0  0  0  0  0
   -4.6009   -2.0517    1.7950 H   0  0  0  0  0  0  0  0  0  0  0  0
   -4.2309   -2.7237    0.1860 H   0  0  0  0  0  0  0  0  0  0  0  0
   -2.5229   -2.0787    1.2980 C   0  0  0  0  0  0  0  0  0  0  0  0
   -1.5999   -2.7227    1.7810 O   0  0  0  0  0  0  0  0  0  0  0  0
   -2.3659   -0.8447    0.8120 N   0  0  0  0  0  0  0  0  0  0  0  0
   -3.1749   -0.3807    0.4220 H   0  0  0  0  0  0  0  0  0  0  0  0
   -1.0919   -0.1077    0.8170 C   0  0  1  0  0  0  0  0  0  0  0  0
   -0.6405   -0.2108    1.8055 H   0  0  0  0  0  0  0  0  0  0  0  0
   -0.1543   -0.7436   -0.2266 C   0  0  0  0  0  0  0  0  0  0  0  0
   -0.6824   -0.7999   -1.1797 H   0  0  0  0  0  0  0  0  0  0  0  0
    0.7206   -0.1042   -0.3596 H   0  0  0  0  0  0  0  0  0  0  0  0
    0.3064   -2.1588    0.1545 C   0  0  0  0  0  0  0  0  0  0  0  0
    0.8258   -2.1304    1.1133 H   0  0  0  0  0  0  0  0  0  0  0  0
   -0.5658   -2.8098    0.2407 H   0  0  0  0  0  0  0  0  0  0  0  0
    1.2544   -2.7185   -0.9151 C   0  0  0  0  0  0  0  0  0  0  0  0
    0.7363   -2.7317   -1.8770 H   0  0  0  0  0  0  0  0  0  0  0  0
    2.1289   -2.0693   -0.9908 H   0  0  0  0  0  0  0  0  0  0  0  0
    1.6956   -4.1410   -0.5484 C   0  0  0  0  0  0  0  0  0  0  0  0
    2.2049   -4.1075    0.4202 H   0  0  0  0  0  0  0  0  0  0  0  0
    0.8030   -4.7638   -0.4364 H   0  0  0  0  0  0  0  0  0  0  0  0
    2.5957   -4.7162   -1.5797 N   0  3  0  0  0  0  0  0  0  0  0  0
    3.4286   -4.1498   -1.6805 H   0  0  0  0  0  0  0  0  0  0  0  0
    2.8773   -5.6543   -1.3232 H   0  0  0  0  0  0  0  0  0  0  0  0
    2.1258   -4.7576   -2.4765 H   0  0  0  0  0  0  0  0  0  0  0  0
   -1.3322    1.3778    0.5384 C   0  0  0  0  0  0  0  0  0  0  0  0
   -2.0678    2.0219    1.2770 O   0  0  0  0  0  0  0  0  0  0  0  0
   -0.7401    1.9005   -0.5404 N   0  0  0  0  0  0  0  0  0  0  0  0
   -0.1266    1.3071   -1.0739 H   0  0  0  0  0  0  0  0  0  0  0  0
   -0.8643    3.3020   -0.9454 C   0  0  0  0  0  0  0  0  0  0  0  0
   -0.4538    3.9485   -0.1668 H   0  0  0  0  0  0  0  0  0  0  0  0
   -0.3228    3.4792   -1.8753 H   0  0  0  0  0  0  0  0  0  0  0  0
   -1.9164    3.5588   -1.0864 H   0  0  0  0  0  0  0  0  0  0  0  0
  5  6  2  0  0  0  0
  5  7  1  0  0  0  0
  2  3  1  0  0  0  0
  2  4  1  0  0  0  0
  2  5  1  0  0  0  0
  1  2  1  0  0  0  0
 27 28  2  0  0  0  0
 27 29  1  0  0  0  0
 23 24  1  0  0  0  0
 23 25  1  0  0  0  0
 23 26  1  0  0  0  0
 20 21  1  0  0  0  0
 20 22  1  0  0  0  0
 20 23  1  0  0  0  0
 17 18  1  0  0  0  0
 17 19  1  0  0  0  0
 17 20  1  0  0  0  0
 14 15  1  0  0  0  0
 14 16  1  0  0  0  0
 14 17  1  0  0  0  0
 11 12  1  0  0  0  0
 11 13  1  0  0  0  0
 11 14  1  0  0  0  0
  9 10  1  0  0  0  0
  9 11  1  0  0  0  0
  9 27  1  0  0  0  0
  7  8  1  0  0  0  0
  7  9  1  0  0  0  0
 31 32  1  0  0  0  0
 31 33  1  0  0  0  0
 31 34  1  0  0  0  0
 29 30  1  0  0  0  0
 29 31  1  0  0  0  0
M  CHG  1  23   1
M  END
$$$$
default_name
  -OEChem-01062215323D

 34 33  0     1  0  0  0  0  0999 V2000
   -3.8899   -3.6747    1.6490 H   0  0  0  0  0  0  0  0  0  0  0  0
   -3.9109   -2.6717    1.2250 C   0  0  0  0  0  0  0  0  0  0  0  0
   -4.6009   -2.0517    1.7950 H   0  0  0  0  0  0  0  0  0  0  0  0
   -4.2309   -2.7237    0.1860 H   0  0  0  0  0  0  0  0  0  0  0  0
   -2.5229   -2.0787    1.2980 C   0  0  0  0  0  0  0  0  0  0  0  0
   -1.5999   -2.7227    1.7810 O   0  0  0  0  0  0  0  0  0  0  0  0
   -2.3659   -0.8447    0.8120 N   0  0  0  0  0  0  0  0  0  0  0  0
   -3.1749   -0.3807    0.4220 H   0  0  0  0  0  0  0  0  0  0  0  0
   -1.0919   -0.1077    0.8170 C   0  0  1  0  0  0  0  0  0  0  0  0
   -0.6405   -0.2108    1.8055 H   0  0  0  0  0  0  0  0  0  0  0  0
   -0.1543   -0.7436   -0.2266 C   0  0  0  0  0  0  0  0  0  0  0  0
   -0.6824   -0.7999   -1.1797 H   0  0  0  0  0  0  0  0  0  0  0  0
    0.7206   -0.1042   -0.3596 H   0  0  0  0  0  0  0  0  0  0  0  0
    0.3064   -2.1588    0.1545 C   0  0  0  0  0  0  0  0  0  0  0  0
    0.8258   -2.1304    1.1133 H   0  0  0  0  0  0  0  0  0  0  0  0
   -0.5658   -2.8098    0.2407 H   0  0  0  0  0  0  0  0  0  0  0  0
    1.2544   -2.7185   -0.9151 C   0  0  0  0  0  0  0  0  0  0  0  0
    0.7363   -2.7317   -1.8770 H   0  0  0  0  0  0  0  0  0  0  0  0
    2.1289   -2.0693   -0.9908 H   0  0  0  0  0  0  0  0  0  0  0  0
    1.6956   -4.1410   -0.5484 C   0  0  0  0  0  0  0  0  0  0  0  0
    2.2049   -4.1075    0.4202 H   0  0  0  0  0  0  0  0  0  0  0  0
    0.8030   -4.7638   -0.4364 H   0  0  0  0  0  0  0  0  0  0  0  0
    2.5957   -4.7162   -1.5797 N   0  3  0  0  0  0  0  0  0  0  0  0
    3.4286   -4.1498   -1.6805 H   0  0  0  0  0  0  0  0  0  0  0  0
    2.8773   -5.6543   -1.3232 H   0  0  0  0  0  0  0  0  0  0  0  0
    2.1258   -4.7576   -2.4765 H   0  0  0  0  0  0  0  0  0  0  0  0
   -1.3322    1.3778    0.5384 C   0  0  0  0  0  0  0  0  0  0  0  0
   -1.8301    2.0847    1.4067 O   0  0  0  0  0  0  0  0  0  0  0  0
   -1.0099    1.8312   -0.6774 N   0  0  0  0  0  0  0  0  0  0  0  0
   -0.5762    1.1884   -1.3192 H   0  0  0  0  0  0  0  0  0  0  0  0
   -1.1734    3.2223   -1.1034 C   0  0  0  0  0  0  0  0  0  0  0  0
   -0.5531    3.8731   -0.4834 H   0  0  0  0  0  0  0  0  0  0  0  0
   -0.8770    3.3387   -2.1465 H   0  0  0  0  0  0  0  0  0  0  0  0
   -2.2154    3.5288   -0.9885 H   0  0  0  0  0  0  0  0  0  0  0  0
  5  6  2  0  0  0  0
  5  7  1  0  0  0  0
  2  3  1  0  0  0  0
  2  4  1  0  0  0  0
  2  5  1  0  0  0  0
  1  2  1  0  0  0  0
 27 28  2  0  0  0  0
 27 29  1  0  0  0  0
 23 24  1  0  0  0  0
 23 25  1  0  0  0  0
 23 26  1  0  0  0  0
 20 21  1  0  0  0  0
 20 22  1  0  0  0  0
 20 23  1  0  0  0  0
 17 18  1  0  0  0  0
 17 19  1  0  0  0  0
 17 20  1  0  0  0  0
 14 15  1  0  0  0  0
 14 16  1  0  0  0  0
 14 17  1  0  0  0  0
 11 12  1  0  0  0  0
 11 13  1  0  0  0  0
 11 14  1  0  0  0  0
  9 10  1  0  0  0  0
  9 11  1  0  0  0  0
  9 27  1  0  0  0  0
  7  8  1  0  0  0  0
  7  9  1  0  0  0  0
 31 32  1  0  0  0  0
 31 33  1  0  0  0  0
 31 34  1  0  0  0  0
 29 30  1  0  0  0  0
 29 31  1  0  0  0  0
M  CHG  1  23   1
M  END
$$$$
default_name
  -OEChem-01062215323D

 34 33  0     1  0  0  0  0  0999 V2000
   -3.8899   -3.6747    1.6490 H   0  0  0  0  0  0  0  0  0  0  0  0
   -3.9109   -2.6717    1.2250 C   0  0  0  0  0  0  0  0  0  0  0  0
   -4.6009   -2.0517    1.7950 H   0  0  0  0  0  0  0  0  0  0  0  0
   -4.2309   -2.7237    0.1860 H   0  0  0  0  0  0  0  0  0  0  0  0
   -2.5229   -2.0787    1.2980 C   0  0  0  0  0  0  0  0  0  0  0  0
   -1.5999   -2.7227    1.7810 O   0  0  0  0  0  0  0  0  0  0  0  0
   -2.3659   -0.8447    0.8120 N   0  0  0  0  0  0  0  0  0  0  0  0
   -3.1749   -0.3807    0.4220 H   0  0  0  0  0  0  0  0  0  0  0  0
   -1.0919   -0.1077    0.8170 C   0  0  1  0  0  0  0  0  0  0  0  0
   -0.6405   -0.2108    1.8055 H   0  0  0  0  0  0  0  0  0  0  0  0
   -0.1543   -0.7436   -0.2266 C   0  0  0  0  0  0  0  0  0  0  0  0
   -0.6824   -0.7999   -1.1797 H   0  0  0  0  0  0  0  0  0  0  0  0
    0.7206   -0.1042   -0.3596 H   0  0  0  0  0  0  0  0  0  0  0  0
    0.3064   -2.1588    0.1545 C   0  0  0  0  0  0  0  0  0  0  0  0
    0.8258   -2.1304    1.1133 H   0  0  0  0  0  0  0  0  0  0  0  0
   -0.5658   -2.8098    0.2407 H   0  0  0  0  0  0  0  0  0  0  0  0
    1.2544   -2.7185   -0.9151 C   0  0  0  0  0  0  0  0  0  0  0  0
    0.7363   -2.7317   -1.8770 H   0  0  0  0  0  0  0  0  0  0  0  0
    2.1289   -2.0693   -0.9908 H   0  0  0  0  0  0  0  0  0  0  0  0
    1.6956   -4.1410   -0.5484 C   0  0  0  0  0  0  0  0  0  0  0  0
    2.2049   -4.1075    0.4202 H   0  0  0  0  0  0  0  0  0  0  0  0
    0.8030   -4.7638   -0.4364 H   0  0  0  0  0  0  0  0  0  0  0  0
    2.5957   -4.7162   -1.5797 N   0  3  0  0  0  0  0  0  0  0  0  0
    3.4286   -4.1498   -1.6805 H   0  0  0  0  0  0  0  0  0  0  0  0
    2.8773   -5.6543   -1.3232 H   0  0  0  0  0  0  0  0  0  0  0  0
    2.1258   -4.7576   -2.4765 H   0  0  0  0  0  0  0  0  0  0  0  0
   -1.3322    1.3778    0.5384 C   0  0  0  0  0  0  0  0  0  0  0  0
   -1.5649    2.1394    1.4697 O   0  0  0  0  0  0  0  0  0  0  0  0
   -1.3083    1.7713   -0.7392 N   0  0  0  0  0  0  0  0  0  0  0  0
   -1.0778    1.0849   -1.4384 H   0  0  0  0  0  0  0  0  0  0  0  0
   -1.5154    3.1536   -1.1751 C   0  0  0  0  0  0  0  0  0  0  0  0
   -0.7321    3.7921   -0.7612 H   0  0  0  0  0  0  0  0  0  0  0  0
   -1.4871    3.2181   -2.2634 H   0  0  0  0  0  0  0  0  0  0  0  0
   -2.4810    3.5179   -0.8175 H   0  0  0  0  0  0  0  0  0  0  0  0
  5  6  2  0  0  0  0
  5  7  1  0  0  0  0
  2  3  1  0  0  0  0
  2  4  1  0  0  0  0
  2  5  1  0  0  0  0
  1  2  1  0  0  0  0
 27 28  2  0  0  0  0
 27 29  1  0  0  0  0
 23 24  1  0  0  0  0
 23 25  1  0  0  0  0
 23 26  1  0  0  0  0
 20 21  1  0  0  0  0
 20 22  1  0  0  0  0
 20 23  1  0  0  0  0
 17 18  1  0  0  0  0
 17 19  1  0  0  0  0
 17 20  1  0  0  0  0
 14 15  1  0  0  0  0
 14 16  1  0  0  0  0
 14 17  1  0  0  0  0
 11 12  1  0  0  0  0
 11 13  1  0  0  0  0
 11 14  1  0  0  0  0
  9 10  1  0  0  0  0
  9 11  1  0  0  0  0
  9 27  1  0  0  0  0
  7  8  1  0  0  0  0
  7  9  1  0  0  0  0
 31 32  1  0  0  0  0
 31 33  1  0  0  0  0
 31 34  1  0  0  0  0
 29 30  1  0  0  0  0
 29 31  1  0  0  0  0
M  CHG  1  23   1
M  END
$$$$
default_name
  -OEChem-01062215323D

 34 33  0     1  0  0  0  0  0999 V2000
   -3.8899   -3.6747    1.6490 H   0  0  0  0  0  0  0  0  0  0  0  0
   -3.9109   -2.6717    1.2250 C   0  0  0  0  0  0  0  0  0  0  0  0
   -4.6009   -2.0517    1.7950 H   0  0  0  0  0  0  0  0  0  0  0  0
   -4.2309   -2.7237    0.1860 H   0  0  0  0  0  0  0  0  0  0  0  0
   -2.5229   -2.0787    1.2980 C   0  0  0  0  0  0  0  0  0  0  0  0
   -1.5999   -2.7227    1.7810 O   0  0  0  0  0  0  0  0  0  0  0  0
   -2.3659   -0.8447    0.8120 N   0  0  0  0  0  0  0  0  0  0  0  0
   -3.1749   -0.3807    0.4220 H   0  0  0  0  0  0  0  0  0  0  0  0
   -1.0919   -0.1077    0.8170 C   0  0  1  0  0  0  0  0  0  0  0  0
   -0.6405   -0.2108    1.8055 H   0  0  0  0  0  0  0  0  0  0  0  0
   -0.1543   -0.7436   -0.2266 C   0  0  0  0  0  0  0  0  0  0  0  0
   -0.6824   -0.7999   -1.1797 H   0  0  0  0  0  0  0  0  0  0  0  0
    0.7206   -0.1042   -0.3596 H   0  0  0  0  0  0  0  0  0  0  0  0
    0.3064   -2.1588    0.1545 C   0  0  0  0  0  0  0  0  0  0  0  0
    0.8258   -2.1304    1.1133 H   0  0  0  0  0  0  0  0  0  0  0  0
   -0.5658   -2.8098    0.2407 H   0  0  0  0  0  0  0  0  0  0  0  0
    1.2544   -2.7185   -0.9151 C   0  0  0  0  0  0  0  0  0  0  0  0
    0.7363   -2.7317   -1.8770 H   0  0  0  0  0  0  0  0  0  0  0  0
    2.1289   -2.0693   -0.9908 H   0  0  0  0  0  0  0  0  0  0  0  0
    1.6956   -4.1410   -0.5484 C   0  0  0  0  0  0  0  0  0  0  0  0
    2.2049   -4.1075    0.4202 H   0  0  0  0  0  0  0  0  0  0  0  0
    0.8030   -4.7638   -0.4364 H   0  0  0  0  0  0  0  0  0  0  0  0
    2.5957   -4.7162   -1.5797 N   0  3  0  0  0  0  0  0  0  0  0  0
    3.4286   -4.1498   -1.6805 H   0  0  0  0  0  0  0  0  0  0  0  0
    2.8773   -5.6543   -1.3232 H   0  0  0  0  0  0  0  0  0  0  0  0
    2.1258   -4.7576   -2.4765 H   0  0  0  0  0  0  0  0  0  0  0  0
   -1.3322    1.3778    0.5384 C   0  0  0  0  0  0  0  0  0  0  0  0
   -1.2904    2.1823    1.4617 O   0  0  0  0  0  0  0  0  0  0  0  0
   -1.6148    1.7251   -0.7215 N   0  0  0  0  0  0  0  0  0  0  0  0
   -1.5971    1.0037   -1.4232 H   0  0  0  0  0  0  0  0  0  0  0  0
   -1.8670    3.1003   -1.1557 C   0  0  0  0  0  0  0  0  0  0  0  0
   -0.9786    3.7109   -0.9812 H   0  0  0  0  0  0  0  0  0  0  0  0
   -2.1114    3.1256   -2.2182 H   0  0  0  0  0  0  0  0  0  0  0  0
   -2.6950    3.5268   -0.5852 H   0  0  0  0  0  0  0  0  0  0  0  0
  5  6  2  0  0  0  0
  5  7  1  0  0  0  0
  2  3  1  0  0  0  0
  2  4  1  0  0  0  0
  2  5  1  0  0  0  0
  1  2  1  0  0  0  0
 27 28  2  0  0  0  0
 27 29  1  0  0  0  0
 23 24  1  0  0  0  0
 23 25  1  0  0  0  0
 23 26  1  0  0  0  0
 20 21  1  0  0  0  0
 20 22  1  0  0  0  0
 20 23  1  0  0  0  0
 17 18  1  0  0  0  0
 17 19  1  0  0  0  0
 17 20  1  0  0  0  0
 14 15  1  0  0  0  0
 14 16  1  0  0  0  0
 14 17  1  0  0  0  0
 11 12  1  0  0  0  0
 11 13  1  0  0  0  0
 11 14  1  0  0  0  0
  9 10  1  0  0  0  0
  9 11  1  0  0  0  0
  9 27  1  0  0  0  0
  7  8  1  0  0  0  0
  7  9  1  0  0  0  0
 31 32  1  0  0  0  0
 31 33  1  0  0  0  0
 31 34  1  0  0  0  0
 29 30  1  0  0  0  0
 29 31  1  0  0  0  0
M  CHG  1  23   1
M  END
$$$$
default_name
  -OEChem-01062215323D

 34 33  0     1  0  0  0  0  0999 V2000
   -3.8899   -3.6747    1.6490 H   0  0  0  0  0  0  0  0  0  0  0  0
   -3.9109   -2.6717    1.2250 C   0  0  0  0  0  0  0  0  0  0  0  0
   -4.6009   -2.0517    1.7950 H   0  0  0  0  0  0  0  0  0  0  0  0
   -4.2309   -2.7237    0.1860 H   0  0  0  0  0  0  0  0  0  0  0  0
   -2.5229   -2.0787    1.2980 C   0  0  0  0  0  0  0  0  0  0  0  0
   -1.5999   -2.7227    1.7810 O   0  0  0  0  0  0  0  0  0  0  0  0
   -2.3659   -0.8447    0.8120 N   0  0  0  0  0  0  0  0  0  0  0  0
   -3.1749   -0.3807    0.4220 H   0  0  0  0  0  0  0  0  0  0  0  0
   -1.0919   -0.1077    0.8170 C   0  0  1  0  0  0  0  0  0  0  0  0
   -0.6405   -0.2108    1.8055 H   0  0  0  0  0  0  0  0  0  0  0  0
   -0.1543   -0.7436   -0.2266 C   0  0  0  0  0  0  0  0  0  0  0  0
   -0.6824   -0.7999   -1.1797 H   0  0  0  0  0  0  0  0  0  0  0  0
    0.7206   -0.1042   -0.3596 H   0  0  0  0  0  0  0  0  0  0  0  0
    0.3064   -2.1588    0.1545 C   0  0  0  0  0  0  0  0  0  0  0  0
    0.8258   -2.1304    1.1133 H   0  0  0  0  0  0  0  0  0  0  0  0
   -0.5658   -2.8098    0.2407 H   0  0  0  0  0  0  0  0  0  0  0  0
    1.2544   -2.7185   -0.9151 C   0  0  0  0  0  0  0  0  0  0  0  0
    0.7363   -2.7317   -1.8770 H   0  0  0  0  0  0  0  0  0  0  0  0
    2.1289   -2.0693   -0.9908 H   0  0  0  0  0  0  0  0  0  0  0  0
    1.6956   -4.1410   -0.5484 C   0  0  0  0  0  0  0  0  0  0  0  0
    2.2049   -4.1075    0.4202 H   0  0  0  0  0  0  0  0  0  0  0  0
    0.8030   -4.7638   -0.4364 H   0  0  0  0  0  0  0  0  0  0  0  0
    2.5957   -4.7162   -1.5797 N   0  3  0  0  0  0  0  0  0  0  0  0
    3.4286   -4.1498   -1.6805 H   0  0  0  0  0  0  0  0  0  0  0  0
    2.8773   -5.6543   -1.3232 H   0  0  0  0  0  0  0  0  0  0  0  0
    2.1258   -4.7576   -2.4765 H   0  0  0  0  0  0  0  0  0  0  0  0
   -1.3322    1.3778    0.5384 C   0  0  0  0  0  0  0  0  0  0  0  0
   -1.0252    2.2105    1.3833 O   0  0  0  0  0  0  0  0  0  0  0  0
   -1.9086    1.6956   -0.6255 N   0  0  0  0  0  0  0  0  0  0  0  0
   -2.0987    0.9504   -1.2749 H   0  0  0  0  0  0  0  0  0  0  0  0
   -2.2043    3.0663   -1.0464 C   0  0  0  0  0  0  0  0  0  0  0  0
   -1.2758    3.6352   -1.1285 H   0  0  0  0  0  0  0  0  0  0  0  0
   -2.7075    3.0674   -2.0140 H   0  0  0  0  0  0  0  0  0  0  0  0
   -2.8430    3.5550   -0.3074 H   0  0  0  0  0  0  0  0  0  0  0  0
  5  6  2  0  0  0  0
  5  7  1  0  0  0  0
  2  3  1  0  0  0  0
  2  4  1  0  0  0  0
  2  5  1  0  0  0  0
  1  2  1  0  0  0  0
 27 28  2  0  0  0  0
 27 29  1  0  0  0  0
 23 24  1  0  0  0  0
 23 25  1  0  0  0  0
 23 26  1  0  0  0  0
 20 21  1  0  0  0  0
 20 22  1  0  0  0  0
 20 23  1  0  0  0  0
 17 18  1  0  0  0  0
 17 19  1  0  0  0  0
 17 20  1  0  0  0  0
 14 15  1  0  0  0  0
 14 16  1  0  0  0  0
 14 17  1  0  0  0  0
 11 12  1  0  0  0  0
 11 13  1  0  0  0  0
 11 14  1  0  0  0  0
  9 10  1  0  0  0  0
  9 11  1  0  0  0  0
  9 27  1  0  0  0  0
  7  8  1  0  0  0  0
  7  9  1  0  0  0  0
 31 32  1  0  0  0  0
 31 33  1  0  0  0  0
 31 34  1  0  0  0  0
 29 30  1  0  0  0  0
 29 31  1  0  0  0  0
M  CHG  1  23   1
M  END
$$$$
default_name
  -OEChem-01062215323D

 34 33  0     1  0  0  0  0  0999 V2000
   -3.8899   -3.6747    1.6490 H   0  0  0  0  0  0  0  0  0  0  0  0
   -3.9109   -2.6717    1.2250 C   0  0  0  0  0  0  0  0  0  0  0  0
   -4.6009   -2.0517    1.7950 H   0  0  0  0  0  0  0  0  0  0  0  0
   -4.2309   -2.7237    0.1860 H   0  0  0  0  0  0  0  0  0  0  0  0
   -2.5229   -2.0787    1.2980 C   0  0  0  0  0  0  0  0  0  0  0  0
   -1.5999   -2.7227    1.7810 O   0  0  0  0  0  0  0  0  0  0  0  0
   -2.3659   -0.8447    0.8120 N   0  0  0  0  0  0  0  0  0  0  0  0
   -3.1749   -0.3807    0.4220 H   0  0  0  0  0  0  0  0  0  0  0  0
   -1.0919   -0.1077    0.8170 C   0  0  1  0  0  0  0  0  0  0  0  0
   -0.6405   -0.2108    1.8055 H   0  0  0  0  0  0  0  0  0  0  0  0
   -0.1543   -0.7436   -0.2266 C   0  0  0  0  0  0  0  0  0  0  0  0
   -0.6824   -0.7999   -1.1797 H   0  0  0  0  0  0  0  0  0  0  0  0
    0.7206   -0.1042   -0.3596 H   0  0  0  0  0  0  0  0  0  0  0  0
    0.3064   -2.1588    0.1545 C   0  0  0  0  0  0  0  0  0  0  0  0
    0.8258   -2.1304    1.1133 H   0  0  0  0  0  0  0  0  0  0  0  0
   -0.5658   -2.8098    0.2407 H   0  0  0  0  0  0  0  0  0  0  0  0
    1.2544   -2.7185   -0.9151 C   0  0  0  0  0  0  0  0  0  0  0  0
    0.7363   -2.7317   -1.8770 H   0  0  0  0  0  0  0  0  0  0  0  0
    2.1289   -2.0693   -0.9908 H   0  0  0  0  0  0  0  0  0  0  0  0
    1.6956   -4.1410   -0.5484 C   0  0  0  0  0  0  0  0  0  0  0  0
    2.2049   -4.1075    0.4202 H   0  0  0  0  0  0  0  0  0  0  0  0
    0.8030   -4.7638   -0.4364 H   0  0  0  0  0  0  0  0  0  0  0  0
    2.5957   -4.7162   -1.5797 N   0  3  0  0  0  0  0  0  0  0  0  0
    3.4286   -4.1498   -1.6805 H   0  0  0  0  0  0  0  0  0  0  0  0
    2.8773   -5.6543   -1.3232 H   0  0  0  0  0  0  0  0  0  0  0  0
    2.1258   -4.7576   -2.4765 H   0  0  0  0  0  0  0  0  0  0  0  0
   -1.3322    1.3778    0.5384 C   0  0  0  0  0  0  0  0  0  0  0  0
   -0.7874    2.2220    1.2398 O   0  0  0  0  0  0  0  0  0  0  0  0
   -2.1696    1.6848   -0.4577 N   0  0  0  0  0  0  0  0  0  0  0  0
   -2.5484    0.9286   -1.0034 H   0  0  0  0  0  0  0  0  0  0  0  0
   -2.5043    3.0537   -0.8548 C   0  0  0  0  0  0  0  0  0  0  0  0
   -1.6034    3.5701   -1.1931 H   0  0  0  0  0  0  0  0  0  0  0  0
   -3.2347    3.0477   -1.6646 H   0  0  0  0  0  0  0  0  0  0  0  0
   -2.9149    3.6004   -0.0031 H   0  0  0  0  0  0  0  0  0  0  0  0
  5  6  2  0  0  0  0
  5  7  1  0  0  0  0
  2  3  1  0  0  0  0
  2  4  1  0  0  0  0
  2  5  1  0  0  0  0
  1  2  1  0  0  0  0
 27 28  2  0  0  0  0
 27 29  1  0  0  0  0
 23 24  1  0  0  0  0
 23 25  1  0  0  0  0
 23 26  1  0  0  0  0
 20 21  1  0  0  0  0
 20 22  1  0  0  0  0
 20 23  1  0  0  0  0
 17 18  1  0  0  0  0
 17 19  1  0  0  0  0
 17 20  1  0  0  0  0
 14 15  1  0  0  0  0
 14 16  1  0  0  0  0
 14 17  1  0  0  0  0
 11 12  1  0  0  0  0
 11 13  1  0  0  0  0
 11 14  1  0  0  0  0
  9 10  1  0  0  0  0
  9 11  1  0  0  0  0
  9 27  1  0  0  0  0
  7  8  1  0  0  0  0
  7  9  1  0  0  0  0
 31 32  1  0  0  0  0
 31 33  1  0  0  0  0
 31 34  1  0  0  0  0
 29 30  1  0  0  0  0
 29 31  1  0  0  0  0
M  CHG  1  23   1
M  END
$$$$
default_name
  -OEChem-01062215323D

 34 33  0     1  0  0  0  0  0999 V2000
   -3.8899   -3.6747    1.6490 H   0  0  0  0  0  0  0  0  0  0  0  0
   -3.9109   -2.6717    1.2250 C   0  0  0  0  0  0  0  0  0  0  0  0
   -4.6009   -2.0517    1.7950 H   0  0  0  0  0  0  0  0  0  0  0  0
   -4.2309   -2.7237    0.1860 H   0  0  0  0  0  0  0  0  0  0  0  0
   -2.5229   -2.0787    1.2980 C   0  0  0  0  0  0  0  0  0  0  0  0
   -1.5999   -2.7227    1.7810 O   0  0  0  0  0  0  0  0  0  0  0  0
   -2.3659   -0.8447    0.8120 N   0  0  0  0  0  0  0  0  0  0  0  0
   -3.1749   -0.3807    0.4220 H   0  0  0  0  0  0  0  0  0  0  0  0
   -1.0919   -0.1077    0.8170 C   0  0  1  0  0  0  0  0  0  0  0  0
   -0.6405   -0.2108    1.8055 H   0  0  0  0  0  0  0  0  0  0  0  0
   -0.1543   -0.7436   -0.2266 C   0  0  0  0  0  0  0  0  0  0  0  0
   -0.6824   -0.7999   -1.1797 H   0  0  0  0  0  0  0  0  0  0  0  0
    0.7206   -0.1042   -0.3596 H   0  0  0  0  0  0  0  0  0  0  0  0
    0.3064   -2.1588    0.1545 C   0  0  0  0  0  0  0  0  0  0  0  0
    0.8258   -2.1304    1.1133 H   0  0  0  0  0  0  0  0  0  0  0  0
   -0.5658   -2.8098    0.2407 H   0  0  0  0  0  0  0  0  0  0  0  0
    1.2544   -2.7185   -0.9151 C   0  0  0  0  0  0  0  0  0  0  0  0
    0.7363   -2.7317   -1.8770 H   0  0  0  0  0  0  0  0  0  0  0  0
    2.1289   -2.0693   -0.9908 H   0  0  0  0  0  0  0  0  0  0  0  0
    1.6956   -4.1410   -0.5484 C   0  0  0  0  0  0  0  0  0  0  0  0
    2.2049   -4.1075    0.4202 H   0  0  0  0  0  0  0  0  0  0  0  0
    0.8030   -4.7638   -0.4364 H   0  0  0  0  0  0  0  0  0  0  0  0
    2.5957   -4.7162   -1.5797 N   0  3  0  0  0  0  0  0  0  0  0  0
    3.4286   -4.1498   -1.6805 H   0  0  0  0  0  0  0  0  0  0  0  0
    2.8773   -5.6543   -1.3232 H   0  0  0  0  0  0  0  0  0  0  0  0
    2.1258   -4.7576   -2.4765 H   0  0  0  0  0  0  0  0  0  0  0  0
   -1.3322    1.3778    0.5384 C   0  0  0  0  0  0  0  0  0  0  0  0
   -0.5932    2.2162    1.0409 O   0  0  0  0  0  0  0  0  0  0  0  0
   -2.3801    1.6935   -0.2297 N   0  0  0  0  0  0  0  0  0  0  0  0
   -2.9157    0.9397   -0.6273 H   0  0  0  0  0  0  0  0  0  0  0  0
   -2.7464    3.0635   -0.5938 C   0  0  0  0  0  0  0  0  0  0  0  0
   -1.9392    3.5200   -1.1705 H   0  0  0  0  0  0  0  0  0  0  0  0
   -3.6571    3.0676   -1.1938 H   0  0  0  0  0  0  0  0  0  0  0  0
   -2.9057    3.6601    0.3071 H   0  0  0  0  0  0  0  0  0  0  0  0
  5  6  2  0  0  0  0
  5  7  1  0  0  0  0
  2  3  1  0  0  0  0
  2  4  1  0  0  0  0
  2  5  1  0  0  0  0
  1  2  1  0  0  0  0
 27 28  2  0  0  0  0
 27 29  1  0  0  0  0
 23 24  1  0  0  0  0
 23 25  1  0  0  0  0
 23 26  1  0  0  0  0
 20 21  1  0  0  0  0
 20 22  1  0  0  0  0
 20 23  1  0  0  0  0
 17 18  1  0  0  0  0
 17 19  1  0  0  0  0
 17 20  1  0  0  0  0
 14 15  1  0  0  0  0
 14 16  1  0  0  0  0
 14 17  1  0  0  0  0
 11 12  1  0  0  0  0
 11 13  1  0  0  0  0
 11 14  1  0  0  0  0
  9 10  1  0  0  0  0
  9 11  1  0  0  0  0
  9 27  1  0  0  0  0
  7  8  1  0  0  0  0
  7  9  1  0  0  0  0
 31 32  1  0  0  0  0
 31 33  1  0  0  0  0
 31 34  1  0  0  0  0
 29 30  1  0  0  0  0
 29 31  1  0  0  0  0
M  CHG  1  23   1
M  END
$$$$
default_name
  -OEChem-01062215323D

 34 33  0     1  0  0  0  0  0999 V2000
   -3.8899   -3.6747    1.6490 H   0  0  0  0  0  0  0  0  0  0  0  0
   -3.9109   -2.6717    1.2250 C   0  0  0  0  0  0  0  0  0  0  0  0
   -4.6009   -2.0517    1.7950 H   0  0  0  0  0  0  0  0  0  0  0  0
   -4.2309   -2.7237    0.1860 H   0  0  0  0  0  0  0  0  0  0  0  0
   -2.5229   -2.0787    1.2980 C   0  0  0  0  0  0  0  0  0  0  0  0
   -1.5999   -2.7227    1.7810 O   0  0  0  0  0  0  0  0  0  0  0  0
   -2.3659   -0.8447    0.8120 N   0  0  0  0  0  0  0  0  0  0  0  0
   -3.1749   -0.3807    0.4220 H   0  0  0  0  0  0  0  0  0  0  0  0
   -1.0919   -0.1077    0.8170 C   0  0  1  0  0  0  0  0  0  0  0  0
   -0.6405   -0.2108    1.8055 H   0  0  0  0  0  0  0  0  0  0  0  0
   -0.1543   -0.7436   -0.2266 C   0  0  0  0  0  0  0  0  0  0  0  0
   -0.6824   -0.7999   -1.1797 H   0  0  0  0  0  0  0  0  0  0  0  0
    0.7206   -0.1042   -0.3596 H   0  0  0  0  0  0  0  0  0  0  0  0
    0.3064   -2.1588    0.1545 C   0  0  0  0  0  0  0  0  0  0  0  0
    0.8258   -2.1304    1.1133 H   0  0  0  0  0  0  0  0  0  0  0  0
   -0.5658   -2.8098    0.2407 H   0  0  0  0  0  0  0  0  0  0  0  0
    1.2544   -2.7185   -0.9151 C   0  0  0  0  0  0  0  0  0  0  0  0
    0.7363   -2.7317   -1.8770 H   0  0  0  0  0  0  0  0  0  0  0  0
    2.1289   -2.0693   -0.9908 H   0  0  0  0  0  0  0  0  0  0  0  0
    1.6956   -4.1410   -0.5484 C   0  0  0  0  0  0  0  0  0  0  0  0
    2.2049   -4.1075    0.4202 H   0  0  0  0  0  0  0  0  0  0  0  0
    0.8030   -4.7638   -0.4364 H   0  0  0  0  0  0  0  0  0  0  0  0
    2.5957   -4.7162   -1.5797 N   0  3  0  0  0  0  0  0  0  0  0  0
    3.4286   -4.1498   -1.6805 H   0  0  0  0  0  0  0  0  0  0  0  0
    2.8773   -5.6543   -1.3232 H   0  0  0  0  0  0  0  0  0  0  0  0
    2.1258   -4.7576   -2.4765 H   0  0  0  0  0  0  0  0  0  0  0  0
   -1.3322    1.3778    0.5384 C   0  0  0  0  0  0  0  0  0  0  0  0
   -0.4559    2.1932    0.8003 O   0  0  0  0  0  0  0  0  0  0  0  0
   -2.5258    1.7211    0.0431 N   0  0  0  0  0  0  0  0  0  0  0  0
   -3.1754    0.9830   -0.1722 H   0  0  0  0  0  0  0  0  0  0  0  0
   -2.9143    3.0949   -0.2812 C   0  0  0  0  0  0  0  0  0  0  0  0
   -2.2602    3.4884   -1.0622 H   0  0  0  0  0  0  0  0  0  0  0  0
   -3.9458    3.1260   -0.6338 H   0  0  0  0  0  0  0  0  0  0  0  0
   -2.8160    3.7299    0.6020 H   0  0  0  0  0  0  0  0  0  0  0  0
  5  6  2  0  0  0  0
  5  7  1  0  0  0  0
  2  3  1  0  0  0  0
  2  4  1  0  0  0  0
  2  5  1  0  0  0  0
  1  2  1  0  0  0  0
 27 28  2  0  0  0  0
 27 29  1  0  0  0  0
 23 24  1  0  0  0  0
 23 25  1  0  0  0  0
 23 26  1  0  0  0  0
 20 21  1  0  0  0  0
 20 22  1  0  0  0  0
 20 23  1  0  0  0  0
 17 18  1  0  0  0  0
 17 19  1  0  0  0  0
 17 20  1  0  0  0  0
 14 15  1  0  0  0  0
 14 16  1  0  0  0  0
 14 17  1  0  0  0  0
 11 12  1  0  0  0  0
 11 13  1  0  0  0  0
 11 14  1  0  0  0  0
  9 10  1  0  0  0  0
  9 11  1  0  0  0  0
  9 27  1  0  0  0  0
  7  8  1  0  0  0  0
  7  9  1  0  0  0  0
 31 32  1  0  0  0  0
 31 33  1  0  0  0  0
 31 34  1  0  0  0  0
 29 30  1  0  0  0  0
 29 31  1  0  0  0  0
M  CHG  1  23   1
M  END
$$$$
default_name
  -OEChem-01062215323D

 34 33  0     1  0  0  0  0  0999 V2000
   -3.8899   -3.6747    1.6490 H   0  0  0  0  0  0  0  0  0  0  0  0
   -3.9109   -2.6717    1.2250 C   0  0  0  0  0  0  0  0  0  0  0  0
   -4.6009   -2.0517    1.7950 H   0  0  0  0  0  0  0  0  0  0  0  0
   -4.2309   -2.7237    0.1860 H   0  0  0  0  0  0  0  0  0  0  0  0
   -2.5229   -2.0787    1.2980 C   0  0  0  0  0  0  0  0  0  0  0  0
   -1.5999   -2.7227    1.7810 O   0  0  0  0  0  0  0  0  0  0  0  0
   -2.3659   -0.8447    0.8120 N   0  0  0  0  0  0  0  0  0  0  0  0
   -3.1749   -0.3807    0.4220 H   0  0  0  0  0  0  0  0  0  0  0  0
   -1.0919   -0.1077    0.8170 C   0  0  1  0  0  0  0  0  0  0  0  0
   -0.6405   -0.2108    1.8055 H   0  0  0  0  0  0  0  0  0  0  0  0
   -0.1543   -0.7436   -0.2266 C   0  0  0  0  0  0  0  0  0  0  0  0
   -0.6824   -0.7999   -1.1797 H   0  0  0  0  0  0  0  0  0  0  0  0
    0.7206   -0.1042   -0.3596 H   0  0  0  0  0  0  0  0  0  0  0  0
    0.3064   -2.1588    0.1545 C   0  0  0  0  0  0  0  0  0  0  0  0
    0.8258   -2.1304    1.1133 H   0  0  0  0  0  0  0  0  0  0  0  0
   -0.5658   -2.8098    0.2407 H   0  0  0  0  0  0  0  0  0  0  0  0
    1.2544   -2.7185   -0.9151 C   0  0  0  0  0  0  0  0  0  0  0  0
    0.7363   -2.7317   -1.8770 H   0  0  0  0  0  0  0  0  0  0  0  0
    2.1289   -2.0693   -0.9908 H   0  0  0  0  0  0  0  0  0  0  0  0
    1.6956   -4.1410   -0.5484 C   0  0  0  0  0  0  0  0  0  0  0  0
    2.2049   -4.1075    0.4202 H   0  0  0  0  0  0  0  0  0  0  0  0
    0.8030   -4.7638   -0.4364 H   0  0  0  0  0  0  0  0  0  0  0  0
    2.5957   -4.7162   -1.5797 N   0  3  0  0  0  0  0  0  0  0  0  0
    3.4286   -4.1498   -1.6805 H   0  0  0  0  0  0  0  0  0  0  0  0
    2.8773   -5.6543   -1.3232 H   0  0  0  0  0  0  0  0  0  0  0  0
    2.1258   -4.7576   -2.4765 H   0  0  0  0  0  0  0  0  0  0  0  0
   -1.3322    1.3778    0.5384 C   0  0  0  0  0  0  0  0  0  0  0  0
   -0.3848    2.1549    0.5343 O   0  0  0  0  0  0  0  0  0  0  0  0
   -2.5966    1.7657    0.3421 N   0  0  0  0  0  0  0  0  0  0  0  0
   -3.3099    1.0556    0.3309 H   0  0  0  0  0  0  0  0  0  0  0  0
   -2.9964    3.1459    0.0616 C   0  0  0  0  0  0  0  0  0  0  0  0
   -2.5446    3.4774   -0.8758 H   0  0  0  0  0  0  0  0  0  0  0  0
   -4.0813    3.2186   -0.0227 H   0  0  0  0  0  0  0  0  0  0  0  0
   -2.6521    3.8051    0.8615 H   0  0  0  0  0  0  0  0  0  0  0  0
  5  6  2  0  0  0  0
  5  7  1  0  0  0  0
  2  3  1  0  0  0  0
  2  4  1  0  0  0  0
  2  5  1  0  0  0  0
  1  2  1  0  0  0  0
 27 28  2  0  0  0  0
 27 29  1  0  0  0  0
 23 24  1  0  0  0  0
 23 25  1  0  0  0  0
 23 26  1  0  0  0  0
 20 21  1  0  0  0  0
 20 22  1  0  0  0  0
 20 23  1  0  0  0  0
 17 18  1  0  0  0  0
 17 19  1  0  0  0  0
 17 20  1  0  0  0  0
 14 15  1  0  0  0  0
 14 16  1  0  0  0  0
 14 17  1  0  0  0  0
 11 12  1  0  0  0  0
 11 13  1  0  0  0  0
 11 14  1  0  0  0  0
  9 10  1  0  0  0  0
  9 11  1  0  0  0  0
  9 27  1  0  0  0  0
  7  8  1  0  0  0  0
  7  9  1  0  0  0  0
 31 32  1  0  0  0  0
 31 33  1  0  0  0  0
 31 34  1  0  0  0  0
 29 30  1  0  0  0  0
 29 31  1  0  0  0  0
M  CHG  1  23   1
M  END
$$$$
default_name
  -OEChem-01062215323D

 34 33  0     1  0  0  0  0  0999 V2000
   -3.8899   -3.6747    1.6490 H   0  0  0  0  0  0  0  0  0  0  0  0
   -3.9109   -2.6717    1.2250 C   0  0  0  0  0  0  0  0  0  0  0  0
   -4.6009   -2.0517    1.7950 H   0  0  0  0  0  0  0  0  0  0  0  0
   -4.2309   -2.7237    0.1860 H   0  0  0  0  0  0  0  0  0  0  0  0
   -2.5229   -2.0787    1.2980 C   0  0  0  0  0  0  0  0  0  0  0  0
   -1.5999   -2.7227    1.7810 O   0  0  0  0  0  0  0  0  0  0  0  0
   -2.3659   -0.8447    0.8120 N   0  0  0  0  0  0  0  0  0  0  0  0
   -3.1749   -0.3807    0.4220 H   0  0  0  0  0  0  0  0  0  0  0  0
   -1.0919   -0.1077    0.8170 C   0  0  1  0  0  0  0  0  0  0  0  0
   -0.6405   -0.2108    1.8055 H   0  0  0  0  0  0  0  0  0  0  0  0
   -0.1543   -0.7436   -0.2266 C   0  0  0  0  0  0  0  0  0  0  0  0
   -0.6824   -0.7999   -1.1797 H   0  0  0  0  0  0  0  0  0  0  0  0
    0.7206   -0.1042   -0.3596 H   0  0  0  0  0  0  0  0  0  0  0  0
    0.3064   -2.1588    0.1545 C   0  0  0  0  0  0  0  0  0  0  0  0
    0.8258   -2.1304    1.1133 H   0  0  0  0  0  0  0  0  0  0  0  0
   -0.5658   -2.8098    0.2407 H   0  0  0  0  0  0  0  0  0  0  0  0
    1.2544   -2.7185   -0.9151 C   0  0  0  0  0  0  0  0  0  0  0  0
    0.7363   -2.7317   -1.8770 H   0  0  0  0  0  0  0  0  0  0  0  0
    2.1289   -2.0693   -0.9908 H   0  0  0  0  0  0  0  0  0  0  0  0
    1.6956   -4.1410   -0.5484 C   0  0  0  0  0  0  0  0  0  0  0  0
    2.2049   -4.1075    0.4202 H   0  0  0  0  0  0  0  0  0  0  0  0
    0.8030   -4.7638   -0.4364 H   0  0  0  0  0  0  0  0  0  0  0  0
    2.5957   -4.7162   -1.5797 N   0  3  0  0  0  0  0  0  0  0  0  0
    3.4286   -4.1498   -1.6805 H   0  0  0  0  0  0  0  0  0  0  0  0
    2.8773   -5.6543   -1.3232 H   0  0  0  0  0  0  0  0  0  0  0  0
    2.1258   -4.7576   -2.4765 H   0  0  0  0  0  0  0  0  0  0  0  0
   -1.3322    1.3778    0.5384 C   0  0  0  0  0  0  0  0  0  0  0  0
   -0.3847    2.1036    0.2611 O   0  0  0  0  0  0  0  0  0  0  0  0
   -2.5879    1.8243    0.6469 N   0  0  0  0  0  0  0  0  0  0  0  0
   -3.3100    1.1525    0.8477 H   0  0  0  0  0  0  0  0  0  0  0  0
   -2.9873    3.2130    0.4113 C   0  0  0  0  0  0  0  0  0  0  0  0
   -2.7729    3.4877   -0.6238 H   0  0  0  0  0  0  0  0  0  0  0  0
   -4.0543    3.3394    0.5979 H   0  0  0  0  0  0  0  0  0  0  0  0
   -2.4250    3.8805    1.0679 H   0  0  0  0  0  0  0  0  0  0  0  0
  5  6  2  0  0  0  0
  5  7  1  0  0  0  0
  2  3  1  0  0  0  0
  2  4  1  0  0  0  0
  2  5  1  0  0  0  0
  1  2  1  0  0  0  0
 27 28  2  0  0  0  0
 27 29  1  0  0  0  0
 23 24  1  0  0  0  0
 23 25  1  0  0  0  0
 23 26  1  0  0  0  0
 20 21  1  0  0  0  0
 20 22  1  0  0  0  0
 20 23  1  0  0  0  0
 17 18  1  0  0  0  0
 17 19  1  0  0  0  0
 17 20  1  0  0  0  0
 14 15  1  0  0  0  0
 14 16  1  0  0  0  0
 14 17  1  0  0  0  0
 11 12  1  0  0  0  0
 11 13  1  0  0  0  0
 11 14  1  0  0  0  0
  9 10  1  0  0  0  0
  9 11  1  0  0  0  0
  9 27  1  0  0  0  0
  7  8  1  0  0  0  0
  7  9  1  0  0  0  0
 31 32  1  0  0  0  0
 31 33  1  0  0  0  0
 31 34  1  0  0  0  0
 29 30  1  0  0  0  0
 29 31  1  0  0  0  0
M  CHG  1  23   1
M  END
$$$$
default_name
  -OEChem-01062215323D

 34 33  0     1  0  0  0  0  0999 V2000
   -3.8899   -3.6747    1.6490 H   0  0  0  0  0  0  0  0  0  0  0  0
   -3.9109   -2.6717    1.2250 C   0  0  0  0  0  0  0  0  0  0  0  0
   -4.6009   -2.0517    1.7950 H   0  0  0  0  0  0  0  0  0  0  0  0
   -4.2309   -2.7237    0.1860 H   0  0  0  0  0  0  0  0  0  0  0  0
   -2.5229   -2.0787    1.2980 C   0  0  0  0  0  0  0  0  0  0  0  0
   -1.5999   -2.7227    1.7810 O   0  0  0  0  0  0  0  0  0  0  0  0
   -2.3659   -0.8447    0.8120 N   0  0  0  0  0  0  0  0  0  0  0  0
   -3.1749   -0.3807    0.4220 H   0  0  0  0  0  0  0  0  0  0  0  0
   -1.0919   -0.1077    0.8170 C   0  0  1  0  0  0  0  0  0  0  0  0
   -0.6405   -0.2108    1.8055 H   0  0  0  0  0  0  0  0  0  0  0  0
   -0.1543   -0.7436   -0.2266 C   0  0  0  0  0  0  0  0  0  0  0  0
   -0.6824   -0.7999   -1.1797 H   0  0  0  0  0  0  0  0  0  0  0  0
    0.7206   -0.1042   -0.3596 H   0  0  0  0  0  0  0  0  0  0  0  0
    0.3064   -2.1588    0.1545 C   0  0  0  0  0  0  0  0  0  0  0  0
    0.8258   -2.1304    1.1133 H   0  0  0  0  0  0  0  0  0  0  0  0
   -0.5658   -2.8098    0.2407 H   0  0  0  0  0  0  0  0  0  0  0  0
    1.2544   -2.7185   -0.9151 C   0  0  0  0  0  0  0  0  0  0  0  0
    0.7363   -2.7317   -1.8770 H   0  0  0  0  0  0  0  0  0  0  0  0
    2.1289   -2.0693   -0.9908 H   0  0  0  0  0  0  0  0  0  0  0  0
    1.6956   -4.1410   -0.5484 C   0  0  0  0  0  0  0  0  0  0  0  0
    2.2049   -4.1075    0.4202 H   0  0  0  0  0  0  0  0  0  0  0  0
    0.8030   -4.7638   -0.4364 H   0  0  0  0  0  0  0  0  0  0  0  0
    2.5957   -4.7162   -1.5797 N   0  3  0  0  0  0  0  0  0  0  0  0
    3.4286   -4.1498   -1.6805 H   0  0  0  0  0  0  0  0  0  0  0  0
    2.8773   -5.6543   -1.3232 H   0  0  0  0  0  0  0  0  0  0  0  0
    2.1258   -4.7576   -2.4765 H   0  0  0  0  0  0  0  0  0  0  0  0
   -1.3322    1.3778    0.5384 C   0  0  0  0  0  0  0  0  0  0  0  0
   -0.4557    2.0430   -0.0008 O   0  0  0  0  0  0  0  0  0  0  0  0
   -2.5000    1.8928    0.9367 N   0  0  0  0  0  0  0  0  0  0  0  0
   -3.1757    1.2671    1.3430 H   0  0  0  0  0  0  0  0  0  0  0  0
   -2.8874    3.2915    0.7440 C   0  0  0  0  0  0  0  0  0  0  0  0
   -2.9297    3.5187   -0.3234 H   0  0  0  0  0  0  0  0  0  0  0  0
   -3.8666    3.4800    1.1856 H   0  0  0  0  0  0  0  0  0  0  0  0
   -2.1502    3.9511    1.2071 H   0  0  0  0  0  0  0  0  0  0  0  0
  5  6  2  0  0  0  0
  5  7  1  0  0  0  0
  2  3  1  0  0  0  0
  2  4  1  0  0  0  0
  2  5  1  0  0  0  0
  1  2  1  0  0  0  0
 27 28  2  0  0  0  0
 27 29  1  0  0  0  0
 23 24  1  0  0  0  0
 23 25  1  0  0  0  0
 23 26  1  0  0  0  0
 20 21  1  0  0  0  0
 20 22  1  0  0  0  0
 20 23  1  0  0  0  0
 17 18  1  0  0  0  0
 17 19  1  0  0  0  0
 17 20  1  0  0  0  0
 14 15  1  0  0  0  0
 14 16  1  0  0  0  0
 14 17  1  0  0  0  0
 11 12  1  0  0  0  0
 11 13  1  0  0  0  0
 11 14  1  0  0  0  0
  9 10  1  0  0  0  0
  9 11  1  0  0  0  0
  9 27  1  0  0  0  0
  7  8  1  0  0  0  0
  7  9  1  0  0  0  0
 31 32  1  0  0  0  0
 31 33  1  0  0  0  0
 31 34  1  0  0  0  0
 29 30  1  0  0  0  0
 29 31  1  0  0  0  0
M  CHG  1  23   1
M  END
$$$$
default_name
  -OEChem-01062215323D

 34 33  0     1  0  0  0  0  0999 V2000
   -3.8899   -3.6747    1.6490 H   0  0  0  0  0  0  0  0  0  0  0  0
   -3.9109   -2.6717    1.2250 C   0  0  0  0  0  0  0  0  0  0  0  0
   -4.6009   -2.0517    1.7950 H   0  0  0  0  0  0  0  0  0  0  0  0
   -4.2309   -2.7237    0.1860 H   0  0  0  0  0  0  0  0  0  0  0  0
   -2.5229   -2.0787    1.2980 C   0  0  0  0  0  0  0  0  0  0  0  0
   -1.5999   -2.7227    1.7810 O   0  0  0  0  0  0  0  0  0  0  0  0
   -2.3659   -0.8447    0.8120 N   0  0  0  0  0  0  0  0  0  0  0  0
   -3.1749   -0.3807    0.4220 H   0  0  0  0  0  0  0  0  0  0  0  0
   -1.0919   -0.1077    0.8170 C   0  0  1  0  0  0  0  0  0  0  0  0
   -0.6405   -0.2108    1.8055 H   0  0  0  0  0  0  0  0  0  0  0  0
   -0.1543   -0.7436   -0.2266 C   0  0  0  0  0  0  0  0  0  0  0  0
   -0.6824   -0.7999   -1.1797 H   0  0  0  0  0  0  0  0  0  0  0  0
    0.7206   -0.1042   -0.3596 H   0  0  0  0  0  0  0  0  0  0  0  0
    0.3064   -2.1588    0.1545 C   0  0  0  0  0  0  0  0  0  0  0  0
    0.8258   -2.1304    1.1133 H   0  0  0  0  0  0  0  0  0  0  0  0
   -0.5658   -2.8098    0.2407 H   0  0  0  0  0  0  0  0  0  0  0  0
    1.2544   -2.7185   -0.9151 C   0  0  0  0  0  0  0  0  0  0  0  0
    0.7363   -2.7317   -1.8770 H   0  0  0  0  0  0  0  0  0  0  0  0
    2.1289   -2.0693   -0.9908 H   0  0  0  0  0  0  0  0  0  0  0  0
    1.6956   -4.1410   -0.5484 C   0  0  0  0  0  0  0  0  0  0  0  0
    2.2049   -4.1075    0.4202 H   0  0  0  0  0  0  0  0  0  0  0  0
    0.8030   -4.7638   -0.4364 H   0  0  0  0  0  0  0  0  0  0  0  0
    2.5957   -4.7162   -1.5797 N   0  3  0  0  0  0  0  0  0  0  0  0
    3.4286   -4.1498   -1.6805 H   0  0  0  0  0  0  0  0  0  0  0  0
    2.8773   -5.6543   -1.3232 H   0  0  0  0  0  0  0  0  0  0  0  0
    2.1258   -4.7576   -2.4765 H   0  0  0  0  0  0  0  0  0  0  0  0
   -1.3322    1.3778    0.5384 C   0  0  0  0  0  0  0  0  0  0  0  0
   -0.5930    1.9772   -0.2334 O   0  0  0  0  0  0  0  0  0  0  0  0
   -2.3392    1.9667    1.1918 N   0  0  0  0  0  0  0  0  0  0  0  0
   -2.9162    1.3916    1.7830 H   0  0  0  0  0  0  0  0  0  0  0  0
   -2.7036    3.3762    1.0371 C   0  0  0  0  0  0  0  0  0  0  0  0
   -3.0042    3.5682    0.0049 H   0  0  0  0  0  0  0  0  0  0  0  0
   -3.5310    3.6308    1.7004 H   0  0  0  0  0  0  0  0  0  0  0  0
   -1.8465    4.0119    1.2697 H   0  0  0  0  0  0  0  0  0  0  0  0
  5  6  2  0  0  0  0
  5  7  1  0  0  0  0
  2  3  1  0  0  0  0
  2  4  1  0  0  0  0
  2  5  1  0  0  0  0
  1  2  1  0  0  0  0
 27 28  2  0  0  0  0
 27 29  1  0  0  0  0
 23 24  1  0  0  0  0
 23 25  1  0  0  0  0
 23 26  1  0  0  0  0
 20 21  1  0  0  0  0
 20 22  1  0  0  0  0
 20 23  1  0  0  0  0
 17 18  1  0  0  0  0
 17 19  1  0  0  0  0
 17 20  1  0  0  0  0
 14 15  1  0  0  0  0
 14 16  1  0  0  0  0
 14 17  1  0  0  0  0
 11 12  1  0  0  0  0
 11 13  1  0  0  0  0
 11 14  1  0  0  0  0
  9 10  1  0  0  0  0
  9 11  1  0  0  0  0
  9 27  1  0  0  0  0
  7  8  1  0  0  0  0
  7  9  1  0  0  0  0
 31 32  1  0  0  0  0
 31 33  1  0  0  0  0
 31 34  1  0  0  0  0
 29 30  1  0  0  0  0
 29 31  1  0  0  0  0
M  CHG  1  23   1
M  END
$$$$
default_name
  -OEChem-01062215323D

 34 33  0     1  0  0  0  0  0999 V2000
   -3.8899   -3.6747    1.6490 H   0  0  0  0  0  0  0  0  0  0  0  0
   -3.9109   -2.6717    1.2250 C   0  0  0  0  0  0  0  0  0  0  0  0
   -4.6009   -2.0517    1.7950 H   0  0  0  0  0  0  0  0  0  0  0  0
   -4.2309   -2.7237    0.1860 H   0  0  0  0  0  0  0  0  0  0  0  0
   -2.5229   -2.0787    1.2980 C   0  0  0  0  0  0  0  0  0  0  0  0
   -1.5999   -2.7227    1.7810 O   0  0  0  0  0  0  0  0  0  0  0  0
   -2.3659   -0.8447    0.8120 N   0  0  0  0  0  0  0  0  0  0  0  0
   -3.1749   -0.3807    0.4220 H   0  0  0  0  0  0  0  0  0  0  0  0
   -1.0919   -0.1077    0.8170 C   0  0  1  0  0  0  0  0  0  0  0  0
   -0.6405   -0.2108    1.8055 H   0  0  0  0  0  0  0  0  0  0  0  0
   -0.1543   -0.7436   -0.2266 C   0  0  0  0  0  0  0  0  0  0  0  0
   -0.6824   -0.7999   -1.1797 H   0  0  0  0  0  0  0  0  0  0  0  0
    0.7206   -0.1042   -0.3596 H   0  0  0  0  0  0  0  0  0  0  0  0
    0.3064   -2.1588    0.1545 C   0  0  0  0  0  0  0  0  0  0  0  0
    0.8258   -2.1304    1.1133 H   0  0  0  0  0  0  0  0  0  0  0  0
   -0.5658   -2.8098    0.2407 H   0  0  0  0  0  0  0  0  0  0  0  0
    1.2544   -2.7185   -0.9151 C   0  0  0  0  0  0  0  0  0  0  0  0
    0.7363   -2.7317   -1.8770 H   0  0  0  0  0  0  0  0  0  0  0  0
    2.1289   -2.0693   -0.9908 H   0  0  0  0  0  0  0  0  0  0  0  0
    1.6956   -4.1410   -0.5484 C   0  0  0  0  0  0  0  0  0  0  0  0
    2.2049   -4.1075    0.4202 H   0  0  0  0  0  0  0  0  0  0  0  0
    0.8030   -4.7638   -0.4364 H   0  0  0  0  0  0  0  0  0  0  0  0
    2.5957   -4.7162   -1.5797 N   0  3  0  0  0  0  0  0  0  0  0  0
    3.4286   -4.1498   -1.6805 H   0  0  0  0  0  0  0  0  0  0  0  0
    2.8773   -5.6543   -1.3232 H   0  0  0  0  0  0  0  0  0  0  0  0
    2.1258   -4.7576   -2.4765 H   0  0  0  0  0  0  0  0  0  0  0  0
   -1.3322    1.3778    0.5384 C   0  0  0  0  0  0  0  0  0  0  0  0
   -0.7871    1.9107   -0.4210 O   0  0  0  0  0  0  0  0  0  0  0  0
   -2.1162    2.0408    1.3948 N   0  0  0  0  0  0  0  0  0  0  0  0
   -2.5491    1.5175    2.1377 H   0  0  0  0  0  0  0  0  0  0  0  0
   -2.4485    3.4613    1.2706 C   0  0  0  0  0  0  0  0  0  0  0  0
   -2.9914    3.6328    0.3387 H   0  0  0  0  0  0  0  0  0  0  0  0
   -3.0704    3.7816    2.1073 H   0  0  0  0  0  0  0  0  0  0  0  0
   -1.5346    4.0590    1.2514 H   0  0  0  0  0  0  0  0  0  0  0  0
  5  6  2  0  0  0  0
  5  7  1  0  0  0  0
  2  3  1  0  0  0  0
  2  4  1  0  0  0  0
  2  5  1  0  0  0  0
  1  2  1  0  0  0  0
 27 28  2  0  0  0  0
 27 29  1  0  0  0  0
 23 24  1  0  0  0  0
 23 25  1  0  0  0  0
 23 26  1  0  0  0  0
 20 21  1  0  0  0  0
 20 22  1  0  0  0  0
 20 23  1  0  0  0  0
 17 18  1  0  0  0  0
 17 19  1  0  0  0  0
 17 20  1  0  0  0  0
 14 15  1  0  0  0  0
 14 16  1  0  0  0  0
 14 17  1  0  0  0  0
 11 12  1  0  0  0  0
 11 13  1  0  0  0  0
 11 14  1  0  0  0  0
  9 10  1  0  0  0  0
  9 11  1  0  0  0  0
  9 27  1  0  0  0  0
  7  8  1  0  0  0  0
  7  9  1  0  0  0  0
 31 32  1  0  0  0  0
 31 33  1  0  0  0  0
 31 34  1  0  0  0  0
 29 30  1  0  0  0  0
 29 31  1  0  0  0  0
M  CHG  1  23   1
M  END
$$$$
default_name
  -OEChem-01062215323D

 34 33  0     1  0  0  0  0  0999 V2000
   -3.8899   -3.6747    1.6490 H   0  0  0  0  0  0  0  0  0  0  0  0
   -3.9109   -2.6717    1.2250 C   0  0  0  0  0  0  0  0  0  0  0  0
   -4.6009   -2.0517    1.7950 H   0  0  0  0  0  0  0  0  0  0  0  0
   -4.2309   -2.7237    0.1860 H   0  0  0  0  0  0  0  0  0  0  0  0
   -2.5229   -2.0787    1.2980 C   0  0  0  0  0  0  0  0  0  0  0  0
   -1.5999   -2.7227    1.7810 O   0  0  0  0  0  0  0  0  0  0  0  0
   -2.3659   -0.8447    0.8120 N   0  0  0  0  0  0  0  0  0  0  0  0
   -3.1749   -0.3807    0.4220 H   0  0  0  0  0  0  0  0  0  0  0  0
   -1.0919   -0.1077    0.8170 C   0  0  1  0  0  0  0  0  0  0  0  0
   -0.6405   -0.2108    1.8055 H   0  0  0  0  0  0  0  0  0  0  0  0
   -0.1543   -0.7436   -0.2266 C   0  0  0  0  0  0  0  0  0  0  0  0
   -0.6824   -0.7999   -1.1797 H   0  0  0  0  0  0  0  0  0  0  0  0
    0.7206   -0.1042   -0.3596 H   0  0  0  0  0  0  0  0  0  0  0  0
    0.3064   -2.1588    0.1545 C   0  0  0  0  0  0  0  0  0  0  0  0
    0.8258   -2.1304    1.1133 H   0  0  0  0  0  0  0  0  0  0  0  0
   -0.5658   -2.8098    0.2407 H   0  0  0  0  0  0  0  0  0  0  0  0
    1.2544   -2.7185   -0.9151 C   0  0  0  0  0  0  0  0  0  0  0  0
    0.7363   -2.7317   -1.8770 H   0  0  0  0  0  0  0  0  0  0  0  0
    2.1289   -2.0693   -0.9908 H   0  0  0  0  0  0  0  0  0  0  0  0
    1.6956   -4.1410   -0.5484 C   0  0  0  0  0  0  0  0  0  0  0  0
    2.2049   -4.1075    0.4202 H   0  0  0  0  0  0  0  0  0  0  0  0
    0.8030   -4.7638   -0.4364 H   0  0  0  0  0  0  0  0  0  0  0  0
    2.5957   -4.7162   -1.5797 N   0  3  0  0  0  0  0  0  0  0  0  0
    3.4286   -4.1498   -1.6805 H   0  0  0  0  0  0  0  0  0  0  0  0
    2.8773   -5.6543   -1.3232 H   0  0  0  0  0  0  0  0  0  0  0  0
    2.1258   -4.7576   -2.4765 H   0  0  0  0  0  0  0  0  0  0  0  0
   -1.3322    1.3778    0.5384 C   0  0  0  0  0  0  0  0  0  0  0  0
   -1.0248    1.8479   -0.5507 O   0  0  0  0  0  0  0  0  0  0  0  0
   -1.8464    2.1102    1.5319 N   0  0  0  0  0  0  0  0  0  0  0  0
   -2.0994    1.6363    2.3830 H   0  0  0  0  0  0  0  0  0  0  0  0
   -2.1394    3.5409    1.4286 C   0  0  0  0  0  0  0  0  0  0  0  0
   -2.8921    3.7083    0.6552 H   0  0  0  0  0  0  0  0  0  0  0  0
   -2.5162    3.9221    2.3784 H   0  0  0  0  0  0  0  0  0  0  0  0
   -1.2356    4.0890    1.1535 H   0  0  0  0  0  0  0  0  0  0  0  0
  5  6  2  0  0  0  0
  5  7  1  0  0  0  0
  2  3  1  0  0  0  0
  2  4  1  0  0  0  0
  2  5  1  0  0  0  0
  1  2  1  0  0  0  0
 27 28  2  0  0  0  0
 27 29  1  0  0  0  0
 23 24  1  0  0  0  0
 23 25  1  0  0  0  0
 23 26  1  0  0  0  0
 20 21  1  0  0  0  0
 20 22  1  0  0  0  0
 20 23  1  0  0  0  0
 17 18  1  0  0  0  0
 17 19  1  0  0  0  0
 17 20  1  0  0  0  0
 14 15  1  0  0  0  0
 14 16  1  0  0  0  0
 14 17  1  0  0  0  0
 11 12  1  0  0  0  0
 11 13  1  0  0  0  0
 11 14  1  0  0  0  0
  9 10  1  0  0  0  0
  9 11  1  0  0  0  0
  9 27  1  0  0  0  0
  7  8  1  0  0  0  0
  7  9  1  0  0  0  0
 31 32  1  0  0  0  0
 31 33  1  0  0  0  0
 31 34  1  0  0  0  0
 29 30  1  0  0  0  0
 29 31  1  0  0  0  0
M  CHG  1  23   1
M  END
$$$$
default_name
  -OEChem-01062215323D

 34 33  0     1  0  0  0  0  0999 V2000
   -3.8899   -3.6747    1.6490 H   0  0  0  0  0  0  0  0  0  0  0  0
   -3.9109   -2.6717    1.2250 C   0  0  0  0  0  0  0  0  0  0  0  0
   -4.6009   -2.0517    1.7950 H   0  0  0  0  0  0  0  0  0  0  0  0
   -4.2309   -2.7237    0.1860 H   0  0  0  0  0  0  0  0  0  0  0  0
   -2.5229   -2.0787    1.2980 C   0  0  0  0  0  0  0  0  0  0  0  0
   -1.5999   -2.7227    1.7810 O   0  0  0  0  0  0  0  0  0  0  0  0
   -2.3659   -0.8447    0.8120 N   0  0  0  0  0  0  0  0  0  0  0  0
   -3.1749   -0.3807    0.4220 H   0  0  0  0  0  0  0  0  0  0  0  0
   -1.0919   -0.1077    0.8170 C   0  0  1  0  0  0  0  0  0  0  0  0
   -0.6405   -0.2108    1.8055 H   0  0  0  0  0  0  0  0  0  0  0  0
   -0.1543   -0.7436   -0.2266 C   0  0  0  0  0  0  0  0  0  0  0  0
   -0.6824   -0.7999   -1.1797 H   0  0  0  0  0  0  0  0  0  0  0  0
    0.7206   -0.1042   -0.3596 H   0  0  0  0  0  0  0  0  0  0  0  0
    0.3064   -2.1588    0.1545 C   0  0  0  0  0  0  0  0  0  0  0  0
    0.8258   -2.1304    1.1133 H   0  0  0  0  0  0  0  0  0  0  0  0
   -0.5658   -2.8098    0.2407 H   0  0  0  0  0  0  0  0  0  0  0  0
    1.2544   -2.7185   -0.9151 C   0  0  0  0  0  0  0  0  0  0  0  0
    0.7363   -2.7317   -1.8770 H   0  0  0  0  0  0  0  0  0  0  0  0
    2.1289   -2.0693   -0.9908 H   0  0  0  0  0  0  0  0  0  0  0  0
    1.6956   -4.1410   -0.5484 C   0  0  0  0  0  0  0  0  0  0  0  0
    2.2049   -4.1075    0.4202 H   0  0  0  0  0  0  0  0  0  0  0  0
    0.8030   -4.7638   -0.4364 H   0  0  0  0  0  0  0  0  0  0  0  0
    2.5957   -4.7162   -1.5797 N   0  3  0  0  0  0  0  0  0  0  0  0
    3.4286   -4.1498   -1.6805 H   0  0  0  0  0  0  0  0  0  0  0  0
    2.8773   -5.6543   -1.3232 H   0  0  0  0  0  0  0  0  0  0  0  0
    2.1258   -4.7576   -2.4765 H   0  0  0  0  0  0  0  0  0  0  0  0
   -1.3322    1.3778    0.5384 C   0  0  0  0  0  0  0  0  0  0  0  0
   -1.2900    1.7932   -0.6137 O   0  0  0  0  0  0  0  0  0  0  0  0
   -1.5480    2.1700    1.5936 N   0  0  0  0  0  0  0  0  0  0  0  0
   -1.5979    1.7398    2.5022 H   0  0  0  0  0  0  0  0  0  0  0  0
   -1.7974    3.6097    1.5004 C   0  0  0  0  0  0  0  0  0  0  0  0
   -2.7131    3.7893    0.9330 H   0  0  0  0  0  0  0  0  0  0  0  0
   -1.9062    4.0427    2.4954 H   0  0  0  0  0  0  0  0  0  0  0  0
   -0.9701    4.0999    0.9825 H   0  0  0  0  0  0  0  0  0  0  0  0
  5  6  2  0  0  0  0
  5  7  1  0  0  0  0
  2  3  1  0  0  0  0
  2  4  1  0  0  0  0
  2  5  1  0  0  0  0
  1  2  1  0  0  0  0
 27 28  2  0  0  0  0
 27 29  1  0  0  0  0
 23 24  1  0  0  0  0
 23 25  1  0  0  0  0
 23 26  1  0  0  0  0
 20 21  1  0  0  0  0
 20 22  1  0  0  0  0
 20 23  1  0  0  0  0
 17 18  1  0  0  0  0
 17 19  1  0  0  0  0
 17 20  1  0  0  0  0
 14 15  1  0  0  0  0
 14 16  1  0  0  0  0
 14 17  1  0  0  0  0
 11 12  1  0  0  0  0
 11 13  1  0  0  0  0
 11 14  1  0  0  0  0
  9 10  1  0  0  0  0
  9 11  1  0  0  0  0
  9 27  1  0  0  0  0
  7  8  1  0  0  0  0
  7  9  1  0  0  0  0
 31 32  1  0  0  0  0
 31 33  1  0  0  0  0
 31 34  1  0  0  0  0
 29 30  1  0  0  0  0
 29 31  1  0  0  0  0
M  CHG  1  23   1
M  END
$$$$
default_name
  -OEChem-01062215323D

 34 33  0     1  0  0  0  0  0999 V2000
   -3.8899   -3.6747    1.6490 H   0  0  0  0  0  0  0  0  0  0  0  0
   -3.9109   -2.6717    1.2250 C   0  0  0  0  0  0  0  0  0  0  0  0
   -4.6009   -2.0517    1.7950 H   0  0  0  0  0  0  0  0  0  0  0  0
   -4.2309   -2.7237    0.1860 H   0  0  0  0  0  0  0  0  0  0  0  0
   -2.5229   -2.0787    1.2980 C   0  0  0  0  0  0  0  0  0  0  0  0
   -1.5999   -2.7227    1.7810 O   0  0  0  0  0  0  0  0  0  0  0  0
   -2.3659   -0.8447    0.8120 N   0  0  0  0  0  0  0  0  0  0  0  0
   -3.1749   -0.3807    0.4220 H   0  0  0  0  0  0  0  0  0  0  0  0
   -1.0919   -0.1077    0.8170 C   0  0  1  0  0  0  0  0  0  0  0  0
   -0.6405   -0.2108    1.8055 H   0  0  0  0  0  0  0  0  0  0  0  0
   -0.1543   -0.7436   -0.2266 C   0  0  0  0  0  0  0  0  0  0  0  0
   -0.6824   -0.7999   -1.1797 H   0  0  0  0  0  0  0  0  0  0  0  0
    0.7206   -0.1042   -0.3596 H   0  0  0  0  0  0  0  0  0  0  0  0
    0.3064   -2.1588    0.1545 C   0  0  0  0  0  0  0  0  0  0  0  0
    0.8258   -2.1304    1.1133 H   0  0  0  0  0  0  0  0  0  0  0  0
   -0.5658   -2.8098    0.2407 H   0  0  0  0  0  0  0  0  0  0  0  0
    1.2544   -2.7185   -0.9151 C   0  0  0  0  0  0  0  0  0  0  0  0
    0.7363   -2.7317   -1.8770 H   0  0  0  0  0  0  0  0  0  0  0  0
    2.1289   -2.0693   -0.9908 H   0  0  0  0  0  0  0  0  0  0  0  0
    1.6956   -4.1410   -0.5484 C   0  0  0  0  0  0  0  0  0  0  0  0
    2.2049   -4.1075    0.4202 H   0  0  0  0  0  0  0  0  0  0  0  0
    0.8030   -4.7638   -0.4364 H   0  0  0  0  0  0  0  0  0  0  0  0
    2.5957   -4.7162   -1.5797 N   0  3  0  0  0  0  0  0  0  0  0  0
    3.4286   -4.1498   -1.6805 H   0  0  0  0  0  0  0  0  0  0  0  0
    2.8773   -5.6543   -1.3232 H   0  0  0  0  0  0  0  0  0  0  0  0
    2.1258   -4.7576   -2.4765 H   0  0  0  0  0  0  0  0  0  0  0  0
   -1.3322    1.3778    0.5384 C   0  0  0  0  0  0  0  0  0  0  0  0
   -1.5645    1.7503   -0.6057 O   0  0  0  0  0  0  0  0  0  0  0  0
   -1.2415    2.2163    1.5759 N   0  0  0  0  0  0  0  0  0  0  0  0
   -1.0786    1.8209    2.4871 H   0  0  0  0  0  0  0  0  0  0  0  0
   -1.4457    3.6629    1.4809 C   0  0  0  0  0  0  0  0  0  0  0  0
   -2.4666    3.8704    1.1530 H   0  0  0  0  0  0  0  0  0  0  0  0
   -1.2818    4.1352    2.4502 H   0  0  0  0  0  0  0  0  0  0  0  0
   -0.7560    4.0909    0.7502 H   0  0  0  0  0  0  0  0  0  0  0  0
  5  6  2  0  0  0  0
  5  7  1  0  0  0  0
  2  3  1  0  0  0  0
  2  4  1  0  0  0  0
  2  5  1  0  0  0  0
  1  2  1  0  0  0  0
 27 28  2  0  0  0  0
 27 29  1  0  0  0  0
 23 24  1  0  0  0  0
 23 25  1  0  0  0  0
 23 26  1  0  0  0  0
 20 21  1  0  0  0  0
 20 22  1  0  0  0  0
 20 23  1  0  0  0  0
 17 18  1  0  0  0  0
 17 19  1  0  0  0  0
 17 20  1  0  0  0  0
 14 15  1  0  0  0  0
 14 16  1  0  0  0  0
 14 17  1  0  0  0  0
 11 12  1  0  0  0  0
 11 13  1  0  0  0  0
 11 14  1  0  0  0  0
  9 10  1  0  0  0  0
  9 11  1  0  0  0  0
  9 27  1  0  0  0  0
  7  8  1  0  0  0  0
  7  9  1  0  0  0  0
 31 32  1  0  0  0  0
 31 33  1  0  0  0  0
 31 34  1  0  0  0  0
 29 30  1  0  0  0  0
 29 31  1  0  0  0  0
M  CHG  1  23   1
M  END
$$$$
default_name
  -OEChem-01062215323D

 34 33  0     1  0  0  0  0  0999 V2000
   -3.8899   -3.6747    1.6490 H   0  0  0  0  0  0  0  0  0  0  0  0
   -3.9109   -2.6717    1.2250 C   0  0  0  0  0  0  0  0  0  0  0  0
   -4.6009   -2.0517    1.7950 H   0  0  0  0  0  0  0  0  0  0  0  0
   -4.2309   -2.7237    0.1860 H   0  0  0  0  0  0  0  0  0  0  0  0
   -2.5229   -2.0787    1.2980 C   0  0  0  0  0  0  0  0  0  0  0  0
   -1.5999   -2.7227    1.7810 O   0  0  0  0  0  0  0  0  0  0  0  0
   -2.3659   -0.8447    0.8120 N   0  0  0  0  0  0  0  0  0  0  0  0
   -3.1749   -0.3807    0.4220 H   0  0  0  0  0  0  0  0  0  0  0  0
   -1.0919   -0.1077    0.8170 C   0  0  1  0  0  0  0  0  0  0  0  0
   -0.6405   -0.2108    1.8055 H   0  0  0  0  0  0  0  0  0  0  0  0
   -0.1543   -0.7436   -0.2266 C   0  0  0  0  0  0  0  0  0  0  0  0
   -0.6824   -0.7999   -1.1797 H   0  0  0  0  0  0  0  0  0  0  0  0
    0.7206   -0.1042   -0.3596 H   0  0  0  0  0  0  0  0  0  0  0  0
    0.3064   -2.1588    0.1545 C   0  0  0  0  0  0  0  0  0  0  0  0
    0.8258   -2.1304    1.1133 H   0  0  0  0  0  0  0  0  0  0  0  0
   -0.5658   -2.8098    0.2407 H   0  0  0  0  0  0  0  0  0  0  0  0
    1.2544   -2.7185   -0.9151 C   0  0  0  0  0  0  0  0  0  0  0  0
    0.7363   -2.7317   -1.8770 H   0  0  0  0  0  0  0  0  0  0  0  0
    2.1289   -2.0693   -0.9908 H   0  0  0  0  0  0  0  0  0  0  0  0
    1.6956   -4.1410   -0.5484 C   0  0  0  0  0  0  0  0  0  0  0  0
    2.2049   -4.1075    0.4202 H   0  0  0  0  0  0  0  0  0  0  0  0
    0.8030   -4.7638   -0.4364 H   0  0  0  0  0  0  0  0  0  0  0  0
    2.5957   -4.7162   -1.5797 N   0  3  0  0  0  0  0  0  0  0  0  0
    3.4286   -4.1498   -1.6805 H   0  0  0  0  0  0  0  0  0  0  0  0
    2.8773   -5.6543   -1.3232 H   0  0  0  0  0  0  0  0  0  0  0  0
    2.1258   -4.7576   -2.4765 H   0  0  0  0  0  0  0  0  0  0  0  0
   -1.3322    1.3778    0.5384 C   0  0  0  0  0  0  0  0  0  0  0  0
   -1.8297    1.7221   -0.5272 O   0  0  0  0  0  0  0  0  0  0  0  0
   -0.9477    2.2458    1.4799 N   0  0  0  0  0  0  0  0  0  0  0  0
   -0.5770    1.8742    2.3387 H   0  0  0  0  0  0  0  0  0  0  0  0
   -1.1085    3.6970    1.3717 C   0  0  0  0  0  0  0  0  0  0  0  0
   -2.1694    3.9461    1.3004 H   0  0  0  0  0  0  0  0  0  0  0  0
   -0.6858    4.1934    2.2459 H   0  0  0  0  0  0  0  0  0  0  0  0
   -0.6080    4.0628    0.4724 H   0  0  0  0  0  0  0  0  0  0  0  0
  5  6  2  0  0  0  0
  5  7  1  0  0  0  0
  2  3  1  0  0  0  0
  2  4  1  0  0  0  0
  2  5  1  0  0  0  0
  1  2  1  0  0  0  0
 27 28  2  0  0  0  0
 27 29  1  0  0  0  0
 23 24  1  0  0  0  0
 23 25  1  0  0  0  0
 23 26  1  0  0  0  0
 20 21  1  0  0  0  0
 20 22  1  0  0  0  0
 20 23  1  0  0  0  0
 17 18  1  0  0  0  0
 17 19  1  0  0  0  0
 17 20  1  0  0  0  0
 14 15  1  0  0  0  0
 14 16  1  0  0  0  0
 14 17  1  0  0  0  0
 11 12  1  0  0  0  0
 11 13  1  0  0  0  0
 11 14  1  0  0  0  0
  9 10  1  0  0  0  0
  9 11  1  0  0  0  0
  9 27  1  0  0  0  0
  7  8  1  0  0  0  0
  7  9  1  0  0  0  0
 31 32  1  0  0  0  0
 31 33  1  0  0  0  0
 31 34  1  0  0  0  0
 29 30  1  0  0  0  0
 29 31  1  0  0  0  0
M  CHG  1  23   1
M  END
$$$$
default_name
  -OEChem-01062215323D

 34 33  0     1  0  0  0  0  0999 V2000
   -3.8899   -3.6747    1.6490 H   0  0  0  0  0  0  0  0  0  0  0  0
   -3.9109   -2.6717    1.2250 C   0  0  0  0  0  0  0  0  0  0  0  0
   -4.6009   -2.0517    1.7950 H   0  0  0  0  0  0  0  0  0  0  0  0
   -4.2309   -2.7237    0.1860 H   0  0  0  0  0  0  0  0  0  0  0  0
   -2.5229   -2.0787    1.2980 C   0  0  0  0  0  0  0  0  0  0  0  0
   -1.5999   -2.7227    1.7810 O   0  0  0  0  0  0  0  0  0  0  0  0
   -2.3659   -0.8447    0.8120 N   0  0  0  0  0  0  0  0  0  0  0  0
   -3.1749   -0.3807    0.4220 H   0  0  0  0  0  0  0  0  0  0  0  0
   -1.0919   -0.1077    0.8170 C   0  0  1  0  0  0  0  0  0  0  0  0
   -0.6405   -0.2108    1.8055 H   0  0  0  0  0  0  0  0  0  0  0  0
   -0.1543   -0.7436   -0.2266 C   0  0  0  0  0  0  0  0  0  0  0  0
   -0.6824   -0.7999   -1.1797 H   0  0  0  0  0  0  0  0  0  0  0  0
    0.7206   -0.1042   -0.3596 H   0  0  0  0  0  0  0  0  0  0  0  0
    0.3064   -2.1588    0.1545 C   0  0  0  0  0  0  0  0  0  0  0  0
    0.8258   -2.1304    1.1133 H   0  0  0  0  0  0  0  0  0  0  0  0
   -0.5658   -2.8098    0.2407 H   0  0  0  0  0  0  0  0  0  0  0  0
    1.2544   -2.7185   -0.9151 C   0  0  0  0  0  0  0  0  0  0  0  0
    0.7363   -2.7317   -1.8770 H   0  0  0  0  0  0  0  0  0  0  0  0
    2.1289   -2.0693   -0.9908 H   0  0  0  0  0  0  0  0  0  0  0  0
    1.6956   -4.1410   -0.5484 C   0  0  0  0  0  0  0  0  0  0  0  0
    2.2049   -4.1075    0.4202 H   0  0  0  0  0  0  0  0  0  0  0  0
    0.8030   -4.7638   -0.4364 H   0  0  0  0  0  0  0  0  0  0  0  0
    2.5957   -4.7162   -1.5797 N   0  3  0  0  0  0  0  0  0  0  0  0
    3.4286   -4.1498   -1.6805 H   0  0  0  0  0  0  0  0  0  0  0  0
    2.8773   -5.6543   -1.3232 H   0  0  0  0  0  0  0  0  0  0  0  0
    2.1258   -4.7576   -2.4765 H   0  0  0  0  0  0  0  0  0  0  0  0
   -1.3322    1.3778    0.5384 C   0  0  0  0  0  0  0  0  0  0  0  0
   -2.0675    1.7105   -0.3837 O   0  0  0  0  0  0  0  0  0  0  0  0
   -0.6867    2.2566    1.3121 N   0  0  0  0  0  0  0  0  0  0  0  0
   -0.1272    1.8961    2.0672 H   0  0  0  0  0  0  0  0  0  0  0  0
   -0.8085    3.7096    1.1800 C   0  0  0  0  0  0  0  0  0  0  0  0
   -1.8417    4.0112    1.3649 H   0  0  0  0  0  0  0  0  0  0  0  0
   -0.1586    4.2131    1.8965 H   0  0  0  0  0  0  0  0  0  0  0  0
   -0.5361    4.0173    0.1681 H   0  0  0  0  0  0  0  0  0  0  0  0
  5  6  2  0  0  0  0
  5  7  1  0  0  0  0
  2  3  1  0  0  0  0
  2  4  1  0  0  0  0
  2  5  1  0  0  0  0
  1  2  1  0  0  0  0
 27 28  2  0  0  0  0
 27 29  1  0  0  0  0
 23 24  1  0  0  0  0
 23 25  1  0  0  0  0
 23 26  1  0  0  0  0
 20 21  1  0  0  0  0
 20 22  1  0  0  0  0
 20 23  1  0  0  0  0
 17 18  1  0  0  0  0
 17 19  1  0  0  0  0
 17 20  1  0  0  0  0
 14 15  1  0  0  0  0
 14 16  1  0  0  0  0
 14 17  1  0  0  0  0
 11 12  1  0  0  0  0
 11 13  1  0  0  0  0
 11 14  1  0  0  0  0
  9 10  1  0  0  0  0
  9 11  1  0  0  0  0
  9 27  1  0  0  0  0
  7  8  1  0  0  0  0
  7  9  1  0  0  0  0
 31 32  1  0  0  0  0
 31 33  1  0  0  0  0
 31 34  1  0  0  0  0
 29 30  1  0  0  0  0
 29 31  1  0  0  0  0
M  CHG  1  23   1
M  END
$$$$
default_name
  -OEChem-01062215323D

 34 33  0     1  0  0  0  0  0999 V2000
   -3.8899   -3.6747    1.6490 H   0  0  0  0  0  0  0  0  0  0  0  0
   -3.9109   -2.6717    1.2250 C   0  0  0  0  0  0  0  0  0  0  0  0
   -4.6009   -2.0517    1.7950 H   0  0  0  0  0  0  0  0  0  0  0  0
   -4.2309   -2.7237    0.1860 H   0  0  0  0  0  0  0  0  0  0  0  0
   -2.5229   -2.0787    1.2980 C   0  0  0  0  0  0  0  0  0  0  0  0
   -1.5999   -2.7227    1.7810 O   0  0  0  0  0  0  0  0  0  0  0  0
   -2.3659   -0.8447    0.8120 N   0  0  0  0  0  0  0  0  0  0  0  0
   -3.1749   -0.3807    0.4220 H   0  0  0  0  0  0  0  0  0  0  0  0
   -1.0919   -0.1077    0.8170 C   0  0  1  0  0  0  0  0  0  0  0  0
   -0.6405   -0.2108    1.8055 H   0  0  0  0  0  0  0  0  0  0  0  0
   -0.1543   -0.7436   -0.2266 C   0  0  0  0  0  0  0  0  0  0  0  0
   -0.6824   -0.7999   -1.1797 H   0  0  0  0  0  0  0  0  0  0  0  0
    0.7206   -0.1042   -0.3596 H   0  0  0  0  0  0  0  0  0  0  0  0
    0.3064   -2.1588    0.1545 C   0  0  0  0  0  0  0  0  0  0  0  0
    0.8258   -2.1304    1.1133 H   0  0  0  0  0  0  0  0  0  0  0  0
   -0.5658   -2.8098    0.2407 H   0  0  0  0  0  0  0  0  0  0  0  0
    1.2544   -2.7185   -0.9151 C   0  0  0  0  0  0  0  0  0  0  0  0
    0.7363   -2.7317   -1.8770 H   0  0  0  0  0  0  0  0  0  0  0  0
    2.1289   -2.0693   -0.9908 H   0  0  0  0  0  0  0  0  0  0  0  0
    1.6956   -4.1410   -0.5484 C   0  0  0  0  0  0  0  0  0  0  0  0
    2.2049   -4.1075    0.4202 H   0  0  0  0  0  0  0  0  0  0  0  0
    0.8030   -4.7638   -0.4364 H   0  0  0  0  0  0  0  0  0  0  0  0
    2.5957   -4.7162   -1.5797 N   0  3  0  0  0  0  0  0  0  0  0  0
    3.4286   -4.1498   -1.6805 H   0  0  0  0  0  0  0  0  0  0  0  0
    2.8773   -5.6543   -1.3232 H   0  0  0  0  0  0  0  0  0  0  0  0
    2.1258   -4.7576   -2.4765 H   0  0  0  0  0  0  0  0  0  0  0  0
   -1.3322    1.3778    0.5384 C   0  0  0  0  0  0  0  0  0  0  0  0
   -2.2617    1.7164   -0.1848 O   0  0  0  0  0  0  0  0  0  0  0  0
   -0.4762    2.2479    1.0841 N   0  0  0  0  0  0  0  0  0  0  0  0
    0.2400    1.8850    1.6911 H   0  0  0  0  0  0  0  0  0  0  0  0
   -0.5664    3.6998    0.9190 C   0  0  0  0  0  0  0  0  0  0  0  0
   -1.5060    4.0613    1.3423 H   0  0  0  0  0  0  0  0  0  0  0  0
    0.2638    4.1932    1.4258 H   0  0  0  0  0  0  0  0  0  0  0  0
   -0.5453    3.9577   -0.1421 H   0  0  0  0  0  0  0  0  0  0  0  0
  5  6  2  0  0  0  0
  5  7  1  0  0  0  0
  2  3  1  0  0  0  0
  2  4  1  0  0  0  0
  2  5  1  0  0  0  0
  1  2  1  0  0  0  0
 27 28  2  0  0  0  0
 27 29  1  0  0  0  0
 23 24  1  0  0  0  0
 23 25  1  0  0  0  0
 23 26  1  0  0  0  0
 20 21  1  0  0  0  0
 20 22  1  0  0  0  0
 20 23  1  0  0  0  0
 17 18  1  0  0  0  0
 17 19  1  0  0  0  0
 17 20  1  0  0  0  0
 14 15  1  0  0  0  0
 14 16  1  0  0  0  0
 14 17  1  0  0  0  0
 11 12  1  0  0  0  0
 11 13  1  0  0  0  0
 11 14  1  0  0  0  0
  9 10  1  0  0  0  0
  9 11  1  0  0  0  0
  9 27  1  0  0  0  0
  7  8  1  0  0  0  0
  7  9  1  0  0  0  0
 31 32  1  0  0  0  0
 31 33  1  0  0  0  0
 31 34  1  0  0  0  0
 29 30  1  0  0  0  0
 29 31  1  0  0  0  0
M  CHG  1  23   1
M  END
$$$$
default_name
  -OEChem-01062215323D

 34 33  0     1  0  0  0  0  0999 V2000
   -3.8899   -3.6747    1.6490 H   0  0  0  0  0  0  0  0  0  0  0  0
   -3.9109   -2.6717    1.2250 C   0  0  0  0  0  0  0  0  0  0  0  0
   -4.6009   -2.0517    1.7950 H   0  0  0  0  0  0  0  0  0  0  0  0
   -4.2309   -2.7237    0.1860 H   0  0  0  0  0  0  0  0  0  0  0  0
   -2.5229   -2.0787    1.2980 C   0  0  0  0  0  0  0  0  0  0  0  0
   -1.5999   -2.7227    1.7810 O   0  0  0  0  0  0  0  0  0  0  0  0
   -2.3659   -0.8447    0.8120 N   0  0  0  0  0  0  0  0  0  0  0  0
   -3.1749   -0.3807    0.4220 H   0  0  0  0  0  0  0  0  0  0  0  0
   -1.0919   -0.1077    0.8170 C   0  0  1  0  0  0  0  0  0  0  0  0
   -0.6405   -0.2108    1.8055 H   0  0  0  0  0  0  0  0  0  0  0  0
   -0.1543   -0.7436   -0.2266 C   0  0  0  0  0  0  0  0  0  0  0  0
   -0.6824   -0.7999   -1.1797 H   0  0  0  0  0  0  0  0  0  0  0  0
    0.7206   -0.1042   -0.3596 H   0  0  0  0  0  0  0  0  0  0  0  0
    0.3064   -2.1588    0.1545 C   0  0  0  0  0  0  0  0  0  0  0  0
    0.8258   -2.1304    1.1133 H   0  0  0  0  0  0  0  0  0  0  0  0
   -0.5658   -2.8098    0.2407 H   0  0  0  0  0  0  0  0  0  0  0  0
    1.2544   -2.7185   -0.9151 C   0  0  0  0  0  0  0  0  0  0  0  0
    0.7363   -2.7317   -1.8770 H   0  0  0  0  0  0  0  0  0  0  0  0
    2.1289   -2.0693   -0.9908 H   0  0  0  0  0  0  0  0  0  0  0  0
    1.6956   -4.1410   -0.5484 C   0  0  0  0  0  0  0  0  0  0  0  0
    2.2049   -4.1075    0.4202 H   0  0  0  0  0  0  0  0  0  0  0  0
    0.8030   -4.7638   -0.4364 H   0  0  0  0  0  0  0  0  0  0  0  0
    2.5957   -4.7162   -1.5797 N   0  3  0  0  0  0  0  0  0  0  0  0
    3.4286   -4.1498   -1.6805 H   0  0  0  0  0  0  0  0  0  0  0  0
    2.8773   -5.6543   -1.3232 H   0  0  0  0  0  0  0  0  0  0  0  0
    2.1258   -4.7576   -2.4765 H   0  0  0  0  0  0  0  0  0  0  0  0
   -1.3322    1.3778    0.5384 C   0  0  0  0  0  0  0  0  0  0  0  0
   -2.3990    1.7393    0.0558 O   0  0  0  0  0  0  0  0  0  0  0  0
   -0.3305    2.2203    0.8113 N   0  0  0  0  0  0  0  0  0  0  0  0
    0.4998    1.8416    1.2360 H   0  0  0  0  0  0  0  0  0  0  0  0
   -0.3985    3.6683    0.6065 C   0  0  0  0  0  0  0  0  0  0  0  0
   -1.1850    4.0930    1.2341 H   0  0  0  0  0  0  0  0  0  0  0  0
    0.5526    4.1348    0.8657 H   0  0  0  0  0  0  0  0  0  0  0  0
   -0.6350    3.8879   -0.4370 H   0  0  0  0  0  0  0  0  0  0  0  0
  5  6  2  0  0  0  0
  5  7  1  0  0  0  0
  2  3  1  0  0  0  0
  2  4  1  0  0  0  0
  2  5  1  0  0  0  0
  1  2  1  0  0  0  0
 27 28  2  0  0  0  0
 27 29  1  0  0  0  0
 23 24  1  0  0  0  0
 23 25  1  0  0  0  0
 23 26  1  0  0  0  0
 20 21  1  0  0  0  0
 20 22  1  0  0  0  0
 20 23  1  0  0  0  0
 17 18  1  0  0  0  0
 17 19  1  0  0  0  0
 17 20  1  0  0  0  0
 14 15  1  0  0  0  0
 14 16  1  0  0  0  0
 14 17  1  0  0  0  0
 11 12  1  0  0  0  0
 11 13  1  0  0  0  0
 11 14  1  0  0  0  0
  9 10  1  0  0  0  0
  9 11  1  0  0  0  0
  9 27  1  0  0  0  0
  7  8  1  0  0  0  0
  7  9  1  0  0  0  0
 31 32  1  0  0  0  0
 31 33  1  0  0  0  0
 31 34  1  0  0  0  0
 29 30  1  0  0  0  0
 29 31  1  0  0  0  0
M  CHG  1  23   1
M  END
$$$$
default_name
  -OEChem-01062215323D

 34 33  0     1  0  0  0  0  0999 V2000
   -3.8899   -3.6747    1.6490 H   0  0  0  0  0  0  0  0  0  0  0  0
   -3.9109   -2.6717    1.2250 C   0  0  0  0  0  0  0  0  0  0  0  0
   -4.6009   -2.0517    1.7950 H   0  0  0  0  0  0  0  0  0  0  0  0
   -4.2309   -2.7237    0.1860 H   0  0  0  0  0  0  0  0  0  0  0  0
   -2.5229   -2.0787    1.2980 C   0  0  0  0  0  0  0  0  0  0  0  0
   -1.5999   -2.7227    1.7810 O   0  0  0  0  0  0  0  0  0  0  0  0
   -2.3659   -0.8447    0.8120 N   0  0  0  0  0  0  0  0  0  0  0  0
   -3.1749   -0.3807    0.4220 H   0  0  0  0  0  0  0  0  0  0  0  0
   -1.0919   -0.1077    0.8170 C   0  0  1  0  0  0  0  0  0  0  0  0
   -0.5176   -0.4225    1.6902 H   0  0  0  0  0  0  0  0  0  0  0  0
   -0.3065   -0.4790   -0.4549 C   0  0  0  0  0  0  0  0  0  0  0  0
   -0.9545   -0.3286   -1.3198 H   0  0  0  0  0  0  0  0  0  0  0  0
    0.5525    0.1876   -0.5535 H   0  0  0  0  0  0  0  0  0  0  0  0
    0.1801   -1.9362   -0.4636 C   0  0  0  0  0  0  0  0  0  0  0  0
    0.8198   -2.1151    0.4016 H   0  0  0  0  0  0  0  0  0  0  0  0
   -0.6825   -2.6035   -0.4133 H   0  0  0  0  0  0  0  0  0  0  0  0
    0.9734   -2.2272   -1.7450 C   0  0  0  0  0  0  0  0  0  0  0  0
    0.3348   -2.0327   -2.6100 H   0  0  0  0  0  0  0  0  0  0  0  0
    1.8397   -1.5639   -1.7859 H   0  0  0  0  0  0  0  0  0  0  0  0
    1.4387   -3.6886   -1.7667 C   0  0  0  0  0  0  0  0  0  0  0  0
    2.0697   -3.8649   -0.8895 H   0  0  0  0  0  0  0  0  0  0  0  0
    0.5596   -4.3346   -1.6824 H   0  0  0  0  0  0  0  0  0  0  0  0
    2.1893   -4.0041   -3.0083 N   0  3  0  0  0  0  0  0  0  0  0  0
    3.0099   -3.4165   -3.0866 H   0  0  0  0  0  0  0  0  0  0  0  0
    2.4887   -4.9712   -3.0072 H   0  0  0  0  0  0  0  0  0  0  0  0
    1.6065   -3.8509   -3.8230 H   0  0  0  0  0  0  0  0  0  0  0  0
   -1.3457    1.3985    0.9119 C   0  0  0  0  0  0  0  0  0  0  0  0
   -2.4964    1.8189    0.9396 O   0  0  0  0  0  0  0  0  0  0  0  0
   -0.2746    2.1986    0.9266 N   0  0  0  0  0  0  0  0  0  0  0  0
    0.6347    1.7670    0.9328 H   0  0  0  0  0  0  0  0  0  0  0  0
   -0.3430    3.6583    1.0168 C   0  0  0  0  0  0  0  0  0  0  0  0
   -0.8138    3.9478    1.9588 H   0  0  0  0  0  0  0  0  0  0  0  0
    0.6575    4.0900    0.9732 H   0  0  0  0  0  0  0  0  0  0  0  0
   -0.9433    4.0562    0.1957 H   0  0  0  0  0  0  0  0  0  0  0  0
  5  6  2  0  0  0  0
  5  7  1  0  0  0  0
  2  3  1  0  0  0  0
  2  4  1  0  0  0  0
  2  5  1  0  0  0  0
  1  2  1  0  0  0  0
 27 28  2  0  0  0  0
 27 29  1  0  0  0  0
 23 24  1  0  0  0  0
 23 25  1  0  0  0  0
 23 26  1  0  0  0  0
 20 21  1  0  0  0  0
 20 22  1  0  0  0  0
 20 23  1  0  0  0  0
 17 18  1  0  0  0  0
 17 19  1  0  0  0  0
 17 20  1  0  0  0  0
 14 15  1  0  0  0  0
 14 16  1  0  0  0  0
 14 17  1  0  0  0  0
 11 12  1  0  0  0  0
 11 13  1  0  0  0  0
 11 14  1  0  0  0  0
  9 10  1  0  0  0  0
  9 11  1  0  0  0  0
  9 27  1  0  0  0  0
  7  8  1  0  0  0  0
  7  9  1  0  0  0  0
 31 32  1  0  0  0  0
 31 33  1  0  0  0  0
 31 34  1  0  0  0  0
 29 30  1  0  0  0  0
 29 31  1  0  0  0  0
M  CHG  1  23   1
M  END
$$$$
default_name
  -OEChem-01062215323D

 34 33  0     1  0  0  0  0  0999 V2000
   -3.8899   -3.6747    1.6490 H   0  0  0  0  0  0  0  0  0  0  0  0
   -3.9109   -2.6717    1.2250 C   0  0  0  0  0  0  0  0  0  0  0  0
   -4.6009   -2.0517    1.7950 H   0  0  0  0  0  0  0  0  0  0  0  0
   -4.2309   -2.7237    0.1860 H   0  0  0  0  0  0  0  0  0  0  0  0
   -2.5229   -2.0787    1.2980 C   0  0  0  0  0  0  0  0  0  0  0  0
   -1.5999   -2.7227    1.7810 O   0  0  0  0  0  0  0  0  0  0  0  0
   -2.3659   -0.8447    0.8120 N   0  0  0  0  0  0  0  0  0  0  0  0
   -3.1749   -0.3807    0.4220 H   0  0  0  0  0  0  0  0  0  0  0  0
   -1.0919   -0.1077    0.8170 C   0  0  1  0  0  0  0  0  0  0  0  0
   -0.5176   -0.4225    1.6902 H   0  0  0  0  0  0  0  0  0  0  0  0
   -0.3065   -0.4790   -0.4549 C   0  0  0  0  0  0  0  0  0  0  0  0
   -0.9545   -0.3286   -1.3198 H   0  0  0  0  0  0  0  0  0  0  0  0
    0.5525    0.1876   -0.5535 H   0  0  0  0  0  0  0  0  0  0  0  0
    0.1801   -1.9362   -0.4636 C   0  0  0  0  0  0  0  0  0  0  0  0
    0.8198   -2.1151    0.4016 H   0  0  0  0  0  0  0  0  0  0  0  0
   -0.6825   -2.6035   -0.4133 H   0  0  0  0  0  0  0  0  0  0  0  0
    0.9734   -2.2272   -1.7450 C   0  0  0  0  0  0  0  0  0  0  0  0
    0.3348   -2.0327   -2.6100 H   0  0  0  0  0  0  0  0  0  0  0  0
    1.8397   -1.5639   -1.7859 H   0  0  0  0  0  0  0  0  0  0  0  0
    1.4387   -3.6886   -1.7667 C   0  0  0  0  0  0  0  0  0  0  0  0
    2.0697   -3.8649   -0.8895 H   0  0  0  0  0  0  0  0  0  0  0  0
    0.5596   -4.3346   -1.6824 H   0  0  0  0  0  0  0  0  0  0  0  0
    2.1893   -4.0041   -3.0083 N   0  3  0  0  0  0  0  0  0  0  0  0
    3.0099   -3.4165   -3.0866 H   0  0  0  0  0  0  0  0  0  0  0  0
    2.4887   -4.9712   -3.0072 H   0  0  0  0  0  0  0  0  0  0  0  0
    1.6065   -3.8509   -3.8230 H   0  0  0  0  0  0  0  0  0  0  0  0
   -1.3457    1.3985    0.9119 C   0  0  0  0  0  0  0  0  0  0  0  0
   -2.4603    1.8076    1.2150 O   0  0  0  0  0  0  0  0  0  0  0  0
   -0.3236    2.2097    0.6202 N   0  0  0  0  0  0  0  0  0  0  0  0
    0.5664    1.7883    0.4119 H   0  0  0  0  0  0  0  0  0  0  0  0
   -0.3984    3.6711    0.6652 C   0  0  0  0  0  0  0  0  0  0  0  0
   -0.6202    3.9978    1.6834 H   0  0  0  0  0  0  0  0  0  0  0  0
    0.5486    4.1109    0.3502 H   0  0  0  0  0  0  0  0  0  0  0  0
   -1.1962    4.0253    0.0088 H   0  0  0  0  0  0  0  0  0  0  0  0
  5  6  2  0  0  0  0
  5  7  1  0  0  0  0
  2  3  1  0  0  0  0
  2  4  1  0  0  0  0
  2  5  1  0  0  0  0
  1  2  1  0  0  0  0
 27 28  2  0  0  0  0
 27 29  1  0  0  0  0
 23 24  1  0  0  0  0
 23 25  1  0  0  0  0
 23 26  1  0  0  0  0
 20 21  1  0  0  0  0
 20 22  1  0  0  0  0
 20 23  1  0  0  0  0
 17 18  1  0  0  0  0
 17 19  1  0  0  0  0
 17 20  1  0  0  0  0
 14 15  1  0  0  0  0
 14 16  1  0  0  0  0
 14 17  1  0  0  0  0
 11 12  1  0  0  0  0
 11 13  1  0  0  0  0
 11 14  1  0  0  0  0
  9 10  1  0  0  0  0
  9 11  1  0  0  0  0
  9 27  1  0  0  0  0
  7  8  1  0  0  0  0
  7  9  1  0  0  0  0
 31 32  1  0  0  0  0
 31 33  1  0  0  0  0
 31 34  1  0  0  0  0
 29 30  1  0  0  0  0
 29 31  1  0  0  0  0
M  CHG  1  23   1
M  END
$$$$
default_name
  -OEChem-01062215323D

 34 33  0     1  0  0  0  0  0999 V2000
   -3.8899   -3.6747    1.6490 H   0  0  0  0  0  0  0  0  0  0  0  0
   -3.9109   -2.6717    1.2250 C   0  0  0  0  0  0  0  0  0  0  0  0
   -4.6009   -2.0517    1.7950 H   0  0  0  0  0  0  0  0  0  0  0  0
   -4.2309   -2.7237    0.1860 H   0  0  0  0  0  0  0  0  0  0  0  0
   -2.5229   -2.0787    1.2980 C   0  0  0  0  0  0  0  0  0  0  0  0
   -1.5999   -2.7227    1.7810 O   0  0  0  0  0  0  0  0  0  0  0  0
   -2.3659   -0.8447    0.8120 N   0  0  0  0  0  0  0  0  0  0  0  0
   -3.1749   -0.3807    0.4220 H   0  0  0  0  0  0  0  0  0  0  0  0
   -1.0919   -0.1077    0.8170 C   0  0  1  0  0  0  0  0  0  0  0  0
   -0.5176   -0.4225    1.6902 H   0  0  0  0  0  0  0  0  0  0  0  0
   -0.3065   -0.4790   -0.4549 C   0  0  0  0  0  0  0  0  0  0  0  0
   -0.9545   -0.3286   -1.3198 H   0  0  0  0  0  0  0  0  0  0  0  0
    0.5525    0.1876   -0.5535 H   0  0  0  0  0  0  0  0  0  0  0  0
    0.1801   -1.9362   -0.4636 C   0  0  0  0  0  0  0  0  0  0  0  0
    0.8198   -2.1151    0.4016 H   0  0  0  0  0  0  0  0  0  0  0  0
   -0.6825   -2.6035   -0.4133 H   0  0  0  0  0  0  0  0  0  0  0  0
    0.9734   -2.2272   -1.7450 C   0  0  0  0  0  0  0  0  0  0  0  0
    0.3348   -2.0327   -2.6100 H   0  0  0  0  0  0  0  0  0  0  0  0
    1.8397   -1.5639   -1.7859 H   0  0  0  0  0  0  0  0  0  0  0  0
    1.4387   -3.6886   -1.7667 C   0  0  0  0  0  0  0  0  0  0  0  0
    2.0697   -3.8649   -0.8895 H   0  0  0  0  0  0  0  0  0  0  0  0
    0.5596   -4.3346   -1.6824 H   0  0  0  0  0  0  0  0  0  0  0  0
    2.1893   -4.0041   -3.0083 N   0  3  0  0  0  0  0  0  0  0  0  0
    3.0099   -3.4165   -3.0866 H   0  0  0  0  0  0  0  0  0  0  0  0
    2.4887   -4.9712   -3.0072 H   0  0  0  0  0  0  0  0  0  0  0  0
    1.6065   -3.8509   -3.8230 H   0  0  0  0  0  0  0  0  0  0  0  0
   -1.3457    1.3985    0.9119 C   0  0  0  0  0  0  0  0  0  0  0  0
   -2.3551    1.8091    1.4723 O   0  0  0  0  0  0  0  0  0  0  0  0
   -0.4492    2.2064    0.3363 N   0  0  0  0  0  0  0  0  0  0  0  0
    0.3674    1.7854   -0.0748 H   0  0  0  0  0  0  0  0  0  0  0  0
   -0.5417    3.6676    0.3392 C   0  0  0  0  0  0  0  0  0  0  0  0
   -0.5042    4.0373    1.3661 H   0  0  0  0  0  0  0  0  0  0  0  0
    0.2843    4.1026   -0.2246 H   0  0  0  0  0  0  0  0  0  0  0  0
   -1.4877    3.9835   -0.1059 H   0  0  0  0  0  0  0  0  0  0  0  0
  5  6  2  0  0  0  0
  5  7  1  0  0  0  0
  2  3  1  0  0  0  0
  2  4  1  0  0  0  0
  2  5  1  0  0  0  0
  1  2  1  0  0  0  0
 27 28  2  0  0  0  0
 27 29  1  0  0  0  0
 23 24  1  0  0  0  0
 23 25  1  0  0  0  0
 23 26  1  0  0  0  0
 20 21  1  0  0  0  0
 20 22  1  0  0  0  0
 20 23  1  0  0  0  0
 17 18  1  0  0  0  0
 17 19  1  0  0  0  0
 17 20  1  0  0  0  0
 14 15  1  0  0  0  0
 14 16  1  0  0  0  0
 14 17  1  0  0  0  0
 11 12  1  0  0  0  0
 11 13  1  0  0  0  0
 11 14  1  0  0  0  0
  9 10  1  0  0  0  0
  9 11  1  0  0  0  0
  9 27  1  0  0  0  0
  7  8  1  0  0  0  0
  7  9  1  0  0  0  0
 31 32  1  0  0  0  0
 31 33  1  0  0  0  0
 31 34  1  0  0  0  0
 29 30  1  0  0  0  0
 29 31  1  0  0  0  0
M  CHG  1  23   1
M  END
$$$$
default_name
  -OEChem-01062215323D

 34 33  0     1  0  0  0  0  0999 V2000
   -3.8899   -3.6747    1.6490 H   0  0  0  0  0  0  0  0  0  0  0  0
   -3.9109   -2.6717    1.2250 C   0  0  0  0  0  0  0  0  0  0  0  0
   -4.6009   -2.0517    1.7950 H   0  0  0  0  0  0  0  0  0  0  0  0
   -4.2309   -2.7237    0.1860 H   0  0  0  0  0  0  0  0  0  0  0  0
   -2.5229   -2.0787    1.2980 C   0  0  0  0  0  0  0  0  0  0  0  0
   -1.5999   -2.7227    1.7810 O   0  0  0  0  0  0  0  0  0  0  0  0
   -2.3659   -0.8447    0.8120 N   0  0  0  0  0  0  0  0  0  0  0  0
   -3.1749   -0.3807    0.4220 H   0  0  0  0  0  0  0  0  0  0  0  0
   -1.0919   -0.1077    0.8170 C   0  0  1  0  0  0  0  0  0  0  0  0
   -0.5176   -0.4225    1.6902 H   0  0  0  0  0  0  0  0  0  0  0  0
   -0.3065   -0.4790   -0.4549 C   0  0  0  0  0  0  0  0  0  0  0  0
   -0.9545   -0.3286   -1.3198 H   0  0  0  0  0  0  0  0  0  0  0  0
    0.5525    0.1876   -0.5535 H   0  0  0  0  0  0  0  0  0  0  0  0
    0.1801   -1.9362   -0.4636 C   0  0  0  0  0  0  0  0  0  0  0  0
    0.8198   -2.1151    0.4016 H   0  0  0  0  0  0  0  0  0  0  0  0
   -0.6825   -2.6035   -0.4133 H   0  0  0  0  0  0  0  0  0  0  0  0
    0.9734   -2.2272   -1.7450 C   0  0  0  0  0  0  0  0  0  0  0  0
    0.3348   -2.0327   -2.6100 H   0  0  0  0  0  0  0  0  0  0  0  0
    1.8397   -1.5639   -1.7859 H   0  0  0  0  0  0  0  0  0  0  0  0
    1.4387   -3.6886   -1.7667 C   0  0  0  0  0  0  0  0  0  0  0  0
    2.0697   -3.8649   -0.8895 H   0  0  0  0  0  0  0  0  0  0  0  0
    0.5596   -4.3346   -1.6824 H   0  0  0  0  0  0  0  0  0  0  0  0
    2.1893   -4.0041   -3.0083 N   0  3  0  0  0  0  0  0  0  0  0  0
    3.0099   -3.4165   -3.0866 H   0  0  0  0  0  0  0  0  0  0  0  0
    2.4887   -4.9712   -3.0072 H   0  0  0  0  0  0  0  0  0  0  0  0
    1.6065   -3.8509   -3.8230 H   0  0  0  0  0  0  0  0  0  0  0  0
   -1.3457    1.3985    0.9119 C   0  0  0  0  0  0  0  0  0  0  0  0
   -2.1879    1.8233    1.6940 O   0  0  0  0  0  0  0  0  0  0  0  0
   -0.6428    2.1890    0.0941 N   0  0  0  0  0  0  0  0  0  0  0  0
    0.0513    1.7586   -0.4941 H   0  0  0  0  0  0  0  0  0  0  0  0
   -0.7630    3.6478    0.0608 C   0  0  0  0  0  0  0  0  0  0  0  0
   -0.4736    4.0638    1.0282 H   0  0  0  0  0  0  0  0  0  0  0  0
   -0.1173    4.0657   -0.7123 H   0  0  0  0  0  0  0  0  0  0  0  0
   -1.7978    3.9334   -0.1407 H   0  0  0  0  0  0  0  0  0  0  0  0
  5  6  2  0  0  0  0
  5  7  1  0  0  0  0
  2  3  1  0  0  0  0
  2  4  1  0  0  0  0
  2  5  1  0  0  0  0
  1  2  1  0  0  0  0
 27 28  2  0  0  0  0
 27 29  1  0  0  0  0
 23 24  1  0  0  0  0
 23 25  1  0  0  0  0
 23 26  1  0  0  0  0
 20 21  1  0  0  0  0
 20 22  1  0  0  0  0
 20 23  1  0  0  0  0
 17 18  1  0  0  0  0
 17 19  1  0  0  0  0
 17 20  1  0  0  0  0
 14 15  1  0  0  0  0
 14 16  1  0  0  0  0
 14 17  1  0  0  0  0
 11 12  1  0  0  0  0
 11 13  1  0  0  0  0
 11 14  1  0  0  0  0
  9 10  1  0  0  0  0
  9 11  1  0  0  0  0
  9 27  1  0  0  0  0
  7  8  1  0  0  0  0
  7  9  1  0  0  0  0
 31 32  1  0  0  0  0
 31 33  1  0  0  0  0
 31 34  1  0  0  0  0
 29 30  1  0  0  0  0
 29 31  1  0  0  0  0
M  CHG  1  23   1
M  END
$$$$
default_name
  -OEChem-01062215323D

 34 33  0     1  0  0  0  0  0999 V2000
   -3.8899   -3.6747    1.6490 H   0  0  0  0  0  0  0  0  0  0  0  0
   -3.9109   -2.6717    1.2250 C   0  0  0  0  0  0  0  0  0  0  0  0
   -4.6009   -2.0517    1.7950 H   0  0  0  0  0  0  0  0  0  0  0  0
   -4.2309   -2.7237    0.1860 H   0  0  0  0  0  0  0  0  0  0  0  0
   -2.5229   -2.0787    1.2980 C   0  0  0  0  0  0  0  0  0  0  0  0
   -1.5999   -2.7227    1.7810 O   0  0  0  0  0  0  0  0  0  0  0  0
   -2.3659   -0.8447    0.8120 N   0  0  0  0  0  0  0  0  0  0  0  0
   -3.1749   -0.3807    0.4220 H   0  0  0  0  0  0  0  0  0  0  0  0
   -1.0919   -0.1077    0.8170 C   0  0  1  0  0  0  0  0  0  0  0  0
   -0.5176   -0.4225    1.6902 H   0  0  0  0  0  0  0  0  0  0  0  0
   -0.3065   -0.4790   -0.4549 C   0  0  0  0  0  0  0  0  0  0  0  0
   -0.9545   -0.3286   -1.3198 H   0  0  0  0  0  0  0  0  0  0  0  0
    0.5525    0.1876   -0.5535 H   0  0  0  0  0  0  0  0  0  0  0  0
    0.1801   -1.9362   -0.4636 C   0  0  0  0  0  0  0  0  0  0  0  0
    0.8198   -2.1151    0.4016 H   0  0  0  0  0  0  0  0  0  0  0  0
   -0.6825   -2.6035   -0.4133 H   0  0  0  0  0  0  0  0  0  0  0  0
    0.9734   -2.2272   -1.7450 C   0  0  0  0  0  0  0  0  0  0  0  0
    0.3348   -2.0327   -2.6100 H   0  0  0  0  0  0  0  0  0  0  0  0
    1.8397   -1.5639   -1.7859 H   0  0  0  0  0  0  0  0  0  0  0  0
    1.4387   -3.6886   -1.7667 C   0  0  0  0  0  0  0  0  0  0  0  0
    2.0697   -3.8649   -0.8895 H   0  0  0  0  0  0  0  0  0  0  0  0
    0.5596   -4.3346   -1.6824 H   0  0  0  0  0  0  0  0  0  0  0  0
    2.1893   -4.0041   -3.0083 N   0  3  0  0  0  0  0  0  0  0  0  0
    3.0099   -3.4165   -3.0866 H   0  0  0  0  0  0  0  0  0  0  0  0
    2.4887   -4.9712   -3.0072 H   0  0  0  0  0  0  0  0  0  0  0  0
    1.6065   -3.8509   -3.8230 H   0  0  0  0  0  0  0  0  0  0  0  0
   -1.3457    1.3985    0.9119 C   0  0  0  0  0  0  0  0  0  0  0  0
   -1.9702    1.8492    1.8650 O   0  0  0  0  0  0  0  0  0  0  0  0
   -0.8912    2.1588   -0.0897 N   0  0  0  0  0  0  0  0  0  0  0  0
   -0.3604    1.7096   -0.8174 H   0  0  0  0  0  0  0  0  0  0  0  0
   -1.0475    3.6132   -0.1507 C   0  0  0  0  0  0  0  0  0  0  0  0
   -0.5305    4.0753    0.6930 H   0  0  0  0  0  0  0  0  0  0  0  0
   -0.6288    4.0027   -1.0794 H   0  0  0  0  0  0  0  0  0  0  0  0
   -2.1054    3.8786   -0.0932 H   0  0  0  0  0  0  0  0  0  0  0  0
  5  6  2  0  0  0  0
  5  7  1  0  0  0  0
  2  3  1  0  0  0  0
  2  4  1  0  0  0  0
  2  5  1  0  0  0  0
  1  2  1  0  0  0  0
 27 28  2  0  0  0  0
 27 29  1  0  0  0  0
 23 24  1  0  0  0  0
 23 25  1  0  0  0  0
 23 26  1  0  0  0  0
 20 21  1  0  0  0  0
 20 22  1  0  0  0  0
 20 23  1  0  0  0  0
 17 18  1  0  0  0  0
 17 19  1  0  0  0  0
 17 20  1  0  0  0  0
 14 15  1  0  0  0  0
 14 16  1  0  0  0  0
 14 17  1  0  0  0  0
 11 12  1  0  0  0  0
 11 13  1  0  0  0  0
 11 14  1  0  0  0  0
  9 10  1  0  0  0  0
  9 11  1  0  0  0  0
  9 27  1  0  0  0  0
  7  8  1  0  0  0  0
  7  9  1  0  0  0  0
 31 32  1  0  0  0  0
 31 33  1  0  0  0  0
 31 34  1  0  0  0  0
 29 30  1  0  0  0  0
 29 31  1  0  0  0  0
M  CHG  1  23   1
M  END
$$$$
default_name
  -OEChem-01062215323D

 34 33  0     1  0  0  0  0  0999 V2000
   -3.8899   -3.6747    1.6490 H   0  0  0  0  0  0  0  0  0  0  0  0
   -3.9109   -2.6717    1.2250 C   0  0  0  0  0  0  0  0  0  0  0  0
   -4.6009   -2.0517    1.7950 H   0  0  0  0  0  0  0  0  0  0  0  0
   -4.2309   -2.7237    0.1860 H   0  0  0  0  0  0  0  0  0  0  0  0
   -2.5229   -2.0787    1.2980 C   0  0  0  0  0  0  0  0  0  0  0  0
   -1.5999   -2.7227    1.7810 O   0  0  0  0  0  0  0  0  0  0  0  0
   -2.3659   -0.8447    0.8120 N   0  0  0  0  0  0  0  0  0  0  0  0
   -3.1749   -0.3807    0.4220 H   0  0  0  0  0  0  0  0  0  0  0  0
   -1.0919   -0.1077    0.8170 C   0  0  1  0  0  0  0  0  0  0  0  0
   -0.5176   -0.4225    1.6902 H   0  0  0  0  0  0  0  0  0  0  0  0
   -0.3065   -0.4790   -0.4549 C   0  0  0  0  0  0  0  0  0  0  0  0
   -0.9545   -0.3286   -1.3198 H   0  0  0  0  0  0  0  0  0  0  0  0
    0.5525    0.1876   -0.5535 H   0  0  0  0  0  0  0  0  0  0  0  0
    0.1801   -1.9362   -0.4636 C   0  0  0  0  0  0  0  0  0  0  0  0
    0.8198   -2.1151    0.4016 H   0  0  0  0  0  0  0  0  0  0  0  0
   -0.6825   -2.6035   -0.4133 H   0  0  0  0  0  0  0  0  0  0  0  0
    0.9734   -2.2272   -1.7450 C   0  0  0  0  0  0  0  0  0  0  0  0
    0.3348   -2.0327   -2.6100 H   0  0  0  0  0  0  0  0  0  0  0  0
    1.8397   -1.5639   -1.7859 H   0  0  0  0  0  0  0  0  0  0  0  0
    1.4387   -3.6886   -1.7667 C   0  0  0  0  0  0  0  0  0  0  0  0
    2.0697   -3.8649   -0.8895 H   0  0  0  0  0  0  0  0  0  0  0  0
    0.5596   -4.3346   -1.6824 H   0  0  0  0  0  0  0  0  0  0  0  0
    2.1893   -4.0041   -3.0083 N   0  3  0  0  0  0  0  0  0  0  0  0
    3.0099   -3.4165   -3.0866 H   0  0  0  0  0  0  0  0  0  0  0  0
    2.4887   -4.9712   -3.0072 H   0  0  0  0  0  0  0  0  0  0  0  0
    1.6065   -3.8509   -3.8230 H   0  0  0  0  0  0  0  0  0  0  0  0
   -1.3457    1.3985    0.9119 C   0  0  0  0  0  0  0  0  0  0  0  0
   -1.7168    1.8851    1.9735 O   0  0  0  0  0  0  0  0  0  0  0  0
   -1.1775    2.1177   -0.2026 N   0  0  0  0  0  0  0  0  0  0  0  0
   -0.8397    1.6418   -1.0228 H   0  0  0  0  0  0  0  0  0  0  0  0
   -1.3755    3.5662   -0.2812 C   0  0  0  0  0  0  0  0  0  0  0  0
   -0.6710    4.0712    0.3832 H   0  0  0  0  0  0  0  0  0  0  0  0
   -1.2154    3.9178   -1.3010 H   0  0  0  0  0  0  0  0  0  0  0  0
   -2.3895    3.8228    0.0335 H   0  0  0  0  0  0  0  0  0  0  0  0
  5  6  2  0  0  0  0
  5  7  1  0  0  0  0
  2  3  1  0  0  0  0
  2  4  1  0  0  0  0
  2  5  1  0  0  0  0
  1  2  1  0  0  0  0
 27 28  2  0  0  0  0
 27 29  1  0  0  0  0
 23 24  1  0  0  0  0
 23 25  1  0  0  0  0
 23 26  1  0  0  0  0
 20 21  1  0  0  0  0
 20 22  1  0  0  0  0
 20 23  1  0  0  0  0
 17 18  1  0  0  0  0
 17 19  1  0  0  0  0
 17 20  1  0  0  0  0
 14 15  1  0  0  0  0
 14 16  1  0  0  0  0
 14 17  1  0  0  0  0
 11 12  1  0  0  0  0
 11 13  1  0  0  0  0
 11 14  1  0  0  0  0
  9 10  1  0  0  0  0
  9 11  1  0  0  0  0
  9 27  1  0  0  0  0
  7  8  1  0  0  0  0
  7  9  1  0  0  0  0
 31 32  1  0  0  0  0
 31 33  1  0  0  0  0
 31 34  1  0  0  0  0
 29 30  1  0  0  0  0
 29 31  1  0  0  0  0
M  CHG  1  23   1
M  END
$$$$
default_name
  -OEChem-01062215323D

 34 33  0     1  0  0  0  0  0999 V2000
   -3.8899   -3.6747    1.6490 H   0  0  0  0  0  0  0  0  0  0  0  0
   -3.9109   -2.6717    1.2250 C   0  0  0  0  0  0  0  0  0  0  0  0
   -4.6009   -2.0517    1.7950 H   0  0  0  0  0  0  0  0  0  0  0  0
   -4.2309   -2.7237    0.1860 H   0  0  0  0  0  0  0  0  0  0  0  0
   -2.5229   -2.0787    1.2980 C   0  0  0  0  0  0  0  0  0  0  0  0
   -1.5999   -2.7227    1.7810 O   0  0  0  0  0  0  0  0  0  0  0  0
   -2.3659   -0.8447    0.8120 N   0  0  0  0  0  0  0  0  0  0  0  0
   -3.1749   -0.3807    0.4220 H   0  0  0  0  0  0  0  0  0  0  0  0
   -1.0919   -0.1077    0.8170 C   0  0  1  0  0  0  0  0  0  0  0  0
   -0.5176   -0.4225    1.6902 H   0  0  0  0  0  0  0  0  0  0  0  0
   -0.3065   -0.4790   -0.4549 C   0  0  0  0  0  0  0  0  0  0  0  0
   -0.9545   -0.3286   -1.3198 H   0  0  0  0  0  0  0  0  0  0  0  0
    0.5525    0.1876   -0.5535 H   0  0  0  0  0  0  0  0  0  0  0  0
    0.1801   -1.9362   -0.4636 C   0  0  0  0  0  0  0  0  0  0  0  0
    0.8198   -2.1151    0.4016 H   0  0  0  0  0  0  0  0  0  0  0  0
   -0.6825   -2.6035   -0.4133 H   0  0  0  0  0  0  0  0  0  0  0  0
    0.9734   -2.2272   -1.7450 C   0  0  0  0  0  0  0  0  0  0  0  0
    0.3348   -2.0327   -2.6100 H   0  0  0  0  0  0  0  0  0  0  0  0
    1.8397   -1.5639   -1.7859 H   0  0  0  0  0  0  0  0  0  0  0  0
    1.4387   -3.6886   -1.7667 C   0  0  0  0  0  0  0  0  0  0  0  0
    2.0697   -3.8649   -0.8895 H   0  0  0  0  0  0  0  0  0  0  0  0
    0.5596   -4.3346   -1.6824 H   0  0  0  0  0  0  0  0  0  0  0  0
    2.1893   -4.0041   -3.0083 N   0  3  0  0  0  0  0  0  0  0  0  0
    3.0099   -3.4165   -3.0866 H   0  0  0  0  0  0  0  0  0  0  0  0
    2.4887   -4.9712   -3.0072 H   0  0  0  0  0  0  0  0  0  0  0  0
    1.6065   -3.8509   -3.8230 H   0  0  0  0  0  0  0  0  0  0  0  0
   -1.3457    1.3985    0.9119 C   0  0  0  0  0  0  0  0  0  0  0  0
   -1.4450    1.9284    2.0123 O   0  0  0  0  0  0  0  0  0  0  0  0
   -1.4821    2.0685   -0.2371 N   0  0  0  0  0  0  0  0  0  0  0  0
   -1.3539    1.5598   -1.0961 H   0  0  0  0  0  0  0  0  0  0  0  0
   -1.7249    3.5099   -0.3216 C   0  0  0  0  0  0  0  0  0  0  0  0
   -0.8857    4.0516    0.1199 H   0  0  0  0  0  0  0  0  0  0  0  0
   -1.8371    3.8169   -1.3620 H   0  0  0  0  0  0  0  0  0  0  0  0
   -2.6307    3.7697    0.2305 H   0  0  0  0  0  0  0  0  0  0  0  0
  5  6  2  0  0  0  0
  5  7  1  0  0  0  0
  2  3  1  0  0  0  0
  2  4  1  0  0  0  0
  2  5  1  0  0  0  0
  1  2  1  0  0  0  0
 27 28  2  0  0  0  0
 27 29  1  0  0  0  0
 23 24  1  0  0  0  0
 23 25  1  0  0  0  0
 23 26  1  0  0  0  0
 20 21  1  0  0  0  0
 20 22  1  0  0  0  0
 20 23  1  0  0  0  0
 17 18  1  0  0  0  0
 17 19  1  0  0  0  0
 17 20  1  0  0  0  0
 14 15  1  0  0  0  0
 14 16  1  0  0  0  0
 14 17  1  0  0  0  0
 11 12  1  0  0  0  0
 11 13  1  0  0  0  0
 11 14  1  0  0  0  0
  9 10  1  0  0  0  0
  9 11  1  0  0  0  0
  9 27  1  0  0  0  0
  7  8  1  0  0  0  0
  7  9  1  0  0  0  0
 31 32  1  0  0  0  0
 31 33  1  0  0  0  0
 31 34  1  0  0  0  0
 29 30  1  0  0  0  0
 29 31  1  0  0  0  0
M  CHG  1  23   1
M  END
$$$$
default_name
  -OEChem-01062215323D

 34 33  0     1  0  0  0  0  0999 V2000
   -3.8899   -3.6747    1.6490 H   0  0  0  0  0  0  0  0  0  0  0  0
   -3.9109   -2.6717    1.2250 C   0  0  0  0  0  0  0  0  0  0  0  0
   -4.6009   -2.0517    1.7950 H   0  0  0  0  0  0  0  0  0  0  0  0
   -4.2309   -2.7237    0.1860 H   0  0  0  0  0  0  0  0  0  0  0  0
   -2.5229   -2.0787    1.2980 C   0  0  0  0  0  0  0  0  0  0  0  0
   -1.5999   -2.7227    1.7810 O   0  0  0  0  0  0  0  0  0  0  0  0
   -2.3659   -0.8447    0.8120 N   0  0  0  0  0  0  0  0  0  0  0  0
   -3.1749   -0.3807    0.4220 H   0  0  0  0  0  0  0  0  0  0  0  0
   -1.0919   -0.1077    0.8170 C   0  0  1  0  0  0  0  0  0  0  0  0
   -0.5176   -0.4225    1.6902 H   0  0  0  0  0  0  0  0  0  0  0  0
   -0.3065   -0.4790   -0.4549 C   0  0  0  0  0  0  0  0  0  0  0  0
   -0.9545   -0.3286   -1.3198 H   0  0  0  0  0  0  0  0  0  0  0  0
    0.5525    0.1876   -0.5535 H   0  0  0  0  0  0  0  0  0  0  0  0
    0.1801   -1.9362   -0.4636 C   0  0  0  0  0  0  0  0  0  0  0  0
    0.8198   -2.1151    0.4016 H   0  0  0  0  0  0  0  0  0  0  0  0
   -0.6825   -2.6035   -0.4133 H   0  0  0  0  0  0  0  0  0  0  0  0
    0.9734   -2.2272   -1.7450 C   0  0  0  0  0  0  0  0  0  0  0  0
    0.3348   -2.0327   -2.6100 H   0  0  0  0  0  0  0  0  0  0  0  0
    1.8397   -1.5639   -1.7859 H   0  0  0  0  0  0  0  0  0  0  0  0
    1.4387   -3.6886   -1.7667 C   0  0  0  0  0  0  0  0  0  0  0  0
    2.0697   -3.8649   -0.8895 H   0  0  0  0  0  0  0  0  0  0  0  0
    0.5596   -4.3346   -1.6824 H   0  0  0  0  0  0  0  0  0  0  0  0
    2.1893   -4.0041   -3.0083 N   0  3  0  0  0  0  0  0  0  0  0  0
    3.0099   -3.4165   -3.0866 H   0  0  0  0  0  0  0  0  0  0  0  0
    2.4887   -4.9712   -3.0072 H   0  0  0  0  0  0  0  0  0  0  0  0
    1.6065   -3.8509   -3.8230 H   0  0  0  0  0  0  0  0  0  0  0  0
   -1.3457    1.3985    0.9119 C   0  0  0  0  0  0  0  0  0  0  0  0
   -1.1732    1.9763    1.9786 O   0  0  0  0  0  0  0  0  0  0  0  0
   -1.7844    2.0147   -0.1906 N   0  0  0  0  0  0  0  0  0  0  0  0
   -1.8679    1.4692   -1.0324 H   0  0  0  0  0  0  0  0  0  0  0  0
   -2.0717    3.4481   -0.2692 C   0  0  0  0  0  0  0  0  0  0  0  0
   -1.1597    4.0179   -0.0789 H   0  0  0  0  0  0  0  0  0  0  0  0
   -2.4515    3.7069   -1.2583 H   0  0  0  0  0  0  0  0  0  0  0  0
   -2.8127    3.7230    0.4846 H   0  0  0  0  0  0  0  0  0  0  0  0
  5  6  2  0  0  0  0
  5  7  1  0  0  0  0
  2  3  1  0  0  0  0
  2  4  1  0  0  0  0
  2  5  1  0  0  0  0
  1  2  1  0  0  0  0
 27 28  2  0  0  0  0
 27 29  1  0  0  0  0
 23 24  1  0  0  0  0
 23 25  1  0  0  0  0
 23 26  1  0  0  0  0
 20 21  1  0  0  0  0
 20 22  1  0  0  0  0
 20 23  1  0  0  0  0
 17 18  1  0  0  0  0
 17 19  1  0  0  0  0
 17 20  1  0  0  0  0
 14 15  1  0  0  0  0
 14 16  1  0  0  0  0
 14 17  1  0  0  0  0
 11 12  1  0  0  0  0
 11 13  1  0  0  0  0
 11 14  1  0  0  0  0
  9 10  1  0  0  0  0
  9 11  1  0  0  0  0
  9 27  1  0  0  0  0
  7  8  1  0  0  0  0
  7  9  1  0  0  0  0
 31 32  1  0  0  0  0
 31 33  1  0  0  0  0
 31 34  1  0  0  0  0
 29 30  1  0  0  0  0
 29 31  1  0  0  0  0
M  CHG  1  23   1
M  END
$$$$
default_name
  -OEChem-01062215323D

 34 33  0     1  0  0  0  0  0999 V2000
   -3.8899   -3.6747    1.6490 H   0  0  0  0  0  0  0  0  0  0  0  0
   -3.9109   -2.6717    1.2250 C   0  0  0  0  0  0  0  0  0  0  0  0
   -4.6009   -2.0517    1.7950 H   0  0  0  0  0  0  0  0  0  0  0  0
   -4.2309   -2.7237    0.1860 H   0  0  0  0  0  0  0  0  0  0  0  0
   -2.5229   -2.0787    1.2980 C   0  0  0  0  0  0  0  0  0  0  0  0
   -1.5999   -2.7227    1.7810 O   0  0  0  0  0  0  0  0  0  0  0  0
   -2.3659   -0.8447    0.8120 N   0  0  0  0  0  0  0  0  0  0  0  0
   -3.1749   -0.3807    0.4220 H   0  0  0  0  0  0  0  0  0  0  0  0
   -1.0919   -0.1077    0.8170 C   0  0  1  0  0  0  0  0  0  0  0  0
   -0.5176   -0.4225    1.6902 H   0  0  0  0  0  0  0  0  0  0  0  0
   -0.3065   -0.4790   -0.4549 C   0  0  0  0  0  0  0  0  0  0  0  0
   -0.9545   -0.3286   -1.3198 H   0  0  0  0  0  0  0  0  0  0  0  0
    0.5525    0.1876   -0.5535 H   0  0  0  0  0  0  0  0  0  0  0  0
    0.1801   -1.9362   -0.4636 C   0  0  0  0  0  0  0  0  0  0  0  0
    0.8198   -2.1151    0.4016 H   0  0  0  0  0  0  0  0  0  0  0  0
   -0.6825   -2.6035   -0.4133 H   0  0  0  0  0  0  0  0  0  0  0  0
    0.9734   -2.2272   -1.7450 C   0  0  0  0  0  0  0  0  0  0  0  0
    0.3348   -2.0327   -2.6100 H   0  0  0  0  0  0  0  0  0  0  0  0
    1.8397   -1.5639   -1.7859 H   0  0  0  0  0  0  0  0  0  0  0  0
    1.4387   -3.6886   -1.7667 C   0  0  0  0  0  0  0  0  0  0  0  0
    2.0697   -3.8649   -0.8895 H   0  0  0  0  0  0  0  0  0  0  0  0
    0.5596   -4.3346   -1.6824 H   0  0  0  0  0  0  0  0  0  0  0  0
    2.1893   -4.0041   -3.0083 N   0  3  0  0  0  0  0  0  0  0  0  0
    3.0099   -3.4165   -3.0866 H   0  0  0  0  0  0  0  0  0  0  0  0
    2.4887   -4.9712   -3.0072 H   0  0  0  0  0  0  0  0  0  0  0  0
    1.6065   -3.8509   -3.8230 H   0  0  0  0  0  0  0  0  0  0  0  0
   -1.3457    1.3985    0.9119 C   0  0  0  0  0  0  0  0  0  0  0  0
   -0.9201    2.0255    1.8748 O   0  0  0  0  0  0  0  0  0  0  0  0
   -2.0636    1.9598   -0.0665 N   0  0  0  0  0  0  0  0  0  0  0  0
   -2.3467    1.3762   -0.8361 H   0  0  0  0  0  0  0  0  0  0  0  0
   -2.3924    3.3852   -0.1276 C   0  0  0  0  0  0  0  0  0  0  0  0
   -1.4745    3.9725   -0.1997 H   0  0  0  0  0  0  0  0  0  0  0  0
   -3.0168    3.5952   -0.9968 H   0  0  0  0  0  0  0  0  0  0  0  0
   -2.9230    3.6859    0.7784 H   0  0  0  0  0  0  0  0  0  0  0  0
  5  6  2  0  0  0  0
  5  7  1  0  0  0  0
  2  3  1  0  0  0  0
  2  4  1  0  0  0  0
  2  5  1  0  0  0  0
  1  2  1  0  0  0  0
 27 28  2  0  0  0  0
 27 29  1  0  0  0  0
 23 24  1  0  0  0  0
 23 25  1  0  0  0  0
 23 26  1  0  0  0  0
 20 21  1  0  0  0  0
 20 22  1  0  0  0  0
 20 23  1  0  0  0  0
 17 18  1  0  0  0  0
 17 19  1  0  0  0  0
 17 20  1  0  0  0  0
 14 15  1  0  0  0  0
 14 16  1  0  0  0  0
 14 17  1  0  0  0  0
 11 12  1  0  0  0  0
 11 13  1  0  0  0  0
 11 14  1  0  0  0  0
  9 10  1  0  0  0  0
  9 11  1  0  0  0  0
  9 27  1  0  0  0  0
  7  8  1  0  0  0  0
  7  9  1  0  0  0  0
 31 32  1  0  0  0  0
 31 33  1  0  0  0  0
 31 34  1  0  0  0  0
 29 30  1  0  0  0  0
 29 31  1  0  0  0  0
M  CHG  1  23   1
M  END
$$$$
default_name
  -OEChem-01062215323D

 34 33  0     1  0  0  0  0  0999 V2000
   -3.8899   -3.6747    1.6490 H   0  0  0  0  0  0  0  0  0  0  0  0
   -3.9109   -2.6717    1.2250 C   0  0  0  0  0  0  0  0  0  0  0  0
   -4.6009   -2.0517    1.7950 H   0  0  0  0  0  0  0  0  0  0  0  0
   -4.2309   -2.7237    0.1860 H   0  0  0  0  0  0  0  0  0  0  0  0
   -2.5229   -2.0787    1.2980 C   0  0  0  0  0  0  0  0  0  0  0  0
   -1.5999   -2.7227    1.7810 O   0  0  0  0  0  0  0  0  0  0  0  0
   -2.3659   -0.8447    0.8120 N   0  0  0  0  0  0  0  0  0  0  0  0
   -3.1749   -0.3807    0.4220 H   0  0  0  0  0  0  0  0  0  0  0  0
   -1.0919   -0.1077    0.8170 C   0  0  1  0  0  0  0  0  0  0  0  0
   -0.5176   -0.4225    1.6902 H   0  0  0  0  0  0  0  0  0  0  0  0
   -0.3065   -0.4790   -0.4549 C   0  0  0  0  0  0  0  0  0  0  0  0
   -0.9545   -0.3286   -1.3198 H   0  0  0  0  0  0  0  0  0  0  0  0
    0.5525    0.1876   -0.5535 H   0  0  0  0  0  0  0  0  0  0  0  0
    0.1801   -1.9362   -0.4636 C   0  0  0  0  0  0  0  0  0  0  0  0
    0.8198   -2.1151    0.4016 H   0  0  0  0  0  0  0  0  0  0  0  0
   -0.6825   -2.6035   -0.4133 H   0  0  0  0  0  0  0  0  0  0  0  0
    0.9734   -2.2272   -1.7450 C   0  0  0  0  0  0  0  0  0  0  0  0
    0.3348   -2.0327   -2.6100 H   0  0  0  0  0  0  0  0  0  0  0  0
    1.8397   -1.5639   -1.7859 H   0  0  0  0  0  0  0  0  0  0  0  0
    1.4387   -3.6886   -1.7667 C   0  0  0  0  0  0  0  0  0  0  0  0
    2.0697   -3.8649   -0.8895 H   0  0  0  0  0  0  0  0  0  0  0  0
    0.5596   -4.3346   -1.6824 H   0  0  0  0  0  0  0  0  0  0  0  0
    2.1893   -4.0041   -3.0083 N   0  3  0  0  0  0  0  0  0  0  0  0
    3.0099   -3.4165   -3.0866 H   0  0  0  0  0  0  0  0  0  0  0  0
    2.4887   -4.9712   -3.0072 H   0  0  0  0  0  0  0  0  0  0  0  0
    1.6065   -3.8509   -3.8230 H   0  0  0  0  0  0  0  0  0  0  0  0
   -1.3457    1.3985    0.9119 C   0  0  0  0  0  0  0  0  0  0  0  0
   -0.7028    2.0726    1.7080 O   0  0  0  0  0  0  0  0  0  0  0  0
   -2.3008    1.9077    0.1270 N   0  0  0  0  0  0  0  0  0  0  0  0
   -2.7577    1.2870   -0.5205 H   0  0  0  0  0  0  0  0  0  0  0  0
   -2.6651    3.3253    0.0935 C   0  0  0  0  0  0  0  0  0  0  0  0
   -1.8087    3.9184   -0.2342 H   0  0  0  0  0  0  0  0  0  0  0  0
   -3.4944    3.4894   -0.5954 H   0  0  0  0  0  0  0  0  0  0  0  0
   -2.9542    3.6609    1.0919 H   0  0  0  0  0  0  0  0  0  0  0  0
  5  6  2  0  0  0  0
  5  7  1  0  0  0  0
  2  3  1  0  0  0  0
  2  4  1  0  0  0  0
  2  5  1  0  0  0  0
  1  2  1  0  0  0  0
 27 28  2  0  0  0  0
 27 29  1  0  0  0  0
 23 24  1  0  0  0  0
 23 25  1  0  0  0  0
 23 26  1  0  0  0  0
 20 21  1  0  0  0  0
 20 22  1  0  0  0  0
 20 23  1  0  0  0  0
 17 18  1  0  0  0  0
 17 19  1  0  0  0  0
 17 20  1  0  0  0  0
 14 15  1  0  0  0  0
 14 16  1  0  0  0  0
 14 17  1  0  0  0  0
 11 12  1  0  0  0  0
 11 13  1  0  0  0  0
 11 14  1  0  0  0  0
  9 10  1  0  0  0  0
  9 11  1  0  0  0  0
  9 27  1  0  0  0  0
  7  8  1  0  0  0  0
  7  9  1  0  0  0  0
 31 32  1  0  0  0  0
 31 33  1  0  0  0  0
 31 34  1  0  0  0  0
 29 30  1  0  0  0  0
 29 31  1  0  0  0  0
M  CHG  1  23   1
M  END
$$$$
default_name
  -OEChem-01062215323D

 34 33  0     1  0  0  0  0  0999 V2000
   -3.8899   -3.6747    1.6490 H   0  0  0  0  0  0  0  0  0  0  0  0
   -3.9109   -2.6717    1.2250 C   0  0  0  0  0  0  0  0  0  0  0  0
   -4.6009   -2.0517    1.7950 H   0  0  0  0  0  0  0  0  0  0  0  0
   -4.2309   -2.7237    0.1860 H   0  0  0  0  0  0  0  0  0  0  0  0
   -2.5229   -2.0787    1.2980 C   0  0  0  0  0  0  0  0  0  0  0  0
   -1.5999   -2.7227    1.7810 O   0  0  0  0  0  0  0  0  0  0  0  0
   -2.3659   -0.8447    0.8120 N   0  0  0  0  0  0  0  0  0  0  0  0
   -3.1749   -0.3807    0.4220 H   0  0  0  0  0  0  0  0  0  0  0  0
   -1.0919   -0.1077    0.8170 C   0  0  1  0  0  0  0  0  0  0  0  0
   -0.5176   -0.4225    1.6902 H   0  0  0  0  0  0  0  0  0  0  0  0
   -0.3065   -0.4790   -0.4549 C   0  0  0  0  0  0  0  0  0  0  0  0
   -0.9545   -0.3286   -1.3198 H   0  0  0  0  0  0  0  0  0  0  0  0
    0.5525    0.1876   -0.5535 H   0  0  0  0  0  0  0  0  0  0  0  0
    0.1801   -1.9362   -0.4636 C   0  0  0  0  0  0  0  0  0  0  0  0
    0.8198   -2.1151    0.4016 H   0  0  0  0  0  0  0  0  0  0  0  0
   -0.6825   -2.6035   -0.4133 H   0  0  0  0  0  0  0  0  0  0  0  0
    0.9734   -2.2272   -1.7450 C   0  0  0  0  0  0  0  0  0  0  0  0
    0.3348   -2.0327   -2.6100 H   0  0  0  0  0  0  0  0  0  0  0  0
    1.8397   -1.5639   -1.7859 H   0  0  0  0  0  0  0  0  0  0  0  0
    1.4387   -3.6886   -1.7667 C   0  0  0  0  0  0  0  0  0  0  0  0
    2.0697   -3.8649   -0.8895 H   0  0  0  0  0  0  0  0  0  0  0  0
    0.5596   -4.3346   -1.6824 H   0  0  0  0  0  0  0  0  0  0  0  0
    2.1893   -4.0041   -3.0083 N   0  3  0  0  0  0  0  0  0  0  0  0
    3.0099   -3.4165   -3.0866 H   0  0  0  0  0  0  0  0  0  0  0  0
    2.4887   -4.9712   -3.0072 H   0  0  0  0  0  0  0  0  0  0  0  0
    1.6065   -3.8509   -3.8230 H   0  0  0  0  0  0  0  0  0  0  0  0
   -1.3457    1.3985    0.9119 C   0  0  0  0  0  0  0  0  0  0  0  0
   -0.5361    2.1145    1.4894 O   0  0  0  0  0  0  0  0  0  0  0  0
   -2.4799    1.8618    0.3765 N   0  0  0  0  0  0  0  0  0  0  0  0
   -3.0729    1.2079   -0.1072 H   0  0  0  0  0  0  0  0  0  0  0  0
   -2.8712    3.2726    0.3792 C   0  0  0  0  0  0  0  0  0  0  0  0
   -2.1393    3.8593   -0.1801 H   0  0  0  0  0  0  0  0  0  0  0  0
   -3.8519    3.3968   -0.0815 H   0  0  0  0  0  0  0  0  0  0  0  0
   -2.9040    3.6497    1.4037 H   0  0  0  0  0  0  0  0  0  0  0  0
  5  6  2  0  0  0  0
  5  7  1  0  0  0  0
  2  3  1  0  0  0  0
  2  4  1  0  0  0  0
  2  5  1  0  0  0  0
  1  2  1  0  0  0  0
 27 28  2  0  0  0  0
 27 29  1  0  0  0  0
 23 24  1  0  0  0  0
 23 25  1  0  0  0  0
 23 26  1  0  0  0  0
 20 21  1  0  0  0  0
 20 22  1  0  0  0  0
 20 23  1  0  0  0  0
 17 18  1  0  0  0  0
 17 19  1  0  0  0  0
 17 20  1  0  0  0  0
 14 15  1  0  0  0  0
 14 16  1  0  0  0  0
 14 17  1  0  0  0  0
 11 12  1  0  0  0  0
 11 13  1  0  0  0  0
 11 14  1  0  0  0  0
  9 10  1  0  0  0  0
  9 11  1  0  0  0  0
  9 27  1  0  0  0  0
  7  8  1  0  0  0  0
  7  9  1  0  0  0  0
 31 32  1  0  0  0  0
 31 33  1  0  0  0  0
 31 34  1  0  0  0  0
 29 30  1  0  0  0  0
 29 31  1  0  0  0  0
M  CHG  1  23   1
M  END
$$$$
default_name
  -OEChem-01062215323D

 34 33  0     1  0  0  0  0  0999 V2000
   -3.8899   -3.6747    1.6490 H   0  0  0  0  0  0  0  0  0  0  0  0
   -3.9109   -2.6717    1.2250 C   0  0  0  0  0  0  0  0  0  0  0  0
   -4.6009   -2.0517    1.7950 H   0  0  0  0  0  0  0  0  0  0  0  0
   -4.2309   -2.7237    0.1860 H   0  0  0  0  0  0  0  0  0  0  0  0
   -2.5229   -2.0787    1.2980 C   0  0  0  0  0  0  0  0  0  0  0  0
   -1.5999   -2.7227    1.7810 O   0  0  0  0  0  0  0  0  0  0  0  0
   -2.3659   -0.8447    0.8120 N   0  0  0  0  0  0  0  0  0  0  0  0
   -3.1749   -0.3807    0.4220 H   0  0  0  0  0  0  0  0  0  0  0  0
   -1.0919   -0.1077    0.8170 C   0  0  1  0  0  0  0  0  0  0  0  0
   -0.5176   -0.4225    1.6902 H   0  0  0  0  0  0  0  0  0  0  0  0
   -0.3065   -0.4790   -0.4549 C   0  0  0  0  0  0  0  0  0  0  0  0
   -0.9545   -0.3286   -1.3198 H   0  0  0  0  0  0  0  0  0  0  0  0
    0.5525    0.1876   -0.5535 H   0  0  0  0  0  0  0  0  0  0  0  0
    0.1801   -1.9362   -0.4636 C   0  0  0  0  0  0  0  0  0  0  0  0
    0.8198   -2.1151    0.4016 H   0  0  0  0  0  0  0  0  0  0  0  0
   -0.6825   -2.6035   -0.4133 H   0  0  0  0  0  0  0  0  0  0  0  0
    0.9734   -2.2272   -1.7450 C   0  0  0  0  0  0  0  0  0  0  0  0
    0.3348   -2.0327   -2.6100 H   0  0  0  0  0  0  0  0  0  0  0  0
    1.8397   -1.5639   -1.7859 H   0  0  0  0  0  0  0  0  0  0  0  0
    1.4387   -3.6886   -1.7667 C   0  0  0  0  0  0  0  0  0  0  0  0
    2.0697   -3.8649   -0.8895 H   0  0  0  0  0  0  0  0  0  0  0  0
    0.5596   -4.3346   -1.6824 H   0  0  0  0  0  0  0  0  0  0  0  0
    2.1893   -4.0041   -3.0083 N   0  3  0  0  0  0  0  0  0  0  0  0
    3.0099   -3.4165   -3.0866 H   0  0  0  0  0  0  0  0  0  0  0  0
    2.4887   -4.9712   -3.0072 H   0  0  0  0  0  0  0  0  0  0  0  0
    1.6065   -3.8509   -3.8230 H   0  0  0  0  0  0  0  0  0  0  0  0
   -1.3457    1.3985    0.9119 C   0  0  0  0  0  0  0  0  0  0  0  0
   -0.4315    2.1482    1.2341 O   0  0  0  0  0  0  0  0  0  0  0  0
   -2.5885    1.8253    0.6650 N   0  0  0  0  0  0  0  0  0  0  0  0
   -3.2708    1.1441    0.3758 H   0  0  0  0  0  0  0  0  0  0  0  0
   -2.9967    3.2306    0.7099 C   0  0  0  0  0  0  0  0  0  0  0  0
   -2.4440    3.7992   -0.0411 H   0  0  0  0  0  0  0  0  0  0  0  0
   -4.0647    3.3237    0.5099 H   0  0  0  0  0  0  0  0  0  0  0  0
   -2.7759    3.6531    1.6926 H   0  0  0  0  0  0  0  0  0  0  0  0
  5  6  2  0  0  0  0
  5  7  1  0  0  0  0
  2  3  1  0  0  0  0
  2  4  1  0  0  0  0
  2  5  1  0  0  0  0
  1  2  1  0  0  0  0
 27 28  2  0  0  0  0
 27 29  1  0  0  0  0
 23 24  1  0  0  0  0
 23 25  1  0  0  0  0
 23 26  1  0  0  0  0
 20 21  1  0  0  0  0
 20 22  1  0  0  0  0
 20 23  1  0  0  0  0
 17 18  1  0  0  0  0
 17 19  1  0  0  0  0
 17 20  1  0  0  0  0
 14 15  1  0  0  0  0
 14 16  1  0  0  0  0
 14 17  1  0  0  0  0
 11 12  1  0  0  0  0
 11 13  1  0  0  0  0
 11 14  1  0  0  0  0
  9 10  1  0  0  0  0
  9 11  1  0  0  0  0
  9 27  1  0  0  0  0
  7  8  1  0  0  0  0
  7  9  1  0  0  0  0
 31 32  1  0  0  0  0
 31 33  1  0  0  0  0
 31 34  1  0  0  0  0
 29 30  1  0  0  0  0
 29 31  1  0  0  0  0
M  CHG  1  23   1
M  END
$$$$
default_name
  -OEChem-01062215323D

 34 33  0     1  0  0  0  0  0999 V2000
   -3.8899   -3.6747    1.6490 H   0  0  0  0  0  0  0  0  0  0  0  0
   -3.9109   -2.6717    1.2250 C   0  0  0  0  0  0  0  0  0  0  0  0
   -4.6009   -2.0517    1.7950 H   0  0  0  0  0  0  0  0  0  0  0  0
   -4.2309   -2.7237    0.1860 H   0  0  0  0  0  0  0  0  0  0  0  0
   -2.5229   -2.0787    1.2980 C   0  0  0  0  0  0  0  0  0  0  0  0
   -1.5999   -2.7227    1.7810 O   0  0  0  0  0  0  0  0  0  0  0  0
   -2.3659   -0.8447    0.8120 N   0  0  0  0  0  0  0  0  0  0  0  0
   -3.1749   -0.3807    0.4220 H   0  0  0  0  0  0  0  0  0  0  0  0
   -1.0919   -0.1077    0.8170 C   0  0  1  0  0  0  0  0  0  0  0  0
   -0.5176   -0.4225    1.6902 H   0  0  0  0  0  0  0  0  0  0  0  0
   -0.3065   -0.4790   -0.4549 C   0  0  0  0  0  0  0  0  0  0  0  0
   -0.9545   -0.3286   -1.3198 H   0  0  0  0  0  0  0  0  0  0  0  0
    0.5525    0.1876   -0.5535 H   0  0  0  0  0  0  0  0  0  0  0  0
    0.1801   -1.9362   -0.4636 C   0  0  0  0  0  0  0  0  0  0  0  0
    0.8198   -2.1151    0.4016 H   0  0  0  0  0  0  0  0  0  0  0  0
   -0.6825   -2.6035   -0.4133 H   0  0  0  0  0  0  0  0  0  0  0  0
    0.9734   -2.2272   -1.7450 C   0  0  0  0  0  0  0  0  0  0  0  0
    0.3348   -2.0327   -2.6100 H   0  0  0  0  0  0  0  0  0  0  0  0
    1.8397   -1.5639   -1.7859 H   0  0  0  0  0  0  0  0  0  0  0  0
    1.4387   -3.6886   -1.7667 C   0  0  0  0  0  0  0  0  0  0  0  0
    2.0697   -3.8649   -0.8895 H   0  0  0  0  0  0  0  0  0  0  0  0
    0.5596   -4.3346   -1.6824 H   0  0  0  0  0  0  0  0  0  0  0  0
    2.1893   -4.0041   -3.0083 N   0  3  0  0  0  0  0  0  0  0  0  0
    3.0099   -3.4165   -3.0866 H   0  0  0  0  0  0  0  0  0  0  0  0
    2.4887   -4.9712   -3.0072 H   0  0  0  0  0  0  0  0  0  0  0  0
    1.6065   -3.8509   -3.8230 H   0  0  0  0  0  0  0  0  0  0  0  0
   -1.3457    1.3985    0.9119 C   0  0  0  0  0  0  0  0  0  0  0  0
   -0.3961    2.1715    0.9594 O   0  0  0  0  0  0  0  0  0  0  0  0
   -2.6193    1.8007    0.9730 N   0  0  0  0  0  0  0  0  0  0  0  0
   -3.3379    1.1001    0.8954 H   0  0  0  0  0  0  0  0  0  0  0  0
   -3.0329    3.2022    1.0631 C   0  0  0  0  0  0  0  0  0  0  0  0
   -2.7019    3.7422    0.1734 H   0  0  0  0  0  0  0  0  0  0  0  0
   -4.1185    3.2750    1.1385 H   0  0  0  0  0  0  0  0  0  0  0  0
   -2.5786    3.6708    1.9388 H   0  0  0  0  0  0  0  0  0  0  0  0
  5  6  2  0  0  0  0
  5  7  1  0  0  0  0
  2  3  1  0  0  0  0
  2  4  1  0  0  0  0
  2  5  1  0  0  0  0
  1  2  1  0  0  0  0
 27 28  2  0  0  0  0
 27 29  1  0  0  0  0
 23 24  1  0  0  0  0
 23 25  1  0  0  0  0
 23 26  1  0  0  0  0
 20 21  1  0  0  0  0
 20 22  1  0  0  0  0
 20 23  1  0  0  0  0
 17 18  1  0  0  0  0
 17 19  1  0  0  0  0
 17 20  1  0  0  0  0
 14 15  1  0  0  0  0
 14 16  1  0  0  0  0
 14 17  1  0  0  0  0
 11 12  1  0  0  0  0
 11 13  1  0  0  0  0
 11 14  1  0  0  0  0
  9 10  1  0  0  0  0
  9 11  1  0  0  0  0
  9 27  1  0  0  0  0
  7  8  1  0  0  0  0
  7  9  1  0  0  0  0
 31 32  1  0  0  0  0
 31 33  1  0  0  0  0
 31 34  1  0  0  0  0
 29 30  1  0  0  0  0
 29 31  1  0  0  0  0
M  CHG  1  23   1
M  END
$$$$
default_name
  -OEChem-01062215323D

 34 33  0     1  0  0  0  0  0999 V2000
   -3.8899   -3.6747    1.6490 H   0  0  0  0  0  0  0  0  0  0  0  0
   -3.9109   -2.6717    1.2250 C   0  0  0  0  0  0  0  0  0  0  0  0
   -4.6009   -2.0517    1.7950 H   0  0  0  0  0  0  0  0  0  0  0  0
   -4.2309   -2.7237    0.1860 H   0  0  0  0  0  0  0  0  0  0  0  0
   -2.5229   -2.0787    1.2980 C   0  0  0  0  0  0  0  0  0  0  0  0
   -1.5999   -2.7227    1.7810 O   0  0  0  0  0  0  0  0  0  0  0  0
   -2.3659   -0.8447    0.8120 N   0  0  0  0  0  0  0  0  0  0  0  0
   -3.1749   -0.3807    0.4220 H   0  0  0  0  0  0  0  0  0  0  0  0
   -1.0919   -0.1077    0.8170 C   0  0  1  0  0  0  0  0  0  0  0  0
   -0.5176   -0.4225    1.6902 H   0  0  0  0  0  0  0  0  0  0  0  0
   -0.3065   -0.4790   -0.4549 C   0  0  0  0  0  0  0  0  0  0  0  0
   -0.9545   -0.3286   -1.3198 H   0  0  0  0  0  0  0  0  0  0  0  0
    0.5525    0.1876   -0.5535 H   0  0  0  0  0  0  0  0  0  0  0  0
    0.1801   -1.9362   -0.4636 C   0  0  0  0  0  0  0  0  0  0  0  0
    0.8198   -2.1151    0.4016 H   0  0  0  0  0  0  0  0  0  0  0  0
   -0.6825   -2.6035   -0.4133 H   0  0  0  0  0  0  0  0  0  0  0  0
    0.9734   -2.2272   -1.7450 C   0  0  0  0  0  0  0  0  0  0  0  0
    0.3348   -2.0327   -2.6100 H   0  0  0  0  0  0  0  0  0  0  0  0
    1.8397   -1.5639   -1.7859 H   0  0  0  0  0  0  0  0  0  0  0  0
    1.4387   -3.6886   -1.7667 C   0  0  0  0  0  0  0  0  0  0  0  0
    2.0697   -3.8649   -0.8895 H   0  0  0  0  0  0  0  0  0  0  0  0
    0.5596   -4.3346   -1.6824 H   0  0  0  0  0  0  0  0  0  0  0  0
    2.1893   -4.0041   -3.0083 N   0  3  0  0  0  0  0  0  0  0  0  0
    3.0099   -3.4165   -3.0866 H   0  0  0  0  0  0  0  0  0  0  0  0
    2.4887   -4.9712   -3.0072 H   0  0  0  0  0  0  0  0  0  0  0  0
    1.6065   -3.8509   -3.8230 H   0  0  0  0  0  0  0  0  0  0  0  0
   -1.3457    1.3985    0.9119 C   0  0  0  0  0  0  0  0  0  0  0  0
   -0.4322    2.1828    0.6840 O   0  0  0  0  0  0  0  0  0  0  0  0
   -2.5703    1.7896    1.2794 N   0  0  0  0  0  0  0  0  0  0  0  0
   -3.2696    1.0787    1.4163 H   0  0  0  0  0  0  0  0  0  0  0  0
   -2.9776    3.1894    1.4147 C   0  0  0  0  0  0  0  0  0  0  0  0
   -2.8955    3.6923    0.4487 H   0  0  0  0  0  0  0  0  0  0  0  0
   -4.0095    3.2541    1.7614 H   0  0  0  0  0  0  0  0  0  0  0  0
   -2.3257    3.7016    2.1257 H   0  0  0  0  0  0  0  0  0  0  0  0
  5  6  2  0  0  0  0
  5  7  1  0  0  0  0
  2  3  1  0  0  0  0
  2  4  1  0  0  0  0
  2  5  1  0  0  0  0
  1  2  1  0  0  0  0
 27 28  2  0  0  0  0
 27 29  1  0  0  0  0
 23 24  1  0  0  0  0
 23 25  1  0  0  0  0
 23 26  1  0  0  0  0
 20 21  1  0  0  0  0
 20 22  1  0  0  0  0
 20 23  1  0  0  0  0
 17 18  1  0  0  0  0
 17 19  1  0  0  0  0
 17 20  1  0  0  0  0
 14 15  1  0  0  0  0
 14 16  1  0  0  0  0
 14 17  1  0  0  0  0
 11 12  1  0  0  0  0
 11 13  1  0  0  0  0
 11 14  1  0  0  0  0
  9 10  1  0  0  0  0
  9 11  1  0  0  0  0
  9 27  1  0  0  0  0
  7  8  1  0  0  0  0
  7  9  1  0  0  0  0
 31 32  1  0  0  0  0
 31 33  1  0  0  0  0
 31 34  1  0  0  0  0
 29 30  1  0  0  0  0
 29 31  1  0  0  0  0
M  CHG  1  23   1
M  END
$$$$
default_name
  -OEChem-01062215323D

 34 33  0     1  0  0  0  0  0999 V2000
   -3.8899   -3.6747    1.6490 H   0  0  0  0  0  0  0  0  0  0  0  0
   -3.9109   -2.6717    1.2250 C   0  0  0  0  0  0  0  0  0  0  0  0
   -4.6009   -2.0517    1.7950 H   0  0  0  0  0  0  0  0  0  0  0  0
   -4.2309   -2.7237    0.1860 H   0  0  0  0  0  0  0  0  0  0  0  0
   -2.5229   -2.0787    1.2980 C   0  0  0  0  0  0  0  0  0  0  0  0
   -1.5999   -2.7227    1.7810 O   0  0  0  0  0  0  0  0  0  0  0  0
   -2.3659   -0.8447    0.8120 N   0  0  0  0  0  0  0  0  0  0  0  0
   -3.1749   -0.3807    0.4220 H   0  0  0  0  0  0  0  0  0  0  0  0
   -1.0919   -0.1077    0.8170 C   0  0  1  0  0  0  0  0  0  0  0  0
   -0.5176   -0.4225    1.6902 H   0  0  0  0  0  0  0  0  0  0  0  0
   -0.3065   -0.4790   -0.4549 C   0  0  0  0  0  0  0  0  0  0  0  0
   -0.9545   -0.3286   -1.3198 H   0  0  0  0  0  0  0  0  0  0  0  0
    0.5525    0.1876   -0.5535 H   0  0  0  0  0  0  0  0  0  0  0  0
    0.1801   -1.9362   -0.4636 C   0  0  0  0  0  0  0  0  0  0  0  0
    0.8198   -2.1151    0.4016 H   0  0  0  0  0  0  0  0  0  0  0  0
   -0.6825   -2.6035   -0.4133 H   0  0  0  0  0  0  0  0  0  0  0  0
    0.9734   -2.2272   -1.7450 C   0  0  0  0  0  0  0  0  0  0  0  0
    0.3348   -2.0327   -2.6100 H   0  0  0  0  0  0  0  0  0  0  0  0
    1.8397   -1.5639   -1.7859 H   0  0  0  0  0  0  0  0  0  0  0  0
    1.4387   -3.6886   -1.7667 C   0  0  0  0  0  0  0  0  0  0  0  0
    2.0697   -3.8649   -0.8895 H   0  0  0  0  0  0  0  0  0  0  0  0
    0.5596   -4.3346   -1.6824 H   0  0  0  0  0  0  0  0  0  0  0  0
    2.1893   -4.0041   -3.0083 N   0  3  0  0  0  0  0  0  0  0  0  0
    3.0099   -3.4165   -3.0866 H   0  0  0  0  0  0  0  0  0  0  0  0
    2.4887   -4.9712   -3.0072 H   0  0  0  0  0  0  0  0  0  0  0  0
    1.6065   -3.8509   -3.8230 H   0  0  0  0  0  0  0  0  0  0  0  0
   -1.3457    1.3985    0.9119 C   0  0  0  0  0  0  0  0  0  0  0  0
   -0.5374    2.1813    0.4267 O   0  0  0  0  0  0  0  0  0  0  0  0
   -2.4447    1.7929    1.5633 N   0  0  0  0  0  0  0  0  0  0  0  0
   -3.0706    1.0816    1.9030 H   0  0  0  0  0  0  0  0  0  0  0  0
   -2.8343    3.1930    1.7407 C   0  0  0  0  0  0  0  0  0  0  0  0
   -3.0115    3.6527    0.7661 H   0  0  0  0  0  0  0  0  0  0  0  0
   -3.7453    3.2624    2.3363 H   0  0  0  0  0  0  0  0  0  0  0  0
   -2.0342    3.7435    2.2404 H   0  0  0  0  0  0  0  0  0  0  0  0
  5  6  2  0  0  0  0
  5  7  1  0  0  0  0
  2  3  1  0  0  0  0
  2  4  1  0  0  0  0
  2  5  1  0  0  0  0
  1  2  1  0  0  0  0
 27 28  2  0  0  0  0
 27 29  1  0  0  0  0
 23 24  1  0  0  0  0
 23 25  1  0  0  0  0
 23 26  1  0  0  0  0
 20 21  1  0  0  0  0
 20 22  1  0  0  0  0
 20 23  1  0  0  0  0
 17 18  1  0  0  0  0
 17 19  1  0  0  0  0
 17 20  1  0  0  0  0
 14 15  1  0  0  0  0
 14 16  1  0  0  0  0
 14 17  1  0  0  0  0
 11 12  1  0  0  0  0
 11 13  1  0  0  0  0
 11 14  1  0  0  0  0
  9 10  1  0  0  0  0
  9 11  1  0  0  0  0
  9 27  1  0  0  0  0
  7  8  1  0  0  0  0
  7  9  1  0  0  0  0
 31 32  1  0  0  0  0
 31 33  1  0  0  0  0
 31 34  1  0  0  0  0
 29 30  1  0  0  0  0
 29 31  1  0  0  0  0
M  CHG  1  23   1
M  END
$$$$
default_name
  -OEChem-01062215323D

 34 33  0     1  0  0  0  0  0999 V2000
   -3.8899   -3.6747    1.6490 H   0  0  0  0  0  0  0  0  0  0  0  0
   -3.9109   -2.6717    1.2250 C   0  0  0  0  0  0  0  0  0  0  0  0
   -4.6009   -2.0517    1.7950 H   0  0  0  0  0  0  0  0  0  0  0  0
   -4.2309   -2.7237    0.1860 H   0  0  0  0  0  0  0  0  0  0  0  0
   -2.5229   -2.0787    1.2980 C   0  0  0  0  0  0  0  0  0  0  0  0
   -1.5999   -2.7227    1.7810 O   0  0  0  0  0  0  0  0  0  0  0  0
   -2.3659   -0.8447    0.8120 N   0  0  0  0  0  0  0  0  0  0  0  0
   -3.1749   -0.3807    0.4220 H   0  0  0  0  0  0  0  0  0  0  0  0
   -1.0919   -0.1077    0.8170 C   0  0  1  0  0  0  0  0  0  0  0  0
   -0.5176   -0.4225    1.6902 H   0  0  0  0  0  0  0  0  0  0  0  0
   -0.3065   -0.4790   -0.4549 C   0  0  0  0  0  0  0  0  0  0  0  0
   -0.9545   -0.3286   -1.3198 H   0  0  0  0  0  0  0  0  0  0  0  0
    0.5525    0.1876   -0.5535 H   0  0  0  0  0  0  0  0  0  0  0  0
    0.1801   -1.9362   -0.4636 C   0  0  0  0  0  0  0  0  0  0  0  0
    0.8198   -2.1151    0.4016 H   0  0  0  0  0  0  0  0  0  0  0  0
   -0.6825   -2.6035   -0.4133 H   0  0  0  0  0  0  0  0  0  0  0  0
    0.9734   -2.2272   -1.7450 C   0  0  0  0  0  0  0  0  0  0  0  0
    0.3348   -2.0327   -2.6100 H   0  0  0  0  0  0  0  0  0  0  0  0
    1.8397   -1.5639   -1.7859 H   0  0  0  0  0  0  0  0  0  0  0  0
    1.4387   -3.6886   -1.7667 C   0  0  0  0  0  0  0  0  0  0  0  0
    2.0697   -3.8649   -0.8895 H   0  0  0  0  0  0  0  0  0  0  0  0
    0.5596   -4.3346   -1.6824 H   0  0  0  0  0  0  0  0  0  0  0  0
    2.1893   -4.0041   -3.0083 N   0  3  0  0  0  0  0  0  0  0  0  0
    3.0099   -3.4165   -3.0866 H   0  0  0  0  0  0  0  0  0  0  0  0
    2.4887   -4.9712   -3.0072 H   0  0  0  0  0  0  0  0  0  0  0  0
    1.6065   -3.8509   -3.8230 H   0  0  0  0  0  0  0  0  0  0  0  0
   -1.3457    1.3985    0.9119 C   0  0  0  0  0  0  0  0  0  0  0  0
   -0.7045    2.1671    0.2050 O   0  0  0  0  0  0  0  0  0  0  0  0
   -2.2511    1.8103    1.8054 N   0  0  0  0  0  0  0  0  0  0  0  0
   -2.7545    1.1084    2.3223 H   0  0  0  0  0  0  0  0  0  0  0  0
   -2.6129    3.2127    2.0190 C   0  0  0  0  0  0  0  0  0  0  0  0
   -3.0421    3.6263    1.1039 H   0  0  0  0  0  0  0  0  0  0  0  0
   -3.3437    3.2993    2.8240 H   0  0  0  0  0  0  0  0  0  0  0  0
   -1.7241    3.7936    2.2752 H   0  0  0  0  0  0  0  0  0  0  0  0
  5  6  2  0  0  0  0
  5  7  1  0  0  0  0
  2  3  1  0  0  0  0
  2  4  1  0  0  0  0
  2  5  1  0  0  0  0
  1  2  1  0  0  0  0
 27 28  2  0  0  0  0
 27 29  1  0  0  0  0
 23 24  1  0  0  0  0
 23 25  1  0  0  0  0
 23 26  1  0  0  0  0
 20 21  1  0  0  0  0
 20 22  1  0  0  0  0
 20 23  1  0  0  0  0
 17 18  1  0  0  0  0
 17 19  1  0  0  0  0
 17 20  1  0  0  0  0
 14 15  1  0  0  0  0
 14 16  1  0  0  0  0
 14 17  1  0  0  0  0
 11 12  1  0  0  0  0
 11 13  1  0  0  0  0
 11 14  1  0  0  0  0
  9 10  1  0  0  0  0
  9 11  1  0  0  0  0
  9 27  1  0  0  0  0
  7  8  1  0  0  0  0
  7  9  1  0  0  0  0
 31 32  1  0  0  0  0
 31 33  1  0  0  0  0
 31 34  1  0  0  0  0
 29 30  1  0  0  0  0
 29 31  1  0  0  0  0
M  CHG  1  23   1
M  END
$$$$
default_name
  -OEChem-01062215323D

 34 33  0     1  0  0  0  0  0999 V2000
   -3.8899   -3.6747    1.6490 H   0  0  0  0  0  0  0  0  0  0  0  0
   -3.9109   -2.6717    1.2250 C   0  0  0  0  0  0  0  0  0  0  0  0
   -4.6009   -2.0517    1.7950 H   0  0  0  0  0  0  0  0  0  0  0  0
   -4.2309   -2.7237    0.1860 H   0  0  0  0  0  0  0  0  0  0  0  0
   -2.5229   -2.0787    1.2980 C   0  0  0  0  0  0  0  0  0  0  0  0
   -1.5999   -2.7227    1.7810 O   0  0  0  0  0  0  0  0  0  0  0  0
   -2.3659   -0.8447    0.8120 N   0  0  0  0  0  0  0  0  0  0  0  0
   -3.1749   -0.3807    0.4220 H   0  0  0  0  0  0  0  0  0  0  0  0
   -1.0919   -0.1077    0.8170 C   0  0  1  0  0  0  0  0  0  0  0  0
   -0.5176   -0.4225    1.6902 H   0  0  0  0  0  0  0  0  0  0  0  0
   -0.3065   -0.4790   -0.4549 C   0  0  0  0  0  0  0  0  0  0  0  0
   -0.9545   -0.3286   -1.3198 H   0  0  0  0  0  0  0  0  0  0  0  0
    0.5525    0.1876   -0.5535 H   0  0  0  0  0  0  0  0  0  0  0  0
    0.1801   -1.9362   -0.4636 C   0  0  0  0  0  0  0  0  0  0  0  0
    0.8198   -2.1151    0.4016 H   0  0  0  0  0  0  0  0  0  0  0  0
   -0.6825   -2.6035   -0.4133 H   0  0  0  0  0  0  0  0  0  0  0  0
    0.9734   -2.2272   -1.7450 C   0  0  0  0  0  0  0  0  0  0  0  0
    0.3348   -2.0327   -2.6100 H   0  0  0  0  0  0  0  0  0  0  0  0
    1.8397   -1.5639   -1.7859 H   0  0  0  0  0  0  0  0  0  0  0  0
    1.4387   -3.6886   -1.7667 C   0  0  0  0  0  0  0  0  0  0  0  0
    2.0697   -3.8649   -0.8895 H   0  0  0  0  0  0  0  0  0  0  0  0
    0.5596   -4.3346   -1.6824 H   0  0  0  0  0  0  0  0  0  0  0  0
    2.1893   -4.0041   -3.0083 N   0  3  0  0  0  0  0  0  0  0  0  0
    3.0099   -3.4165   -3.0866 H   0  0  0  0  0  0  0  0  0  0  0  0
    2.4887   -4.9712   -3.0072 H   0  0  0  0  0  0  0  0  0  0  0  0
    1.6065   -3.8509   -3.8230 H   0  0  0  0  0  0  0  0  0  0  0  0
   -1.3457    1.3985    0.9119 C   0  0  0  0  0  0  0  0  0  0  0  0
   -0.9222    2.1412    0.0340 O   0  0  0  0  0  0  0  0  0  0  0  0
   -2.0027    1.8405    1.9892 N   0  0  0  0  0  0  0  0  0  0  0  0
   -2.3427    1.1574    2.6456 H   0  0  0  0  0  0  0  0  0  0  0  0
   -2.3285    3.2473    2.2306 C   0  0  0  0  0  0  0  0  0  0  0  0
   -2.9852    3.6147    1.4392 H   0  0  0  0  0  0  0  0  0  0  0  0
   -2.8322    3.3623    3.1911 H   0  0  0  0  0  0  0  0  0  0  0  0
   -1.4166    3.8484    2.2277 H   0  0  0  0  0  0  0  0  0  0  0  0
  5  6  2  0  0  0  0
  5  7  1  0  0  0  0
  2  3  1  0  0  0  0
  2  4  1  0  0  0  0
  2  5  1  0  0  0  0
  1  2  1  0  0  0  0
 27 28  2  0  0  0  0
 27 29  1  0  0  0  0
 23 24  1  0  0  0  0
 23 25  1  0  0  0  0
 23 26  1  0  0  0  0
 20 21  1  0  0  0  0
 20 22  1  0  0  0  0
 20 23  1  0  0  0  0
 17 18  1  0  0  0  0
 17 19  1  0  0  0  0
 17 20  1  0  0  0  0
 14 15  1  0  0  0  0
 14 16  1  0  0  0  0
 14 17  1  0  0  0  0
 11 12  1  0  0  0  0
 11 13  1  0  0  0  0
 11 14  1  0  0  0  0
  9 10  1  0  0  0  0
  9 11  1  0  0  0  0
  9 27  1  0  0  0  0
  7  8  1  0  0  0  0
  7  9  1  0  0  0  0
 31 32  1  0  0  0  0
 31 33  1  0  0  0  0
 31 34  1  0  0  0  0
 29 30  1  0  0  0  0
 29 31  1  0  0  0  0
M  CHG  1  23   1
M  END
$$$$
default_name
  -OEChem-01062215323D

 34 33  0     1  0  0  0  0  0999 V2000
   -3.8899   -3.6747    1.6490 H   0  0  0  0  0  0  0  0  0  0  0  0
   -3.9109   -2.6717    1.2250 C   0  0  0  0  0  0  0  0  0  0  0  0
   -4.6009   -2.0517    1.7950 H   0  0  0  0  0  0  0  0  0  0  0  0
   -4.2309   -2.7237    0.1860 H   0  0  0  0  0  0  0  0  0  0  0  0
   -2.5229   -2.0787    1.2980 C   0  0  0  0  0  0  0  0  0  0  0  0
   -1.5999   -2.7227    1.7810 O   0  0  0  0  0  0  0  0  0  0  0  0
   -2.3659   -0.8447    0.8120 N   0  0  0  0  0  0  0  0  0  0  0  0
   -3.1749   -0.3807    0.4220 H   0  0  0  0  0  0  0  0  0  0  0  0
   -1.0919   -0.1077    0.8170 C   0  0  1  0  0  0  0  0  0  0  0  0
   -0.5176   -0.4225    1.6902 H   0  0  0  0  0  0  0  0  0  0  0  0
   -0.3065   -0.4790   -0.4549 C   0  0  0  0  0  0  0  0  0  0  0  0
   -0.9545   -0.3286   -1.3198 H   0  0  0  0  0  0  0  0  0  0  0  0
    0.5525    0.1876   -0.5535 H   0  0  0  0  0  0  0  0  0  0  0  0
    0.1801   -1.9362   -0.4636 C   0  0  0  0  0  0  0  0  0  0  0  0
    0.8198   -2.1151    0.4016 H   0  0  0  0  0  0  0  0  0  0  0  0
   -0.6825   -2.6035   -0.4133 H   0  0  0  0  0  0  0  0  0  0  0  0
    0.9734   -2.2272   -1.7450 C   0  0  0  0  0  0  0  0  0  0  0  0
    0.3348   -2.0327   -2.6100 H   0  0  0  0  0  0  0  0  0  0  0  0
    1.8397   -1.5639   -1.7859 H   0  0  0  0  0  0  0  0  0  0  0  0
    1.4387   -3.6886   -1.7667 C   0  0  0  0  0  0  0  0  0  0  0  0
    2.0697   -3.8649   -0.8895 H   0  0  0  0  0  0  0  0  0  0  0  0
    0.5596   -4.3346   -1.6824 H   0  0  0  0  0  0  0  0  0  0  0  0
    2.1893   -4.0041   -3.0083 N   0  3  0  0  0  0  0  0  0  0  0  0
    3.0099   -3.4165   -3.0866 H   0  0  0  0  0  0  0  0  0  0  0  0
    2.4887   -4.9712   -3.0072 H   0  0  0  0  0  0  0  0  0  0  0  0
    1.6065   -3.8509   -3.8230 H   0  0  0  0  0  0  0  0  0  0  0  0
   -1.3457    1.3985    0.9119 C   0  0  0  0  0  0  0  0  0  0  0  0
   -1.1756    2.1053   -0.0745 O   0  0  0  0  0  0  0  0  0  0  0  0
   -1.7164    1.8816    2.1022 N   0  0  0  0  0  0  0  0  0  0  0  0
   -1.8635    1.2252    2.8510 H   0  0  0  0  0  0  0  0  0  0  0  0
   -2.0004    3.2944    2.3611 C   0  0  0  0  0  0  0  0  0  0  0  0
   -2.8447    3.6189    1.7490 H   0  0  0  0  0  0  0  0  0  0  0  0
   -2.2456    3.4472    3.4127 H   0  0  0  0  0  0  0  0  0  0  0  0
   -1.1325    3.9042    2.1010 H   0  0  0  0  0  0  0  0  0  0  0  0
  5  6  2  0  0  0  0
  5  7  1  0  0  0  0
  2  3  1  0  0  0  0
  2  4  1  0  0  0  0
  2  5  1  0  0  0  0
  1  2  1  0  0  0  0
 27 28  2  0  0  0  0
 27 29  1  0  0  0  0
 23 24  1  0  0  0  0
 23 25  1  0  0  0  0
 23 26  1  0  0  0  0
 20 21  1  0  0  0  0
 20 22  1  0  0  0  0
 20 23  1  0  0  0  0
 17 18  1  0  0  0  0
 17 19  1  0  0  0  0
 17 20  1  0  0  0  0
 14 15  1  0  0  0  0
 14 16  1  0  0  0  0
 14 17  1  0  0  0  0
 11 12  1  0  0  0  0
 11 13  1  0  0  0  0
 11 14  1  0  0  0  0
  9 10  1  0  0  0  0
  9 11  1  0  0  0  0
  9 27  1  0  0  0  0
  7  8  1  0  0  0  0
  7  9  1  0  0  0  0
 31 32  1  0  0  0  0
 31 33  1  0  0  0  0
 31 34  1  0  0  0  0
 29 30  1  0  0  0  0
 29 31  1  0  0  0  0
M  CHG  1  23   1
M  END
$$$$
default_name
  -OEChem-01062215323D

 34 33  0     1  0  0  0  0  0999 V2000
   -3.8899   -3.6747    1.6490 H   0  0  0  0  0  0  0  0  0  0  0  0
   -3.9109   -2.6717    1.2250 C   0  0  0  0  0  0  0  0  0  0  0  0
   -4.6009   -2.0517    1.7950 H   0  0  0  0  0  0  0  0  0  0  0  0
   -4.2309   -2.7237    0.1860 H   0  0  0  0  0  0  0  0  0  0  0  0
   -2.5229   -2.0787    1.2980 C   0  0  0  0  0  0  0  0  0  0  0  0
   -1.5999   -2.7227    1.7810 O   0  0  0  0  0  0  0  0  0  0  0  0
   -2.3659   -0.8447    0.8120 N   0  0  0  0  0  0  0  0  0  0  0  0
   -3.1749   -0.3807    0.4220 H   0  0  0  0  0  0  0  0  0  0  0  0
   -1.0919   -0.1077    0.8170 C   0  0  1  0  0  0  0  0  0  0  0  0
   -0.5176   -0.4225    1.6902 H   0  0  0  0  0  0  0  0  0  0  0  0
   -0.3065   -0.4790   -0.4549 C   0  0  0  0  0  0  0  0  0  0  0  0
   -0.9545   -0.3286   -1.3198 H   0  0  0  0  0  0  0  0  0  0  0  0
    0.5525    0.1876   -0.5535 H   0  0  0  0  0  0  0  0  0  0  0  0
    0.1801   -1.9362   -0.4636 C   0  0  0  0  0  0  0  0  0  0  0  0
    0.8198   -2.1151    0.4016 H   0  0  0  0  0  0  0  0  0  0  0  0
   -0.6825   -2.6035   -0.4133 H   0  0  0  0  0  0  0  0  0  0  0  0
    0.9734   -2.2272   -1.7450 C   0  0  0  0  0  0  0  0  0  0  0  0
    0.3348   -2.0327   -2.6100 H   0  0  0  0  0  0  0  0  0  0  0  0
    1.8397   -1.5639   -1.7859 H   0  0  0  0  0  0  0  0  0  0  0  0
    1.4387   -3.6886   -1.7667 C   0  0  0  0  0  0  0  0  0  0  0  0
    2.0697   -3.8649   -0.8895 H   0  0  0  0  0  0  0  0  0  0  0  0
    0.5596   -4.3346   -1.6824 H   0  0  0  0  0  0  0  0  0  0  0  0
    2.1893   -4.0041   -3.0083 N   0  3  0  0  0  0  0  0  0  0  0  0
    3.0099   -3.4165   -3.0866 H   0  0  0  0  0  0  0  0  0  0  0  0
    2.4887   -4.9712   -3.0072 H   0  0  0  0  0  0  0  0  0  0  0  0
    1.6065   -3.8509   -3.8230 H   0  0  0  0  0  0  0  0  0  0  0  0
   -1.3457    1.3985    0.9119 C   0  0  0  0  0  0  0  0  0  0  0  0
   -1.4474    2.0620   -0.1133 O   0  0  0  0  0  0  0  0  0  0  0  0
   -1.4118    1.9308    2.1366 N   0  0  0  0  0  0  0  0  0  0  0  0
   -1.3493    1.3072    2.9243 H   0  0  0  0  0  0  0  0  0  0  0  0
   -1.6511    3.3507    2.4015 C   0  0  0  0  0  0  0  0  0  0  0  0
   -2.6300    3.6384    2.0123 H   0  0  0  0  0  0  0  0  0  0  0  0
   -1.6239    3.5481    3.4737 H   0  0  0  0  0  0  0  0  0  0  0  0
   -0.8912    3.9573    1.9040 H   0  0  0  0  0  0  0  0  0  0  0  0
  5  6  2  0  0  0  0
  5  7  1  0  0  0  0
  2  3  1  0  0  0  0
  2  4  1  0  0  0  0
  2  5  1  0  0  0  0
  1  2  1  0  0  0  0
 27 28  2  0  0  0  0
 27 29  1  0  0  0  0
 23 24  1  0  0  0  0
 23 25  1  0  0  0  0
 23 26  1  0  0  0  0
 20 21  1  0  0  0  0
 20 22  1  0  0  0  0
 20 23  1  0  0  0  0
 17 18  1  0  0  0  0
 17 19  1  0  0  0  0
 17 20  1  0  0  0  0
 14 15  1  0  0  0  0
 14 16  1  0  0  0  0
 14 17  1  0  0  0  0
 11 12  1  0  0  0  0
 11 13  1  0  0  0  0
 11 14  1  0  0  0  0
  9 10  1  0  0  0  0
  9 11  1  0  0  0  0
  9 27  1  0  0  0  0
  7  8  1  0  0  0  0
  7  9  1  0  0  0  0
 31 32  1  0  0  0  0
 31 33  1  0  0  0  0
 31 34  1  0  0  0  0
 29 30  1  0  0  0  0
 29 31  1  0  0  0  0
M  CHG  1  23   1
M  END
$$$$
default_name
  -OEChem-01062215323D

 34 33  0     1  0  0  0  0  0999 V2000
   -3.8899   -3.6747    1.6490 H   0  0  0  0  0  0  0  0  0  0  0  0
   -3.9109   -2.6717    1.2250 C   0  0  0  0  0  0  0  0  0  0  0  0
   -4.6009   -2.0517    1.7950 H   0  0  0  0  0  0  0  0  0  0  0  0
   -4.2309   -2.7237    0.1860 H   0  0  0  0  0  0  0  0  0  0  0  0
   -2.5229   -2.0787    1.2980 C   0  0  0  0  0  0  0  0  0  0  0  0
   -1.5999   -2.7227    1.7810 O   0  0  0  0  0  0  0  0  0  0  0  0
   -2.3659   -0.8447    0.8120 N   0  0  0  0  0  0  0  0  0  0  0  0
   -3.1749   -0.3807    0.4220 H   0  0  0  0  0  0  0  0  0  0  0  0
   -1.0919   -0.1077    0.8170 C   0  0  1  0  0  0  0  0  0  0  0  0
   -0.5176   -0.4225    1.6902 H   0  0  0  0  0  0  0  0  0  0  0  0
   -0.3065   -0.4790   -0.4549 C   0  0  0  0  0  0  0  0  0  0  0  0
   -0.9545   -0.3286   -1.3198 H   0  0  0  0  0  0  0  0  0  0  0  0
    0.5525    0.1876   -0.5535 H   0  0  0  0  0  0  0  0  0  0  0  0
    0.1801   -1.9362   -0.4636 C   0  0  0  0  0  0  0  0  0  0  0  0
    0.8198   -2.1151    0.4016 H   0  0  0  0  0  0  0  0  0  0  0  0
   -0.6825   -2.6035   -0.4133 H   0  0  0  0  0  0  0  0  0  0  0  0
    0.9734   -2.2272   -1.7450 C   0  0  0  0  0  0  0  0  0  0  0  0
    0.3348   -2.0327   -2.6100 H   0  0  0  0  0  0  0  0  0  0  0  0
    1.8397   -1.5639   -1.7859 H   0  0  0  0  0  0  0  0  0  0  0  0
    1.4387   -3.6886   -1.7667 C   0  0  0  0  0  0  0  0  0  0  0  0
    2.0697   -3.8649   -0.8895 H   0  0  0  0  0  0  0  0  0  0  0  0
    0.5596   -4.3346   -1.6824 H   0  0  0  0  0  0  0  0  0  0  0  0
    2.1893   -4.0041   -3.0083 N   0  3  0  0  0  0  0  0  0  0  0  0
    3.0099   -3.4165   -3.0866 H   0  0  0  0  0  0  0  0  0  0  0  0
    2.4887   -4.9712   -3.0072 H   0  0  0  0  0  0  0  0  0  0  0  0
    1.6065   -3.8509   -3.8230 H   0  0  0  0  0  0  0  0  0  0  0  0
   -1.3457    1.3985    0.9119 C   0  0  0  0  0  0  0  0  0  0  0  0
   -1.7192    2.0141   -0.0796 O   0  0  0  0  0  0  0  0  0  0  0  0
   -1.1095    1.9846    2.0902 N   0  0  0  0  0  0  0  0  0  0  0  0
   -0.8353    1.3978    2.8606 H   0  0  0  0  0  0  0  0  0  0  0  0
   -1.3042    3.4124    2.3491 C   0  0  0  0  0  0  0  0  0  0  0  0
   -2.3560    3.6721    2.2111 H   0  0  0  0  0  0  0  0  0  0  0  0
   -1.0094    3.6581    3.3699 H   0  0  0  0  0  0  0  0  0  0  0  0
   -0.7092    4.0039    1.6499 H   0  0  0  0  0  0  0  0  0  0  0  0
  5  6  2  0  0  0  0
  5  7  1  0  0  0  0
  2  3  1  0  0  0  0
  2  4  1  0  0  0  0
  2  5  1  0  0  0  0
  1  2  1  0  0  0  0
 27 28  2  0  0  0  0
 27 29  1  0  0  0  0
 23 24  1  0  0  0  0
 23 25  1  0  0  0  0
 23 26  1  0  0  0  0
 20 21  1  0  0  0  0
 20 22  1  0  0  0  0
 20 23  1  0  0  0  0
 17 18  1  0  0  0  0
 17 19  1  0  0  0  0
 17 20  1  0  0  0  0
 14 15  1  0  0  0  0
 14 16  1  0  0  0  0
 14 17  1  0  0  0  0
 11 12  1  0  0  0  0
 11 13  1  0  0  0  0
 11 14  1  0  0  0  0
  9 10  1  0  0  0  0
  9 11  1  0  0  0  0
  9 27  1  0  0  0  0
  7  8  1  0  0  0  0
  7  9  1  0  0  0  0
 31 32  1  0  0  0  0
 31 33  1  0  0  0  0
 31 34  1  0  0  0  0
 29 30  1  0  0  0  0
 29 31  1  0  0  0  0
M  CHG  1  23   1
M  END
$$$$
default_name
  -OEChem-01062215323D

 34 33  0     1  0  0  0  0  0999 V2000
   -3.8899   -3.6747    1.6490 H   0  0  0  0  0  0  0  0  0  0  0  0
   -3.9109   -2.6717    1.2250 C   0  0  0  0  0  0  0  0  0  0  0  0
   -4.6009   -2.0517    1.7950 H   0  0  0  0  0  0  0  0  0  0  0  0
   -4.2309   -2.7237    0.1860 H   0  0  0  0  0  0  0  0  0  0  0  0
   -2.5229   -2.0787    1.2980 C   0  0  0  0  0  0  0  0  0  0  0  0
   -1.5999   -2.7227    1.7810 O   0  0  0  0  0  0  0  0  0  0  0  0
   -2.3659   -0.8447    0.8120 N   0  0  0  0  0  0  0  0  0  0  0  0
   -3.1749   -0.3807    0.4220 H   0  0  0  0  0  0  0  0  0  0  0  0
   -1.0919   -0.1077    0.8170 C   0  0  1  0  0  0  0  0  0  0  0  0
   -0.5176   -0.4225    1.6902 H   0  0  0  0  0  0  0  0  0  0  0  0
   -0.3065   -0.4790   -0.4549 C   0  0  0  0  0  0  0  0  0  0  0  0
   -0.9545   -0.3286   -1.3198 H   0  0  0  0  0  0  0  0  0  0  0  0
    0.5525    0.1876   -0.5535 H   0  0  0  0  0  0  0  0  0  0  0  0
    0.1801   -1.9362   -0.4636 C   0  0  0  0  0  0  0  0  0  0  0  0
    0.8198   -2.1151    0.4016 H   0  0  0  0  0  0  0  0  0  0  0  0
   -0.6825   -2.6035   -0.4133 H   0  0  0  0  0  0  0  0  0  0  0  0
    0.9734   -2.2272   -1.7450 C   0  0  0  0  0  0  0  0  0  0  0  0
    0.3348   -2.0327   -2.6100 H   0  0  0  0  0  0  0  0  0  0  0  0
    1.8397   -1.5639   -1.7859 H   0  0  0  0  0  0  0  0  0  0  0  0
    1.4387   -3.6886   -1.7667 C   0  0  0  0  0  0  0  0  0  0  0  0
    2.0697   -3.8649   -0.8895 H   0  0  0  0  0  0  0  0  0  0  0  0
    0.5596   -4.3346   -1.6824 H   0  0  0  0  0  0  0  0  0  0  0  0
    2.1893   -4.0041   -3.0083 N   0  3  0  0  0  0  0  0  0  0  0  0
    3.0099   -3.4165   -3.0866 H   0  0  0  0  0  0  0  0  0  0  0  0
    2.4887   -4.9712   -3.0072 H   0  0  0  0  0  0  0  0  0  0  0  0
    1.6065   -3.8509   -3.8230 H   0  0  0  0  0  0  0  0  0  0  0  0
   -1.3457    1.3985    0.9119 C   0  0  0  0  0  0  0  0  0  0  0  0
   -1.9723    1.9649    0.0242 O   0  0  0  0  0  0  0  0  0  0  0  0
   -0.8303    2.0395    1.9660 N   0  0  0  0  0  0  0  0  0  0  0  0
   -0.3565    1.4909    2.6643 H   0  0  0  0  0  0  0  0  0  0  0  0
   -0.9835    3.4754    2.2075 C   0  0  0  0  0  0  0  0  0  0  0  0
   -2.0412    3.7175    2.3318 H   0  0  0  0  0  0  0  0  0  0  0  0
   -0.4442    3.7699    3.1085 H   0  0  0  0  0  0  0  0  0  0  0  0
   -0.5989    4.0410    1.3561 H   0  0  0  0  0  0  0  0  0  0  0  0
  5  6  2  0  0  0  0
  5  7  1  0  0  0  0
  2  3  1  0  0  0  0
  2  4  1  0  0  0  0
  2  5  1  0  0  0  0
  1  2  1  0  0  0  0
 27 28  2  0  0  0  0
 27 29  1  0  0  0  0
 23 24  1  0  0  0  0
 23 25  1  0  0  0  0
 23 26  1  0  0  0  0
 20 21  1  0  0  0  0
 20 22  1  0  0  0  0
 20 23  1  0  0  0  0
 17 18  1  0  0  0  0
 17 19  1  0  0  0  0
 17 20  1  0  0  0  0
 14 15  1  0  0  0  0
 14 16  1  0  0  0  0
 14 17  1  0  0  0  0
 11 12  1  0  0  0  0
 11 13  1  0  0  0  0
 11 14  1  0  0  0  0
  9 10  1  0  0  0  0
  9 11  1  0  0  0  0
  9 27  1  0  0  0  0
  7  8  1  0  0  0  0
  7  9  1  0  0  0  0
 31 32  1  0  0  0  0
 31 33  1  0  0  0  0
 31 34  1  0  0  0  0
 29 30  1  0  0  0  0
 29 31  1  0  0  0  0
M  CHG  1  23   1
M  END
$$$$
default_name
  -OEChem-01062215323D

 34 33  0     1  0  0  0  0  0999 V2000
   -3.8899   -3.6747    1.6490 H   0  0  0  0  0  0  0  0  0  0  0  0
   -3.9109   -2.6717    1.2250 C   0  0  0  0  0  0  0  0  0  0  0  0
   -4.6009   -2.0517    1.7950 H   0  0  0  0  0  0  0  0  0  0  0  0
   -4.2309   -2.7237    0.1860 H   0  0  0  0  0  0  0  0  0  0  0  0
   -2.5229   -2.0787    1.2980 C   0  0  0  0  0  0  0  0  0  0  0  0
   -1.5999   -2.7227    1.7810 O   0  0  0  0  0  0  0  0  0  0  0  0
   -2.3659   -0.8447    0.8120 N   0  0  0  0  0  0  0  0  0  0  0  0
   -3.1749   -0.3807    0.4220 H   0  0  0  0  0  0  0  0  0  0  0  0
   -1.0919   -0.1077    0.8170 C   0  0  1  0  0  0  0  0  0  0  0  0
   -0.5176   -0.4225    1.6902 H   0  0  0  0  0  0  0  0  0  0  0  0
   -0.3065   -0.4790   -0.4549 C   0  0  0  0  0  0  0  0  0  0  0  0
   -0.9545   -0.3286   -1.3198 H   0  0  0  0  0  0  0  0  0  0  0  0
    0.5525    0.1876   -0.5535 H   0  0  0  0  0  0  0  0  0  0  0  0
    0.1801   -1.9362   -0.4636 C   0  0  0  0  0  0  0  0  0  0  0  0
    0.8198   -2.1151    0.4016 H   0  0  0  0  0  0  0  0  0  0  0  0
   -0.6825   -2.6035   -0.4133 H   0  0  0  0  0  0  0  0  0  0  0  0
    0.9734   -2.2272   -1.7450 C   0  0  0  0  0  0  0  0  0  0  0  0
    0.3348   -2.0327   -2.6100 H   0  0  0  0  0  0  0  0  0  0  0  0
    1.8397   -1.5639   -1.7859 H   0  0  0  0  0  0  0  0  0  0  0  0
    1.4387   -3.6886   -1.7667 C   0  0  0  0  0  0  0  0  0  0  0  0
    2.0697   -3.8649   -0.8895 H   0  0  0  0  0  0  0  0  0  0  0  0
    0.5596   -4.3346   -1.6824 H   0  0  0  0  0  0  0  0  0  0  0  0
    2.1893   -4.0041   -3.0083 N   0  3  0  0  0  0  0  0  0  0  0  0
    3.0099   -3.4165   -3.0866 H   0  0  0  0  0  0  0  0  0  0  0  0
    2.4887   -4.9712   -3.0072 H   0  0  0  0  0  0  0  0  0  0  0  0
    1.6065   -3.8509   -3.8230 H   0  0  0  0  0  0  0  0  0  0  0  0
   -1.3457    1.3985    0.9119 C   0  0  0  0  0  0  0  0  0  0  0  0
   -2.1896    1.9177    0.1910 O   0  0  0  0  0  0  0  0  0  0  0  0
   -0.5931    2.0916    1.7726 N   0  0  0  0  0  0  0  0  0  0  0  0
    0.0545    1.5800    2.3487 H   0  0  0  0  0  0  0  0  0  0  0  0
   -0.7109    3.5352    1.9863 C   0  0  0  0  0  0  0  0  0  0  0  0
   -1.7070    3.7716    2.3663 H   0  0  0  0  0  0  0  0  0  0  0  0
    0.0335    3.8756    2.7071 H   0  0  0  0  0  0  0  0  0  0  0  0
   -0.5678    4.0660    1.0426 H   0  0  0  0  0  0  0  0  0  0  0  0
  5  6  2  0  0  0  0
  5  7  1  0  0  0  0
  2  3  1  0  0  0  0
  2  4  1  0  0  0  0
  2  5  1  0  0  0  0
  1  2  1  0  0  0  0
 27 28  2  0  0  0  0
 27 29  1  0  0  0  0
 23 24  1  0  0  0  0
 23 25  1  0  0  0  0
 23 26  1  0  0  0  0
 20 21  1  0  0  0  0
 20 22  1  0  0  0  0
 20 23  1  0  0  0  0
 17 18  1  0  0  0  0
 17 19  1  0  0  0  0
 17 20  1  0  0  0  0
 14 15  1  0  0  0  0
 14 16  1  0  0  0  0
 14 17  1  0  0  0  0
 11 12  1  0  0  0  0
 11 13  1  0  0  0  0
 11 14  1  0  0  0  0
  9 10  1  0  0  0  0
  9 11  1  0  0  0  0
  9 27  1  0  0  0  0
  7  8  1  0  0  0  0
  7  9  1  0  0  0  0
 31 32  1  0  0  0  0
 31 33  1  0  0  0  0
 31 34  1  0  0  0  0
 29 30  1  0  0  0  0
 29 31  1  0  0  0  0
M  CHG  1  23   1
M  END
$$$$
default_name
  -OEChem-01062215323D

 34 33  0     1  0  0  0  0  0999 V2000
   -3.8899   -3.6747    1.6490 H   0  0  0  0  0  0  0  0  0  0  0  0
   -3.9109   -2.6717    1.2250 C   0  0  0  0  0  0  0  0  0  0  0  0
   -4.6009   -2.0517    1.7950 H   0  0  0  0  0  0  0  0  0  0  0  0
   -4.2309   -2.7237    0.1860 H   0  0  0  0  0  0  0  0  0  0  0  0
   -2.5229   -2.0787    1.2980 C   0  0  0  0  0  0  0  0  0  0  0  0
   -1.5999   -2.7227    1.7810 O   0  0  0  0  0  0  0  0  0  0  0  0
   -2.3659   -0.8447    0.8120 N   0  0  0  0  0  0  0  0  0  0  0  0
   -3.1749   -0.3807    0.4220 H   0  0  0  0  0  0  0  0  0  0  0  0
   -1.0919   -0.1077    0.8170 C   0  0  1  0  0  0  0  0  0  0  0  0
   -0.5176   -0.4225    1.6902 H   0  0  0  0  0  0  0  0  0  0  0  0
   -0.3065   -0.4790   -0.4549 C   0  0  0  0  0  0  0  0  0  0  0  0
   -0.9545   -0.3286   -1.3198 H   0  0  0  0  0  0  0  0  0  0  0  0
    0.5525    0.1876   -0.5535 H   0  0  0  0  0  0  0  0  0  0  0  0
    0.1801   -1.9362   -0.4636 C   0  0  0  0  0  0  0  0  0  0  0  0
    0.8198   -2.1151    0.4016 H   0  0  0  0  0  0  0  0  0  0  0  0
   -0.6825   -2.6035   -0.4133 H   0  0  0  0  0  0  0  0  0  0  0  0
    0.9734   -2.2272   -1.7450 C   0  0  0  0  0  0  0  0  0  0  0  0
    0.3348   -2.0327   -2.6100 H   0  0  0  0  0  0  0  0  0  0  0  0
    1.8397   -1.5639   -1.7859 H   0  0  0  0  0  0  0  0  0  0  0  0
    1.4387   -3.6886   -1.7667 C   0  0  0  0  0  0  0  0  0  0  0  0
    2.0697   -3.8649   -0.8895 H   0  0  0  0  0  0  0  0  0  0  0  0
    0.5596   -4.3346   -1.6824 H   0  0  0  0  0  0  0  0  0  0  0  0
    2.1893   -4.0041   -3.0083 N   0  3  0  0  0  0  0  0  0  0  0  0
    3.0099   -3.4165   -3.0866 H   0  0  0  0  0  0  0  0  0  0  0  0
    2.4887   -4.9712   -3.0072 H   0  0  0  0  0  0  0  0  0  0  0  0
    1.6065   -3.8509   -3.8230 H   0  0  0  0  0  0  0  0  0  0  0  0
   -1.3457    1.3985    0.9119 C   0  0  0  0  0  0  0  0  0  0  0  0
   -2.3563    1.8759    0.4096 O   0  0  0  0  0  0  0  0  0  0  0  0
   -0.4141    2.1375    1.5231 N   0  0  0  0  0  0  0  0  0  0  0  0
    0.3697    1.6591    1.9354 H   0  0  0  0  0  0  0  0  0  0  0  0
   -0.5048    3.5880    1.7007 C   0  0  0  0  0  0  0  0  0  0  0  0
   -1.3764    3.8307    2.3122 H   0  0  0  0  0  0  0  0  0  0  0  0
    0.3909    3.9682    2.1932 H   0  0  0  0  0  0  0  0  0  0  0  0
   -0.6179    4.0772    0.7308 H   0  0  0  0  0  0  0  0  0  0  0  0
  5  6  2  0  0  0  0
  5  7  1  0  0  0  0
  2  3  1  0  0  0  0
  2  4  1  0  0  0  0
  2  5  1  0  0  0  0
  1  2  1  0  0  0  0
 27 28  2  0  0  0  0
 27 29  1  0  0  0  0
 23 24  1  0  0  0  0
 23 25  1  0  0  0  0
 23 26  1  0  0  0  0
 20 21  1  0  0  0  0
 20 22  1  0  0  0  0
 20 23  1  0  0  0  0
 17 18  1  0  0  0  0
 17 19  1  0  0  0  0
 17 20  1  0  0  0  0
 14 15  1  0  0  0  0
 14 16  1  0  0  0  0
 14 17  1  0  0  0  0
 11 12  1  0  0  0  0
 11 13  1  0  0  0  0
 11 14  1  0  0  0  0
  9 10  1  0  0  0  0
  9 11  1  0  0  0  0
  9 27  1  0  0  0  0
  7  8  1  0  0  0  0
  7  9  1  0  0  0  0
 31 32  1  0  0  0  0
 31 33  1  0  0  0  0
 31 34  1  0  0  0  0
 29 30  1  0  0  0  0
 29 31  1  0  0  0  0
M  CHG  1  23   1
M  END
$$$$
default_name
  -OEChem-01062215323D

 34 33  0     1  0  0  0  0  0999 V2000
   -3.8899   -3.6747    1.6490 H   0  0  0  0  0  0  0  0  0  0  0  0
   -3.9109   -2.6717    1.2250 C   0  0  0  0  0  0  0  0  0  0  0  0
   -4.6009   -2.0517    1.7950 H   0  0  0  0  0  0  0  0  0  0  0  0
   -4.2309   -2.7237    0.1860 H   0  0  0  0  0  0  0  0  0  0  0  0
   -2.5229   -2.0787    1.2980 C   0  0  0  0  0  0  0  0  0  0  0  0
   -1.5999   -2.7227    1.7810 O   0  0  0  0  0  0  0  0  0  0  0  0
   -2.3659   -0.8447    0.8120 N   0  0  0  0  0  0  0  0  0  0  0  0
   -3.1749   -0.3807    0.4220 H   0  0  0  0  0  0  0  0  0  0  0  0
   -1.0919   -0.1077    0.8170 C   0  0  1  0  0  0  0  0  0  0  0  0
   -0.5176   -0.4225    1.6902 H   0  0  0  0  0  0  0  0  0  0  0  0
   -0.3065   -0.4790   -0.4549 C   0  0  0  0  0  0  0  0  0  0  0  0
   -0.9545   -0.3286   -1.3198 H   0  0  0  0  0  0  0  0  0  0  0  0
    0.5525    0.1876   -0.5535 H   0  0  0  0  0  0  0  0  0  0  0  0
    0.1801   -1.9362   -0.4636 C   0  0  0  0  0  0  0  0  0  0  0  0
    0.8198   -2.1151    0.4016 H   0  0  0  0  0  0  0  0  0  0  0  0
   -0.6825   -2.6035   -0.4133 H   0  0  0  0  0  0  0  0  0  0  0  0
    0.9734   -2.2272   -1.7450 C   0  0  0  0  0  0  0  0  0  0  0  0
    0.3348   -2.0327   -2.6100 H   0  0  0  0  0  0  0  0  0  0  0  0
    1.8397   -1.5639   -1.7859 H   0  0  0  0  0  0  0  0  0  0  0  0
    1.4387   -3.6886   -1.7667 C   0  0  0  0  0  0  0  0  0  0  0  0
    2.0697   -3.8649   -0.8895 H   0  0  0  0  0  0  0  0  0  0  0  0
    0.5596   -4.3346   -1.6824 H   0  0  0  0  0  0  0  0  0  0  0  0
    2.1893   -4.0041   -3.0083 N   0  3  0  0  0  0  0  0  0  0  0  0
    3.0099   -3.4165   -3.0866 H   0  0  0  0  0  0  0  0  0  0  0  0
    2.4887   -4.9712   -3.0072 H   0  0  0  0  0  0  0  0  0  0  0  0
    1.6065   -3.8509   -3.8230 H   0  0  0  0  0  0  0  0  0  0  0  0
   -1.3457    1.3985    0.9119 C   0  0  0  0  0  0  0  0  0  0  0  0
   -2.4609    1.8422    0.6649 O   0  0  0  0  0  0  0  0  0  0  0  0
   -0.3054    2.1740    1.2345 N   0  0  0  0  0  0  0  0  0  0  0  0
    0.5676    1.7229    1.4524 H   0  0  0  0  0  0  0  0  0  0  0  0
   -0.3793    3.6299    1.3700 C   0  0  0  0  0  0  0  0  0  0  0  0
   -1.0717    3.8908    2.1732 H   0  0  0  0  0  0  0  0  0  0  0  0
    0.6038    4.0413    1.6018 H   0  0  0  0  0  0  0  0  0  0  0  0
   -0.7460    4.0739    0.4419 H   0  0  0  0  0  0  0  0  0  0  0  0
  5  6  2  0  0  0  0
  5  7  1  0  0  0  0
  2  3  1  0  0  0  0
  2  4  1  0  0  0  0
  2  5  1  0  0  0  0
  1  2  1  0  0  0  0
 27 28  2  0  0  0  0
 27 29  1  0  0  0  0
 23 24  1  0  0  0  0
 23 25  1  0  0  0  0
 23 26  1  0  0  0  0
 20 21  1  0  0  0  0
 20 22  1  0  0  0  0
 20 23  1  0  0  0  0
 17 18  1  0  0  0  0
 17 19  1  0  0  0  0
 17 20  1  0  0  0  0
 14 15  1  0  0  0  0
 14 16  1  0  0  0  0
 14 17  1  0  0  0  0
 11 12  1  0  0  0  0
 11 13  1  0  0  0  0
 11 14  1  0  0  0  0
  9 10  1  0  0  0  0
  9 11  1  0  0  0  0
  9 27  1  0  0  0  0
  7  8  1  0  0  0  0
  7  9  1  0  0  0  0
 31 32  1  0  0  0  0
 31 33  1  0  0  0  0
 31 34  1  0  0  0  0
 29 30  1  0  0  0  0
 29 31  1  0  0  0  0
M  CHG  1  23   1
M  END
$$$$
default_name
  -OEChem-01062215323D

 34 33  0     1  0  0  0  0  0999 V2000
   -3.8899   -3.6747    1.6490 H   0  0  0  0  0  0  0  0  0  0  0  0
   -3.9109   -2.6717    1.2250 C   0  0  0  0  0  0  0  0  0  0  0  0
   -4.6009   -2.0517    1.7950 H   0  0  0  0  0  0  0  0  0  0  0  0
   -4.2309   -2.7237    0.1860 H   0  0  0  0  0  0  0  0  0  0  0  0
   -2.5229   -2.0787    1.2980 C   0  0  0  0  0  0  0  0  0  0  0  0
   -1.5999   -2.7227    1.7810 O   0  0  0  0  0  0  0  0  0  0  0  0
   -2.3659   -0.8447    0.8120 N   0  0  0  0  0  0  0  0  0  0  0  0
   -3.1749   -0.3807    0.4220 H   0  0  0  0  0  0  0  0  0  0  0  0
   -1.0919   -0.1077    0.8170 C   0  0  1  0  0  0  0  0  0  0  0  0
   -0.4136   -0.6011    1.5155 H   0  0  0  0  0  0  0  0  0  0  0  0
   -0.4834   -0.1723   -0.5965 C   0  0  0  0  0  0  0  0  0  0  0  0
   -1.2358    0.1578   -1.3143 H   0  0  0  0  0  0  0  0  0  0  0  0
    0.3648    0.5127   -0.6535 H   0  0  0  0  0  0  0  0  0  0  0  0
   -0.0223   -1.5828   -0.9945 C   0  0  0  0  0  0  0  0  0  0  0  0
    0.7217   -1.9409   -0.2816 H   0  0  0  0  0  0  0  0  0  0  0  0
   -0.8802   -2.2578   -0.9837 H   0  0  0  0  0  0  0  0  0  0  0  0
    0.5940   -1.5669   -2.4002 C   0  0  0  0  0  0  0  0  0  0  0  0
   -0.1486   -1.1937   -3.1094 H   0  0  0  0  0  0  0  0  0  0  0  0
    1.4568   -0.8978   -2.4032 H   0  0  0  0  0  0  0  0  0  0  0  0
    1.0322   -2.9789   -2.8088 C   0  0  0  0  0  0  0  0  0  0  0  0
    1.7692   -3.3373   -2.0828 H   0  0  0  0  0  0  0  0  0  0  0  0
    0.1626   -3.6410   -2.7584 H   0  0  0  0  0  0  0  0  0  0  0  0
    1.6110   -2.9965   -4.1760 N   0  3  0  0  0  0  0  0  0  0  0  0
    2.4226   -2.3935   -4.2263 H   0  0  0  0  0  0  0  0  0  0  0  0
    1.8946   -3.9345   -4.4304 H   0  0  0  0  0  0  0  0  0  0  0  0
    0.9297   -2.6739   -4.8532 H   0  0  0  0  0  0  0  0  0  0  0  0
   -1.3103    1.3348    1.2791 C   0  0  0  0  0  0  0  0  0  0  0  0
   -2.4417    1.7203    1.5491 O   0  0  0  0  0  0  0  0  0  0  0  0
   -0.2353    2.1280    1.3338 N   0  0  0  0  0  0  0  0  0  0  0  0
    0.6610    1.7202    1.1253 H   0  0  0  0  0  0  0  0  0  0  0  0
   -0.2712    3.5291    1.7569 C   0  0  0  0  0  0  0  0  0  0  0  0
   -0.6118    3.5929    2.7926 H   0  0  0  0  0  0  0  0  0  0  0  0
    0.7212    3.9752    1.6820 H   0  0  0  0  0  0  0  0  0  0  0  0
   -0.9673    4.0913    1.1307 H   0  0  0  0  0  0  0  0  0  0  0  0
  5  6  2  0  0  0  0
  5  7  1  0  0  0  0
  2  3  1  0  0  0  0
  2  4  1  0  0  0  0
  2  5  1  0  0  0  0
  1  2  1  0  0  0  0
 27 28  2  0  0  0  0
 27 29  1  0  0  0  0
 23 24  1  0  0  0  0
 23 25  1  0  0  0  0
 23 26  1  0  0  0  0
 20 21  1  0  0  0  0
 20 22  1  0  0  0  0
 20 23  1  0  0  0  0
 17 18  1  0  0  0  0
 17 19  1  0  0  0  0
 17 20  1  0  0  0  0
 14 15  1  0  0  0  0
 14 16  1  0  0  0  0
 14 17  1  0  0  0  0
 11 12  1  0  0  0  0
 11 13  1  0  0  0  0
 11 14  1  0  0  0  0
  9 10  1  0  0  0  0
  9 11  1  0  0  0  0
  9 27  1  0  0  0  0
  7  8  1  0  0  0  0
  7  9  1  0  0  0  0
 31 32  1  0  0  0  0
 31 33  1  0  0  0  0
 31 34  1  0  0  0  0
 29 30  1  0  0  0  0
 29 31  1  0  0  0  0
M  CHG  1  23   1
M  END
$$$$
default_name
  -OEChem-01062215323D

 34 33  0     1  0  0  0  0  0999 V2000
   -3.8899   -3.6747    1.6490 H   0  0  0  0  0  0  0  0  0  0  0  0
   -3.9109   -2.6717    1.2250 C   0  0  0  0  0  0  0  0  0  0  0  0
   -4.6009   -2.0517    1.7950 H   0  0  0  0  0  0  0  0  0  0  0  0
   -4.2309   -2.7237    0.1860 H   0  0  0  0  0  0  0  0  0  0  0  0
   -2.5229   -2.0787    1.2980 C   0  0  0  0  0  0  0  0  0  0  0  0
   -1.5999   -2.7227    1.7810 O   0  0  0  0  0  0  0  0  0  0  0  0
   -2.3659   -0.8447    0.8120 N   0  0  0  0  0  0  0  0  0  0  0  0
   -3.1749   -0.3807    0.4220 H   0  0  0  0  0  0  0  0  0  0  0  0
   -1.0919   -0.1077    0.8170 C   0  0  1  0  0  0  0  0  0  0  0  0
   -0.4136   -0.6011    1.5155 H   0  0  0  0  0  0  0  0  0  0  0  0
   -0.4834   -0.1723   -0.5965 C   0  0  0  0  0  0  0  0  0  0  0  0
   -1.2358    0.1578   -1.3143 H   0  0  0  0  0  0  0  0  0  0  0  0
    0.3648    0.5127   -0.6535 H   0  0  0  0  0  0  0  0  0  0  0  0
   -0.0223   -1.5828   -0.9945 C   0  0  0  0  0  0  0  0  0  0  0  0
    0.7217   -1.9409   -0.2816 H   0  0  0  0  0  0  0  0  0  0  0  0
   -0.8802   -2.2578   -0.9837 H   0  0  0  0  0  0  0  0  0  0  0  0
    0.5940   -1.5669   -2.4002 C   0  0  0  0  0  0  0  0  0  0  0  0
   -0.1486   -1.1937   -3.1094 H   0  0  0  0  0  0  0  0  0  0  0  0
    1.4568   -0.8978   -2.4032 H   0  0  0  0  0  0  0  0  0  0  0  0
    1.0322   -2.9789   -2.8088 C   0  0  0  0  0  0  0  0  0  0  0  0
    1.7692   -3.3373   -2.0828 H   0  0  0  0  0  0  0  0  0  0  0  0
    0.1626   -3.6410   -2.7584 H   0  0  0  0  0  0  0  0  0  0  0  0
    1.6110   -2.9965   -4.1760 N   0  3  0  0  0  0  0  0  0  0  0  0
    2.4226   -2.3935   -4.2263 H   0  0  0  0  0  0  0  0  0  0  0  0
    1.8946   -3.9345   -4.4304 H   0  0  0  0  0  0  0  0  0  0  0  0
    0.9297   -2.6739   -4.8532 H   0  0  0  0  0  0  0  0  0  0  0  0
   -1.3103    1.3348    1.2791 C   0  0  0  0  0  0  0  0  0  0  0  0
   -2.3703    1.6482    1.8079 O   0  0  0  0  0  0  0  0  0  0  0  0
   -0.3235    2.2066    1.0467 N   0  0  0  0  0  0  0  0  0  0  0  0
    0.5260    1.8566    0.6358 H   0  0  0  0  0  0  0  0  0  0  0  0
   -0.3715    3.6195    1.4274 C   0  0  0  0  0  0  0  0  0  0  0  0
   -0.4549    3.7063    2.5128 H   0  0  0  0  0  0  0  0  0  0  0  0
    0.5326    4.1334    1.0990 H   0  0  0  0  0  0  0  0  0  0  0  0
   -1.2428    4.0992    0.9760 H   0  0  0  0  0  0  0  0  0  0  0  0
  5  6  2  0  0  0  0
  5  7  1  0  0  0  0
  2  3  1  0  0  0  0
  2  4  1  0  0  0  0
  2  5  1  0  0  0  0
  1  2  1  0  0  0  0
 27 28  2  0  0  0  0
 27 29  1  0  0  0  0
 23 24  1  0  0  0  0
 23 25  1  0  0  0  0
 23 26  1  0  0  0  0
 20 21  1  0  0  0  0
 20 22  1  0  0  0  0
 20 23  1  0  0  0  0
 17 18  1  0  0  0  0
 17 19  1  0  0  0  0
 17 20  1  0  0  0  0
 14 15  1  0  0  0  0
 14 16  1  0  0  0  0
 14 17  1  0  0  0  0
 11 12  1  0  0  0  0
 11 13  1  0  0  0  0
 11 14  1  0  0  0  0
  9 10  1  0  0  0  0
  9 11  1  0  0  0  0
  9 27  1  0  0  0  0
  7  8  1  0  0  0  0
  7  9  1  0  0  0  0
 31 32  1  0  0  0  0
 31 33  1  0  0  0  0
 31 34  1  0  0  0  0
 29 30  1  0  0  0  0
 29 31  1  0  0  0  0
M  CHG  1  23   1
M  END
$$$$
default_name
  -OEChem-01062215323D

 34 33  0     1  0  0  0  0  0999 V2000
   -3.8899   -3.6747    1.6490 H   0  0  0  0  0  0  0  0  0  0  0  0
   -3.9109   -2.6717    1.2250 C   0  0  0  0  0  0  0  0  0  0  0  0
   -4.6009   -2.0517    1.7950 H   0  0  0  0  0  0  0  0  0  0  0  0
   -4.2309   -2.7237    0.1860 H   0  0  0  0  0  0  0  0  0  0  0  0
   -2.5229   -2.0787    1.2980 C   0  0  0  0  0  0  0  0  0  0  0  0
   -1.5999   -2.7227    1.7810 O   0  0  0  0  0  0  0  0  0  0  0  0
   -2.3659   -0.8447    0.8120 N   0  0  0  0  0  0  0  0  0  0  0  0
   -3.1749   -0.3807    0.4220 H   0  0  0  0  0  0  0  0  0  0  0  0
   -1.0919   -0.1077    0.8170 C   0  0  1  0  0  0  0  0  0  0  0  0
   -0.4136   -0.6011    1.5155 H   0  0  0  0  0  0  0  0  0  0  0  0
   -0.4834   -0.1723   -0.5965 C   0  0  0  0  0  0  0  0  0  0  0  0
   -1.2358    0.1578   -1.3143 H   0  0  0  0  0  0  0  0  0  0  0  0
    0.3648    0.5127   -0.6535 H   0  0  0  0  0  0  0  0  0  0  0  0
   -0.0223   -1.5828   -0.9945 C   0  0  0  0  0  0  0  0  0  0  0  0
    0.7217   -1.9409   -0.2816 H   0  0  0  0  0  0  0  0  0  0  0  0
   -0.8802   -2.2578   -0.9837 H   0  0  0  0  0  0  0  0  0  0  0  0
    0.5940   -1.5669   -2.4002 C   0  0  0  0  0  0  0  0  0  0  0  0
   -0.1486   -1.1937   -3.1094 H   0  0  0  0  0  0  0  0  0  0  0  0
    1.4568   -0.8978   -2.4032 H   0  0  0  0  0  0  0  0  0  0  0  0
    1.0322   -2.9789   -2.8088 C   0  0  0  0  0  0  0  0  0  0  0  0
    1.7692   -3.3373   -2.0828 H   0  0  0  0  0  0  0  0  0  0  0  0
    0.1626   -3.6410   -2.7584 H   0  0  0  0  0  0  0  0  0  0  0  0
    1.6110   -2.9965   -4.1760 N   0  3  0  0  0  0  0  0  0  0  0  0
    2.4226   -2.3935   -4.2263 H   0  0  0  0  0  0  0  0  0  0  0  0
    1.8946   -3.9345   -4.4304 H   0  0  0  0  0  0  0  0  0  0  0  0
    0.9297   -2.6739   -4.8532 H   0  0  0  0  0  0  0  0  0  0  0  0
   -1.3103    1.3348    1.2791 C   0  0  0  0  0  0  0  0  0  0  0  0
   -2.2326    1.5936    2.0431 O   0  0  0  0  0  0  0  0  0  0  0  0
   -0.4849    2.2650    0.7880 N   0  0  0  0  0  0  0  0  0  0  0  0
    0.2656    1.9597    0.1908 H   0  0  0  0  0  0  0  0  0  0  0  0
   -0.5559    3.6868    1.1302 C   0  0  0  0  0  0  0  0  0  0  0  0
   -0.3804    3.8177    2.2001 H   0  0  0  0  0  0  0  0  0  0  0  0
    0.1959    4.2500    0.5761 H   0  0  0  0  0  0  0  0  0  0  0  0
   -1.5472    4.0795    0.8936 H   0  0  0  0  0  0  0  0  0  0  0  0
  5  6  2  0  0  0  0
  5  7  1  0  0  0  0
  2  3  1  0  0  0  0
  2  4  1  0  0  0  0
  2  5  1  0  0  0  0
  1  2  1  0  0  0  0
 27 28  2  0  0  0  0
 27 29  1  0  0  0  0
 23 24  1  0  0  0  0
 23 25  1  0  0  0  0
 23 26  1  0  0  0  0
 20 21  1  0  0  0  0
 20 22  1  0  0  0  0
 20 23  1  0  0  0  0
 17 18  1  0  0  0  0
 17 19  1  0  0  0  0
 17 20  1  0  0  0  0
 14 15  1  0  0  0  0
 14 16  1  0  0  0  0
 14 17  1  0  0  0  0
 11 12  1  0  0  0  0
 11 13  1  0  0  0  0
 11 14  1  0  0  0  0
  9 10  1  0  0  0  0
  9 11  1  0  0  0  0
  9 27  1  0  0  0  0
  7  8  1  0  0  0  0
  7  9  1  0  0  0  0
 31 32  1  0  0  0  0
 31 33  1  0  0  0  0
 31 34  1  0  0  0  0
 29 30  1  0  0  0  0
 29 31  1  0  0  0  0
M  CHG  1  23   1
M  END
$$$$
default_name
  -OEChem-01062215323D

 34 33  0     1  0  0  0  0  0999 V2000
   -3.8899   -3.6747    1.6490 H   0  0  0  0  0  0  0  0  0  0  0  0
   -3.9109   -2.6717    1.2250 C   0  0  0  0  0  0  0  0  0  0  0  0
   -4.6009   -2.0517    1.7950 H   0  0  0  0  0  0  0  0  0  0  0  0
   -4.2309   -2.7237    0.1860 H   0  0  0  0  0  0  0  0  0  0  0  0
   -2.5229   -2.0787    1.2980 C   0  0  0  0  0  0  0  0  0  0  0  0
   -1.5999   -2.7227    1.7810 O   0  0  0  0  0  0  0  0  0  0  0  0
   -2.3659   -0.8447    0.8120 N   0  0  0  0  0  0  0  0  0  0  0  0
   -3.1749   -0.3807    0.4220 H   0  0  0  0  0  0  0  0  0  0  0  0
   -1.0919   -0.1077    0.8170 C   0  0  1  0  0  0  0  0  0  0  0  0
   -0.4136   -0.6011    1.5155 H   0  0  0  0  0  0  0  0  0  0  0  0
   -0.4834   -0.1723   -0.5965 C   0  0  0  0  0  0  0  0  0  0  0  0
   -1.2358    0.1578   -1.3143 H   0  0  0  0  0  0  0  0  0  0  0  0
    0.3648    0.5127   -0.6535 H   0  0  0  0  0  0  0  0  0  0  0  0
   -0.0223   -1.5828   -0.9945 C   0  0  0  0  0  0  0  0  0  0  0  0
    0.7217   -1.9409   -0.2816 H   0  0  0  0  0  0  0  0  0  0  0  0
   -0.8802   -2.2578   -0.9837 H   0  0  0  0  0  0  0  0  0  0  0  0
    0.5940   -1.5669   -2.4002 C   0  0  0  0  0  0  0  0  0  0  0  0
   -0.1486   -1.1937   -3.1094 H   0  0  0  0  0  0  0  0  0  0  0  0
    1.4568   -0.8978   -2.4032 H   0  0  0  0  0  0  0  0  0  0  0  0
    1.0322   -2.9789   -2.8088 C   0  0  0  0  0  0  0  0  0  0  0  0
    1.7692   -3.3373   -2.0828 H   0  0  0  0  0  0  0  0  0  0  0  0
    0.1626   -3.6410   -2.7584 H   0  0  0  0  0  0  0  0  0  0  0  0
    1.6110   -2.9965   -4.1760 N   0  3  0  0  0  0  0  0  0  0  0  0
    2.4226   -2.3935   -4.2263 H   0  0  0  0  0  0  0  0  0  0  0  0
    1.8946   -3.9345   -4.4304 H   0  0  0  0  0  0  0  0  0  0  0  0
    0.9297   -2.6739   -4.8532 H   0  0  0  0  0  0  0  0  0  0  0  0
   -1.3103    1.3348    1.2791 C   0  0  0  0  0  0  0  0  0  0  0  0
   -2.0380    1.5604    2.2388 O   0  0  0  0  0  0  0  0  0  0  0  0
   -0.7085    2.2993    0.5753 N   0  0  0  0  0  0  0  0  0  0  0  0
   -0.1026    2.0225   -0.1793 H   0  0  0  0  0  0  0  0  0  0  0  0
   -0.8118    3.7264    0.8856 C   0  0  0  0  0  0  0  0  0  0  0  0
   -0.3935    3.9196    1.8757 H   0  0  0  0  0  0  0  0  0  0  0  0
   -0.2660    4.3169    0.1488 H   0  0  0  0  0  0  0  0  0  0  0  0
   -1.8598    4.0337    0.8889 H   0  0  0  0  0  0  0  0  0  0  0  0
  5  6  2  0  0  0  0
  5  7  1  0  0  0  0
  2  3  1  0  0  0  0
  2  4  1  0  0  0  0
  2  5  1  0  0  0  0
  1  2  1  0  0  0  0
 27 28  2  0  0  0  0
 27 29  1  0  0  0  0
 23 24  1  0  0  0  0
 23 25  1  0  0  0  0
 23 26  1  0  0  0  0
 20 21  1  0  0  0  0
 20 22  1  0  0  0  0
 20 23  1  0  0  0  0
 17 18  1  0  0  0  0
 17 19  1  0  0  0  0
 17 20  1  0  0  0  0
 14 15  1  0  0  0  0
 14 16  1  0  0  0  0
 14 17  1  0  0  0  0
 11 12  1  0  0  0  0
 11 13  1  0  0  0  0
 11 14  1  0  0  0  0
  9 10  1  0  0  0  0
  9 11  1  0  0  0  0
  9 27  1  0  0  0  0
  7  8  1  0  0  0  0
  7  9  1  0  0  0  0
 31 32  1  0  0  0  0
 31 33  1  0  0  0  0
 31 34  1  0  0  0  0
 29 30  1  0  0  0  0
 29 31  1  0  0  0  0
M  CHG  1  23   1
M  END
$$$$
default_name
  -OEChem-01062215323D

 34 33  0     1  0  0  0  0  0999 V2000
   -3.8899   -3.6747    1.6490 H   0  0  0  0  0  0  0  0  0  0  0  0
   -3.9109   -2.6717    1.2250 C   0  0  0  0  0  0  0  0  0  0  0  0
   -4.6009   -2.0517    1.7950 H   0  0  0  0  0  0  0  0  0  0  0  0
   -4.2309   -2.7237    0.1860 H   0  0  0  0  0  0  0  0  0  0  0  0
   -2.5229   -2.0787    1.2980 C   0  0  0  0  0  0  0  0  0  0  0  0
   -1.5999   -2.7227    1.7810 O   0  0  0  0  0  0  0  0  0  0  0  0
   -2.3659   -0.8447    0.8120 N   0  0  0  0  0  0  0  0  0  0  0  0
   -3.1749   -0.3807    0.4220 H   0  0  0  0  0  0  0  0  0  0  0  0
   -1.0919   -0.1077    0.8170 C   0  0  1  0  0  0  0  0  0  0  0  0
   -0.4136   -0.6011    1.5155 H   0  0  0  0  0  0  0  0  0  0  0  0
   -0.4834   -0.1723   -0.5965 C   0  0  0  0  0  0  0  0  0  0  0  0
   -1.2358    0.1578   -1.3143 H   0  0  0  0  0  0  0  0  0  0  0  0
    0.3648    0.5127   -0.6535 H   0  0  0  0  0  0  0  0  0  0  0  0
   -0.0223   -1.5828   -0.9945 C   0  0  0  0  0  0  0  0  0  0  0  0
    0.7217   -1.9409   -0.2816 H   0  0  0  0  0  0  0  0  0  0  0  0
   -0.8802   -2.2578   -0.9837 H   0  0  0  0  0  0  0  0  0  0  0  0
    0.5940   -1.5669   -2.4002 C   0  0  0  0  0  0  0  0  0  0  0  0
   -0.1486   -1.1937   -3.1094 H   0  0  0  0  0  0  0  0  0  0  0  0
    1.4568   -0.8978   -2.4032 H   0  0  0  0  0  0  0  0  0  0  0  0
    1.0322   -2.9789   -2.8088 C   0  0  0  0  0  0  0  0  0  0  0  0
    1.7692   -3.3373   -2.0828 H   0  0  0  0  0  0  0  0  0  0  0  0
    0.1626   -3.6410   -2.7584 H   0  0  0  0  0  0  0  0  0  0  0  0
    1.6110   -2.9965   -4.1760 N   0  3  0  0  0  0  0  0  0  0  0  0
    2.4226   -2.3935   -4.2263 H   0  0  0  0  0  0  0  0  0  0  0  0
    1.8946   -3.9345   -4.4304 H   0  0  0  0  0  0  0  0  0  0  0  0
    0.9297   -2.6739   -4.8532 H   0  0  0  0  0  0  0  0  0  0  0  0
   -1.3103    1.3348    1.2791 C   0  0  0  0  0  0  0  0  0  0  0  0
   -1.7996    1.5508    2.3815 O   0  0  0  0  0  0  0  0  0  0  0  0
   -0.9791    2.3071    0.4231 N   0  0  0  0  0  0  0  0  0  0  0  0
   -0.5534    2.0407   -0.4492 H   0  0  0  0  0  0  0  0  0  0  0  0
   -1.1217    3.7357    0.7103 C   0  0  0  0  0  0  0  0  0  0  0  0
   -0.4933    4.0051    1.5619 H   0  0  0  0  0  0  0  0  0  0  0  0
   -0.8216    4.3297   -0.1537 H   0  0  0  0  0  0  0  0  0  0  0  0
   -2.1594    3.9648    0.9624 H   0  0  0  0  0  0  0  0  0  0  0  0
  5  6  2  0  0  0  0
  5  7  1  0  0  0  0
  2  3  1  0  0  0  0
  2  4  1  0  0  0  0
  2  5  1  0  0  0  0
  1  2  1  0  0  0  0
 27 28  2  0  0  0  0
 27 29  1  0  0  0  0
 23 24  1  0  0  0  0
 23 25  1  0  0  0  0
 23 26  1  0  0  0  0
 20 21  1  0  0  0  0
 20 22  1  0  0  0  0
 20 23  1  0  0  0  0
 17 18  1  0  0  0  0
 17 19  1  0  0  0  0
 17 20  1  0  0  0  0
 14 15  1  0  0  0  0
 14 16  1  0  0  0  0
 14 17  1  0  0  0  0
 11 12  1  0  0  0  0
 11 13  1  0  0  0  0
 11 14  1  0  0  0  0
  9 10  1  0  0  0  0
  9 11  1  0  0  0  0
  9 27  1  0  0  0  0
  7  8  1  0  0  0  0
  7  9  1  0  0  0  0
 31 32  1  0  0  0  0
 31 33  1  0  0  0  0
 31 34  1  0  0  0  0
 29 30  1  0  0  0  0
 29 31  1  0  0  0  0
M  CHG  1  23   1
M  END
$$$$
default_name
  -OEChem-01062215323D

 34 33  0     1  0  0  0  0  0999 V2000
   -3.8899   -3.6747    1.6490 H   0  0  0  0  0  0  0  0  0  0  0  0
   -3.9109   -2.6717    1.2250 C   0  0  0  0  0  0  0  0  0  0  0  0
   -4.6009   -2.0517    1.7950 H   0  0  0  0  0  0  0  0  0  0  0  0
   -4.2309   -2.7237    0.1860 H   0  0  0  0  0  0  0  0  0  0  0  0
   -2.5229   -2.0787    1.2980 C   0  0  0  0  0  0  0  0  0  0  0  0
   -1.5999   -2.7227    1.7810 O   0  0  0  0  0  0  0  0  0  0  0  0
   -2.3659   -0.8447    0.8120 N   0  0  0  0  0  0  0  0  0  0  0  0
   -3.1749   -0.3807    0.4220 H   0  0  0  0  0  0  0  0  0  0  0  0
   -1.0919   -0.1077    0.8170 C   0  0  1  0  0  0  0  0  0  0  0  0
   -0.4136   -0.6011    1.5155 H   0  0  0  0  0  0  0  0  0  0  0  0
   -0.4834   -0.1723   -0.5965 C   0  0  0  0  0  0  0  0  0  0  0  0
   -1.2358    0.1578   -1.3143 H   0  0  0  0  0  0  0  0  0  0  0  0
    0.3648    0.5127   -0.6535 H   0  0  0  0  0  0  0  0  0  0  0  0
   -0.0223   -1.5828   -0.9945 C   0  0  0  0  0  0  0  0  0  0  0  0
    0.7217   -1.9409   -0.2816 H   0  0  0  0  0  0  0  0  0  0  0  0
   -0.8802   -2.2578   -0.9837 H   0  0  0  0  0  0  0  0  0  0  0  0
    0.5940   -1.5669   -2.4002 C   0  0  0  0  0  0  0  0  0  0  0  0
   -0.1486   -1.1937   -3.1094 H   0  0  0  0  0  0  0  0  0  0  0  0
    1.4568   -0.8978   -2.4032 H   0  0  0  0  0  0  0  0  0  0  0  0
    1.0322   -2.9789   -2.8088 C   0  0  0  0  0  0  0  0  0  0  0  0
    1.7692   -3.3373   -2.0828 H   0  0  0  0  0  0  0  0  0  0  0  0
    0.1626   -3.6410   -2.7584 H   0  0  0  0  0  0  0  0  0  0  0  0
    1.6110   -2.9965   -4.1760 N   0  3  0  0  0  0  0  0  0  0  0  0
    2.4226   -2.3935   -4.2263 H   0  0  0  0  0  0  0  0  0  0  0  0
    1.8946   -3.9345   -4.4304 H   0  0  0  0  0  0  0  0  0  0  0  0
    0.9297   -2.6739   -4.8532 H   0  0  0  0  0  0  0  0  0  0  0  0
   -1.3103    1.3348    1.2791 C   0  0  0  0  0  0  0  0  0  0  0  0
   -1.5338    1.5654    2.4616 O   0  0  0  0  0  0  0  0  0  0  0  0
   -1.2781    2.2879    0.3419 N   0  0  0  0  0  0  0  0  0  0  0  0
   -1.0562    2.0132   -0.6007 H   0  0  0  0  0  0  0  0  0  0  0  0
   -1.4645    3.7139    0.6162 C   0  0  0  0  0  0  0  0  0  0  0  0
   -0.6729    4.0682    1.2799 H   0  0  0  0  0  0  0  0  0  0  0  0
   -1.4331    4.2875   -0.3108 H   0  0  0  0  0  0  0  0  0  0  0  0
   -2.4254    3.8776    1.1090 H   0  0  0  0  0  0  0  0  0  0  0  0
  5  6  2  0  0  0  0
  5  7  1  0  0  0  0
  2  3  1  0  0  0  0
  2  4  1  0  0  0  0
  2  5  1  0  0  0  0
  1  2  1  0  0  0  0
 27 28  2  0  0  0  0
 27 29  1  0  0  0  0
 23 24  1  0  0  0  0
 23 25  1  0  0  0  0
 23 26  1  0  0  0  0
 20 21  1  0  0  0  0
 20 22  1  0  0  0  0
 20 23  1  0  0  0  0
 17 18  1  0  0  0  0
 17 19  1  0  0  0  0
 17 20  1  0  0  0  0
 14 15  1  0  0  0  0
 14 16  1  0  0  0  0
 14 17  1  0  0  0  0
 11 12  1  0  0  0  0
 11 13  1  0  0  0  0
 11 14  1  0  0  0  0
  9 10  1  0  0  0  0
  9 11  1  0  0  0  0
  9 27  1  0  0  0  0
  7  8  1  0  0  0  0
  7  9  1  0  0  0  0
 31 32  1  0  0  0  0
 31 33  1  0  0  0  0
 31 34  1  0  0  0  0
 29 30  1  0  0  0  0
 29 31  1  0  0  0  0
M  CHG  1  23   1
M  END
$$$$
default_name
  -OEChem-01062215323D

 34 33  0     1  0  0  0  0  0999 V2000
   -3.8899   -3.6747    1.6490 H   0  0  0  0  0  0  0  0  0  0  0  0
   -3.9109   -2.6717    1.2250 C   0  0  0  0  0  0  0  0  0  0  0  0
   -4.6009   -2.0517    1.7950 H   0  0  0  0  0  0  0  0  0  0  0  0
   -4.2309   -2.7237    0.1860 H   0  0  0  0  0  0  0  0  0  0  0  0
   -2.5229   -2.0787    1.2980 C   0  0  0  0  0  0  0  0  0  0  0  0
   -1.5999   -2.7227    1.7810 O   0  0  0  0  0  0  0  0  0  0  0  0
   -2.3659   -0.8447    0.8120 N   0  0  0  0  0  0  0  0  0  0  0  0
   -3.1749   -0.3807    0.4220 H   0  0  0  0  0  0  0  0  0  0  0  0
   -1.0919   -0.1077    0.8170 C   0  0  1  0  0  0  0  0  0  0  0  0
   -0.4136   -0.6011    1.5155 H   0  0  0  0  0  0  0  0  0  0  0  0
   -0.4834   -0.1723   -0.5965 C   0  0  0  0  0  0  0  0  0  0  0  0
   -1.2358    0.1578   -1.3143 H   0  0  0  0  0  0  0  0  0  0  0  0
    0.3648    0.5127   -0.6535 H   0  0  0  0  0  0  0  0  0  0  0  0
   -0.0223   -1.5828   -0.9945 C   0  0  0  0  0  0  0  0  0  0  0  0
    0.7217   -1.9409   -0.2816 H   0  0  0  0  0  0  0  0  0  0  0  0
   -0.8802   -2.2578   -0.9837 H   0  0  0  0  0  0  0  0  0  0  0  0
    0.5940   -1.5669   -2.4002 C   0  0  0  0  0  0  0  0  0  0  0  0
   -0.1486   -1.1937   -3.1094 H   0  0  0  0  0  0  0  0  0  0  0  0
    1.4568   -0.8978   -2.4032 H   0  0  0  0  0  0  0  0  0  0  0  0
    1.0322   -2.9789   -2.8088 C   0  0  0  0  0  0  0  0  0  0  0  0
    1.7692   -3.3373   -2.0828 H   0  0  0  0  0  0  0  0  0  0  0  0
    0.1626   -3.6410   -2.7584 H   0  0  0  0  0  0  0  0  0  0  0  0
    1.6110   -2.9965   -4.1760 N   0  3  0  0  0  0  0  0  0  0  0  0
    2.4226   -2.3935   -4.2263 H   0  0  0  0  0  0  0  0  0  0  0  0
    1.8946   -3.9345   -4.4304 H   0  0  0  0  0  0  0  0  0  0  0  0
    0.9297   -2.6739   -4.8532 H   0  0  0  0  0  0  0  0  0  0  0  0
   -1.3103    1.3348    1.2791 C   0  0  0  0  0  0  0  0  0  0  0  0
   -1.2587    1.6032    2.4736 O   0  0  0  0  0  0  0  0  0  0  0  0
   -1.5853    2.2429    0.3370 N   0  0  0  0  0  0  0  0  0  0  0  0
   -1.5766    1.9416   -0.6233 H   0  0  0  0  0  0  0  0  0  0  0  0
   -1.8169    3.6626    0.6098 C   0  0  0  0  0  0  0  0  0  0  0  0
   -0.9201    4.1048    1.0490 H   0  0  0  0  0  0  0  0  0  0  0  0
   -2.0588    4.1931   -0.3118 H   0  0  0  0  0  0  0  0  0  0  0  0
   -2.6398    3.7780    1.3187 H   0  0  0  0  0  0  0  0  0  0  0  0
  5  6  2  0  0  0  0
  5  7  1  0  0  0  0
  2  3  1  0  0  0  0
  2  4  1  0  0  0  0
  2  5  1  0  0  0  0
  1  2  1  0  0  0  0
 27 28  2  0  0  0  0
 27 29  1  0  0  0  0
 23 24  1  0  0  0  0
 23 25  1  0  0  0  0
 23 26  1  0  0  0  0
 20 21  1  0  0  0  0
 20 22  1  0  0  0  0
 20 23  1  0  0  0  0
 17 18  1  0  0  0  0
 17 19  1  0  0  0  0
 17 20  1  0  0  0  0
 14 15  1  0  0  0  0
 14 16  1  0  0  0  0
 14 17  1  0  0  0  0
 11 12  1  0  0  0  0
 11 13  1  0  0  0  0
 11 14  1  0  0  0  0
  9 10  1  0  0  0  0
  9 11  1  0  0  0  0
  9 27  1  0  0  0  0
  7  8  1  0  0  0  0
  7  9  1  0  0  0  0
 31 32  1  0  0  0  0
 31 33  1  0  0  0  0
 31 34  1  0  0  0  0
 29 30  1  0  0  0  0
 29 31  1  0  0  0  0
M  CHG  1  23   1
M  END
$$$$
default_name
  -OEChem-01062215323D

 34 33  0     1  0  0  0  0  0999 V2000
   -3.8899   -3.6747    1.6490 H   0  0  0  0  0  0  0  0  0  0  0  0
   -3.9109   -2.6717    1.2250 C   0  0  0  0  0  0  0  0  0  0  0  0
   -4.6009   -2.0517    1.7950 H   0  0  0  0  0  0  0  0  0  0  0  0
   -4.2309   -2.7237    0.1860 H   0  0  0  0  0  0  0  0  0  0  0  0
   -2.5229   -2.0787    1.2980 C   0  0  0  0  0  0  0  0  0  0  0  0
   -1.5999   -2.7227    1.7810 O   0  0  0  0  0  0  0  0  0  0  0  0
   -2.3659   -0.8447    0.8120 N   0  0  0  0  0  0  0  0  0  0  0  0
   -3.1749   -0.3807    0.4220 H   0  0  0  0  0  0  0  0  0  0  0  0
   -1.0919   -0.1077    0.8170 C   0  0  1  0  0  0  0  0  0  0  0  0
   -0.4136   -0.6011    1.5155 H   0  0  0  0  0  0  0  0  0  0  0  0
   -0.4834   -0.1723   -0.5965 C   0  0  0  0  0  0  0  0  0  0  0  0
   -1.2358    0.1578   -1.3143 H   0  0  0  0  0  0  0  0  0  0  0  0
    0.3648    0.5127   -0.6535 H   0  0  0  0  0  0  0  0  0  0  0  0
   -0.0223   -1.5828   -0.9945 C   0  0  0  0  0  0  0  0  0  0  0  0
    0.7217   -1.9409   -0.2816 H   0  0  0  0  0  0  0  0  0  0  0  0
   -0.8802   -2.2578   -0.9837 H   0  0  0  0  0  0  0  0  0  0  0  0
    0.5940   -1.5669   -2.4002 C   0  0  0  0  0  0  0  0  0  0  0  0
   -0.1486   -1.1937   -3.1094 H   0  0  0  0  0  0  0  0  0  0  0  0
    1.4568   -0.8978   -2.4032 H   0  0  0  0  0  0  0  0  0  0  0  0
    1.0322   -2.9789   -2.8088 C   0  0  0  0  0  0  0  0  0  0  0  0
    1.7692   -3.3373   -2.0828 H   0  0  0  0  0  0  0  0  0  0  0  0
    0.1626   -3.6410   -2.7584 H   0  0  0  0  0  0  0  0  0  0  0  0
    1.6110   -2.9965   -4.1760 N   0  3  0  0  0  0  0  0  0  0  0  0
    2.4226   -2.3935   -4.2263 H   0  0  0  0  0  0  0  0  0  0  0  0
    1.8946   -3.9345   -4.4304 H   0  0  0  0  0  0  0  0  0  0  0  0
    0.9297   -2.6739   -4.8532 H   0  0  0  0  0  0  0  0  0  0  0  0
   -1.3103    1.3348    1.2791 C   0  0  0  0  0  0  0  0  0  0  0  0
   -0.9929    1.6617    2.4166 O   0  0  0  0  0  0  0  0  0  0  0  0
   -1.8797    2.1753    0.4090 N   0  0  0  0  0  0  0  0  0  0  0  0
   -2.0792    1.8310   -0.5156 H   0  0  0  0  0  0  0  0  0  0  0  0
   -2.1548    3.5853    0.6915 C   0  0  0  0  0  0  0  0  0  0  0  0
   -1.2180    4.1122    0.8849 H   0  0  0  0  0  0  0  0  0  0  0  0
   -2.6561    4.0530   -0.1567 H   0  0  0  0  0  0  0  0  0  0  0  0
   -2.7879    3.6727    1.5772 H   0  0  0  0  0  0  0  0  0  0  0  0
  5  6  2  0  0  0  0
  5  7  1  0  0  0  0
  2  3  1  0  0  0  0
  2  4  1  0  0  0  0
  2  5  1  0  0  0  0
  1  2  1  0  0  0  0
 27 28  2  0  0  0  0
 27 29  1  0  0  0  0
 23 24  1  0  0  0  0
 23 25  1  0  0  0  0
 23 26  1  0  0  0  0
 20 21  1  0  0  0  0
 20 22  1  0  0  0  0
 20 23  1  0  0  0  0
 17 18  1  0  0  0  0
 17 19  1  0  0  0  0
 17 20  1  0  0  0  0
 14 15  1  0  0  0  0
 14 16  1  0  0  0  0
 14 17  1  0  0  0  0
 11 12  1  0  0  0  0
 11 13  1  0  0  0  0
 11 14  1  0  0  0  0
  9 10  1  0  0  0  0
  9 11  1  0  0  0  0
  9 27  1  0  0  0  0
  7  8  1  0  0  0  0
  7  9  1  0  0  0  0
 31 32  1  0  0  0  0
 31 33  1  0  0  0  0
 31 34  1  0  0  0  0
 29 30  1  0  0  0  0
 29 31  1  0  0  0  0
M  CHG  1  23   1
M  END
$$$$
default_name
  -OEChem-01062215323D

 34 33  0     1  0  0  0  0  0999 V2000
   -3.8899   -3.6747    1.6490 H   0  0  0  0  0  0  0  0  0  0  0  0
   -3.9109   -2.6717    1.2250 C   0  0  0  0  0  0  0  0  0  0  0  0
   -4.6009   -2.0517    1.7950 H   0  0  0  0  0  0  0  0  0  0  0  0
   -4.2309   -2.7237    0.1860 H   0  0  0  0  0  0  0  0  0  0  0  0
   -2.5229   -2.0787    1.2980 C   0  0  0  0  0  0  0  0  0  0  0  0
   -1.5999   -2.7227    1.7810 O   0  0  0  0  0  0  0  0  0  0  0  0
   -2.3659   -0.8447    0.8120 N   0  0  0  0  0  0  0  0  0  0  0  0
   -3.1749   -0.3807    0.4220 H   0  0  0  0  0  0  0  0  0  0  0  0
   -1.0919   -0.1077    0.8170 C   0  0  1  0  0  0  0  0  0  0  0  0
   -0.4136   -0.6011    1.5155 H   0  0  0  0  0  0  0  0  0  0  0  0
   -0.4834   -0.1723   -0.5965 C   0  0  0  0  0  0  0  0  0  0  0  0
   -1.2358    0.1578   -1.3143 H   0  0  0  0  0  0  0  0  0  0  0  0
    0.3648    0.5127   -0.6535 H   0  0  0  0  0  0  0  0  0  0  0  0
   -0.0223   -1.5828   -0.9945 C   0  0  0  0  0  0  0  0  0  0  0  0
    0.7217   -1.9409   -0.2816 H   0  0  0  0  0  0  0  0  0  0  0  0
   -0.8802   -2.2578   -0.9837 H   0  0  0  0  0  0  0  0  0  0  0  0
    0.5940   -1.5669   -2.4002 C   0  0  0  0  0  0  0  0  0  0  0  0
   -0.1486   -1.1937   -3.1094 H   0  0  0  0  0  0  0  0  0  0  0  0
    1.4568   -0.8978   -2.4032 H   0  0  0  0  0  0  0  0  0  0  0  0
    1.0322   -2.9789   -2.8088 C   0  0  0  0  0  0  0  0  0  0  0  0
    1.7692   -3.3373   -2.0828 H   0  0  0  0  0  0  0  0  0  0  0  0
    0.1626   -3.6410   -2.7584 H   0  0  0  0  0  0  0  0  0  0  0  0
    1.6110   -2.9965   -4.1760 N   0  3  0  0  0  0  0  0  0  0  0  0
    2.4226   -2.3935   -4.2263 H   0  0  0  0  0  0  0  0  0  0  0  0
    1.8946   -3.9345   -4.4304 H   0  0  0  0  0  0  0  0  0  0  0  0
    0.9297   -2.6739   -4.8532 H   0  0  0  0  0  0  0  0  0  0  0  0
   -1.3103    1.3348    1.2791 C   0  0  0  0  0  0  0  0  0  0  0  0
   -0.7547    1.7368    2.2946 O   0  0  0  0  0  0  0  0  0  0  0  0
   -2.1412    2.0897    0.5528 N   0  0  0  0  0  0  0  0  0  0  0  0
   -2.5298    1.6889   -0.2848 H   0  0  0  0  0  0  0  0  0  0  0  0
   -2.4553    3.4872    0.8557 C   0  0  0  0  0  0  0  0  0  0  0  0
   -1.5464    4.0901    0.7989 H   0  0  0  0  0  0  0  0  0  0  0  0
   -3.1842    3.8767    0.1441 H   0  0  0  0  0  0  0  0  0  0  0  0
   -2.8597    3.5690    1.8670 H   0  0  0  0  0  0  0  0  0  0  0  0
  5  6  2  0  0  0  0
  5  7  1  0  0  0  0
  2  3  1  0  0  0  0
  2  4  1  0  0  0  0
  2  5  1  0  0  0  0
  1  2  1  0  0  0  0
 27 28  2  0  0  0  0
 27 29  1  0  0  0  0
 23 24  1  0  0  0  0
 23 25  1  0  0  0  0
 23 26  1  0  0  0  0
 20 21  1  0  0  0  0
 20 22  1  0  0  0  0
 20 23  1  0  0  0  0
 17 18  1  0  0  0  0
 17 19  1  0  0  0  0
 17 20  1  0  0  0  0
 14 15  1  0  0  0  0
 14 16  1  0  0  0  0
 14 17  1  0  0  0  0
 11 12  1  0  0  0  0
 11 13  1  0  0  0  0
 11 14  1  0  0  0  0
  9 10  1  0  0  0  0
  9 11  1  0  0  0  0
  9 27  1  0  0  0  0
  7  8  1  0  0  0  0
  7  9  1  0  0  0  0
 31 32  1  0  0  0  0
 31 33  1  0  0  0  0
 31 34  1  0  0  0  0
 29 30  1  0  0  0  0
 29 31  1  0  0  0  0
M  CHG  1  23   1
M  END
$$$$
default_name
  -OEChem-01062215323D

 34 33  0     1  0  0  0  0  0999 V2000
   -3.8899   -3.6747    1.6490 H   0  0  0  0  0  0  0  0  0  0  0  0
   -3.9109   -2.6717    1.2250 C   0  0  0  0  0  0  0  0  0  0  0  0
   -4.6009   -2.0517    1.7950 H   0  0  0  0  0  0  0  0  0  0  0  0
   -4.2309   -2.7237    0.1860 H   0  0  0  0  0  0  0  0  0  0  0  0
   -2.5229   -2.0787    1.2980 C   0  0  0  0  0  0  0  0  0  0  0  0
   -1.5999   -2.7227    1.7810 O   0  0  0  0  0  0  0  0  0  0  0  0
   -2.3659   -0.8447    0.8120 N   0  0  0  0  0  0  0  0  0  0  0  0
   -3.1749   -0.3807    0.4220 H   0  0  0  0  0  0  0  0  0  0  0  0
   -1.0919   -0.1077    0.8170 C   0  0  1  0  0  0  0  0  0  0  0  0
   -0.4136   -0.6011    1.5155 H   0  0  0  0  0  0  0  0  0  0  0  0
   -0.4834   -0.1723   -0.5965 C   0  0  0  0  0  0  0  0  0  0  0  0
   -1.2358    0.1578   -1.3143 H   0  0  0  0  0  0  0  0  0  0  0  0
    0.3648    0.5127   -0.6535 H   0  0  0  0  0  0  0  0  0  0  0  0
   -0.0223   -1.5828   -0.9945 C   0  0  0  0  0  0  0  0  0  0  0  0
    0.7217   -1.9409   -0.2816 H   0  0  0  0  0  0  0  0  0  0  0  0
   -0.8802   -2.2578   -0.9837 H   0  0  0  0  0  0  0  0  0  0  0  0
    0.5940   -1.5669   -2.4002 C   0  0  0  0  0  0  0  0  0  0  0  0
   -0.1486   -1.1937   -3.1094 H   0  0  0  0  0  0  0  0  0  0  0  0
    1.4568   -0.8978   -2.4032 H   0  0  0  0  0  0  0  0  0  0  0  0
    1.0322   -2.9789   -2.8088 C   0  0  0  0  0  0  0  0  0  0  0  0
    1.7692   -3.3373   -2.0828 H   0  0  0  0  0  0  0  0  0  0  0  0
    0.1626   -3.6410   -2.7584 H   0  0  0  0  0  0  0  0  0  0  0  0
    1.6110   -2.9965   -4.1760 N   0  3  0  0  0  0  0  0  0  0  0  0
    2.4226   -2.3935   -4.2263 H   0  0  0  0  0  0  0  0  0  0  0  0
    1.8946   -3.9345   -4.4304 H   0  0  0  0  0  0  0  0  0  0  0  0
    0.9297   -2.6739   -4.8532 H   0  0  0  0  0  0  0  0  0  0  0  0
   -1.3103    1.3348    1.2791 C   0  0  0  0  0  0  0  0  0  0  0  0
   -0.5603    1.8235    2.1158 O   0  0  0  0  0  0  0  0  0  0  0  0
   -2.3520    1.9918    0.7586 N   0  0  0  0  0  0  0  0  0  0  0  0
   -2.8976    1.5249    0.0533 H   0  0  0  0  0  0  0  0  0  0  0  0
   -2.6978    3.3751    1.0912 C   0  0  0  0  0  0  0  0  0  0  0  0
   -1.8829    4.0398    0.7967 H   0  0  0  0  0  0  0  0  0  0  0  0
   -3.6071    3.6763    0.5699 H   0  0  0  0  0  0  0  0  0  0  0  0
   -2.8503    3.4740    2.1682 H   0  0  0  0  0  0  0  0  0  0  0  0
  5  6  2  0  0  0  0
  5  7  1  0  0  0  0
  2  3  1  0  0  0  0
  2  4  1  0  0  0  0
  2  5  1  0  0  0  0
  1  2  1  0  0  0  0
 27 28  2  0  0  0  0
 27 29  1  0  0  0  0
 23 24  1  0  0  0  0
 23 25  1  0  0  0  0
 23 26  1  0  0  0  0
 20 21  1  0  0  0  0
 20 22  1  0  0  0  0
 20 23  1  0  0  0  0
 17 18  1  0  0  0  0
 17 19  1  0  0  0  0
 17 20  1  0  0  0  0
 14 15  1  0  0  0  0
 14 16  1  0  0  0  0
 14 17  1  0  0  0  0
 11 12  1  0  0  0  0
 11 13  1  0  0  0  0
 11 14  1  0  0  0  0
  9 10  1  0  0  0  0
  9 11  1  0  0  0  0
  9 27  1  0  0  0  0
  7  8  1  0  0  0  0
  7  9  1  0  0  0  0
 31 32  1  0  0  0  0
 31 33  1  0  0  0  0
 31 34  1  0  0  0  0
 29 30  1  0  0  0  0
 29 31  1  0  0  0  0
M  CHG  1  23   1
M  END
$$$$
default_name
  -OEChem-01062215323D

 34 33  0     1  0  0  0  0  0999 V2000
   -3.8899   -3.6747    1.6490 H   0  0  0  0  0  0  0  0  0  0  0  0
   -3.9109   -2.6717    1.2250 C   0  0  0  0  0  0  0  0  0  0  0  0
   -4.6009   -2.0517    1.7950 H   0  0  0  0  0  0  0  0  0  0  0  0
   -4.2309   -2.7237    0.1860 H   0  0  0  0  0  0  0  0  0  0  0  0
   -2.5229   -2.0787    1.2980 C   0  0  0  0  0  0  0  0  0  0  0  0
   -1.5999   -2.7227    1.7810 O   0  0  0  0  0  0  0  0  0  0  0  0
   -2.3659   -0.8447    0.8120 N   0  0  0  0  0  0  0  0  0  0  0  0
   -3.1749   -0.3807    0.4220 H   0  0  0  0  0  0  0  0  0  0  0  0
   -1.0919   -0.1077    0.8170 C   0  0  1  0  0  0  0  0  0  0  0  0
   -0.4136   -0.6011    1.5155 H   0  0  0  0  0  0  0  0  0  0  0  0
   -0.4834   -0.1723   -0.5965 C   0  0  0  0  0  0  0  0  0  0  0  0
   -1.2358    0.1578   -1.3143 H   0  0  0  0  0  0  0  0  0  0  0  0
    0.3648    0.5127   -0.6535 H   0  0  0  0  0  0  0  0  0  0  0  0
   -0.0223   -1.5828   -0.9945 C   0  0  0  0  0  0  0  0  0  0  0  0
    0.7217   -1.9409   -0.2816 H   0  0  0  0  0  0  0  0  0  0  0  0
   -0.8802   -2.2578   -0.9837 H   0  0  0  0  0  0  0  0  0  0  0  0
    0.5940   -1.5669   -2.4002 C   0  0  0  0  0  0  0  0  0  0  0  0
   -0.1486   -1.1937   -3.1094 H   0  0  0  0  0  0  0  0  0  0  0  0
    1.4568   -0.8978   -2.4032 H   0  0  0  0  0  0  0  0  0  0  0  0
    1.0322   -2.9789   -2.8088 C   0  0  0  0  0  0  0  0  0  0  0  0
    1.7692   -3.3373   -2.0828 H   0  0  0  0  0  0  0  0  0  0  0  0
    0.1626   -3.6410   -2.7584 H   0  0  0  0  0  0  0  0  0  0  0  0
    1.6110   -2.9965   -4.1760 N   0  3  0  0  0  0  0  0  0  0  0  0
    2.4226   -2.3935   -4.2263 H   0  0  0  0  0  0  0  0  0  0  0  0
    1.8946   -3.9345   -4.4304 H   0  0  0  0  0  0  0  0  0  0  0  0
    0.9297   -2.6739   -4.8532 H   0  0  0  0  0  0  0  0  0  0  0  0
   -1.3103    1.3348    1.2791 C   0  0  0  0  0  0  0  0  0  0  0  0
   -0.4228    1.9158    1.8925 O   0  0  0  0  0  0  0  0  0  0  0  0
   -2.4978    1.8884    1.0125 N   0  0  0  0  0  0  0  0  0  0  0  0
   -3.1576    1.3503    0.4757 H   0  0  0  0  0  0  0  0  0  0  0  0
   -2.8658    3.2565    1.3820 C   0  0  0  0  0  0  0  0  0  0  0  0
   -2.2046    3.9649    0.8785 H   0  0  0  0  0  0  0  0  0  0  0  0
   -3.8961    3.4654    1.0918 H   0  0  0  0  0  0  0  0  0  0  0  0
   -2.7602    3.3940    2.4604 H   0  0  0  0  0  0  0  0  0  0  0  0
  5  6  2  0  0  0  0
  5  7  1  0  0  0  0
  2  3  1  0  0  0  0
  2  4  1  0  0  0  0
  2  5  1  0  0  0  0
  1  2  1  0  0  0  0
 27 28  2  0  0  0  0
 27 29  1  0  0  0  0
 23 24  1  0  0  0  0
 23 25  1  0  0  0  0
 23 26  1  0  0  0  0
 20 21  1  0  0  0  0
 20 22  1  0  0  0  0
 20 23  1  0  0  0  0
 17 18  1  0  0  0  0
 17 19  1  0  0  0  0
 17 20  1  0  0  0  0
 14 15  1  0  0  0  0
 14 16  1  0  0  0  0
 14 17  1  0  0  0  0
 11 12  1  0  0  0  0
 11 13  1  0  0  0  0
 11 14  1  0  0  0  0
  9 10  1  0  0  0  0
  9 11  1  0  0  0  0
  9 27  1  0  0  0  0
  7  8  1  0  0  0  0
  7  9  1  0  0  0  0
 31 32  1  0  0  0  0
 31 33  1  0  0  0  0
 31 34  1  0  0  0  0
 29 30  1  0  0  0  0
 29 31  1  0  0  0  0
M  CHG  1  23   1
M  END
$$$$
default_name
  -OEChem-01062215323D

 34 33  0     1  0  0  0  0  0999 V2000
   -3.8899   -3.6747    1.6490 H   0  0  0  0  0  0  0  0  0  0  0  0
   -3.9109   -2.6717    1.2250 C   0  0  0  0  0  0  0  0  0  0  0  0
   -4.6009   -2.0517    1.7950 H   0  0  0  0  0  0  0  0  0  0  0  0
   -4.2309   -2.7237    0.1860 H   0  0  0  0  0  0  0  0  0  0  0  0
   -2.5229   -2.0787    1.2980 C   0  0  0  0  0  0  0  0  0  0  0  0
   -1.5999   -2.7227    1.7810 O   0  0  0  0  0  0  0  0  0  0  0  0
   -2.3659   -0.8447    0.8120 N   0  0  0  0  0  0  0  0  0  0  0  0
   -3.1749   -0.3807    0.4220 H   0  0  0  0  0  0  0  0  0  0  0  0
   -1.0919   -0.1077    0.8170 C   0  0  1  0  0  0  0  0  0  0  0  0
   -0.4136   -0.6011    1.5155 H   0  0  0  0  0  0  0  0  0  0  0  0
   -0.4834   -0.1723   -0.5965 C   0  0  0  0  0  0  0  0  0  0  0  0
   -1.2358    0.1578   -1.3143 H   0  0  0  0  0  0  0  0  0  0  0  0
    0.3648    0.5127   -0.6535 H   0  0  0  0  0  0  0  0  0  0  0  0
   -0.0223   -1.5828   -0.9945 C   0  0  0  0  0  0  0  0  0  0  0  0
    0.7217   -1.9409   -0.2816 H   0  0  0  0  0  0  0  0  0  0  0  0
   -0.8802   -2.2578   -0.9837 H   0  0  0  0  0  0  0  0  0  0  0  0
    0.5940   -1.5669   -2.4002 C   0  0  0  0  0  0  0  0  0  0  0  0
   -0.1486   -1.1937   -3.1094 H   0  0  0  0  0  0  0  0  0  0  0  0
    1.4568   -0.8978   -2.4032 H   0  0  0  0  0  0  0  0  0  0  0  0
    1.0322   -2.9789   -2.8088 C   0  0  0  0  0  0  0  0  0  0  0  0
    1.7692   -3.3373   -2.0828 H   0  0  0  0  0  0  0  0  0  0  0  0
    0.1626   -3.6410   -2.7584 H   0  0  0  0  0  0  0  0  0  0  0  0
    1.6110   -2.9965   -4.1760 N   0  3  0  0  0  0  0  0  0  0  0  0
    2.4226   -2.3935   -4.2263 H   0  0  0  0  0  0  0  0  0  0  0  0
    1.8946   -3.9345   -4.4304 H   0  0  0  0  0  0  0  0  0  0  0  0
    0.9297   -2.6739   -4.8532 H   0  0  0  0  0  0  0  0  0  0  0  0
   -1.3103    1.3348    1.2791 C   0  0  0  0  0  0  0  0  0  0  0  0
   -0.3517    2.0075    1.6399 O   0  0  0  0  0  0  0  0  0  0  0  0
   -2.5686    1.7866    1.2972 N   0  0  0  0  0  0  0  0  0  0  0  0
   -3.2920    1.1769    0.9535 H   0  0  0  0  0  0  0  0  0  0  0  0
   -2.9479    3.1395    1.7083 C   0  0  0  0  0  0  0  0  0  0  0  0
   -2.4895    3.8705    1.0388 H   0  0  0  0  0  0  0  0  0  0  0  0
   -4.0315    3.2583    1.6742 H   0  0  0  0  0  0  0  0  0  0  0  0
   -2.5957    3.3346    2.7236 H   0  0  0  0  0  0  0  0  0  0  0  0
  5  6  2  0  0  0  0
  5  7  1  0  0  0  0
  2  3  1  0  0  0  0
  2  4  1  0  0  0  0
  2  5  1  0  0  0  0
  1  2  1  0  0  0  0
 27 28  2  0  0  0  0
 27 29  1  0  0  0  0
 23 24  1  0  0  0  0
 23 25  1  0  0  0  0
 23 26  1  0  0  0  0
 20 21  1  0  0  0  0
 20 22  1  0  0  0  0
 20 23  1  0  0  0  0
 17 18  1  0  0  0  0
 17 19  1  0  0  0  0
 17 20  1  0  0  0  0
 14 15  1  0  0  0  0
 14 16  1  0  0  0  0
 14 17  1  0  0  0  0
 11 12  1  0  0  0  0
 11 13  1  0  0  0  0
 11 14  1  0  0  0  0
  9 10  1  0  0  0  0
  9 11  1  0  0  0  0
  9 27  1  0  0  0  0
  7  8  1  0  0  0  0
  7  9  1  0  0  0  0
 31 32  1  0  0  0  0
 31 33  1  0  0  0  0
 31 34  1  0  0  0  0
 29 30  1  0  0  0  0
 29 31  1  0  0  0  0
M  CHG  1  23   1
M  END
$$$$
default_name
  -OEChem-01062215323D

 34 33  0     1  0  0  0  0  0999 V2000
   -3.8899   -3.6747    1.6490 H   0  0  0  0  0  0  0  0  0  0  0  0
   -3.9109   -2.6717    1.2250 C   0  0  0  0  0  0  0  0  0  0  0  0
   -4.6009   -2.0517    1.7950 H   0  0  0  0  0  0  0  0  0  0  0  0
   -4.2309   -2.7237    0.1860 H   0  0  0  0  0  0  0  0  0  0  0  0
   -2.5229   -2.0787    1.2980 C   0  0  0  0  0  0  0  0  0  0  0  0
   -1.5999   -2.7227    1.7810 O   0  0  0  0  0  0  0  0  0  0  0  0
   -2.3659   -0.8447    0.8120 N   0  0  0  0  0  0  0  0  0  0  0  0
   -3.1749   -0.3807    0.4220 H   0  0  0  0  0  0  0  0  0  0  0  0
   -1.0919   -0.1077    0.8170 C   0  0  1  0  0  0  0  0  0  0  0  0
   -0.4136   -0.6011    1.5155 H   0  0  0  0  0  0  0  0  0  0  0  0
   -0.4834   -0.1723   -0.5965 C   0  0  0  0  0  0  0  0  0  0  0  0
   -1.2358    0.1578   -1.3143 H   0  0  0  0  0  0  0  0  0  0  0  0
    0.3648    0.5127   -0.6535 H   0  0  0  0  0  0  0  0  0  0  0  0
   -0.0223   -1.5828   -0.9945 C   0  0  0  0  0  0  0  0  0  0  0  0
    0.7217   -1.9409   -0.2816 H   0  0  0  0  0  0  0  0  0  0  0  0
   -0.8802   -2.2578   -0.9837 H   0  0  0  0  0  0  0  0  0  0  0  0
    0.5940   -1.5669   -2.4002 C   0  0  0  0  0  0  0  0  0  0  0  0
   -0.1486   -1.1937   -3.1094 H   0  0  0  0  0  0  0  0  0  0  0  0
    1.4568   -0.8978   -2.4032 H   0  0  0  0  0  0  0  0  0  0  0  0
    1.0322   -2.9789   -2.8088 C   0  0  0  0  0  0  0  0  0  0  0  0
    1.7692   -3.3373   -2.0828 H   0  0  0  0  0  0  0  0  0  0  0  0
    0.1626   -3.6410   -2.7584 H   0  0  0  0  0  0  0  0  0  0  0  0
    1.6110   -2.9965   -4.1760 N   0  3  0  0  0  0  0  0  0  0  0  0
    2.4226   -2.3935   -4.2263 H   0  0  0  0  0  0  0  0  0  0  0  0
    1.8946   -3.9345   -4.4304 H   0  0  0  0  0  0  0  0  0  0  0  0
    0.9297   -2.6739   -4.8532 H   0  0  0  0  0  0  0  0  0  0  0  0
   -1.3103    1.3348    1.2791 C   0  0  0  0  0  0  0  0  0  0  0  0
   -0.3519    2.0923    1.3751 O   0  0  0  0  0  0  0  0  0  0  0  0
   -2.5596    1.6931    1.5931 N   0  0  0  0  0  0  0  0  0  0  0  0
   -3.2917    1.0165    1.4542 H   0  0  0  0  0  0  0  0  0  0  0  0
   -2.9385    3.0322    2.0478 C   0  0  0  0  0  0  0  0  0  0  0  0
   -2.7181    3.7629    1.2666 H   0  0  0  0  0  0  0  0  0  0  0  0
   -4.0039    3.0693    2.2775 H   0  0  0  0  0  0  0  0  0  0  0  0
   -2.3680    3.2998    2.9398 H   0  0  0  0  0  0  0  0  0  0  0  0
  5  6  2  0  0  0  0
  5  7  1  0  0  0  0
  2  3  1  0  0  0  0
  2  4  1  0  0  0  0
  2  5  1  0  0  0  0
  1  2  1  0  0  0  0
 27 28  2  0  0  0  0
 27 29  1  0  0  0  0
 23 24  1  0  0  0  0
 23 25  1  0  0  0  0
 23 26  1  0  0  0  0
 20 21  1  0  0  0  0
 20 22  1  0  0  0  0
 20 23  1  0  0  0  0
 17 18  1  0  0  0  0
 17 19  1  0  0  0  0
 17 20  1  0  0  0  0
 14 15  1  0  0  0  0
 14 16  1  0  0  0  0
 14 17  1  0  0  0  0
 11 12  1  0  0  0  0
 11 13  1  0  0  0  0
 11 14  1  0  0  0  0
  9 10  1  0  0  0  0
  9 11  1  0  0  0  0
  9 27  1  0  0  0  0
  7  8  1  0  0  0  0
  7  9  1  0  0  0  0
 31 32  1  0  0  0  0
 31 33  1  0  0  0  0
 31 34  1  0  0  0  0
 29 30  1  0  0  0  0
 29 31  1  0  0  0  0
M  CHG  1  23   1
M  END
$$$$
default_name
  -OEChem-01062215323D

 34 33  0     1  0  0  0  0  0999 V2000
   -3.8899   -3.6747    1.6490 H   0  0  0  0  0  0  0  0  0  0  0  0
   -3.9109   -2.6717    1.2250 C   0  0  0  0  0  0  0  0  0  0  0  0
   -4.6009   -2.0517    1.7950 H   0  0  0  0  0  0  0  0  0  0  0  0
   -4.2309   -2.7237    0.1860 H   0  0  0  0  0  0  0  0  0  0  0  0
   -2.5229   -2.0787    1.2980 C   0  0  0  0  0  0  0  0  0  0  0  0
   -1.5999   -2.7227    1.7810 O   0  0  0  0  0  0  0  0  0  0  0  0
   -2.3659   -0.8447    0.8120 N   0  0  0  0  0  0  0  0  0  0  0  0
   -3.1749   -0.3807    0.4220 H   0  0  0  0  0  0  0  0  0  0  0  0
   -1.0919   -0.1077    0.8170 C   0  0  1  0  0  0  0  0  0  0  0  0
   -0.4136   -0.6011    1.5155 H   0  0  0  0  0  0  0  0  0  0  0  0
   -0.4834   -0.1723   -0.5965 C   0  0  0  0  0  0  0  0  0  0  0  0
   -1.2358    0.1578   -1.3143 H   0  0  0  0  0  0  0  0  0  0  0  0
    0.3648    0.5127   -0.6535 H   0  0  0  0  0  0  0  0  0  0  0  0
   -0.0223   -1.5828   -0.9945 C   0  0  0  0  0  0  0  0  0  0  0  0
    0.7217   -1.9409   -0.2816 H   0  0  0  0  0  0  0  0  0  0  0  0
   -0.8802   -2.2578   -0.9837 H   0  0  0  0  0  0  0  0  0  0  0  0
    0.5940   -1.5669   -2.4002 C   0  0  0  0  0  0  0  0  0  0  0  0
   -0.1486   -1.1937   -3.1094 H   0  0  0  0  0  0  0  0  0  0  0  0
    1.4568   -0.8978   -2.4032 H   0  0  0  0  0  0  0  0  0  0  0  0
    1.0322   -2.9789   -2.8088 C   0  0  0  0  0  0  0  0  0  0  0  0
    1.7692   -3.3373   -2.0828 H   0  0  0  0  0  0  0  0  0  0  0  0
    0.1626   -3.6410   -2.7584 H   0  0  0  0  0  0  0  0  0  0  0  0
    1.6110   -2.9965   -4.1760 N   0  3  0  0  0  0  0  0  0  0  0  0
    2.4226   -2.3935   -4.2263 H   0  0  0  0  0  0  0  0  0  0  0  0
    1.8946   -3.9345   -4.4304 H   0  0  0  0  0  0  0  0  0  0  0  0
    0.9297   -2.6739   -4.8532 H   0  0  0  0  0  0  0  0  0  0  0  0
   -1.3103    1.3348    1.2791 C   0  0  0  0  0  0  0  0  0  0  0  0
   -0.4232    2.1644    1.1163 O   0  0  0  0  0  0  0  0  0  0  0  0
   -2.4713    1.6145    1.8802 N   0  0  0  0  0  0  0  0  0  0  0  0
   -3.1568    0.8801    1.9438 H   0  0  0  0  0  0  0  0  0  0  0  0
   -2.8381    2.9418    2.3773 C   0  0  0  0  0  0  0  0  0  0  0  0
   -2.8750    3.6495    1.5464 H   0  0  0  0  0  0  0  0  0  0  0  0
   -3.8154    2.9111    2.8604 H   0  0  0  0  0  0  0  0  0  0  0  0
   -2.0925    3.2920    3.0945 H   0  0  0  0  0  0  0  0  0  0  0  0
  5  6  2  0  0  0  0
  5  7  1  0  0  0  0
  2  3  1  0  0  0  0
  2  4  1  0  0  0  0
  2  5  1  0  0  0  0
  1  2  1  0  0  0  0
 27 28  2  0  0  0  0
 27 29  1  0  0  0  0
 23 24  1  0  0  0  0
 23 25  1  0  0  0  0
 23 26  1  0  0  0  0
 20 21  1  0  0  0  0
 20 22  1  0  0  0  0
 20 23  1  0  0  0  0
 17 18  1  0  0  0  0
 17 19  1  0  0  0  0
 17 20  1  0  0  0  0
 14 15  1  0  0  0  0
 14 16  1  0  0  0  0
 14 17  1  0  0  0  0
 11 12  1  0  0  0  0
 11 13  1  0  0  0  0
 11 14  1  0  0  0  0
  9 10  1  0  0  0  0
  9 11  1  0  0  0  0
  9 27  1  0  0  0  0
  7  8  1  0  0  0  0
  7  9  1  0  0  0  0
 31 32  1  0  0  0  0
 31 33  1  0  0  0  0
 31 34  1  0  0  0  0
 29 30  1  0  0  0  0
 29 31  1  0  0  0  0
M  CHG  1  23   1
M  END
$$$$
default_name
  -OEChem-01062215323D

 34 33  0     1  0  0  0  0  0999 V2000
   -3.8899   -3.6747    1.6490 H   0  0  0  0  0  0  0  0  0  0  0  0
   -3.9109   -2.6717    1.2250 C   0  0  0  0  0  0  0  0  0  0  0  0
   -4.6009   -2.0517    1.7950 H   0  0  0  0  0  0  0  0  0  0  0  0
   -4.2309   -2.7237    0.1860 H   0  0  0  0  0  0  0  0  0  0  0  0
   -2.5229   -2.0787    1.2980 C   0  0  0  0  0  0  0  0  0  0  0  0
   -1.5999   -2.7227    1.7810 O   0  0  0  0  0  0  0  0  0  0  0  0
   -2.3659   -0.8447    0.8120 N   0  0  0  0  0  0  0  0  0  0  0  0
   -3.1749   -0.3807    0.4220 H   0  0  0  0  0  0  0  0  0  0  0  0
   -1.0919   -0.1077    0.8170 C   0  0  1  0  0  0  0  0  0  0  0  0
   -0.4136   -0.6011    1.5155 H   0  0  0  0  0  0  0  0  0  0  0  0
   -0.4834   -0.1723   -0.5965 C   0  0  0  0  0  0  0  0  0  0  0  0
   -1.2358    0.1578   -1.3143 H   0  0  0  0  0  0  0  0  0  0  0  0
    0.3648    0.5127   -0.6535 H   0  0  0  0  0  0  0  0  0  0  0  0
   -0.0223   -1.5828   -0.9945 C   0  0  0  0  0  0  0  0  0  0  0  0
    0.7217   -1.9409   -0.2816 H   0  0  0  0  0  0  0  0  0  0  0  0
   -0.8802   -2.2578   -0.9837 H   0  0  0  0  0  0  0  0  0  0  0  0
    0.5940   -1.5669   -2.4002 C   0  0  0  0  0  0  0  0  0  0  0  0
   -0.1486   -1.1937   -3.1094 H   0  0  0  0  0  0  0  0  0  0  0  0
    1.4568   -0.8978   -2.4032 H   0  0  0  0  0  0  0  0  0  0  0  0
    1.0322   -2.9789   -2.8088 C   0  0  0  0  0  0  0  0  0  0  0  0
    1.7692   -3.3373   -2.0828 H   0  0  0  0  0  0  0  0  0  0  0  0
    0.1626   -3.6410   -2.7584 H   0  0  0  0  0  0  0  0  0  0  0  0
    1.6110   -2.9965   -4.1760 N   0  3  0  0  0  0  0  0  0  0  0  0
    2.4226   -2.3935   -4.2263 H   0  0  0  0  0  0  0  0  0  0  0  0
    1.8946   -3.9345   -4.4304 H   0  0  0  0  0  0  0  0  0  0  0  0
    0.9297   -2.6739   -4.8532 H   0  0  0  0  0  0  0  0  0  0  0  0
   -1.3103    1.3348    1.2791 C   0  0  0  0  0  0  0  0  0  0  0  0
   -0.5609    2.2189    0.8811 O   0  0  0  0  0  0  0  0  0  0  0  0
   -2.3099    1.5561    2.1390 N   0  0  0  0  0  0  0  0  0  0  0  0
   -2.8963    0.7770    2.3888 H   0  0  0  0  0  0  0  0  0  0  0  0
   -2.6538    2.8745    2.6745 C   0  0  0  0  0  0  0  0  0  0  0  0
   -2.9495    3.5381    1.8591 H   0  0  0  0  0  0  0  0  0  0  0  0
   -3.4787    2.7945    3.3834 H   0  0  0  0  0  0  0  0  0  0  0  0
   -1.7881    3.3116    3.1770 H   0  0  0  0  0  0  0  0  0  0  0  0
  5  6  2  0  0  0  0
  5  7  1  0  0  0  0
  2  3  1  0  0  0  0
  2  4  1  0  0  0  0
  2  5  1  0  0  0  0
  1  2  1  0  0  0  0
 27 28  2  0  0  0  0
 27 29  1  0  0  0  0
 23 24  1  0  0  0  0
 23 25  1  0  0  0  0
 23 26  1  0  0  0  0
 20 21  1  0  0  0  0
 20 22  1  0  0  0  0
 20 23  1  0  0  0  0
 17 18  1  0  0  0  0
 17 19  1  0  0  0  0
 17 20  1  0  0  0  0
 14 15  1  0  0  0  0
 14 16  1  0  0  0  0
 14 17  1  0  0  0  0
 11 12  1  0  0  0  0
 11 13  1  0  0  0  0
 11 14  1  0  0  0  0
  9 10  1  0  0  0  0
  9 11  1  0  0  0  0
  9 27  1  0  0  0  0
  7  8  1  0  0  0  0
  7  9  1  0  0  0  0
 31 32  1  0  0  0  0
 31 33  1  0  0  0  0
 31 34  1  0  0  0  0
 29 30  1  0  0  0  0
 29 31  1  0  0  0  0
M  CHG  1  23   1
M  END
$$$$
default_name
  -OEChem-01062215323D

 34 33  0     1  0  0  0  0  0999 V2000
   -3.8899   -3.6747    1.6490 H   0  0  0  0  0  0  0  0  0  0  0  0
   -3.9109   -2.6717    1.2250 C   0  0  0  0  0  0  0  0  0  0  0  0
   -4.6009   -2.0517    1.7950 H   0  0  0  0  0  0  0  0  0  0  0  0
   -4.2309   -2.7237    0.1860 H   0  0  0  0  0  0  0  0  0  0  0  0
   -2.5229   -2.0787    1.2980 C   0  0  0  0  0  0  0  0  0  0  0  0
   -1.5999   -2.7227    1.7810 O   0  0  0  0  0  0  0  0  0  0  0  0
   -2.3659   -0.8447    0.8120 N   0  0  0  0  0  0  0  0  0  0  0  0
   -3.1749   -0.3807    0.4220 H   0  0  0  0  0  0  0  0  0  0  0  0
   -1.0919   -0.1077    0.8170 C   0  0  1  0  0  0  0  0  0  0  0  0
   -0.4136   -0.6011    1.5155 H   0  0  0  0  0  0  0  0  0  0  0  0
   -0.4834   -0.1723   -0.5965 C   0  0  0  0  0  0  0  0  0  0  0  0
   -1.2358    0.1578   -1.3143 H   0  0  0  0  0  0  0  0  0  0  0  0
    0.3648    0.5127   -0.6535 H   0  0  0  0  0  0  0  0  0  0  0  0
   -0.0223   -1.5828   -0.9945 C   0  0  0  0  0  0  0  0  0  0  0  0
    0.7217   -1.9409   -0.2816 H   0  0  0  0  0  0  0  0  0  0  0  0
   -0.8802   -2.2578   -0.9837 H   0  0  0  0  0  0  0  0  0  0  0  0
    0.5940   -1.5669   -2.4002 C   0  0  0  0  0  0  0  0  0  0  0  0
   -0.1486   -1.1937   -3.1094 H   0  0  0  0  0  0  0  0  0  0  0  0
    1.4568   -0.8978   -2.4032 H   0  0  0  0  0  0  0  0  0  0  0  0
    1.0322   -2.9789   -2.8088 C   0  0  0  0  0  0  0  0  0  0  0  0
    1.7692   -3.3373   -2.0828 H   0  0  0  0  0  0  0  0  0  0  0  0
    0.1626   -3.6410   -2.7584 H   0  0  0  0  0  0  0  0  0  0  0  0
    1.6110   -2.9965   -4.1760 N   0  3  0  0  0  0  0  0  0  0  0  0
    2.4226   -2.3935   -4.2263 H   0  0  0  0  0  0  0  0  0  0  0  0
    1.8946   -3.9345   -4.4304 H   0  0  0  0  0  0  0  0  0  0  0  0
    0.9297   -2.6739   -4.8532 H   0  0  0  0  0  0  0  0  0  0  0  0
   -1.3103    1.3348    1.2791 C   0  0  0  0  0  0  0  0  0  0  0  0
   -0.7556    2.2521    0.6854 O   0  0  0  0  0  0  0  0  0  0  0  0
   -2.0863    1.5218    2.3517 N   0  0  0  0  0  0  0  0  0  0  0  0
   -2.5281    0.7142    2.7588 H   0  0  0  0  0  0  0  0  0  0  0  0
   -2.3979    2.8349    2.9191 C   0  0  0  0  0  0  0  0  0  0  0  0
   -2.9364    3.4362    2.1834 H   0  0  0  0  0  0  0  0  0  0  0  0
   -3.0168    2.7276    3.8106 H   0  0  0  0  0  0  0  0  0  0  0  0
   -1.4754    3.3575    3.1816 H   0  0  0  0  0  0  0  0  0  0  0  0
  5  6  2  0  0  0  0
  5  7  1  0  0  0  0
  2  3  1  0  0  0  0
  2  4  1  0  0  0  0
  2  5  1  0  0  0  0
  1  2  1  0  0  0  0
 27 28  2  0  0  0  0
 27 29  1  0  0  0  0
 23 24  1  0  0  0  0
 23 25  1  0  0  0  0
 23 26  1  0  0  0  0
 20 21  1  0  0  0  0
 20 22  1  0  0  0  0
 20 23  1  0  0  0  0
 17 18  1  0  0  0  0
 17 19  1  0  0  0  0
 17 20  1  0  0  0  0
 14 15  1  0  0  0  0
 14 16  1  0  0  0  0
 14 17  1  0  0  0  0
 11 12  1  0  0  0  0
 11 13  1  0  0  0  0
 11 14  1  0  0  0  0
  9 10  1  0  0  0  0
  9 11  1  0  0  0  0
  9 27  1  0  0  0  0
  7  8  1  0  0  0  0
  7  9  1  0  0  0  0
 31 32  1  0  0  0  0
 31 33  1  0  0  0  0
 31 34  1  0  0  0  0
 29 30  1  0  0  0  0
 29 31  1  0  0  0  0
M  CHG  1  23   1
M  END
$$$$
default_name
  -OEChem-01062215323D

 34 33  0     1  0  0  0  0  0999 V2000
   -3.8899   -3.6747    1.6490 H   0  0  0  0  0  0  0  0  0  0  0  0
   -3.9109   -2.6717    1.2250 C   0  0  0  0  0  0  0  0  0  0  0  0
   -4.6009   -2.0517    1.7950 H   0  0  0  0  0  0  0  0  0  0  0  0
   -4.2309   -2.7237    0.1860 H   0  0  0  0  0  0  0  0  0  0  0  0
   -2.5229   -2.0787    1.2980 C   0  0  0  0  0  0  0  0  0  0  0  0
   -1.5999   -2.7227    1.7810 O   0  0  0  0  0  0  0  0  0  0  0  0
   -2.3659   -0.8447    0.8120 N   0  0  0  0  0  0  0  0  0  0  0  0
   -3.1749   -0.3807    0.4220 H   0  0  0  0  0  0  0  0  0  0  0  0
   -1.0919   -0.1077    0.8170 C   0  0  1  0  0  0  0  0  0  0  0  0
   -0.4136   -0.6011    1.5155 H   0  0  0  0  0  0  0  0  0  0  0  0
   -0.4834   -0.1723   -0.5965 C   0  0  0  0  0  0  0  0  0  0  0  0
   -1.2358    0.1578   -1.3143 H   0  0  0  0  0  0  0  0  0  0  0  0
    0.3648    0.5127   -0.6535 H   0  0  0  0  0  0  0  0  0  0  0  0
   -0.0223   -1.5828   -0.9945 C   0  0  0  0  0  0  0  0  0  0  0  0
    0.7217   -1.9409   -0.2816 H   0  0  0  0  0  0  0  0  0  0  0  0
   -0.8802   -2.2578   -0.9837 H   0  0  0  0  0  0  0  0  0  0  0  0
    0.5940   -1.5669   -2.4002 C   0  0  0  0  0  0  0  0  0  0  0  0
   -0.1486   -1.1937   -3.1094 H   0  0  0  0  0  0  0  0  0  0  0  0
    1.4568   -0.8978   -2.4032 H   0  0  0  0  0  0  0  0  0  0  0  0
    1.0322   -2.9789   -2.8088 C   0  0  0  0  0  0  0  0  0  0  0  0
    1.7692   -3.3373   -2.0828 H   0  0  0  0  0  0  0  0  0  0  0  0
    0.1626   -3.6410   -2.7584 H   0  0  0  0  0  0  0  0  0  0  0  0
    1.6110   -2.9965   -4.1760 N   0  3  0  0  0  0  0  0  0  0  0  0
    2.4226   -2.3935   -4.2263 H   0  0  0  0  0  0  0  0  0  0  0  0
    1.8946   -3.9345   -4.4304 H   0  0  0  0  0  0  0  0  0  0  0  0
    0.9297   -2.6739   -4.8532 H   0  0  0  0  0  0  0  0  0  0  0  0
   -1.3103    1.3348    1.2791 C   0  0  0  0  0  0  0  0  0  0  0  0
   -0.9940    2.2618    0.5427 O   0  0  0  0  0  0  0  0  0  0  0  0
   -1.8158    1.5140    2.5038 N   0  0  0  0  0  0  0  0  0  0  0  0
   -2.0773    0.6960    3.0288 H   0  0  0  0  0  0  0  0  0  0  0  0
   -2.0880    2.8257    3.0944 C   0  0  0  0  0  0  0  0  0  0  0  0
   -2.8366    3.3507    2.4973 H   0  0  0  0  0  0  0  0  0  0  0  0
   -2.4612    2.7148    4.1131 H   0  0  0  0  0  0  0  0  0  0  0  0
   -1.1759    3.4263    3.1081 H   0  0  0  0  0  0  0  0  0  0  0  0
  5  6  2  0  0  0  0
  5  7  1  0  0  0  0
  2  3  1  0  0  0  0
  2  4  1  0  0  0  0
  2  5  1  0  0  0  0
  1  2  1  0  0  0  0
 27 28  2  0  0  0  0
 27 29  1  0  0  0  0
 23 24  1  0  0  0  0
 23 25  1  0  0  0  0
 23 26  1  0  0  0  0
 20 21  1  0  0  0  0
 20 22  1  0  0  0  0
 20 23  1  0  0  0  0
 17 18  1  0  0  0  0
 17 19  1  0  0  0  0
 17 20  1  0  0  0  0
 14 15  1  0  0  0  0
 14 16  1  0  0  0  0
 14 17  1  0  0  0  0
 11 12  1  0  0  0  0
 11 13  1  0  0  0  0
 11 14  1  0  0  0  0
  9 10  1  0  0  0  0
  9 11  1  0  0  0  0
  9 27  1  0  0  0  0
  7  8  1  0  0  0  0
  7  9  1  0  0  0  0
 31 32  1  0  0  0  0
 31 33  1  0  0  0  0
 31 34  1  0  0  0  0
 29 30  1  0  0  0  0
 29 31  1  0  0  0  0
M  CHG  1  23   1
M  END
$$$$
default_name
  -OEChem-01062215323D

 34 33  0     1  0  0  0  0  0999 V2000
   -3.8899   -3.6747    1.6490 H   0  0  0  0  0  0  0  0  0  0  0  0
   -3.9109   -2.6717    1.2250 C   0  0  0  0  0  0  0  0  0  0  0  0
   -4.6009   -2.0517    1.7950 H   0  0  0  0  0  0  0  0  0  0  0  0
   -4.2309   -2.7237    0.1860 H   0  0  0  0  0  0  0  0  0  0  0  0
   -2.5229   -2.0787    1.2980 C   0  0  0  0  0  0  0  0  0  0  0  0
   -1.5999   -2.7227    1.7810 O   0  0  0  0  0  0  0  0  0  0  0  0
   -2.3659   -0.8447    0.8120 N   0  0  0  0  0  0  0  0  0  0  0  0
   -3.1749   -0.3807    0.4220 H   0  0  0  0  0  0  0  0  0  0  0  0
   -1.0919   -0.1077    0.8170 C   0  0  1  0  0  0  0  0  0  0  0  0
   -0.4136   -0.6011    1.5155 H   0  0  0  0  0  0  0  0  0  0  0  0
   -0.4834   -0.1723   -0.5965 C   0  0  0  0  0  0  0  0  0  0  0  0
   -1.2358    0.1578   -1.3143 H   0  0  0  0  0  0  0  0  0  0  0  0
    0.3648    0.5127   -0.6535 H   0  0  0  0  0  0  0  0  0  0  0  0
   -0.0223   -1.5828   -0.9945 C   0  0  0  0  0  0  0  0  0  0  0  0
    0.7217   -1.9409   -0.2816 H   0  0  0  0  0  0  0  0  0  0  0  0
   -0.8802   -2.2578   -0.9837 H   0  0  0  0  0  0  0  0  0  0  0  0
    0.5940   -1.5669   -2.4002 C   0  0  0  0  0  0  0  0  0  0  0  0
   -0.1486   -1.1937   -3.1094 H   0  0  0  0  0  0  0  0  0  0  0  0
    1.4568   -0.8978   -2.4032 H   0  0  0  0  0  0  0  0  0  0  0  0
    1.0322   -2.9789   -2.8088 C   0  0  0  0  0  0  0  0  0  0  0  0
    1.7692   -3.3373   -2.0828 H   0  0  0  0  0  0  0  0  0  0  0  0
    0.1626   -3.6410   -2.7584 H   0  0  0  0  0  0  0  0  0  0  0  0
    1.6110   -2.9965   -4.1760 N   0  3  0  0  0  0  0  0  0  0  0  0
    2.4226   -2.3935   -4.2263 H   0  0  0  0  0  0  0  0  0  0  0  0
    1.8946   -3.9345   -4.4304 H   0  0  0  0  0  0  0  0  0  0  0  0
    0.9297   -2.6739   -4.8532 H   0  0  0  0  0  0  0  0  0  0  0  0
   -1.3103    1.3348    1.2791 C   0  0  0  0  0  0  0  0  0  0  0  0
   -1.2598    2.2472    0.4626 O   0  0  0  0  0  0  0  0  0  0  0  0
   -1.5168    1.5332    2.5851 N   0  0  0  0  0  0  0  0  0  0  0  0
   -1.5745    0.7236    3.1803 H   0  0  0  0  0  0  0  0  0  0  0  0
   -1.7452    2.8475    3.1885 C   0  0  0  0  0  0  0  0  0  0  0  0
   -2.6570    3.2876    2.7793 H   0  0  0  0  0  0  0  0  0  0  0  0
   -1.8497    2.7570    4.2703 H   0  0  0  0  0  0  0  0  0  0  0  0
   -0.9099    3.5136    2.9616 H   0  0  0  0  0  0  0  0  0  0  0  0
  5  6  2  0  0  0  0
  5  7  1  0  0  0  0
  2  3  1  0  0  0  0
  2  4  1  0  0  0  0
  2  5  1  0  0  0  0
  1  2  1  0  0  0  0
 27 28  2  0  0  0  0
 27 29  1  0  0  0  0
 23 24  1  0  0  0  0
 23 25  1  0  0  0  0
 23 26  1  0  0  0  0
 20 21  1  0  0  0  0
 20 22  1  0  0  0  0
 20 23  1  0  0  0  0
 17 18  1  0  0  0  0
 17 19  1  0  0  0  0
 17 20  1  0  0  0  0
 14 15  1  0  0  0  0
 14 16  1  0  0  0  0
 14 17  1  0  0  0  0
 11 12  1  0  0  0  0
 11 13  1  0  0  0  0
 11 14  1  0  0  0  0
  9 10  1  0  0  0  0
  9 11  1  0  0  0  0
  9 27  1  0  0  0  0
  7  8  1  0  0  0  0
  7  9  1  0  0  0  0
 31 32  1  0  0  0  0
 31 33  1  0  0  0  0
 31 34  1  0  0  0  0
 29 30  1  0  0  0  0
 29 31  1  0  0  0  0
M  CHG  1  23   1
M  END
$$$$
default_name
  -OEChem-01062215323D

 34 33  0     1  0  0  0  0  0999 V2000
   -3.8899   -3.6747    1.6490 H   0  0  0  0  0  0  0  0  0  0  0  0
   -3.9109   -2.6717    1.2250 C   0  0  0  0  0  0  0  0  0  0  0  0
   -4.6009   -2.0517    1.7950 H   0  0  0  0  0  0  0  0  0  0  0  0
   -4.2309   -2.7237    0.1860 H   0  0  0  0  0  0  0  0  0  0  0  0
   -2.5229   -2.0787    1.2980 C   0  0  0  0  0  0  0  0  0  0  0  0
   -1.5999   -2.7227    1.7810 O   0  0  0  0  0  0  0  0  0  0  0  0
   -2.3659   -0.8447    0.8120 N   0  0  0  0  0  0  0  0  0  0  0  0
   -3.1749   -0.3807    0.4220 H   0  0  0  0  0  0  0  0  0  0  0  0
   -1.0919   -0.1077    0.8170 C   0  0  1  0  0  0  0  0  0  0  0  0
   -0.4136   -0.6011    1.5155 H   0  0  0  0  0  0  0  0  0  0  0  0
   -0.4834   -0.1723   -0.5965 C   0  0  0  0  0  0  0  0  0  0  0  0
   -1.2358    0.1578   -1.3143 H   0  0  0  0  0  0  0  0  0  0  0  0
    0.3648    0.5127   -0.6535 H   0  0  0  0  0  0  0  0  0  0  0  0
   -0.0223   -1.5828   -0.9945 C   0  0  0  0  0  0  0  0  0  0  0  0
    0.7217   -1.9409   -0.2816 H   0  0  0  0  0  0  0  0  0  0  0  0
   -0.8802   -2.2578   -0.9837 H   0  0  0  0  0  0  0  0  0  0  0  0
    0.5940   -1.5669   -2.4002 C   0  0  0  0  0  0  0  0  0  0  0  0
   -0.1486   -1.1937   -3.1094 H   0  0  0  0  0  0  0  0  0  0  0  0
    1.4568   -0.8978   -2.4032 H   0  0  0  0  0  0  0  0  0  0  0  0
    1.0322   -2.9789   -2.8088 C   0  0  0  0  0  0  0  0  0  0  0  0
    1.7692   -3.3373   -2.0828 H   0  0  0  0  0  0  0  0  0  0  0  0
    0.1626   -3.6410   -2.7584 H   0  0  0  0  0  0  0  0  0  0  0  0
    1.6110   -2.9965   -4.1760 N   0  3  0  0  0  0  0  0  0  0  0  0
    2.4226   -2.3935   -4.2263 H   0  0  0  0  0  0  0  0  0  0  0  0
    1.8946   -3.9345   -4.4304 H   0  0  0  0  0  0  0  0  0  0  0  0
    0.9297   -2.6739   -4.8532 H   0  0  0  0  0  0  0  0  0  0  0  0
   -1.3103    1.3348    1.2791 C   0  0  0  0  0  0  0  0  0  0  0  0
   -1.5349    2.2094    0.4506 O   0  0  0  0  0  0  0  0  0  0  0  0
   -1.2096    1.5782    2.5899 N   0  0  0  0  0  0  0  0  0  0  0  0
   -1.0541    0.7951    3.2029 H   0  0  0  0  0  0  0  0  0  0  0  0
   -1.3928    2.8987    3.1949 C   0  0  0  0  0  0  0  0  0  0  0  0
   -2.4098    3.2510    3.0102 H   0  0  0  0  0  0  0  0  0  0  0  0
   -1.2240    2.8514    4.2713 H   0  0  0  0  0  0  0  0  0  0  0  0
   -0.6955    3.6132    2.7519 H   0  0  0  0  0  0  0  0  0  0  0  0
  5  6  2  0  0  0  0
  5  7  1  0  0  0  0
  2  3  1  0  0  0  0
  2  4  1  0  0  0  0
  2  5  1  0  0  0  0
  1  2  1  0  0  0  0
 27 28  2  0  0  0  0
 27 29  1  0  0  0  0
 23 24  1  0  0  0  0
 23 25  1  0  0  0  0
 23 26  1  0  0  0  0
 20 21  1  0  0  0  0
 20 22  1  0  0  0  0
 20 23  1  0  0  0  0
 17 18  1  0  0  0  0
 17 19  1  0  0  0  0
 17 20  1  0  0  0  0
 14 15  1  0  0  0  0
 14 16  1  0  0  0  0
 14 17  1  0  0  0  0
 11 12  1  0  0  0  0
 11 13  1  0  0  0  0
 11 14  1  0  0  0  0
  9 10  1  0  0  0  0
  9 11  1  0  0  0  0
  9 27  1  0  0  0  0
  7  8  1  0  0  0  0
  7  9  1  0  0  0  0
 31 32  1  0  0  0  0
 31 33  1  0  0  0  0
 31 34  1  0  0  0  0
 29 30  1  0  0  0  0
 29 31  1  0  0  0  0
M  CHG  1  23   1
M  END
$$$$
default_name
  -OEChem-01062215323D

 34 33  0     1  0  0  0  0  0999 V2000
   -3.8899   -3.6747    1.6490 H   0  0  0  0  0  0  0  0  0  0  0  0
   -3.9109   -2.6717    1.2250 C   0  0  0  0  0  0  0  0  0  0  0  0
   -4.6009   -2.0517    1.7950 H   0  0  0  0  0  0  0  0  0  0  0  0
   -4.2309   -2.7237    0.1860 H   0  0  0  0  0  0  0  0  0  0  0  0
   -2.5229   -2.0787    1.2980 C   0  0  0  0  0  0  0  0  0  0  0  0
   -1.5999   -2.7227    1.7810 O   0  0  0  0  0  0  0  0  0  0  0  0
   -2.3659   -0.8447    0.8120 N   0  0  0  0  0  0  0  0  0  0  0  0
   -3.1749   -0.3807    0.4220 H   0  0  0  0  0  0  0  0  0  0  0  0
   -1.0919   -0.1077    0.8170 C   0  0  1  0  0  0  0  0  0  0  0  0
   -0.4136   -0.6011    1.5155 H   0  0  0  0  0  0  0  0  0  0  0  0
   -0.4834   -0.1723   -0.5965 C   0  0  0  0  0  0  0  0  0  0  0  0
   -1.2358    0.1578   -1.3143 H   0  0  0  0  0  0  0  0  0  0  0  0
    0.3648    0.5127   -0.6535 H   0  0  0  0  0  0  0  0  0  0  0  0
   -0.0223   -1.5828   -0.9945 C   0  0  0  0  0  0  0  0  0  0  0  0
    0.7217   -1.9409   -0.2816 H   0  0  0  0  0  0  0  0  0  0  0  0
   -0.8802   -2.2578   -0.9837 H   0  0  0  0  0  0  0  0  0  0  0  0
    0.5940   -1.5669   -2.4002 C   0  0  0  0  0  0  0  0  0  0  0  0
   -0.1486   -1.1937   -3.1094 H   0  0  0  0  0  0  0  0  0  0  0  0
    1.4568   -0.8978   -2.4032 H   0  0  0  0  0  0  0  0  0  0  0  0
    1.0322   -2.9789   -2.8088 C   0  0  0  0  0  0  0  0  0  0  0  0
    1.7692   -3.3373   -2.0828 H   0  0  0  0  0  0  0  0  0  0  0  0
    0.1626   -3.6410   -2.7584 H   0  0  0  0  0  0  0  0  0  0  0  0
    1.6110   -2.9965   -4.1760 N   0  3  0  0  0  0  0  0  0  0  0  0
    2.4226   -2.3935   -4.2263 H   0  0  0  0  0  0  0  0  0  0  0  0
    1.8946   -3.9345   -4.4304 H   0  0  0  0  0  0  0  0  0  0  0  0
    0.9297   -2.6739   -4.8532 H   0  0  0  0  0  0  0  0  0  0  0  0
   -1.3103    1.3348    1.2791 C   0  0  0  0  0  0  0  0  0  0  0  0
   -1.8007    2.1509    0.5076 O   0  0  0  0  0  0  0  0  0  0  0  0
   -0.9152    1.6458    2.5180 N   0  0  0  0  0  0  0  0  0  0  0  0
   -0.5515    0.9057    3.0951 H   0  0  0  0  0  0  0  0  0  0  0  0
   -1.0548    2.9761    3.1132 C   0  0  0  0  0  0  0  0  0  0  0  0
   -2.1119    3.2436    3.1743 H   0  0  0  0  0  0  0  0  0  0  0  0
   -0.6267    2.9915    4.1161 H   0  0  0  0  0  0  0  0  0  0  0  0
   -0.5473    3.7184    2.4933 H   0  0  0  0  0  0  0  0  0  0  0  0
  5  6  2  0  0  0  0
  5  7  1  0  0  0  0
  2  3  1  0  0  0  0
  2  4  1  0  0  0  0
  2  5  1  0  0  0  0
  1  2  1  0  0  0  0
 27 28  2  0  0  0  0
 27 29  1  0  0  0  0
 23 24  1  0  0  0  0
 23 25  1  0  0  0  0
 23 26  1  0  0  0  0
 20 21  1  0  0  0  0
 20 22  1  0  0  0  0
 20 23  1  0  0  0  0
 17 18  1  0  0  0  0
 17 19  1  0  0  0  0
 17 20  1  0  0  0  0
 14 15  1  0  0  0  0
 14 16  1  0  0  0  0
 14 17  1  0  0  0  0
 11 12  1  0  0  0  0
 11 13  1  0  0  0  0
 11 14  1  0  0  0  0
  9 10  1  0  0  0  0
  9 11  1  0  0  0  0
  9 27  1  0  0  0  0
  7  8  1  0  0  0  0
  7  9  1  0  0  0  0
 31 32  1  0  0  0  0
 31 33  1  0  0  0  0
 31 34  1  0  0  0  0
 29 30  1  0  0  0  0
 29 31  1  0  0  0  0
M  CHG  1  23   1
M  END
$$$$
default_name
  -OEChem-01062215323D

 34 33  0     1  0  0  0  0  0999 V2000
   -3.8899   -3.6747    1.6490 H   0  0  0  0  0  0  0  0  0  0  0  0
   -3.9109   -2.6717    1.2250 C   0  0  0  0  0  0  0  0  0  0  0  0
   -4.6009   -2.0517    1.7950 H   0  0  0  0  0  0  0  0  0  0  0  0
   -4.2309   -2.7237    0.1860 H   0  0  0  0  0  0  0  0  0  0  0  0
   -2.5229   -2.0787    1.2980 C   0  0  0  0  0  0  0  0  0  0  0  0
   -1.5999   -2.7227    1.7810 O   0  0  0  0  0  0  0  0  0  0  0  0
   -2.3659   -0.8447    0.8120 N   0  0  0  0  0  0  0  0  0  0  0  0
   -3.1749   -0.3807    0.4220 H   0  0  0  0  0  0  0  0  0  0  0  0
   -1.0919   -0.1077    0.8170 C   0  0  1  0  0  0  0  0  0  0  0  0
   -0.4136   -0.6011    1.5155 H   0  0  0  0  0  0  0  0  0  0  0  0
   -0.4834   -0.1723   -0.5965 C   0  0  0  0  0  0  0  0  0  0  0  0
   -1.2358    0.1578   -1.3143 H   0  0  0  0  0  0  0  0  0  0  0  0
    0.3648    0.5127   -0.6535 H   0  0  0  0  0  0  0  0  0  0  0  0
   -0.0223   -1.5828   -0.9945 C   0  0  0  0  0  0  0  0  0  0  0  0
    0.7217   -1.9409   -0.2816 H   0  0  0  0  0  0  0  0  0  0  0  0
   -0.8802   -2.2578   -0.9837 H   0  0  0  0  0  0  0  0  0  0  0  0
    0.5940   -1.5669   -2.4002 C   0  0  0  0  0  0  0  0  0  0  0  0
   -0.1486   -1.1937   -3.1094 H   0  0  0  0  0  0  0  0  0  0  0  0
    1.4568   -0.8978   -2.4032 H   0  0  0  0  0  0  0  0  0  0  0  0
    1.0322   -2.9789   -2.8088 C   0  0  0  0  0  0  0  0  0  0  0  0
    1.7692   -3.3373   -2.0828 H   0  0  0  0  0  0  0  0  0  0  0  0
    0.1626   -3.6410   -2.7584 H   0  0  0  0  0  0  0  0  0  0  0  0
    1.6110   -2.9965   -4.1760 N   0  3  0  0  0  0  0  0  0  0  0  0
    2.4226   -2.3935   -4.2263 H   0  0  0  0  0  0  0  0  0  0  0  0
    1.8946   -3.9345   -4.4304 H   0  0  0  0  0  0  0  0  0  0  0  0
    0.9297   -2.6739   -4.8532 H   0  0  0  0  0  0  0  0  0  0  0  0
   -1.3103    1.3348    1.2791 C   0  0  0  0  0  0  0  0  0  0  0  0
   -2.0389    2.0757    0.6296 O   0  0  0  0  0  0  0  0  0  0  0  0
   -0.6537    1.7314    2.3742 N   0  0  0  0  0  0  0  0  0  0  0  0
   -0.1010    1.0478    2.8644 H   0  0  0  0  0  0  0  0  0  0  0  0
   -0.7543    3.0741    2.9490 C   0  0  0  0  0  0  0  0  0  0  0  0
   -1.7835    3.2657    3.2603 H   0  0  0  0  0  0  0  0  0  0  0  0
   -0.0986    3.1678    3.8154 H   0  0  0  0  0  0  0  0  0  0  0  0
   -0.4755    3.8221    2.2036 H   0  0  0  0  0  0  0  0  0  0  0  0
  5  6  2  0  0  0  0
  5  7  1  0  0  0  0
  2  3  1  0  0  0  0
  2  4  1  0  0  0  0
  2  5  1  0  0  0  0
  1  2  1  0  0  0  0
 27 28  2  0  0  0  0
 27 29  1  0  0  0  0
 23 24  1  0  0  0  0
 23 25  1  0  0  0  0
 23 26  1  0  0  0  0
 20 21  1  0  0  0  0
 20 22  1  0  0  0  0
 20 23  1  0  0  0  0
 17 18  1  0  0  0  0
 17 19  1  0  0  0  0
 17 20  1  0  0  0  0
 14 15  1  0  0  0  0
 14 16  1  0  0  0  0
 14 17  1  0  0  0  0
 11 12  1  0  0  0  0
 11 13  1  0  0  0  0
 11 14  1  0  0  0  0
  9 10  1  0  0  0  0
  9 11  1  0  0  0  0
  9 27  1  0  0  0  0
  7  8  1  0  0  0  0
  7  9  1  0  0  0  0
 31 32  1  0  0  0  0
 31 33  1  0  0  0  0
 31 34  1  0  0  0  0
 29 30  1  0  0  0  0
 29 31  1  0  0  0  0
M  CHG  1  23   1
M  END
$$$$
default_name
  -OEChem-01062215323D

 34 33  0     1  0  0  0  0  0999 V2000
   -3.8899   -3.6747    1.6490 H   0  0  0  0  0  0  0  0  0  0  0  0
   -3.9109   -2.6717    1.2250 C   0  0  0  0  0  0  0  0  0  0  0  0
   -4.6009   -2.0517    1.7950 H   0  0  0  0  0  0  0  0  0  0  0  0
   -4.2309   -2.7237    0.1860 H   0  0  0  0  0  0  0  0  0  0  0  0
   -2.5229   -2.0787    1.2980 C   0  0  0  0  0  0  0  0  0  0  0  0
   -1.5999   -2.7227    1.7810 O   0  0  0  0  0  0  0  0  0  0  0  0
   -2.3659   -0.8447    0.8120 N   0  0  0  0  0  0  0  0  0  0  0  0
   -3.1749   -0.3807    0.4220 H   0  0  0  0  0  0  0  0  0  0  0  0
   -1.0919   -0.1077    0.8170 C   0  0  1  0  0  0  0  0  0  0  0  0
   -0.4136   -0.6011    1.5155 H   0  0  0  0  0  0  0  0  0  0  0  0
   -0.4834   -0.1723   -0.5965 C   0  0  0  0  0  0  0  0  0  0  0  0
   -1.2358    0.1578   -1.3143 H   0  0  0  0  0  0  0  0  0  0  0  0
    0.3648    0.5127   -0.6535 H   0  0  0  0  0  0  0  0  0  0  0  0
   -0.0223   -1.5828   -0.9945 C   0  0  0  0  0  0  0  0  0  0  0  0
    0.7217   -1.9409   -0.2816 H   0  0  0  0  0  0  0  0  0  0  0  0
   -0.8802   -2.2578   -0.9837 H   0  0  0  0  0  0  0  0  0  0  0  0
    0.5940   -1.5669   -2.4002 C   0  0  0  0  0  0  0  0  0  0  0  0
   -0.1486   -1.1937   -3.1094 H   0  0  0  0  0  0  0  0  0  0  0  0
    1.4568   -0.8978   -2.4032 H   0  0  0  0  0  0  0  0  0  0  0  0
    1.0322   -2.9789   -2.8088 C   0  0  0  0  0  0  0  0  0  0  0  0
    1.7692   -3.3373   -2.0828 H   0  0  0  0  0  0  0  0  0  0  0  0
    0.1626   -3.6410   -2.7584 H   0  0  0  0  0  0  0  0  0  0  0  0
    1.6110   -2.9965   -4.1760 N   0  3  0  0  0  0  0  0  0  0  0  0
    2.4226   -2.3935   -4.2263 H   0  0  0  0  0  0  0  0  0  0  0  0
    1.8946   -3.9345   -4.4304 H   0  0  0  0  0  0  0  0  0  0  0  0
    0.9297   -2.6739   -4.8532 H   0  0  0  0  0  0  0  0  0  0  0  0
   -1.3103    1.3348    1.2791 C   0  0  0  0  0  0  0  0  0  0  0  0
   -2.2333    1.9891    0.8084 O   0  0  0  0  0  0  0  0  0  0  0  0
   -0.4429    1.8293    2.1683 N   0  0  0  0  0  0  0  0  0  0  0  0
    0.2668    1.2118    2.5263 H   0  0  0  0  0  0  0  0  0  0  0  0
   -0.5118    3.1863    2.7135 C   0  0  0  0  0  0  0  0  0  0  0  0
   -1.4470    3.3159    3.2625 H   0  0  0  0  0  0  0  0  0  0  0  0
    0.3243    3.3682    3.3896 H   0  0  0  0  0  0  0  0  0  0  0  0
   -0.4850    3.9172    1.9023 H   0  0  0  0  0  0  0  0  0  0  0  0
  5  6  2  0  0  0  0
  5  7  1  0  0  0  0
  2  3  1  0  0  0  0
  2  4  1  0  0  0  0
  2  5  1  0  0  0  0
  1  2  1  0  0  0  0
 27 28  2  0  0  0  0
 27 29  1  0  0  0  0
 23 24  1  0  0  0  0
 23 25  1  0  0  0  0
 23 26  1  0  0  0  0
 20 21  1  0  0  0  0
 20 22  1  0  0  0  0
 20 23  1  0  0  0  0
 17 18  1  0  0  0  0
 17 19  1  0  0  0  0
 17 20  1  0  0  0  0
 14 15  1  0  0  0  0
 14 16  1  0  0  0  0
 14 17  1  0  0  0  0
 11 12  1  0  0  0  0
 11 13  1  0  0  0  0
 11 14  1  0  0  0  0
  9 10  1  0  0  0  0
  9 11  1  0  0  0  0
  9 27  1  0  0  0  0
  7  8  1  0  0  0  0
  7  9  1  0  0  0  0
 31 32  1  0  0  0  0
 31 33  1  0  0  0  0
 31 34  1  0  0  0  0
 29 30  1  0  0  0  0
 29 31  1  0  0  0  0
M  CHG  1  23   1
M  END
$$$$
default_name
  -OEChem-01062215323D

 34 33  0     1  0  0  0  0  0999 V2000
   -3.8899   -3.6747    1.6490 H   0  0  0  0  0  0  0  0  0  0  0  0
   -3.9109   -2.6717    1.2250 C   0  0  0  0  0  0  0  0  0  0  0  0
   -4.6009   -2.0517    1.7950 H   0  0  0  0  0  0  0  0  0  0  0  0
   -4.2309   -2.7237    0.1860 H   0  0  0  0  0  0  0  0  0  0  0  0
   -2.5229   -2.0787    1.2980 C   0  0  0  0  0  0  0  0  0  0  0  0
   -1.5999   -2.7227    1.7810 O   0  0  0  0  0  0  0  0  0  0  0  0
   -2.3659   -0.8447    0.8120 N   0  0  0  0  0  0  0  0  0  0  0  0
   -3.1749   -0.3807    0.4220 H   0  0  0  0  0  0  0  0  0  0  0  0
   -1.0919   -0.1077    0.8170 C   0  0  1  0  0  0  0  0  0  0  0  0
   -0.4136   -0.6011    1.5155 H   0  0  0  0  0  0  0  0  0  0  0  0
   -0.4834   -0.1723   -0.5965 C   0  0  0  0  0  0  0  0  0  0  0  0
   -1.2358    0.1578   -1.3143 H   0  0  0  0  0  0  0  0  0  0  0  0
    0.3648    0.5127   -0.6535 H   0  0  0  0  0  0  0  0  0  0  0  0
   -0.0223   -1.5828   -0.9945 C   0  0  0  0  0  0  0  0  0  0  0  0
    0.7217   -1.9409   -0.2816 H   0  0  0  0  0  0  0  0  0  0  0  0
   -0.8802   -2.2578   -0.9837 H   0  0  0  0  0  0  0  0  0  0  0  0
    0.5940   -1.5669   -2.4002 C   0  0  0  0  0  0  0  0  0  0  0  0
   -0.1486   -1.1937   -3.1094 H   0  0  0  0  0  0  0  0  0  0  0  0
    1.4568   -0.8978   -2.4032 H   0  0  0  0  0  0  0  0  0  0  0  0
    1.0322   -2.9789   -2.8088 C   0  0  0  0  0  0  0  0  0  0  0  0
    1.7692   -3.3373   -2.0828 H   0  0  0  0  0  0  0  0  0  0  0  0
    0.1626   -3.6410   -2.7584 H   0  0  0  0  0  0  0  0  0  0  0  0
    1.6110   -2.9965   -4.1760 N   0  3  0  0  0  0  0  0  0  0  0  0
    2.4226   -2.3935   -4.2263 H   0  0  0  0  0  0  0  0  0  0  0  0
    1.8946   -3.9345   -4.4304 H   0  0  0  0  0  0  0  0  0  0  0  0
    0.9297   -2.6739   -4.8532 H   0  0  0  0  0  0  0  0  0  0  0  0
   -1.3103    1.3348    1.2791 C   0  0  0  0  0  0  0  0  0  0  0  0
   -2.3708    1.8967    1.0317 O   0  0  0  0  0  0  0  0  0  0  0  0
   -0.2971    1.9327    1.9144 N   0  0  0  0  0  0  0  0  0  0  0  0
    0.5268    1.3864    2.1039 H   0  0  0  0  0  0  0  0  0  0  0  0
   -0.3438    3.3049    2.4227 C   0  0  0  0  0  0  0  0  0  0  0  0
   -1.1253    3.3908    3.1807 H   0  0  0  0  0  0  0  0  0  0  0  0
    0.6133    3.5791    2.8677 H   0  0  0  0  0  0  0  0  0  0  0  0
   -0.5750    3.9971    1.6102 H   0  0  0  0  0  0  0  0  0  0  0  0
  5  6  2  0  0  0  0
  5  7  1  0  0  0  0
  2  3  1  0  0  0  0
  2  4  1  0  0  0  0
  2  5  1  0  0  0  0
  1  2  1  0  0  0  0
 27 28  2  0  0  0  0
 27 29  1  0  0  0  0
 23 24  1  0  0  0  0
 23 25  1  0  0  0  0
 23 26  1  0  0  0  0
 20 21  1  0  0  0  0
 20 22  1  0  0  0  0
 20 23  1  0  0  0  0
 17 18  1  0  0  0  0
 17 19  1  0  0  0  0
 17 20  1  0  0  0  0
 14 15  1  0  0  0  0
 14 16  1  0  0  0  0
 14 17  1  0  0  0  0
 11 12  1  0  0  0  0
 11 13  1  0  0  0  0
 11 14  1  0  0  0  0
  9 10  1  0  0  0  0
  9 11  1  0  0  0  0
  9 27  1  0  0  0  0
  7  8  1  0  0  0  0
  7  9  1  0  0  0  0
 31 32  1  0  0  0  0
 31 33  1  0  0  0  0
 31 34  1  0  0  0  0
 29 30  1  0  0  0  0
 29 31  1  0  0  0  0
M  CHG  1  23   1
M  END
$$$$
default_name
  -OEChem-01062215323D

 34 33  0     1  0  0  0  0  0999 V2000
   -3.8899   -3.6747    1.6490 H   0  0  0  0  0  0  0  0  0  0  0  0
   -3.9109   -2.6717    1.2250 C   0  0  0  0  0  0  0  0  0  0  0  0
   -4.6009   -2.0517    1.7950 H   0  0  0  0  0  0  0  0  0  0  0  0
   -4.2309   -2.7237    0.1860 H   0  0  0  0  0  0  0  0  0  0  0  0
   -2.5229   -2.0787    1.2980 C   0  0  0  0  0  0  0  0  0  0  0  0
   -1.5999   -2.7227    1.7810 O   0  0  0  0  0  0  0  0  0  0  0  0
   -2.3659   -0.8447    0.8120 N   0  0  0  0  0  0  0  0  0  0  0  0
   -3.1749   -0.3807    0.4220 H   0  0  0  0  0  0  0  0  0  0  0  0
   -1.0919   -0.1077    0.8170 C   0  0  1  0  0  0  0  0  0  0  0  0
   -0.4136   -0.6011    1.5155 H   0  0  0  0  0  0  0  0  0  0  0  0
   -0.4834   -0.1723   -0.5965 C   0  0  0  0  0  0  0  0  0  0  0  0
   -1.2358    0.1578   -1.3143 H   0  0  0  0  0  0  0  0  0  0  0  0
    0.3648    0.5127   -0.6535 H   0  0  0  0  0  0  0  0  0  0  0  0
   -0.0223   -1.5828   -0.9945 C   0  0  0  0  0  0  0  0  0  0  0  0
    0.7217   -1.9409   -0.2816 H   0  0  0  0  0  0  0  0  0  0  0  0
   -0.8802   -2.2578   -0.9837 H   0  0  0  0  0  0  0  0  0  0  0  0
    0.5940   -1.5669   -2.4002 C   0  0  0  0  0  0  0  0  0  0  0  0
   -0.1486   -1.1937   -3.1094 H   0  0  0  0  0  0  0  0  0  0  0  0
    1.4568   -0.8978   -2.4032 H   0  0  0  0  0  0  0  0  0  0  0  0
    1.0322   -2.9789   -2.8088 C   0  0  0  0  0  0  0  0  0  0  0  0
    1.7692   -3.3373   -2.0828 H   0  0  0  0  0  0  0  0  0  0  0  0
    0.1626   -3.6410   -2.7584 H   0  0  0  0  0  0  0  0  0  0  0  0
    1.6110   -2.9965   -4.1760 N   0  3  0  0  0  0  0  0  0  0  0  0
    2.4226   -2.3935   -4.2263 H   0  0  0  0  0  0  0  0  0  0  0  0
    1.8946   -3.9345   -4.4304 H   0  0  0  0  0  0  0  0  0  0  0  0
    0.9297   -2.6739   -4.8532 H   0  0  0  0  0  0  0  0  0  0  0  0
   -1.3103    1.3348    1.2791 C   0  0  0  0  0  0  0  0  0  0  0  0
   -2.4418    1.8050    1.2843 O   0  0  0  0  0  0  0  0  0  0  0  0
   -0.2263    2.0345    1.6298 N   0  0  0  0  0  0  0  0  0  0  0  0
    0.6613    1.5598    1.6261 H   0  0  0  0  0  0  0  0  0  0  0  0
   -0.2617    3.4218    2.0964 C   0  0  0  0  0  0  0  0  0  0  0  0
   -0.8404    3.4853    3.0204 H   0  0  0  0  0  0  0  0  0  0  0  0
    0.7487    3.7862    2.2852 H   0  0  0  0  0  0  0  0  0  0  0  0
   -0.7395    4.0565    1.3470 H   0  0  0  0  0  0  0  0  0  0  0  0
  5  6  2  0  0  0  0
  5  7  1  0  0  0  0
  2  3  1  0  0  0  0
  2  4  1  0  0  0  0
  2  5  1  0  0  0  0
  1  2  1  0  0  0  0
 27 28  2  0  0  0  0
 27 29  1  0  0  0  0
 23 24  1  0  0  0  0
 23 25  1  0  0  0  0
 23 26  1  0  0  0  0
 20 21  1  0  0  0  0
 20 22  1  0  0  0  0
 20 23  1  0  0  0  0
 17 18  1  0  0  0  0
 17 19  1  0  0  0  0
 17 20  1  0  0  0  0
 14 15  1  0  0  0  0
 14 16  1  0  0  0  0
 14 17  1  0  0  0  0
 11 12  1  0  0  0  0
 11 13  1  0  0  0  0
 11 14  1  0  0  0  0
  9 10  1  0  0  0  0
  9 11  1  0  0  0  0
  9 27  1  0  0  0  0
  7  8  1  0  0  0  0
  7  9  1  0  0  0  0
 31 32  1  0  0  0  0
 31 33  1  0  0  0  0
 31 34  1  0  0  0  0
 29 30  1  0  0  0  0
 29 31  1  0  0  0  0
M  CHG  1  23   1
M  END
$$$$
default_name
  -OEChem-01062215323D

 34 33  0     1  0  0  0  0  0999 V2000
   -3.8899   -3.6747    1.6490 H   0  0  0  0  0  0  0  0  0  0  0  0
   -3.9109   -2.6717    1.2250 C   0  0  0  0  0  0  0  0  0  0  0  0
   -4.6009   -2.0517    1.7950 H   0  0  0  0  0  0  0  0  0  0  0  0
   -4.2309   -2.7237    0.1860 H   0  0  0  0  0  0  0  0  0  0  0  0
   -2.5229   -2.0787    1.2980 C   0  0  0  0  0  0  0  0  0  0  0  0
   -1.5999   -2.7227    1.7810 O   0  0  0  0  0  0  0  0  0  0  0  0
   -2.3659   -0.8447    0.8120 N   0  0  0  0  0  0  0  0  0  0  0  0
   -3.1749   -0.3807    0.4220 H   0  0  0  0  0  0  0  0  0  0  0  0
   -1.0919   -0.1077    0.8170 C   0  0  1  0  0  0  0  0  0  0  0  0
   -0.3356   -0.7343    1.2933 H   0  0  0  0  0  0  0  0  0  0  0  0
   -0.6728    0.1554   -0.6416 C   0  0  0  0  0  0  0  0  0  0  0  0
   -1.5074    0.6261   -1.1636 H   0  0  0  0  0  0  0  0  0  0  0  0
    0.1703    0.8491   -0.6531 H   0  0  0  0  0  0  0  0  0  0  0  0
   -0.2869   -1.1227   -1.4018 C   0  0  0  0  0  0  0  0  0  0  0  0
    0.5382   -1.6197   -0.8899 H   0  0  0  0  0  0  0  0  0  0  0  0
   -1.1455   -1.7963   -1.4316 H   0  0  0  0  0  0  0  0  0  0  0  0
    0.1421   -0.7828   -2.8359 C   0  0  0  0  0  0  0  0  0  0  0  0
   -0.6810   -0.2718   -3.3411 H   0  0  0  0  0  0  0  0  0  0  0  0
    1.0064   -0.1166   -2.8006 H   0  0  0  0  0  0  0  0  0  0  0  0
    0.5039   -2.0602   -3.6038 C   0  0  0  0  0  0  0  0  0  0  0  0
    1.3238   -2.5606   -3.0782 H   0  0  0  0  0  0  0  0  0  0  0  0
   -0.3609   -2.7304   -3.5908 H   0  0  0  0  0  0  0  0  0  0  0  0
    0.9002   -1.7622   -5.0033 N   0  3  0  0  0  0  0  0  0  0  0  0
    1.7068   -1.1506   -5.0218 H   0  0  0  0  0  0  0  0  0  0  0  0
    1.1353   -2.6148   -5.4959 H   0  0  0  0  0  0  0  0  0  0  0  0
    0.1413   -1.3067   -5.4968 H   0  0  0  0  0  0  0  0  0  0  0  0
   -1.2285    1.1911    1.6148 C   0  0  0  0  0  0  0  0  0  0  0  0
   -2.3098    1.4885    2.1085 O   0  0  0  0  0  0  0  0  0  0  0  0
   -0.1445    1.9686    1.7063 N   0  0  0  0  0  0  0  0  0  0  0  0
    0.7114    1.6319    1.2974 H   0  0  0  0  0  0  0  0  0  0  0  0
   -0.1058    3.2386    2.4336 C   0  0  0  0  0  0  0  0  0  0  0  0
   -0.3082    3.0634    3.4924 H   0  0  0  0  0  0  0  0  0  0  0  0
    0.8746    3.7056    2.3327 H   0  0  0  0  0  0  0  0  0  0  0  0
   -0.8693    3.9158    2.0448 H   0  0  0  0  0  0  0  0  0  0  0  0
  5  6  2  0  0  0  0
  5  7  1  0  0  0  0
  2  3  1  0  0  0  0
  2  4  1  0  0  0  0
  2  5  1  0  0  0  0
  1  2  1  0  0  0  0
 27 28  2  0  0  0  0
 27 29  1  0  0  0  0
 23 24  1  0  0  0  0
 23 25  1  0  0  0  0
 23 26  1  0  0  0  0
 20 21  1  0  0  0  0
 20 22  1  0  0  0  0
 20 23  1  0  0  0  0
 17 18  1  0  0  0  0
 17 19  1  0  0  0  0
 17 20  1  0  0  0  0
 14 15  1  0  0  0  0
 14 16  1  0  0  0  0
 14 17  1  0  0  0  0
 11 12  1  0  0  0  0
 11 13  1  0  0  0  0
 11 14  1  0  0  0  0
  9 10  1  0  0  0  0
  9 11  1  0  0  0  0
  9 27  1  0  0  0  0
  7  8  1  0  0  0  0
  7  9  1  0  0  0  0
 31 32  1  0  0  0  0
 31 33  1  0  0  0  0
 31 34  1  0  0  0  0
 29 30  1  0  0  0  0
 29 31  1  0  0  0  0
M  CHG  1  23   1
M  END
$$$$
default_name
  -OEChem-01062215323D

 34 33  0     1  0  0  0  0  0999 V2000
   -3.8899   -3.6747    1.6490 H   0  0  0  0  0  0  0  0  0  0  0  0
   -3.9109   -2.6717    1.2250 C   0  0  0  0  0  0  0  0  0  0  0  0
   -4.6009   -2.0517    1.7950 H   0  0  0  0  0  0  0  0  0  0  0  0
   -4.2309   -2.7237    0.1860 H   0  0  0  0  0  0  0  0  0  0  0  0
   -2.5229   -2.0787    1.2980 C   0  0  0  0  0  0  0  0  0  0  0  0
   -1.5999   -2.7227    1.7810 O   0  0  0  0  0  0  0  0  0  0  0  0
   -2.3659   -0.8447    0.8120 N   0  0  0  0  0  0  0  0  0  0  0  0
   -3.1749   -0.3807    0.4220 H   0  0  0  0  0  0  0  0  0  0  0  0
   -1.0919   -0.1077    0.8170 C   0  0  1  0  0  0  0  0  0  0  0  0
   -0.3356   -0.7343    1.2933 H   0  0  0  0  0  0  0  0  0  0  0  0
   -0.6728    0.1554   -0.6416 C   0  0  0  0  0  0  0  0  0  0  0  0
   -1.5074    0.6261   -1.1636 H   0  0  0  0  0  0  0  0  0  0  0  0
    0.1703    0.8491   -0.6531 H   0  0  0  0  0  0  0  0  0  0  0  0
   -0.2869   -1.1227   -1.4018 C   0  0  0  0  0  0  0  0  0  0  0  0
    0.5382   -1.6197   -0.8899 H   0  0  0  0  0  0  0  0  0  0  0  0
   -1.1455   -1.7963   -1.4316 H   0  0  0  0  0  0  0  0  0  0  0  0
    0.1421   -0.7828   -2.8359 C   0  0  0  0  0  0  0  0  0  0  0  0
   -0.6810   -0.2718   -3.3411 H   0  0  0  0  0  0  0  0  0  0  0  0
    1.0064   -0.1166   -2.8006 H   0  0  0  0  0  0  0  0  0  0  0  0
    0.5039   -2.0602   -3.6038 C   0  0  0  0  0  0  0  0  0  0  0  0
    1.3238   -2.5606   -3.0782 H   0  0  0  0  0  0  0  0  0  0  0  0
   -0.3609   -2.7304   -3.5908 H   0  0  0  0  0  0  0  0  0  0  0  0
    0.9002   -1.7622   -5.0033 N   0  3  0  0  0  0  0  0  0  0  0  0
    1.7068   -1.1506   -5.0218 H   0  0  0  0  0  0  0  0  0  0  0  0
    1.1353   -2.6148   -5.4959 H   0  0  0  0  0  0  0  0  0  0  0  0
    0.1413   -1.3067   -5.4968 H   0  0  0  0  0  0  0  0  0  0  0  0
   -1.2285    1.1911    1.6148 C   0  0  0  0  0  0  0  0  0  0  0  0
   -2.2065    1.3614    2.3331 O   0  0  0  0  0  0  0  0  0  0  0  0
   -0.2682    2.1081    1.4580 N   0  0  0  0  0  0  0  0  0  0  0  0
    0.5160    1.8723    0.8726 H   0  0  0  0  0  0  0  0  0  0  0  0
   -0.2467    3.3989    2.1485 C   0  0  0  0  0  0  0  0  0  0  0  0
   -0.1874    3.2390    3.2272 H   0  0  0  0  0  0  0  0  0  0  0  0
    0.6142    3.9874    1.8294 H   0  0  0  0  0  0  0  0  0  0  0  0
   -1.1624    3.9538    1.9329 H   0  0  0  0  0  0  0  0  0  0  0  0
  5  6  2  0  0  0  0
  5  7  1  0  0  0  0
  2  3  1  0  0  0  0
  2  4  1  0  0  0  0
  2  5  1  0  0  0  0
  1  2  1  0  0  0  0
 27 28  2  0  0  0  0
 27 29  1  0  0  0  0
 23 24  1  0  0  0  0
 23 25  1  0  0  0  0
 23 26  1  0  0  0  0
 20 21  1  0  0  0  0
 20 22  1  0  0  0  0
 20 23  1  0  0  0  0
 17 18  1  0  0  0  0
 17 19  1  0  0  0  0
 17 20  1  0  0  0  0
 14 15  1  0  0  0  0
 14 16  1  0  0  0  0
 14 17  1  0  0  0  0
 11 12  1  0  0  0  0
 11 13  1  0  0  0  0
 11 14  1  0  0  0  0
  9 10  1  0  0  0  0
  9 11  1  0  0  0  0
  9 27  1  0  0  0  0
  7  8  1  0  0  0  0
  7  9  1  0  0  0  0
 31 32  1  0  0  0  0
 31 33  1  0  0  0  0
 31 34  1  0  0  0  0
 29 30  1  0  0  0  0
 29 31  1  0  0  0  0
M  CHG  1  23   1
M  END
$$$$
default_name
  -OEChem-01062215323D

 34 33  0     1  0  0  0  0  0999 V2000
   -3.8899   -3.6747    1.6490 H   0  0  0  0  0  0  0  0  0  0  0  0
   -3.9109   -2.6717    1.2250 C   0  0  0  0  0  0  0  0  0  0  0  0
   -4.6009   -2.0517    1.7950 H   0  0  0  0  0  0  0  0  0  0  0  0
   -4.2309   -2.7237    0.1860 H   0  0  0  0  0  0  0  0  0  0  0  0
   -2.5229   -2.0787    1.2980 C   0  0  0  0  0  0  0  0  0  0  0  0
   -1.5999   -2.7227    1.7810 O   0  0  0  0  0  0  0  0  0  0  0  0
   -2.3659   -0.8447    0.8120 N   0  0  0  0  0  0  0  0  0  0  0  0
   -3.1749   -0.3807    0.4220 H   0  0  0  0  0  0  0  0  0  0  0  0
   -1.0919   -0.1077    0.8170 C   0  0  1  0  0  0  0  0  0  0  0  0
   -0.3356   -0.7343    1.2933 H   0  0  0  0  0  0  0  0  0  0  0  0
   -0.6728    0.1554   -0.6416 C   0  0  0  0  0  0  0  0  0  0  0  0
   -1.5074    0.6261   -1.1636 H   0  0  0  0  0  0  0  0  0  0  0  0
    0.1703    0.8491   -0.6531 H   0  0  0  0  0  0  0  0  0  0  0  0
   -0.2869   -1.1227   -1.4018 C   0  0  0  0  0  0  0  0  0  0  0  0
    0.5382   -1.6197   -0.8899 H   0  0  0  0  0  0  0  0  0  0  0  0
   -1.1455   -1.7963   -1.4316 H   0  0  0  0  0  0  0  0  0  0  0  0
    0.1421   -0.7828   -2.8359 C   0  0  0  0  0  0  0  0  0  0  0  0
   -0.6810   -0.2718   -3.3411 H   0  0  0  0  0  0  0  0  0  0  0  0
    1.0064   -0.1166   -2.8006 H   0  0  0  0  0  0  0  0  0  0  0  0
    0.5039   -2.0602   -3.6038 C   0  0  0  0  0  0  0  0  0  0  0  0
    1.3238   -2.5606   -3.0782 H   0  0  0  0  0  0  0  0  0  0  0  0
   -0.3609   -2.7304   -3.5908 H   0  0  0  0  0  0  0  0  0  0  0  0
    0.9002   -1.7622   -5.0033 N   0  3  0  0  0  0  0  0  0  0  0  0
    1.7068   -1.1506   -5.0218 H   0  0  0  0  0  0  0  0  0  0  0  0
    1.1353   -2.6148   -5.4959 H   0  0  0  0  0  0  0  0  0  0  0  0
    0.1413   -1.3067   -5.4968 H   0  0  0  0  0  0  0  0  0  0  0  0
   -1.2285    1.1911    1.6148 C   0  0  0  0  0  0  0  0  0  0  0  0
   -2.0402    1.2577    2.5303 O   0  0  0  0  0  0  0  0  0  0  0  0
   -0.4609    2.2205    1.2421 N   0  0  0  0  0  0  0  0  0  0  0  0
    0.2015    2.0684    0.4996 H   0  0  0  0  0  0  0  0  0  0  0  0
   -0.4671    3.5282    1.9004 C   0  0  0  0  0  0  0  0  0  0  0  0
   -0.1526    3.4188    2.9405 H   0  0  0  0  0  0  0  0  0  0  0  0
    0.2142    4.2128    1.3941 H   0  0  0  0  0  0  0  0  0  0  0  0
   -1.4752    3.9483    1.8882 H   0  0  0  0  0  0  0  0  0  0  0  0
  5  6  2  0  0  0  0
  5  7  1  0  0  0  0
  2  3  1  0  0  0  0
  2  4  1  0  0  0  0
  2  5  1  0  0  0  0
  1  2  1  0  0  0  0
 27 28  2  0  0  0  0
 27 29  1  0  0  0  0
 23 24  1  0  0  0  0
 23 25  1  0  0  0  0
 23 26  1  0  0  0  0
 20 21  1  0  0  0  0
 20 22  1  0  0  0  0
 20 23  1  0  0  0  0
 17 18  1  0  0  0  0
 17 19  1  0  0  0  0
 17 20  1  0  0  0  0
 14 15  1  0  0  0  0
 14 16  1  0  0  0  0
 14 17  1  0  0  0  0
 11 12  1  0  0  0  0
 11 13  1  0  0  0  0
 11 14  1  0  0  0  0
  9 10  1  0  0  0  0
  9 11  1  0  0  0  0
  9 27  1  0  0  0  0
  7  8  1  0  0  0  0
  7  9  1  0  0  0  0
 31 32  1  0  0  0  0
 31 33  1  0  0  0  0
 31 34  1  0  0  0  0
 29 30  1  0  0  0  0
 29 31  1  0  0  0  0
M  CHG  1  23   1
M  END
$$$$
default_name
  -OEChem-01062215323D

 34 33  0     1  0  0  0  0  0999 V2000
   -3.8899   -3.6747    1.6490 H   0  0  0  0  0  0  0  0  0  0  0  0
   -3.9109   -2.6717    1.2250 C   0  0  0  0  0  0  0  0  0  0  0  0
   -4.6009   -2.0517    1.7950 H   0  0  0  0  0  0  0  0  0  0  0  0
   -4.2309   -2.7237    0.1860 H   0  0  0  0  0  0  0  0  0  0  0  0
   -2.5229   -2.0787    1.2980 C   0  0  0  0  0  0  0  0  0  0  0  0
   -1.5999   -2.7227    1.7810 O   0  0  0  0  0  0  0  0  0  0  0  0
   -2.3659   -0.8447    0.8120 N   0  0  0  0  0  0  0  0  0  0  0  0
   -3.1749   -0.3807    0.4220 H   0  0  0  0  0  0  0  0  0  0  0  0
   -1.0919   -0.1077    0.8170 C   0  0  1  0  0  0  0  0  0  0  0  0
   -0.3356   -0.7343    1.2933 H   0  0  0  0  0  0  0  0  0  0  0  0
   -0.6728    0.1554   -0.6416 C   0  0  0  0  0  0  0  0  0  0  0  0
   -1.5074    0.6261   -1.1636 H   0  0  0  0  0  0  0  0  0  0  0  0
    0.1703    0.8491   -0.6531 H   0  0  0  0  0  0  0  0  0  0  0  0
   -0.2869   -1.1227   -1.4018 C   0  0  0  0  0  0  0  0  0  0  0  0
    0.5382   -1.6197   -0.8899 H   0  0  0  0  0  0  0  0  0  0  0  0
   -1.1455   -1.7963   -1.4316 H   0  0  0  0  0  0  0  0  0  0  0  0
    0.1421   -0.7828   -2.8359 C   0  0  0  0  0  0  0  0  0  0  0  0
   -0.6810   -0.2718   -3.3411 H   0  0  0  0  0  0  0  0  0  0  0  0
    1.0064   -0.1166   -2.8006 H   0  0  0  0  0  0  0  0  0  0  0  0
    0.5039   -2.0602   -3.6038 C   0  0  0  0  0  0  0  0  0  0  0  0
    1.3238   -2.5606   -3.0782 H   0  0  0  0  0  0  0  0  0  0  0  0
   -0.3609   -2.7304   -3.5908 H   0  0  0  0  0  0  0  0  0  0  0  0
    0.9002   -1.7622   -5.0033 N   0  3  0  0  0  0  0  0  0  0  0  0
    1.7068   -1.1506   -5.0218 H   0  0  0  0  0  0  0  0  0  0  0  0
    1.1353   -2.6148   -5.4959 H   0  0  0  0  0  0  0  0  0  0  0  0
    0.1413   -1.3067   -5.4968 H   0  0  0  0  0  0  0  0  0  0  0  0
   -1.2285    1.1911    1.6148 C   0  0  0  0  0  0  0  0  0  0  0  0
   -1.8223    1.1846    2.6867 O   0  0  0  0  0  0  0  0  0  0  0  0
   -0.7097    2.2980    1.0733 N   0  0  0  0  0  0  0  0  0  0  0  0
   -0.2107    2.2067    0.2039 H   0  0  0  0  0  0  0  0  0  0  0  0
   -0.7520    3.6175    1.7061 C   0  0  0  0  0  0  0  0  0  0  0  0
   -0.2062    3.5906    2.6517 H   0  0  0  0  0  0  0  0  0  0  0  0
   -0.2982    4.3665    1.0561 H   0  0  0  0  0  0  0  0  0  0  0  0
   -1.7864    3.8998    1.9139 H   0  0  0  0  0  0  0  0  0  0  0  0
  5  6  2  0  0  0  0
  5  7  1  0  0  0  0
  2  3  1  0  0  0  0
  2  4  1  0  0  0  0
  2  5  1  0  0  0  0
  1  2  1  0  0  0  0
 27 28  2  0  0  0  0
 27 29  1  0  0  0  0
 23 24  1  0  0  0  0
 23 25  1  0  0  0  0
 23 26  1  0  0  0  0
 20 21  1  0  0  0  0
 20 22  1  0  0  0  0
 20 23  1  0  0  0  0
 17 18  1  0  0  0  0
 17 19  1  0  0  0  0
 17 20  1  0  0  0  0
 14 15  1  0  0  0  0
 14 16  1  0  0  0  0
 14 17  1  0  0  0  0
 11 12  1  0  0  0  0
 11 13  1  0  0  0  0
 11 14  1  0  0  0  0
  9 10  1  0  0  0  0
  9 11  1  0  0  0  0
  9 27  1  0  0  0  0
  7  8  1  0  0  0  0
  7  9  1  0  0  0  0
 31 32  1  0  0  0  0
 31 33  1  0  0  0  0
 31 34  1  0  0  0  0
 29 30  1  0  0  0  0
 29 31  1  0  0  0  0
M  CHG  1  23   1
M  END
$$$$
default_name
  -OEChem-01062215323D

 34 33  0     1  0  0  0  0  0999 V2000
   -3.8899   -3.6747    1.6490 H   0  0  0  0  0  0  0  0  0  0  0  0
   -3.9109   -2.6717    1.2250 C   0  0  0  0  0  0  0  0  0  0  0  0
   -4.6009   -2.0517    1.7950 H   0  0  0  0  0  0  0  0  0  0  0  0
   -4.2309   -2.7237    0.1860 H   0  0  0  0  0  0  0  0  0  0  0  0
   -2.5229   -2.0787    1.2980 C   0  0  0  0  0  0  0  0  0  0  0  0
   -1.5999   -2.7227    1.7810 O   0  0  0  0  0  0  0  0  0  0  0  0
   -2.3659   -0.8447    0.8120 N   0  0  0  0  0  0  0  0  0  0  0  0
   -3.1749   -0.3807    0.4220 H   0  0  0  0  0  0  0  0  0  0  0  0
   -1.0919   -0.1077    0.8170 C   0  0  1  0  0  0  0  0  0  0  0  0
   -0.3356   -0.7343    1.2933 H   0  0  0  0  0  0  0  0  0  0  0  0
   -0.6728    0.1554   -0.6416 C   0  0  0  0  0  0  0  0  0  0  0  0
   -1.5074    0.6261   -1.1636 H   0  0  0  0  0  0  0  0  0  0  0  0
    0.1703    0.8491   -0.6531 H   0  0  0  0  0  0  0  0  0  0  0  0
   -0.2869   -1.1227   -1.4018 C   0  0  0  0  0  0  0  0  0  0  0  0
    0.5382   -1.6197   -0.8899 H   0  0  0  0  0  0  0  0  0  0  0  0
   -1.1455   -1.7963   -1.4316 H   0  0  0  0  0  0  0  0  0  0  0  0
    0.1421   -0.7828   -2.8359 C   0  0  0  0  0  0  0  0  0  0  0  0
   -0.6810   -0.2718   -3.3411 H   0  0  0  0  0  0  0  0  0  0  0  0
    1.0064   -0.1166   -2.8006 H   0  0  0  0  0  0  0  0  0  0  0  0
    0.5039   -2.0602   -3.6038 C   0  0  0  0  0  0  0  0  0  0  0  0
    1.3238   -2.5606   -3.0782 H   0  0  0  0  0  0  0  0  0  0  0  0
   -0.3609   -2.7304   -3.5908 H   0  0  0  0  0  0  0  0  0  0  0  0
    0.9002   -1.7622   -5.0033 N   0  3  0  0  0  0  0  0  0  0  0  0
    1.7068   -1.1506   -5.0218 H   0  0  0  0  0  0  0  0  0  0  0  0
    1.1353   -2.6148   -5.4959 H   0  0  0  0  0  0  0  0  0  0  0  0
    0.1413   -1.3067   -5.4968 H   0  0  0  0  0  0  0  0  0  0  0  0
   -1.2285    1.1911    1.6148 C   0  0  0  0  0  0  0  0  0  0  0  0
   -1.5676    1.1469    2.7915 O   0  0  0  0  0  0  0  0  0  0  0  0
   -0.9976    2.3354    0.9631 N   0  0  0  0  0  0  0  0  0  0  0  0
   -0.6924    2.2779    0.0056 H   0  0  0  0  0  0  0  0  0  0  0  0
   -1.0819    3.6610    1.5790 C   0  0  0  0  0  0  0  0  0  0  0  0
   -0.3446    3.7426    2.3806 H   0  0  0  0  0  0  0  0  0  0  0  0
   -0.8882    4.4381    0.8388 H   0  0  0  0  0  0  0  0  0  0  0  0
   -2.0748    3.8116    2.0083 H   0  0  0  0  0  0  0  0  0  0  0  0
  5  6  2  0  0  0  0
  5  7  1  0  0  0  0
  2  3  1  0  0  0  0
  2  4  1  0  0  0  0
  2  5  1  0  0  0  0
  1  2  1  0  0  0  0
 27 28  2  0  0  0  0
 27 29  1  0  0  0  0
 23 24  1  0  0  0  0
 23 25  1  0  0  0  0
 23 26  1  0  0  0  0
 20 21  1  0  0  0  0
 20 22  1  0  0  0  0
 20 23  1  0  0  0  0
 17 18  1  0  0  0  0
 17 19  1  0  0  0  0
 17 20  1  0  0  0  0
 14 15  1  0  0  0  0
 14 16  1  0  0  0  0
 14 17  1  0  0  0  0
 11 12  1  0  0  0  0
 11 13  1  0  0  0  0
 11 14  1  0  0  0  0
  9 10  1  0  0  0  0
  9 11  1  0  0  0  0
  9 27  1  0  0  0  0
  7  8  1  0  0  0  0
  7  9  1  0  0  0  0
 31 32  1  0  0  0  0
 31 33  1  0  0  0  0
 31 34  1  0  0  0  0
 29 30  1  0  0  0  0
 29 31  1  0  0  0  0
M  CHG  1  23   1
M  END
$$$$
default_name
  -OEChem-01062215323D

 34 33  0     1  0  0  0  0  0999 V2000
   -3.8899   -3.6747    1.6490 H   0  0  0  0  0  0  0  0  0  0  0  0
   -3.9109   -2.6717    1.2250 C   0  0  0  0  0  0  0  0  0  0  0  0
   -4.6009   -2.0517    1.7950 H   0  0  0  0  0  0  0  0  0  0  0  0
   -4.2309   -2.7237    0.1860 H   0  0  0  0  0  0  0  0  0  0  0  0
   -2.5229   -2.0787    1.2980 C   0  0  0  0  0  0  0  0  0  0  0  0
   -1.5999   -2.7227    1.7810 O   0  0  0  0  0  0  0  0  0  0  0  0
   -2.3659   -0.8447    0.8120 N   0  0  0  0  0  0  0  0  0  0  0  0
   -3.1749   -0.3807    0.4220 H   0  0  0  0  0  0  0  0  0  0  0  0
   -1.0919   -0.1077    0.8170 C   0  0  1  0  0  0  0  0  0  0  0  0
   -0.3356   -0.7343    1.2933 H   0  0  0  0  0  0  0  0  0  0  0  0
   -0.6728    0.1554   -0.6416 C   0  0  0  0  0  0  0  0  0  0  0  0
   -1.5074    0.6261   -1.1636 H   0  0  0  0  0  0  0  0  0  0  0  0
    0.1703    0.8491   -0.6531 H   0  0  0  0  0  0  0  0  0  0  0  0
   -0.2869   -1.1227   -1.4018 C   0  0  0  0  0  0  0  0  0  0  0  0
    0.5382   -1.6197   -0.8899 H   0  0  0  0  0  0  0  0  0  0  0  0
   -1.1455   -1.7963   -1.4316 H   0  0  0  0  0  0  0  0  0  0  0  0
    0.1421   -0.7828   -2.8359 C   0  0  0  0  0  0  0  0  0  0  0  0
   -0.6810   -0.2718   -3.3411 H   0  0  0  0  0  0  0  0  0  0  0  0
    1.0064   -0.1166   -2.8006 H   0  0  0  0  0  0  0  0  0  0  0  0
    0.5039   -2.0602   -3.6038 C   0  0  0  0  0  0  0  0  0  0  0  0
    1.3238   -2.5606   -3.0782 H   0  0  0  0  0  0  0  0  0  0  0  0
   -0.3609   -2.7304   -3.5908 H   0  0  0  0  0  0  0  0  0  0  0  0
    0.9002   -1.7622   -5.0033 N   0  3  0  0  0  0  0  0  0  0  0  0
    1.7068   -1.1506   -5.0218 H   0  0  0  0  0  0  0  0  0  0  0  0
    1.1353   -2.6148   -5.4959 H   0  0  0  0  0  0  0  0  0  0  0  0
    0.1413   -1.3067   -5.4968 H   0  0  0  0  0  0  0  0  0  0  0  0
   -1.2285    1.1911    1.6148 C   0  0  0  0  0  0  0  0  0  0  0  0
   -1.2935    1.1474    2.8377 O   0  0  0  0  0  0  0  0  0  0  0  0
   -1.3049    2.3302    0.9190 N   0  0  0  0  0  0  0  0  0  0  0  0
   -1.2109    2.2771   -0.0817 H   0  0  0  0  0  0  0  0  0  0  0  0
   -1.4343    3.6555    1.5277 C   0  0  0  0  0  0  0  0  0  0  0  0
   -0.5584    3.8645    2.1456 H   0  0  0  0  0  0  0  0  0  0  0  0
   -1.5154    4.4225    0.7567 H   0  0  0  0  0  0  0  0  0  0  0  0
   -2.3208    3.6896    2.1648 H   0  0  0  0  0  0  0  0  0  0  0  0
  5  6  2  0  0  0  0
  5  7  1  0  0  0  0
  2  3  1  0  0  0  0
  2  4  1  0  0  0  0
  2  5  1  0  0  0  0
  1  2  1  0  0  0  0
 27 28  2  0  0  0  0
 27 29  1  0  0  0  0
 23 24  1  0  0  0  0
 23 25  1  0  0  0  0
 23 26  1  0  0  0  0
 20 21  1  0  0  0  0
 20 22  1  0  0  0  0
 20 23  1  0  0  0  0
 17 18  1  0  0  0  0
 17 19  1  0  0  0  0
 17 20  1  0  0  0  0
 14 15  1  0  0  0  0
 14 16  1  0  0  0  0
 14 17  1  0  0  0  0
 11 12  1  0  0  0  0
 11 13  1  0  0  0  0
 11 14  1  0  0  0  0
  9 10  1  0  0  0  0
  9 11  1  0  0  0  0
  9 27  1  0  0  0  0
  7  8  1  0  0  0  0
  7  9  1  0  0  0  0
 31 32  1  0  0  0  0
 31 33  1  0  0  0  0
 31 34  1  0  0  0  0
 29 30  1  0  0  0  0
 29 31  1  0  0  0  0
M  CHG  1  23   1
M  END
$$$$
default_name
  -OEChem-01062215323D

 34 33  0     1  0  0  0  0  0999 V2000
   -3.8899   -3.6747    1.6490 H   0  0  0  0  0  0  0  0  0  0  0  0
   -3.9109   -2.6717    1.2250 C   0  0  0  0  0  0  0  0  0  0  0  0
   -4.6009   -2.0517    1.7950 H   0  0  0  0  0  0  0  0  0  0  0  0
   -4.2309   -2.7237    0.1860 H   0  0  0  0  0  0  0  0  0  0  0  0
   -2.5229   -2.0787    1.2980 C   0  0  0  0  0  0  0  0  0  0  0  0
   -1.5999   -2.7227    1.7810 O   0  0  0  0  0  0  0  0  0  0  0  0
   -2.3659   -0.8447    0.8120 N   0  0  0  0  0  0  0  0  0  0  0  0
   -3.1749   -0.3807    0.4220 H   0  0  0  0  0  0  0  0  0  0  0  0
   -1.0919   -0.1077    0.8170 C   0  0  1  0  0  0  0  0  0  0  0  0
   -0.3356   -0.7343    1.2933 H   0  0  0  0  0  0  0  0  0  0  0  0
   -0.6728    0.1554   -0.6416 C   0  0  0  0  0  0  0  0  0  0  0  0
   -1.5074    0.6261   -1.1636 H   0  0  0  0  0  0  0  0  0  0  0  0
    0.1703    0.8491   -0.6531 H   0  0  0  0  0  0  0  0  0  0  0  0
   -0.2869   -1.1227   -1.4018 C   0  0  0  0  0  0  0  0  0  0  0  0
    0.5382   -1.6197   -0.8899 H   0  0  0  0  0  0  0  0  0  0  0  0
   -1.1455   -1.7963   -1.4316 H   0  0  0  0  0  0  0  0  0  0  0  0
    0.1421   -0.7828   -2.8359 C   0  0  0  0  0  0  0  0  0  0  0  0
   -0.6810   -0.2718   -3.3411 H   0  0  0  0  0  0  0  0  0  0  0  0
    1.0064   -0.1166   -2.8006 H   0  0  0  0  0  0  0  0  0  0  0  0
    0.5039   -2.0602   -3.6038 C   0  0  0  0  0  0  0  0  0  0  0  0
    1.3238   -2.5606   -3.0782 H   0  0  0  0  0  0  0  0  0  0  0  0
   -0.3609   -2.7304   -3.5908 H   0  0  0  0  0  0  0  0  0  0  0  0
    0.9002   -1.7622   -5.0033 N   0  3  0  0  0  0  0  0  0  0  0  0
    1.7068   -1.1506   -5.0218 H   0  0  0  0  0  0  0  0  0  0  0  0
    1.1353   -2.6148   -5.4959 H   0  0  0  0  0  0  0  0  0  0  0  0
    0.1413   -1.3067   -5.4968 H   0  0  0  0  0  0  0  0  0  0  0  0
   -1.2285    1.1911    1.6148 C   0  0  0  0  0  0  0  0  0  0  0  0
   -1.0186    1.1859    2.8221 O   0  0  0  0  0  0  0  0  0  0  0  0
   -1.6107    2.2827    0.9440 N   0  0  0  0  0  0  0  0  0  0  0  0
   -1.7308    2.2043   -0.0522 H   0  0  0  0  0  0  0  0  0  0  0  0
   -1.7852    3.6014    1.5557 C   0  0  0  0  0  0  0  0  0  0  0  0
   -0.8329    3.9479    1.9628 H   0  0  0  0  0  0  0  0  0  0  0  0
   -2.1372    4.3210    0.8156 H   0  0  0  0  0  0  0  0  0  0  0  0
   -2.5075    3.5422    2.3728 H   0  0  0  0  0  0  0  0  0  0  0  0
  5  6  2  0  0  0  0
  5  7  1  0  0  0  0
  2  3  1  0  0  0  0
  2  4  1  0  0  0  0
  2  5  1  0  0  0  0
  1  2  1  0  0  0  0
 27 28  2  0  0  0  0
 27 29  1  0  0  0  0
 23 24  1  0  0  0  0
 23 25  1  0  0  0  0
 23 26  1  0  0  0  0
 20 21  1  0  0  0  0
 20 22  1  0  0  0  0
 20 23  1  0  0  0  0
 17 18  1  0  0  0  0
 17 19  1  0  0  0  0
 17 20  1  0  0  0  0
 14 15  1  0  0  0  0
 14 16  1  0  0  0  0
 14 17  1  0  0  0  0
 11 12  1  0  0  0  0
 11 13  1  0  0  0  0
 11 14  1  0  0  0  0
  9 10  1  0  0  0  0
  9 11  1  0  0  0  0
  9 27  1  0  0  0  0
  7  8  1  0  0  0  0
  7  9  1  0  0  0  0
 31 32  1  0  0  0  0
 31 33  1  0  0  0  0
 31 34  1  0  0  0  0
 29 30  1  0  0  0  0
 29 31  1  0  0  0  0
M  CHG  1  23   1
M  END
$$$$
default_name
  -OEChem-01062215323D

 34 33  0     1  0  0  0  0  0999 V2000
   -3.8899   -3.6747    1.6490 H   0  0  0  0  0  0  0  0  0  0  0  0
   -3.9109   -2.6717    1.2250 C   0  0  0  0  0  0  0  0  0  0  0  0
   -4.6009   -2.0517    1.7950 H   0  0  0  0  0  0  0  0  0  0  0  0
   -4.2309   -2.7237    0.1860 H   0  0  0  0  0  0  0  0  0  0  0  0
   -2.5229   -2.0787    1.2980 C   0  0  0  0  0  0  0  0  0  0  0  0
   -1.5999   -2.7227    1.7810 O   0  0  0  0  0  0  0  0  0  0  0  0
   -2.3659   -0.8447    0.8120 N   0  0  0  0  0  0  0  0  0  0  0  0
   -3.1749   -0.3807    0.4220 H   0  0  0  0  0  0  0  0  0  0  0  0
   -1.0919   -0.1077    0.8170 C   0  0  1  0  0  0  0  0  0  0  0  0
   -0.3356   -0.7343    1.2933 H   0  0  0  0  0  0  0  0  0  0  0  0
   -0.6728    0.1554   -0.6416 C   0  0  0  0  0  0  0  0  0  0  0  0
   -1.5074    0.6261   -1.1636 H   0  0  0  0  0  0  0  0  0  0  0  0
    0.1703    0.8491   -0.6531 H   0  0  0  0  0  0  0  0  0  0  0  0
   -0.2869   -1.1227   -1.4018 C   0  0  0  0  0  0  0  0  0  0  0  0
    0.5382   -1.6197   -0.8899 H   0  0  0  0  0  0  0  0  0  0  0  0
   -1.1455   -1.7963   -1.4316 H   0  0  0  0  0  0  0  0  0  0  0  0
    0.1421   -0.7828   -2.8359 C   0  0  0  0  0  0  0  0  0  0  0  0
   -0.6810   -0.2718   -3.3411 H   0  0  0  0  0  0  0  0  0  0  0  0
    1.0064   -0.1166   -2.8006 H   0  0  0  0  0  0  0  0  0  0  0  0
    0.5039   -2.0602   -3.6038 C   0  0  0  0  0  0  0  0  0  0  0  0
    1.3238   -2.5606   -3.0782 H   0  0  0  0  0  0  0  0  0  0  0  0
   -0.3609   -2.7304   -3.5908 H   0  0  0  0  0  0  0  0  0  0  0  0
    0.9002   -1.7622   -5.0033 N   0  3  0  0  0  0  0  0  0  0  0  0
    1.7068   -1.1506   -5.0218 H   0  0  0  0  0  0  0  0  0  0  0  0
    1.1353   -2.6148   -5.4959 H   0  0  0  0  0  0  0  0  0  0  0  0
    0.1413   -1.3067   -5.4968 H   0  0  0  0  0  0  0  0  0  0  0  0
   -1.2285    1.1911    1.6148 C   0  0  0  0  0  0  0  0  0  0  0  0
   -0.7617    1.2598    2.7458 O   0  0  0  0  0  0  0  0  0  0  0  0
   -1.8942    2.1961    1.0365 N   0  0  0  0  0  0  0  0  0  0  0  0
   -2.2167    2.0645    0.0922 H   0  0  0  0  0  0  0  0  0  0  0  0
   -2.1107    3.5025    1.6610 C   0  0  0  0  0  0  0  0  0  0  0  0
   -1.1495    3.9873    1.8446 H   0  0  0  0  0  0  0  0  0  0  0  0
   -2.7112    4.1404    1.0114 H   0  0  0  0  0  0  0  0  0  0  0  0
   -2.6223    3.3794    2.6181 H   0  0  0  0  0  0  0  0  0  0  0  0
  5  6  2  0  0  0  0
  5  7  1  0  0  0  0
  2  3  1  0  0  0  0
  2  4  1  0  0  0  0
  2  5  1  0  0  0  0
  1  2  1  0  0  0  0
 27 28  2  0  0  0  0
 27 29  1  0  0  0  0
 23 24  1  0  0  0  0
 23 25  1  0  0  0  0
 23 26  1  0  0  0  0
 20 21  1  0  0  0  0
 20 22  1  0  0  0  0
 20 23  1  0  0  0  0
 17 18  1  0  0  0  0
 17 19  1  0  0  0  0
 17 20  1  0  0  0  0
 14 15  1  0  0  0  0
 14 16  1  0  0  0  0
 14 17  1  0  0  0  0
 11 12  1  0  0  0  0
 11 13  1  0  0  0  0
 11 14  1  0  0  0  0
  9 10  1  0  0  0  0
  9 11  1  0  0  0  0
  9 27  1  0  0  0  0
  7  8  1  0  0  0  0
  7  9  1  0  0  0  0
 31 32  1  0  0  0  0
 31 33  1  0  0  0  0
 31 34  1  0  0  0  0
 29 30  1  0  0  0  0
 29 31  1  0  0  0  0
M  CHG  1  23   1
M  END
$$$$
default_name
  -OEChem-01062215323D

 34 33  0     1  0  0  0  0  0999 V2000
   -3.8899   -3.6747    1.6490 H   0  0  0  0  0  0  0  0  0  0  0  0
   -3.9109   -2.6717    1.2250 C   0  0  0  0  0  0  0  0  0  0  0  0
   -4.6009   -2.0517    1.7950 H   0  0  0  0  0  0  0  0  0  0  0  0
   -4.2309   -2.7237    0.1860 H   0  0  0  0  0  0  0  0  0  0  0  0
   -2.5229   -2.0787    1.2980 C   0  0  0  0  0  0  0  0  0  0  0  0
   -1.5999   -2.7227    1.7810 O   0  0  0  0  0  0  0  0  0  0  0  0
   -2.3659   -0.8447    0.8120 N   0  0  0  0  0  0  0  0  0  0  0  0
   -3.1749   -0.3807    0.4220 H   0  0  0  0  0  0  0  0  0  0  0  0
   -1.0919   -0.1077    0.8170 C   0  0  1  0  0  0  0  0  0  0  0  0
   -0.3356   -0.7343    1.2933 H   0  0  0  0  0  0  0  0  0  0  0  0
   -0.6728    0.1554   -0.6416 C   0  0  0  0  0  0  0  0  0  0  0  0
   -1.5074    0.6261   -1.1636 H   0  0  0  0  0  0  0  0  0  0  0  0
    0.1703    0.8491   -0.6531 H   0  0  0  0  0  0  0  0  0  0  0  0
   -0.2869   -1.1227   -1.4018 C   0  0  0  0  0  0  0  0  0  0  0  0
    0.5382   -1.6197   -0.8899 H   0  0  0  0  0  0  0  0  0  0  0  0
   -1.1455   -1.7963   -1.4316 H   0  0  0  0  0  0  0  0  0  0  0  0
    0.1421   -0.7828   -2.8359 C   0  0  0  0  0  0  0  0  0  0  0  0
   -0.6810   -0.2718   -3.3411 H   0  0  0  0  0  0  0  0  0  0  0  0
    1.0064   -0.1166   -2.8006 H   0  0  0  0  0  0  0  0  0  0  0  0
    0.5039   -2.0602   -3.6038 C   0  0  0  0  0  0  0  0  0  0  0  0
    1.3238   -2.5606   -3.0782 H   0  0  0  0  0  0  0  0  0  0  0  0
   -0.3609   -2.7304   -3.5908 H   0  0  0  0  0  0  0  0  0  0  0  0
    0.9002   -1.7622   -5.0033 N   0  3  0  0  0  0  0  0  0  0  0  0
    1.7068   -1.1506   -5.0218 H   0  0  0  0  0  0  0  0  0  0  0  0
    1.1353   -2.6148   -5.4959 H   0  0  0  0  0  0  0  0  0  0  0  0
    0.1413   -1.3067   -5.4968 H   0  0  0  0  0  0  0  0  0  0  0  0
   -1.2285    1.1911    1.6148 C   0  0  0  0  0  0  0  0  0  0  0  0
   -0.5403    1.3640    2.6139 O   0  0  0  0  0  0  0  0  0  0  0  0
   -2.1360    2.0763    1.1901 N   0  0  0  0  0  0  0  0  0  0  0  0
   -2.6354    1.8673    0.3416 H   0  0  0  0  0  0  0  0  0  0  0  0
   -2.3887    3.3654    1.8365 C   0  0  0  0  0  0  0  0  0  0  0  0
   -1.4866    3.9798    1.7990 H   0  0  0  0  0  0  0  0  0  0  0  0
   -3.1982    3.8930    1.3308 H   0  0  0  0  0  0  0  0  0  0  0  0
   -2.6573    3.2123    2.8840 H   0  0  0  0  0  0  0  0  0  0  0  0
  5  6  2  0  0  0  0
  5  7  1  0  0  0  0
  2  3  1  0  0  0  0
  2  4  1  0  0  0  0
  2  5  1  0  0  0  0
  1  2  1  0  0  0  0
 27 28  2  0  0  0  0
 27 29  1  0  0  0  0
 23 24  1  0  0  0  0
 23 25  1  0  0  0  0
 23 26  1  0  0  0  0
 20 21  1  0  0  0  0
 20 22  1  0  0  0  0
 20 23  1  0  0  0  0
 17 18  1  0  0  0  0
 17 19  1  0  0  0  0
 17 20  1  0  0  0  0
 14 15  1  0  0  0  0
 14 16  1  0  0  0  0
 14 17  1  0  0  0  0
 11 12  1  0  0  0  0
 11 13  1  0  0  0  0
 11 14  1  0  0  0  0
  9 10  1  0  0  0  0
  9 11  1  0  0  0  0
  9 27  1  0  0  0  0
  7  8  1  0  0  0  0
  7  9  1  0  0  0  0
 31 32  1  0  0  0  0
 31 33  1  0  0  0  0
 31 34  1  0  0  0  0
 29 30  1  0  0  0  0
 29 31  1  0  0  0  0
M  CHG  1  23   1
M  END
$$$$
default_name
  -OEChem-01062215323D

 34 33  0     1  0  0  0  0  0999 V2000
   -3.8899   -3.6747    1.6490 H   0  0  0  0  0  0  0  0  0  0  0  0
   -3.9109   -2.6717    1.2250 C   0  0  0  0  0  0  0  0  0  0  0  0
   -4.6009   -2.0517    1.7950 H   0  0  0  0  0  0  0  0  0  0  0  0
   -4.2309   -2.7237    0.1860 H   0  0  0  0  0  0  0  0  0  0  0  0
   -2.5229   -2.0787    1.2980 C   0  0  0  0  0  0  0  0  0  0  0  0
   -1.5999   -2.7227    1.7810 O   0  0  0  0  0  0  0  0  0  0  0  0
   -2.3659   -0.8447    0.8120 N   0  0  0  0  0  0  0  0  0  0  0  0
   -3.1749   -0.3807    0.4220 H   0  0  0  0  0  0  0  0  0  0  0  0
   -1.0919   -0.1077    0.8170 C   0  0  1  0  0  0  0  0  0  0  0  0
   -0.3356   -0.7343    1.2933 H   0  0  0  0  0  0  0  0  0  0  0  0
   -0.6728    0.1554   -0.6416 C   0  0  0  0  0  0  0  0  0  0  0  0
   -1.5074    0.6261   -1.1636 H   0  0  0  0  0  0  0  0  0  0  0  0
    0.1703    0.8491   -0.6531 H   0  0  0  0  0  0  0  0  0  0  0  0
   -0.2869   -1.1227   -1.4018 C   0  0  0  0  0  0  0  0  0  0  0  0
    0.5382   -1.6197   -0.8899 H   0  0  0  0  0  0  0  0  0  0  0  0
   -1.1455   -1.7963   -1.4316 H   0  0  0  0  0  0  0  0  0  0  0  0
    0.1421   -0.7828   -2.8359 C   0  0  0  0  0  0  0  0  0  0  0  0
   -0.6810   -0.2718   -3.3411 H   0  0  0  0  0  0  0  0  0  0  0  0
    1.0064   -0.1166   -2.8006 H   0  0  0  0  0  0  0  0  0  0  0  0
    0.5039   -2.0602   -3.6038 C   0  0  0  0  0  0  0  0  0  0  0  0
    1.3238   -2.5606   -3.0782 H   0  0  0  0  0  0  0  0  0  0  0  0
   -0.3609   -2.7304   -3.5908 H   0  0  0  0  0  0  0  0  0  0  0  0
    0.9002   -1.7622   -5.0033 N   0  3  0  0  0  0  0  0  0  0  0  0
    1.7068   -1.1506   -5.0218 H   0  0  0  0  0  0  0  0  0  0  0  0
    1.1353   -2.6148   -5.4959 H   0  0  0  0  0  0  0  0  0  0  0  0
    0.1413   -1.3067   -5.4968 H   0  0  0  0  0  0  0  0  0  0  0  0
   -1.2285    1.1911    1.6148 C   0  0  0  0  0  0  0  0  0  0  0  0
   -0.3695    1.4916    2.4355 O   0  0  0  0  0  0  0  0  0  0  0  0
   -2.3197    1.9316    1.3943 N   0  0  0  0  0  0  0  0  0  0  0  0
   -2.9585    1.6260    0.6790 H   0  0  0  0  0  0  0  0  0  0  0  0
   -2.6001    3.1996    2.0703 C   0  0  0  0  0  0  0  0  0  0  0  0
   -1.8212    3.9261    1.8292 H   0  0  0  0  0  0  0  0  0  0  0  0
   -3.5651    3.5957    1.7520 H   0  0  0  0  0  0  0  0  0  0  0  0
   -2.6102    3.0524    3.1525 H   0  0  0  0  0  0  0  0  0  0  0  0
  5  6  2  0  0  0  0
  5  7  1  0  0  0  0
  2  3  1  0  0  0  0
  2  4  1  0  0  0  0
  2  5  1  0  0  0  0
  1  2  1  0  0  0  0
 27 28  2  0  0  0  0
 27 29  1  0  0  0  0
 23 24  1  0  0  0  0
 23 25  1  0  0  0  0
 23 26  1  0  0  0  0
 20 21  1  0  0  0  0
 20 22  1  0  0  0  0
 20 23  1  0  0  0  0
 17 18  1  0  0  0  0
 17 19  1  0  0  0  0
 17 20  1  0  0  0  0
 14 15  1  0  0  0  0
 14 16  1  0  0  0  0
 14 17  1  0  0  0  0
 11 12  1  0  0  0  0
 11 13  1  0  0  0  0
 11 14  1  0  0  0  0
  9 10  1  0  0  0  0
  9 11  1  0  0  0  0
  9 27  1  0  0  0  0
  7  8  1  0  0  0  0
  7  9  1  0  0  0  0
 31 32  1  0  0  0  0
 31 33  1  0  0  0  0
 31 34  1  0  0  0  0
 29 30  1  0  0  0  0
 29 31  1  0  0  0  0
M  CHG  1  23   1
M  END
$$$$
default_name
  -OEChem-01062215323D

 34 33  0     1  0  0  0  0  0999 V2000
   -3.8899   -3.6747    1.6490 H   0  0  0  0  0  0  0  0  0  0  0  0
   -3.9109   -2.6717    1.2250 C   0  0  0  0  0  0  0  0  0  0  0  0
   -4.6009   -2.0517    1.7950 H   0  0  0  0  0  0  0  0  0  0  0  0
   -4.2309   -2.7237    0.1860 H   0  0  0  0  0  0  0  0  0  0  0  0
   -2.5229   -2.0787    1.2980 C   0  0  0  0  0  0  0  0  0  0  0  0
   -1.5999   -2.7227    1.7810 O   0  0  0  0  0  0  0  0  0  0  0  0
   -2.3659   -0.8447    0.8120 N   0  0  0  0  0  0  0  0  0  0  0  0
   -3.1749   -0.3807    0.4220 H   0  0  0  0  0  0  0  0  0  0  0  0
   -1.0919   -0.1077    0.8170 C   0  0  1  0  0  0  0  0  0  0  0  0
   -0.3356   -0.7343    1.2933 H   0  0  0  0  0  0  0  0  0  0  0  0
   -0.6728    0.1554   -0.6416 C   0  0  0  0  0  0  0  0  0  0  0  0
   -1.5074    0.6261   -1.1636 H   0  0  0  0  0  0  0  0  0  0  0  0
    0.1703    0.8491   -0.6531 H   0  0  0  0  0  0  0  0  0  0  0  0
   -0.2869   -1.1227   -1.4018 C   0  0  0  0  0  0  0  0  0  0  0  0
    0.5382   -1.6197   -0.8899 H   0  0  0  0  0  0  0  0  0  0  0  0
   -1.1455   -1.7963   -1.4316 H   0  0  0  0  0  0  0  0  0  0  0  0
    0.1421   -0.7828   -2.8359 C   0  0  0  0  0  0  0  0  0  0  0  0
   -0.6810   -0.2718   -3.3411 H   0  0  0  0  0  0  0  0  0  0  0  0
    1.0064   -0.1166   -2.8006 H   0  0  0  0  0  0  0  0  0  0  0  0
    0.5039   -2.0602   -3.6038 C   0  0  0  0  0  0  0  0  0  0  0  0
    1.3238   -2.5606   -3.0782 H   0  0  0  0  0  0  0  0  0  0  0  0
   -0.3609   -2.7304   -3.5908 H   0  0  0  0  0  0  0  0  0  0  0  0
    0.9002   -1.7622   -5.0033 N   0  3  0  0  0  0  0  0  0  0  0  0
    1.7068   -1.1506   -5.0218 H   0  0  0  0  0  0  0  0  0  0  0  0
    1.1353   -2.6148   -5.4959 H   0  0  0  0  0  0  0  0  0  0  0  0
    0.1413   -1.3067   -5.4968 H   0  0  0  0  0  0  0  0  0  0  0  0
   -1.2285    1.1911    1.6148 C   0  0  0  0  0  0  0  0  0  0  0  0
   -0.2609    1.6337    2.2227 O   0  0  0  0  0  0  0  0  0  0  0  0
   -2.4327    1.7717    1.6352 N   0  0  0  0  0  0  0  0  0  0  0  0
   -3.1639    1.3572    1.0815 H   0  0  0  0  0  0  0  0  0  0  0  0
   -2.7307    3.0163    2.3464 C   0  0  0  0  0  0  0  0  0  0  0  0
   -2.1305    3.8298    1.9331 H   0  0  0  0  0  0  0  0  0  0  0  0
   -3.7869    3.2687    2.2463 H   0  0  0  0  0  0  0  0  0  0  0  0
   -2.4842    2.9104    3.4051 H   0  0  0  0  0  0  0  0  0  0  0  0
  5  6  2  0  0  0  0
  5  7  1  0  0  0  0
  2  3  1  0  0  0  0
  2  4  1  0  0  0  0
  2  5  1  0  0  0  0
  1  2  1  0  0  0  0
 27 28  2  0  0  0  0
 27 29  1  0  0  0  0
 23 24  1  0  0  0  0
 23 25  1  0  0  0  0
 23 26  1  0  0  0  0
 20 21  1  0  0  0  0
 20 22  1  0  0  0  0
 20 23  1  0  0  0  0
 17 18  1  0  0  0  0
 17 19  1  0  0  0  0
 17 20  1  0  0  0  0
 14 15  1  0  0  0  0
 14 16  1  0  0  0  0
 14 17  1  0  0  0  0
 11 12  1  0  0  0  0
 11 13  1  0  0  0  0
 11 14  1  0  0  0  0
  9 10  1  0  0  0  0
  9 11  1  0  0  0  0
  9 27  1  0  0  0  0
  7  8  1  0  0  0  0
  7  9  1  0  0  0  0
 31 32  1  0  0  0  0
 31 33  1  0  0  0  0
 31 34  1  0  0  0  0
 29 30  1  0  0  0  0
 29 31  1  0  0  0  0
M  CHG  1  23   1
M  END
$$$$
default_name
  -OEChem-01062215323D

 34 33  0     1  0  0  0  0  0999 V2000
   -3.8899   -3.6747    1.6490 H   0  0  0  0  0  0  0  0  0  0  0  0
   -3.9109   -2.6717    1.2250 C   0  0  0  0  0  0  0  0  0  0  0  0
   -4.6009   -2.0517    1.7950 H   0  0  0  0  0  0  0  0  0  0  0  0
   -4.2309   -2.7237    0.1860 H   0  0  0  0  0  0  0  0  0  0  0  0
   -2.5229   -2.0787    1.2980 C   0  0  0  0  0  0  0  0  0  0  0  0
   -1.5999   -2.7227    1.7810 O   0  0  0  0  0  0  0  0  0  0  0  0
   -2.3659   -0.8447    0.8120 N   0  0  0  0  0  0  0  0  0  0  0  0
   -3.1749   -0.3807    0.4220 H   0  0  0  0  0  0  0  0  0  0  0  0
   -1.0919   -0.1077    0.8170 C   0  0  1  0  0  0  0  0  0  0  0  0
   -0.3356   -0.7343    1.2933 H   0  0  0  0  0  0  0  0  0  0  0  0
   -0.6728    0.1554   -0.6416 C   0  0  0  0  0  0  0  0  0  0  0  0
   -1.5074    0.6261   -1.1636 H   0  0  0  0  0  0  0  0  0  0  0  0
    0.1703    0.8491   -0.6531 H   0  0  0  0  0  0  0  0  0  0  0  0
   -0.2869   -1.1227   -1.4018 C   0  0  0  0  0  0  0  0  0  0  0  0
    0.5382   -1.6197   -0.8899 H   0  0  0  0  0  0  0  0  0  0  0  0
   -1.1455   -1.7963   -1.4316 H   0  0  0  0  0  0  0  0  0  0  0  0
    0.1421   -0.7828   -2.8359 C   0  0  0  0  0  0  0  0  0  0  0  0
   -0.6810   -0.2718   -3.3411 H   0  0  0  0  0  0  0  0  0  0  0  0
    1.0064   -0.1166   -2.8006 H   0  0  0  0  0  0  0  0  0  0  0  0
    0.5039   -2.0602   -3.6038 C   0  0  0  0  0  0  0  0  0  0  0  0
    1.3238   -2.5606   -3.0782 H   0  0  0  0  0  0  0  0  0  0  0  0
   -0.3609   -2.7304   -3.5908 H   0  0  0  0  0  0  0  0  0  0  0  0
    0.9002   -1.7622   -5.0033 N   0  3  0  0  0  0  0  0  0  0  0  0
    1.7068   -1.1506   -5.0218 H   0  0  0  0  0  0  0  0  0  0  0  0
    1.1353   -2.6148   -5.4959 H   0  0  0  0  0  0  0  0  0  0  0  0
    0.1413   -1.3067   -5.4968 H   0  0  0  0  0  0  0  0  0  0  0  0
   -1.2285    1.1911    1.6148 C   0  0  0  0  0  0  0  0  0  0  0  0
   -0.2219    1.7808    1.9900 O   0  0  0  0  0  0  0  0  0  0  0  0
   -2.4674    1.6075    1.8965 N   0  0  0  0  0  0  0  0  0  0  0  0
   -3.2376    1.0791    1.5216 H   0  0  0  0  0  0  0  0  0  0  0  0
   -2.7714    2.8280    2.6459 C   0  0  0  0  0  0  0  0  0  0  0  0
   -2.3935    3.6974    2.1037 H   0  0  0  0  0  0  0  0  0  0  0  0
   -3.8484    2.9344    2.7800 H   0  0  0  0  0  0  0  0  0  0  0  0
   -2.2878    2.7962    3.6247 H   0  0  0  0  0  0  0  0  0  0  0  0
  5  6  2  0  0  0  0
  5  7  1  0  0  0  0
  2  3  1  0  0  0  0
  2  4  1  0  0  0  0
  2  5  1  0  0  0  0
  1  2  1  0  0  0  0
 27 28  2  0  0  0  0
 27 29  1  0  0  0  0
 23 24  1  0  0  0  0
 23 25  1  0  0  0  0
 23 26  1  0  0  0  0
 20 21  1  0  0  0  0
 20 22  1  0  0  0  0
 20 23  1  0  0  0  0
 17 18  1  0  0  0  0
 17 19  1  0  0  0  0
 17 20  1  0  0  0  0
 14 15  1  0  0  0  0
 14 16  1  0  0  0  0
 14 17  1  0  0  0  0
 11 12  1  0  0  0  0
 11 13  1  0  0  0  0
 11 14  1  0  0  0  0
  9 10  1  0  0  0  0
  9 11  1  0  0  0  0
  9 27  1  0  0  0  0
  7  8  1  0  0  0  0
  7  9  1  0  0  0  0
 31 32  1  0  0  0  0
 31 33  1  0  0  0  0
 31 34  1  0  0  0  0
 29 30  1  0  0  0  0
 29 31  1  0  0  0  0
M  CHG  1  23   1
M  END
$$$$
default_name
  -OEChem-01062215323D

 34 33  0     1  0  0  0  0  0999 V2000
   -3.8899   -3.6747    1.6490 H   0  0  0  0  0  0  0  0  0  0  0  0
   -3.9109   -2.6717    1.2250 C   0  0  0  0  0  0  0  0  0  0  0  0
   -4.6009   -2.0517    1.7950 H   0  0  0  0  0  0  0  0  0  0  0  0
   -4.2309   -2.7237    0.1860 H   0  0  0  0  0  0  0  0  0  0  0  0
   -2.5229   -2.0787    1.2980 C   0  0  0  0  0  0  0  0  0  0  0  0
   -1.5999   -2.7227    1.7810 O   0  0  0  0  0  0  0  0  0  0  0  0
   -2.3659   -0.8447    0.8120 N   0  0  0  0  0  0  0  0  0  0  0  0
   -3.1749   -0.3807    0.4220 H   0  0  0  0  0  0  0  0  0  0  0  0
   -1.0919   -0.1077    0.8170 C   0  0  1  0  0  0  0  0  0  0  0  0
   -0.3356   -0.7343    1.2933 H   0  0  0  0  0  0  0  0  0  0  0  0
   -0.6728    0.1554   -0.6416 C   0  0  0  0  0  0  0  0  0  0  0  0
   -1.5074    0.6261   -1.1636 H   0  0  0  0  0  0  0  0  0  0  0  0
    0.1703    0.8491   -0.6531 H   0  0  0  0  0  0  0  0  0  0  0  0
   -0.2869   -1.1227   -1.4018 C   0  0  0  0  0  0  0  0  0  0  0  0
    0.5382   -1.6197   -0.8899 H   0  0  0  0  0  0  0  0  0  0  0  0
   -1.1455   -1.7963   -1.4316 H   0  0  0  0  0  0  0  0  0  0  0  0
    0.1421   -0.7828   -2.8359 C   0  0  0  0  0  0  0  0  0  0  0  0
   -0.6810   -0.2718   -3.3411 H   0  0  0  0  0  0  0  0  0  0  0  0
    1.0064   -0.1166   -2.8006 H   0  0  0  0  0  0  0  0  0  0  0  0
    0.5039   -2.0602   -3.6038 C   0  0  0  0  0  0  0  0  0  0  0  0
    1.3238   -2.5606   -3.0782 H   0  0  0  0  0  0  0  0  0  0  0  0
   -0.3609   -2.7304   -3.5908 H   0  0  0  0  0  0  0  0  0  0  0  0
    0.9002   -1.7622   -5.0033 N   0  3  0  0  0  0  0  0  0  0  0  0
    1.7068   -1.1506   -5.0218 H   0  0  0  0  0  0  0  0  0  0  0  0
    1.1353   -2.6148   -5.4959 H   0  0  0  0  0  0  0  0  0  0  0  0
    0.1413   -1.3067   -5.4968 H   0  0  0  0  0  0  0  0  0  0  0  0
   -1.2285    1.1911    1.6148 C   0  0  0  0  0  0  0  0  0  0  0  0
   -0.2553    1.9227    1.7533 O   0  0  0  0  0  0  0  0  0  0  0  0
   -2.4213    1.4503    2.1603 N   0  0  0  0  0  0  0  0  0  0  0  0
   -3.1747    0.8107    1.9693 H   0  0  0  0  0  0  0  0  0  0  0  0
   -2.7194    2.6475    2.9486 C   0  0  0  0  0  0  0  0  0  0  0  0
   -2.5922    3.5379    2.3292 H   0  0  0  0  0  0  0  0  0  0  0  0
   -3.7455    2.6155    3.3167 H   0  0  0  0  0  0  0  0  0  0  0  0
   -2.0344    2.7174    3.7963 H   0  0  0  0  0  0  0  0  0  0  0  0
  5  6  2  0  0  0  0
  5  7  1  0  0  0  0
  2  3  1  0  0  0  0
  2  4  1  0  0  0  0
  2  5  1  0  0  0  0
  1  2  1  0  0  0  0
 27 28  2  0  0  0  0
 27 29  1  0  0  0  0
 23 24  1  0  0  0  0
 23 25  1  0  0  0  0
 23 26  1  0  0  0  0
 20 21  1  0  0  0  0
 20 22  1  0  0  0  0
 20 23  1  0  0  0  0
 17 18  1  0  0  0  0
 17 19  1  0  0  0  0
 17 20  1  0  0  0  0
 14 15  1  0  0  0  0
 14 16  1  0  0  0  0
 14 17  1  0  0  0  0
 11 12  1  0  0  0  0
 11 13  1  0  0  0  0
 11 14  1  0  0  0  0
  9 10  1  0  0  0  0
  9 11  1  0  0  0  0
  9 27  1  0  0  0  0
  7  8  1  0  0  0  0
  7  9  1  0  0  0  0
 31 32  1  0  0  0  0
 31 33  1  0  0  0  0
 31 34  1  0  0  0  0
 29 30  1  0  0  0  0
 29 31  1  0  0  0  0
M  CHG  1  23   1
M  END
$$$$
default_name
  -OEChem-01062215323D

 34 33  0     1  0  0  0  0  0999 V2000
   -3.8899   -3.6747    1.6490 H   0  0  0  0  0  0  0  0  0  0  0  0
   -3.9109   -2.6717    1.2250 C   0  0  0  0  0  0  0  0  0  0  0  0
   -4.6009   -2.0517    1.7950 H   0  0  0  0  0  0  0  0  0  0  0  0
   -4.2309   -2.7237    0.1860 H   0  0  0  0  0  0  0  0  0  0  0  0
   -2.5229   -2.0787    1.2980 C   0  0  0  0  0  0  0  0  0  0  0  0
   -1.5999   -2.7227    1.7810 O   0  0  0  0  0  0  0  0  0  0  0  0
   -2.3659   -0.8447    0.8120 N   0  0  0  0  0  0  0  0  0  0  0  0
   -3.1749   -0.3807    0.4220 H   0  0  0  0  0  0  0  0  0  0  0  0
   -1.0919   -0.1077    0.8170 C   0  0  1  0  0  0  0  0  0  0  0  0
   -0.3356   -0.7343    1.2933 H   0  0  0  0  0  0  0  0  0  0  0  0
   -0.6728    0.1554   -0.6416 C   0  0  0  0  0  0  0  0  0  0  0  0
   -1.5074    0.6261   -1.1636 H   0  0  0  0  0  0  0  0  0  0  0  0
    0.1703    0.8491   -0.6531 H   0  0  0  0  0  0  0  0  0  0  0  0
   -0.2869   -1.1227   -1.4018 C   0  0  0  0  0  0  0  0  0  0  0  0
    0.5382   -1.6197   -0.8899 H   0  0  0  0  0  0  0  0  0  0  0  0
   -1.1455   -1.7963   -1.4316 H   0  0  0  0  0  0  0  0  0  0  0  0
    0.1421   -0.7828   -2.8359 C   0  0  0  0  0  0  0  0  0  0  0  0
   -0.6810   -0.2718   -3.3411 H   0  0  0  0  0  0  0  0  0  0  0  0
    1.0064   -0.1166   -2.8006 H   0  0  0  0  0  0  0  0  0  0  0  0
    0.5039   -2.0602   -3.6038 C   0  0  0  0  0  0  0  0  0  0  0  0
    1.3238   -2.5606   -3.0782 H   0  0  0  0  0  0  0  0  0  0  0  0
   -0.3609   -2.7304   -3.5908 H   0  0  0  0  0  0  0  0  0  0  0  0
    0.9002   -1.7622   -5.0033 N   0  3  0  0  0  0  0  0  0  0  0  0
    1.7068   -1.1506   -5.0218 H   0  0  0  0  0  0  0  0  0  0  0  0
    1.1353   -2.6148   -5.4959 H   0  0  0  0  0  0  0  0  0  0  0  0
    0.1413   -1.3067   -5.4968 H   0  0  0  0  0  0  0  0  0  0  0  0
   -1.2285    1.1911    1.6148 C   0  0  0  0  0  0  0  0  0  0  0  0
   -0.3586    2.0498    1.5287 O   0  0  0  0  0  0  0  0  0  0  0  0
   -2.2977    1.3108    2.4086 N   0  0  0  0  0  0  0  0  0  0  0  0
   -2.9793    0.5702    2.3942 H   0  0  0  0  0  0  0  0  0  0  0  0
   -2.5785    2.4872    3.2337 C   0  0  0  0  0  0  0  0  0  0  0  0
   -2.7130    3.3623    2.5944 H   0  0  0  0  0  0  0  0  0  0  0  0
   -3.4852    2.3337    3.8200 H   0  0  0  0  0  0  0  0  0  0  0  0
   -1.7413    2.6794    3.9083 H   0  0  0  0  0  0  0  0  0  0  0  0
  5  6  2  0  0  0  0
  5  7  1  0  0  0  0
  2  3  1  0  0  0  0
  2  4  1  0  0  0  0
  2  5  1  0  0  0  0
  1  2  1  0  0  0  0
 27 28  2  0  0  0  0
 27 29  1  0  0  0  0
 23 24  1  0  0  0  0
 23 25  1  0  0  0  0
 23 26  1  0  0  0  0
 20 21  1  0  0  0  0
 20 22  1  0  0  0  0
 20 23  1  0  0  0  0
 17 18  1  0  0  0  0
 17 19  1  0  0  0  0
 17 20  1  0  0  0  0
 14 15  1  0  0  0  0
 14 16  1  0  0  0  0
 14 17  1  0  0  0  0
 11 12  1  0  0  0  0
 11 13  1  0  0  0  0
 11 14  1  0  0  0  0
  9 10  1  0  0  0  0
  9 11  1  0  0  0  0
  9 27  1  0  0  0  0
  7  8  1  0  0  0  0
  7  9  1  0  0  0  0
 31 32  1  0  0  0  0
 31 33  1  0  0  0  0
 31 34  1  0  0  0  0
 29 30  1  0  0  0  0
 29 31  1  0  0  0  0
M  CHG  1  23   1
M  END
$$$$
default_name
  -OEChem-01062215323D

 34 33  0     1  0  0  0  0  0999 V2000
   -3.8899   -3.6747    1.6490 H   0  0  0  0  0  0  0  0  0  0  0  0
   -3.9109   -2.6717    1.2250 C   0  0  0  0  0  0  0  0  0  0  0  0
   -4.6009   -2.0517    1.7950 H   0  0  0  0  0  0  0  0  0  0  0  0
   -4.2309   -2.7237    0.1860 H   0  0  0  0  0  0  0  0  0  0  0  0
   -2.5229   -2.0787    1.2980 C   0  0  0  0  0  0  0  0  0  0  0  0
   -1.5999   -2.7227    1.7810 O   0  0  0  0  0  0  0  0  0  0  0  0
   -2.3659   -0.8447    0.8120 N   0  0  0  0  0  0  0  0  0  0  0  0
   -3.1749   -0.3807    0.4220 H   0  0  0  0  0  0  0  0  0  0  0  0
   -1.0919   -0.1077    0.8170 C   0  0  1  0  0  0  0  0  0  0  0  0
   -0.3356   -0.7343    1.2933 H   0  0  0  0  0  0  0  0  0  0  0  0
   -0.6728    0.1554   -0.6416 C   0  0  0  0  0  0  0  0  0  0  0  0
   -1.5074    0.6261   -1.1636 H   0  0  0  0  0  0  0  0  0  0  0  0
    0.1703    0.8491   -0.6531 H   0  0  0  0  0  0  0  0  0  0  0  0
   -0.2869   -1.1227   -1.4018 C   0  0  0  0  0  0  0  0  0  0  0  0
    0.5382   -1.6197   -0.8899 H   0  0  0  0  0  0  0  0  0  0  0  0
   -1.1455   -1.7963   -1.4316 H   0  0  0  0  0  0  0  0  0  0  0  0
    0.1421   -0.7828   -2.8359 C   0  0  0  0  0  0  0  0  0  0  0  0
   -0.6810   -0.2718   -3.3411 H   0  0  0  0  0  0  0  0  0  0  0  0
    1.0064   -0.1166   -2.8006 H   0  0  0  0  0  0  0  0  0  0  0  0
    0.5039   -2.0602   -3.6038 C   0  0  0  0  0  0  0  0  0  0  0  0
    1.3238   -2.5606   -3.0782 H   0  0  0  0  0  0  0  0  0  0  0  0
   -0.3609   -2.7304   -3.5908 H   0  0  0  0  0  0  0  0  0  0  0  0
    0.9002   -1.7622   -5.0033 N   0  3  0  0  0  0  0  0  0  0  0  0
    1.7068   -1.1506   -5.0218 H   0  0  0  0  0  0  0  0  0  0  0  0
    1.1353   -2.6148   -5.4959 H   0  0  0  0  0  0  0  0  0  0  0  0
    0.1413   -1.3067   -5.4968 H   0  0  0  0  0  0  0  0  0  0  0  0
   -1.2285    1.1911    1.6148 C   0  0  0  0  0  0  0  0  0  0  0  0
   -0.5248    2.1535    1.3315 O   0  0  0  0  0  0  0  0  0  0  0  0
   -2.1050    1.1984    2.6245 N   0  0  0  0  0  0  0  0  0  0  0  0
   -2.6648    0.3742    2.7671 H   0  0  0  0  0  0  0  0  0  0  0  0
   -2.3581    2.3579    3.4818 C   0  0  0  0  0  0  0  0  0  0  0  0
   -2.7478    3.1825    2.8811 H   0  0  0  0  0  0  0  0  0  0  0  0
   -3.0851    2.1083    4.2554 H   0  0  0  0  0  0  0  0  0  0  0  0
   -1.4285    2.6849    3.9529 H   0  0  0  0  0  0  0  0  0  0  0  0
  5  6  2  0  0  0  0
  5  7  1  0  0  0  0
  2  3  1  0  0  0  0
  2  4  1  0  0  0  0
  2  5  1  0  0  0  0
  1  2  1  0  0  0  0
 27 28  2  0  0  0  0
 27 29  1  0  0  0  0
 23 24  1  0  0  0  0
 23 25  1  0  0  0  0
 23 26  1  0  0  0  0
 20 21  1  0  0  0  0
 20 22  1  0  0  0  0
 20 23  1  0  0  0  0
 17 18  1  0  0  0  0
 17 19  1  0  0  0  0
 17 20  1  0  0  0  0
 14 15  1  0  0  0  0
 14 16  1  0  0  0  0
 14 17  1  0  0  0  0
 11 12  1  0  0  0  0
 11 13  1  0  0  0  0
 11 14  1  0  0  0  0
  9 10  1  0  0  0  0
  9 11  1  0  0  0  0
  9 27  1  0  0  0  0
  7  8  1  0  0  0  0
  7  9  1  0  0  0  0
 31 32  1  0  0  0  0
 31 33  1  0  0  0  0
 31 34  1  0  0  0  0
 29 30  1  0  0  0  0
 29 31  1  0  0  0  0
M  CHG  1  23   1
M  END
$$$$
default_name
  -OEChem-01062215323D

 34 33  0     1  0  0  0  0  0999 V2000
   -3.8899   -3.6747    1.6490 H   0  0  0  0  0  0  0  0  0  0  0  0
   -3.9109   -2.6717    1.2250 C   0  0  0  0  0  0  0  0  0  0  0  0
   -4.6009   -2.0517    1.7950 H   0  0  0  0  0  0  0  0  0  0  0  0
   -4.2309   -2.7237    0.1860 H   0  0  0  0  0  0  0  0  0  0  0  0
   -2.5229   -2.0787    1.2980 C   0  0  0  0  0  0  0  0  0  0  0  0
   -1.5999   -2.7227    1.7810 O   0  0  0  0  0  0  0  0  0  0  0  0
   -2.3659   -0.8447    0.8120 N   0  0  0  0  0  0  0  0  0  0  0  0
   -3.1749   -0.3807    0.4220 H   0  0  0  0  0  0  0  0  0  0  0  0
   -1.0919   -0.1077    0.8170 C   0  0  1  0  0  0  0  0  0  0  0  0
   -0.3356   -0.7343    1.2933 H   0  0  0  0  0  0  0  0  0  0  0  0
   -0.6728    0.1554   -0.6416 C   0  0  0  0  0  0  0  0  0  0  0  0
   -1.5074    0.6261   -1.1636 H   0  0  0  0  0  0  0  0  0  0  0  0
    0.1703    0.8491   -0.6531 H   0  0  0  0  0  0  0  0  0  0  0  0
   -0.2869   -1.1227   -1.4018 C   0  0  0  0  0  0  0  0  0  0  0  0
    0.5382   -1.6197   -0.8899 H   0  0  0  0  0  0  0  0  0  0  0  0
   -1.1455   -1.7963   -1.4316 H   0  0  0  0  0  0  0  0  0  0  0  0
    0.1421   -0.7828   -2.8359 C   0  0  0  0  0  0  0  0  0  0  0  0
   -0.6810   -0.2718   -3.3411 H   0  0  0  0  0  0  0  0  0  0  0  0
    1.0064   -0.1166   -2.8006 H   0  0  0  0  0  0  0  0  0  0  0  0
    0.5039   -2.0602   -3.6038 C   0  0  0  0  0  0  0  0  0  0  0  0
    1.3238   -2.5606   -3.0782 H   0  0  0  0  0  0  0  0  0  0  0  0
   -0.3609   -2.7304   -3.5908 H   0  0  0  0  0  0  0  0  0  0  0  0
    0.9002   -1.7622   -5.0033 N   0  3  0  0  0  0  0  0  0  0  0  0
    1.7068   -1.1506   -5.0218 H   0  0  0  0  0  0  0  0  0  0  0  0
    1.1353   -2.6148   -5.4959 H   0  0  0  0  0  0  0  0  0  0  0  0
    0.1413   -1.3067   -5.4968 H   0  0  0  0  0  0  0  0  0  0  0  0
   -1.2285    1.1911    1.6148 C   0  0  0  0  0  0  0  0  0  0  0  0
   -0.7428    2.2266    1.1751 O   0  0  0  0  0  0  0  0  0  0  0  0
   -1.8562    1.1209    2.7933 N   0  0  0  0  0  0  0  0  0  0  0  0
   -2.2526    0.2358    3.0628 H   0  0  0  0  0  0  0  0  0  0  0  0
   -2.0732    2.2685    3.6760 C   0  0  0  0  0  0  0  0  0  0  0  0
   -2.6942    3.0108    3.1699 H   0  0  0  0  0  0  0  0  0  0  0  0
   -2.5727    1.9546    4.5933 H   0  0  0  0  0  0  0  0  0  0  0  0
   -1.1173    2.7334    3.9272 H   0  0  0  0  0  0  0  0  0  0  0  0
  5  6  2  0  0  0  0
  5  7  1  0  0  0  0
  2  3  1  0  0  0  0
  2  4  1  0  0  0  0
  2  5  1  0  0  0  0
  1  2  1  0  0  0  0
 27 28  2  0  0  0  0
 27 29  1  0  0  0  0
 23 24  1  0  0  0  0
 23 25  1  0  0  0  0
 23 26  1  0  0  0  0
 20 21  1  0  0  0  0
 20 22  1  0  0  0  0
 20 23  1  0  0  0  0
 17 18  1  0  0  0  0
 17 19  1  0  0  0  0
 17 20  1  0  0  0  0
 14 15  1  0  0  0  0
 14 16  1  0  0  0  0
 14 17  1  0  0  0  0
 11 12  1  0  0  0  0
 11 13  1  0  0  0  0
 11 14  1  0  0  0  0
  9 10  1  0  0  0  0
  9 11  1  0  0  0  0
  9 27  1  0  0  0  0
  7  8  1  0  0  0  0
  7  9  1  0  0  0  0
 31 32  1  0  0  0  0
 31 33  1  0  0  0  0
 31 34  1  0  0  0  0
 29 30  1  0  0  0  0
 29 31  1  0  0  0  0
M  CHG  1  23   1
M  END
$$$$
default_name
  -OEChem-01062215323D

 34 33  0     1  0  0  0  0  0999 V2000
   -3.8899   -3.6747    1.6490 H   0  0  0  0  0  0  0  0  0  0  0  0
   -3.9109   -2.6717    1.2250 C   0  0  0  0  0  0  0  0  0  0  0  0
   -4.6009   -2.0517    1.7950 H   0  0  0  0  0  0  0  0  0  0  0  0
   -4.2309   -2.7237    0.1860 H   0  0  0  0  0  0  0  0  0  0  0  0
   -2.5229   -2.0787    1.2980 C   0  0  0  0  0  0  0  0  0  0  0  0
   -1.5999   -2.7227    1.7810 O   0  0  0  0  0  0  0  0  0  0  0  0
   -2.3659   -0.8447    0.8120 N   0  0  0  0  0  0  0  0  0  0  0  0
   -3.1749   -0.3807    0.4220 H   0  0  0  0  0  0  0  0  0  0  0  0
   -1.0919   -0.1077    0.8170 C   0  0  1  0  0  0  0  0  0  0  0  0
   -0.3356   -0.7343    1.2933 H   0  0  0  0  0  0  0  0  0  0  0  0
   -0.6728    0.1554   -0.6416 C   0  0  0  0  0  0  0  0  0  0  0  0
   -1.5074    0.6261   -1.1636 H   0  0  0  0  0  0  0  0  0  0  0  0
    0.1703    0.8491   -0.6531 H   0  0  0  0  0  0  0  0  0  0  0  0
   -0.2869   -1.1227   -1.4018 C   0  0  0  0  0  0  0  0  0  0  0  0
    0.5382   -1.6197   -0.8899 H   0  0  0  0  0  0  0  0  0  0  0  0
   -1.1455   -1.7963   -1.4316 H   0  0  0  0  0  0  0  0  0  0  0  0
    0.1421   -0.7828   -2.8359 C   0  0  0  0  0  0  0  0  0  0  0  0
   -0.6810   -0.2718   -3.3411 H   0  0  0  0  0  0  0  0  0  0  0  0
    1.0064   -0.1166   -2.8006 H   0  0  0  0  0  0  0  0  0  0  0  0
    0.5039   -2.0602   -3.6038 C   0  0  0  0  0  0  0  0  0  0  0  0
    1.3238   -2.5606   -3.0782 H   0  0  0  0  0  0  0  0  0  0  0  0
   -0.3609   -2.7304   -3.5908 H   0  0  0  0  0  0  0  0  0  0  0  0
    0.9002   -1.7622   -5.0033 N   0  3  0  0  0  0  0  0  0  0  0  0
    1.7068   -1.1506   -5.0218 H   0  0  0  0  0  0  0  0  0  0  0  0
    1.1353   -2.6148   -5.4959 H   0  0  0  0  0  0  0  0  0  0  0  0
    0.1413   -1.3067   -5.4968 H   0  0  0  0  0  0  0  0  0  0  0  0
   -1.2285    1.1911    1.6148 C   0  0  0  0  0  0  0  0  0  0  0  0
   -0.9975    2.2642    1.0703 O   0  0  0  0  0  0  0  0  0  0  0  0
   -1.5683    1.0834    2.9035 N   0  0  0  0  0  0  0  0  0  0  0  0
   -1.7708    0.1646    3.2611 H   0  0  0  0  0  0  0  0  0  0  0  0
   -1.7433    2.2251    3.8032 C   0  0  0  0  0  0  0  0  0  0  0  0
   -2.5558    2.8588    3.4410 H   0  0  0  0  0  0  0  0  0  0  0  0
   -1.9828    1.8830    4.8106 H   0  0  0  0  0  0  0  0  0  0  0  0
   -0.8289    2.8216    3.8329 H   0  0  0  0  0  0  0  0  0  0  0  0
  5  6  2  0  0  0  0
  5  7  1  0  0  0  0
  2  3  1  0  0  0  0
  2  4  1  0  0  0  0
  2  5  1  0  0  0  0
  1  2  1  0  0  0  0
 27 28  2  0  0  0  0
 27 29  1  0  0  0  0
 23 24  1  0  0  0  0
 23 25  1  0  0  0  0
 23 26  1  0  0  0  0
 20 21  1  0  0  0  0
 20 22  1  0  0  0  0
 20 23  1  0  0  0  0
 17 18  1  0  0  0  0
 17 19  1  0  0  0  0
 17 20  1  0  0  0  0
 14 15  1  0  0  0  0
 14 16  1  0  0  0  0
 14 17  1  0  0  0  0
 11 12  1  0  0  0  0
 11 13  1  0  0  0  0
 11 14  1  0  0  0  0
  9 10  1  0  0  0  0
  9 11  1  0  0  0  0
  9 27  1  0  0  0  0
  7  8  1  0  0  0  0
  7  9  1  0  0  0  0
 31 32  1  0  0  0  0
 31 33  1  0  0  0  0
 31 34  1  0  0  0  0
 29 30  1  0  0  0  0
 29 31  1  0  0  0  0
M  CHG  1  23   1
M  END
$$$$
default_name
  -OEChem-01062215323D

 34 33  0     1  0  0  0  0  0999 V2000
   -3.8899   -3.6747    1.6490 H   0  0  0  0  0  0  0  0  0  0  0  0
   -3.9109   -2.6717    1.2250 C   0  0  0  0  0  0  0  0  0  0  0  0
   -4.6009   -2.0517    1.7950 H   0  0  0  0  0  0  0  0  0  0  0  0
   -4.2309   -2.7237    0.1860 H   0  0  0  0  0  0  0  0  0  0  0  0
   -2.5229   -2.0787    1.2980 C   0  0  0  0  0  0  0  0  0  0  0  0
   -1.5999   -2.7227    1.7810 O   0  0  0  0  0  0  0  0  0  0  0  0
   -2.3659   -0.8447    0.8120 N   0  0  0  0  0  0  0  0  0  0  0  0
   -3.1749   -0.3807    0.4220 H   0  0  0  0  0  0  0  0  0  0  0  0
   -1.0919   -0.1077    0.8170 C   0  0  1  0  0  0  0  0  0  0  0  0
   -0.3356   -0.7343    1.2933 H   0  0  0  0  0  0  0  0  0  0  0  0
   -0.6728    0.1554   -0.6416 C   0  0  0  0  0  0  0  0  0  0  0  0
   -1.5074    0.6261   -1.1636 H   0  0  0  0  0  0  0  0  0  0  0  0
    0.1703    0.8491   -0.6531 H   0  0  0  0  0  0  0  0  0  0  0  0
   -0.2869   -1.1227   -1.4018 C   0  0  0  0  0  0  0  0  0  0  0  0
    0.5382   -1.6197   -0.8899 H   0  0  0  0  0  0  0  0  0  0  0  0
   -1.1455   -1.7963   -1.4316 H   0  0  0  0  0  0  0  0  0  0  0  0
    0.1421   -0.7828   -2.8359 C   0  0  0  0  0  0  0  0  0  0  0  0
   -0.6810   -0.2718   -3.3411 H   0  0  0  0  0  0  0  0  0  0  0  0
    1.0064   -0.1166   -2.8006 H   0  0  0  0  0  0  0  0  0  0  0  0
    0.5039   -2.0602   -3.6038 C   0  0  0  0  0  0  0  0  0  0  0  0
    1.3238   -2.5606   -3.0782 H   0  0  0  0  0  0  0  0  0  0  0  0
   -0.3609   -2.7304   -3.5908 H   0  0  0  0  0  0  0  0  0  0  0  0
    0.9002   -1.7622   -5.0033 N   0  3  0  0  0  0  0  0  0  0  0  0
    1.7068   -1.1506   -5.0218 H   0  0  0  0  0  0  0  0  0  0  0  0
    1.1353   -2.6148   -5.4959 H   0  0  0  0  0  0  0  0  0  0  0  0
    0.1413   -1.3067   -5.4968 H   0  0  0  0  0  0  0  0  0  0  0  0
   -1.2285    1.1911    1.6148 C   0  0  0  0  0  0  0  0  0  0  0  0
   -1.2716    2.2638    1.0241 O   0  0  0  0  0  0  0  0  0  0  0  0
   -1.2610    1.0887    2.9476 N   0  0  0  0  0  0  0  0  0  0  0  0
   -1.2524    0.1655    3.3485 H   0  0  0  0  0  0  0  0  0  0  0  0
   -1.3909    2.2306    3.8545 C   0  0  0  0  0  0  0  0  0  0  0  0
   -2.3420    2.7369    3.6760 H   0  0  0  0  0  0  0  0  0  0  0  0
   -1.3555    1.8986    4.8927 H   0  0  0  0  0  0  0  0  0  0  0  0
   -0.5830    2.9436    3.6764 H   0  0  0  0  0  0  0  0  0  0  0  0
  5  6  2  0  0  0  0
  5  7  1  0  0  0  0
  2  3  1  0  0  0  0
  2  4  1  0  0  0  0
  2  5  1  0  0  0  0
  1  2  1  0  0  0  0
 27 28  2  0  0  0  0
 27 29  1  0  0  0  0
 23 24  1  0  0  0  0
 23 25  1  0  0  0  0
 23 26  1  0  0  0  0
 20 21  1  0  0  0  0
 20 22  1  0  0  0  0
 20 23  1  0  0  0  0
 17 18  1  0  0  0  0
 17 19  1  0  0  0  0
 17 20  1  0  0  0  0
 14 15  1  0  0  0  0
 14 16  1  0  0  0  0
 14 17  1  0  0  0  0
 11 12  1  0  0  0  0
 11 13  1  0  0  0  0
 11 14  1  0  0  0  0
  9 10  1  0  0  0  0
  9 11  1  0  0  0  0
  9 27  1  0  0  0  0
  7  8  1  0  0  0  0
  7  9  1  0  0  0  0
 31 32  1  0  0  0  0
 31 33  1  0  0  0  0
 31 34  1  0  0  0  0
 29 30  1  0  0  0  0
 29 31  1  0  0  0  0
M  CHG  1  23   1
M  END
$$$$
default_name
  -OEChem-01062215323D

 34 33  0     1  0  0  0  0  0999 V2000
   -3.8899   -3.6747    1.6490 H   0  0  0  0  0  0  0  0  0  0  0  0
   -3.9109   -2.6717    1.2250 C   0  0  0  0  0  0  0  0  0  0  0  0
   -4.6009   -2.0517    1.7950 H   0  0  0  0  0  0  0  0  0  0  0  0
   -4.2309   -2.7237    0.1860 H   0  0  0  0  0  0  0  0  0  0  0  0
   -2.5229   -2.0787    1.2980 C   0  0  0  0  0  0  0  0  0  0  0  0
   -1.5999   -2.7227    1.7810 O   0  0  0  0  0  0  0  0  0  0  0  0
   -2.3659   -0.8447    0.8120 N   0  0  0  0  0  0  0  0  0  0  0  0
   -3.1749   -0.3807    0.4220 H   0  0  0  0  0  0  0  0  0  0  0  0
   -1.0919   -0.1077    0.8170 C   0  0  1  0  0  0  0  0  0  0  0  0
   -0.3356   -0.7343    1.2933 H   0  0  0  0  0  0  0  0  0  0  0  0
   -0.6728    0.1554   -0.6416 C   0  0  0  0  0  0  0  0  0  0  0  0
   -1.5074    0.6261   -1.1636 H   0  0  0  0  0  0  0  0  0  0  0  0
    0.1703    0.8491   -0.6531 H   0  0  0  0  0  0  0  0  0  0  0  0
   -0.2869   -1.1227   -1.4018 C   0  0  0  0  0  0  0  0  0  0  0  0
    0.5382   -1.6197   -0.8899 H   0  0  0  0  0  0  0  0  0  0  0  0
   -1.1455   -1.7963   -1.4316 H   0  0  0  0  0  0  0  0  0  0  0  0
    0.1421   -0.7828   -2.8359 C   0  0  0  0  0  0  0  0  0  0  0  0
   -0.6810   -0.2718   -3.3411 H   0  0  0  0  0  0  0  0  0  0  0  0
    1.0064   -0.1166   -2.8006 H   0  0  0  0  0  0  0  0  0  0  0  0
    0.5039   -2.0602   -3.6038 C   0  0  0  0  0  0  0  0  0  0  0  0
    1.3238   -2.5606   -3.0782 H   0  0  0  0  0  0  0  0  0  0  0  0
   -0.3609   -2.7304   -3.5908 H   0  0  0  0  0  0  0  0  0  0  0  0
    0.9002   -1.7622   -5.0033 N   0  3  0  0  0  0  0  0  0  0  0  0
    1.7068   -1.1506   -5.0218 H   0  0  0  0  0  0  0  0  0  0  0  0
    1.1353   -2.6148   -5.4959 H   0  0  0  0  0  0  0  0  0  0  0  0
    0.1413   -1.3067   -5.4968 H   0  0  0  0  0  0  0  0  0  0  0  0
   -1.2285    1.1911    1.6148 C   0  0  0  0  0  0  0  0  0  0  0  0
   -1.5465    2.2253    1.0397 O   0  0  0  0  0  0  0  0  0  0  0  0
   -0.9552    1.1362    2.9225 N   0  0  0  0  0  0  0  0  0  0  0  0
   -0.7325    0.2382    3.3190 H   0  0  0  0  0  0  0  0  0  0  0  0
   -1.0400    2.2847    3.8265 C   0  0  0  0  0  0  0  0  0  0  0  0
   -2.0675    2.6534    3.8588 H   0  0  0  0  0  0  0  0  0  0  0  0
   -0.7337    2.0001    4.8338 H   0  0  0  0  0  0  0  0  0  0  0  0
   -0.3962    3.0910    3.4684 H   0  0  0  0  0  0  0  0  0  0  0  0
  5  6  2  0  0  0  0
  5  7  1  0  0  0  0
  2  3  1  0  0  0  0
  2  4  1  0  0  0  0
  2  5  1  0  0  0  0
  1  2  1  0  0  0  0
 27 28  2  0  0  0  0
 27 29  1  0  0  0  0
 23 24  1  0  0  0  0
 23 25  1  0  0  0  0
 23 26  1  0  0  0  0
 20 21  1  0  0  0  0
 20 22  1  0  0  0  0
 20 23  1  0  0  0  0
 17 18  1  0  0  0  0
 17 19  1  0  0  0  0
 17 20  1  0  0  0  0
 14 15  1  0  0  0  0
 14 16  1  0  0  0  0
 14 17  1  0  0  0  0
 11 12  1  0  0  0  0
 11 13  1  0  0  0  0
 11 14  1  0  0  0  0
  9 10  1  0  0  0  0
  9 11  1  0  0  0  0
  9 27  1  0  0  0  0
  7  8  1  0  0  0  0
  7  9  1  0  0  0  0
 31 32  1  0  0  0  0
 31 33  1  0  0  0  0
 31 34  1  0  0  0  0
 29 30  1  0  0  0  0
 29 31  1  0  0  0  0
M  CHG  1  23   1
M  END
$$$$
default_name
  -OEChem-01062215323D

 34 33  0     1  0  0  0  0  0999 V2000
   -3.8899   -3.6747    1.6490 H   0  0  0  0  0  0  0  0  0  0  0  0
   -3.9109   -2.6717    1.2250 C   0  0  0  0  0  0  0  0  0  0  0  0
   -4.6009   -2.0517    1.7950 H   0  0  0  0  0  0  0  0  0  0  0  0
   -4.2309   -2.7237    0.1860 H   0  0  0  0  0  0  0  0  0  0  0  0
   -2.5229   -2.0787    1.2980 C   0  0  0  0  0  0  0  0  0  0  0  0
   -1.5999   -2.7227    1.7810 O   0  0  0  0  0  0  0  0  0  0  0  0
   -2.3659   -0.8447    0.8120 N   0  0  0  0  0  0  0  0  0  0  0  0
   -3.1749   -0.3807    0.4220 H   0  0  0  0  0  0  0  0  0  0  0  0
   -1.0919   -0.1077    0.8170 C   0  0  1  0  0  0  0  0  0  0  0  0
   -0.3356   -0.7343    1.2933 H   0  0  0  0  0  0  0  0  0  0  0  0
   -0.6728    0.1554   -0.6416 C   0  0  0  0  0  0  0  0  0  0  0  0
   -1.5074    0.6261   -1.1636 H   0  0  0  0  0  0  0  0  0  0  0  0
    0.1703    0.8491   -0.6531 H   0  0  0  0  0  0  0  0  0  0  0  0
   -0.2869   -1.1227   -1.4018 C   0  0  0  0  0  0  0  0  0  0  0  0
    0.5382   -1.6197   -0.8899 H   0  0  0  0  0  0  0  0  0  0  0  0
   -1.1455   -1.7963   -1.4316 H   0  0  0  0  0  0  0  0  0  0  0  0
    0.1421   -0.7828   -2.8359 C   0  0  0  0  0  0  0  0  0  0  0  0
   -0.6810   -0.2718   -3.3411 H   0  0  0  0  0  0  0  0  0  0  0  0
    1.0064   -0.1166   -2.8006 H   0  0  0  0  0  0  0  0  0  0  0  0
    0.5039   -2.0602   -3.6038 C   0  0  0  0  0  0  0  0  0  0  0  0
    1.3238   -2.5606   -3.0782 H   0  0  0  0  0  0  0  0  0  0  0  0
   -0.3609   -2.7304   -3.5908 H   0  0  0  0  0  0  0  0  0  0  0  0
    0.9002   -1.7622   -5.0033 N   0  3  0  0  0  0  0  0  0  0  0  0
    1.7068   -1.1506   -5.0218 H   0  0  0  0  0  0  0  0  0  0  0  0
    1.1353   -2.6148   -5.4959 H   0  0  0  0  0  0  0  0  0  0  0  0
    0.1413   -1.3067   -5.4968 H   0  0  0  0  0  0  0  0  0  0  0  0
   -1.2285    1.1911    1.6148 C   0  0  0  0  0  0  0  0  0  0  0  0
   -1.8033    2.1514    1.1161 O   0  0  0  0  0  0  0  0  0  0  0  0
   -0.6717    1.2228    2.8300 N   0  0  0  0  0  0  0  0  0  0  0  0
   -0.2466    0.3780    3.1746 H   0  0  0  0  0  0  0  0  0  0  0  0
   -0.7145    2.3836    3.7212 C   0  0  0  0  0  0  0  0  0  0  0  0
   -1.7509    2.6141    3.9770 H   0  0  0  0  0  0  0  0  0  0  0  0
   -0.1597    2.1807    4.6380 H   0  0  0  0  0  0  0  0  0  0  0  0
   -0.2814    3.2538    3.2231 H   0  0  0  0  0  0  0  0  0  0  0  0
  5  6  2  0  0  0  0
  5  7  1  0  0  0  0
  2  3  1  0  0  0  0
  2  4  1  0  0  0  0
  2  5  1  0  0  0  0
  1  2  1  0  0  0  0
 27 28  2  0  0  0  0
 27 29  1  0  0  0  0
 23 24  1  0  0  0  0
 23 25  1  0  0  0  0
 23 26  1  0  0  0  0
 20 21  1  0  0  0  0
 20 22  1  0  0  0  0
 20 23  1  0  0  0  0
 17 18  1  0  0  0  0
 17 19  1  0  0  0  0
 17 20  1  0  0  0  0
 14 15  1  0  0  0  0
 14 16  1  0  0  0  0
 14 17  1  0  0  0  0
 11 12  1  0  0  0  0
 11 13  1  0  0  0  0
 11 14  1  0  0  0  0
  9 10  1  0  0  0  0
  9 11  1  0  0  0  0
  9 27  1  0  0  0  0
  7  8  1  0  0  0  0
  7  9  1  0  0  0  0
 31 32  1  0  0  0  0
 31 33  1  0  0  0  0
 31 34  1  0  0  0  0
 29 30  1  0  0  0  0
 29 31  1  0  0  0  0
M  CHG  1  23   1
M  END
$$$$
default_name
  -OEChem-01062215323D

 34 33  0     1  0  0  0  0  0999 V2000
   -3.8899   -3.6747    1.6490 H   0  0  0  0  0  0  0  0  0  0  0  0
   -3.9109   -2.6717    1.2250 C   0  0  0  0  0  0  0  0  0  0  0  0
   -4.6009   -2.0517    1.7950 H   0  0  0  0  0  0  0  0  0  0  0  0
   -4.2309   -2.7237    0.1860 H   0  0  0  0  0  0  0  0  0  0  0  0
   -2.5229   -2.0787    1.2980 C   0  0  0  0  0  0  0  0  0  0  0  0
   -1.5999   -2.7227    1.7810 O   0  0  0  0  0  0  0  0  0  0  0  0
   -2.3659   -0.8447    0.8120 N   0  0  0  0  0  0  0  0  0  0  0  0
   -3.1749   -0.3807    0.4220 H   0  0  0  0  0  0  0  0  0  0  0  0
   -1.0919   -0.1077    0.8170 C   0  0  1  0  0  0  0  0  0  0  0  0
   -0.3356   -0.7343    1.2933 H   0  0  0  0  0  0  0  0  0  0  0  0
   -0.6728    0.1554   -0.6416 C   0  0  0  0  0  0  0  0  0  0  0  0
   -1.5074    0.6261   -1.1636 H   0  0  0  0  0  0  0  0  0  0  0  0
    0.1703    0.8491   -0.6531 H   0  0  0  0  0  0  0  0  0  0  0  0
   -0.2869   -1.1227   -1.4018 C   0  0  0  0  0  0  0  0  0  0  0  0
    0.5382   -1.6197   -0.8899 H   0  0  0  0  0  0  0  0  0  0  0  0
   -1.1455   -1.7963   -1.4316 H   0  0  0  0  0  0  0  0  0  0  0  0
    0.1421   -0.7828   -2.8359 C   0  0  0  0  0  0  0  0  0  0  0  0
   -0.6810   -0.2718   -3.3411 H   0  0  0  0  0  0  0  0  0  0  0  0
    1.0064   -0.1166   -2.8006 H   0  0  0  0  0  0  0  0  0  0  0  0
    0.5039   -2.0602   -3.6038 C   0  0  0  0  0  0  0  0  0  0  0  0
    1.3238   -2.5606   -3.0782 H   0  0  0  0  0  0  0  0  0  0  0  0
   -0.3609   -2.7304   -3.5908 H   0  0  0  0  0  0  0  0  0  0  0  0
    0.9002   -1.7622   -5.0033 N   0  3  0  0  0  0  0  0  0  0  0  0
    1.7068   -1.1506   -5.0218 H   0  0  0  0  0  0  0  0  0  0  0  0
    1.1353   -2.6148   -5.4959 H   0  0  0  0  0  0  0  0  0  0  0  0
    0.1413   -1.3067   -5.4968 H   0  0  0  0  0  0  0  0  0  0  0  0
   -1.2285    1.1911    1.6148 C   0  0  0  0  0  0  0  0  0  0  0  0
   -2.0247    2.0471    1.2479 O   0  0  0  0  0  0  0  0  0  0  0  0
   -0.4299    1.3425    2.6765 N   0  0  0  0  0  0  0  0  0  0  0  0
    0.1722    0.5753    2.9252 H   0  0  0  0  0  0  0  0  0  0  0  0
   -0.4365    2.5207    3.5457 C   0  0  0  0  0  0  0  0  0  0  0  0
   -1.4138    2.6215    4.0226 H   0  0  0  0  0  0  0  0  0  0  0  0
    0.3273    2.4281    4.3186 H   0  0  0  0  0  0  0  0  0  0  0  0
   -0.2464    3.4209    2.9571 H   0  0  0  0  0  0  0  0  0  0  0  0
  5  6  2  0  0  0  0
  5  7  1  0  0  0  0
  2  3  1  0  0  0  0
  2  4  1  0  0  0  0
  2  5  1  0  0  0  0
  1  2  1  0  0  0  0
 27 28  2  0  0  0  0
 27 29  1  0  0  0  0
 23 24  1  0  0  0  0
 23 25  1  0  0  0  0
 23 26  1  0  0  0  0
 20 21  1  0  0  0  0
 20 22  1  0  0  0  0
 20 23  1  0  0  0  0
 17 18  1  0  0  0  0
 17 19  1  0  0  0  0
 17 20  1  0  0  0  0
 14 15  1  0  0  0  0
 14 16  1  0  0  0  0
 14 17  1  0  0  0  0
 11 12  1  0  0  0  0
 11 13  1  0  0  0  0
 11 14  1  0  0  0  0
  9 10  1  0  0  0  0
  9 11  1  0  0  0  0
  9 27  1  0  0  0  0
  7  8  1  0  0  0  0
  7  9  1  0  0  0  0
 31 32  1  0  0  0  0
 31 33  1  0  0  0  0
 31 34  1  0  0  0  0
 29 30  1  0  0  0  0
 29 31  1  0  0  0  0
M  CHG  1  23   1
M  END
$$$$
default_name
  -OEChem-01062215323D

 34 33  0     1  0  0  0  0  0999 V2000
   -3.8899   -3.6747    1.6490 H   0  0  0  0  0  0  0  0  0  0  0  0
   -3.9109   -2.6717    1.2250 C   0  0  0  0  0  0  0  0  0  0  0  0
   -4.6009   -2.0517    1.7950 H   0  0  0  0  0  0  0  0  0  0  0  0
   -4.2309   -2.7237    0.1860 H   0  0  0  0  0  0  0  0  0  0  0  0
   -2.5229   -2.0787    1.2980 C   0  0  0  0  0  0  0  0  0  0  0  0
   -1.5999   -2.7227    1.7810 O   0  0  0  0  0  0  0  0  0  0  0  0
   -2.3659   -0.8447    0.8120 N   0  0  0  0  0  0  0  0  0  0  0  0
   -3.1749   -0.3807    0.4220 H   0  0  0  0  0  0  0  0  0  0  0  0
   -1.0919   -0.1077    0.8170 C   0  0  1  0  0  0  0  0  0  0  0  0
   -0.3356   -0.7343    1.2933 H   0  0  0  0  0  0  0  0  0  0  0  0
   -0.6728    0.1554   -0.6416 C   0  0  0  0  0  0  0  0  0  0  0  0
   -1.5074    0.6261   -1.1636 H   0  0  0  0  0  0  0  0  0  0  0  0
    0.1703    0.8491   -0.6531 H   0  0  0  0  0  0  0  0  0  0  0  0
   -0.2869   -1.1227   -1.4018 C   0  0  0  0  0  0  0  0  0  0  0  0
    0.5382   -1.6197   -0.8899 H   0  0  0  0  0  0  0  0  0  0  0  0
   -1.1455   -1.7963   -1.4316 H   0  0  0  0  0  0  0  0  0  0  0  0
    0.1421   -0.7828   -2.8359 C   0  0  0  0  0  0  0  0  0  0  0  0
   -0.6810   -0.2718   -3.3411 H   0  0  0  0  0  0  0  0  0  0  0  0
    1.0064   -0.1166   -2.8006 H   0  0  0  0  0  0  0  0  0  0  0  0
    0.5039   -2.0602   -3.6038 C   0  0  0  0  0  0  0  0  0  0  0  0
    1.3238   -2.5606   -3.0782 H   0  0  0  0  0  0  0  0  0  0  0  0
   -0.3609   -2.7304   -3.5908 H   0  0  0  0  0  0  0  0  0  0  0  0
    0.9002   -1.7622   -5.0033 N   0  3  0  0  0  0  0  0  0  0  0  0
    1.7068   -1.1506   -5.0218 H   0  0  0  0  0  0  0  0  0  0  0  0
    1.1353   -2.6148   -5.4959 H   0  0  0  0  0  0  0  0  0  0  0  0
    0.1413   -1.3067   -5.4968 H   0  0  0  0  0  0  0  0  0  0  0  0
   -1.2285    1.1911    1.6148 C   0  0  0  0  0  0  0  0  0  0  0  0
   -2.1956    1.9196    1.4263 O   0  0  0  0  0  0  0  0  0  0  0  0
   -0.2462    1.4873    2.4722 N   0  0  0  0  0  0  0  0  0  0  0  0
    0.4953    0.8165    2.5877 H   0  0  0  0  0  0  0  0  0  0  0  0
   -0.2251    2.6865    3.3119 C   0  0  0  0  0  0  0  0  0  0  0  0
   -1.0792    2.6752    3.9924 H   0  0  0  0  0  0  0  0  0  0  0  0
    0.6942    2.7254    3.8974 H   0  0  0  0  0  0  0  0  0  0  0  0
   -0.2935    3.5808    2.6887 H   0  0  0  0  0  0  0  0  0  0  0  0
  5  6  2  0  0  0  0
  5  7  1  0  0  0  0
  2  3  1  0  0  0  0
  2  4  1  0  0  0  0
  2  5  1  0  0  0  0
  1  2  1  0  0  0  0
 27 28  2  0  0  0  0
 27 29  1  0  0  0  0
 23 24  1  0  0  0  0
 23 25  1  0  0  0  0
 23 26  1  0  0  0  0
 20 21  1  0  0  0  0
 20 22  1  0  0  0  0
 20 23  1  0  0  0  0
 17 18  1  0  0  0  0
 17 19  1  0  0  0  0
 17 20  1  0  0  0  0
 14 15  1  0  0  0  0
 14 16  1  0  0  0  0
 14 17  1  0  0  0  0
 11 12  1  0  0  0  0
 11 13  1  0  0  0  0
 11 14  1  0  0  0  0
  9 10  1  0  0  0  0
  9 11  1  0  0  0  0
  9 27  1  0  0  0  0
  7  8  1  0  0  0  0
  7  9  1  0  0  0  0
 31 32  1  0  0  0  0
 31 33  1  0  0  0  0
 31 34  1  0  0  0  0
 29 30  1  0  0  0  0
 29 31  1  0  0  0  0
M  CHG  1  23   1
M  END
$$$$
default_name
  -OEChem-01062215323D

 34 33  0     1  0  0  0  0  0999 V2000
   -3.8899   -3.6747    1.6490 H   0  0  0  0  0  0  0  0  0  0  0  0
   -3.9109   -2.6717    1.2250 C   0  0  0  0  0  0  0  0  0  0  0  0
   -4.6009   -2.0517    1.7950 H   0  0  0  0  0  0  0  0  0  0  0  0
   -4.2309   -2.7237    0.1860 H   0  0  0  0  0  0  0  0  0  0  0  0
   -2.5229   -2.0787    1.2980 C   0  0  0  0  0  0  0  0  0  0  0  0
   -1.5999   -2.7227    1.7810 O   0  0  0  0  0  0  0  0  0  0  0  0
   -2.3659   -0.8447    0.8120 N   0  0  0  0  0  0  0  0  0  0  0  0
   -3.1749   -0.3807    0.4220 H   0  0  0  0  0  0  0  0  0  0  0  0
   -1.0919   -0.1077    0.8170 C   0  0  1  0  0  0  0  0  0  0  0  0
   -0.3356   -0.7343    1.2933 H   0  0  0  0  0  0  0  0  0  0  0  0
   -0.6728    0.1554   -0.6416 C   0  0  0  0  0  0  0  0  0  0  0  0
   -1.5074    0.6261   -1.1636 H   0  0  0  0  0  0  0  0  0  0  0  0
    0.1703    0.8491   -0.6531 H   0  0  0  0  0  0  0  0  0  0  0  0
   -0.2869   -1.1227   -1.4018 C   0  0  0  0  0  0  0  0  0  0  0  0
    0.5382   -1.6197   -0.8899 H   0  0  0  0  0  0  0  0  0  0  0  0
   -1.1455   -1.7963   -1.4316 H   0  0  0  0  0  0  0  0  0  0  0  0
    0.1421   -0.7828   -2.8359 C   0  0  0  0  0  0  0  0  0  0  0  0
   -0.6810   -0.2718   -3.3411 H   0  0  0  0  0  0  0  0  0  0  0  0
    1.0064   -0.1166   -2.8006 H   0  0  0  0  0  0  0  0  0  0  0  0
    0.5039   -2.0602   -3.6038 C   0  0  0  0  0  0  0  0  0  0  0  0
    1.3238   -2.5606   -3.0782 H   0  0  0  0  0  0  0  0  0  0  0  0
   -0.3609   -2.7304   -3.5908 H   0  0  0  0  0  0  0  0  0  0  0  0
    0.9002   -1.7622   -5.0033 N   0  3  0  0  0  0  0  0  0  0  0  0
    1.7068   -1.1506   -5.0218 H   0  0  0  0  0  0  0  0  0  0  0  0
    1.1353   -2.6148   -5.4959 H   0  0  0  0  0  0  0  0  0  0  0  0
    0.1413   -1.3067   -5.4968 H   0  0  0  0  0  0  0  0  0  0  0  0
   -1.2285    1.1911    1.6148 C   0  0  0  0  0  0  0  0  0  0  0  0
   -2.3042    1.7775    1.6391 O   0  0  0  0  0  0  0  0  0  0  0  0
   -0.1332    1.6472    2.2313 N   0  0  0  0  0  0  0  0  0  0  0  0
    0.7007    1.0854    2.1853 H   0  0  0  0  0  0  0  0  0  0  0  0
   -0.0945    2.8698    3.0358 C   0  0  0  0  0  0  0  0  0  0  0  0
   -0.7699    2.7716    3.8885 H   0  0  0  0  0  0  0  0  0  0  0  0
    0.9160    3.0524    3.4031 H   0  0  0  0  0  0  0  0  0  0  0  0
   -0.4196    3.7228    2.4360 H   0  0  0  0  0  0  0  0  0  0  0  0
  5  6  2  0  0  0  0
  5  7  1  0  0  0  0
  2  3  1  0  0  0  0
  2  4  1  0  0  0  0
  2  5  1  0  0  0  0
  1  2  1  0  0  0  0
 27 28  2  0  0  0  0
 27 29  1  0  0  0  0
 23 24  1  0  0  0  0
 23 25  1  0  0  0  0
 23 26  1  0  0  0  0
 20 21  1  0  0  0  0
 20 22  1  0  0  0  0
 20 23  1  0  0  0  0
 17 18  1  0  0  0  0
 17 19  1  0  0  0  0
 17 20  1  0  0  0  0
 14 15  1  0  0  0  0
 14 16  1  0  0  0  0
 14 17  1  0  0  0  0
 11 12  1  0  0  0  0
 11 13  1  0  0  0  0
 11 14  1  0  0  0  0
  9 10  1  0  0  0  0
  9 11  1  0  0  0  0
  9 27  1  0  0  0  0
  7  8  1  0  0  0  0
  7  9  1  0  0  0  0
 31 32  1  0  0  0  0
 31 33  1  0  0  0  0
 31 34  1  0  0  0  0
 29 30  1  0  0  0  0
 29 31  1  0  0  0  0
M  CHG  1  23   1
M  END
$$$$
default_name
  -OEChem-01062215323D

 34 33  0     1  0  0  0  0  0999 V2000
   -3.8899   -3.6747    1.6490 H   0  0  0  0  0  0  0  0  0  0  0  0
   -3.9109   -2.6717    1.2250 C   0  0  0  0  0  0  0  0  0  0  0  0
   -4.6009   -2.0517    1.7950 H   0  0  0  0  0  0  0  0  0  0  0  0
   -4.2309   -2.7237    0.1860 H   0  0  0  0  0  0  0  0  0  0  0  0
   -2.5229   -2.0787    1.2980 C   0  0  0  0  0  0  0  0  0  0  0  0
   -1.5999   -2.7227    1.7810 O   0  0  0  0  0  0  0  0  0  0  0  0
   -2.3659   -0.8447    0.8120 N   0  0  0  0  0  0  0  0  0  0  0  0
   -3.1749   -0.3807    0.4220 H   0  0  0  0  0  0  0  0  0  0  0  0
   -1.0919   -0.1077    0.8170 C   0  0  1  0  0  0  0  0  0  0  0  0
   -0.3356   -0.7343    1.2933 H   0  0  0  0  0  0  0  0  0  0  0  0
   -0.6728    0.1554   -0.6416 C   0  0  0  0  0  0  0  0  0  0  0  0
   -1.5074    0.6261   -1.1636 H   0  0  0  0  0  0  0  0  0  0  0  0
    0.1703    0.8491   -0.6531 H   0  0  0  0  0  0  0  0  0  0  0  0
   -0.2869   -1.1227   -1.4018 C   0  0  0  0  0  0  0  0  0  0  0  0
    0.5382   -1.6197   -0.8899 H   0  0  0  0  0  0  0  0  0  0  0  0
   -1.1455   -1.7963   -1.4316 H   0  0  0  0  0  0  0  0  0  0  0  0
    0.1421   -0.7828   -2.8359 C   0  0  0  0  0  0  0  0  0  0  0  0
   -0.6810   -0.2718   -3.3411 H   0  0  0  0  0  0  0  0  0  0  0  0
    1.0064   -0.1166   -2.8006 H   0  0  0  0  0  0  0  0  0  0  0  0
    0.5039   -2.0602   -3.6038 C   0  0  0  0  0  0  0  0  0  0  0  0
    1.3238   -2.5606   -3.0782 H   0  0  0  0  0  0  0  0  0  0  0  0
   -0.3609   -2.7304   -3.5908 H   0  0  0  0  0  0  0  0  0  0  0  0
    0.9002   -1.7622   -5.0033 N   0  3  0  0  0  0  0  0  0  0  0  0
    1.7068   -1.1506   -5.0218 H   0  0  0  0  0  0  0  0  0  0  0  0
    1.1353   -2.6148   -5.4959 H   0  0  0  0  0  0  0  0  0  0  0  0
    0.1413   -1.3067   -5.4968 H   0  0  0  0  0  0  0  0  0  0  0  0
   -1.2285    1.1911    1.6148 C   0  0  0  0  0  0  0  0  0  0  0  0
   -2.3431    1.6304    1.8718 O   0  0  0  0  0  0  0  0  0  0  0  0
   -0.0985    1.8114    1.9700 N   0  0  0  0  0  0  0  0  0  0  0  0
    0.7744    1.3635    1.7452 H   0  0  0  0  0  0  0  0  0  0  0  0
   -0.0539    3.0581    2.7363 C   0  0  0  0  0  0  0  0  0  0  0  0
   -0.5069    2.9040    3.7179 H   0  0  0  0  0  0  0  0  0  0  0  0
    0.9775    3.3867    2.8694 H   0  0  0  0  0  0  0  0  0  0  0  0
   -0.6160    3.8370    2.2164 H   0  0  0  0  0  0  0  0  0  0  0  0
  5  6  2  0  0  0  0
  5  7  1  0  0  0  0
  2  3  1  0  0  0  0
  2  4  1  0  0  0  0
  2  5  1  0  0  0  0
  1  2  1  0  0  0  0
 27 28  2  0  0  0  0
 27 29  1  0  0  0  0
 23 24  1  0  0  0  0
 23 25  1  0  0  0  0
 23 26  1  0  0  0  0
 20 21  1  0  0  0  0
 20 22  1  0  0  0  0
 20 23  1  0  0  0  0
 17 18  1  0  0  0  0
 17 19  1  0  0  0  0
 17 20  1  0  0  0  0
 14 15  1  0  0  0  0
 14 16  1  0  0  0  0
 14 17  1  0  0  0  0
 11 12  1  0  0  0  0
 11 13  1  0  0  0  0
 11 14  1  0  0  0  0
  9 10  1  0  0  0  0
  9 11  1  0  0  0  0
  9 27  1  0  0  0  0
  7  8  1  0  0  0  0
  7  9  1  0  0  0  0
 31 32  1  0  0  0  0
 31 33  1  0  0  0  0
 31 34  1  0  0  0  0
 29 30  1  0  0  0  0
 29 31  1  0  0  0  0
M  CHG  1  23   1
M  END
$$$$
default_name
  -OEChem-01062215323D

 34 33  0     1  0  0  0  0  0999 V2000
   -3.8899   -3.6747    1.6490 H   0  0  0  0  0  0  0  0  0  0  0  0
   -3.9109   -2.6717    1.2250 C   0  0  0  0  0  0  0  0  0  0  0  0
   -4.6009   -2.0517    1.7950 H   0  0  0  0  0  0  0  0  0  0  0  0
   -4.2309   -2.7237    0.1860 H   0  0  0  0  0  0  0  0  0  0  0  0
   -2.5229   -2.0787    1.2980 C   0  0  0  0  0  0  0  0  0  0  0  0
   -1.5999   -2.7227    1.7810 O   0  0  0  0  0  0  0  0  0  0  0  0
   -2.3659   -0.8447    0.8120 N   0  0  0  0  0  0  0  0  0  0  0  0
   -3.1749   -0.3807    0.4220 H   0  0  0  0  0  0  0  0  0  0  0  0
   -1.0919   -0.1077    0.8170 C   0  0  1  0  0  0  0  0  0  0  0  0
   -0.2890   -0.8132    1.0387 H   0  0  0  0  0  0  0  0  0  0  0  0
   -0.8619    0.4820   -0.5872 C   0  0  0  0  0  0  0  0  0  0  0  0
   -1.7505    1.0445   -0.8778 H   0  0  0  0  0  0  0  0  0  0  0  0
   -0.0179    1.1736   -0.5520 H   0  0  0  0  0  0  0  0  0  0  0  0
   -0.5956   -0.5872   -1.6579 C   0  0  0  0  0  0  0  0  0  0  0  0
    0.2819   -1.1733   -1.3816 H   0  0  0  0  0  0  0  0  0  0  0  0
   -1.4601   -1.2504   -1.7264 H   0  0  0  0  0  0  0  0  0  0  0  0
   -0.3516    0.0719   -3.0225 C   0  0  0  0  0  0  0  0  0  0  0  0
   -1.2261    0.6701   -3.2894 H   0  0  0  0  0  0  0  0  0  0  0  0
    0.5192    0.7267   -2.9510 H   0  0  0  0  0  0  0  0  0  0  0  0
   -0.1102   -0.9953   -4.0973 C   0  0  0  0  0  0  0  0  0  0  0  0
    0.7639   -1.5877   -3.8080 H   0  0  0  0  0  0  0  0  0  0  0  0
   -0.9753   -1.6648   -4.1230 H   0  0  0  0  0  0  0  0  0  0  0  0
    0.1053   -0.3852   -5.4337 N   0  3  0  0  0  0  0  0  0  0  0  0
    0.9111    0.2275   -5.4190 H   0  0  0  0  0  0  0  0  0  0  0  0
    0.2627   -1.1020   -6.1311 H   0  0  0  0  0  0  0  0  0  0  0  0
   -0.7047    0.1573   -5.7101 H   0  0  0  0  0  0  0  0  0  0  0  0
   -1.1058    0.9771    1.8964 C   0  0  0  0  0  0  0  0  0  0  0  0
   -2.1097    1.1394    2.5799 O   0  0  0  0  0  0  0  0  0  0  0  0
   -0.0085    1.7312    2.0185 N   0  0  0  0  0  0  0  0  0  0  0  0
    0.7825    1.5081    1.4374 H   0  0  0  0  0  0  0  0  0  0  0  0
    0.1420    2.8065    3.0007 C   0  0  0  0  0  0  0  0  0  0  0  0
    0.0761    2.3955    4.0104 H   0  0  0  0  0  0  0  0  0  0  0  0
    1.1073    3.2996    2.8809 H   0  0  0  0  0  0  0  0  0  0  0  0
   -0.6561    3.5416    2.8758 H   0  0  0  0  0  0  0  0  0  0  0  0
  5  6  2  0  0  0  0
  5  7  1  0  0  0  0
  2  3  1  0  0  0  0
  2  4  1  0  0  0  0
  2  5  1  0  0  0  0
  1  2  1  0  0  0  0
 27 28  2  0  0  0  0
 27 29  1  0  0  0  0
 23 24  1  0  0  0  0
 23 25  1  0  0  0  0
 23 26  1  0  0  0  0
 20 21  1  0  0  0  0
 20 22  1  0  0  0  0
 20 23  1  0  0  0  0
 17 18  1  0  0  0  0
 17 19  1  0  0  0  0
 17 20  1  0  0  0  0
 14 15  1  0  0  0  0
 14 16  1  0  0  0  0
 14 17  1  0  0  0  0
 11 12  1  0  0  0  0
 11 13  1  0  0  0  0
 11 14  1  0  0  0  0
  9 10  1  0  0  0  0
  9 11  1  0  0  0  0
  9 27  1  0  0  0  0
  7  8  1  0  0  0  0
  7  9  1  0  0  0  0
 31 32  1  0  0  0  0
 31 33  1  0  0  0  0
 31 34  1  0  0  0  0
 29 30  1  0  0  0  0
 29 31  1  0  0  0  0
M  CHG  1  23   1
M  END
$$$$
default_name
  -OEChem-01062215323D

 34 33  0     1  0  0  0  0  0999 V2000
   -3.8899   -3.6747    1.6490 H   0  0  0  0  0  0  0  0  0  0  0  0
   -3.9109   -2.6717    1.2250 C   0  0  0  0  0  0  0  0  0  0  0  0
   -4.6009   -2.0517    1.7950 H   0  0  0  0  0  0  0  0  0  0  0  0
   -4.2309   -2.7237    0.1860 H   0  0  0  0  0  0  0  0  0  0  0  0
   -2.5229   -2.0787    1.2980 C   0  0  0  0  0  0  0  0  0  0  0  0
   -1.5999   -2.7227    1.7810 O   0  0  0  0  0  0  0  0  0  0  0  0
   -2.3659   -0.8447    0.8120 N   0  0  0  0  0  0  0  0  0  0  0  0
   -3.1749   -0.3807    0.4220 H   0  0  0  0  0  0  0  0  0  0  0  0
   -1.0919   -0.1077    0.8170 C   0  0  1  0  0  0  0  0  0  0  0  0
   -0.2890   -0.8132    1.0387 H   0  0  0  0  0  0  0  0  0  0  0  0
   -0.8619    0.4820   -0.5872 C   0  0  0  0  0  0  0  0  0  0  0  0
   -1.7505    1.0445   -0.8778 H   0  0  0  0  0  0  0  0  0  0  0  0
   -0.0179    1.1736   -0.5520 H   0  0  0  0  0  0  0  0  0  0  0  0
   -0.5956   -0.5872   -1.6579 C   0  0  0  0  0  0  0  0  0  0  0  0
    0.2819   -1.1733   -1.3816 H   0  0  0  0  0  0  0  0  0  0  0  0
   -1.4601   -1.2504   -1.7264 H   0  0  0  0  0  0  0  0  0  0  0  0
   -0.3516    0.0719   -3.0225 C   0  0  0  0  0  0  0  0  0  0  0  0
   -1.2261    0.6701   -3.2894 H   0  0  0  0  0  0  0  0  0  0  0  0
    0.5192    0.7267   -2.9510 H   0  0  0  0  0  0  0  0  0  0  0  0
   -0.1102   -0.9953   -4.0973 C   0  0  0  0  0  0  0  0  0  0  0  0
    0.7639   -1.5877   -3.8080 H   0  0  0  0  0  0  0  0  0  0  0  0
   -0.9753   -1.6648   -4.1230 H   0  0  0  0  0  0  0  0  0  0  0  0
    0.1053   -0.3852   -5.4337 N   0  3  0  0  0  0  0  0  0  0  0  0
    0.9111    0.2275   -5.4190 H   0  0  0  0  0  0  0  0  0  0  0  0
    0.2627   -1.1020   -6.1311 H   0  0  0  0  0  0  0  0  0  0  0  0
   -0.7047    0.1573   -5.7101 H   0  0  0  0  0  0  0  0  0  0  0  0
   -1.1058    0.9771    1.8964 C   0  0  0  0  0  0  0  0  0  0  0  0
   -1.9799    0.9669    2.7550 O   0  0  0  0  0  0  0  0  0  0  0  0
   -0.1613    1.9208    1.8260 N   0  0  0  0  0  0  0  0  0  0  0  0
    0.5370    1.8345    1.1062 H   0  0  0  0  0  0  0  0  0  0  0  0
   -0.0325    3.0244    2.7795 C   0  0  0  0  0  0  0  0  0  0  0  0
    0.1640    2.6279    3.7779 H   0  0  0  0  0  0  0  0  0  0  0  0
    0.7879    3.6828    2.4917 H   0  0  0  0  0  0  0  0  0  0  0  0
   -0.9607    3.5991    2.8141 H   0  0  0  0  0  0  0  0  0  0  0  0
  5  6  2  0  0  0  0
  5  7  1  0  0  0  0
  2  3  1  0  0  0  0
  2  4  1  0  0  0  0
  2  5  1  0  0  0  0
  1  2  1  0  0  0  0
 27 28  2  0  0  0  0
 27 29  1  0  0  0  0
 23 24  1  0  0  0  0
 23 25  1  0  0  0  0
 23 26  1  0  0  0  0
 20 21  1  0  0  0  0
 20 22  1  0  0  0  0
 20 23  1  0  0  0  0
 17 18  1  0  0  0  0
 17 19  1  0  0  0  0
 17 20  1  0  0  0  0
 14 15  1  0  0  0  0
 14 16  1  0  0  0  0
 14 17  1  0  0  0  0
 11 12  1  0  0  0  0
 11 13  1  0  0  0  0
 11 14  1  0  0  0  0
  9 10  1  0  0  0  0
  9 11  1  0  0  0  0
  9 27  1  0  0  0  0
  7  8  1  0  0  0  0
  7  9  1  0  0  0  0
 31 32  1  0  0  0  0
 31 33  1  0  0  0  0
 31 34  1  0  0  0  0
 29 30  1  0  0  0  0
 29 31  1  0  0  0  0
M  CHG  1  23   1
M  END
$$$$
default_name
  -OEChem-01062215323D

 34 33  0     1  0  0  0  0  0999 V2000
   -3.8899   -3.6747    1.6490 H   0  0  0  0  0  0  0  0  0  0  0  0
   -3.9109   -2.6717    1.2250 C   0  0  0  0  0  0  0  0  0  0  0  0
   -4.6009   -2.0517    1.7950 H   0  0  0  0  0  0  0  0  0  0  0  0
   -4.2309   -2.7237    0.1860 H   0  0  0  0  0  0  0  0  0  0  0  0
   -2.5229   -2.0787    1.2980 C   0  0  0  0  0  0  0  0  0  0  0  0
   -1.5999   -2.7227    1.7810 O   0  0  0  0  0  0  0  0  0  0  0  0
   -2.3659   -0.8447    0.8120 N   0  0  0  0  0  0  0  0  0  0  0  0
   -3.1749   -0.3807    0.4220 H   0  0  0  0  0  0  0  0  0  0  0  0
   -1.0919   -0.1077    0.8170 C   0  0  1  0  0  0  0  0  0  0  0  0
   -0.2890   -0.8132    1.0387 H   0  0  0  0  0  0  0  0  0  0  0  0
   -0.8619    0.4820   -0.5872 C   0  0  0  0  0  0  0  0  0  0  0  0
   -1.7505    1.0445   -0.8778 H   0  0  0  0  0  0  0  0  0  0  0  0
   -0.0179    1.1736   -0.5520 H   0  0  0  0  0  0  0  0  0  0  0  0
   -0.5956   -0.5872   -1.6579 C   0  0  0  0  0  0  0  0  0  0  0  0
    0.2819   -1.1733   -1.3816 H   0  0  0  0  0  0  0  0  0  0  0  0
   -1.4601   -1.2504   -1.7264 H   0  0  0  0  0  0  0  0  0  0  0  0
   -0.3516    0.0719   -3.0225 C   0  0  0  0  0  0  0  0  0  0  0  0
   -1.2261    0.6701   -3.2894 H   0  0  0  0  0  0  0  0  0  0  0  0
    0.5192    0.7267   -2.9510 H   0  0  0  0  0  0  0  0  0  0  0  0
   -0.1102   -0.9953   -4.0973 C   0  0  0  0  0  0  0  0  0  0  0  0
    0.7639   -1.5877   -3.8080 H   0  0  0  0  0  0  0  0  0  0  0  0
   -0.9753   -1.6648   -4.1230 H   0  0  0  0  0  0  0  0  0  0  0  0
    0.1053   -0.3852   -5.4337 N   0  3  0  0  0  0  0  0  0  0  0  0
    0.9111    0.2275   -5.4190 H   0  0  0  0  0  0  0  0  0  0  0  0
    0.2627   -1.1020   -6.1311 H   0  0  0  0  0  0  0  0  0  0  0  0
   -0.7047    0.1573   -5.7101 H   0  0  0  0  0  0  0  0  0  0  0  0
   -1.1058    0.9771    1.8964 C   0  0  0  0  0  0  0  0  0  0  0  0
   -1.7909    0.8243    2.9007 O   0  0  0  0  0  0  0  0  0  0  0  0
   -0.3789    2.0757    1.6676 N   0  0  0  0  0  0  0  0  0  0  0  0
    0.1795    2.1041    0.8306 H   0  0  0  0  0  0  0  0  0  0  0  0
   -0.2815    3.2025    2.5973 C   0  0  0  0  0  0  0  0  0  0  0  0
    0.1638    2.8679    3.5367 H   0  0  0  0  0  0  0  0  0  0  0  0
    0.3379    3.9937    2.1734 H   0  0  0  0  0  0  0  0  0  0  0  0
   -1.2767    3.5989    2.8103 H   0  0  0  0  0  0  0  0  0  0  0  0
  5  6  2  0  0  0  0
  5  7  1  0  0  0  0
  2  3  1  0  0  0  0
  2  4  1  0  0  0  0
  2  5  1  0  0  0  0
  1  2  1  0  0  0  0
 27 28  2  0  0  0  0
 27 29  1  0  0  0  0
 23 24  1  0  0  0  0
 23 25  1  0  0  0  0
 23 26  1  0  0  0  0
 20 21  1  0  0  0  0
 20 22  1  0  0  0  0
 20 23  1  0  0  0  0
 17 18  1  0  0  0  0
 17 19  1  0  0  0  0
 17 20  1  0  0  0  0
 14 15  1  0  0  0  0
 14 16  1  0  0  0  0
 14 17  1  0  0  0  0
 11 12  1  0  0  0  0
 11 13  1  0  0  0  0
 11 14  1  0  0  0  0
  9 10  1  0  0  0  0
  9 11  1  0  0  0  0
  9 27  1  0  0  0  0
  7  8  1  0  0  0  0
  7  9  1  0  0  0  0
 31 32  1  0  0  0  0
 31 33  1  0  0  0  0
 31 34  1  0  0  0  0
 29 30  1  0  0  0  0
 29 31  1  0  0  0  0
M  CHG  1  23   1
M  END
$$$$
default_name
  -OEChem-01062215323D

 34 33  0     1  0  0  0  0  0999 V2000
   -3.8899   -3.6747    1.6490 H   0  0  0  0  0  0  0  0  0  0  0  0
   -3.9109   -2.6717    1.2250 C   0  0  0  0  0  0  0  0  0  0  0  0
   -4.6009   -2.0517    1.7950 H   0  0  0  0  0  0  0  0  0  0  0  0
   -4.2309   -2.7237    0.1860 H   0  0  0  0  0  0  0  0  0  0  0  0
   -2.5229   -2.0787    1.2980 C   0  0  0  0  0  0  0  0  0  0  0  0
   -1.5999   -2.7227    1.7810 O   0  0  0  0  0  0  0  0  0  0  0  0
   -2.3659   -0.8447    0.8120 N   0  0  0  0  0  0  0  0  0  0  0  0
   -3.1749   -0.3807    0.4220 H   0  0  0  0  0  0  0  0  0  0  0  0
   -1.0919   -0.1077    0.8170 C   0  0  1  0  0  0  0  0  0  0  0  0
   -0.2890   -0.8132    1.0387 H   0  0  0  0  0  0  0  0  0  0  0  0
   -0.8619    0.4820   -0.5872 C   0  0  0  0  0  0  0  0  0  0  0  0
   -1.7505    1.0445   -0.8778 H   0  0  0  0  0  0  0  0  0  0  0  0
   -0.0179    1.1736   -0.5520 H   0  0  0  0  0  0  0  0  0  0  0  0
   -0.5956   -0.5872   -1.6579 C   0  0  0  0  0  0  0  0  0  0  0  0
    0.2819   -1.1733   -1.3816 H   0  0  0  0  0  0  0  0  0  0  0  0
   -1.4601   -1.2504   -1.7264 H   0  0  0  0  0  0  0  0  0  0  0  0
   -0.3516    0.0719   -3.0225 C   0  0  0  0  0  0  0  0  0  0  0  0
   -1.2261    0.6701   -3.2894 H   0  0  0  0  0  0  0  0  0  0  0  0
    0.5192    0.7267   -2.9510 H   0  0  0  0  0  0  0  0  0  0  0  0
   -0.1102   -0.9953   -4.0973 C   0  0  0  0  0  0  0  0  0  0  0  0
    0.7639   -1.5877   -3.8080 H   0  0  0  0  0  0  0  0  0  0  0  0
   -0.9753   -1.6648   -4.1230 H   0  0  0  0  0  0  0  0  0  0  0  0
    0.1053   -0.3852   -5.4337 N   0  3  0  0  0  0  0  0  0  0  0  0
    0.9111    0.2275   -5.4190 H   0  0  0  0  0  0  0  0  0  0  0  0
    0.2627   -1.1020   -6.1311 H   0  0  0  0  0  0  0  0  0  0  0  0
   -0.7047    0.1573   -5.7101 H   0  0  0  0  0  0  0  0  0  0  0  0
   -1.1058    0.9771    1.8964 C   0  0  0  0  0  0  0  0  0  0  0  0
   -1.5556    0.7214    3.0071 O   0  0  0  0  0  0  0  0  0  0  0  0
   -0.6463    2.1852    1.5541 N   0  0  0  0  0  0  0  0  0  0  0  0
   -0.2656    2.2987    0.6293 H   0  0  0  0  0  0  0  0  0  0  0  0
   -0.5878    3.3286    2.4666 C   0  0  0  0  0  0  0  0  0  0  0  0
    0.0755    3.0991    3.3032 H   0  0  0  0  0  0  0  0  0  0  0  0
   -0.2118    4.2112    1.9478 H   0  0  0  0  0  0  0  0  0  0  0  0
   -1.5825    3.5409    2.8645 H   0  0  0  0  0  0  0  0  0  0  0  0
  5  6  2  0  0  0  0
  5  7  1  0  0  0  0
  2  3  1  0  0  0  0
  2  4  1  0  0  0  0
  2  5  1  0  0  0  0
  1  2  1  0  0  0  0
 27 28  2  0  0  0  0
 27 29  1  0  0  0  0
 23 24  1  0  0  0  0
 23 25  1  0  0  0  0
 23 26  1  0  0  0  0
 20 21  1  0  0  0  0
 20 22  1  0  0  0  0
 20 23  1  0  0  0  0
 17 18  1  0  0  0  0
 17 19  1  0  0  0  0
 17 20  1  0  0  0  0
 14 15  1  0  0  0  0
 14 16  1  0  0  0  0
 14 17  1  0  0  0  0
 11 12  1  0  0  0  0
 11 13  1  0  0  0  0
 11 14  1  0  0  0  0
  9 10  1  0  0  0  0
  9 11  1  0  0  0  0
  9 27  1  0  0  0  0
  7  8  1  0  0  0  0
  7  9  1  0  0  0  0
 31 32  1  0  0  0  0
 31 33  1  0  0  0  0
 31 34  1  0  0  0  0
 29 30  1  0  0  0  0
 29 31  1  0  0  0  0
M  CHG  1  23   1
M  END
$$$$
default_name
  -OEChem-01062215323D

 34 33  0     1  0  0  0  0  0999 V2000
   -3.8899   -3.6747    1.6490 H   0  0  0  0  0  0  0  0  0  0  0  0
   -3.9109   -2.6717    1.2250 C   0  0  0  0  0  0  0  0  0  0  0  0
   -4.6009   -2.0517    1.7950 H   0  0  0  0  0  0  0  0  0  0  0  0
   -4.2309   -2.7237    0.1860 H   0  0  0  0  0  0  0  0  0  0  0  0
   -2.5229   -2.0787    1.2980 C   0  0  0  0  0  0  0  0  0  0  0  0
   -1.5999   -2.7227    1.7810 O   0  0  0  0  0  0  0  0  0  0  0  0
   -2.3659   -0.8447    0.8120 N   0  0  0  0  0  0  0  0  0  0  0  0
   -3.1749   -0.3807    0.4220 H   0  0  0  0  0  0  0  0  0  0  0  0
   -1.0919   -0.1077    0.8170 C   0  0  1  0  0  0  0  0  0  0  0  0
   -0.2890   -0.8132    1.0387 H   0  0  0  0  0  0  0  0  0  0  0  0
   -0.8619    0.4820   -0.5872 C   0  0  0  0  0  0  0  0  0  0  0  0
   -1.7505    1.0445   -0.8778 H   0  0  0  0  0  0  0  0  0  0  0  0
   -0.0179    1.1736   -0.5520 H   0  0  0  0  0  0  0  0  0  0  0  0
   -0.5956   -0.5872   -1.6579 C   0  0  0  0  0  0  0  0  0  0  0  0
    0.2819   -1.1733   -1.3816 H   0  0  0  0  0  0  0  0  0  0  0  0
   -1.4601   -1.2504   -1.7264 H   0  0  0  0  0  0  0  0  0  0  0  0
   -0.3516    0.0719   -3.0225 C   0  0  0  0  0  0  0  0  0  0  0  0
   -1.2261    0.6701   -3.2894 H   0  0  0  0  0  0  0  0  0  0  0  0
    0.5192    0.7267   -2.9510 H   0  0  0  0  0  0  0  0  0  0  0  0
   -0.1102   -0.9953   -4.0973 C   0  0  0  0  0  0  0  0  0  0  0  0
    0.7639   -1.5877   -3.8080 H   0  0  0  0  0  0  0  0  0  0  0  0
   -0.9753   -1.6648   -4.1230 H   0  0  0  0  0  0  0  0  0  0  0  0
    0.1053   -0.3852   -5.4337 N   0  3  0  0  0  0  0  0  0  0  0  0
    0.9111    0.2275   -5.4190 H   0  0  0  0  0  0  0  0  0  0  0  0
    0.2627   -1.1020   -6.1311 H   0  0  0  0  0  0  0  0  0  0  0  0
   -0.7047    0.1573   -5.7101 H   0  0  0  0  0  0  0  0  0  0  0  0
   -1.1058    0.9771    1.8964 C   0  0  0  0  0  0  0  0  0  0  0  0
   -1.2900    0.6652    3.0670 O   0  0  0  0  0  0  0  0  0  0  0  0
   -0.9455    2.2418    1.4934 N   0  0  0  0  0  0  0  0  0  0  0  0
   -0.7679    2.4050    0.5161 H   0  0  0  0  0  0  0  0  0  0  0  0
   -0.9308    3.3942    2.3963 C   0  0  0  0  0  0  0  0  0  0  0  0
   -0.0947    3.3058    3.0934 H   0  0  0  0  0  0  0  0  0  0  0  0
   -0.8240    4.3203    1.8303 H   0  0  0  0  0  0  0  0  0  0  0  0
   -1.8575    3.4293    2.9732 H   0  0  0  0  0  0  0  0  0  0  0  0
  5  6  2  0  0  0  0
  5  7  1  0  0  0  0
  2  3  1  0  0  0  0
  2  4  1  0  0  0  0
  2  5  1  0  0  0  0
  1  2  1  0  0  0  0
 27 28  2  0  0  0  0
 27 29  1  0  0  0  0
 23 24  1  0  0  0  0
 23 25  1  0  0  0  0
 23 26  1  0  0  0  0
 20 21  1  0  0  0  0
 20 22  1  0  0  0  0
 20 23  1  0  0  0  0
 17 18  1  0  0  0  0
 17 19  1  0  0  0  0
 17 20  1  0  0  0  0
 14 15  1  0  0  0  0
 14 16  1  0  0  0  0
 14 17  1  0  0  0  0
 11 12  1  0  0  0  0
 11 13  1  0  0  0  0
 11 14  1  0  0  0  0
  9 10  1  0  0  0  0
  9 11  1  0  0  0  0
  9 27  1  0  0  0  0
  7  8  1  0  0  0  0
  7  9  1  0  0  0  0
 31 32  1  0  0  0  0
 31 33  1  0  0  0  0
 31 34  1  0  0  0  0
 29 30  1  0  0  0  0
 29 31  1  0  0  0  0
M  CHG  1  23   1
M  END
$$$$
default_name
  -OEChem-01062215323D

 34 33  0     1  0  0  0  0  0999 V2000
   -3.8899   -3.6747    1.6490 H   0  0  0  0  0  0  0  0  0  0  0  0
   -3.9109   -2.6717    1.2250 C   0  0  0  0  0  0  0  0  0  0  0  0
   -4.6009   -2.0517    1.7950 H   0  0  0  0  0  0  0  0  0  0  0  0
   -4.2309   -2.7237    0.1860 H   0  0  0  0  0  0  0  0  0  0  0  0
   -2.5229   -2.0787    1.2980 C   0  0  0  0  0  0  0  0  0  0  0  0
   -1.5999   -2.7227    1.7810 O   0  0  0  0  0  0  0  0  0  0  0  0
   -2.3659   -0.8447    0.8120 N   0  0  0  0  0  0  0  0  0  0  0  0
   -3.1749   -0.3807    0.4220 H   0  0  0  0  0  0  0  0  0  0  0  0
   -1.0919   -0.1077    0.8170 C   0  0  1  0  0  0  0  0  0  0  0  0
   -0.2890   -0.8132    1.0387 H   0  0  0  0  0  0  0  0  0  0  0  0
   -0.8619    0.4820   -0.5872 C   0  0  0  0  0  0  0  0  0  0  0  0
   -1.7505    1.0445   -0.8778 H   0  0  0  0  0  0  0  0  0  0  0  0
   -0.0179    1.1736   -0.5520 H   0  0  0  0  0  0  0  0  0  0  0  0
   -0.5956   -0.5872   -1.6579 C   0  0  0  0  0  0  0  0  0  0  0  0
    0.2819   -1.1733   -1.3816 H   0  0  0  0  0  0  0  0  0  0  0  0
   -1.4601   -1.2504   -1.7264 H   0  0  0  0  0  0  0  0  0  0  0  0
   -0.3516    0.0719   -3.0225 C   0  0  0  0  0  0  0  0  0  0  0  0
   -1.2261    0.6701   -3.2894 H   0  0  0  0  0  0  0  0  0  0  0  0
    0.5192    0.7267   -2.9510 H   0  0  0  0  0  0  0  0  0  0  0  0
   -0.1102   -0.9953   -4.0973 C   0  0  0  0  0  0  0  0  0  0  0  0
    0.7639   -1.5877   -3.8080 H   0  0  0  0  0  0  0  0  0  0  0  0
   -0.9753   -1.6648   -4.1230 H   0  0  0  0  0  0  0  0  0  0  0  0
    0.1053   -0.3852   -5.4337 N   0  3  0  0  0  0  0  0  0  0  0  0
    0.9111    0.2275   -5.4190 H   0  0  0  0  0  0  0  0  0  0  0  0
    0.2627   -1.1020   -6.1311 H   0  0  0  0  0  0  0  0  0  0  0  0
   -0.7047    0.1573   -5.7101 H   0  0  0  0  0  0  0  0  0  0  0  0
   -1.1058    0.9771    1.8964 C   0  0  0  0  0  0  0  0  0  0  0  0
   -1.0122    0.6596    3.0762 O   0  0  0  0  0  0  0  0  0  0  0  0
   -1.2560    2.2418    1.4894 N   0  0  0  0  0  0  0  0  0  0  0  0
   -1.2933    2.4156    0.4987 H   0  0  0  0  0  0  0  0  0  0  0  0
   -1.2869    3.3948    2.3911 C   0  0  0  0  0  0  0  0  0  0  0  0
   -0.3355    3.4738    2.9214 H   0  0  0  0  0  0  0  0  0  0  0  0
   -1.4567    4.3137    1.8288 H   0  0  0  0  0  0  0  0  0  0  0  0
   -2.0827    3.2715    3.1289 H   0  0  0  0  0  0  0  0  0  0  0  0
  5  6  2  0  0  0  0
  5  7  1  0  0  0  0
  2  3  1  0  0  0  0
  2  4  1  0  0  0  0
  2  5  1  0  0  0  0
  1  2  1  0  0  0  0
 27 28  2  0  0  0  0
 27 29  1  0  0  0  0
 23 24  1  0  0  0  0
 23 25  1  0  0  0  0
 23 26  1  0  0  0  0
 20 21  1  0  0  0  0
 20 22  1  0  0  0  0
 20 23  1  0  0  0  0
 17 18  1  0  0  0  0
 17 19  1  0  0  0  0
 17 20  1  0  0  0  0
 14 15  1  0  0  0  0
 14 16  1  0  0  0  0
 14 17  1  0  0  0  0
 11 12  1  0  0  0  0
 11 13  1  0  0  0  0
 11 14  1  0  0  0  0
  9 10  1  0  0  0  0
  9 11  1  0  0  0  0
  9 27  1  0  0  0  0
  7  8  1  0  0  0  0
  7  9  1  0  0  0  0
 31 32  1  0  0  0  0
 31 33  1  0  0  0  0
 31 34  1  0  0  0  0
 29 30  1  0  0  0  0
 29 31  1  0  0  0  0
M  CHG  1  23   1
M  END
$$$$
default_name
  -OEChem-01062215323D

 34 33  0     1  0  0  0  0  0999 V2000
   -3.8899   -3.6747    1.6490 H   0  0  0  0  0  0  0  0  0  0  0  0
   -3.9109   -2.6717    1.2250 C   0  0  0  0  0  0  0  0  0  0  0  0
   -4.6009   -2.0517    1.7950 H   0  0  0  0  0  0  0  0  0  0  0  0
   -4.2309   -2.7237    0.1860 H   0  0  0  0  0  0  0  0  0  0  0  0
   -2.5229   -2.0787    1.2980 C   0  0  0  0  0  0  0  0  0  0  0  0
   -1.5999   -2.7227    1.7810 O   0  0  0  0  0  0  0  0  0  0  0  0
   -2.3659   -0.8447    0.8120 N   0  0  0  0  0  0  0  0  0  0  0  0
   -3.1749   -0.3807    0.4220 H   0  0  0  0  0  0  0  0  0  0  0  0
   -1.0919   -0.1077    0.8170 C   0  0  1  0  0  0  0  0  0  0  0  0
   -0.2890   -0.8132    1.0387 H   0  0  0  0  0  0  0  0  0  0  0  0
   -0.8619    0.4820   -0.5872 C   0  0  0  0  0  0  0  0  0  0  0  0
   -1.7505    1.0445   -0.8778 H   0  0  0  0  0  0  0  0  0  0  0  0
   -0.0179    1.1736   -0.5520 H   0  0  0  0  0  0  0  0  0  0  0  0
   -0.5956   -0.5872   -1.6579 C   0  0  0  0  0  0  0  0  0  0  0  0
    0.2819   -1.1733   -1.3816 H   0  0  0  0  0  0  0  0  0  0  0  0
   -1.4601   -1.2504   -1.7264 H   0  0  0  0  0  0  0  0  0  0  0  0
   -0.3516    0.0719   -3.0225 C   0  0  0  0  0  0  0  0  0  0  0  0
   -1.2261    0.6701   -3.2894 H   0  0  0  0  0  0  0  0  0  0  0  0
    0.5192    0.7267   -2.9510 H   0  0  0  0  0  0  0  0  0  0  0  0
   -0.1102   -0.9953   -4.0973 C   0  0  0  0  0  0  0  0  0  0  0  0
    0.7639   -1.5877   -3.8080 H   0  0  0  0  0  0  0  0  0  0  0  0
   -0.9753   -1.6648   -4.1230 H   0  0  0  0  0  0  0  0  0  0  0  0
    0.1053   -0.3852   -5.4337 N   0  3  0  0  0  0  0  0  0  0  0  0
    0.9111    0.2275   -5.4190 H   0  0  0  0  0  0  0  0  0  0  0  0
    0.2627   -1.1020   -6.1311 H   0  0  0  0  0  0  0  0  0  0  0  0
   -0.7047    0.1573   -5.7101 H   0  0  0  0  0  0  0  0  0  0  0  0
   -1.1058    0.9771    1.8964 C   0  0  0  0  0  0  0  0  0  0  0  0
   -0.7412    0.7049    3.0342 O   0  0  0  0  0  0  0  0  0  0  0  0
   -1.5566    2.1851    1.5426 N   0  0  0  0  0  0  0  0  0  0  0  0
   -1.8060    2.3300    0.5782 H   0  0  0  0  0  0  0  0  0  0  0  0
   -1.6320    3.3304    2.4514 C   0  0  0  0  0  0  0  0  0  0  0  0
   -0.6302    3.5918    2.7990 H   0  0  0  0  0  0  0  0  0  0  0  0
   -2.0669    4.1919    1.9435 H   0  0  0  0  0  0  0  0  0  0  0  0
   -2.2429    3.0784    3.3210 H   0  0  0  0  0  0  0  0  0  0  0  0
  5  6  2  0  0  0  0
  5  7  1  0  0  0  0
  2  3  1  0  0  0  0
  2  4  1  0  0  0  0
  2  5  1  0  0  0  0
  1  2  1  0  0  0  0
 27 28  2  0  0  0  0
 27 29  1  0  0  0  0
 23 24  1  0  0  0  0
 23 25  1  0  0  0  0
 23 26  1  0  0  0  0
 20 21  1  0  0  0  0
 20 22  1  0  0  0  0
 20 23  1  0  0  0  0
 17 18  1  0  0  0  0
 17 19  1  0  0  0  0
 17 20  1  0  0  0  0
 14 15  1  0  0  0  0
 14 16  1  0  0  0  0
 14 17  1  0  0  0  0
 11 12  1  0  0  0  0
 11 13  1  0  0  0  0
 11 14  1  0  0  0  0
  9 10  1  0  0  0  0
  9 11  1  0  0  0  0
  9 27  1  0  0  0  0
  7  8  1  0  0  0  0
  7  9  1  0  0  0  0
 31 32  1  0  0  0  0
 31 33  1  0  0  0  0
 31 34  1  0  0  0  0
 29 30  1  0  0  0  0
 29 31  1  0  0  0  0
M  CHG  1  23   1
M  END
$$$$
default_name
  -OEChem-01062215323D

 34 33  0     1  0  0  0  0  0999 V2000
   -3.8899   -3.6747    1.6490 H   0  0  0  0  0  0  0  0  0  0  0  0
   -3.9109   -2.6717    1.2250 C   0  0  0  0  0  0  0  0  0  0  0  0
   -4.6009   -2.0517    1.7950 H   0  0  0  0  0  0  0  0  0  0  0  0
   -4.2309   -2.7237    0.1860 H   0  0  0  0  0  0  0  0  0  0  0  0
   -2.5229   -2.0787    1.2980 C   0  0  0  0  0  0  0  0  0  0  0  0
   -1.5999   -2.7227    1.7810 O   0  0  0  0  0  0  0  0  0  0  0  0
   -2.3659   -0.8447    0.8120 N   0  0  0  0  0  0  0  0  0  0  0  0
   -3.1749   -0.3807    0.4220 H   0  0  0  0  0  0  0  0  0  0  0  0
   -1.0919   -0.1077    0.8170 C   0  0  1  0  0  0  0  0  0  0  0  0
   -0.2890   -0.8132    1.0387 H   0  0  0  0  0  0  0  0  0  0  0  0
   -0.8619    0.4820   -0.5872 C   0  0  0  0  0  0  0  0  0  0  0  0
   -1.7505    1.0445   -0.8778 H   0  0  0  0  0  0  0  0  0  0  0  0
   -0.0179    1.1736   -0.5520 H   0  0  0  0  0  0  0  0  0  0  0  0
   -0.5956   -0.5872   -1.6579 C   0  0  0  0  0  0  0  0  0  0  0  0
    0.2819   -1.1733   -1.3816 H   0  0  0  0  0  0  0  0  0  0  0  0
   -1.4601   -1.2504   -1.7264 H   0  0  0  0  0  0  0  0  0  0  0  0
   -0.3516    0.0719   -3.0225 C   0  0  0  0  0  0  0  0  0  0  0  0
   -1.2261    0.6701   -3.2894 H   0  0  0  0  0  0  0  0  0  0  0  0
    0.5192    0.7267   -2.9510 H   0  0  0  0  0  0  0  0  0  0  0  0
   -0.1102   -0.9953   -4.0973 C   0  0  0  0  0  0  0  0  0  0  0  0
    0.7639   -1.5877   -3.8080 H   0  0  0  0  0  0  0  0  0  0  0  0
   -0.9753   -1.6648   -4.1230 H   0  0  0  0  0  0  0  0  0  0  0  0
    0.1053   -0.3852   -5.4337 N   0  3  0  0  0  0  0  0  0  0  0  0
    0.9111    0.2275   -5.4190 H   0  0  0  0  0  0  0  0  0  0  0  0
    0.2627   -1.1020   -6.1311 H   0  0  0  0  0  0  0  0  0  0  0  0
   -0.7047    0.1573   -5.7101 H   0  0  0  0  0  0  0  0  0  0  0  0
   -1.1058    0.9771    1.8964 C   0  0  0  0  0  0  0  0  0  0  0  0
   -0.4954    0.7980    2.9437 O   0  0  0  0  0  0  0  0  0  0  0  0
   -1.8268    2.0756    1.6492 N   0  0  0  0  0  0  0  0  0  0  0  0
   -2.2709    2.1538    0.7493 H   0  0  0  0  0  0  0  0  0  0  0  0
   -1.9424    3.2053    2.5732 C   0  0  0  0  0  0  0  0  0  0  0  0
   -0.9589    3.6517    2.7347 H   0  0  0  0  0  0  0  0  0  0  0  0
   -2.6131    3.9630    2.1664 H   0  0  0  0  0  0  0  0  0  0  0  0
   -2.3272    2.8630    3.5363 H   0  0  0  0  0  0  0  0  0  0  0  0
  5  6  2  0  0  0  0
  5  7  1  0  0  0  0
  2  3  1  0  0  0  0
  2  4  1  0  0  0  0
  2  5  1  0  0  0  0
  1  2  1  0  0  0  0
 27 28  2  0  0  0  0
 27 29  1  0  0  0  0
 23 24  1  0  0  0  0
 23 25  1  0  0  0  0
 23 26  1  0  0  0  0
 20 21  1  0  0  0  0
 20 22  1  0  0  0  0
 20 23  1  0  0  0  0
 17 18  1  0  0  0  0
 17 19  1  0  0  0  0
 17 20  1  0  0  0  0
 14 15  1  0  0  0  0
 14 16  1  0  0  0  0
 14 17  1  0  0  0  0
 11 12  1  0  0  0  0
 11 13  1  0  0  0  0
 11 14  1  0  0  0  0
  9 10  1  0  0  0  0
  9 11  1  0  0  0  0
  9 27  1  0  0  0  0
  7  8  1  0  0  0  0
  7  9  1  0  0  0  0
 31 32  1  0  0  0  0
 31 33  1  0  0  0  0
 31 34  1  0  0  0  0
 29 30  1  0  0  0  0
 29 31  1  0  0  0  0
M  CHG  1  23   1
M  END
$$$$
default_name
  -OEChem-01062215323D

 34 33  0     1  0  0  0  0  0999 V2000
   -3.8899   -3.6747    1.6490 H   0  0  0  0  0  0  0  0  0  0  0  0
   -3.9109   -2.6717    1.2250 C   0  0  0  0  0  0  0  0  0  0  0  0
   -4.6009   -2.0517    1.7950 H   0  0  0  0  0  0  0  0  0  0  0  0
   -4.2309   -2.7237    0.1860 H   0  0  0  0  0  0  0  0  0  0  0  0
   -2.5229   -2.0787    1.2980 C   0  0  0  0  0  0  0  0  0  0  0  0
   -1.5999   -2.7227    1.7810 O   0  0  0  0  0  0  0  0  0  0  0  0
   -2.3659   -0.8447    0.8120 N   0  0  0  0  0  0  0  0  0  0  0  0
   -3.1749   -0.3807    0.4220 H   0  0  0  0  0  0  0  0  0  0  0  0
   -1.0919   -0.1077    0.8170 C   0  0  1  0  0  0  0  0  0  0  0  0
   -0.2890   -0.8132    1.0387 H   0  0  0  0  0  0  0  0  0  0  0  0
   -0.8619    0.4820   -0.5872 C   0  0  0  0  0  0  0  0  0  0  0  0
   -1.7505    1.0445   -0.8778 H   0  0  0  0  0  0  0  0  0  0  0  0
   -0.0179    1.1736   -0.5520 H   0  0  0  0  0  0  0  0  0  0  0  0
   -0.5956   -0.5872   -1.6579 C   0  0  0  0  0  0  0  0  0  0  0  0
    0.2819   -1.1733   -1.3816 H   0  0  0  0  0  0  0  0  0  0  0  0
   -1.4601   -1.2504   -1.7264 H   0  0  0  0  0  0  0  0  0  0  0  0
   -0.3516    0.0719   -3.0225 C   0  0  0  0  0  0  0  0  0  0  0  0
   -1.2261    0.6701   -3.2894 H   0  0  0  0  0  0  0  0  0  0  0  0
    0.5192    0.7267   -2.9510 H   0  0  0  0  0  0  0  0  0  0  0  0
   -0.1102   -0.9953   -4.0973 C   0  0  0  0  0  0  0  0  0  0  0  0
    0.7639   -1.5877   -3.8080 H   0  0  0  0  0  0  0  0  0  0  0  0
   -0.9753   -1.6648   -4.1230 H   0  0  0  0  0  0  0  0  0  0  0  0
    0.1053   -0.3852   -5.4337 N   0  3  0  0  0  0  0  0  0  0  0  0
    0.9111    0.2275   -5.4190 H   0  0  0  0  0  0  0  0  0  0  0  0
    0.2627   -1.1020   -6.1311 H   0  0  0  0  0  0  0  0  0  0  0  0
   -0.7047    0.1573   -5.7101 H   0  0  0  0  0  0  0  0  0  0  0  0
   -1.1058    0.9771    1.8964 C   0  0  0  0  0  0  0  0  0  0  0  0
   -0.2915    0.9326    2.8110 O   0  0  0  0  0  0  0  0  0  0  0  0
   -2.0483    1.9207    1.8020 N   0  0  0  0  0  0  0  0  0  0  0  0
   -2.6565    1.8992    1.0002 H   0  0  0  0  0  0  0  0  0  0  0  0
   -2.1971    3.0281    2.7480 C   0  0  0  0  0  0  0  0  0  0  0  0
   -1.2991    3.6494    2.7326 H   0  0  0  0  0  0  0  0  0  0  0  0
   -3.0580    3.6428    2.4826 H   0  0  0  0  0  0  0  0  0  0  0  0
   -2.3298    2.6401    3.7603 H   0  0  0  0  0  0  0  0  0  0  0  0
  5  6  2  0  0  0  0
  5  7  1  0  0  0  0
  2  3  1  0  0  0  0
  2  4  1  0  0  0  0
  2  5  1  0  0  0  0
  1  2  1  0  0  0  0
 27 28  2  0  0  0  0
 27 29  1  0  0  0  0
 23 24  1  0  0  0  0
 23 25  1  0  0  0  0
 23 26  1  0  0  0  0
 20 21  1  0  0  0  0
 20 22  1  0  0  0  0
 20 23  1  0  0  0  0
 17 18  1  0  0  0  0
 17 19  1  0  0  0  0
 17 20  1  0  0  0  0
 14 15  1  0  0  0  0
 14 16  1  0  0  0  0
 14 17  1  0  0  0  0
 11 12  1  0  0  0  0
 11 13  1  0  0  0  0
 11 14  1  0  0  0  0
  9 10  1  0  0  0  0
  9 11  1  0  0  0  0
  9 27  1  0  0  0  0
  7  8  1  0  0  0  0
  7  9  1  0  0  0  0
 31 32  1  0  0  0  0
 31 33  1  0  0  0  0
 31 34  1  0  0  0  0
 29 30  1  0  0  0  0
 29 31  1  0  0  0  0
M  CHG  1  23   1
M  END
$$$$
default_name
  -OEChem-01062215323D

 34 33  0     1  0  0  0  0  0999 V2000
   -3.8899   -3.6747    1.6490 H   0  0  0  0  0  0  0  0  0  0  0  0
   -3.9109   -2.6717    1.2250 C   0  0  0  0  0  0  0  0  0  0  0  0
   -4.6009   -2.0517    1.7950 H   0  0  0  0  0  0  0  0  0  0  0  0
   -4.2309   -2.7237    0.1860 H   0  0  0  0  0  0  0  0  0  0  0  0
   -2.5229   -2.0787    1.2980 C   0  0  0  0  0  0  0  0  0  0  0  0
   -1.5999   -2.7227    1.7810 O   0  0  0  0  0  0  0  0  0  0  0  0
   -2.3659   -0.8447    0.8120 N   0  0  0  0  0  0  0  0  0  0  0  0
   -3.1749   -0.3807    0.4220 H   0  0  0  0  0  0  0  0  0  0  0  0
   -1.0919   -0.1077    0.8170 C   0  0  1  0  0  0  0  0  0  0  0  0
   -0.2890   -0.8132    1.0387 H   0  0  0  0  0  0  0  0  0  0  0  0
   -0.8619    0.4820   -0.5872 C   0  0  0  0  0  0  0  0  0  0  0  0
   -1.7505    1.0445   -0.8778 H   0  0  0  0  0  0  0  0  0  0  0  0
   -0.0179    1.1736   -0.5520 H   0  0  0  0  0  0  0  0  0  0  0  0
   -0.5956   -0.5872   -1.6579 C   0  0  0  0  0  0  0  0  0  0  0  0
    0.2819   -1.1733   -1.3816 H   0  0  0  0  0  0  0  0  0  0  0  0
   -1.4601   -1.2504   -1.7264 H   0  0  0  0  0  0  0  0  0  0  0  0
   -0.3516    0.0719   -3.0225 C   0  0  0  0  0  0  0  0  0  0  0  0
   -1.2261    0.6701   -3.2894 H   0  0  0  0  0  0  0  0  0  0  0  0
    0.5192    0.7267   -2.9510 H   0  0  0  0  0  0  0  0  0  0  0  0
   -0.1102   -0.9953   -4.0973 C   0  0  0  0  0  0  0  0  0  0  0  0
    0.7639   -1.5877   -3.8080 H   0  0  0  0  0  0  0  0  0  0  0  0
   -0.9753   -1.6648   -4.1230 H   0  0  0  0  0  0  0  0  0  0  0  0
    0.1053   -0.3852   -5.4337 N   0  3  0  0  0  0  0  0  0  0  0  0
    0.9111    0.2275   -5.4190 H   0  0  0  0  0  0  0  0  0  0  0  0
    0.2627   -1.1020   -6.1311 H   0  0  0  0  0  0  0  0  0  0  0  0
   -0.7047    0.1573   -5.7101 H   0  0  0  0  0  0  0  0  0  0  0  0
   -1.1058    0.9771    1.8964 C   0  0  0  0  0  0  0  0  0  0  0  0
   -0.1436    1.0996    2.6452 O   0  0  0  0  0  0  0  0  0  0  0  0
   -2.2060    1.7310    1.9906 N   0  0  0  0  0  0  0  0  0  0  0  0
   -2.9364    1.5835    1.3140 H   0  0  0  0  0  0  0  0  0  0  0  0
   -2.3788    2.8108    2.9640 C   0  0  0  0  0  0  0  0  0  0  0  0
   -1.6277    3.5850    2.7931 H   0  0  0  0  0  0  0  0  0  0  0  0
   -3.3713    3.2530    2.8703 H   0  0  0  0  0  0  0  0  0  0  0  0
   -2.2504    2.4249    3.9777 H   0  0  0  0  0  0  0  0  0  0  0  0
  5  6  2  0  0  0  0
  5  7  1  0  0  0  0
  2  3  1  0  0  0  0
  2  4  1  0  0  0  0
  2  5  1  0  0  0  0
  1  2  1  0  0  0  0
 27 28  2  0  0  0  0
 27 29  1  0  0  0  0
 23 24  1  0  0  0  0
 23 25  1  0  0  0  0
 23 26  1  0  0  0  0
 20 21  1  0  0  0  0
 20 22  1  0  0  0  0
 20 23  1  0  0  0  0
 17 18  1  0  0  0  0
 17 19  1  0  0  0  0
 17 20  1  0  0  0  0
 14 15  1  0  0  0  0
 14 16  1  0  0  0  0
 14 17  1  0  0  0  0
 11 12  1  0  0  0  0
 11 13  1  0  0  0  0
 11 14  1  0  0  0  0
  9 10  1  0  0  0  0
  9 11  1  0  0  0  0
  9 27  1  0  0  0  0
  7  8  1  0  0  0  0
  7  9  1  0  0  0  0
 31 32  1  0  0  0  0
 31 33  1  0  0  0  0
 31 34  1  0  0  0  0
 29 30  1  0  0  0  0
 29 31  1  0  0  0  0
M  CHG  1  23   1
M  END
$$$$
default_name
  -OEChem-01062215323D

 34 33  0     1  0  0  0  0  0999 V2000
   -3.8899   -3.6747    1.6490 H   0  0  0  0  0  0  0  0  0  0  0  0
   -3.9109   -2.6717    1.2250 C   0  0  0  0  0  0  0  0  0  0  0  0
   -4.6009   -2.0517    1.7950 H   0  0  0  0  0  0  0  0  0  0  0  0
   -4.2309   -2.7237    0.1860 H   0  0  0  0  0  0  0  0  0  0  0  0
   -2.5229   -2.0787    1.2980 C   0  0  0  0  0  0  0  0  0  0  0  0
   -1.5999   -2.7227    1.7810 O   0  0  0  0  0  0  0  0  0  0  0  0
   -2.3659   -0.8447    0.8120 N   0  0  0  0  0  0  0  0  0  0  0  0
   -3.1749   -0.3807    0.4220 H   0  0  0  0  0  0  0  0  0  0  0  0
   -1.0919   -0.1077    0.8170 C   0  0  1  0  0  0  0  0  0  0  0  0
   -0.2890   -0.8132    1.0387 H   0  0  0  0  0  0  0  0  0  0  0  0
   -0.8619    0.4820   -0.5872 C   0  0  0  0  0  0  0  0  0  0  0  0
   -1.7505    1.0445   -0.8778 H   0  0  0  0  0  0  0  0  0  0  0  0
   -0.0179    1.1736   -0.5520 H   0  0  0  0  0  0  0  0  0  0  0  0
   -0.5956   -0.5872   -1.6579 C   0  0  0  0  0  0  0  0  0  0  0  0
    0.2819   -1.1733   -1.3816 H   0  0  0  0  0  0  0  0  0  0  0  0
   -1.4601   -1.2504   -1.7264 H   0  0  0  0  0  0  0  0  0  0  0  0
   -0.3516    0.0719   -3.0225 C   0  0  0  0  0  0  0  0  0  0  0  0
   -1.2261    0.6701   -3.2894 H   0  0  0  0  0  0  0  0  0  0  0  0
    0.5192    0.7267   -2.9510 H   0  0  0  0  0  0  0  0  0  0  0  0
   -0.1102   -0.9953   -4.0973 C   0  0  0  0  0  0  0  0  0  0  0  0
    0.7639   -1.5877   -3.8080 H   0  0  0  0  0  0  0  0  0  0  0  0
   -0.9753   -1.6648   -4.1230 H   0  0  0  0  0  0  0  0  0  0  0  0
    0.1053   -0.3852   -5.4337 N   0  3  0  0  0  0  0  0  0  0  0  0
    0.9111    0.2275   -5.4190 H   0  0  0  0  0  0  0  0  0  0  0  0
    0.2627   -1.1020   -6.1311 H   0  0  0  0  0  0  0  0  0  0  0  0
   -0.7047    0.1573   -5.7101 H   0  0  0  0  0  0  0  0  0  0  0  0
   -1.1058    0.9771    1.8964 C   0  0  0  0  0  0  0  0  0  0  0  0
   -0.0615    1.2874    2.4574 O   0  0  0  0  0  0  0  0  0  0  0  0
   -2.2890    1.5194    2.2021 N   0  0  0  0  0  0  0  0  0  0  0  0
   -3.0916    1.2281    1.6691 H   0  0  0  0  0  0  0  0  0  0  0  0
   -2.4749    2.5683    3.2065 C   0  0  0  0  0  0  0  0  0  0  0  0
   -1.9222    3.4630    2.9119 H   0  0  0  0  0  0  0  0  0  0  0  0
   -3.5316    2.8202    3.3032 H   0  0  0  0  0  0  0  0  0  0  0  0
   -2.0947    2.2319    4.1735 H   0  0  0  0  0  0  0  0  0  0  0  0
  5  6  2  0  0  0  0
  5  7  1  0  0  0  0
  2  3  1  0  0  0  0
  2  4  1  0  0  0  0
  2  5  1  0  0  0  0
  1  2  1  0  0  0  0
 27 28  2  0  0  0  0
 27 29  1  0  0  0  0
 23 24  1  0  0  0  0
 23 25  1  0  0  0  0
 23 26  1  0  0  0  0
 20 21  1  0  0  0  0
 20 22  1  0  0  0  0
 20 23  1  0  0  0  0
 17 18  1  0  0  0  0
 17 19  1  0  0  0  0
 17 20  1  0  0  0  0
 14 15  1  0  0  0  0
 14 16  1  0  0  0  0
 14 17  1  0  0  0  0
 11 12  1  0  0  0  0
 11 13  1  0  0  0  0
 11 14  1  0  0  0  0
  9 10  1  0  0  0  0
  9 11  1  0  0  0  0
  9 27  1  0  0  0  0
  7  8  1  0  0  0  0
  7  9  1  0  0  0  0
 31 32  1  0  0  0  0
 31 33  1  0  0  0  0
 31 34  1  0  0  0  0
 29 30  1  0  0  0  0
 29 31  1  0  0  0  0
M  CHG  1  23   1
M  END
$$$$
default_name
  -OEChem-01062215323D

 34 33  0     1  0  0  0  0  0999 V2000
   -3.8899   -3.6747    1.6490 H   0  0  0  0  0  0  0  0  0  0  0  0
   -3.9109   -2.6717    1.2250 C   0  0  0  0  0  0  0  0  0  0  0  0
   -4.6009   -2.0517    1.7950 H   0  0  0  0  0  0  0  0  0  0  0  0
   -4.2309   -2.7237    0.1860 H   0  0  0  0  0  0  0  0  0  0  0  0
   -2.5229   -2.0787    1.2980 C   0  0  0  0  0  0  0  0  0  0  0  0
   -1.5999   -2.7227    1.7810 O   0  0  0  0  0  0  0  0  0  0  0  0
   -2.3659   -0.8447    0.8120 N   0  0  0  0  0  0  0  0  0  0  0  0
   -3.1749   -0.3807    0.4220 H   0  0  0  0  0  0  0  0  0  0  0  0
   -1.0919   -0.1077    0.8170 C   0  0  1  0  0  0  0  0  0  0  0  0
   -0.2890   -0.8132    1.0387 H   0  0  0  0  0  0  0  0  0  0  0  0
   -0.8619    0.4820   -0.5872 C   0  0  0  0  0  0  0  0  0  0  0  0
   -1.7505    1.0445   -0.8778 H   0  0  0  0  0  0  0  0  0  0  0  0
   -0.0179    1.1736   -0.5520 H   0  0  0  0  0  0  0  0  0  0  0  0
   -0.5956   -0.5872   -1.6579 C   0  0  0  0  0  0  0  0  0  0  0  0
    0.2819   -1.1733   -1.3816 H   0  0  0  0  0  0  0  0  0  0  0  0
   -1.4601   -1.2504   -1.7264 H   0  0  0  0  0  0  0  0  0  0  0  0
   -0.3516    0.0719   -3.0225 C   0  0  0  0  0  0  0  0  0  0  0  0
   -1.2261    0.6701   -3.2894 H   0  0  0  0  0  0  0  0  0  0  0  0
    0.5192    0.7267   -2.9510 H   0  0  0  0  0  0  0  0  0  0  0  0
   -0.1102   -0.9953   -4.0973 C   0  0  0  0  0  0  0  0  0  0  0  0
    0.7639   -1.5877   -3.8080 H   0  0  0  0  0  0  0  0  0  0  0  0
   -0.9753   -1.6648   -4.1230 H   0  0  0  0  0  0  0  0  0  0  0  0
    0.1053   -0.3852   -5.4337 N   0  3  0  0  0  0  0  0  0  0  0  0
    0.9111    0.2275   -5.4190 H   0  0  0  0  0  0  0  0  0  0  0  0
    0.2627   -1.1020   -6.1311 H   0  0  0  0  0  0  0  0  0  0  0  0
   -0.7047    0.1573   -5.7101 H   0  0  0  0  0  0  0  0  0  0  0  0
   -1.1058    0.9771    1.8964 C   0  0  0  0  0  0  0  0  0  0  0  0
   -0.0510    1.4834    2.2605 O   0  0  0  0  0  0  0  0  0  0  0  0
   -2.2918    1.3004    2.4222 N   0  0  0  0  0  0  0  0  0  0  0  0
   -3.1114    0.8574    2.0414 H   0  0  0  0  0  0  0  0  0  0  0  0
   -2.4790    2.3171    3.4589 C   0  0  0  0  0  0  0  0  0  0  0  0
   -2.1626    3.2917    3.0810 H   0  0  0  0  0  0  0  0  0  0  0  0
   -3.5280    2.3739    3.7518 H   0  0  0  0  0  0  0  0  0  0  0  0
   -1.8730    2.0745    4.3346 H   0  0  0  0  0  0  0  0  0  0  0  0
  5  6  2  0  0  0  0
  5  7  1  0  0  0  0
  2  3  1  0  0  0  0
  2  4  1  0  0  0  0
  2  5  1  0  0  0  0
  1  2  1  0  0  0  0
 27 28  2  0  0  0  0
 27 29  1  0  0  0  0
 23 24  1  0  0  0  0
 23 25  1  0  0  0  0
 23 26  1  0  0  0  0
 20 21  1  0  0  0  0
 20 22  1  0  0  0  0
 20 23  1  0  0  0  0
 17 18  1  0  0  0  0
 17 19  1  0  0  0  0
 17 20  1  0  0  0  0
 14 15  1  0  0  0  0
 14 16  1  0  0  0  0
 14 17  1  0  0  0  0
 11 12  1  0  0  0  0
 11 13  1  0  0  0  0
 11 14  1  0  0  0  0
  9 10  1  0  0  0  0
  9 11  1  0  0  0  0
  9 27  1  0  0  0  0
  7  8  1  0  0  0  0
  7  9  1  0  0  0  0
 31 32  1  0  0  0  0
 31 33  1  0  0  0  0
 31 34  1  0  0  0  0
 29 30  1  0  0  0  0
 29 31  1  0  0  0  0
M  CHG  1  23   1
M  END
$$$$
default_name
  -OEChem-01062215323D

 34 33  0     1  0  0  0  0  0999 V2000
   -3.8899   -3.6747    1.6490 H   0  0  0  0  0  0  0  0  0  0  0  0
   -3.9109   -2.6717    1.2250 C   0  0  0  0  0  0  0  0  0  0  0  0
   -4.6009   -2.0517    1.7950 H   0  0  0  0  0  0  0  0  0  0  0  0
   -4.2309   -2.7237    0.1860 H   0  0  0  0  0  0  0  0  0  0  0  0
   -2.5229   -2.0787    1.2980 C   0  0  0  0  0  0  0  0  0  0  0  0
   -1.5999   -2.7227    1.7810 O   0  0  0  0  0  0  0  0  0  0  0  0
   -2.3659   -0.8447    0.8120 N   0  0  0  0  0  0  0  0  0  0  0  0
   -3.1749   -0.3807    0.4220 H   0  0  0  0  0  0  0  0  0  0  0  0
   -1.0919   -0.1077    0.8170 C   0  0  1  0  0  0  0  0  0  0  0  0
   -0.2890   -0.8132    1.0387 H   0  0  0  0  0  0  0  0  0  0  0  0
   -0.8619    0.4820   -0.5872 C   0  0  0  0  0  0  0  0  0  0  0  0
   -1.7505    1.0445   -0.8778 H   0  0  0  0  0  0  0  0  0  0  0  0
   -0.0179    1.1736   -0.5520 H   0  0  0  0  0  0  0  0  0  0  0  0
   -0.5956   -0.5872   -1.6579 C   0  0  0  0  0  0  0  0  0  0  0  0
    0.2819   -1.1733   -1.3816 H   0  0  0  0  0  0  0  0  0  0  0  0
   -1.4601   -1.2504   -1.7264 H   0  0  0  0  0  0  0  0  0  0  0  0
   -0.3516    0.0719   -3.0225 C   0  0  0  0  0  0  0  0  0  0  0  0
   -1.2261    0.6701   -3.2894 H   0  0  0  0  0  0  0  0  0  0  0  0
    0.5192    0.7267   -2.9510 H   0  0  0  0  0  0  0  0  0  0  0  0
   -0.1102   -0.9953   -4.0973 C   0  0  0  0  0  0  0  0  0  0  0  0
    0.7639   -1.5877   -3.8080 H   0  0  0  0  0  0  0  0  0  0  0  0
   -0.9753   -1.6648   -4.1230 H   0  0  0  0  0  0  0  0  0  0  0  0
    0.1053   -0.3852   -5.4337 N   0  3  0  0  0  0  0  0  0  0  0  0
    0.9111    0.2275   -5.4190 H   0  0  0  0  0  0  0  0  0  0  0  0
    0.2627   -1.1020   -6.1311 H   0  0  0  0  0  0  0  0  0  0  0  0
   -0.7047    0.1573   -5.7101 H   0  0  0  0  0  0  0  0  0  0  0  0
   -1.1058    0.9771    1.8964 C   0  0  0  0  0  0  0  0  0  0  0  0
   -0.1128    1.6742    2.0680 O   0  0  0  0  0  0  0  0  0  0  0  0
   -2.2141    1.0889    2.6358 N   0  0  0  0  0  0  0  0  0  0  0  0
   -2.9946    0.4965    2.4056 H   0  0  0  0  0  0  0  0  0  0  0  0
   -2.3908    2.0743    3.7041 C   0  0  0  0  0  0  0  0  0  0  0  0
   -2.3326    3.0827    3.2889 H   0  0  0  0  0  0  0  0  0  0  0  0
   -3.3608    1.9445    4.1854 H   0  0  0  0  0  0  0  0  0  0  0  0
   -1.6007    1.9632    4.4499 H   0  0  0  0  0  0  0  0  0  0  0  0
  5  6  2  0  0  0  0
  5  7  1  0  0  0  0
  2  3  1  0  0  0  0
  2  4  1  0  0  0  0
  2  5  1  0  0  0  0
  1  2  1  0  0  0  0
 27 28  2  0  0  0  0
 27 29  1  0  0  0  0
 23 24  1  0  0  0  0
 23 25  1  0  0  0  0
 23 26  1  0  0  0  0
 20 21  1  0  0  0  0
 20 22  1  0  0  0  0
 20 23  1  0  0  0  0
 17 18  1  0  0  0  0
 17 19  1  0  0  0  0
 17 20  1  0  0  0  0
 14 15  1  0  0  0  0
 14 16  1  0  0  0  0
 14 17  1  0  0  0  0
 11 12  1  0  0  0  0
 11 13  1  0  0  0  0
 11 14  1  0  0  0  0
  9 10  1  0  0  0  0
  9 11  1  0  0  0  0
  9 27  1  0  0  0  0
  7  8  1  0  0  0  0
  7  9  1  0  0  0  0
 31 32  1  0  0  0  0
 31 33  1  0  0  0  0
 31 34  1  0  0  0  0
 29 30  1  0  0  0  0
 29 31  1  0  0  0  0
M  CHG  1  23   1
M  END
$$$$
default_name
  -OEChem-01062215323D

 34 33  0     1  0  0  0  0  0999 V2000
   -3.8899   -3.6747    1.6490 H   0  0  0  0  0  0  0  0  0  0  0  0
   -3.9109   -2.6717    1.2250 C   0  0  0  0  0  0  0  0  0  0  0  0
   -4.6009   -2.0517    1.7950 H   0  0  0  0  0  0  0  0  0  0  0  0
   -4.2309   -2.7237    0.1860 H   0  0  0  0  0  0  0  0  0  0  0  0
   -2.5229   -2.0787    1.2980 C   0  0  0  0  0  0  0  0  0  0  0  0
   -1.5999   -2.7227    1.7810 O   0  0  0  0  0  0  0  0  0  0  0  0
   -2.3659   -0.8447    0.8120 N   0  0  0  0  0  0  0  0  0  0  0  0
   -3.1749   -0.3807    0.4220 H   0  0  0  0  0  0  0  0  0  0  0  0
   -1.0919   -0.1077    0.8170 C   0  0  1  0  0  0  0  0  0  0  0  0
   -0.2890   -0.8132    1.0387 H   0  0  0  0  0  0  0  0  0  0  0  0
   -0.8619    0.4820   -0.5872 C   0  0  0  0  0  0  0  0  0  0  0  0
   -1.7505    1.0445   -0.8778 H   0  0  0  0  0  0  0  0  0  0  0  0
   -0.0179    1.1736   -0.5520 H   0  0  0  0  0  0  0  0  0  0  0  0
   -0.5956   -0.5872   -1.6579 C   0  0  0  0  0  0  0  0  0  0  0  0
    0.2819   -1.1733   -1.3816 H   0  0  0  0  0  0  0  0  0  0  0  0
   -1.4601   -1.2504   -1.7264 H   0  0  0  0  0  0  0  0  0  0  0  0
   -0.3516    0.0719   -3.0225 C   0  0  0  0  0  0  0  0  0  0  0  0
   -1.2261    0.6701   -3.2894 H   0  0  0  0  0  0  0  0  0  0  0  0
    0.5192    0.7267   -2.9510 H   0  0  0  0  0  0  0  0  0  0  0  0
   -0.1102   -0.9953   -4.0973 C   0  0  0  0  0  0  0  0  0  0  0  0
    0.7639   -1.5877   -3.8080 H   0  0  0  0  0  0  0  0  0  0  0  0
   -0.9753   -1.6648   -4.1230 H   0  0  0  0  0  0  0  0  0  0  0  0
    0.1053   -0.3852   -5.4337 N   0  3  0  0  0  0  0  0  0  0  0  0
    0.9111    0.2275   -5.4190 H   0  0  0  0  0  0  0  0  0  0  0  0
    0.2627   -1.1020   -6.1311 H   0  0  0  0  0  0  0  0  0  0  0  0
   -0.7047    0.1573   -5.7101 H   0  0  0  0  0  0  0  0  0  0  0  0
   -1.1058    0.9771    1.8964 C   0  0  0  0  0  0  0  0  0  0  0  0
   -0.2426    1.8468    1.8929 O   0  0  0  0  0  0  0  0  0  0  0  0
   -2.0613    0.8992    2.8284 N   0  0  0  0  0  0  0  0  0  0  0  0
   -2.7491    0.1701    2.7367 H   0  0  0  0  0  0  0  0  0  0  0  0
   -2.2163    1.8564    3.9253 C   0  0  0  0  0  0  0  0  0  0  0  0
   -2.4204    2.8503    3.5213 H   0  0  0  0  0  0  0  0  0  0  0  0
   -3.0413    1.5613    4.5747 H   0  0  0  0  0  0  0  0  0  0  0  0
   -1.2961    1.9057    4.5116 H   0  0  0  0  0  0  0  0  0  0  0  0
  5  6  2  0  0  0  0
  5  7  1  0  0  0  0
  2  3  1  0  0  0  0
  2  4  1  0  0  0  0
  2  5  1  0  0  0  0
  1  2  1  0  0  0  0
 27 28  2  0  0  0  0
 27 29  1  0  0  0  0
 23 24  1  0  0  0  0
 23 25  1  0  0  0  0
 23 26  1  0  0  0  0
 20 21  1  0  0  0  0
 20 22  1  0  0  0  0
 20 23  1  0  0  0  0
 17 18  1  0  0  0  0
 17 19  1  0  0  0  0
 17 20  1  0  0  0  0
 14 15  1  0  0  0  0
 14 16  1  0  0  0  0
 14 17  1  0  0  0  0
 11 12  1  0  0  0  0
 11 13  1  0  0  0  0
 11 14  1  0  0  0  0
  9 10  1  0  0  0  0
  9 11  1  0  0  0  0
  9 27  1  0  0  0  0
  7  8  1  0  0  0  0
  7  9  1  0  0  0  0
 31 32  1  0  0  0  0
 31 33  1  0  0  0  0
 31 34  1  0  0  0  0
 29 30  1  0  0  0  0
 29 31  1  0  0  0  0
M  CHG  1  23   1
M  END
$$$$
default_name
  -OEChem-01062215323D

 34 33  0     1  0  0  0  0  0999 V2000
   -3.8899   -3.6747    1.6490 H   0  0  0  0  0  0  0  0  0  0  0  0
   -3.9109   -2.6717    1.2250 C   0  0  0  0  0  0  0  0  0  0  0  0
   -4.6009   -2.0517    1.7950 H   0  0  0  0  0  0  0  0  0  0  0  0
   -4.2309   -2.7237    0.1860 H   0  0  0  0  0  0  0  0  0  0  0  0
   -2.5229   -2.0787    1.2980 C   0  0  0  0  0  0  0  0  0  0  0  0
   -1.5999   -2.7227    1.7810 O   0  0  0  0  0  0  0  0  0  0  0  0
   -2.3659   -0.8447    0.8120 N   0  0  0  0  0  0  0  0  0  0  0  0
   -3.1749   -0.3807    0.4220 H   0  0  0  0  0  0  0  0  0  0  0  0
   -1.0919   -0.1077    0.8170 C   0  0  1  0  0  0  0  0  0  0  0  0
   -0.2890   -0.8132    1.0387 H   0  0  0  0  0  0  0  0  0  0  0  0
   -0.8619    0.4820   -0.5872 C   0  0  0  0  0  0  0  0  0  0  0  0
   -1.7505    1.0445   -0.8778 H   0  0  0  0  0  0  0  0  0  0  0  0
   -0.0179    1.1736   -0.5520 H   0  0  0  0  0  0  0  0  0  0  0  0
   -0.5956   -0.5872   -1.6579 C   0  0  0  0  0  0  0  0  0  0  0  0
    0.2819   -1.1733   -1.3816 H   0  0  0  0  0  0  0  0  0  0  0  0
   -1.4601   -1.2504   -1.7264 H   0  0  0  0  0  0  0  0  0  0  0  0
   -0.3516    0.0719   -3.0225 C   0  0  0  0  0  0  0  0  0  0  0  0
   -1.2261    0.6701   -3.2894 H   0  0  0  0  0  0  0  0  0  0  0  0
    0.5192    0.7267   -2.9510 H   0  0  0  0  0  0  0  0  0  0  0  0
   -0.1102   -0.9953   -4.0973 C   0  0  0  0  0  0  0  0  0  0  0  0
    0.7639   -1.5877   -3.8080 H   0  0  0  0  0  0  0  0  0  0  0  0
   -0.9753   -1.6648   -4.1230 H   0  0  0  0  0  0  0  0  0  0  0  0
    0.1053   -0.3852   -5.4337 N   0  3  0  0  0  0  0  0  0  0  0  0
    0.9111    0.2275   -5.4190 H   0  0  0  0  0  0  0  0  0  0  0  0
    0.2627   -1.1020   -6.1311 H   0  0  0  0  0  0  0  0  0  0  0  0
   -0.7047    0.1573   -5.7101 H   0  0  0  0  0  0  0  0  0  0  0  0
   -1.1058    0.9771    1.8964 C   0  0  0  0  0  0  0  0  0  0  0  0
   -0.4316    1.9894    1.7472 O   0  0  0  0  0  0  0  0  0  0  0  0
   -1.8437    0.7444    2.9868 N   0  0  0  0  0  0  0  0  0  0  0  0
   -2.3917   -0.0995    3.0123 H   0  0  0  0  0  0  0  0  0  0  0  0
   -1.9674    1.6783    4.1075 C   0  0  0  0  0  0  0  0  0  0  0  0
   -2.4202    2.6103    3.7625 H   0  0  0  0  0  0  0  0  0  0  0  0
   -2.5914    1.2504    4.8929 H   0  0  0  0  0  0  0  0  0  0  0  0
   -0.9801    1.9059    4.5154 H   0  0  0  0  0  0  0  0  0  0  0  0
  5  6  2  0  0  0  0
  5  7  1  0  0  0  0
  2  3  1  0  0  0  0
  2  4  1  0  0  0  0
  2  5  1  0  0  0  0
  1  2  1  0  0  0  0
 27 28  2  0  0  0  0
 27 29  1  0  0  0  0
 23 24  1  0  0  0  0
 23 25  1  0  0  0  0
 23 26  1  0  0  0  0
 20 21  1  0  0  0  0
 20 22  1  0  0  0  0
 20 23  1  0  0  0  0
 17 18  1  0  0  0  0
 17 19  1  0  0  0  0
 17 20  1  0  0  0  0
 14 15  1  0  0  0  0
 14 16  1  0  0  0  0
 14 17  1  0  0  0  0
 11 12  1  0  0  0  0
 11 13  1  0  0  0  0
 11 14  1  0  0  0  0
  9 10  1  0  0  0  0
  9 11  1  0  0  0  0
  9 27  1  0  0  0  0
  7  8  1  0  0  0  0
  7  9  1  0  0  0  0
 31 32  1  0  0  0  0
 31 33  1  0  0  0  0
 31 34  1  0  0  0  0
 29 30  1  0  0  0  0
 29 31  1  0  0  0  0
M  CHG  1  23   1
M  END
$$$$
default_name
  -OEChem-01062215323D

 34 33  0     1  0  0  0  0  0999 V2000
   -3.8899   -3.6747    1.6490 H   0  0  0  0  0  0  0  0  0  0  0  0
   -3.9109   -2.6717    1.2250 C   0  0  0  0  0  0  0  0  0  0  0  0
   -4.6009   -2.0517    1.7950 H   0  0  0  0  0  0  0  0  0  0  0  0
   -4.2309   -2.7237    0.1860 H   0  0  0  0  0  0  0  0  0  0  0  0
   -2.5229   -2.0787    1.2980 C   0  0  0  0  0  0  0  0  0  0  0  0
   -1.5999   -2.7227    1.7810 O   0  0  0  0  0  0  0  0  0  0  0  0
   -2.3659   -0.8447    0.8120 N   0  0  0  0  0  0  0  0  0  0  0  0
   -3.1749   -0.3807    0.4220 H   0  0  0  0  0  0  0  0  0  0  0  0
   -1.0919   -0.1077    0.8170 C   0  0  1  0  0  0  0  0  0  0  0  0
   -0.2890   -0.8132    1.0387 H   0  0  0  0  0  0  0  0  0  0  0  0
   -0.8619    0.4820   -0.5872 C   0  0  0  0  0  0  0  0  0  0  0  0
   -1.7505    1.0445   -0.8778 H   0  0  0  0  0  0  0  0  0  0  0  0
   -0.0179    1.1736   -0.5520 H   0  0  0  0  0  0  0  0  0  0  0  0
   -0.5956   -0.5872   -1.6579 C   0  0  0  0  0  0  0  0  0  0  0  0
    0.2819   -1.1733   -1.3816 H   0  0  0  0  0  0  0  0  0  0  0  0
   -1.4601   -1.2504   -1.7264 H   0  0  0  0  0  0  0  0  0  0  0  0
   -0.3516    0.0719   -3.0225 C   0  0  0  0  0  0  0  0  0  0  0  0
   -1.2261    0.6701   -3.2894 H   0  0  0  0  0  0  0  0  0  0  0  0
    0.5192    0.7267   -2.9510 H   0  0  0  0  0  0  0  0  0  0  0  0
   -0.1102   -0.9953   -4.0973 C   0  0  0  0  0  0  0  0  0  0  0  0
    0.7639   -1.5877   -3.8080 H   0  0  0  0  0  0  0  0  0  0  0  0
   -0.9753   -1.6648   -4.1230 H   0  0  0  0  0  0  0  0  0  0  0  0
    0.1053   -0.3852   -5.4337 N   0  3  0  0  0  0  0  0  0  0  0  0
    0.9111    0.2275   -5.4190 H   0  0  0  0  0  0  0  0  0  0  0  0
    0.2627   -1.1020   -6.1311 H   0  0  0  0  0  0  0  0  0  0  0  0
   -0.7047    0.1573   -5.7101 H   0  0  0  0  0  0  0  0  0  0  0  0
   -1.1058    0.9771    1.8964 C   0  0  0  0  0  0  0  0  0  0  0  0
   -0.6669    2.0923    1.6408 O   0  0  0  0  0  0  0  0  0  0  0  0
   -1.5762    0.6349    3.1002 N   0  0  0  0  0  0  0  0  0  0  0  0
   -1.9466   -0.2941    3.2136 H   0  0  0  0  0  0  0  0  0  0  0  0
   -1.6610    1.5522    4.2382 C   0  0  0  0  0  0  0  0  0  0  0  0
   -2.3320    2.3791    3.9960 H   0  0  0  0  0  0  0  0  0  0  0  0
   -2.0416    1.0330    5.1185 H   0  0  0  0  0  0  0  0  0  0  0  0
   -0.6742    1.9638    4.4612 H   0  0  0  0  0  0  0  0  0  0  0  0
  5  6  2  0  0  0  0
  5  7  1  0  0  0  0
  2  3  1  0  0  0  0
  2  4  1  0  0  0  0
  2  5  1  0  0  0  0
  1  2  1  0  0  0  0
 27 28  2  0  0  0  0
 27 29  1  0  0  0  0
 23 24  1  0  0  0  0
 23 25  1  0  0  0  0
 23 26  1  0  0  0  0
 20 21  1  0  0  0  0
 20 22  1  0  0  0  0
 20 23  1  0  0  0  0
 17 18  1  0  0  0  0
 17 19  1  0  0  0  0
 17 20  1  0  0  0  0
 14 15  1  0  0  0  0
 14 16  1  0  0  0  0
 14 17  1  0  0  0  0
 11 12  1  0  0  0  0
 11 13  1  0  0  0  0
 11 14  1  0  0  0  0
  9 10  1  0  0  0  0
  9 11  1  0  0  0  0
  9 27  1  0  0  0  0
  7  8  1  0  0  0  0
  7  9  1  0  0  0  0
 31 32  1  0  0  0  0
 31 33  1  0  0  0  0
 31 34  1  0  0  0  0
 29 30  1  0  0  0  0
 29 31  1  0  0  0  0
M  CHG  1  23   1
M  END
$$$$
default_name
  -OEChem-01062215323D

 34 33  0     1  0  0  0  0  0999 V2000
   -3.8899   -3.6747    1.6490 H   0  0  0  0  0  0  0  0  0  0  0  0
   -3.9109   -2.6717    1.2250 C   0  0  0  0  0  0  0  0  0  0  0  0
   -4.6009   -2.0517    1.7950 H   0  0  0  0  0  0  0  0  0  0  0  0
   -4.2309   -2.7237    0.1860 H   0  0  0  0  0  0  0  0  0  0  0  0
   -2.5229   -2.0787    1.2980 C   0  0  0  0  0  0  0  0  0  0  0  0
   -1.5999   -2.7227    1.7810 O   0  0  0  0  0  0  0  0  0  0  0  0
   -2.3659   -0.8447    0.8120 N   0  0  0  0  0  0  0  0  0  0  0  0
   -3.1749   -0.3807    0.4220 H   0  0  0  0  0  0  0  0  0  0  0  0
   -1.0919   -0.1077    0.8170 C   0  0  1  0  0  0  0  0  0  0  0  0
   -0.2890   -0.8132    1.0387 H   0  0  0  0  0  0  0  0  0  0  0  0
   -0.8619    0.4820   -0.5872 C   0  0  0  0  0  0  0  0  0  0  0  0
   -1.7505    1.0445   -0.8778 H   0  0  0  0  0  0  0  0  0  0  0  0
   -0.0179    1.1736   -0.5520 H   0  0  0  0  0  0  0  0  0  0  0  0
   -0.5956   -0.5872   -1.6579 C   0  0  0  0  0  0  0  0  0  0  0  0
    0.2819   -1.1733   -1.3816 H   0  0  0  0  0  0  0  0  0  0  0  0
   -1.4601   -1.2504   -1.7264 H   0  0  0  0  0  0  0  0  0  0  0  0
   -0.3516    0.0719   -3.0225 C   0  0  0  0  0  0  0  0  0  0  0  0
   -1.2261    0.6701   -3.2894 H   0  0  0  0  0  0  0  0  0  0  0  0
    0.5192    0.7267   -2.9510 H   0  0  0  0  0  0  0  0  0  0  0  0
   -0.1102   -0.9953   -4.0973 C   0  0  0  0  0  0  0  0  0  0  0  0
    0.7639   -1.5877   -3.8080 H   0  0  0  0  0  0  0  0  0  0  0  0
   -0.9753   -1.6648   -4.1230 H   0  0  0  0  0  0  0  0  0  0  0  0
    0.1053   -0.3852   -5.4337 N   0  3  0  0  0  0  0  0  0  0  0  0
    0.9111    0.2275   -5.4190 H   0  0  0  0  0  0  0  0  0  0  0  0
    0.2627   -1.1020   -6.1311 H   0  0  0  0  0  0  0  0  0  0  0  0
   -0.7047    0.1573   -5.7101 H   0  0  0  0  0  0  0  0  0  0  0  0
   -1.1058    0.9771    1.8964 C   0  0  0  0  0  0  0  0  0  0  0  0
   -0.9325    2.1484    1.5810 O   0  0  0  0  0  0  0  0  0  0  0  0
   -1.2771    0.5783    3.1610 N   0  0  0  0  0  0  0  0  0  0  0  0
   -1.4443   -0.4004    3.3268 H   0  0  0  0  0  0  0  0  0  0  0  0
   -1.3181    1.4865    4.3085 C   0  0  0  0  0  0  0  0  0  0  0  0
   -2.1617    2.1724    4.2059 H   0  0  0  0  0  0  0  0  0  0  0  0
   -1.4295    0.9238    5.2360 H   0  0  0  0  0  0  0  0  0  0  0  0
   -0.3993    2.0755    4.3525 H   0  0  0  0  0  0  0  0  0  0  0  0
  5  6  2  0  0  0  0
  5  7  1  0  0  0  0
  2  3  1  0  0  0  0
  2  4  1  0  0  0  0
  2  5  1  0  0  0  0
  1  2  1  0  0  0  0
 27 28  2  0  0  0  0
 27 29  1  0  0  0  0
 23 24  1  0  0  0  0
 23 25  1  0  0  0  0
 23 26  1  0  0  0  0
 20 21  1  0  0  0  0
 20 22  1  0  0  0  0
 20 23  1  0  0  0  0
 17 18  1  0  0  0  0
 17 19  1  0  0  0  0
 17 20  1  0  0  0  0
 14 15  1  0  0  0  0
 14 16  1  0  0  0  0
 14 17  1  0  0  0  0
 11 12  1  0  0  0  0
 11 13  1  0  0  0  0
 11 14  1  0  0  0  0
  9 10  1  0  0  0  0
  9 11  1  0  0  0  0
  9 27  1  0  0  0  0
  7  8  1  0  0  0  0
  7  9  1  0  0  0  0
 31 32  1  0  0  0  0
 31 33  1  0  0  0  0
 31 34  1  0  0  0  0
 29 30  1  0  0  0  0
 29 31  1  0  0  0  0
M  CHG  1  23   1
M  END
$$$$
default_name
  -OEChem-01062215323D

 34 33  0     1  0  0  0  0  0999 V2000
   -3.8899   -3.6747    1.6490 H   0  0  0  0  0  0  0  0  0  0  0  0
   -3.9109   -2.6717    1.2250 C   0  0  0  0  0  0  0  0  0  0  0  0
   -4.6009   -2.0517    1.7950 H   0  0  0  0  0  0  0  0  0  0  0  0
   -4.2309   -2.7237    0.1860 H   0  0  0  0  0  0  0  0  0  0  0  0
   -2.5229   -2.0787    1.2980 C   0  0  0  0  0  0  0  0  0  0  0  0
   -1.5999   -2.7227    1.7810 O   0  0  0  0  0  0  0  0  0  0  0  0
   -2.3659   -0.8447    0.8120 N   0  0  0  0  0  0  0  0  0  0  0  0
   -3.1749   -0.3807    0.4220 H   0  0  0  0  0  0  0  0  0  0  0  0
   -1.0919   -0.1077    0.8170 C   0  0  1  0  0  0  0  0  0  0  0  0
   -0.2890   -0.8132    1.0387 H   0  0  0  0  0  0  0  0  0  0  0  0
   -0.8619    0.4820   -0.5872 C   0  0  0  0  0  0  0  0  0  0  0  0
   -1.7505    1.0445   -0.8778 H   0  0  0  0  0  0  0  0  0  0  0  0
   -0.0179    1.1736   -0.5520 H   0  0  0  0  0  0  0  0  0  0  0  0
   -0.5956   -0.5872   -1.6579 C   0  0  0  0  0  0  0  0  0  0  0  0
    0.2819   -1.1733   -1.3816 H   0  0  0  0  0  0  0  0  0  0  0  0
   -1.4601   -1.2504   -1.7264 H   0  0  0  0  0  0  0  0  0  0  0  0
   -0.3516    0.0719   -3.0225 C   0  0  0  0  0  0  0  0  0  0  0  0
   -1.2261    0.6701   -3.2894 H   0  0  0  0  0  0  0  0  0  0  0  0
    0.5192    0.7267   -2.9510 H   0  0  0  0  0  0  0  0  0  0  0  0
   -0.1102   -0.9953   -4.0973 C   0  0  0  0  0  0  0  0  0  0  0  0
    0.7639   -1.5877   -3.8080 H   0  0  0  0  0  0  0  0  0  0  0  0
   -0.9753   -1.6648   -4.1230 H   0  0  0  0  0  0  0  0  0  0  0  0
    0.1053   -0.3852   -5.4337 N   0  3  0  0  0  0  0  0  0  0  0  0
    0.9111    0.2275   -5.4190 H   0  0  0  0  0  0  0  0  0  0  0  0
    0.2627   -1.1020   -6.1311 H   0  0  0  0  0  0  0  0  0  0  0  0
   -0.7047    0.1573   -5.7101 H   0  0  0  0  0  0  0  0  0  0  0  0
   -1.1058    0.9771    1.8964 C   0  0  0  0  0  0  0  0  0  0  0  0
   -1.2102    2.1541    1.5718 O   0  0  0  0  0  0  0  0  0  0  0  0
   -0.9666    0.5783    3.1649 N   0  0  0  0  0  0  0  0  0  0  0  0
   -0.9188   -0.4110    3.3442 H   0  0  0  0  0  0  0  0  0  0  0  0
   -0.9619    1.4859    4.3137 C   0  0  0  0  0  0  0  0  0  0  0  0
   -1.9210    2.0044    4.3779 H   0  0  0  0  0  0  0  0  0  0  0  0
   -0.7968    0.9304    5.2375 H   0  0  0  0  0  0  0  0  0  0  0  0
   -0.1741    2.2332    4.1968 H   0  0  0  0  0  0  0  0  0  0  0  0
  5  6  2  0  0  0  0
  5  7  1  0  0  0  0
  2  3  1  0  0  0  0
  2  4  1  0  0  0  0
  2  5  1  0  0  0  0
  1  2  1  0  0  0  0
 27 28  2  0  0  0  0
 27 29  1  0  0  0  0
 23 24  1  0  0  0  0
 23 25  1  0  0  0  0
 23 26  1  0  0  0  0
 20 21  1  0  0  0  0
 20 22  1  0  0  0  0
 20 23  1  0  0  0  0
 17 18  1  0  0  0  0
 17 19  1  0  0  0  0
 17 20  1  0  0  0  0
 14 15  1  0  0  0  0
 14 16  1  0  0  0  0
 14 17  1  0  0  0  0
 11 12  1  0  0  0  0
 11 13  1  0  0  0  0
 11 14  1  0  0  0  0
  9 10  1  0  0  0  0
  9 11  1  0  0  0  0
  9 27  1  0  0  0  0
  7  8  1  0  0  0  0
  7  9  1  0  0  0  0
 31 32  1  0  0  0  0
 31 33  1  0  0  0  0
 31 34  1  0  0  0  0
 29 30  1  0  0  0  0
 29 31  1  0  0  0  0
M  CHG  1  23   1
M  END
$$$$
default_name
  -OEChem-01062215323D

 34 33  0     1  0  0  0  0  0999 V2000
   -3.8899   -3.6747    1.6490 H   0  0  0  0  0  0  0  0  0  0  0  0
   -3.9109   -2.6717    1.2250 C   0  0  0  0  0  0  0  0  0  0  0  0
   -4.6009   -2.0517    1.7950 H   0  0  0  0  0  0  0  0  0  0  0  0
   -4.2309   -2.7237    0.1860 H   0  0  0  0  0  0  0  0  0  0  0  0
   -2.5229   -2.0787    1.2980 C   0  0  0  0  0  0  0  0  0  0  0  0
   -1.5999   -2.7227    1.7810 O   0  0  0  0  0  0  0  0  0  0  0  0
   -2.3659   -0.8447    0.8120 N   0  0  0  0  0  0  0  0  0  0  0  0
   -3.1749   -0.3807    0.4220 H   0  0  0  0  0  0  0  0  0  0  0  0
   -1.0919   -0.1077    0.8170 C   0  0  1  0  0  0  0  0  0  0  0  0
   -0.2890   -0.8132    1.0387 H   0  0  0  0  0  0  0  0  0  0  0  0
   -0.8619    0.4820   -0.5872 C   0  0  0  0  0  0  0  0  0  0  0  0
   -1.7505    1.0445   -0.8778 H   0  0  0  0  0  0  0  0  0  0  0  0
   -0.0179    1.1736   -0.5520 H   0  0  0  0  0  0  0  0  0  0  0  0
   -0.5956   -0.5872   -1.6579 C   0  0  0  0  0  0  0  0  0  0  0  0
    0.2819   -1.1733   -1.3816 H   0  0  0  0  0  0  0  0  0  0  0  0
   -1.4601   -1.2504   -1.7264 H   0  0  0  0  0  0  0  0  0  0  0  0
   -0.3516    0.0719   -3.0225 C   0  0  0  0  0  0  0  0  0  0  0  0
   -1.2261    0.6701   -3.2894 H   0  0  0  0  0  0  0  0  0  0  0  0
    0.5192    0.7267   -2.9510 H   0  0  0  0  0  0  0  0  0  0  0  0
   -0.1102   -0.9953   -4.0973 C   0  0  0  0  0  0  0  0  0  0  0  0
    0.7639   -1.5877   -3.8080 H   0  0  0  0  0  0  0  0  0  0  0  0
   -0.9753   -1.6648   -4.1230 H   0  0  0  0  0  0  0  0  0  0  0  0
    0.1053   -0.3852   -5.4337 N   0  3  0  0  0  0  0  0  0  0  0  0
    0.9111    0.2275   -5.4190 H   0  0  0  0  0  0  0  0  0  0  0  0
    0.2627   -1.1020   -6.1311 H   0  0  0  0  0  0  0  0  0  0  0  0
   -0.7047    0.1573   -5.7101 H   0  0  0  0  0  0  0  0  0  0  0  0
   -1.1058    0.9771    1.8964 C   0  0  0  0  0  0  0  0  0  0  0  0
   -1.4813    2.1088    1.6138 O   0  0  0  0  0  0  0  0  0  0  0  0
   -0.6660    0.6350    3.1118 N   0  0  0  0  0  0  0  0  0  0  0  0
   -0.4062   -0.3253    3.2647 H   0  0  0  0  0  0  0  0  0  0  0  0
   -0.6169    1.5504    4.2534 C   0  0  0  0  0  0  0  0  0  0  0  0
   -1.6263    1.8864    4.5002 H   0  0  0  0  0  0  0  0  0  0  0  0
   -0.1865    1.0522    5.1229 H   0  0  0  0  0  0  0  0  0  0  0  0
   -0.0138    2.4264    4.0048 H   0  0  0  0  0  0  0  0  0  0  0  0
  5  6  2  0  0  0  0
  5  7  1  0  0  0  0
  2  3  1  0  0  0  0
  2  4  1  0  0  0  0
  2  5  1  0  0  0  0
  1  2  1  0  0  0  0
 27 28  2  0  0  0  0
 27 29  1  0  0  0  0
 23 24  1  0  0  0  0
 23 25  1  0  0  0  0
 23 26  1  0  0  0  0
 20 21  1  0  0  0  0
 20 22  1  0  0  0  0
 20 23  1  0  0  0  0
 17 18  1  0  0  0  0
 17 19  1  0  0  0  0
 17 20  1  0  0  0  0
 14 15  1  0  0  0  0
 14 16  1  0  0  0  0
 14 17  1  0  0  0  0
 11 12  1  0  0  0  0
 11 13  1  0  0  0  0
 11 14  1  0  0  0  0
  9 10  1  0  0  0  0
  9 11  1  0  0  0  0
  9 27  1  0  0  0  0
  7  8  1  0  0  0  0
  7  9  1  0  0  0  0
 31 32  1  0  0  0  0
 31 33  1  0  0  0  0
 31 34  1  0  0  0  0
 29 30  1  0  0  0  0
 29 31  1  0  0  0  0
M  CHG  1  23   1
M  END
$$$$
default_name
  -OEChem-01062215323D

 34 33  0     1  0  0  0  0  0999 V2000
   -3.8899   -3.6747    1.6490 H   0  0  0  0  0  0  0  0  0  0  0  0
   -3.9109   -2.6717    1.2250 C   0  0  0  0  0  0  0  0  0  0  0  0
   -4.6009   -2.0517    1.7950 H   0  0  0  0  0  0  0  0  0  0  0  0
   -4.2309   -2.7237    0.1860 H   0  0  0  0  0  0  0  0  0  0  0  0
   -2.5229   -2.0787    1.2980 C   0  0  0  0  0  0  0  0  0  0  0  0
   -1.5999   -2.7227    1.7810 O   0  0  0  0  0  0  0  0  0  0  0  0
   -2.3659   -0.8447    0.8120 N   0  0  0  0  0  0  0  0  0  0  0  0
   -3.1749   -0.3807    0.4220 H   0  0  0  0  0  0  0  0  0  0  0  0
   -1.0919   -0.1077    0.8170 C   0  0  1  0  0  0  0  0  0  0  0  0
   -0.2890   -0.8132    1.0387 H   0  0  0  0  0  0  0  0  0  0  0  0
   -0.8619    0.4820   -0.5872 C   0  0  0  0  0  0  0  0  0  0  0  0
   -1.7505    1.0445   -0.8778 H   0  0  0  0  0  0  0  0  0  0  0  0
   -0.0179    1.1736   -0.5520 H   0  0  0  0  0  0  0  0  0  0  0  0
   -0.5956   -0.5872   -1.6579 C   0  0  0  0  0  0  0  0  0  0  0  0
    0.2819   -1.1733   -1.3816 H   0  0  0  0  0  0  0  0  0  0  0  0
   -1.4601   -1.2504   -1.7264 H   0  0  0  0  0  0  0  0  0  0  0  0
   -0.3516    0.0719   -3.0225 C   0  0  0  0  0  0  0  0  0  0  0  0
   -1.2261    0.6701   -3.2894 H   0  0  0  0  0  0  0  0  0  0  0  0
    0.5192    0.7267   -2.9510 H   0  0  0  0  0  0  0  0  0  0  0  0
   -0.1102   -0.9953   -4.0973 C   0  0  0  0  0  0  0  0  0  0  0  0
    0.7639   -1.5877   -3.8080 H   0  0  0  0  0  0  0  0  0  0  0  0
   -0.9753   -1.6648   -4.1230 H   0  0  0  0  0  0  0  0  0  0  0  0
    0.1053   -0.3852   -5.4337 N   0  3  0  0  0  0  0  0  0  0  0  0
    0.9111    0.2275   -5.4190 H   0  0  0  0  0  0  0  0  0  0  0  0
    0.2627   -1.1020   -6.1311 H   0  0  0  0  0  0  0  0  0  0  0  0
   -0.7047    0.1573   -5.7101 H   0  0  0  0  0  0  0  0  0  0  0  0
   -1.1058    0.9771    1.8964 C   0  0  0  0  0  0  0  0  0  0  0  0
   -1.7271    2.0156    1.7042 O   0  0  0  0  0  0  0  0  0  0  0  0
   -0.3957    0.7445    3.0052 N   0  0  0  0  0  0  0  0  0  0  0  0
    0.0587   -0.1492    3.0936 H   0  0  0  0  0  0  0  0  0  0  0  0
   -0.3064    1.6754    4.1316 C   0  0  0  0  0  0  0  0  0  0  0  0
   -1.2976    1.8265    4.5646 H   0  0  0  0  0  0  0  0  0  0  0  0
    0.3597    1.2811    4.8999 H   0  0  0  0  0  0  0  0  0  0  0  0
    0.0704    2.6418    3.7894 H   0  0  0  0  0  0  0  0  0  0  0  0
  5  6  2  0  0  0  0
  5  7  1  0  0  0  0
  2  3  1  0  0  0  0
  2  4  1  0  0  0  0
  2  5  1  0  0  0  0
  1  2  1  0  0  0  0
 27 28  2  0  0  0  0
 27 29  1  0  0  0  0
 23 24  1  0  0  0  0
 23 25  1  0  0  0  0
 23 26  1  0  0  0  0
 20 21  1  0  0  0  0
 20 22  1  0  0  0  0
 20 23  1  0  0  0  0
 17 18  1  0  0  0  0
 17 19  1  0  0  0  0
 17 20  1  0  0  0  0
 14 15  1  0  0  0  0
 14 16  1  0  0  0  0
 14 17  1  0  0  0  0
 11 12  1  0  0  0  0
 11 13  1  0  0  0  0
 11 14  1  0  0  0  0
  9 10  1  0  0  0  0
  9 11  1  0  0  0  0
  9 27  1  0  0  0  0
  7  8  1  0  0  0  0
  7  9  1  0  0  0  0
 31 32  1  0  0  0  0
 31 33  1  0  0  0  0
 31 34  1  0  0  0  0
 29 30  1  0  0  0  0
 29 31  1  0  0  0  0
M  CHG  1  23   1
M  END
$$$$
default_name
  -OEChem-01062215323D

 34 33  0     1  0  0  0  0  0999 V2000
   -3.8899   -3.6747    1.6490 H   0  0  0  0  0  0  0  0  0  0  0  0
   -3.9109   -2.6717    1.2250 C   0  0  0  0  0  0  0  0  0  0  0  0
   -4.6009   -2.0517    1.7950 H   0  0  0  0  0  0  0  0  0  0  0  0
   -4.2309   -2.7237    0.1860 H   0  0  0  0  0  0  0  0  0  0  0  0
   -2.5229   -2.0787    1.2980 C   0  0  0  0  0  0  0  0  0  0  0  0
   -1.5999   -2.7227    1.7810 O   0  0  0  0  0  0  0  0  0  0  0  0
   -2.3659   -0.8447    0.8120 N   0  0  0  0  0  0  0  0  0  0  0  0
   -3.1749   -0.3807    0.4220 H   0  0  0  0  0  0  0  0  0  0  0  0
   -1.0919   -0.1077    0.8170 C   0  0  1  0  0  0  0  0  0  0  0  0
   -0.2890   -0.8132    1.0387 H   0  0  0  0  0  0  0  0  0  0  0  0
   -0.8619    0.4820   -0.5872 C   0  0  0  0  0  0  0  0  0  0  0  0
   -1.7505    1.0445   -0.8778 H   0  0  0  0  0  0  0  0  0  0  0  0
   -0.0179    1.1736   -0.5520 H   0  0  0  0  0  0  0  0  0  0  0  0
   -0.5956   -0.5872   -1.6579 C   0  0  0  0  0  0  0  0  0  0  0  0
    0.2819   -1.1733   -1.3816 H   0  0  0  0  0  0  0  0  0  0  0  0
   -1.4601   -1.2504   -1.7264 H   0  0  0  0  0  0  0  0  0  0  0  0
   -0.3516    0.0719   -3.0225 C   0  0  0  0  0  0  0  0  0  0  0  0
   -1.2261    0.6701   -3.2894 H   0  0  0  0  0  0  0  0  0  0  0  0
    0.5192    0.7267   -2.9510 H   0  0  0  0  0  0  0  0  0  0  0  0
   -0.1102   -0.9953   -4.0973 C   0  0  0  0  0  0  0  0  0  0  0  0
    0.7639   -1.5877   -3.8080 H   0  0  0  0  0  0  0  0  0  0  0  0
   -0.9753   -1.6648   -4.1230 H   0  0  0  0  0  0  0  0  0  0  0  0
    0.1053   -0.3852   -5.4337 N   0  3  0  0  0  0  0  0  0  0  0  0
    0.9111    0.2275   -5.4190 H   0  0  0  0  0  0  0  0  0  0  0  0
    0.2627   -1.1020   -6.1311 H   0  0  0  0  0  0  0  0  0  0  0  0
   -0.7047    0.1573   -5.7101 H   0  0  0  0  0  0  0  0  0  0  0  0
   -1.1058    0.9771    1.8964 C   0  0  0  0  0  0  0  0  0  0  0  0
   -1.9309    1.8810    1.8369 O   0  0  0  0  0  0  0  0  0  0  0  0
   -0.1743    0.8994    2.8524 N   0  0  0  0  0  0  0  0  0  0  0  0
    0.4443    0.1054    2.8427 H   0  0  0  0  0  0  0  0  0  0  0  0
   -0.0517    1.8527    3.9568 C   0  0  0  0  0  0  0  0  0  0  0  0
   -0.9574    1.8288    4.5666 H   0  0  0  0  0  0  0  0  0  0  0  0
    0.8045    1.6013    4.5838 H   0  0  0  0  0  0  0  0  0  0  0  0
    0.0730    2.8647    3.5654 H   0  0  0  0  0  0  0  0  0  0  0  0
  5  6  2  0  0  0  0
  5  7  1  0  0  0  0
  2  3  1  0  0  0  0
  2  4  1  0  0  0  0
  2  5  1  0  0  0  0
  1  2  1  0  0  0  0
 27 28  2  0  0  0  0
 27 29  1  0  0  0  0
 23 24  1  0  0  0  0
 23 25  1  0  0  0  0
 23 26  1  0  0  0  0
 20 21  1  0  0  0  0
 20 22  1  0  0  0  0
 20 23  1  0  0  0  0
 17 18  1  0  0  0  0
 17 19  1  0  0  0  0
 17 20  1  0  0  0  0
 14 15  1  0  0  0  0
 14 16  1  0  0  0  0
 14 17  1  0  0  0  0
 11 12  1  0  0  0  0
 11 13  1  0  0  0  0
 11 14  1  0  0  0  0
  9 10  1  0  0  0  0
  9 11  1  0  0  0  0
  9 27  1  0  0  0  0
  7  8  1  0  0  0  0
  7  9  1  0  0  0  0
 31 32  1  0  0  0  0
 31 33  1  0  0  0  0
 31 34  1  0  0  0  0
 29 30  1  0  0  0  0
 29 31  1  0  0  0  0
M  CHG  1  23   1
M  END
$$$$
default_name
  -OEChem-01062215323D

 34 33  0     1  0  0  0  0  0999 V2000
   -3.8899   -3.6747    1.6490 H   0  0  0  0  0  0  0  0  0  0  0  0
   -3.9109   -2.6717    1.2250 C   0  0  0  0  0  0  0  0  0  0  0  0
   -4.6009   -2.0517    1.7950 H   0  0  0  0  0  0  0  0  0  0  0  0
   -4.2309   -2.7237    0.1860 H   0  0  0  0  0  0  0  0  0  0  0  0
   -2.5229   -2.0787    1.2980 C   0  0  0  0  0  0  0  0  0  0  0  0
   -1.5999   -2.7227    1.7810 O   0  0  0  0  0  0  0  0  0  0  0  0
   -2.3659   -0.8447    0.8120 N   0  0  0  0  0  0  0  0  0  0  0  0
   -3.1749   -0.3807    0.4220 H   0  0  0  0  0  0  0  0  0  0  0  0
   -1.0919   -0.1077    0.8170 C   0  0  1  0  0  0  0  0  0  0  0  0
   -0.2890   -0.8132    1.0387 H   0  0  0  0  0  0  0  0  0  0  0  0
   -0.8619    0.4820   -0.5872 C   0  0  0  0  0  0  0  0  0  0  0  0
   -1.7505    1.0445   -0.8778 H   0  0  0  0  0  0  0  0  0  0  0  0
   -0.0179    1.1736   -0.5520 H   0  0  0  0  0  0  0  0  0  0  0  0
   -0.5956   -0.5872   -1.6579 C   0  0  0  0  0  0  0  0  0  0  0  0
    0.2819   -1.1733   -1.3816 H   0  0  0  0  0  0  0  0  0  0  0  0
   -1.4601   -1.2504   -1.7264 H   0  0  0  0  0  0  0  0  0  0  0  0
   -0.3516    0.0719   -3.0225 C   0  0  0  0  0  0  0  0  0  0  0  0
   -1.2261    0.6701   -3.2894 H   0  0  0  0  0  0  0  0  0  0  0  0
    0.5192    0.7267   -2.9510 H   0  0  0  0  0  0  0  0  0  0  0  0
   -0.1102   -0.9953   -4.0973 C   0  0  0  0  0  0  0  0  0  0  0  0
    0.7639   -1.5877   -3.8080 H   0  0  0  0  0  0  0  0  0  0  0  0
   -0.9753   -1.6648   -4.1230 H   0  0  0  0  0  0  0  0  0  0  0  0
    0.1053   -0.3852   -5.4337 N   0  3  0  0  0  0  0  0  0  0  0  0
    0.9111    0.2275   -5.4190 H   0  0  0  0  0  0  0  0  0  0  0  0
    0.2627   -1.1020   -6.1311 H   0  0  0  0  0  0  0  0  0  0  0  0
   -0.7047    0.1573   -5.7101 H   0  0  0  0  0  0  0  0  0  0  0  0
   -1.1058    0.9771    1.8964 C   0  0  0  0  0  0  0  0  0  0  0  0
   -2.0789    1.7141    2.0028 O   0  0  0  0  0  0  0  0  0  0  0  0
   -0.0166    1.0891    2.6638 N   0  0  0  0  0  0  0  0  0  0  0  0
    0.7242    0.4211    2.5290 H   0  0  0  0  0  0  0  0  0  0  0  0
    0.1299    2.0699    3.7408 C   0  0  0  0  0  0  0  0  0  0  0  0
   -0.6288    1.8932    4.5062 H   0  0  0  0  0  0  0  0  0  0  0  0
    1.1178    1.9911    4.1960 H   0  0  0  0  0  0  0  0  0  0  0  0
   -0.0063    3.0799    3.3481 H   0  0  0  0  0  0  0  0  0  0  0  0
  5  6  2  0  0  0  0
  5  7  1  0  0  0  0
  2  3  1  0  0  0  0
  2  4  1  0  0  0  0
  2  5  1  0  0  0  0
  1  2  1  0  0  0  0
 27 28  2  0  0  0  0
 27 29  1  0  0  0  0
 23 24  1  0  0  0  0
 23 25  1  0  0  0  0
 23 26  1  0  0  0  0
 20 21  1  0  0  0  0
 20 22  1  0  0  0  0
 20 23  1  0  0  0  0
 17 18  1  0  0  0  0
 17 19  1  0  0  0  0
 17 20  1  0  0  0  0
 14 15  1  0  0  0  0
 14 16  1  0  0  0  0
 14 17  1  0  0  0  0
 11 12  1  0  0  0  0
 11 13  1  0  0  0  0
 11 14  1  0  0  0  0
  9 10  1  0  0  0  0
  9 11  1  0  0  0  0
  9 27  1  0  0  0  0
  7  8  1  0  0  0  0
  7  9  1  0  0  0  0
 31 32  1  0  0  0  0
 31 33  1  0  0  0  0
 31 34  1  0  0  0  0
 29 30  1  0  0  0  0
 29 31  1  0  0  0  0
M  CHG  1  23   1
M  END
$$$$
default_name
  -OEChem-01062215323D

 34 33  0     1  0  0  0  0  0999 V2000
   -3.8899   -3.6747    1.6490 H   0  0  0  0  0  0  0  0  0  0  0  0
   -3.9109   -2.6717    1.2250 C   0  0  0  0  0  0  0  0  0  0  0  0
   -4.6009   -2.0517    1.7950 H   0  0  0  0  0  0  0  0  0  0  0  0
   -4.2309   -2.7237    0.1860 H   0  0  0  0  0  0  0  0  0  0  0  0
   -2.5229   -2.0787    1.2980 C   0  0  0  0  0  0  0  0  0  0  0  0
   -1.5999   -2.7227    1.7810 O   0  0  0  0  0  0  0  0  0  0  0  0
   -2.3659   -0.8447    0.8120 N   0  0  0  0  0  0  0  0  0  0  0  0
   -3.1749   -0.3807    0.4220 H   0  0  0  0  0  0  0  0  0  0  0  0
   -1.0919   -0.1077    0.8170 C   0  0  1  0  0  0  0  0  0  0  0  0
   -0.2890   -0.8132    1.0387 H   0  0  0  0  0  0  0  0  0  0  0  0
   -0.8619    0.4820   -0.5872 C   0  0  0  0  0  0  0  0  0  0  0  0
   -1.7505    1.0445   -0.8778 H   0  0  0  0  0  0  0  0  0  0  0  0
   -0.0179    1.1736   -0.5520 H   0  0  0  0  0  0  0  0  0  0  0  0
   -0.5956   -0.5872   -1.6579 C   0  0  0  0  0  0  0  0  0  0  0  0
    0.2819   -1.1733   -1.3816 H   0  0  0  0  0  0  0  0  0  0  0  0
   -1.4601   -1.2504   -1.7264 H   0  0  0  0  0  0  0  0  0  0  0  0
   -0.3516    0.0719   -3.0225 C   0  0  0  0  0  0  0  0  0  0  0  0
   -1.2261    0.6701   -3.2894 H   0  0  0  0  0  0  0  0  0  0  0  0
    0.5192    0.7267   -2.9510 H   0  0  0  0  0  0  0  0  0  0  0  0
   -0.1102   -0.9953   -4.0973 C   0  0  0  0  0  0  0  0  0  0  0  0
    0.7639   -1.5877   -3.8080 H   0  0  0  0  0  0  0  0  0  0  0  0
   -0.9753   -1.6648   -4.1230 H   0  0  0  0  0  0  0  0  0  0  0  0
    0.1053   -0.3852   -5.4337 N   0  3  0  0  0  0  0  0  0  0  0  0
    0.9111    0.2275   -5.4190 H   0  0  0  0  0  0  0  0  0  0  0  0
    0.2627   -1.1020   -6.1311 H   0  0  0  0  0  0  0  0  0  0  0  0
   -0.7047    0.1573   -5.7101 H   0  0  0  0  0  0  0  0  0  0  0  0
   -1.1058    0.9771    1.8964 C   0  0  0  0  0  0  0  0  0  0  0  0
   -2.1610    1.5262    2.1906 O   0  0  0  0  0  0  0  0  0  0  0  0
    0.0664    1.3006    2.4522 N   0  0  0  0  0  0  0  0  0  0  0  0
    0.8794    0.7765    2.1738 H   0  0  0  0  0  0  0  0  0  0  0  0
    0.2261    2.3124    3.4983 C   0  0  0  0  0  0  0  0  0  0  0  0
   -0.3342    2.0152    4.3873 H   0  0  0  0  0  0  0  0  0  0  0  0
    1.2781    2.4239    3.7631 H   0  0  0  0  0  0  0  0  0  0  0  0
   -0.1621    3.2729    3.1522 H   0  0  0  0  0  0  0  0  0  0  0  0
  5  6  2  0  0  0  0
  5  7  1  0  0  0  0
  2  3  1  0  0  0  0
  2  4  1  0  0  0  0
  2  5  1  0  0  0  0
  1  2  1  0  0  0  0
 27 28  2  0  0  0  0
 27 29  1  0  0  0  0
 23 24  1  0  0  0  0
 23 25  1  0  0  0  0
 23 26  1  0  0  0  0
 20 21  1  0  0  0  0
 20 22  1  0  0  0  0
 20 23  1  0  0  0  0
 17 18  1  0  0  0  0
 17 19  1  0  0  0  0
 17 20  1  0  0  0  0
 14 15  1  0  0  0  0
 14 16  1  0  0  0  0
 14 17  1  0  0  0  0
 11 12  1  0  0  0  0
 11 13  1  0  0  0  0
 11 14  1  0  0  0  0
  9 10  1  0  0  0  0
  9 11  1  0  0  0  0
  9 27  1  0  0  0  0
  7  8  1  0  0  0  0
  7  9  1  0  0  0  0
 31 32  1  0  0  0  0
 31 33  1  0  0  0  0
 31 34  1  0  0  0  0
 29 30  1  0  0  0  0
 29 31  1  0  0  0  0
M  CHG  1  23   1
M  END
$$$$
default_name
  -OEChem-01062215323D

 34 33  0     1  0  0  0  0  0999 V2000
   -3.8899   -3.6747    1.6490 H   0  0  0  0  0  0  0  0  0  0  0  0
   -3.9109   -2.6717    1.2250 C   0  0  0  0  0  0  0  0  0  0  0  0
   -4.6009   -2.0517    1.7950 H   0  0  0  0  0  0  0  0  0  0  0  0
   -4.2309   -2.7237    0.1860 H   0  0  0  0  0  0  0  0  0  0  0  0
   -2.5229   -2.0787    1.2980 C   0  0  0  0  0  0  0  0  0  0  0  0
   -1.5999   -2.7227    1.7810 O   0  0  0  0  0  0  0  0  0  0  0  0
   -2.3659   -0.8447    0.8120 N   0  0  0  0  0  0  0  0  0  0  0  0
   -3.1749   -0.3807    0.4220 H   0  0  0  0  0  0  0  0  0  0  0  0
   -1.0919   -0.1077    0.8170 C   0  0  1  0  0  0  0  0  0  0  0  0
   -0.2890   -0.8132    1.0387 H   0  0  0  0  0  0  0  0  0  0  0  0
   -0.8619    0.4820   -0.5872 C   0  0  0  0  0  0  0  0  0  0  0  0
   -1.7505    1.0445   -0.8778 H   0  0  0  0  0  0  0  0  0  0  0  0
   -0.0179    1.1736   -0.5520 H   0  0  0  0  0  0  0  0  0  0  0  0
   -0.5956   -0.5872   -1.6579 C   0  0  0  0  0  0  0  0  0  0  0  0
    0.2819   -1.1733   -1.3816 H   0  0  0  0  0  0  0  0  0  0  0  0
   -1.4601   -1.2504   -1.7264 H   0  0  0  0  0  0  0  0  0  0  0  0
   -0.3516    0.0719   -3.0225 C   0  0  0  0  0  0  0  0  0  0  0  0
   -1.2261    0.6701   -3.2894 H   0  0  0  0  0  0  0  0  0  0  0  0
    0.5192    0.7267   -2.9510 H   0  0  0  0  0  0  0  0  0  0  0  0
   -0.1102   -0.9953   -4.0973 C   0  0  0  0  0  0  0  0  0  0  0  0
    0.7639   -1.5877   -3.8080 H   0  0  0  0  0  0  0  0  0  0  0  0
   -0.9753   -1.6648   -4.1230 H   0  0  0  0  0  0  0  0  0  0  0  0
    0.1053   -0.3852   -5.4337 N   0  3  0  0  0  0  0  0  0  0  0  0
    0.9111    0.2275   -5.4190 H   0  0  0  0  0  0  0  0  0  0  0  0
    0.2627   -1.1020   -6.1311 H   0  0  0  0  0  0  0  0  0  0  0  0
   -0.7047    0.1573   -5.7101 H   0  0  0  0  0  0  0  0  0  0  0  0
   -1.1058    0.9771    1.8964 C   0  0  0  0  0  0  0  0  0  0  0  0
   -2.1715    1.3302    2.3874 O   0  0  0  0  0  0  0  0  0  0  0  0
    0.0692    1.5197    2.2321 N   0  0  0  0  0  0  0  0  0  0  0  0
    0.8993    1.1472    1.8015 H   0  0  0  0  0  0  0  0  0  0  0  0
    0.2302    2.5637    3.2459 C   0  0  0  0  0  0  0  0  0  0  0  0
   -0.0938    2.1865    4.2182 H   0  0  0  0  0  0  0  0  0  0  0  0
    1.2745    2.8702    3.3146 H   0  0  0  0  0  0  0  0  0  0  0  0
   -0.3837    3.4303    2.9911 H   0  0  0  0  0  0  0  0  0  0  0  0
  5  6  2  0  0  0  0
  5  7  1  0  0  0  0
  2  3  1  0  0  0  0
  2  4  1  0  0  0  0
  2  5  1  0  0  0  0
  1  2  1  0  0  0  0
 27 28  2  0  0  0  0
 27 29  1  0  0  0  0
 23 24  1  0  0  0  0
 23 25  1  0  0  0  0
 23 26  1  0  0  0  0
 20 21  1  0  0  0  0
 20 22  1  0  0  0  0
 20 23  1  0  0  0  0
 17 18  1  0  0  0  0
 17 19  1  0  0  0  0
 17 20  1  0  0  0  0
 14 15  1  0  0  0  0
 14 16  1  0  0  0  0
 14 17  1  0  0  0  0
 11 12  1  0  0  0  0
 11 13  1  0  0  0  0
 11 14  1  0  0  0  0
  9 10  1  0  0  0  0
  9 11  1  0  0  0  0
  9 27  1  0  0  0  0
  7  8  1  0  0  0  0
  7  9  1  0  0  0  0
 31 32  1  0  0  0  0
 31 33  1  0  0  0  0
 31 34  1  0  0  0  0
 29 30  1  0  0  0  0
 29 31  1  0  0  0  0
M  CHG  1  23   1
M  END
$$$$
default_name
  -OEChem-01062215323D

 34 33  0     1  0  0  0  0  0999 V2000
   -3.8899   -3.6747    1.6490 H   0  0  0  0  0  0  0  0  0  0  0  0
   -3.9109   -2.6717    1.2250 C   0  0  0  0  0  0  0  0  0  0  0  0
   -4.6009   -2.0517    1.7950 H   0  0  0  0  0  0  0  0  0  0  0  0
   -4.2309   -2.7237    0.1860 H   0  0  0  0  0  0  0  0  0  0  0  0
   -2.5229   -2.0787    1.2980 C   0  0  0  0  0  0  0  0  0  0  0  0
   -1.5999   -2.7227    1.7810 O   0  0  0  0  0  0  0  0  0  0  0  0
   -2.3659   -0.8447    0.8120 N   0  0  0  0  0  0  0  0  0  0  0  0
   -3.1749   -0.3807    0.4220 H   0  0  0  0  0  0  0  0  0  0  0  0
   -1.0919   -0.1077    0.8170 C   0  0  1  0  0  0  0  0  0  0  0  0
   -0.2769   -0.8323    0.7691 H   0  0  0  0  0  0  0  0  0  0  0  0
   -1.0378    0.7850   -0.4370 C   0  0  0  0  0  0  0  0  0  0  0  0
   -1.9487    1.3844   -0.4766 H   0  0  0  0  0  0  0  0  0  0  0  0
   -0.1868    1.4643   -0.3573 H   0  0  0  0  0  0  0  0  0  0  0  0
   -0.9275   -0.0129   -1.7453 C   0  0  0  0  0  0  0  0  0  0  0  0
   -0.0298   -0.6321   -1.7234 H   0  0  0  0  0  0  0  0  0  0  0  0
   -1.8027   -0.6574   -1.8481 H   0  0  0  0  0  0  0  0  0  0  0  0
   -0.8534    0.9389   -2.9473 C   0  0  0  0  0  0  0  0  0  0  0  0
   -1.7468    1.5679   -2.9578 H   0  0  0  0  0  0  0  0  0  0  0  0
    0.0283    1.5746   -2.8443 H   0  0  0  0  0  0  0  0  0  0  0  0
   -0.7683    0.1434   -4.2559 C   0  0  0  0  0  0  0  0  0  0  0  0
    0.1276   -0.4850   -4.2224 H   0  0  0  0  0  0  0  0  0  0  0  0
   -1.6386   -0.5168   -4.3187 H   0  0  0  0  0  0  0  0  0  0  0  0
   -0.7195    1.0406   -5.4379 N   0  3  0  0  0  0  0  0  0  0  0  0
    0.0898    1.6470   -5.3908 H   0  0  0  0  0  0  0  0  0  0  0  0
   -0.6639    0.5008   -6.2926 H   0  0  0  0  0  0  0  0  0  0  0  0
   -1.5509    1.6185   -5.4784 H   0  0  0  0  0  0  0  0  0  0  0  0
   -0.9506    0.7074    2.1045 C   0  0  0  0  0  0  0  0  0  0  0  0
   -1.8551    0.6968    2.9311 O   0  0  0  0  0  0  0  0  0  0  0  0
    0.1637    1.4321    2.2494 N   0  0  0  0  0  0  0  0  0  0  0  0
    0.8694    1.3572    1.5356 H   0  0  0  0  0  0  0  0  0  0  0  0
    0.4551    2.2623    3.4195 C   0  0  0  0  0  0  0  0  0  0  0  0
    0.5151    1.6346    4.3112 H   0  0  0  0  0  0  0  0  0  0  0  0
    1.4036    2.7847    3.2893 H   0  0  0  0  0  0  0  0  0  0  0  0
   -0.3421    2.9941    3.5669 H   0  0  0  0  0  0  0  0  0  0  0  0
  5  6  2  0  0  0  0
  5  7  1  0  0  0  0
  2  3  1  0  0  0  0
  2  4  1  0  0  0  0
  2  5  1  0  0  0  0
  1  2  1  0  0  0  0
 27 28  2  0  0  0  0
 27 29  1  0  0  0  0
 23 24  1  0  0  0  0
 23 25  1  0  0  0  0
 23 26  1  0  0  0  0
 20 21  1  0  0  0  0
 20 22  1  0  0  0  0
 20 23  1  0  0  0  0
 17 18  1  0  0  0  0
 17 19  1  0  0  0  0
 17 20  1  0  0  0  0
 14 15  1  0  0  0  0
 14 16  1  0  0  0  0
 14 17  1  0  0  0  0
 11 12  1  0  0  0  0
 11 13  1  0  0  0  0
 11 14  1  0  0  0  0
  9 10  1  0  0  0  0
  9 11  1  0  0  0  0
  9 27  1  0  0  0  0
  7  8  1  0  0  0  0
  7  9  1  0  0  0  0
 31 32  1  0  0  0  0
 31 33  1  0  0  0  0
 31 34  1  0  0  0  0
 29 30  1  0  0  0  0
 29 31  1  0  0  0  0
M  CHG  1  23   1
M  END
$$$$
default_name
  -OEChem-01062215323D

 34 33  0     1  0  0  0  0  0999 V2000
   -3.8899   -3.6747    1.6490 H   0  0  0  0  0  0  0  0  0  0  0  0
   -3.9109   -2.6717    1.2250 C   0  0  0  0  0  0  0  0  0  0  0  0
   -4.6009   -2.0517    1.7950 H   0  0  0  0  0  0  0  0  0  0  0  0
   -4.2309   -2.7237    0.1860 H   0  0  0  0  0  0  0  0  0  0  0  0
   -2.5229   -2.0787    1.2980 C   0  0  0  0  0  0  0  0  0  0  0  0
   -1.5999   -2.7227    1.7810 O   0  0  0  0  0  0  0  0  0  0  0  0
   -2.3659   -0.8447    0.8120 N   0  0  0  0  0  0  0  0  0  0  0  0
   -3.1749   -0.3807    0.4220 H   0  0  0  0  0  0  0  0  0  0  0  0
   -1.0919   -0.1077    0.8170 C   0  0  1  0  0  0  0  0  0  0  0  0
   -0.2769   -0.8323    0.7691 H   0  0  0  0  0  0  0  0  0  0  0  0
   -1.0378    0.7850   -0.4370 C   0  0  0  0  0  0  0  0  0  0  0  0
   -1.9487    1.3844   -0.4766 H   0  0  0  0  0  0  0  0  0  0  0  0
   -0.1868    1.4643   -0.3573 H   0  0  0  0  0  0  0  0  0  0  0  0
   -0.9275   -0.0129   -1.7453 C   0  0  0  0  0  0  0  0  0  0  0  0
   -0.0298   -0.6321   -1.7234 H   0  0  0  0  0  0  0  0  0  0  0  0
   -1.8027   -0.6574   -1.8481 H   0  0  0  0  0  0  0  0  0  0  0  0
   -0.8534    0.9389   -2.9473 C   0  0  0  0  0  0  0  0  0  0  0  0
   -1.7468    1.5679   -2.9578 H   0  0  0  0  0  0  0  0  0  0  0  0
    0.0283    1.5746   -2.8443 H   0  0  0  0  0  0  0  0  0  0  0  0
   -0.7683    0.1434   -4.2559 C   0  0  0  0  0  0  0  0  0  0  0  0
    0.1276   -0.4850   -4.2224 H   0  0  0  0  0  0  0  0  0  0  0  0
   -1.6386   -0.5168   -4.3187 H   0  0  0  0  0  0  0  0  0  0  0  0
   -0.7195    1.0406   -5.4379 N   0  3  0  0  0  0  0  0  0  0  0  0
    0.0898    1.6470   -5.3908 H   0  0  0  0  0  0  0  0  0  0  0  0
   -0.6639    0.5008   -6.2926 H   0  0  0  0  0  0  0  0  0  0  0  0
   -1.5509    1.6185   -5.4784 H   0  0  0  0  0  0  0  0  0  0  0  0
   -0.9506    0.7074    2.1045 C   0  0  0  0  0  0  0  0  0  0  0  0
   -1.7061    0.4915    3.0448 O   0  0  0  0  0  0  0  0  0  0  0  0
   -0.0102    1.6576    2.1257 N   0  0  0  0  0  0  0  0  0  0  0  0
    0.5875    1.7456    1.3206 H   0  0  0  0  0  0  0  0  0  0  0  0
    0.2564    2.5214    3.2773 C   0  0  0  0  0  0  0  0  0  0  0  0
    0.5753    1.9146    4.1274 H   0  0  0  0  0  0  0  0  0  0  0  0
    1.0417    3.2403    3.0406 H   0  0  0  0  0  0  0  0  0  0  0  0
   -0.6513    3.0592    3.5597 H   0  0  0  0  0  0  0  0  0  0  0  0
  5  6  2  0  0  0  0
  5  7  1  0  0  0  0
  2  3  1  0  0  0  0
  2  4  1  0  0  0  0
  2  5  1  0  0  0  0
  1  2  1  0  0  0  0
 27 28  2  0  0  0  0
 27 29  1  0  0  0  0
 23 24  1  0  0  0  0
 23 25  1  0  0  0  0
 23 26  1  0  0  0  0
 20 21  1  0  0  0  0
 20 22  1  0  0  0  0
 20 23  1  0  0  0  0
 17 18  1  0  0  0  0
 17 19  1  0  0  0  0
 17 20  1  0  0  0  0
 14 15  1  0  0  0  0
 14 16  1  0  0  0  0
 14 17  1  0  0  0  0
 11 12  1  0  0  0  0
 11 13  1  0  0  0  0
 11 14  1  0  0  0  0
  9 10  1  0  0  0  0
  9 11  1  0  0  0  0
  9 27  1  0  0  0  0
  7  8  1  0  0  0  0
  7  9  1  0  0  0  0
 31 32  1  0  0  0  0
 31 33  1  0  0  0  0
 31 34  1  0  0  0  0
 29 30  1  0  0  0  0
 29 31  1  0  0  0  0
M  CHG  1  23   1
M  END
$$$$
default_name
  -OEChem-01062215323D

 34 33  0     1  0  0  0  0  0999 V2000
   -3.8899   -3.6747    1.6490 H   0  0  0  0  0  0  0  0  0  0  0  0
   -3.9109   -2.6717    1.2250 C   0  0  0  0  0  0  0  0  0  0  0  0
   -4.6009   -2.0517    1.7950 H   0  0  0  0  0  0  0  0  0  0  0  0
   -4.2309   -2.7237    0.1860 H   0  0  0  0  0  0  0  0  0  0  0  0
   -2.5229   -2.0787    1.2980 C   0  0  0  0  0  0  0  0  0  0  0  0
   -1.5999   -2.7227    1.7810 O   0  0  0  0  0  0  0  0  0  0  0  0
   -2.3659   -0.8447    0.8120 N   0  0  0  0  0  0  0  0  0  0  0  0
   -3.1749   -0.3807    0.4220 H   0  0  0  0  0  0  0  0  0  0  0  0
   -1.0919   -0.1077    0.8170 C   0  0  1  0  0  0  0  0  0  0  0  0
   -0.2769   -0.8323    0.7691 H   0  0  0  0  0  0  0  0  0  0  0  0
   -1.0378    0.7850   -0.4370 C   0  0  0  0  0  0  0  0  0  0  0  0
   -1.9487    1.3844   -0.4766 H   0  0  0  0  0  0  0  0  0  0  0  0
   -0.1868    1.4643   -0.3573 H   0  0  0  0  0  0  0  0  0  0  0  0
   -0.9275   -0.0129   -1.7453 C   0  0  0  0  0  0  0  0  0  0  0  0
   -0.0298   -0.6321   -1.7234 H   0  0  0  0  0  0  0  0  0  0  0  0
   -1.8027   -0.6574   -1.8481 H   0  0  0  0  0  0  0  0  0  0  0  0
   -0.8534    0.9389   -2.9473 C   0  0  0  0  0  0  0  0  0  0  0  0
   -1.7468    1.5679   -2.9578 H   0  0  0  0  0  0  0  0  0  0  0  0
    0.0283    1.5746   -2.8443 H   0  0  0  0  0  0  0  0  0  0  0  0
   -0.7683    0.1434   -4.2559 C   0  0  0  0  0  0  0  0  0  0  0  0
    0.1276   -0.4850   -4.2224 H   0  0  0  0  0  0  0  0  0  0  0  0
   -1.6386   -0.5168   -4.3187 H   0  0  0  0  0  0  0  0  0  0  0  0
   -0.7195    1.0406   -5.4379 N   0  3  0  0  0  0  0  0  0  0  0  0
    0.0898    1.6470   -5.3908 H   0  0  0  0  0  0  0  0  0  0  0  0
   -0.6639    0.5008   -6.2926 H   0  0  0  0  0  0  0  0  0  0  0  0
   -1.5509    1.6185   -5.4784 H   0  0  0  0  0  0  0  0  0  0  0  0
   -0.9506    0.7074    2.1045 C   0  0  0  0  0  0  0  0  0  0  0  0
   -1.5018    0.3228    3.1291 O   0  0  0  0  0  0  0  0  0  0  0  0
   -0.2443    1.8406    2.0355 N   0  0  0  0  0  0  0  0  0  0  0  0
    0.2011    2.0645    1.1611 H   0  0  0  0  0  0  0  0  0  0  0  0
   -0.0115    2.7319    3.1735 C   0  0  0  0  0  0  0  0  0  0  0  0
    0.5472    2.2024    3.9482 H   0  0  0  0  0  0  0  0  0  0  0  0
    0.5586    3.6076    2.8611 H   0  0  0  0  0  0  0  0  0  0  0  0
   -0.9651    3.0549    3.5969 H   0  0  0  0  0  0  0  0  0  0  0  0
  5  6  2  0  0  0  0
  5  7  1  0  0  0  0
  2  3  1  0  0  0  0
  2  4  1  0  0  0  0
  2  5  1  0  0  0  0
  1  2  1  0  0  0  0
 27 28  2  0  0  0  0
 27 29  1  0  0  0  0
 23 24  1  0  0  0  0
 23 25  1  0  0  0  0
 23 26  1  0  0  0  0
 20 21  1  0  0  0  0
 20 22  1  0  0  0  0
 20 23  1  0  0  0  0
 17 18  1  0  0  0  0
 17 19  1  0  0  0  0
 17 20  1  0  0  0  0
 14 15  1  0  0  0  0
 14 16  1  0  0  0  0
 14 17  1  0  0  0  0
 11 12  1  0  0  0  0
 11 13  1  0  0  0  0
 11 14  1  0  0  0  0
  9 10  1  0  0  0  0
  9 11  1  0  0  0  0
  9 27  1  0  0  0  0
  7  8  1  0  0  0  0
  7  9  1  0  0  0  0
 31 32  1  0  0  0  0
 31 33  1  0  0  0  0
 31 34  1  0  0  0  0
 29 30  1  0  0  0  0
 29 31  1  0  0  0  0
M  CHG  1  23   1
M  END
$$$$
default_name
  -OEChem-01062215323D

 34 33  0     1  0  0  0  0  0999 V2000
   -3.8899   -3.6747    1.6490 H   0  0  0  0  0  0  0  0  0  0  0  0
   -3.9109   -2.6717    1.2250 C   0  0  0  0  0  0  0  0  0  0  0  0
   -4.6009   -2.0517    1.7950 H   0  0  0  0  0  0  0  0  0  0  0  0
   -4.2309   -2.7237    0.1860 H   0  0  0  0  0  0  0  0  0  0  0  0
   -2.5229   -2.0787    1.2980 C   0  0  0  0  0  0  0  0  0  0  0  0
   -1.5999   -2.7227    1.7810 O   0  0  0  0  0  0  0  0  0  0  0  0
   -2.3659   -0.8447    0.8120 N   0  0  0  0  0  0  0  0  0  0  0  0
   -3.1749   -0.3807    0.4220 H   0  0  0  0  0  0  0  0  0  0  0  0
   -1.0919   -0.1077    0.8170 C   0  0  1  0  0  0  0  0  0  0  0  0
   -0.2769   -0.8323    0.7691 H   0  0  0  0  0  0  0  0  0  0  0  0
   -1.0378    0.7850   -0.4370 C   0  0  0  0  0  0  0  0  0  0  0  0
   -1.9487    1.3844   -0.4766 H   0  0  0  0  0  0  0  0  0  0  0  0
   -0.1868    1.4643   -0.3573 H   0  0  0  0  0  0  0  0  0  0  0  0
   -0.9275   -0.0129   -1.7453 C   0  0  0  0  0  0  0  0  0  0  0  0
   -0.0298   -0.6321   -1.7234 H   0  0  0  0  0  0  0  0  0  0  0  0
   -1.8027   -0.6574   -1.8481 H   0  0  0  0  0  0  0  0  0  0  0  0
   -0.8534    0.9389   -2.9473 C   0  0  0  0  0  0  0  0  0  0  0  0
   -1.7468    1.5679   -2.9578 H   0  0  0  0  0  0  0  0  0  0  0  0
    0.0283    1.5746   -2.8443 H   0  0  0  0  0  0  0  0  0  0  0  0
   -0.7683    0.1434   -4.2559 C   0  0  0  0  0  0  0  0  0  0  0  0
    0.1276   -0.4850   -4.2224 H   0  0  0  0  0  0  0  0  0  0  0  0
   -1.6386   -0.5168   -4.3187 H   0  0  0  0  0  0  0  0  0  0  0  0
   -0.7195    1.0406   -5.4379 N   0  3  0  0  0  0  0  0  0  0  0  0
    0.0898    1.6470   -5.3908 H   0  0  0  0  0  0  0  0  0  0  0  0
   -0.6639    0.5008   -6.2926 H   0  0  0  0  0  0  0  0  0  0  0  0
   -1.5509    1.6185   -5.4784 H   0  0  0  0  0  0  0  0  0  0  0  0
   -0.9506    0.7074    2.1045 C   0  0  0  0  0  0  0  0  0  0  0  0
   -1.2561    0.2024    3.1783 O   0  0  0  0  0  0  0  0  0  0  0  0
   -0.5227    1.9685    1.9851 N   0  0  0  0  0  0  0  0  0  0  0  0
   -0.2635    2.2923    1.0680 H   0  0  0  0  0  0  0  0  0  0  0  0
   -0.3304    2.8793    3.1152 C   0  0  0  0  0  0  0  0  0  0  0  0
    0.4326    2.4786    3.7859 H   0  0  0  0  0  0  0  0  0  0  0  0
   -0.0127    3.8614    2.7632 H   0  0  0  0  0  0  0  0  0  0  0  0
   -1.2621    2.9815    3.6759 H   0  0  0  0  0  0  0  0  0  0  0  0
  5  6  2  0  0  0  0
  5  7  1  0  0  0  0
  2  3  1  0  0  0  0
  2  4  1  0  0  0  0
  2  5  1  0  0  0  0
  1  2  1  0  0  0  0
 27 28  2  0  0  0  0
 27 29  1  0  0  0  0
 23 24  1  0  0  0  0
 23 25  1  0  0  0  0
 23 26  1  0  0  0  0
 20 21  1  0  0  0  0
 20 22  1  0  0  0  0
 20 23  1  0  0  0  0
 17 18  1  0  0  0  0
 17 19  1  0  0  0  0
 17 20  1  0  0  0  0
 14 15  1  0  0  0  0
 14 16  1  0  0  0  0
 14 17  1  0  0  0  0
 11 12  1  0  0  0  0
 11 13  1  0  0  0  0
 11 14  1  0  0  0  0
  9 10  1  0  0  0  0
  9 11  1  0  0  0  0
  9 27  1  0  0  0  0
  7  8  1  0  0  0  0
  7  9  1  0  0  0  0
 31 32  1  0  0  0  0
 31 33  1  0  0  0  0
 31 34  1  0  0  0  0
 29 30  1  0  0  0  0
 29 31  1  0  0  0  0
M  CHG  1  23   1
M  END
$$$$
default_name
  -OEChem-01062215323D

 34 33  0     1  0  0  0  0  0999 V2000
   -3.8899   -3.6747    1.6490 H   0  0  0  0  0  0  0  0  0  0  0  0
   -3.9109   -2.6717    1.2250 C   0  0  0  0  0  0  0  0  0  0  0  0
   -4.6009   -2.0517    1.7950 H   0  0  0  0  0  0  0  0  0  0  0  0
   -4.2309   -2.7237    0.1860 H   0  0  0  0  0  0  0  0  0  0  0  0
   -2.5229   -2.0787    1.2980 C   0  0  0  0  0  0  0  0  0  0  0  0
   -1.5999   -2.7227    1.7810 O   0  0  0  0  0  0  0  0  0  0  0  0
   -2.3659   -0.8447    0.8120 N   0  0  0  0  0  0  0  0  0  0  0  0
   -3.1749   -0.3807    0.4220 H   0  0  0  0  0  0  0  0  0  0  0  0
   -1.0919   -0.1077    0.8170 C   0  0  1  0  0  0  0  0  0  0  0  0
   -0.2769   -0.8323    0.7691 H   0  0  0  0  0  0  0  0  0  0  0  0
   -1.0378    0.7850   -0.4370 C   0  0  0  0  0  0  0  0  0  0  0  0
   -1.9487    1.3844   -0.4766 H   0  0  0  0  0  0  0  0  0  0  0  0
   -0.1868    1.4643   -0.3573 H   0  0  0  0  0  0  0  0  0  0  0  0
   -0.9275   -0.0129   -1.7453 C   0  0  0  0  0  0  0  0  0  0  0  0
   -0.0298   -0.6321   -1.7234 H   0  0  0  0  0  0  0  0  0  0  0  0
   -1.8027   -0.6574   -1.8481 H   0  0  0  0  0  0  0  0  0  0  0  0
   -0.8534    0.9389   -2.9473 C   0  0  0  0  0  0  0  0  0  0  0  0
   -1.7468    1.5679   -2.9578 H   0  0  0  0  0  0  0  0  0  0  0  0
    0.0283    1.5746   -2.8443 H   0  0  0  0  0  0  0  0  0  0  0  0
   -0.7683    0.1434   -4.2559 C   0  0  0  0  0  0  0  0  0  0  0  0
    0.1276   -0.4850   -4.2224 H   0  0  0  0  0  0  0  0  0  0  0  0
   -1.6386   -0.5168   -4.3187 H   0  0  0  0  0  0  0  0  0  0  0  0
   -0.7195    1.0406   -5.4379 N   0  3  0  0  0  0  0  0  0  0  0  0
    0.0898    1.6470   -5.3908 H   0  0  0  0  0  0  0  0  0  0  0  0
   -0.6639    0.5008   -6.2926 H   0  0  0  0  0  0  0  0  0  0  0  0
   -1.5509    1.6185   -5.4784 H   0  0  0  0  0  0  0  0  0  0  0  0
   -0.9506    0.7074    2.1045 C   0  0  0  0  0  0  0  0  0  0  0  0
   -0.9858    0.1385    3.1892 O   0  0  0  0  0  0  0  0  0  0  0  0
   -0.8264    2.0326    1.9779 N   0  0  0  0  0  0  0  0  0  0  0  0
   -0.7748    2.4133    1.0475 H   0  0  0  0  0  0  0  0  0  0  0  0
   -0.6787    2.9536    3.1063 C   0  0  0  0  0  0  0  0  0  0  0  0
    0.2394    2.7244    3.6516 H   0  0  0  0  0  0  0  0  0  0  0  0
   -0.6333    3.9845    2.7533 H   0  0  0  0  0  0  0  0  0  0  0  0
   -1.5221    2.8441    3.7915 H   0  0  0  0  0  0  0  0  0  0  0  0
  5  6  2  0  0  0  0
  5  7  1  0  0  0  0
  2  3  1  0  0  0  0
  2  4  1  0  0  0  0
  2  5  1  0  0  0  0
  1  2  1  0  0  0  0
 27 28  2  0  0  0  0
 27 29  1  0  0  0  0
 23 24  1  0  0  0  0
 23 25  1  0  0  0  0
 23 26  1  0  0  0  0
 20 21  1  0  0  0  0
 20 22  1  0  0  0  0
 20 23  1  0  0  0  0
 17 18  1  0  0  0  0
 17 19  1  0  0  0  0
 17 20  1  0  0  0  0
 14 15  1  0  0  0  0
 14 16  1  0  0  0  0
 14 17  1  0  0  0  0
 11 12  1  0  0  0  0
 11 13  1  0  0  0  0
 11 14  1  0  0  0  0
  9 10  1  0  0  0  0
  9 11  1  0  0  0  0
  9 27  1  0  0  0  0
  7  8  1  0  0  0  0
  7  9  1  0  0  0  0
 31 32  1  0  0  0  0
 31 33  1  0  0  0  0
 31 34  1  0  0  0  0
 29 30  1  0  0  0  0
 29 31  1  0  0  0  0
M  CHG  1  23   1
M  END
$$$$
default_name
  -OEChem-01062215323D

 34 33  0     1  0  0  0  0  0999 V2000
   -3.8899   -3.6747    1.6490 H   0  0  0  0  0  0  0  0  0  0  0  0
   -3.9109   -2.6717    1.2250 C   0  0  0  0  0  0  0  0  0  0  0  0
   -4.6009   -2.0517    1.7950 H   0  0  0  0  0  0  0  0  0  0  0  0
   -4.2309   -2.7237    0.1860 H   0  0  0  0  0  0  0  0  0  0  0  0
   -2.5229   -2.0787    1.2980 C   0  0  0  0  0  0  0  0  0  0  0  0
   -1.5999   -2.7227    1.7810 O   0  0  0  0  0  0  0  0  0  0  0  0
   -2.3659   -0.8447    0.8120 N   0  0  0  0  0  0  0  0  0  0  0  0
   -3.1749   -0.3807    0.4220 H   0  0  0  0  0  0  0  0  0  0  0  0
   -1.0919   -0.1077    0.8170 C   0  0  1  0  0  0  0  0  0  0  0  0
   -0.2769   -0.8323    0.7691 H   0  0  0  0  0  0  0  0  0  0  0  0
   -1.0378    0.7850   -0.4370 C   0  0  0  0  0  0  0  0  0  0  0  0
   -1.9487    1.3844   -0.4766 H   0  0  0  0  0  0  0  0  0  0  0  0
   -0.1868    1.4643   -0.3573 H   0  0  0  0  0  0  0  0  0  0  0  0
   -0.9275   -0.0129   -1.7453 C   0  0  0  0  0  0  0  0  0  0  0  0
   -0.0298   -0.6321   -1.7234 H   0  0  0  0  0  0  0  0  0  0  0  0
   -1.8027   -0.6574   -1.8481 H   0  0  0  0  0  0  0  0  0  0  0  0
   -0.8534    0.9389   -2.9473 C   0  0  0  0  0  0  0  0  0  0  0  0
   -1.7468    1.5679   -2.9578 H   0  0  0  0  0  0  0  0  0  0  0  0
    0.0283    1.5746   -2.8443 H   0  0  0  0  0  0  0  0  0  0  0  0
   -0.7683    0.1434   -4.2559 C   0  0  0  0  0  0  0  0  0  0  0  0
    0.1276   -0.4850   -4.2224 H   0  0  0  0  0  0  0  0  0  0  0  0
   -1.6386   -0.5168   -4.3187 H   0  0  0  0  0  0  0  0  0  0  0  0
   -0.7195    1.0406   -5.4379 N   0  3  0  0  0  0  0  0  0  0  0  0
    0.0898    1.6470   -5.3908 H   0  0  0  0  0  0  0  0  0  0  0  0
   -0.6639    0.5008   -6.2926 H   0  0  0  0  0  0  0  0  0  0  0  0
   -1.5509    1.6185   -5.4784 H   0  0  0  0  0  0  0  0  0  0  0  0
   -0.9506    0.7074    2.1045 C   0  0  0  0  0  0  0  0  0  0  0  0
   -0.7092    0.1352    3.1608 O   0  0  0  0  0  0  0  0  0  0  0  0
   -1.1347    2.0286    2.0142 N   0  0  0  0  0  0  0  0  0  0  0  0
   -1.2978    2.4193    1.1011 H   0  0  0  0  0  0  0  0  0  0  0  0
   -1.0324    2.9498    3.1476 C   0  0  0  0  0  0  0  0  0  0  0  0
   -0.0192    2.9229    3.5543 H   0  0  0  0  0  0  0  0  0  0  0  0
   -1.2609    3.9685    2.8324 H   0  0  0  0  0  0  0  0  0  0  0  0
   -1.7275    2.6519    3.9357 H   0  0  0  0  0  0  0  0  0  0  0  0
  5  6  2  0  0  0  0
  5  7  1  0  0  0  0
  2  3  1  0  0  0  0
  2  4  1  0  0  0  0
  2  5  1  0  0  0  0
  1  2  1  0  0  0  0
 27 28  2  0  0  0  0
 27 29  1  0  0  0  0
 23 24  1  0  0  0  0
 23 25  1  0  0  0  0
 23 26  1  0  0  0  0
 20 21  1  0  0  0  0
 20 22  1  0  0  0  0
 20 23  1  0  0  0  0
 17 18  1  0  0  0  0
 17 19  1  0  0  0  0
 17 20  1  0  0  0  0
 14 15  1  0  0  0  0
 14 16  1  0  0  0  0
 14 17  1  0  0  0  0
 11 12  1  0  0  0  0
 11 13  1  0  0  0  0
 11 14  1  0  0  0  0
  9 10  1  0  0  0  0
  9 11  1  0  0  0  0
  9 27  1  0  0  0  0
  7  8  1  0  0  0  0
  7  9  1  0  0  0  0
 31 32  1  0  0  0  0
 31 33  1  0  0  0  0
 31 34  1  0  0  0  0
 29 30  1  0  0  0  0
 29 31  1  0  0  0  0
M  CHG  1  23   1
M  END
$$$$
default_name
  -OEChem-01062215323D

 34 33  0     1  0  0  0  0  0999 V2000
   -3.8899   -3.6747    1.6490 H   0  0  0  0  0  0  0  0  0  0  0  0
   -3.9109   -2.6717    1.2250 C   0  0  0  0  0  0  0  0  0  0  0  0
   -4.6009   -2.0517    1.7950 H   0  0  0  0  0  0  0  0  0  0  0  0
   -4.2309   -2.7237    0.1860 H   0  0  0  0  0  0  0  0  0  0  0  0
   -2.5229   -2.0787    1.2980 C   0  0  0  0  0  0  0  0  0  0  0  0
   -1.5999   -2.7227    1.7810 O   0  0  0  0  0  0  0  0  0  0  0  0
   -2.3659   -0.8447    0.8120 N   0  0  0  0  0  0  0  0  0  0  0  0
   -3.1749   -0.3807    0.4220 H   0  0  0  0  0  0  0  0  0  0  0  0
   -1.0919   -0.1077    0.8170 C   0  0  1  0  0  0  0  0  0  0  0  0
   -0.2769   -0.8323    0.7691 H   0  0  0  0  0  0  0  0  0  0  0  0
   -1.0378    0.7850   -0.4370 C   0  0  0  0  0  0  0  0  0  0  0  0
   -1.9487    1.3844   -0.4766 H   0  0  0  0  0  0  0  0  0  0  0  0
   -0.1868    1.4643   -0.3573 H   0  0  0  0  0  0  0  0  0  0  0  0
   -0.9275   -0.0129   -1.7453 C   0  0  0  0  0  0  0  0  0  0  0  0
   -0.0298   -0.6321   -1.7234 H   0  0  0  0  0  0  0  0  0  0  0  0
   -1.8027   -0.6574   -1.8481 H   0  0  0  0  0  0  0  0  0  0  0  0
   -0.8534    0.9389   -2.9473 C   0  0  0  0  0  0  0  0  0  0  0  0
   -1.7468    1.5679   -2.9578 H   0  0  0  0  0  0  0  0  0  0  0  0
    0.0283    1.5746   -2.8443 H   0  0  0  0  0  0  0  0  0  0  0  0
   -0.7683    0.1434   -4.2559 C   0  0  0  0  0  0  0  0  0  0  0  0
    0.1276   -0.4850   -4.2224 H   0  0  0  0  0  0  0  0  0  0  0  0
   -1.6386   -0.5168   -4.3187 H   0  0  0  0  0  0  0  0  0  0  0  0
   -0.7195    1.0406   -5.4379 N   0  3  0  0  0  0  0  0  0  0  0  0
    0.0898    1.6470   -5.3908 H   0  0  0  0  0  0  0  0  0  0  0  0
   -0.6639    0.5008   -6.2926 H   0  0  0  0  0  0  0  0  0  0  0  0
   -1.5509    1.6185   -5.4784 H   0  0  0  0  0  0  0  0  0  0  0  0
   -0.9506    0.7074    2.1045 C   0  0  0  0  0  0  0  0  0  0  0  0
   -0.4453    0.1930    3.0953 O   0  0  0  0  0  0  0  0  0  0  0  0
   -1.4266    1.9568    2.0918 N   0  0  0  0  0  0  0  0  0  0  0  0
   -1.7970    2.3100    1.2251 H   0  0  0  0  0  0  0  0  0  0  0  0
   -1.3676    2.8681    3.2361 C   0  0  0  0  0  0  0  0  0  0  0  0
   -0.3257    3.0607    3.5007 H   0  0  0  0  0  0  0  0  0  0  0  0
   -1.8528    3.8145    2.9948 H   0  0  0  0  0  0  0  0  0  0  0  0
   -1.8641    2.4182    4.0987 H   0  0  0  0  0  0  0  0  0  0  0  0
  5  6  2  0  0  0  0
  5  7  1  0  0  0  0
  2  3  1  0  0  0  0
  2  4  1  0  0  0  0
  2  5  1  0  0  0  0
  1  2  1  0  0  0  0
 27 28  2  0  0  0  0
 27 29  1  0  0  0  0
 23 24  1  0  0  0  0
 23 25  1  0  0  0  0
 23 26  1  0  0  0  0
 20 21  1  0  0  0  0
 20 22  1  0  0  0  0
 20 23  1  0  0  0  0
 17 18  1  0  0  0  0
 17 19  1  0  0  0  0
 17 20  1  0  0  0  0
 14 15  1  0  0  0  0
 14 16  1  0  0  0  0
 14 17  1  0  0  0  0
 11 12  1  0  0  0  0
 11 13  1  0  0  0  0
 11 14  1  0  0  0  0
  9 10  1  0  0  0  0
  9 11  1  0  0  0  0
  9 27  1  0  0  0  0
  7  8  1  0  0  0  0
  7  9  1  0  0  0  0
 31 32  1  0  0  0  0
 31 33  1  0  0  0  0
 31 34  1  0  0  0  0
 29 30  1  0  0  0  0
 29 31  1  0  0  0  0
M  CHG  1  23   1
M  END
$$$$
default_name
  -OEChem-01062215323D

 34 33  0     1  0  0  0  0  0999 V2000
   -3.8899   -3.6747    1.6490 H   0  0  0  0  0  0  0  0  0  0  0  0
   -3.9109   -2.6717    1.2250 C   0  0  0  0  0  0  0  0  0  0  0  0
   -4.6009   -2.0517    1.7950 H   0  0  0  0  0  0  0  0  0  0  0  0
   -4.2309   -2.7237    0.1860 H   0  0  0  0  0  0  0  0  0  0  0  0
   -2.5229   -2.0787    1.2980 C   0  0  0  0  0  0  0  0  0  0  0  0
   -1.5999   -2.7227    1.7810 O   0  0  0  0  0  0  0  0  0  0  0  0
   -2.3659   -0.8447    0.8120 N   0  0  0  0  0  0  0  0  0  0  0  0
   -3.1749   -0.3807    0.4220 H   0  0  0  0  0  0  0  0  0  0  0  0
   -1.0919   -0.1077    0.8170 C   0  0  1  0  0  0  0  0  0  0  0  0
   -0.2769   -0.8323    0.7691 H   0  0  0  0  0  0  0  0  0  0  0  0
   -1.0378    0.7850   -0.4370 C   0  0  0  0  0  0  0  0  0  0  0  0
   -1.9487    1.3844   -0.4766 H   0  0  0  0  0  0  0  0  0  0  0  0
   -0.1868    1.4643   -0.3573 H   0  0  0  0  0  0  0  0  0  0  0  0
   -0.9275   -0.0129   -1.7453 C   0  0  0  0  0  0  0  0  0  0  0  0
   -0.0298   -0.6321   -1.7234 H   0  0  0  0  0  0  0  0  0  0  0  0
   -1.8027   -0.6574   -1.8481 H   0  0  0  0  0  0  0  0  0  0  0  0
   -0.8534    0.9389   -2.9473 C   0  0  0  0  0  0  0  0  0  0  0  0
   -1.7468    1.5679   -2.9578 H   0  0  0  0  0  0  0  0  0  0  0  0
    0.0283    1.5746   -2.8443 H   0  0  0  0  0  0  0  0  0  0  0  0
   -0.7683    0.1434   -4.2559 C   0  0  0  0  0  0  0  0  0  0  0  0
    0.1276   -0.4850   -4.2224 H   0  0  0  0  0  0  0  0  0  0  0  0
   -1.6386   -0.5168   -4.3187 H   0  0  0  0  0  0  0  0  0  0  0  0
   -0.7195    1.0406   -5.4379 N   0  3  0  0  0  0  0  0  0  0  0  0
    0.0898    1.6470   -5.3908 H   0  0  0  0  0  0  0  0  0  0  0  0
   -0.6639    0.5008   -6.2926 H   0  0  0  0  0  0  0  0  0  0  0  0
   -1.5509    1.6185   -5.4784 H   0  0  0  0  0  0  0  0  0  0  0  0
   -0.9506    0.7074    2.1045 C   0  0  0  0  0  0  0  0  0  0  0  0
   -0.2121    0.3079    2.9970 O   0  0  0  0  0  0  0  0  0  0  0  0
   -1.6823    1.8219    2.2052 N   0  0  0  0  0  0  0  0  0  0  0  0
   -2.2382    2.0928    1.4111 H   0  0  0  0  0  0  0  0  0  0  0  0
   -1.6614    2.7141    3.3659 C   0  0  0  0  0  0  0  0  0  0  0  0
   -0.6591    3.1283    3.4945 H   0  0  0  0  0  0  0  0  0  0  0  0
   -2.3686    3.5331    3.2297 H   0  0  0  0  0  0  0  0  0  0  0  0
   -1.9227    2.1588    4.2693 H   0  0  0  0  0  0  0  0  0  0  0  0
  5  6  2  0  0  0  0
  5  7  1  0  0  0  0
  2  3  1  0  0  0  0
  2  4  1  0  0  0  0
  2  5  1  0  0  0  0
  1  2  1  0  0  0  0
 27 28  2  0  0  0  0
 27 29  1  0  0  0  0
 23 24  1  0  0  0  0
 23 25  1  0  0  0  0
 23 26  1  0  0  0  0
 20 21  1  0  0  0  0
 20 22  1  0  0  0  0
 20 23  1  0  0  0  0
 17 18  1  0  0  0  0
 17 19  1  0  0  0  0
 17 20  1  0  0  0  0
 14 15  1  0  0  0  0
 14 16  1  0  0  0  0
 14 17  1  0  0  0  0
 11 12  1  0  0  0  0
 11 13  1  0  0  0  0
 11 14  1  0  0  0  0
  9 10  1  0  0  0  0
  9 11  1  0  0  0  0
  9 27  1  0  0  0  0
  7  8  1  0  0  0  0
  7  9  1  0  0  0  0
 31 32  1  0  0  0  0
 31 33  1  0  0  0  0
 31 34  1  0  0  0  0
 29 30  1  0  0  0  0
 29 31  1  0  0  0  0
M  CHG  1  23   1
M  END
$$$$
default_name
  -OEChem-01062215323D

 34 33  0     1  0  0  0  0  0999 V2000
   -3.8899   -3.6747    1.6490 H   0  0  0  0  0  0  0  0  0  0  0  0
   -3.9109   -2.6717    1.2250 C   0  0  0  0  0  0  0  0  0  0  0  0
   -4.6009   -2.0517    1.7950 H   0  0  0  0  0  0  0  0  0  0  0  0
   -4.2309   -2.7237    0.1860 H   0  0  0  0  0  0  0  0  0  0  0  0
   -2.5229   -2.0787    1.2980 C   0  0  0  0  0  0  0  0  0  0  0  0
   -1.5999   -2.7227    1.7810 O   0  0  0  0  0  0  0  0  0  0  0  0
   -2.3659   -0.8447    0.8120 N   0  0  0  0  0  0  0  0  0  0  0  0
   -3.1749   -0.3807    0.4220 H   0  0  0  0  0  0  0  0  0  0  0  0
   -1.0919   -0.1077    0.8170 C   0  0  1  0  0  0  0  0  0  0  0  0
   -0.2769   -0.8323    0.7691 H   0  0  0  0  0  0  0  0  0  0  0  0
   -1.0378    0.7850   -0.4370 C   0  0  0  0  0  0  0  0  0  0  0  0
   -1.9487    1.3844   -0.4766 H   0  0  0  0  0  0  0  0  0  0  0  0
   -0.1868    1.4643   -0.3573 H   0  0  0  0  0  0  0  0  0  0  0  0
   -0.9275   -0.0129   -1.7453 C   0  0  0  0  0  0  0  0  0  0  0  0
   -0.0298   -0.6321   -1.7234 H   0  0  0  0  0  0  0  0  0  0  0  0
   -1.8027   -0.6574   -1.8481 H   0  0  0  0  0  0  0  0  0  0  0  0
   -0.8534    0.9389   -2.9473 C   0  0  0  0  0  0  0  0  0  0  0  0
   -1.7468    1.5679   -2.9578 H   0  0  0  0  0  0  0  0  0  0  0  0
    0.0283    1.5746   -2.8443 H   0  0  0  0  0  0  0  0  0  0  0  0
   -0.7683    0.1434   -4.2559 C   0  0  0  0  0  0  0  0  0  0  0  0
    0.1276   -0.4850   -4.2224 H   0  0  0  0  0  0  0  0  0  0  0  0
   -1.6386   -0.5168   -4.3187 H   0  0  0  0  0  0  0  0  0  0  0  0
   -0.7195    1.0406   -5.4379 N   0  3  0  0  0  0  0  0  0  0  0  0
    0.0898    1.6470   -5.3908 H   0  0  0  0  0  0  0  0  0  0  0  0
   -0.6639    0.5008   -6.2926 H   0  0  0  0  0  0  0  0  0  0  0  0
   -1.5509    1.6185   -5.4784 H   0  0  0  0  0  0  0  0  0  0  0  0
   -0.9506    0.7074    2.1045 C   0  0  0  0  0  0  0  0  0  0  0  0
   -0.0253    0.4720    2.8726 O   0  0  0  0  0  0  0  0  0  0  0  0
   -1.8842    1.6333    2.3468 N   0  0  0  0  0  0  0  0  0  0  0  0
   -2.5915    1.7824    1.6463 H   0  0  0  0  0  0  0  0  0  0  0  0
   -1.8937    2.4983    3.5280 C   0  0  0  0  0  0  0  0  0  0  0  0
   -0.9967    3.1211    3.5361 H   0  0  0  0  0  0  0  0  0  0  0  0
   -2.7731    3.1432    3.5209 H   0  0  0  0  0  0  0  0  0  0  0  0
   -1.8993    1.8914    4.4361 H   0  0  0  0  0  0  0  0  0  0  0  0
  5  6  2  0  0  0  0
  5  7  1  0  0  0  0
  2  3  1  0  0  0  0
  2  4  1  0  0  0  0
  2  5  1  0  0  0  0
  1  2  1  0  0  0  0
 27 28  2  0  0  0  0
 27 29  1  0  0  0  0
 23 24  1  0  0  0  0
 23 25  1  0  0  0  0
 23 26  1  0  0  0  0
 20 21  1  0  0  0  0
 20 22  1  0  0  0  0
 20 23  1  0  0  0  0
 17 18  1  0  0  0  0
 17 19  1  0  0  0  0
 17 20  1  0  0  0  0
 14 15  1  0  0  0  0
 14 16  1  0  0  0  0
 14 17  1  0  0  0  0
 11 12  1  0  0  0  0
 11 13  1  0  0  0  0
 11 14  1  0  0  0  0
  9 10  1  0  0  0  0
  9 11  1  0  0  0  0
  9 27  1  0  0  0  0
  7  8  1  0  0  0  0
  7  9  1  0  0  0  0
 31 32  1  0  0  0  0
 31 33  1  0  0  0  0
 31 34  1  0  0  0  0
 29 30  1  0  0  0  0
 29 31  1  0  0  0  0
M  CHG  1  23   1
M  END
$$$$
default_name
  -OEChem-01062215323D

 34 33  0     1  0  0  0  0  0999 V2000
   -3.8899   -3.6747    1.6490 H   0  0  0  0  0  0  0  0  0  0  0  0
   -3.9109   -2.6717    1.2250 C   0  0  0  0  0  0  0  0  0  0  0  0
   -4.6009   -2.0517    1.7950 H   0  0  0  0  0  0  0  0  0  0  0  0
   -4.2309   -2.7237    0.1860 H   0  0  0  0  0  0  0  0  0  0  0  0
   -2.5229   -2.0787    1.2980 C   0  0  0  0  0  0  0  0  0  0  0  0
   -1.5999   -2.7227    1.7810 O   0  0  0  0  0  0  0  0  0  0  0  0
   -2.3659   -0.8447    0.8120 N   0  0  0  0  0  0  0  0  0  0  0  0
   -3.1749   -0.3807    0.4220 H   0  0  0  0  0  0  0  0  0  0  0  0
   -1.0919   -0.1077    0.8170 C   0  0  1  0  0  0  0  0  0  0  0  0
   -0.2769   -0.8323    0.7691 H   0  0  0  0  0  0  0  0  0  0  0  0
   -1.0378    0.7850   -0.4370 C   0  0  0  0  0  0  0  0  0  0  0  0
   -1.9487    1.3844   -0.4766 H   0  0  0  0  0  0  0  0  0  0  0  0
   -0.1868    1.4643   -0.3573 H   0  0  0  0  0  0  0  0  0  0  0  0
   -0.9275   -0.0129   -1.7453 C   0  0  0  0  0  0  0  0  0  0  0  0
   -0.0298   -0.6321   -1.7234 H   0  0  0  0  0  0  0  0  0  0  0  0
   -1.8027   -0.6574   -1.8481 H   0  0  0  0  0  0  0  0  0  0  0  0
   -0.8534    0.9389   -2.9473 C   0  0  0  0  0  0  0  0  0  0  0  0
   -1.7468    1.5679   -2.9578 H   0  0  0  0  0  0  0  0  0  0  0  0
    0.0283    1.5746   -2.8443 H   0  0  0  0  0  0  0  0  0  0  0  0
   -0.7683    0.1434   -4.2559 C   0  0  0  0  0  0  0  0  0  0  0  0
    0.1276   -0.4850   -4.2224 H   0  0  0  0  0  0  0  0  0  0  0  0
   -1.6386   -0.5168   -4.3187 H   0  0  0  0  0  0  0  0  0  0  0  0
   -0.7195    1.0406   -5.4379 N   0  3  0  0  0  0  0  0  0  0  0  0
    0.0898    1.6470   -5.3908 H   0  0  0  0  0  0  0  0  0  0  0  0
   -0.6639    0.5008   -6.2926 H   0  0  0  0  0  0  0  0  0  0  0  0
   -1.5509    1.6185   -5.4784 H   0  0  0  0  0  0  0  0  0  0  0  0
   -0.9506    0.7074    2.1045 C   0  0  0  0  0  0  0  0  0  0  0  0
    0.1022    0.6741    2.7306 O   0  0  0  0  0  0  0  0  0  0  0  0
   -2.0187    1.4038    2.5069 N   0  0  0  0  0  0  0  0  0  0  0  0
   -2.8327    1.4001    1.9149 H   0  0  0  0  0  0  0  0  0  0  0  0
   -2.0488    2.2353    3.7115 C   0  0  0  0  0  0  0  0  0  0  0  0
   -1.3155    3.0397    3.6226 H   0  0  0  0  0  0  0  0  0  0  0  0
   -3.0388    2.6717    3.8486 H   0  0  0  0  0  0  0  0  0  0  0  0
   -1.7954    1.6342    4.5875 H   0  0  0  0  0  0  0  0  0  0  0  0
  5  6  2  0  0  0  0
  5  7  1  0  0  0  0
  2  3  1  0  0  0  0
  2  4  1  0  0  0  0
  2  5  1  0  0  0  0
  1  2  1  0  0  0  0
 27 28  2  0  0  0  0
 27 29  1  0  0  0  0
 23 24  1  0  0  0  0
 23 25  1  0  0  0  0
 23 26  1  0  0  0  0
 20 21  1  0  0  0  0
 20 22  1  0  0  0  0
 20 23  1  0  0  0  0
 17 18  1  0  0  0  0
 17 19  1  0  0  0  0
 17 20  1  0  0  0  0
 14 15  1  0  0  0  0
 14 16  1  0  0  0  0
 14 17  1  0  0  0  0
 11 12  1  0  0  0  0
 11 13  1  0  0  0  0
 11 14  1  0  0  0  0
  9 10  1  0  0  0  0
  9 11  1  0  0  0  0
  9 27  1  0  0  0  0
  7  8  1  0  0  0  0
  7  9  1  0  0  0  0
 31 32  1  0  0  0  0
 31 33  1  0  0  0  0
 31 34  1  0  0  0  0
 29 30  1  0  0  0  0
 29 31  1  0  0  0  0
M  CHG  1  23   1
M  END
$$$$
default_name
  -OEChem-01062215323D

 34 33  0     1  0  0  0  0  0999 V2000
   -3.8899   -3.6747    1.6490 H   0  0  0  0  0  0  0  0  0  0  0  0
   -3.9109   -2.6717    1.2250 C   0  0  0  0  0  0  0  0  0  0  0  0
   -4.6009   -2.0517    1.7950 H   0  0  0  0  0  0  0  0  0  0  0  0
   -4.2309   -2.7237    0.1860 H   0  0  0  0  0  0  0  0  0  0  0  0
   -2.5229   -2.0787    1.2980 C   0  0  0  0  0  0  0  0  0  0  0  0
   -1.5999   -2.7227    1.7810 O   0  0  0  0  0  0  0  0  0  0  0  0
   -2.3659   -0.8447    0.8120 N   0  0  0  0  0  0  0  0  0  0  0  0
   -3.1749   -0.3807    0.4220 H   0  0  0  0  0  0  0  0  0  0  0  0
   -1.0919   -0.1077    0.8170 C   0  0  1  0  0  0  0  0  0  0  0  0
   -0.2769   -0.8323    0.7691 H   0  0  0  0  0  0  0  0  0  0  0  0
   -1.0378    0.7850   -0.4370 C   0  0  0  0  0  0  0  0  0  0  0  0
   -1.9487    1.3844   -0.4766 H   0  0  0  0  0  0  0  0  0  0  0  0
   -0.1868    1.4643   -0.3573 H   0  0  0  0  0  0  0  0  0  0  0  0
   -0.9275   -0.0129   -1.7453 C   0  0  0  0  0  0  0  0  0  0  0  0
   -0.0298   -0.6321   -1.7234 H   0  0  0  0  0  0  0  0  0  0  0  0
   -1.8027   -0.6574   -1.8481 H   0  0  0  0  0  0  0  0  0  0  0  0
   -0.8534    0.9389   -2.9473 C   0  0  0  0  0  0  0  0  0  0  0  0
   -1.7468    1.5679   -2.9578 H   0  0  0  0  0  0  0  0  0  0  0  0
    0.0283    1.5746   -2.8443 H   0  0  0  0  0  0  0  0  0  0  0  0
   -0.7683    0.1434   -4.2559 C   0  0  0  0  0  0  0  0  0  0  0  0
    0.1276   -0.4850   -4.2224 H   0  0  0  0  0  0  0  0  0  0  0  0
   -1.6386   -0.5168   -4.3187 H   0  0  0  0  0  0  0  0  0  0  0  0
   -0.7195    1.0406   -5.4379 N   0  3  0  0  0  0  0  0  0  0  0  0
    0.0898    1.6470   -5.3908 H   0  0  0  0  0  0  0  0  0  0  0  0
   -0.6639    0.5008   -6.2926 H   0  0  0  0  0  0  0  0  0  0  0  0
   -1.5509    1.6185   -5.4784 H   0  0  0  0  0  0  0  0  0  0  0  0
   -0.9506    0.7074    2.1045 C   0  0  0  0  0  0  0  0  0  0  0  0
    0.1618    0.9005    2.5807 O   0  0  0  0  0  0  0  0  0  0  0  0
   -2.0765    1.1489    2.6746 N   0  0  0  0  0  0  0  0  0  0  0  0
   -2.9454    0.9719    2.1984 H   0  0  0  0  0  0  0  0  0  0  0  0
   -2.1160    1.9432    3.9039 C   0  0  0  0  0  0  0  0  0  0  0  0
   -1.5938    2.8896    3.7482 H   0  0  0  0  0  0  0  0  0  0  0  0
   -3.1476    2.1504    4.1905 H   0  0  0  0  0  0  0  0  0  0  0  0
   -1.6183    1.4047    4.7133 H   0  0  0  0  0  0  0  0  0  0  0  0
  5  6  2  0  0  0  0
  5  7  1  0  0  0  0
  2  3  1  0  0  0  0
  2  4  1  0  0  0  0
  2  5  1  0  0  0  0
  1  2  1  0  0  0  0
 27 28  2  0  0  0  0
 27 29  1  0  0  0  0
 23 24  1  0  0  0  0
 23 25  1  0  0  0  0
 23 26  1  0  0  0  0
 20 21  1  0  0  0  0
 20 22  1  0  0  0  0
 20 23  1  0  0  0  0
 17 18  1  0  0  0  0
 17 19  1  0  0  0  0
 17 20  1  0  0  0  0
 14 15  1  0  0  0  0
 14 16  1  0  0  0  0
 14 17  1  0  0  0  0
 11 12  1  0  0  0  0
 11 13  1  0  0  0  0
 11 14  1  0  0  0  0
  9 10  1  0  0  0  0
  9 11  1  0  0  0  0
  9 27  1  0  0  0  0
  7  8  1  0  0  0  0
  7  9  1  0  0  0  0
 31 32  1  0  0  0  0
 31 33  1  0  0  0  0
 31 34  1  0  0  0  0
 29 30  1  0  0  0  0
 29 31  1  0  0  0  0
M  CHG  1  23   1
M  END
$$$$
default_name
  -OEChem-01062215323D

 34 33  0     1  0  0  0  0  0999 V2000
   -3.8899   -3.6747    1.6490 H   0  0  0  0  0  0  0  0  0  0  0  0
   -3.9109   -2.6717    1.2250 C   0  0  0  0  0  0  0  0  0  0  0  0
   -4.6009   -2.0517    1.7950 H   0  0  0  0  0  0  0  0  0  0  0  0
   -4.2309   -2.7237    0.1860 H   0  0  0  0  0  0  0  0  0  0  0  0
   -2.5229   -2.0787    1.2980 C   0  0  0  0  0  0  0  0  0  0  0  0
   -1.5999   -2.7227    1.7810 O   0  0  0  0  0  0  0  0  0  0  0  0
   -2.3659   -0.8447    0.8120 N   0  0  0  0  0  0  0  0  0  0  0  0
   -3.1749   -0.3807    0.4220 H   0  0  0  0  0  0  0  0  0  0  0  0
   -1.0919   -0.1077    0.8170 C   0  0  1  0  0  0  0  0  0  0  0  0
   -0.2769   -0.8323    0.7691 H   0  0  0  0  0  0  0  0  0  0  0  0
   -1.0378    0.7850   -0.4370 C   0  0  0  0  0  0  0  0  0  0  0  0
   -1.9487    1.3844   -0.4766 H   0  0  0  0  0  0  0  0  0  0  0  0
   -0.1868    1.4643   -0.3573 H   0  0  0  0  0  0  0  0  0  0  0  0
   -0.9275   -0.0129   -1.7453 C   0  0  0  0  0  0  0  0  0  0  0  0
   -0.0298   -0.6321   -1.7234 H   0  0  0  0  0  0  0  0  0  0  0  0
   -1.8027   -0.6574   -1.8481 H   0  0  0  0  0  0  0  0  0  0  0  0
   -0.8534    0.9389   -2.9473 C   0  0  0  0  0  0  0  0  0  0  0  0
   -1.7468    1.5679   -2.9578 H   0  0  0  0  0  0  0  0  0  0  0  0
    0.0283    1.5746   -2.8443 H   0  0  0  0  0  0  0  0  0  0  0  0
   -0.7683    0.1434   -4.2559 C   0  0  0  0  0  0  0  0  0  0  0  0
    0.1276   -0.4850   -4.2224 H   0  0  0  0  0  0  0  0  0  0  0  0
   -1.6386   -0.5168   -4.3187 H   0  0  0  0  0  0  0  0  0  0  0  0
   -0.7195    1.0406   -5.4379 N   0  3  0  0  0  0  0  0  0  0  0  0
    0.0898    1.6470   -5.3908 H   0  0  0  0  0  0  0  0  0  0  0  0
   -0.6639    0.5008   -6.2926 H   0  0  0  0  0  0  0  0  0  0  0  0
   -1.5509    1.6185   -5.4784 H   0  0  0  0  0  0  0  0  0  0  0  0
   -0.9506    0.7074    2.1045 C   0  0  0  0  0  0  0  0  0  0  0  0
    0.1494    1.1358    2.4331 O   0  0  0  0  0  0  0  0  0  0  0  0
   -2.0538    0.8862    2.8384 N   0  0  0  0  0  0  0  0  0  0  0  0
   -2.9220    0.5269    2.4775 H   0  0  0  0  0  0  0  0  0  0  0  0
   -2.0908    1.6418    4.0919 C   0  0  0  0  0  0  0  0  0  0  0  0
   -1.8126    2.6810    3.9043 H   0  0  0  0  0  0  0  0  0  0  0  0
   -3.0921    1.6151    4.5234 H   0  0  0  0  0  0  0  0  0  0  0  0
   -1.3798    1.2187    4.8049 H   0  0  0  0  0  0  0  0  0  0  0  0
  5  6  2  0  0  0  0
  5  7  1  0  0  0  0
  2  3  1  0  0  0  0
  2  4  1  0  0  0  0
  2  5  1  0  0  0  0
  1  2  1  0  0  0  0
 27 28  2  0  0  0  0
 27 29  1  0  0  0  0
 23 24  1  0  0  0  0
 23 25  1  0  0  0  0
 23 26  1  0  0  0  0
 20 21  1  0  0  0  0
 20 22  1  0  0  0  0
 20 23  1  0  0  0  0
 17 18  1  0  0  0  0
 17 19  1  0  0  0  0
 17 20  1  0  0  0  0
 14 15  1  0  0  0  0
 14 16  1  0  0  0  0
 14 17  1  0  0  0  0
 11 12  1  0  0  0  0
 11 13  1  0  0  0  0
 11 14  1  0  0  0  0
  9 10  1  0  0  0  0
  9 11  1  0  0  0  0
  9 27  1  0  0  0  0
  7  8  1  0  0  0  0
  7  9  1  0  0  0  0
 31 32  1  0  0  0  0
 31 33  1  0  0  0  0
 31 34  1  0  0  0  0
 29 30  1  0  0  0  0
 29 31  1  0  0  0  0
M  CHG  1  23   1
M  END
$$$$
default_name
  -OEChem-01062215323D

 34 33  0     1  0  0  0  0  0999 V2000
   -3.8899   -3.6747    1.6490 H   0  0  0  0  0  0  0  0  0  0  0  0
   -3.9109   -2.6717    1.2250 C   0  0  0  0  0  0  0  0  0  0  0  0
   -4.6009   -2.0517    1.7950 H   0  0  0  0  0  0  0  0  0  0  0  0
   -4.2309   -2.7237    0.1860 H   0  0  0  0  0  0  0  0  0  0  0  0
   -2.5229   -2.0787    1.2980 C   0  0  0  0  0  0  0  0  0  0  0  0
   -1.5999   -2.7227    1.7810 O   0  0  0  0  0  0  0  0  0  0  0  0
   -2.3659   -0.8447    0.8120 N   0  0  0  0  0  0  0  0  0  0  0  0
   -3.1749   -0.3807    0.4220 H   0  0  0  0  0  0  0  0  0  0  0  0
   -1.0919   -0.1077    0.8170 C   0  0  1  0  0  0  0  0  0  0  0  0
   -0.2769   -0.8323    0.7691 H   0  0  0  0  0  0  0  0  0  0  0  0
   -1.0378    0.7850   -0.4370 C   0  0  0  0  0  0  0  0  0  0  0  0
   -1.9487    1.3844   -0.4766 H   0  0  0  0  0  0  0  0  0  0  0  0
   -0.1868    1.4643   -0.3573 H   0  0  0  0  0  0  0  0  0  0  0  0
   -0.9275   -0.0129   -1.7453 C   0  0  0  0  0  0  0  0  0  0  0  0
   -0.0298   -0.6321   -1.7234 H   0  0  0  0  0  0  0  0  0  0  0  0
   -1.8027   -0.6574   -1.8481 H   0  0  0  0  0  0  0  0  0  0  0  0
   -0.8534    0.9389   -2.9473 C   0  0  0  0  0  0  0  0  0  0  0  0
   -1.7468    1.5679   -2.9578 H   0  0  0  0  0  0  0  0  0  0  0  0
    0.0283    1.5746   -2.8443 H   0  0  0  0  0  0  0  0  0  0  0  0
   -0.7683    0.1434   -4.2559 C   0  0  0  0  0  0  0  0  0  0  0  0
    0.1276   -0.4850   -4.2224 H   0  0  0  0  0  0  0  0  0  0  0  0
   -1.6386   -0.5168   -4.3187 H   0  0  0  0  0  0  0  0  0  0  0  0
   -0.7195    1.0406   -5.4379 N   0  3  0  0  0  0  0  0  0  0  0  0
    0.0898    1.6470   -5.3908 H   0  0  0  0  0  0  0  0  0  0  0  0
   -0.6639    0.5008   -6.2926 H   0  0  0  0  0  0  0  0  0  0  0  0
   -1.5509    1.6185   -5.4784 H   0  0  0  0  0  0  0  0  0  0  0  0
   -0.9506    0.7074    2.1045 C   0  0  0  0  0  0  0  0  0  0  0  0
    0.0659    1.3639    2.2979 O   0  0  0  0  0  0  0  0  0  0  0  0
   -1.9520    0.6334    2.9873 N   0  0  0  0  0  0  0  0  0  0  0  0
   -2.7640    0.0955    2.7332 H   0  0  0  0  0  0  0  0  0  0  0  0
   -1.9749    1.3516    4.2629 C   0  0  0  0  0  0  0  0  0  0  0  0
   -1.9571    2.4282    4.0803 H   0  0  0  0  0  0  0  0  0  0  0  0
   -2.8760    1.1022    4.8244 H   0  0  0  0  0  0  0  0  0  0  0  0
   -1.0964    1.0887    4.8561 H   0  0  0  0  0  0  0  0  0  0  0  0
  5  6  2  0  0  0  0
  5  7  1  0  0  0  0
  2  3  1  0  0  0  0
  2  4  1  0  0  0  0
  2  5  1  0  0  0  0
  1  2  1  0  0  0  0
 27 28  2  0  0  0  0
 27 29  1  0  0  0  0
 23 24  1  0  0  0  0
 23 25  1  0  0  0  0
 23 26  1  0  0  0  0
 20 21  1  0  0  0  0
 20 22  1  0  0  0  0
 20 23  1  0  0  0  0
 17 18  1  0  0  0  0
 17 19  1  0  0  0  0
 17 20  1  0  0  0  0
 14 15  1  0  0  0  0
 14 16  1  0  0  0  0
 14 17  1  0  0  0  0
 11 12  1  0  0  0  0
 11 13  1  0  0  0  0
 11 14  1  0  0  0  0
  9 10  1  0  0  0  0
  9 11  1  0  0  0  0
  9 27  1  0  0  0  0
  7  8  1  0  0  0  0
  7  9  1  0  0  0  0
 31 32  1  0  0  0  0
 31 33  1  0  0  0  0
 31 34  1  0  0  0  0
 29 30  1  0  0  0  0
 29 31  1  0  0  0  0
M  CHG  1  23   1
M  END
$$$$
default_name
  -OEChem-01062215323D

 34 33  0     1  0  0  0  0  0999 V2000
   -3.8899   -3.6747    1.6490 H   0  0  0  0  0  0  0  0  0  0  0  0
   -3.9109   -2.6717    1.2250 C   0  0  0  0  0  0  0  0  0  0  0  0
   -4.6009   -2.0517    1.7950 H   0  0  0  0  0  0  0  0  0  0  0  0
   -4.2309   -2.7237    0.1860 H   0  0  0  0  0  0  0  0  0  0  0  0
   -2.5229   -2.0787    1.2980 C   0  0  0  0  0  0  0  0  0  0  0  0
   -1.5999   -2.7227    1.7810 O   0  0  0  0  0  0  0  0  0  0  0  0
   -2.3659   -0.8447    0.8120 N   0  0  0  0  0  0  0  0  0  0  0  0
   -3.1749   -0.3807    0.4220 H   0  0  0  0  0  0  0  0  0  0  0  0
   -1.0919   -0.1077    0.8170 C   0  0  1  0  0  0  0  0  0  0  0  0
   -0.2769   -0.8323    0.7691 H   0  0  0  0  0  0  0  0  0  0  0  0
   -1.0378    0.7850   -0.4370 C   0  0  0  0  0  0  0  0  0  0  0  0
   -1.9487    1.3844   -0.4766 H   0  0  0  0  0  0  0  0  0  0  0  0
   -0.1868    1.4643   -0.3573 H   0  0  0  0  0  0  0  0  0  0  0  0
   -0.9275   -0.0129   -1.7453 C   0  0  0  0  0  0  0  0  0  0  0  0
   -0.0298   -0.6321   -1.7234 H   0  0  0  0  0  0  0  0  0  0  0  0
   -1.8027   -0.6574   -1.8481 H   0  0  0  0  0  0  0  0  0  0  0  0
   -0.8534    0.9389   -2.9473 C   0  0  0  0  0  0  0  0  0  0  0  0
   -1.7468    1.5679   -2.9578 H   0  0  0  0  0  0  0  0  0  0  0  0
    0.0283    1.5746   -2.8443 H   0  0  0  0  0  0  0  0  0  0  0  0
   -0.7683    0.1434   -4.2559 C   0  0  0  0  0  0  0  0  0  0  0  0
    0.1276   -0.4850   -4.2224 H   0  0  0  0  0  0  0  0  0  0  0  0
   -1.6386   -0.5168   -4.3187 H   0  0  0  0  0  0  0  0  0  0  0  0
   -0.7195    1.0406   -5.4379 N   0  3  0  0  0  0  0  0  0  0  0  0
    0.0898    1.6470   -5.3908 H   0  0  0  0  0  0  0  0  0  0  0  0
   -0.6639    0.5008   -6.2926 H   0  0  0  0  0  0  0  0  0  0  0  0
   -1.5509    1.6185   -5.4784 H   0  0  0  0  0  0  0  0  0  0  0  0
   -0.9506    0.7074    2.1045 C   0  0  0  0  0  0  0  0  0  0  0  0
   -0.0831    1.5692    2.1843 O   0  0  0  0  0  0  0  0  0  0  0  0
   -1.7781    0.4079    3.1110 N   0  0  0  0  0  0  0  0  0  0  0  0
   -2.4821   -0.2929    2.9482 H   0  0  0  0  0  0  0  0  0  0  0  0
   -1.7762    1.0925    4.4051 C   0  0  0  0  0  0  0  0  0  0  0  0
   -2.0173    2.1483    4.2641 H   0  0  0  0  0  0  0  0  0  0  0  0
   -2.5141    0.6466    5.0731 H   0  0  0  0  0  0  0  0  0  0  0  0
   -0.7872    1.0236    4.8633 H   0  0  0  0  0  0  0  0  0  0  0  0
  5  6  2  0  0  0  0
  5  7  1  0  0  0  0
  2  3  1  0  0  0  0
  2  4  1  0  0  0  0
  2  5  1  0  0  0  0
  1  2  1  0  0  0  0
 27 28  2  0  0  0  0
 27 29  1  0  0  0  0
 23 24  1  0  0  0  0
 23 25  1  0  0  0  0
 23 26  1  0  0  0  0
 20 21  1  0  0  0  0
 20 22  1  0  0  0  0
 20 23  1  0  0  0  0
 17 18  1  0  0  0  0
 17 19  1  0  0  0  0
 17 20  1  0  0  0  0
 14 15  1  0  0  0  0
 14 16  1  0  0  0  0
 14 17  1  0  0  0  0
 11 12  1  0  0  0  0
 11 13  1  0  0  0  0
 11 14  1  0  0  0  0
  9 10  1  0  0  0  0
  9 11  1  0  0  0  0
  9 27  1  0  0  0  0
  7  8  1  0  0  0  0
  7  9  1  0  0  0  0
 31 32  1  0  0  0  0
 31 33  1  0  0  0  0
 31 34  1  0  0  0  0
 29 30  1  0  0  0  0
 29 31  1  0  0  0  0
M  CHG  1  23   1
M  END
$$$$
default_name
  -OEChem-01062215323D

 34 33  0     1  0  0  0  0  0999 V2000
   -3.8899   -3.6747    1.6490 H   0  0  0  0  0  0  0  0  0  0  0  0
   -3.9109   -2.6717    1.2250 C   0  0  0  0  0  0  0  0  0  0  0  0
   -4.6009   -2.0517    1.7950 H   0  0  0  0  0  0  0  0  0  0  0  0
   -4.2309   -2.7237    0.1860 H   0  0  0  0  0  0  0  0  0  0  0  0
   -2.5229   -2.0787    1.2980 C   0  0  0  0  0  0  0  0  0  0  0  0
   -1.5999   -2.7227    1.7810 O   0  0  0  0  0  0  0  0  0  0  0  0
   -2.3659   -0.8447    0.8120 N   0  0  0  0  0  0  0  0  0  0  0  0
   -3.1749   -0.3807    0.4220 H   0  0  0  0  0  0  0  0  0  0  0  0
   -1.0919   -0.1077    0.8170 C   0  0  1  0  0  0  0  0  0  0  0  0
   -0.2769   -0.8323    0.7691 H   0  0  0  0  0  0  0  0  0  0  0  0
   -1.0378    0.7850   -0.4370 C   0  0  0  0  0  0  0  0  0  0  0  0
   -1.9487    1.3844   -0.4766 H   0  0  0  0  0  0  0  0  0  0  0  0
   -0.1868    1.4643   -0.3573 H   0  0  0  0  0  0  0  0  0  0  0  0
   -0.9275   -0.0129   -1.7453 C   0  0  0  0  0  0  0  0  0  0  0  0
   -0.0298   -0.6321   -1.7234 H   0  0  0  0  0  0  0  0  0  0  0  0
   -1.8027   -0.6574   -1.8481 H   0  0  0  0  0  0  0  0  0  0  0  0
   -0.8534    0.9389   -2.9473 C   0  0  0  0  0  0  0  0  0  0  0  0
   -1.7468    1.5679   -2.9578 H   0  0  0  0  0  0  0  0  0  0  0  0
    0.0283    1.5746   -2.8443 H   0  0  0  0  0  0  0  0  0  0  0  0
   -0.7683    0.1434   -4.2559 C   0  0  0  0  0  0  0  0  0  0  0  0
    0.1276   -0.4850   -4.2224 H   0  0  0  0  0  0  0  0  0  0  0  0
   -1.6386   -0.5168   -4.3187 H   0  0  0  0  0  0  0  0  0  0  0  0
   -0.7195    1.0406   -5.4379 N   0  3  0  0  0  0  0  0  0  0  0  0
    0.0898    1.6470   -5.3908 H   0  0  0  0  0  0  0  0  0  0  0  0
   -0.6639    0.5008   -6.2926 H   0  0  0  0  0  0  0  0  0  0  0  0
   -1.5509    1.6185   -5.4784 H   0  0  0  0  0  0  0  0  0  0  0  0
   -0.9506    0.7074    2.1045 C   0  0  0  0  0  0  0  0  0  0  0  0
   -0.2874    1.7378    2.0999 O   0  0  0  0  0  0  0  0  0  0  0  0
   -1.5440    0.2249    3.2011 N   0  0  0  0  0  0  0  0  0  0  0  0
   -2.0957   -0.6118    3.1077 H   0  0  0  0  0  0  0  0  0  0  0  0
   -1.5083    0.8820    4.5090 C   0  0  0  0  0  0  0  0  0  0  0  0
   -1.9891    1.8604    4.4432 H   0  0  0  0  0  0  0  0  0  0  0  0
   -2.0311    0.2794    5.2525 H   0  0  0  0  0  0  0  0  0  0  0  0
   -0.4734    1.0279    4.8262 H   0  0  0  0  0  0  0  0  0  0  0  0
  5  6  2  0  0  0  0
  5  7  1  0  0  0  0
  2  3  1  0  0  0  0
  2  4  1  0  0  0  0
  2  5  1  0  0  0  0
  1  2  1  0  0  0  0
 27 28  2  0  0  0  0
 27 29  1  0  0  0  0
 23 24  1  0  0  0  0
 23 25  1  0  0  0  0
 23 26  1  0  0  0  0
 20 21  1  0  0  0  0
 20 22  1  0  0  0  0
 20 23  1  0  0  0  0
 17 18  1  0  0  0  0
 17 19  1  0  0  0  0
 17 20  1  0  0  0  0
 14 15  1  0  0  0  0
 14 16  1  0  0  0  0
 14 17  1  0  0  0  0
 11 12  1  0  0  0  0
 11 13  1  0  0  0  0
 11 14  1  0  0  0  0
  9 10  1  0  0  0  0
  9 11  1  0  0  0  0
  9 27  1  0  0  0  0
  7  8  1  0  0  0  0
  7  9  1  0  0  0  0
 31 32  1  0  0  0  0
 31 33  1  0  0  0  0
 31 34  1  0  0  0  0
 29 30  1  0  0  0  0
 29 31  1  0  0  0  0
M  CHG  1  23   1
M  END
$$$$
default_name
  -OEChem-01062215323D

 34 33  0     1  0  0  0  0  0999 V2000
   -3.8899   -3.6747    1.6490 H   0  0  0  0  0  0  0  0  0  0  0  0
   -3.9109   -2.6717    1.2250 C   0  0  0  0  0  0  0  0  0  0  0  0
   -4.6009   -2.0517    1.7950 H   0  0  0  0  0  0  0  0  0  0  0  0
   -4.2309   -2.7237    0.1860 H   0  0  0  0  0  0  0  0  0  0  0  0
   -2.5229   -2.0787    1.2980 C   0  0  0  0  0  0  0  0  0  0  0  0
   -1.5999   -2.7227    1.7810 O   0  0  0  0  0  0  0  0  0  0  0  0
   -2.3659   -0.8447    0.8120 N   0  0  0  0  0  0  0  0  0  0  0  0
   -3.1749   -0.3807    0.4220 H   0  0  0  0  0  0  0  0  0  0  0  0
   -1.0919   -0.1077    0.8170 C   0  0  1  0  0  0  0  0  0  0  0  0
   -0.2769   -0.8323    0.7691 H   0  0  0  0  0  0  0  0  0  0  0  0
   -1.0378    0.7850   -0.4370 C   0  0  0  0  0  0  0  0  0  0  0  0
   -1.9487    1.3844   -0.4766 H   0  0  0  0  0  0  0  0  0  0  0  0
   -0.1868    1.4643   -0.3573 H   0  0  0  0  0  0  0  0  0  0  0  0
   -0.9275   -0.0129   -1.7453 C   0  0  0  0  0  0  0  0  0  0  0  0
   -0.0298   -0.6321   -1.7234 H   0  0  0  0  0  0  0  0  0  0  0  0
   -1.8027   -0.6574   -1.8481 H   0  0  0  0  0  0  0  0  0  0  0  0
   -0.8534    0.9389   -2.9473 C   0  0  0  0  0  0  0  0  0  0  0  0
   -1.7468    1.5679   -2.9578 H   0  0  0  0  0  0  0  0  0  0  0  0
    0.0283    1.5746   -2.8443 H   0  0  0  0  0  0  0  0  0  0  0  0
   -0.7683    0.1434   -4.2559 C   0  0  0  0  0  0  0  0  0  0  0  0
    0.1276   -0.4850   -4.2224 H   0  0  0  0  0  0  0  0  0  0  0  0
   -1.6386   -0.5168   -4.3187 H   0  0  0  0  0  0  0  0  0  0  0  0
   -0.7195    1.0406   -5.4379 N   0  3  0  0  0  0  0  0  0  0  0  0
    0.0898    1.6470   -5.3908 H   0  0  0  0  0  0  0  0  0  0  0  0
   -0.6639    0.5008   -6.2926 H   0  0  0  0  0  0  0  0  0  0  0  0
   -1.5509    1.6185   -5.4784 H   0  0  0  0  0  0  0  0  0  0  0  0
   -0.9506    0.7074    2.1045 C   0  0  0  0  0  0  0  0  0  0  0  0
   -0.5331    1.8582    2.0507 O   0  0  0  0  0  0  0  0  0  0  0  0
   -1.2656    0.0970    3.2516 N   0  0  0  0  0  0  0  0  0  0  0  0
   -1.6310   -0.8395    3.2008 H   0  0  0  0  0  0  0  0  0  0  0  0
   -1.1894    0.7346    4.5673 C   0  0  0  0  0  0  0  0  0  0  0  0
   -1.8745    1.5842    4.6055 H   0  0  0  0  0  0  0  0  0  0  0  0
   -1.4598    0.0255    5.3505 H   0  0  0  0  0  0  0  0  0  0  0  0
   -0.1764    1.1013    4.7471 H   0  0  0  0  0  0  0  0  0  0  0  0
  5  6  2  0  0  0  0
  5  7  1  0  0  0  0
  2  3  1  0  0  0  0
  2  4  1  0  0  0  0
  2  5  1  0  0  0  0
  1  2  1  0  0  0  0
 27 28  2  0  0  0  0
 27 29  1  0  0  0  0
 23 24  1  0  0  0  0
 23 25  1  0  0  0  0
 23 26  1  0  0  0  0
 20 21  1  0  0  0  0
 20 22  1  0  0  0  0
 20 23  1  0  0  0  0
 17 18  1  0  0  0  0
 17 19  1  0  0  0  0
 17 20  1  0  0  0  0
 14 15  1  0  0  0  0
 14 16  1  0  0  0  0
 14 17  1  0  0  0  0
 11 12  1  0  0  0  0
 11 13  1  0  0  0  0
 11 14  1  0  0  0  0
  9 10  1  0  0  0  0
  9 11  1  0  0  0  0
  9 27  1  0  0  0  0
  7  8  1  0  0  0  0
  7  9  1  0  0  0  0
 31 32  1  0  0  0  0
 31 33  1  0  0  0  0
 31 34  1  0  0  0  0
 29 30  1  0  0  0  0
 29 31  1  0  0  0  0
M  CHG  1  23   1
M  END
$$$$
default_name
  -OEChem-01062215323D

 34 33  0     1  0  0  0  0  0999 V2000
   -3.8899   -3.6747    1.6490 H   0  0  0  0  0  0  0  0  0  0  0  0
   -3.9109   -2.6717    1.2250 C   0  0  0  0  0  0  0  0  0  0  0  0
   -4.6009   -2.0517    1.7950 H   0  0  0  0  0  0  0  0  0  0  0  0
   -4.2309   -2.7237    0.1860 H   0  0  0  0  0  0  0  0  0  0  0  0
   -2.5229   -2.0787    1.2980 C   0  0  0  0  0  0  0  0  0  0  0  0
   -1.5999   -2.7227    1.7810 O   0  0  0  0  0  0  0  0  0  0  0  0
   -2.3659   -0.8447    0.8120 N   0  0  0  0  0  0  0  0  0  0  0  0
   -3.1749   -0.3807    0.4220 H   0  0  0  0  0  0  0  0  0  0  0  0
   -1.0919   -0.1077    0.8170 C   0  0  1  0  0  0  0  0  0  0  0  0
   -0.2769   -0.8323    0.7691 H   0  0  0  0  0  0  0  0  0  0  0  0
   -1.0378    0.7850   -0.4370 C   0  0  0  0  0  0  0  0  0  0  0  0
   -1.9487    1.3844   -0.4766 H   0  0  0  0  0  0  0  0  0  0  0  0
   -0.1868    1.4643   -0.3573 H   0  0  0  0  0  0  0  0  0  0  0  0
   -0.9275   -0.0129   -1.7453 C   0  0  0  0  0  0  0  0  0  0  0  0
   -0.0298   -0.6321   -1.7234 H   0  0  0  0  0  0  0  0  0  0  0  0
   -1.8027   -0.6574   -1.8481 H   0  0  0  0  0  0  0  0  0  0  0  0
   -0.8534    0.9389   -2.9473 C   0  0  0  0  0  0  0  0  0  0  0  0
   -1.7468    1.5679   -2.9578 H   0  0  0  0  0  0  0  0  0  0  0  0
    0.0283    1.5746   -2.8443 H   0  0  0  0  0  0  0  0  0  0  0  0
   -0.7683    0.1434   -4.2559 C   0  0  0  0  0  0  0  0  0  0  0  0
    0.1276   -0.4850   -4.2224 H   0  0  0  0  0  0  0  0  0  0  0  0
   -1.6386   -0.5168   -4.3187 H   0  0  0  0  0  0  0  0  0  0  0  0
   -0.7195    1.0406   -5.4379 N   0  3  0  0  0  0  0  0  0  0  0  0
    0.0898    1.6470   -5.3908 H   0  0  0  0  0  0  0  0  0  0  0  0
   -0.6639    0.5008   -6.2926 H   0  0  0  0  0  0  0  0  0  0  0  0
   -1.5509    1.6185   -5.4784 H   0  0  0  0  0  0  0  0  0  0  0  0
   -0.9506    0.7074    2.1045 C   0  0  0  0  0  0  0  0  0  0  0  0
   -0.8034    1.9222    2.0399 O   0  0  0  0  0  0  0  0  0  0  0  0
   -0.9619    0.0328    3.2588 N   0  0  0  0  0  0  0  0  0  0  0  0
   -1.1198   -0.9605    3.2213 H   0  0  0  0  0  0  0  0  0  0  0  0
   -0.8411    0.6603    4.5761 C   0  0  0  0  0  0  0  0  0  0  0  0
   -1.6814    1.3384    4.7399 H   0  0  0  0  0  0  0  0  0  0  0  0
   -0.8391   -0.0976    5.3603 H   0  0  0  0  0  0  0  0  0  0  0  0
    0.0837    1.2387    4.6316 H   0  0  0  0  0  0  0  0  0  0  0  0
  5  6  2  0  0  0  0
  5  7  1  0  0  0  0
  2  3  1  0  0  0  0
  2  4  1  0  0  0  0
  2  5  1  0  0  0  0
  1  2  1  0  0  0  0
 27 28  2  0  0  0  0
 27 29  1  0  0  0  0
 23 24  1  0  0  0  0
 23 25  1  0  0  0  0
 23 26  1  0  0  0  0
 20 21  1  0  0  0  0
 20 22  1  0  0  0  0
 20 23  1  0  0  0  0
 17 18  1  0  0  0  0
 17 19  1  0  0  0  0
 17 20  1  0  0  0  0
 14 15  1  0  0  0  0
 14 16  1  0  0  0  0
 14 17  1  0  0  0  0
 11 12  1  0  0  0  0
 11 13  1  0  0  0  0
 11 14  1  0  0  0  0
  9 10  1  0  0  0  0
  9 11  1  0  0  0  0
  9 27  1  0  0  0  0
  7  8  1  0  0  0  0
  7  9  1  0  0  0  0
 31 32  1  0  0  0  0
 31 33  1  0  0  0  0
 31 34  1  0  0  0  0
 29 30  1  0  0  0  0
 29 31  1  0  0  0  0
M  CHG  1  23   1
M  END
$$$$
default_name
  -OEChem-01062215323D

 34 33  0     1  0  0  0  0  0999 V2000
   -3.8899   -3.6747    1.6490 H   0  0  0  0  0  0  0  0  0  0  0  0
   -3.9109   -2.6717    1.2250 C   0  0  0  0  0  0  0  0  0  0  0  0
   -4.6009   -2.0517    1.7950 H   0  0  0  0  0  0  0  0  0  0  0  0
   -4.2309   -2.7237    0.1860 H   0  0  0  0  0  0  0  0  0  0  0  0
   -2.5229   -2.0787    1.2980 C   0  0  0  0  0  0  0  0  0  0  0  0
   -1.5999   -2.7227    1.7810 O   0  0  0  0  0  0  0  0  0  0  0  0
   -2.3659   -0.8447    0.8120 N   0  0  0  0  0  0  0  0  0  0  0  0
   -3.1749   -0.3807    0.4220 H   0  0  0  0  0  0  0  0  0  0  0  0
   -1.0919   -0.1077    0.8170 C   0  0  1  0  0  0  0  0  0  0  0  0
   -0.2769   -0.8323    0.7691 H   0  0  0  0  0  0  0  0  0  0  0  0
   -1.0378    0.7850   -0.4370 C   0  0  0  0  0  0  0  0  0  0  0  0
   -1.9487    1.3844   -0.4766 H   0  0  0  0  0  0  0  0  0  0  0  0
   -0.1868    1.4643   -0.3573 H   0  0  0  0  0  0  0  0  0  0  0  0
   -0.9275   -0.0129   -1.7453 C   0  0  0  0  0  0  0  0  0  0  0  0
   -0.0298   -0.6321   -1.7234 H   0  0  0  0  0  0  0  0  0  0  0  0
   -1.8027   -0.6574   -1.8481 H   0  0  0  0  0  0  0  0  0  0  0  0
   -0.8534    0.9389   -2.9473 C   0  0  0  0  0  0  0  0  0  0  0  0
   -1.7468    1.5679   -2.9578 H   0  0  0  0  0  0  0  0  0  0  0  0
    0.0283    1.5746   -2.8443 H   0  0  0  0  0  0  0  0  0  0  0  0
   -0.7683    0.1434   -4.2559 C   0  0  0  0  0  0  0  0  0  0  0  0
    0.1276   -0.4850   -4.2224 H   0  0  0  0  0  0  0  0  0  0  0  0
   -1.6386   -0.5168   -4.3187 H   0  0  0  0  0  0  0  0  0  0  0  0
   -0.7195    1.0406   -5.4379 N   0  3  0  0  0  0  0  0  0  0  0  0
    0.0898    1.6470   -5.3908 H   0  0  0  0  0  0  0  0  0  0  0  0
   -0.6639    0.5008   -6.2926 H   0  0  0  0  0  0  0  0  0  0  0  0
   -1.5509    1.6185   -5.4784 H   0  0  0  0  0  0  0  0  0  0  0  0
   -0.9506    0.7074    2.1045 C   0  0  0  0  0  0  0  0  0  0  0  0
   -1.0799    1.9254    2.0682 O   0  0  0  0  0  0  0  0  0  0  0  0
   -0.6536    0.0368    3.2224 N   0  0  0  0  0  0  0  0  0  0  0  0
   -0.5968   -0.9666    3.1677 H   0  0  0  0  0  0  0  0  0  0  0  0
   -0.4874    0.6641    4.5348 C   0  0  0  0  0  0  0  0  0  0  0  0
   -1.4227    1.1399    4.8372 H   0  0  0  0  0  0  0  0  0  0  0  0
   -0.2115   -0.0816    5.2813 H   0  0  0  0  0  0  0  0  0  0  0  0
    0.2890    1.4308    4.4874 H   0  0  0  0  0  0  0  0  0  0  0  0
  5  6  2  0  0  0  0
  5  7  1  0  0  0  0
  2  3  1  0  0  0  0
  2  4  1  0  0  0  0
  2  5  1  0  0  0  0
  1  2  1  0  0  0  0
 27 28  2  0  0  0  0
 27 29  1  0  0  0  0
 23 24  1  0  0  0  0
 23 25  1  0  0  0  0
 23 26  1  0  0  0  0
 20 21  1  0  0  0  0
 20 22  1  0  0  0  0
 20 23  1  0  0  0  0
 17 18  1  0  0  0  0
 17 19  1  0  0  0  0
 17 20  1  0  0  0  0
 14 15  1  0  0  0  0
 14 16  1  0  0  0  0
 14 17  1  0  0  0  0
 11 12  1  0  0  0  0
 11 13  1  0  0  0  0
 11 14  1  0  0  0  0
  9 10  1  0  0  0  0
  9 11  1  0  0  0  0
  9 27  1  0  0  0  0
  7  8  1  0  0  0  0
  7  9  1  0  0  0  0
 31 32  1  0  0  0  0
 31 33  1  0  0  0  0
 31 34  1  0  0  0  0
 29 30  1  0  0  0  0
 29 31  1  0  0  0  0
M  CHG  1  23   1
M  END
$$$$
default_name
  -OEChem-01062215323D

 34 33  0     1  0  0  0  0  0999 V2000
   -3.8899   -3.6747    1.6490 H   0  0  0  0  0  0  0  0  0  0  0  0
   -3.9109   -2.6717    1.2250 C   0  0  0  0  0  0  0  0  0  0  0  0
   -4.6009   -2.0517    1.7950 H   0  0  0  0  0  0  0  0  0  0  0  0
   -4.2309   -2.7237    0.1860 H   0  0  0  0  0  0  0  0  0  0  0  0
   -2.5229   -2.0787    1.2980 C   0  0  0  0  0  0  0  0  0  0  0  0
   -1.5999   -2.7227    1.7810 O   0  0  0  0  0  0  0  0  0  0  0  0
   -2.3659   -0.8447    0.8120 N   0  0  0  0  0  0  0  0  0  0  0  0
   -3.1749   -0.3807    0.4220 H   0  0  0  0  0  0  0  0  0  0  0  0
   -1.0919   -0.1077    0.8170 C   0  0  1  0  0  0  0  0  0  0  0  0
   -0.2769   -0.8323    0.7691 H   0  0  0  0  0  0  0  0  0  0  0  0
   -1.0378    0.7850   -0.4370 C   0  0  0  0  0  0  0  0  0  0  0  0
   -1.9487    1.3844   -0.4766 H   0  0  0  0  0  0  0  0  0  0  0  0
   -0.1868    1.4643   -0.3573 H   0  0  0  0  0  0  0  0  0  0  0  0
   -0.9275   -0.0129   -1.7453 C   0  0  0  0  0  0  0  0  0  0  0  0
   -0.0298   -0.6321   -1.7234 H   0  0  0  0  0  0  0  0  0  0  0  0
   -1.8027   -0.6574   -1.8481 H   0  0  0  0  0  0  0  0  0  0  0  0
   -0.8534    0.9389   -2.9473 C   0  0  0  0  0  0  0  0  0  0  0  0
   -1.7468    1.5679   -2.9578 H   0  0  0  0  0  0  0  0  0  0  0  0
    0.0283    1.5746   -2.8443 H   0  0  0  0  0  0  0  0  0  0  0  0
   -0.7683    0.1434   -4.2559 C   0  0  0  0  0  0  0  0  0  0  0  0
    0.1276   -0.4850   -4.2224 H   0  0  0  0  0  0  0  0  0  0  0  0
   -1.6386   -0.5168   -4.3187 H   0  0  0  0  0  0  0  0  0  0  0  0
   -0.7195    1.0406   -5.4379 N   0  3  0  0  0  0  0  0  0  0  0  0
    0.0898    1.6470   -5.3908 H   0  0  0  0  0  0  0  0  0  0  0  0
   -0.6639    0.5008   -6.2926 H   0  0  0  0  0  0  0  0  0  0  0  0
   -1.5509    1.6185   -5.4784 H   0  0  0  0  0  0  0  0  0  0  0  0
   -0.9506    0.7074    2.1045 C   0  0  0  0  0  0  0  0  0  0  0  0
   -1.3438    1.8676    2.1338 O   0  0  0  0  0  0  0  0  0  0  0  0
   -0.3617    0.1087    3.1449 N   0  0  0  0  0  0  0  0  0  0  0  0
   -0.0976   -0.8573    3.0437 H   0  0  0  0  0  0  0  0  0  0  0  0
   -0.1522    0.7458    4.4463 C   0  0  0  0  0  0  0  0  0  0  0  0
   -1.1163    1.0022    4.8908 H   0  0  0  0  0  0  0  0  0  0  0  0
    0.3803    0.0724    5.1188 H   0  0  0  0  0  0  0  0  0  0  0  0
    0.4256    1.6646    4.3244 H   0  0  0  0  0  0  0  0  0  0  0  0
  5  6  2  0  0  0  0
  5  7  1  0  0  0  0
  2  3  1  0  0  0  0
  2  4  1  0  0  0  0
  2  5  1  0  0  0  0
  1  2  1  0  0  0  0
 27 28  2  0  0  0  0
 27 29  1  0  0  0  0
 23 24  1  0  0  0  0
 23 25  1  0  0  0  0
 23 26  1  0  0  0  0
 20 21  1  0  0  0  0
 20 22  1  0  0  0  0
 20 23  1  0  0  0  0
 17 18  1  0  0  0  0
 17 19  1  0  0  0  0
 17 20  1  0  0  0  0
 14 15  1  0  0  0  0
 14 16  1  0  0  0  0
 14 17  1  0  0  0  0
 11 12  1  0  0  0  0
 11 13  1  0  0  0  0
 11 14  1  0  0  0  0
  9 10  1  0  0  0  0
  9 11  1  0  0  0  0
  9 27  1  0  0  0  0
  7  8  1  0  0  0  0
  7  9  1  0  0  0  0
 31 32  1  0  0  0  0
 31 33  1  0  0  0  0
 31 34  1  0  0  0  0
 29 30  1  0  0  0  0
 29 31  1  0  0  0  0
M  CHG  1  23   1
M  END
$$$$
default_name
  -OEChem-01062215323D

 34 33  0     1  0  0  0  0  0999 V2000
   -3.8899   -3.6747    1.6490 H   0  0  0  0  0  0  0  0  0  0  0  0
   -3.9109   -2.6717    1.2250 C   0  0  0  0  0  0  0  0  0  0  0  0
   -4.6009   -2.0517    1.7950 H   0  0  0  0  0  0  0  0  0  0  0  0
   -4.2309   -2.7237    0.1860 H   0  0  0  0  0  0  0  0  0  0  0  0
   -2.5229   -2.0787    1.2980 C   0  0  0  0  0  0  0  0  0  0  0  0
   -1.5999   -2.7227    1.7810 O   0  0  0  0  0  0  0  0  0  0  0  0
   -2.3659   -0.8447    0.8120 N   0  0  0  0  0  0  0  0  0  0  0  0
   -3.1749   -0.3807    0.4220 H   0  0  0  0  0  0  0  0  0  0  0  0
   -1.0919   -0.1077    0.8170 C   0  0  1  0  0  0  0  0  0  0  0  0
   -0.2769   -0.8323    0.7691 H   0  0  0  0  0  0  0  0  0  0  0  0
   -1.0378    0.7850   -0.4370 C   0  0  0  0  0  0  0  0  0  0  0  0
   -1.9487    1.3844   -0.4766 H   0  0  0  0  0  0  0  0  0  0  0  0
   -0.1868    1.4643   -0.3573 H   0  0  0  0  0  0  0  0  0  0  0  0
   -0.9275   -0.0129   -1.7453 C   0  0  0  0  0  0  0  0  0  0  0  0
   -0.0298   -0.6321   -1.7234 H   0  0  0  0  0  0  0  0  0  0  0  0
   -1.8027   -0.6574   -1.8481 H   0  0  0  0  0  0  0  0  0  0  0  0
   -0.8534    0.9389   -2.9473 C   0  0  0  0  0  0  0  0  0  0  0  0
   -1.7468    1.5679   -2.9578 H   0  0  0  0  0  0  0  0  0  0  0  0
    0.0283    1.5746   -2.8443 H   0  0  0  0  0  0  0  0  0  0  0  0
   -0.7683    0.1434   -4.2559 C   0  0  0  0  0  0  0  0  0  0  0  0
    0.1276   -0.4850   -4.2224 H   0  0  0  0  0  0  0  0  0  0  0  0
   -1.6386   -0.5168   -4.3187 H   0  0  0  0  0  0  0  0  0  0  0  0
   -0.7195    1.0406   -5.4379 N   0  3  0  0  0  0  0  0  0  0  0  0
    0.0898    1.6470   -5.3908 H   0  0  0  0  0  0  0  0  0  0  0  0
   -0.6639    0.5008   -6.2926 H   0  0  0  0  0  0  0  0  0  0  0  0
   -1.5509    1.6185   -5.4784 H   0  0  0  0  0  0  0  0  0  0  0  0
   -0.9506    0.7074    2.1045 C   0  0  0  0  0  0  0  0  0  0  0  0
   -1.5771    1.7528    2.2321 O   0  0  0  0  0  0  0  0  0  0  0  0
   -0.1060    0.2436    3.0314 N   0  0  0  0  0  0  0  0  0  0  0  0
    0.3436   -0.6401    2.8578 H   0  0  0  0  0  0  0  0  0  0  0  0
    0.1416    0.8998    4.3166 C   0  0  0  0  0  0  0  0  0  0  0  0
   -0.7829    0.9345    4.8970 H   0  0  0  0  0  0  0  0  0  0  0  0
    0.8961    0.3539    4.8840 H   0  0  0  0  0  0  0  0  0  0  0  0
    0.4842    1.9240    4.1537 H   0  0  0  0  0  0  0  0  0  0  0  0
  5  6  2  0  0  0  0
  5  7  1  0  0  0  0
  2  3  1  0  0  0  0
  2  4  1  0  0  0  0
  2  5  1  0  0  0  0
  1  2  1  0  0  0  0
 27 28  2  0  0  0  0
 27 29  1  0  0  0  0
 23 24  1  0  0  0  0
 23 25  1  0  0  0  0
 23 26  1  0  0  0  0
 20 21  1  0  0  0  0
 20 22  1  0  0  0  0
 20 23  1  0  0  0  0
 17 18  1  0  0  0  0
 17 19  1  0  0  0  0
 17 20  1  0  0  0  0
 14 15  1  0  0  0  0
 14 16  1  0  0  0  0
 14 17  1  0  0  0  0
 11 12  1  0  0  0  0
 11 13  1  0  0  0  0
 11 14  1  0  0  0  0
  9 10  1  0  0  0  0
  9 11  1  0  0  0  0
  9 27  1  0  0  0  0
  7  8  1  0  0  0  0
  7  9  1  0  0  0  0
 31 32  1  0  0  0  0
 31 33  1  0  0  0  0
 31 34  1  0  0  0  0
 29 30  1  0  0  0  0
 29 31  1  0  0  0  0
M  CHG  1  23   1
M  END
$$$$
default_name
  -OEChem-01062215323D

 34 33  0     1  0  0  0  0  0999 V2000
   -3.8899   -3.6747    1.6490 H   0  0  0  0  0  0  0  0  0  0  0  0
   -3.9109   -2.6717    1.2250 C   0  0  0  0  0  0  0  0  0  0  0  0
   -4.6009   -2.0517    1.7950 H   0  0  0  0  0  0  0  0  0  0  0  0
   -4.2309   -2.7237    0.1860 H   0  0  0  0  0  0  0  0  0  0  0  0
   -2.5229   -2.0787    1.2980 C   0  0  0  0  0  0  0  0  0  0  0  0
   -1.5999   -2.7227    1.7810 O   0  0  0  0  0  0  0  0  0  0  0  0
   -2.3659   -0.8447    0.8120 N   0  0  0  0  0  0  0  0  0  0  0  0
   -3.1749   -0.3807    0.4220 H   0  0  0  0  0  0  0  0  0  0  0  0
   -1.0919   -0.1077    0.8170 C   0  0  1  0  0  0  0  0  0  0  0  0
   -0.2769   -0.8323    0.7691 H   0  0  0  0  0  0  0  0  0  0  0  0
   -1.0378    0.7850   -0.4370 C   0  0  0  0  0  0  0  0  0  0  0  0
   -1.9487    1.3844   -0.4766 H   0  0  0  0  0  0  0  0  0  0  0  0
   -0.1868    1.4643   -0.3573 H   0  0  0  0  0  0  0  0  0  0  0  0
   -0.9275   -0.0129   -1.7453 C   0  0  0  0  0  0  0  0  0  0  0  0
   -0.0298   -0.6321   -1.7234 H   0  0  0  0  0  0  0  0  0  0  0  0
   -1.8027   -0.6574   -1.8481 H   0  0  0  0  0  0  0  0  0  0  0  0
   -0.8534    0.9389   -2.9473 C   0  0  0  0  0  0  0  0  0  0  0  0
   -1.7468    1.5679   -2.9578 H   0  0  0  0  0  0  0  0  0  0  0  0
    0.0283    1.5746   -2.8443 H   0  0  0  0  0  0  0  0  0  0  0  0
   -0.7683    0.1434   -4.2559 C   0  0  0  0  0  0  0  0  0  0  0  0
    0.1276   -0.4850   -4.2224 H   0  0  0  0  0  0  0  0  0  0  0  0
   -1.6386   -0.5168   -4.3187 H   0  0  0  0  0  0  0  0  0  0  0  0
   -0.7195    1.0406   -5.4379 N   0  3  0  0  0  0  0  0  0  0  0  0
    0.0898    1.6470   -5.3908 H   0  0  0  0  0  0  0  0  0  0  0  0
   -0.6639    0.5008   -6.2926 H   0  0  0  0  0  0  0  0  0  0  0  0
   -1.5509    1.6185   -5.4784 H   0  0  0  0  0  0  0  0  0  0  0  0
   -0.9506    0.7074    2.1045 C   0  0  0  0  0  0  0  0  0  0  0  0
   -1.7639    1.5887    2.3565 O   0  0  0  0  0  0  0  0  0  0  0  0
    0.0959    0.4322    2.8899 N   0  0  0  0  0  0  0  0  0  0  0  0
    0.6969   -0.3297    2.6225 H   0  0  0  0  0  0  0  0  0  0  0  0
    0.3739    1.1157    4.1544 C   0  0  0  0  0  0  0  0  0  0  0  0
   -0.4453    0.9417    4.8554 H   0  0  0  0  0  0  0  0  0  0  0  0
    1.3006    0.7437    4.5928 H   0  0  0  0  0  0  0  0  0  0  0  0
    0.4608    2.1914    3.9870 H   0  0  0  0  0  0  0  0  0  0  0  0
  5  6  2  0  0  0  0
  5  7  1  0  0  0  0
  2  3  1  0  0  0  0
  2  4  1  0  0  0  0
  2  5  1  0  0  0  0
  1  2  1  0  0  0  0
 27 28  2  0  0  0  0
 27 29  1  0  0  0  0
 23 24  1  0  0  0  0
 23 25  1  0  0  0  0
 23 26  1  0  0  0  0
 20 21  1  0  0  0  0
 20 22  1  0  0  0  0
 20 23  1  0  0  0  0
 17 18  1  0  0  0  0
 17 19  1  0  0  0  0
 17 20  1  0  0  0  0
 14 15  1  0  0  0  0
 14 16  1  0  0  0  0
 14 17  1  0  0  0  0
 11 12  1  0  0  0  0
 11 13  1  0  0  0  0
 11 14  1  0  0  0  0
  9 10  1  0  0  0  0
  9 11  1  0  0  0  0
  9 27  1  0  0  0  0
  7  8  1  0  0  0  0
  7  9  1  0  0  0  0
 31 32  1  0  0  0  0
 31 33  1  0  0  0  0
 31 34  1  0  0  0  0
 29 30  1  0  0  0  0
 29 31  1  0  0  0  0
M  CHG  1  23   1
M  END
$$$$
default_name
  -OEChem-01062215323D

 34 33  0     1  0  0  0  0  0999 V2000
   -3.8899   -3.6747    1.6490 H   0  0  0  0  0  0  0  0  0  0  0  0
   -3.9109   -2.6717    1.2250 C   0  0  0  0  0  0  0  0  0  0  0  0
   -4.6009   -2.0517    1.7950 H   0  0  0  0  0  0  0  0  0  0  0  0
   -4.2309   -2.7237    0.1860 H   0  0  0  0  0  0  0  0  0  0  0  0
   -2.5229   -2.0787    1.2980 C   0  0  0  0  0  0  0  0  0  0  0  0
   -1.5999   -2.7227    1.7810 O   0  0  0  0  0  0  0  0  0  0  0  0
   -2.3659   -0.8447    0.8120 N   0  0  0  0  0  0  0  0  0  0  0  0
   -3.1749   -0.3807    0.4220 H   0  0  0  0  0  0  0  0  0  0  0  0
   -1.0919   -0.1077    0.8170 C   0  0  1  0  0  0  0  0  0  0  0  0
   -0.2769   -0.8323    0.7691 H   0  0  0  0  0  0  0  0  0  0  0  0
   -1.0378    0.7850   -0.4370 C   0  0  0  0  0  0  0  0  0  0  0  0
   -1.9487    1.3844   -0.4766 H   0  0  0  0  0  0  0  0  0  0  0  0
   -0.1868    1.4643   -0.3573 H   0  0  0  0  0  0  0  0  0  0  0  0
   -0.9275   -0.0129   -1.7453 C   0  0  0  0  0  0  0  0  0  0  0  0
   -0.0298   -0.6321   -1.7234 H   0  0  0  0  0  0  0  0  0  0  0  0
   -1.8027   -0.6574   -1.8481 H   0  0  0  0  0  0  0  0  0  0  0  0
   -0.8534    0.9389   -2.9473 C   0  0  0  0  0  0  0  0  0  0  0  0
   -1.7468    1.5679   -2.9578 H   0  0  0  0  0  0  0  0  0  0  0  0
    0.0283    1.5746   -2.8443 H   0  0  0  0  0  0  0  0  0  0  0  0
   -0.7683    0.1434   -4.2559 C   0  0  0  0  0  0  0  0  0  0  0  0
    0.1276   -0.4850   -4.2224 H   0  0  0  0  0  0  0  0  0  0  0  0
   -1.6386   -0.5168   -4.3187 H   0  0  0  0  0  0  0  0  0  0  0  0
   -0.7195    1.0406   -5.4379 N   0  3  0  0  0  0  0  0  0  0  0  0
    0.0898    1.6470   -5.3908 H   0  0  0  0  0  0  0  0  0  0  0  0
   -0.6639    0.5008   -6.2926 H   0  0  0  0  0  0  0  0  0  0  0  0
   -1.5509    1.6185   -5.4784 H   0  0  0  0  0  0  0  0  0  0  0  0
   -0.9506    0.7074    2.1045 C   0  0  0  0  0  0  0  0  0  0  0  0
   -1.8914    1.3865    2.4984 O   0  0  0  0  0  0  0  0  0  0  0  0
    0.2304    0.6617    2.7298 N   0  0  0  0  0  0  0  0  0  0  0  0
    0.9381    0.0526    2.3540 H   0  0  0  0  0  0  0  0  0  0  0  0
    0.5290    1.3786    3.9709 C   0  0  0  0  0  0  0  0  0  0  0  0
   -0.1265    1.0231    4.7689 H   0  0  0  0  0  0  0  0  0  0  0  0
    1.5664    1.2153    4.2650 H   0  0  0  0  0  0  0  0  0  0  0  0
    0.3569    2.4486    3.8355 H   0  0  0  0  0  0  0  0  0  0  0  0
  5  6  2  0  0  0  0
  5  7  1  0  0  0  0
  2  3  1  0  0  0  0
  2  4  1  0  0  0  0
  2  5  1  0  0  0  0
  1  2  1  0  0  0  0
 27 28  2  0  0  0  0
 27 29  1  0  0  0  0
 23 24  1  0  0  0  0
 23 25  1  0  0  0  0
 23 26  1  0  0  0  0
 20 21  1  0  0  0  0
 20 22  1  0  0  0  0
 20 23  1  0  0  0  0
 17 18  1  0  0  0  0
 17 19  1  0  0  0  0
 17 20  1  0  0  0  0
 14 15  1  0  0  0  0
 14 16  1  0  0  0  0
 14 17  1  0  0  0  0
 11 12  1  0  0  0  0
 11 13  1  0  0  0  0
 11 14  1  0  0  0  0
  9 10  1  0  0  0  0
  9 11  1  0  0  0  0
  9 27  1  0  0  0  0
  7  8  1  0  0  0  0
  7  9  1  0  0  0  0
 31 32  1  0  0  0  0
 31 33  1  0  0  0  0
 31 34  1  0  0  0  0
 29 30  1  0  0  0  0
 29 31  1  0  0  0  0
M  CHG  1  23   1
M  END
$$$$
default_name
  -OEChem-01062215323D

 34 33  0     1  0  0  0  0  0999 V2000
   -3.8899   -3.6747    1.6490 H   0  0  0  0  0  0  0  0  0  0  0  0
   -3.9109   -2.6717    1.2250 C   0  0  0  0  0  0  0  0  0  0  0  0
   -4.6009   -2.0517    1.7950 H   0  0  0  0  0  0  0  0  0  0  0  0
   -4.2309   -2.7237    0.1860 H   0  0  0  0  0  0  0  0  0  0  0  0
   -2.5229   -2.0787    1.2980 C   0  0  0  0  0  0  0  0  0  0  0  0
   -1.5999   -2.7227    1.7810 O   0  0  0  0  0  0  0  0  0  0  0  0
   -2.3659   -0.8447    0.8120 N   0  0  0  0  0  0  0  0  0  0  0  0
   -3.1749   -0.3807    0.4220 H   0  0  0  0  0  0  0  0  0  0  0  0
   -1.0919   -0.1077    0.8170 C   0  0  1  0  0  0  0  0  0  0  0  0
   -0.2769   -0.8323    0.7691 H   0  0  0  0  0  0  0  0  0  0  0  0
   -1.0378    0.7850   -0.4370 C   0  0  0  0  0  0  0  0  0  0  0  0
   -1.9487    1.3844   -0.4766 H   0  0  0  0  0  0  0  0  0  0  0  0
   -0.1868    1.4643   -0.3573 H   0  0  0  0  0  0  0  0  0  0  0  0
   -0.9275   -0.0129   -1.7453 C   0  0  0  0  0  0  0  0  0  0  0  0
   -0.0298   -0.6321   -1.7234 H   0  0  0  0  0  0  0  0  0  0  0  0
   -1.8027   -0.6574   -1.8481 H   0  0  0  0  0  0  0  0  0  0  0  0
   -0.8534    0.9389   -2.9473 C   0  0  0  0  0  0  0  0  0  0  0  0
   -1.7468    1.5679   -2.9578 H   0  0  0  0  0  0  0  0  0  0  0  0
    0.0283    1.5746   -2.8443 H   0  0  0  0  0  0  0  0  0  0  0  0
   -0.7683    0.1434   -4.2559 C   0  0  0  0  0  0  0  0  0  0  0  0
    0.1276   -0.4850   -4.2224 H   0  0  0  0  0  0  0  0  0  0  0  0
   -1.6386   -0.5168   -4.3187 H   0  0  0  0  0  0  0  0  0  0  0  0
   -0.7195    1.0406   -5.4379 N   0  3  0  0  0  0  0  0  0  0  0  0
    0.0898    1.6470   -5.3908 H   0  0  0  0  0  0  0  0  0  0  0  0
   -0.6639    0.5008   -6.2926 H   0  0  0  0  0  0  0  0  0  0  0  0
   -1.5509    1.6185   -5.4784 H   0  0  0  0  0  0  0  0  0  0  0  0
   -0.9506    0.7074    2.1045 C   0  0  0  0  0  0  0  0  0  0  0  0
   -1.9510    1.1601    2.6483 O   0  0  0  0  0  0  0  0  0  0  0  0
    0.2882    0.9166    2.5621 N   0  0  0  0  0  0  0  0  0  0  0  0
    1.0508    0.4809    2.0705 H   0  0  0  0  0  0  0  0  0  0  0  0
    0.5962    1.6707    3.7786 C   0  0  0  0  0  0  0  0  0  0  0  0
    0.1519    1.1732    4.6433 H   0  0  0  0  0  0  0  0  0  0  0  0
    1.6752    1.7365    3.9231 H   0  0  0  0  0  0  0  0  0  0  0  0
    0.1798    2.6781    3.7097 H   0  0  0  0  0  0  0  0  0  0  0  0
  5  6  2  0  0  0  0
  5  7  1  0  0  0  0
  2  3  1  0  0  0  0
  2  4  1  0  0  0  0
  2  5  1  0  0  0  0
  1  2  1  0  0  0  0
 27 28  2  0  0  0  0
 27 29  1  0  0  0  0
 23 24  1  0  0  0  0
 23 25  1  0  0  0  0
 23 26  1  0  0  0  0
 20 21  1  0  0  0  0
 20 22  1  0  0  0  0
 20 23  1  0  0  0  0
 17 18  1  0  0  0  0
 17 19  1  0  0  0  0
 17 20  1  0  0  0  0
 14 15  1  0  0  0  0
 14 16  1  0  0  0  0
 14 17  1  0  0  0  0
 11 12  1  0  0  0  0
 11 13  1  0  0  0  0
 11 14  1  0  0  0  0
  9 10  1  0  0  0  0
  9 11  1  0  0  0  0
  9 27  1  0  0  0  0
  7  8  1  0  0  0  0
  7  9  1  0  0  0  0
 31 32  1  0  0  0  0
 31 33  1  0  0  0  0
 31 34  1  0  0  0  0
 29 30  1  0  0  0  0
 29 31  1  0  0  0  0
M  CHG  1  23   1
M  END
$$$$
default_name
  -OEChem-01062215323D

 34 33  0     1  0  0  0  0  0999 V2000
   -3.8899   -3.6747    1.6490 H   0  0  0  0  0  0  0  0  0  0  0  0
   -3.9109   -2.6717    1.2250 C   0  0  0  0  0  0  0  0  0  0  0  0
   -4.6009   -2.0517    1.7950 H   0  0  0  0  0  0  0  0  0  0  0  0
   -4.2309   -2.7237    0.1860 H   0  0  0  0  0  0  0  0  0  0  0  0
   -2.5229   -2.0787    1.2980 C   0  0  0  0  0  0  0  0  0  0  0  0
   -1.5999   -2.7227    1.7810 O   0  0  0  0  0  0  0  0  0  0  0  0
   -2.3659   -0.8447    0.8120 N   0  0  0  0  0  0  0  0  0  0  0  0
   -3.1749   -0.3807    0.4220 H   0  0  0  0  0  0  0  0  0  0  0  0
   -1.0919   -0.1077    0.8170 C   0  0  1  0  0  0  0  0  0  0  0  0
   -0.2769   -0.8323    0.7691 H   0  0  0  0  0  0  0  0  0  0  0  0
   -1.0378    0.7850   -0.4370 C   0  0  0  0  0  0  0  0  0  0  0  0
   -1.9487    1.3844   -0.4766 H   0  0  0  0  0  0  0  0  0  0  0  0
   -0.1868    1.4643   -0.3573 H   0  0  0  0  0  0  0  0  0  0  0  0
   -0.9275   -0.0129   -1.7453 C   0  0  0  0  0  0  0  0  0  0  0  0
   -0.0298   -0.6321   -1.7234 H   0  0  0  0  0  0  0  0  0  0  0  0
   -1.8027   -0.6574   -1.8481 H   0  0  0  0  0  0  0  0  0  0  0  0
   -0.8534    0.9389   -2.9473 C   0  0  0  0  0  0  0  0  0  0  0  0
   -1.7468    1.5679   -2.9578 H   0  0  0  0  0  0  0  0  0  0  0  0
    0.0283    1.5746   -2.8443 H   0  0  0  0  0  0  0  0  0  0  0  0
   -0.7683    0.1434   -4.2559 C   0  0  0  0  0  0  0  0  0  0  0  0
    0.1276   -0.4850   -4.2224 H   0  0  0  0  0  0  0  0  0  0  0  0
   -1.6386   -0.5168   -4.3187 H   0  0  0  0  0  0  0  0  0  0  0  0
   -0.7195    1.0406   -5.4379 N   0  3  0  0  0  0  0  0  0  0  0  0
    0.0898    1.6470   -5.3908 H   0  0  0  0  0  0  0  0  0  0  0  0
   -0.6639    0.5008   -6.2926 H   0  0  0  0  0  0  0  0  0  0  0  0
   -1.5509    1.6185   -5.4784 H   0  0  0  0  0  0  0  0  0  0  0  0
   -0.9506    0.7074    2.1045 C   0  0  0  0  0  0  0  0  0  0  0  0
   -1.9386    0.9249    2.7959 O   0  0  0  0  0  0  0  0  0  0  0  0
    0.2654    1.1793    2.3982 N   0  0  0  0  0  0  0  0  0  0  0  0
    1.0274    0.9258    1.7913 H   0  0  0  0  0  0  0  0  0  0  0  0
    0.5710    1.9722    3.5905 C   0  0  0  0  0  0  0  0  0  0  0  0
    0.3707    1.3818    4.4872 H   0  0  0  0  0  0  0  0  0  0  0  0
    1.6196    2.2718    3.5903 H   0  0  0  0  0  0  0  0  0  0  0  0
   -0.0587    2.8641    3.6181 H   0  0  0  0  0  0  0  0  0  0  0  0
  5  6  2  0  0  0  0
  5  7  1  0  0  0  0
  2  3  1  0  0  0  0
  2  4  1  0  0  0  0
  2  5  1  0  0  0  0
  1  2  1  0  0  0  0
 27 28  2  0  0  0  0
 27 29  1  0  0  0  0
 23 24  1  0  0  0  0
 23 25  1  0  0  0  0
 23 26  1  0  0  0  0
 20 21  1  0  0  0  0
 20 22  1  0  0  0  0
 20 23  1  0  0  0  0
 17 18  1  0  0  0  0
 17 19  1  0  0  0  0
 17 20  1  0  0  0  0
 14 15  1  0  0  0  0
 14 16  1  0  0  0  0
 14 17  1  0  0  0  0
 11 12  1  0  0  0  0
 11 13  1  0  0  0  0
 11 14  1  0  0  0  0
  9 10  1  0  0  0  0
  9 11  1  0  0  0  0
  9 27  1  0  0  0  0
  7  8  1  0  0  0  0
  7  9  1  0  0  0  0
 31 32  1  0  0  0  0
 31 33  1  0  0  0  0
 31 34  1  0  0  0  0
 29 30  1  0  0  0  0
 29 31  1  0  0  0  0
M  CHG  1  23   1
M  END
$$$$
default_name
  -OEChem-01062215323D

 34 33  0     1  0  0  0  0  0999 V2000
   -3.8899   -3.6747    1.6490 H   0  0  0  0  0  0  0  0  0  0  0  0
   -3.9109   -2.6717    1.2250 C   0  0  0  0  0  0  0  0  0  0  0  0
   -4.6009   -2.0517    1.7950 H   0  0  0  0  0  0  0  0  0  0  0  0
   -4.2309   -2.7237    0.1860 H   0  0  0  0  0  0  0  0  0  0  0  0
   -2.5229   -2.0787    1.2980 C   0  0  0  0  0  0  0  0  0  0  0  0
   -1.5999   -2.7227    1.7810 O   0  0  0  0  0  0  0  0  0  0  0  0
   -2.3659   -0.8447    0.8120 N   0  0  0  0  0  0  0  0  0  0  0  0
   -3.1749   -0.3807    0.4220 H   0  0  0  0  0  0  0  0  0  0  0  0
   -1.0919   -0.1077    0.8170 C   0  0  1  0  0  0  0  0  0  0  0  0
   -0.3002   -0.7903    0.5028 H   0  0  0  0  0  0  0  0  0  0  0  0
   -1.1885    1.0439   -0.2013 C   0  0  0  0  0  0  0  0  0  0  0  0
   -2.0884    1.6226    0.0128 H   0  0  0  0  0  0  0  0  0  0  0  0
   -0.3250    1.7014   -0.0823 H   0  0  0  0  0  0  0  0  0  0  0  0
   -1.2599    0.5611   -1.6581 C   0  0  0  0  0  0  0  0  0  0  0  0
   -0.3756   -0.0332   -1.8919 H   0  0  0  0  0  0  0  0  0  0  0  0
   -2.1499   -0.0575   -1.7885 H   0  0  0  0  0  0  0  0  0  0  0  0
   -1.3291    1.7590   -2.6154 C   0  0  0  0  0  0  0  0  0  0  0  0
   -2.2075    2.3603   -2.3689 H   0  0  0  0  0  0  0  0  0  0  0  0
   -0.4328    2.3692   -2.4876 H   0  0  0  0  0  0  0  0  0  0  0  0
   -1.4255    1.2783   -4.0687 C   0  0  0  0  0  0  0  0  0  0  0  0
   -0.5417    0.6724   -4.2932 H   0  0  0  0  0  0  0  0  0  0  0  0
   -2.3057    0.6354   -4.1646 H   0  0  0  0  0  0  0  0  0  0  0  0
   -1.5180    2.4181   -5.0157 N   0  3  0  0  0  0  0  0  0  0  0  0
   -0.7011    3.0111   -4.9391 H   0  0  0  0  0  0  0  0  0  0  0  0
   -1.5812    2.0843   -5.9694 H   0  0  0  0  0  0  0  0  0  0  0  0
   -2.3396    2.9772   -4.8177 H   0  0  0  0  0  0  0  0  0  0  0  0
   -0.7735    0.4005    2.2250 C   0  0  0  0  0  0  0  0  0  0  0  0
   -1.5631    0.1908    3.1382 O   0  0  0  0  0  0  0  0  0  0  0  0
    0.3601    1.0916    2.3830 N   0  0  0  0  0  0  0  0  0  0  0  0
    0.9661    1.1896    1.5854 H   0  0  0  0  0  0  0  0  0  0  0  0
    0.8124    1.6431    3.6616 C   0  0  0  0  0  0  0  0  0  0  0  0
    0.9788    0.8327    4.3745 H   0  0  0  0  0  0  0  0  0  0  0  0
    1.7431    2.1962    3.5300 H   0  0  0  0  0  0  0  0  0  0  0  0
    0.0512    2.3107    4.0712 H   0  0  0  0  0  0  0  0  0  0  0  0
  5  6  2  0  0  0  0
  5  7  1  0  0  0  0
  2  3  1  0  0  0  0
  2  4  1  0  0  0  0
  2  5  1  0  0  0  0
  1  2  1  0  0  0  0
 27 28  2  0  0  0  0
 27 29  1  0  0  0  0
 23 24  1  0  0  0  0
 23 25  1  0  0  0  0
 23 26  1  0  0  0  0
 20 21  1  0  0  0  0
 20 22  1  0  0  0  0
 20 23  1  0  0  0  0
 17 18  1  0  0  0  0
 17 19  1  0  0  0  0
 17 20  1  0  0  0  0
 14 15  1  0  0  0  0
 14 16  1  0  0  0  0
 14 17  1  0  0  0  0
 11 12  1  0  0  0  0
 11 13  1  0  0  0  0
 11 14  1  0  0  0  0
  9 10  1  0  0  0  0
  9 11  1  0  0  0  0
  9 27  1  0  0  0  0
  7  8  1  0  0  0  0
  7  9  1  0  0  0  0
 31 32  1  0  0  0  0
 31 33  1  0  0  0  0
 31 34  1  0  0  0  0
 29 30  1  0  0  0  0
 29 31  1  0  0  0  0
M  CHG  1  23   1
M  END
$$$$
default_name
  -OEChem-01062215323D

 34 33  0     1  0  0  0  0  0999 V2000
   -3.8899   -3.6747    1.6490 H   0  0  0  0  0  0  0  0  0  0  0  0
   -3.9109   -2.6717    1.2250 C   0  0  0  0  0  0  0  0  0  0  0  0
   -4.6009   -2.0517    1.7950 H   0  0  0  0  0  0  0  0  0  0  0  0
   -4.2309   -2.7237    0.1860 H   0  0  0  0  0  0  0  0  0  0  0  0
   -2.5229   -2.0787    1.2980 C   0  0  0  0  0  0  0  0  0  0  0  0
   -1.5999   -2.7227    1.7810 O   0  0  0  0  0  0  0  0  0  0  0  0
   -2.3659   -0.8447    0.8120 N   0  0  0  0  0  0  0  0  0  0  0  0
   -3.1749   -0.3807    0.4220 H   0  0  0  0  0  0  0  0  0  0  0  0
   -1.0919   -0.1077    0.8170 C   0  0  1  0  0  0  0  0  0  0  0  0
   -0.3002   -0.7903    0.5028 H   0  0  0  0  0  0  0  0  0  0  0  0
   -1.1885    1.0439   -0.2013 C   0  0  0  0  0  0  0  0  0  0  0  0
   -2.0884    1.6226    0.0128 H   0  0  0  0  0  0  0  0  0  0  0  0
   -0.3250    1.7014   -0.0823 H   0  0  0  0  0  0  0  0  0  0  0  0
   -1.2599    0.5611   -1.6581 C   0  0  0  0  0  0  0  0  0  0  0  0
   -0.3756   -0.0332   -1.8919 H   0  0  0  0  0  0  0  0  0  0  0  0
   -2.1499   -0.0575   -1.7885 H   0  0  0  0  0  0  0  0  0  0  0  0
   -1.3291    1.7590   -2.6154 C   0  0  0  0  0  0  0  0  0  0  0  0
   -2.2075    2.3603   -2.3689 H   0  0  0  0  0  0  0  0  0  0  0  0
   -0.4328    2.3692   -2.4876 H   0  0  0  0  0  0  0  0  0  0  0  0
   -1.4255    1.2783   -4.0687 C   0  0  0  0  0  0  0  0  0  0  0  0
   -0.5417    0.6724   -4.2932 H   0  0  0  0  0  0  0  0  0  0  0  0
   -2.3057    0.6354   -4.1646 H   0  0  0  0  0  0  0  0  0  0  0  0
   -1.5180    2.4181   -5.0157 N   0  3  0  0  0  0  0  0  0  0  0  0
   -0.7011    3.0111   -4.9391 H   0  0  0  0  0  0  0  0  0  0  0  0
   -1.5812    2.0843   -5.9694 H   0  0  0  0  0  0  0  0  0  0  0  0
   -2.3396    2.9772   -4.8177 H   0  0  0  0  0  0  0  0  0  0  0  0
   -0.7735    0.4005    2.2250 C   0  0  0  0  0  0  0  0  0  0  0  0
   -1.4035   -0.0324    3.1827 O   0  0  0  0  0  0  0  0  0  0  0  0
    0.1748    1.3364    2.3366 N   0  0  0  0  0  0  0  0  0  0  0  0
    0.6643    1.6118    1.5013 H   0  0  0  0  0  0  0  0  0  0  0  0
    0.6005    1.9244    3.6080 C   0  0  0  0  0  0  0  0  0  0  0  0
    1.0185    1.1476    4.2519 H   0  0  0  0  0  0  0  0  0  0  0  0
    1.3583    2.6902    3.4388 H   0  0  0  0  0  0  0  0  0  0  0  0
   -0.2553    2.3709    4.1188 H   0  0  0  0  0  0  0  0  0  0  0  0
  5  6  2  0  0  0  0
  5  7  1  0  0  0  0
  2  3  1  0  0  0  0
  2  4  1  0  0  0  0
  2  5  1  0  0  0  0
  1  2  1  0  0  0  0
 27 28  2  0  0  0  0
 27 29  1  0  0  0  0
 23 24  1  0  0  0  0
 23 25  1  0  0  0  0
 23 26  1  0  0  0  0
 20 21  1  0  0  0  0
 20 22  1  0  0  0  0
 20 23  1  0  0  0  0
 17 18  1  0  0  0  0
 17 19  1  0  0  0  0
 17 20  1  0  0  0  0
 14 15  1  0  0  0  0
 14 16  1  0  0  0  0
 14 17  1  0  0  0  0
 11 12  1  0  0  0  0
 11 13  1  0  0  0  0
 11 14  1  0  0  0  0
  9 10  1  0  0  0  0
  9 11  1  0  0  0  0
  9 27  1  0  0  0  0
  7  8  1  0  0  0  0
  7  9  1  0  0  0  0
 31 32  1  0  0  0  0
 31 33  1  0  0  0  0
 31 34  1  0  0  0  0
 29 30  1  0  0  0  0
 29 31  1  0  0  0  0
M  CHG  1  23   1
M  END
$$$$
default_name
  -OEChem-01062215323D

 34 33  0     1  0  0  0  0  0999 V2000
   -3.8899   -3.6747    1.6490 H   0  0  0  0  0  0  0  0  0  0  0  0
   -3.9109   -2.6717    1.2250 C   0  0  0  0  0  0  0  0  0  0  0  0
   -4.6009   -2.0517    1.7950 H   0  0  0  0  0  0  0  0  0  0  0  0
   -4.2309   -2.7237    0.1860 H   0  0  0  0  0  0  0  0  0  0  0  0
   -2.5229   -2.0787    1.2980 C   0  0  0  0  0  0  0  0  0  0  0  0
   -1.5999   -2.7227    1.7810 O   0  0  0  0  0  0  0  0  0  0  0  0
   -2.3659   -0.8447    0.8120 N   0  0  0  0  0  0  0  0  0  0  0  0
   -3.1749   -0.3807    0.4220 H   0  0  0  0  0  0  0  0  0  0  0  0
   -1.0919   -0.1077    0.8170 C   0  0  1  0  0  0  0  0  0  0  0  0
   -0.3002   -0.7903    0.5028 H   0  0  0  0  0  0  0  0  0  0  0  0
   -1.1885    1.0439   -0.2013 C   0  0  0  0  0  0  0  0  0  0  0  0
   -2.0884    1.6226    0.0128 H   0  0  0  0  0  0  0  0  0  0  0  0
   -0.3250    1.7014   -0.0823 H   0  0  0  0  0  0  0  0  0  0  0  0
   -1.2599    0.5611   -1.6581 C   0  0  0  0  0  0  0  0  0  0  0  0
   -0.3756   -0.0332   -1.8919 H   0  0  0  0  0  0  0  0  0  0  0  0
   -2.1499   -0.0575   -1.7885 H   0  0  0  0  0  0  0  0  0  0  0  0
   -1.3291    1.7590   -2.6154 C   0  0  0  0  0  0  0  0  0  0  0  0
   -2.2075    2.3603   -2.3689 H   0  0  0  0  0  0  0  0  0  0  0  0
   -0.4328    2.3692   -2.4876 H   0  0  0  0  0  0  0  0  0  0  0  0
   -1.4255    1.2783   -4.0687 C   0  0  0  0  0  0  0  0  0  0  0  0
   -0.5417    0.6724   -4.2932 H   0  0  0  0  0  0  0  0  0  0  0  0
   -2.3057    0.6354   -4.1646 H   0  0  0  0  0  0  0  0  0  0  0  0
   -1.5180    2.4181   -5.0157 N   0  3  0  0  0  0  0  0  0  0  0  0
   -0.7011    3.0111   -4.9391 H   0  0  0  0  0  0  0  0  0  0  0  0
   -1.5812    2.0843   -5.9694 H   0  0  0  0  0  0  0  0  0  0  0  0
   -2.3396    2.9772   -4.8177 H   0  0  0  0  0  0  0  0  0  0  0  0
   -0.7735    0.4005    2.2250 C   0  0  0  0  0  0  0  0  0  0  0  0
   -1.1924   -0.2124    3.1999 O   0  0  0  0  0  0  0  0  0  0  0  0
   -0.0664    1.5312    2.3208 N   0  0  0  0  0  0  0  0  0  0  0  0
    0.2649    1.9522    1.4687 H   0  0  0  0  0  0  0  0  0  0  0  0
    0.3243    2.1485    3.5896 C   0  0  0  0  0  0  0  0  0  0  0  0
    0.9714    1.4678    4.1470 H   0  0  0  0  0  0  0  0  0  0  0  0
    0.8612    3.0807    3.4103 H   0  0  0  0  0  0  0  0  0  0  0  0
   -0.5617    2.3535    4.1944 H   0  0  0  0  0  0  0  0  0  0  0  0
  5  6  2  0  0  0  0
  5  7  1  0  0  0  0
  2  3  1  0  0  0  0
  2  4  1  0  0  0  0
  2  5  1  0  0  0  0
  1  2  1  0  0  0  0
 27 28  2  0  0  0  0
 27 29  1  0  0  0  0
 23 24  1  0  0  0  0
 23 25  1  0  0  0  0
 23 26  1  0  0  0  0
 20 21  1  0  0  0  0
 20 22  1  0  0  0  0
 20 23  1  0  0  0  0
 17 18  1  0  0  0  0
 17 19  1  0  0  0  0
 17 20  1  0  0  0  0
 14 15  1  0  0  0  0
 14 16  1  0  0  0  0
 14 17  1  0  0  0  0
 11 12  1  0  0  0  0
 11 13  1  0  0  0  0
 11 14  1  0  0  0  0
  9 10  1  0  0  0  0
  9 11  1  0  0  0  0
  9 27  1  0  0  0  0
  7  8  1  0  0  0  0
  7  9  1  0  0  0  0
 31 32  1  0  0  0  0
 31 33  1  0  0  0  0
 31 34  1  0  0  0  0
 29 30  1  0  0  0  0
 29 31  1  0  0  0  0
M  CHG  1  23   1
M  END
$$$$
default_name
  -OEChem-01062215323D

 34 33  0     1  0  0  0  0  0999 V2000
   -3.8899   -3.6747    1.6490 H   0  0  0  0  0  0  0  0  0  0  0  0
   -3.9109   -2.6717    1.2250 C   0  0  0  0  0  0  0  0  0  0  0  0
   -4.6009   -2.0517    1.7950 H   0  0  0  0  0  0  0  0  0  0  0  0
   -4.2309   -2.7237    0.1860 H   0  0  0  0  0  0  0  0  0  0  0  0
   -2.5229   -2.0787    1.2980 C   0  0  0  0  0  0  0  0  0  0  0  0
   -1.5999   -2.7227    1.7810 O   0  0  0  0  0  0  0  0  0  0  0  0
   -2.3659   -0.8447    0.8120 N   0  0  0  0  0  0  0  0  0  0  0  0
   -3.1749   -0.3807    0.4220 H   0  0  0  0  0  0  0  0  0  0  0  0
   -1.0919   -0.1077    0.8170 C   0  0  1  0  0  0  0  0  0  0  0  0
   -0.3002   -0.7903    0.5028 H   0  0  0  0  0  0  0  0  0  0  0  0
   -1.1885    1.0439   -0.2013 C   0  0  0  0  0  0  0  0  0  0  0  0
   -2.0884    1.6226    0.0128 H   0  0  0  0  0  0  0  0  0  0  0  0
   -0.3250    1.7014   -0.0823 H   0  0  0  0  0  0  0  0  0  0  0  0
   -1.2599    0.5611   -1.6581 C   0  0  0  0  0  0  0  0  0  0  0  0
   -0.3756   -0.0332   -1.8919 H   0  0  0  0  0  0  0  0  0  0  0  0
   -2.1499   -0.0575   -1.7885 H   0  0  0  0  0  0  0  0  0  0  0  0
   -1.3291    1.7590   -2.6154 C   0  0  0  0  0  0  0  0  0  0  0  0
   -2.2075    2.3603   -2.3689 H   0  0  0  0  0  0  0  0  0  0  0  0
   -0.4328    2.3692   -2.4876 H   0  0  0  0  0  0  0  0  0  0  0  0
   -1.4255    1.2783   -4.0687 C   0  0  0  0  0  0  0  0  0  0  0  0
   -0.5417    0.6724   -4.2932 H   0  0  0  0  0  0  0  0  0  0  0  0
   -2.3057    0.6354   -4.1646 H   0  0  0  0  0  0  0  0  0  0  0  0
   -1.5180    2.4181   -5.0157 N   0  3  0  0  0  0  0  0  0  0  0  0
   -0.7011    3.0111   -4.9391 H   0  0  0  0  0  0  0  0  0  0  0  0
   -1.5812    2.0843   -5.9694 H   0  0  0  0  0  0  0  0  0  0  0  0
   -2.3396    2.9772   -4.8177 H   0  0  0  0  0  0  0  0  0  0  0  0
   -0.7735    0.4005    2.2250 C   0  0  0  0  0  0  0  0  0  0  0  0
   -0.9441   -0.3369    3.1886 O   0  0  0  0  0  0  0  0  0  0  0  0
   -0.3472    1.6628    2.3368 N   0  0  0  0  0  0  0  0  0  0  0  0
   -0.2047    2.1877    1.4899 H   0  0  0  0  0  0  0  0  0  0  0  0
    0.0026    2.3002    3.6076 C   0  0  0  0  0  0  0  0  0  0  0  0
    0.8406    1.7715    4.0669 H   0  0  0  0  0  0  0  0  0  0  0  0
    0.2856    3.3410    3.4465 H   0  0  0  0  0  0  0  0  0  0  0  0
   -0.8469    2.2597    4.2928 H   0  0  0  0  0  0  0  0  0  0  0  0
  5  6  2  0  0  0  0
  5  7  1  0  0  0  0
  2  3  1  0  0  0  0
  2  4  1  0  0  0  0
  2  5  1  0  0  0  0
  1  2  1  0  0  0  0
 27 28  2  0  0  0  0
 27 29  1  0  0  0  0
 23 24  1  0  0  0  0
 23 25  1  0  0  0  0
 23 26  1  0  0  0  0
 20 21  1  0  0  0  0
 20 22  1  0  0  0  0
 20 23  1  0  0  0  0
 17 18  1  0  0  0  0
 17 19  1  0  0  0  0
 17 20  1  0  0  0  0
 14 15  1  0  0  0  0
 14 16  1  0  0  0  0
 14 17  1  0  0  0  0
 11 12  1  0  0  0  0
 11 13  1  0  0  0  0
 11 14  1  0  0  0  0
  9 10  1  0  0  0  0
  9 11  1  0  0  0  0
  9 27  1  0  0  0  0
  7  8  1  0  0  0  0
  7  9  1  0  0  0  0
 31 32  1  0  0  0  0
 31 33  1  0  0  0  0
 31 34  1  0  0  0  0
 29 30  1  0  0  0  0
 29 31  1  0  0  0  0
M  CHG  1  23   1
M  END
$$$$
default_name
  -OEChem-01062215323D

 34 33  0     1  0  0  0  0  0999 V2000
   -3.8899   -3.6747    1.6490 H   0  0  0  0  0  0  0  0  0  0  0  0
   -3.9109   -2.6717    1.2250 C   0  0  0  0  0  0  0  0  0  0  0  0
   -4.6009   -2.0517    1.7950 H   0  0  0  0  0  0  0  0  0  0  0  0
   -4.2309   -2.7237    0.1860 H   0  0  0  0  0  0  0  0  0  0  0  0
   -2.5229   -2.0787    1.2980 C   0  0  0  0  0  0  0  0  0  0  0  0
   -1.5999   -2.7227    1.7810 O   0  0  0  0  0  0  0  0  0  0  0  0
   -2.3659   -0.8447    0.8120 N   0  0  0  0  0  0  0  0  0  0  0  0
   -3.1749   -0.3807    0.4220 H   0  0  0  0  0  0  0  0  0  0  0  0
   -1.0919   -0.1077    0.8170 C   0  0  1  0  0  0  0  0  0  0  0  0
   -0.3002   -0.7903    0.5028 H   0  0  0  0  0  0  0  0  0  0  0  0
   -1.1885    1.0439   -0.2013 C   0  0  0  0  0  0  0  0  0  0  0  0
   -2.0884    1.6226    0.0128 H   0  0  0  0  0  0  0  0  0  0  0  0
   -0.3250    1.7014   -0.0823 H   0  0  0  0  0  0  0  0  0  0  0  0
   -1.2599    0.5611   -1.6581 C   0  0  0  0  0  0  0  0  0  0  0  0
   -0.3756   -0.0332   -1.8919 H   0  0  0  0  0  0  0  0  0  0  0  0
   -2.1499   -0.0575   -1.7885 H   0  0  0  0  0  0  0  0  0  0  0  0
   -1.3291    1.7590   -2.6154 C   0  0  0  0  0  0  0  0  0  0  0  0
   -2.2075    2.3603   -2.3689 H   0  0  0  0  0  0  0  0  0  0  0  0
   -0.4328    2.3692   -2.4876 H   0  0  0  0  0  0  0  0  0  0  0  0
   -1.4255    1.2783   -4.0687 C   0  0  0  0  0  0  0  0  0  0  0  0
   -0.5417    0.6724   -4.2932 H   0  0  0  0  0  0  0  0  0  0  0  0
   -2.3057    0.6354   -4.1646 H   0  0  0  0  0  0  0  0  0  0  0  0
   -1.5180    2.4181   -5.0157 N   0  3  0  0  0  0  0  0  0  0  0  0
   -0.7011    3.0111   -4.9391 H   0  0  0  0  0  0  0  0  0  0  0  0
   -1.5812    2.0843   -5.9694 H   0  0  0  0  0  0  0  0  0  0  0  0
   -2.3396    2.9772   -4.8177 H   0  0  0  0  0  0  0  0  0  0  0  0
   -0.7735    0.4005    2.2250 C   0  0  0  0  0  0  0  0  0  0  0  0
   -0.6756   -0.3975    3.1498 O   0  0  0  0  0  0  0  0  0  0  0  0
   -0.6484    1.7221    2.3835 N   0  0  0  0  0  0  0  0  0  0  0  0
   -0.7126    2.3022    1.5635 H   0  0  0  0  0  0  0  0  0  0  0  0
   -0.3427    2.3692    3.6608 C   0  0  0  0  0  0  0  0  0  0  0  0
    0.6350    2.0380    4.0172 H   0  0  0  0  0  0  0  0  0  0  0  0
   -0.3292    3.4535    3.5450 H   0  0  0  0  0  0  0  0  0  0  0  0
   -1.0917    2.0958    4.4073 H   0  0  0  0  0  0  0  0  0  0  0  0
  5  6  2  0  0  0  0
  5  7  1  0  0  0  0
  2  3  1  0  0  0  0
  2  4  1  0  0  0  0
  2  5  1  0  0  0  0
  1  2  1  0  0  0  0
 27 28  2  0  0  0  0
 27 29  1  0  0  0  0
 23 24  1  0  0  0  0
 23 25  1  0  0  0  0
 23 26  1  0  0  0  0
 20 21  1  0  0  0  0
 20 22  1  0  0  0  0
 20 23  1  0  0  0  0
 17 18  1  0  0  0  0
 17 19  1  0  0  0  0
 17 20  1  0  0  0  0
 14 15  1  0  0  0  0
 14 16  1  0  0  0  0
 14 17  1  0  0  0  0
 11 12  1  0  0  0  0
 11 13  1  0  0  0  0
 11 14  1  0  0  0  0
  9 10  1  0  0  0  0
  9 11  1  0  0  0  0
  9 27  1  0  0  0  0
  7  8  1  0  0  0  0
  7  9  1  0  0  0  0
 31 32  1  0  0  0  0
 31 33  1  0  0  0  0
 31 34  1  0  0  0  0
 29 30  1  0  0  0  0
 29 31  1  0  0  0  0
M  CHG  1  23   1
M  END
$$$$
default_name
  -OEChem-01062215323D

 34 33  0     1  0  0  0  0  0999 V2000
   -3.8899   -3.6747    1.6490 H   0  0  0  0  0  0  0  0  0  0  0  0
   -3.9109   -2.6717    1.2250 C   0  0  0  0  0  0  0  0  0  0  0  0
   -4.6009   -2.0517    1.7950 H   0  0  0  0  0  0  0  0  0  0  0  0
   -4.2309   -2.7237    0.1860 H   0  0  0  0  0  0  0  0  0  0  0  0
   -2.5229   -2.0787    1.2980 C   0  0  0  0  0  0  0  0  0  0  0  0
   -1.5999   -2.7227    1.7810 O   0  0  0  0  0  0  0  0  0  0  0  0
   -2.3659   -0.8447    0.8120 N   0  0  0  0  0  0  0  0  0  0  0  0
   -3.1749   -0.3807    0.4220 H   0  0  0  0  0  0  0  0  0  0  0  0
   -1.0919   -0.1077    0.8170 C   0  0  1  0  0  0  0  0  0  0  0  0
   -0.3002   -0.7903    0.5028 H   0  0  0  0  0  0  0  0  0  0  0  0
   -1.1885    1.0439   -0.2013 C   0  0  0  0  0  0  0  0  0  0  0  0
   -2.0884    1.6226    0.0128 H   0  0  0  0  0  0  0  0  0  0  0  0
   -0.3250    1.7014   -0.0823 H   0  0  0  0  0  0  0  0  0  0  0  0
   -1.2599    0.5611   -1.6581 C   0  0  0  0  0  0  0  0  0  0  0  0
   -0.3756   -0.0332   -1.8919 H   0  0  0  0  0  0  0  0  0  0  0  0
   -2.1499   -0.0575   -1.7885 H   0  0  0  0  0  0  0  0  0  0  0  0
   -1.3291    1.7590   -2.6154 C   0  0  0  0  0  0  0  0  0  0  0  0
   -2.2075    2.3603   -2.3689 H   0  0  0  0  0  0  0  0  0  0  0  0
   -0.4328    2.3692   -2.4876 H   0  0  0  0  0  0  0  0  0  0  0  0
   -1.4255    1.2783   -4.0687 C   0  0  0  0  0  0  0  0  0  0  0  0
   -0.5417    0.6724   -4.2932 H   0  0  0  0  0  0  0  0  0  0  0  0
   -2.3057    0.6354   -4.1646 H   0  0  0  0  0  0  0  0  0  0  0  0
   -1.5180    2.4181   -5.0157 N   0  3  0  0  0  0  0  0  0  0  0  0
   -0.7011    3.0111   -4.9391 H   0  0  0  0  0  0  0  0  0  0  0  0
   -1.5812    2.0843   -5.9694 H   0  0  0  0  0  0  0  0  0  0  0  0
   -2.3396    2.9772   -4.8177 H   0  0  0  0  0  0  0  0  0  0  0  0
   -0.7735    0.4005    2.2250 C   0  0  0  0  0  0  0  0  0  0  0  0
   -0.4051   -0.3899    3.0859 O   0  0  0  0  0  0  0  0  0  0  0  0
   -0.9494    1.7053    2.4577 N   0  0  0  0  0  0  0  0  0  0  0  0
   -1.2241    2.2880    1.6843 H   0  0  0  0  0  0  0  0  0  0  0  0
   -0.6882    2.3507    3.7456 C   0  0  0  0  0  0  0  0  0  0  0  0
    0.3687    2.2492    4.0012 H   0  0  0  0  0  0  0  0  0  0  0  0
   -0.9415    3.4104    3.6990 H   0  0  0  0  0  0  0  0  0  0  0  0
   -1.2792    1.8730    4.5301 H   0  0  0  0  0  0  0  0  0  0  0  0
  5  6  2  0  0  0  0
  5  7  1  0  0  0  0
  2  3  1  0  0  0  0
  2  4  1  0  0  0  0
  2  5  1  0  0  0  0
  1  2  1  0  0  0  0
 27 28  2  0  0  0  0
 27 29  1  0  0  0  0
 23 24  1  0  0  0  0
 23 25  1  0  0  0  0
 23 26  1  0  0  0  0
 20 21  1  0  0  0  0
 20 22  1  0  0  0  0
 20 23  1  0  0  0  0
 17 18  1  0  0  0  0
 17 19  1  0  0  0  0
 17 20  1  0  0  0  0
 14 15  1  0  0  0  0
 14 16  1  0  0  0  0
 14 17  1  0  0  0  0
 11 12  1  0  0  0  0
 11 13  1  0  0  0  0
 11 14  1  0  0  0  0
  9 10  1  0  0  0  0
  9 11  1  0  0  0  0
  9 27  1  0  0  0  0
  7  8  1  0  0  0  0
  7  9  1  0  0  0  0
 31 32  1  0  0  0  0
 31 33  1  0  0  0  0
 31 34  1  0  0  0  0
 29 30  1  0  0  0  0
 29 31  1  0  0  0  0
M  CHG  1  23   1
M  END
$$$$
default_name
  -OEChem-01062215323D

 34 33  0     1  0  0  0  0  0999 V2000
   -3.8899   -3.6747    1.6490 H   0  0  0  0  0  0  0  0  0  0  0  0
   -3.9109   -2.6717    1.2250 C   0  0  0  0  0  0  0  0  0  0  0  0
   -4.6009   -2.0517    1.7950 H   0  0  0  0  0  0  0  0  0  0  0  0
   -4.2309   -2.7237    0.1860 H   0  0  0  0  0  0  0  0  0  0  0  0
   -2.5229   -2.0787    1.2980 C   0  0  0  0  0  0  0  0  0  0  0  0
   -1.5999   -2.7227    1.7810 O   0  0  0  0  0  0  0  0  0  0  0  0
   -2.3659   -0.8447    0.8120 N   0  0  0  0  0  0  0  0  0  0  0  0
   -3.1749   -0.3807    0.4220 H   0  0  0  0  0  0  0  0  0  0  0  0
   -1.0919   -0.1077    0.8170 C   0  0  1  0  0  0  0  0  0  0  0  0
   -0.3002   -0.7903    0.5028 H   0  0  0  0  0  0  0  0  0  0  0  0
   -1.1885    1.0439   -0.2013 C   0  0  0  0  0  0  0  0  0  0  0  0
   -2.0884    1.6226    0.0128 H   0  0  0  0  0  0  0  0  0  0  0  0
   -0.3250    1.7014   -0.0823 H   0  0  0  0  0  0  0  0  0  0  0  0
   -1.2599    0.5611   -1.6581 C   0  0  0  0  0  0  0  0  0  0  0  0
   -0.3756   -0.0332   -1.8919 H   0  0  0  0  0  0  0  0  0  0  0  0
   -2.1499   -0.0575   -1.7885 H   0  0  0  0  0  0  0  0  0  0  0  0
   -1.3291    1.7590   -2.6154 C   0  0  0  0  0  0  0  0  0  0  0  0
   -2.2075    2.3603   -2.3689 H   0  0  0  0  0  0  0  0  0  0  0  0
   -0.4328    2.3692   -2.4876 H   0  0  0  0  0  0  0  0  0  0  0  0
   -1.4255    1.2783   -4.0687 C   0  0  0  0  0  0  0  0  0  0  0  0
   -0.5417    0.6724   -4.2932 H   0  0  0  0  0  0  0  0  0  0  0  0
   -2.3057    0.6354   -4.1646 H   0  0  0  0  0  0  0  0  0  0  0  0
   -1.5180    2.4181   -5.0157 N   0  3  0  0  0  0  0  0  0  0  0  0
   -0.7011    3.0111   -4.9391 H   0  0  0  0  0  0  0  0  0  0  0  0
   -1.5812    2.0843   -5.9694 H   0  0  0  0  0  0  0  0  0  0  0  0
   -2.3396    2.9772   -4.8177 H   0  0  0  0  0  0  0  0  0  0  0  0
   -0.7735    0.4005    2.2250 C   0  0  0  0  0  0  0  0  0  0  0  0
   -0.1512   -0.3148    3.0013 O   0  0  0  0  0  0  0  0  0  0  0  0
   -1.2298    1.6133    2.5543 N   0  0  0  0  0  0  0  0  0  0  0  0
   -1.7044    2.1459    1.8443 H   0  0  0  0  0  0  0  0  0  0  0  0
   -1.0101    2.2460    3.8562 C   0  0  0  0  0  0  0  0  0  0  0  0
    0.0599    2.3907    4.0200 H   0  0  0  0  0  0  0  0  0  0  0  0
   -1.5093    3.2147    3.8981 H   0  0  0  0  0  0  0  0  0  0  0  0
   -1.3968    1.6066    4.6529 H   0  0  0  0  0  0  0  0  0  0  0  0
  5  6  2  0  0  0  0
  5  7  1  0  0  0  0
  2  3  1  0  0  0  0
  2  4  1  0  0  0  0
  2  5  1  0  0  0  0
  1  2  1  0  0  0  0
 27 28  2  0  0  0  0
 27 29  1  0  0  0  0
 23 24  1  0  0  0  0
 23 25  1  0  0  0  0
 23 26  1  0  0  0  0
 20 21  1  0  0  0  0
 20 22  1  0  0  0  0
 20 23  1  0  0  0  0
 17 18  1  0  0  0  0
 17 19  1  0  0  0  0
 17 20  1  0  0  0  0
 14 15  1  0  0  0  0
 14 16  1  0  0  0  0
 14 17  1  0  0  0  0
 11 12  1  0  0  0  0
 11 13  1  0  0  0  0
 11 14  1  0  0  0  0
  9 10  1  0  0  0  0
  9 11  1  0  0  0  0
  9 27  1  0  0  0  0
  7  8  1  0  0  0  0
  7  9  1  0  0  0  0
 31 32  1  0  0  0  0
 31 33  1  0  0  0  0
 31 34  1  0  0  0  0
 29 30  1  0  0  0  0
 29 31  1  0  0  0  0
M  CHG  1  23   1
M  END
$$$$
default_name
  -OEChem-01062215323D

 34 33  0     1  0  0  0  0  0999 V2000
   -3.8899   -3.6747    1.6490 H   0  0  0  0  0  0  0  0  0  0  0  0
   -3.9109   -2.6717    1.2250 C   0  0  0  0  0  0  0  0  0  0  0  0
   -4.6009   -2.0517    1.7950 H   0  0  0  0  0  0  0  0  0  0  0  0
   -4.2309   -2.7237    0.1860 H   0  0  0  0  0  0  0  0  0  0  0  0
   -2.5229   -2.0787    1.2980 C   0  0  0  0  0  0  0  0  0  0  0  0
   -1.5999   -2.7227    1.7810 O   0  0  0  0  0  0  0  0  0  0  0  0
   -2.3659   -0.8447    0.8120 N   0  0  0  0  0  0  0  0  0  0  0  0
   -3.1749   -0.3807    0.4220 H   0  0  0  0  0  0  0  0  0  0  0  0
   -1.0919   -0.1077    0.8170 C   0  0  1  0  0  0  0  0  0  0  0  0
   -0.3002   -0.7903    0.5028 H   0  0  0  0  0  0  0  0  0  0  0  0
   -1.1885    1.0439   -0.2013 C   0  0  0  0  0  0  0  0  0  0  0  0
   -2.0884    1.6226    0.0128 H   0  0  0  0  0  0  0  0  0  0  0  0
   -0.3250    1.7014   -0.0823 H   0  0  0  0  0  0  0  0  0  0  0  0
   -1.2599    0.5611   -1.6581 C   0  0  0  0  0  0  0  0  0  0  0  0
   -0.3756   -0.0332   -1.8919 H   0  0  0  0  0  0  0  0  0  0  0  0
   -2.1499   -0.0575   -1.7885 H   0  0  0  0  0  0  0  0  0  0  0  0
   -1.3291    1.7590   -2.6154 C   0  0  0  0  0  0  0  0  0  0  0  0
   -2.2075    2.3603   -2.3689 H   0  0  0  0  0  0  0  0  0  0  0  0
   -0.4328    2.3692   -2.4876 H   0  0  0  0  0  0  0  0  0  0  0  0
   -1.4255    1.2783   -4.0687 C   0  0  0  0  0  0  0  0  0  0  0  0
   -0.5417    0.6724   -4.2932 H   0  0  0  0  0  0  0  0  0  0  0  0
   -2.3057    0.6354   -4.1646 H   0  0  0  0  0  0  0  0  0  0  0  0
   -1.5180    2.4181   -5.0157 N   0  3  0  0  0  0  0  0  0  0  0  0
   -0.7011    3.0111   -4.9391 H   0  0  0  0  0  0  0  0  0  0  0  0
   -1.5812    2.0843   -5.9694 H   0  0  0  0  0  0  0  0  0  0  0  0
   -2.3396    2.9772   -4.8177 H   0  0  0  0  0  0  0  0  0  0  0  0
   -0.7735    0.4005    2.2250 C   0  0  0  0  0  0  0  0  0  0  0  0
    0.0689   -0.1772    2.9019 O   0  0  0  0  0  0  0  0  0  0  0  0
   -1.4704    1.4525    2.6668 N   0  0  0  0  0  0  0  0  0  0  0  0
   -2.1208    1.8856    2.0324 H   0  0  0  0  0  0  0  0  0  0  0  0
   -1.2867    2.0623    3.9851 C   0  0  0  0  0  0  0  0  0  0  0  0
   -0.2705    2.4527    4.0724 H   0  0  0  0  0  0  0  0  0  0  0  0
   -1.9942    2.8797    4.1286 H   0  0  0  0  0  0  0  0  0  0  0  0
   -1.4363    1.3147    4.7672 H   0  0  0  0  0  0  0  0  0  0  0  0
  5  6  2  0  0  0  0
  5  7  1  0  0  0  0
  2  3  1  0  0  0  0
  2  4  1  0  0  0  0
  2  5  1  0  0  0  0
  1  2  1  0  0  0  0
 27 28  2  0  0  0  0
 27 29  1  0  0  0  0
 23 24  1  0  0  0  0
 23 25  1  0  0  0  0
 23 26  1  0  0  0  0
 20 21  1  0  0  0  0
 20 22  1  0  0  0  0
 20 23  1  0  0  0  0
 17 18  1  0  0  0  0
 17 19  1  0  0  0  0
 17 20  1  0  0  0  0
 14 15  1  0  0  0  0
 14 16  1  0  0  0  0
 14 17  1  0  0  0  0
 11 12  1  0  0  0  0
 11 13  1  0  0  0  0
 11 14  1  0  0  0  0
  9 10  1  0  0  0  0
  9 11  1  0  0  0  0
  9 27  1  0  0  0  0
  7  8  1  0  0  0  0
  7  9  1  0  0  0  0
 31 32  1  0  0  0  0
 31 33  1  0  0  0  0
 31 34  1  0  0  0  0
 29 30  1  0  0  0  0
 29 31  1  0  0  0  0
M  CHG  1  23   1
M  END
$$$$
default_name
  -OEChem-01062215323D

 34 33  0     1  0  0  0  0  0999 V2000
   -3.8899   -3.6747    1.6490 H   0  0  0  0  0  0  0  0  0  0  0  0
   -3.9109   -2.6717    1.2250 C   0  0  0  0  0  0  0  0  0  0  0  0
   -4.6009   -2.0517    1.7950 H   0  0  0  0  0  0  0  0  0  0  0  0
   -4.2309   -2.7237    0.1860 H   0  0  0  0  0  0  0  0  0  0  0  0
   -2.5229   -2.0787    1.2980 C   0  0  0  0  0  0  0  0  0  0  0  0
   -1.5999   -2.7227    1.7810 O   0  0  0  0  0  0  0  0  0  0  0  0
   -2.3659   -0.8447    0.8120 N   0  0  0  0  0  0  0  0  0  0  0  0
   -3.1749   -0.3807    0.4220 H   0  0  0  0  0  0  0  0  0  0  0  0
   -1.0919   -0.1077    0.8170 C   0  0  1  0  0  0  0  0  0  0  0  0
   -0.3002   -0.7903    0.5028 H   0  0  0  0  0  0  0  0  0  0  0  0
   -1.1885    1.0439   -0.2013 C   0  0  0  0  0  0  0  0  0  0  0  0
   -2.0884    1.6226    0.0128 H   0  0  0  0  0  0  0  0  0  0  0  0
   -0.3250    1.7014   -0.0823 H   0  0  0  0  0  0  0  0  0  0  0  0
   -1.2599    0.5611   -1.6581 C   0  0  0  0  0  0  0  0  0  0  0  0
   -0.3756   -0.0332   -1.8919 H   0  0  0  0  0  0  0  0  0  0  0  0
   -2.1499   -0.0575   -1.7885 H   0  0  0  0  0  0  0  0  0  0  0  0
   -1.3291    1.7590   -2.6154 C   0  0  0  0  0  0  0  0  0  0  0  0
   -2.2075    2.3603   -2.3689 H   0  0  0  0  0  0  0  0  0  0  0  0
   -0.4328    2.3692   -2.4876 H   0  0  0  0  0  0  0  0  0  0  0  0
   -1.4255    1.2783   -4.0687 C   0  0  0  0  0  0  0  0  0  0  0  0
   -0.5417    0.6724   -4.2932 H   0  0  0  0  0  0  0  0  0  0  0  0
   -2.3057    0.6354   -4.1646 H   0  0  0  0  0  0  0  0  0  0  0  0
   -1.5180    2.4181   -5.0157 N   0  3  0  0  0  0  0  0  0  0  0  0
   -0.7011    3.0111   -4.9391 H   0  0  0  0  0  0  0  0  0  0  0  0
   -1.5812    2.0843   -5.9694 H   0  0  0  0  0  0  0  0  0  0  0  0
   -2.3396    2.9772   -4.8177 H   0  0  0  0  0  0  0  0  0  0  0  0
   -0.7735    0.4005    2.2250 C   0  0  0  0  0  0  0  0  0  0  0  0
    0.2403    0.0135    2.7943 O   0  0  0  0  0  0  0  0  0  0  0  0
   -1.6548    1.2338    2.7874 N   0  0  0  0  0  0  0  0  0  0  0  0
   -2.4448    1.5250    2.2358 H   0  0  0  0  0  0  0  0  0  0  0  0
   -1.4990    1.8120    4.1235 C   0  0  0  0  0  0  0  0  0  0  0  0
   -0.6000    2.4312    4.1547 H   0  0  0  0  0  0  0  0  0  0  0  0
   -2.3629    2.4283    4.3750 H   0  0  0  0  0  0  0  0  0  0  0  0
   -1.3952    1.0171    4.8653 H   0  0  0  0  0  0  0  0  0  0  0  0
  5  6  2  0  0  0  0
  5  7  1  0  0  0  0
  2  3  1  0  0  0  0
  2  4  1  0  0  0  0
  2  5  1  0  0  0  0
  1  2  1  0  0  0  0
 27 28  2  0  0  0  0
 27 29  1  0  0  0  0
 23 24  1  0  0  0  0
 23 25  1  0  0  0  0
 23 26  1  0  0  0  0
 20 21  1  0  0  0  0
 20 22  1  0  0  0  0
 20 23  1  0  0  0  0
 17 18  1  0  0  0  0
 17 19  1  0  0  0  0
 17 20  1  0  0  0  0
 14 15  1  0  0  0  0
 14 16  1  0  0  0  0
 14 17  1  0  0  0  0
 11 12  1  0  0  0  0
 11 13  1  0  0  0  0
 11 14  1  0  0  0  0
  9 10  1  0  0  0  0
  9 11  1  0  0  0  0
  9 27  1  0  0  0  0
  7  8  1  0  0  0  0
  7  9  1  0  0  0  0
 31 32  1  0  0  0  0
 31 33  1  0  0  0  0
 31 34  1  0  0  0  0
 29 30  1  0  0  0  0
 29 31  1  0  0  0  0
M  CHG  1  23   1
M  END
$$$$
default_name
  -OEChem-01062215323D

 34 33  0     1  0  0  0  0  0999 V2000
   -3.8899   -3.6747    1.6490 H   0  0  0  0  0  0  0  0  0  0  0  0
   -3.9109   -2.6717    1.2250 C   0  0  0  0  0  0  0  0  0  0  0  0
   -4.6009   -2.0517    1.7950 H   0  0  0  0  0  0  0  0  0  0  0  0
   -4.2309   -2.7237    0.1860 H   0  0  0  0  0  0  0  0  0  0  0  0
   -2.5229   -2.0787    1.2980 C   0  0  0  0  0  0  0  0  0  0  0  0
   -1.5999   -2.7227    1.7810 O   0  0  0  0  0  0  0  0  0  0  0  0
   -2.3659   -0.8447    0.8120 N   0  0  0  0  0  0  0  0  0  0  0  0
   -3.1749   -0.3807    0.4220 H   0  0  0  0  0  0  0  0  0  0  0  0
   -1.0919   -0.1077    0.8170 C   0  0  1  0  0  0  0  0  0  0  0  0
   -0.3002   -0.7903    0.5028 H   0  0  0  0  0  0  0  0  0  0  0  0
   -1.1885    1.0439   -0.2013 C   0  0  0  0  0  0  0  0  0  0  0  0
   -2.0884    1.6226    0.0128 H   0  0  0  0  0  0  0  0  0  0  0  0
   -0.3250    1.7014   -0.0823 H   0  0  0  0  0  0  0  0  0  0  0  0
   -1.2599    0.5611   -1.6581 C   0  0  0  0  0  0  0  0  0  0  0  0
   -0.3756   -0.0332   -1.8919 H   0  0  0  0  0  0  0  0  0  0  0  0
   -2.1499   -0.0575   -1.7885 H   0  0  0  0  0  0  0  0  0  0  0  0
   -1.3291    1.7590   -2.6154 C   0  0  0  0  0  0  0  0  0  0  0  0
   -2.2075    2.3603   -2.3689 H   0  0  0  0  0  0  0  0  0  0  0  0
   -0.4328    2.3692   -2.4876 H   0  0  0  0  0  0  0  0  0  0  0  0
   -1.4255    1.2783   -4.0687 C   0  0  0  0  0  0  0  0  0  0  0  0
   -0.5417    0.6724   -4.2932 H   0  0  0  0  0  0  0  0  0  0  0  0
   -2.3057    0.6354   -4.1646 H   0  0  0  0  0  0  0  0  0  0  0  0
   -1.5180    2.4181   -5.0157 N   0  3  0  0  0  0  0  0  0  0  0  0
   -0.7011    3.0111   -4.9391 H   0  0  0  0  0  0  0  0  0  0  0  0
   -1.5812    2.0843   -5.9694 H   0  0  0  0  0  0  0  0  0  0  0  0
   -2.3396    2.9772   -4.8177 H   0  0  0  0  0  0  0  0  0  0  0  0
   -0.7735    0.4005    2.2250 C   0  0  0  0  0  0  0  0  0  0  0  0
    0.3511    0.2443    2.6859 O   0  0  0  0  0  0  0  0  0  0  0  0
   -1.7706    0.9722    2.9080 N   0  0  0  0  0  0  0  0  0  0  0  0
   -2.6545    1.0885    2.4408 H   0  0  0  0  0  0  0  0  0  0  0  0
   -1.6326    1.5122    4.2619 C   0  0  0  0  0  0  0  0  0  0  0  0
   -0.9060    2.3275    4.2613 H   0  0  0  0  0  0  0  0  0  0  0  0
   -2.5904    1.8912    4.6203 H   0  0  0  0  0  0  0  0  0  0  0  0
   -1.2762    0.7342    4.9405 H   0  0  0  0  0  0  0  0  0  0  0  0
  5  6  2  0  0  0  0
  5  7  1  0  0  0  0
  2  3  1  0  0  0  0
  2  4  1  0  0  0  0
  2  5  1  0  0  0  0
  1  2  1  0  0  0  0
 27 28  2  0  0  0  0
 27 29  1  0  0  0  0
 23 24  1  0  0  0  0
 23 25  1  0  0  0  0
 23 26  1  0  0  0  0
 20 21  1  0  0  0  0
 20 22  1  0  0  0  0
 20 23  1  0  0  0  0
 17 18  1  0  0  0  0
 17 19  1  0  0  0  0
 17 20  1  0  0  0  0
 14 15  1  0  0  0  0
 14 16  1  0  0  0  0
 14 17  1  0  0  0  0
 11 12  1  0  0  0  0
 11 13  1  0  0  0  0
 11 14  1  0  0  0  0
  9 10  1  0  0  0  0
  9 11  1  0  0  0  0
  9 27  1  0  0  0  0
  7  8  1  0  0  0  0
  7  9  1  0  0  0  0
 31 32  1  0  0  0  0
 31 33  1  0  0  0  0
 31 34  1  0  0  0  0
 29 30  1  0  0  0  0
 29 31  1  0  0  0  0
M  CHG  1  23   1
M  END
$$$$
default_name
  -OEChem-01062215323D

 34 33  0     1  0  0  0  0  0999 V2000
   -3.8899   -3.6747    1.6490 H   0  0  0  0  0  0  0  0  0  0  0  0
   -3.9109   -2.6717    1.2250 C   0  0  0  0  0  0  0  0  0  0  0  0
   -4.6009   -2.0517    1.7950 H   0  0  0  0  0  0  0  0  0  0  0  0
   -4.2309   -2.7237    0.1860 H   0  0  0  0  0  0  0  0  0  0  0  0
   -2.5229   -2.0787    1.2980 C   0  0  0  0  0  0  0  0  0  0  0  0
   -1.5999   -2.7227    1.7810 O   0  0  0  0  0  0  0  0  0  0  0  0
   -2.3659   -0.8447    0.8120 N   0  0  0  0  0  0  0  0  0  0  0  0
   -3.1749   -0.3807    0.4220 H   0  0  0  0  0  0  0  0  0  0  0  0
   -1.0919   -0.1077    0.8170 C   0  0  1  0  0  0  0  0  0  0  0  0
   -0.3002   -0.7903    0.5028 H   0  0  0  0  0  0  0  0  0  0  0  0
   -1.1885    1.0439   -0.2013 C   0  0  0  0  0  0  0  0  0  0  0  0
   -2.0884    1.6226    0.0128 H   0  0  0  0  0  0  0  0  0  0  0  0
   -0.3250    1.7014   -0.0823 H   0  0  0  0  0  0  0  0  0  0  0  0
   -1.2599    0.5611   -1.6581 C   0  0  0  0  0  0  0  0  0  0  0  0
   -0.3756   -0.0332   -1.8919 H   0  0  0  0  0  0  0  0  0  0  0  0
   -2.1499   -0.0575   -1.7885 H   0  0  0  0  0  0  0  0  0  0  0  0
   -1.3291    1.7590   -2.6154 C   0  0  0  0  0  0  0  0  0  0  0  0
   -2.2075    2.3603   -2.3689 H   0  0  0  0  0  0  0  0  0  0  0  0
   -0.4328    2.3692   -2.4876 H   0  0  0  0  0  0  0  0  0  0  0  0
   -1.4255    1.2783   -4.0687 C   0  0  0  0  0  0  0  0  0  0  0  0
   -0.5417    0.6724   -4.2932 H   0  0  0  0  0  0  0  0  0  0  0  0
   -2.3057    0.6354   -4.1646 H   0  0  0  0  0  0  0  0  0  0  0  0
   -1.5180    2.4181   -5.0157 N   0  3  0  0  0  0  0  0  0  0  0  0
   -0.7011    3.0111   -4.9391 H   0  0  0  0  0  0  0  0  0  0  0  0
   -1.5812    2.0843   -5.9694 H   0  0  0  0  0  0  0  0  0  0  0  0
   -2.3396    2.9772   -4.8177 H   0  0  0  0  0  0  0  0  0  0  0  0
   -0.7735    0.4005    2.2250 C   0  0  0  0  0  0  0  0  0  0  0  0
    0.3939    0.4994    2.5842 O   0  0  0  0  0  0  0  0  0  0  0  0
   -1.8097    0.6854    3.0204 N   0  0  0  0  0  0  0  0  0  0  0  0
   -2.7354    0.6059    2.6332 H   0  0  0  0  0  0  0  0  0  0  0  0
   -1.6784    1.1834    4.3909 C   0  0  0  0  0  0  0  0  0  0  0  0
   -1.1677    2.1487    4.3850 H   0  0  0  0  0  0  0  0  0  0  0  0
   -2.6611    1.3050    4.8478 H   0  0  0  0  0  0  0  0  0  0  0  0
   -1.0874    0.4852    4.9876 H   0  0  0  0  0  0  0  0  0  0  0  0
  5  6  2  0  0  0  0
  5  7  1  0  0  0  0
  2  3  1  0  0  0  0
  2  4  1  0  0  0  0
  2  5  1  0  0  0  0
  1  2  1  0  0  0  0
 27 28  2  0  0  0  0
 27 29  1  0  0  0  0
 23 24  1  0  0  0  0
 23 25  1  0  0  0  0
 23 26  1  0  0  0  0
 20 21  1  0  0  0  0
 20 22  1  0  0  0  0
 20 23  1  0  0  0  0
 17 18  1  0  0  0  0
 17 19  1  0  0  0  0
 17 20  1  0  0  0  0
 14 15  1  0  0  0  0
 14 16  1  0  0  0  0
 14 17  1  0  0  0  0
 11 12  1  0  0  0  0
 11 13  1  0  0  0  0
 11 14  1  0  0  0  0
  9 10  1  0  0  0  0
  9 11  1  0  0  0  0
  9 27  1  0  0  0  0
  7  8  1  0  0  0  0
  7  9  1  0  0  0  0
 31 32  1  0  0  0  0
 31 33  1  0  0  0  0
 31 34  1  0  0  0  0
 29 30  1  0  0  0  0
 29 31  1  0  0  0  0
M  CHG  1  23   1
M  END
$$$$
default_name
  -OEChem-01062215323D

 34 33  0     1  0  0  0  0  0999 V2000
   -3.8899   -3.6747    1.6490 H   0  0  0  0  0  0  0  0  0  0  0  0
   -3.9109   -2.6717    1.2250 C   0  0  0  0  0  0  0  0  0  0  0  0
   -4.6009   -2.0517    1.7950 H   0  0  0  0  0  0  0  0  0  0  0  0
   -4.2309   -2.7237    0.1860 H   0  0  0  0  0  0  0  0  0  0  0  0
   -2.5229   -2.0787    1.2980 C   0  0  0  0  0  0  0  0  0  0  0  0
   -1.5999   -2.7227    1.7810 O   0  0  0  0  0  0  0  0  0  0  0  0
   -2.3659   -0.8447    0.8120 N   0  0  0  0  0  0  0  0  0  0  0  0
   -3.1749   -0.3807    0.4220 H   0  0  0  0  0  0  0  0  0  0  0  0
   -1.0919   -0.1077    0.8170 C   0  0  1  0  0  0  0  0  0  0  0  0
   -0.3002   -0.7903    0.5028 H   0  0  0  0  0  0  0  0  0  0  0  0
   -1.1885    1.0439   -0.2013 C   0  0  0  0  0  0  0  0  0  0  0  0
   -2.0884    1.6226    0.0128 H   0  0  0  0  0  0  0  0  0  0  0  0
   -0.3250    1.7014   -0.0823 H   0  0  0  0  0  0  0  0  0  0  0  0
   -1.2599    0.5611   -1.6581 C   0  0  0  0  0  0  0  0  0  0  0  0
   -0.3756   -0.0332   -1.8919 H   0  0  0  0  0  0  0  0  0  0  0  0
   -2.1499   -0.0575   -1.7885 H   0  0  0  0  0  0  0  0  0  0  0  0
   -1.3291    1.7590   -2.6154 C   0  0  0  0  0  0  0  0  0  0  0  0
   -2.2075    2.3603   -2.3689 H   0  0  0  0  0  0  0  0  0  0  0  0
   -0.4328    2.3692   -2.4876 H   0  0  0  0  0  0  0  0  0  0  0  0
   -1.4255    1.2783   -4.0687 C   0  0  0  0  0  0  0  0  0  0  0  0
   -0.5417    0.6724   -4.2932 H   0  0  0  0  0  0  0  0  0  0  0  0
   -2.3057    0.6354   -4.1646 H   0  0  0  0  0  0  0  0  0  0  0  0
   -1.5180    2.4181   -5.0157 N   0  3  0  0  0  0  0  0  0  0  0  0
   -0.7011    3.0111   -4.9391 H   0  0  0  0  0  0  0  0  0  0  0  0
   -1.5812    2.0843   -5.9694 H   0  0  0  0  0  0  0  0  0  0  0  0
   -2.3396    2.9772   -4.8177 H   0  0  0  0  0  0  0  0  0  0  0  0
   -0.7735    0.4005    2.2250 C   0  0  0  0  0  0  0  0  0  0  0  0
    0.3657    0.7615    2.4960 O   0  0  0  0  0  0  0  0  0  0  0  0
   -1.7696    0.3930    3.1168 N   0  0  0  0  0  0  0  0  0  0  0  0
   -2.6821    0.1102    2.8001 H   0  0  0  0  0  0  0  0  0  0  0  0
   -1.6332    0.8480    4.5017 C   0  0  0  0  0  0  0  0  0  0  0  0
   -1.3673    1.9071    4.5174 H   0  0  0  0  0  0  0  0  0  0  0  0
   -2.5703    0.7097    5.0421 H   0  0  0  0  0  0  0  0  0  0  0  0
   -0.8417    0.2871    5.0035 H   0  0  0  0  0  0  0  0  0  0  0  0
  5  6  2  0  0  0  0
  5  7  1  0  0  0  0
  2  3  1  0  0  0  0
  2  4  1  0  0  0  0
  2  5  1  0  0  0  0
  1  2  1  0  0  0  0
 27 28  2  0  0  0  0
 27 29  1  0  0  0  0
 23 24  1  0  0  0  0
 23 25  1  0  0  0  0
 23 26  1  0  0  0  0
 20 21  1  0  0  0  0
 20 22  1  0  0  0  0
 20 23  1  0  0  0  0
 17 18  1  0  0  0  0
 17 19  1  0  0  0  0
 17 20  1  0  0  0  0
 14 15  1  0  0  0  0
 14 16  1  0  0  0  0
 14 17  1  0  0  0  0
 11 12  1  0  0  0  0
 11 13  1  0  0  0  0
 11 14  1  0  0  0  0
  9 10  1  0  0  0  0
  9 11  1  0  0  0  0
  9 27  1  0  0  0  0
  7  8  1  0  0  0  0
  7  9  1  0  0  0  0
 31 32  1  0  0  0  0
 31 33  1  0  0  0  0
 31 34  1  0  0  0  0
 29 30  1  0  0  0  0
 29 31  1  0  0  0  0
M  CHG  1  23   1
M  END
$$$$
default_name
  -OEChem-01062215323D

 34 33  0     1  0  0  0  0  0999 V2000
   -3.8899   -3.6747    1.6490 H   0  0  0  0  0  0  0  0  0  0  0  0
   -3.9109   -2.6717    1.2250 C   0  0  0  0  0  0  0  0  0  0  0  0
   -4.6009   -2.0517    1.7950 H   0  0  0  0  0  0  0  0  0  0  0  0
   -4.2309   -2.7237    0.1860 H   0  0  0  0  0  0  0  0  0  0  0  0
   -2.5229   -2.0787    1.2980 C   0  0  0  0  0  0  0  0  0  0  0  0
   -1.5999   -2.7227    1.7810 O   0  0  0  0  0  0  0  0  0  0  0  0
   -2.3659   -0.8447    0.8120 N   0  0  0  0  0  0  0  0  0  0  0  0
   -3.1749   -0.3807    0.4220 H   0  0  0  0  0  0  0  0  0  0  0  0
   -1.0919   -0.1077    0.8170 C   0  0  1  0  0  0  0  0  0  0  0  0
   -0.3002   -0.7903    0.5028 H   0  0  0  0  0  0  0  0  0  0  0  0
   -1.1885    1.0439   -0.2013 C   0  0  0  0  0  0  0  0  0  0  0  0
   -2.0884    1.6226    0.0128 H   0  0  0  0  0  0  0  0  0  0  0  0
   -0.3250    1.7014   -0.0823 H   0  0  0  0  0  0  0  0  0  0  0  0
   -1.2599    0.5611   -1.6581 C   0  0  0  0  0  0  0  0  0  0  0  0
   -0.3756   -0.0332   -1.8919 H   0  0  0  0  0  0  0  0  0  0  0  0
   -2.1499   -0.0575   -1.7885 H   0  0  0  0  0  0  0  0  0  0  0  0
   -1.3291    1.7590   -2.6154 C   0  0  0  0  0  0  0  0  0  0  0  0
   -2.2075    2.3603   -2.3689 H   0  0  0  0  0  0  0  0  0  0  0  0
   -0.4328    2.3692   -2.4876 H   0  0  0  0  0  0  0  0  0  0  0  0
   -1.4255    1.2783   -4.0687 C   0  0  0  0  0  0  0  0  0  0  0  0
   -0.5417    0.6724   -4.2932 H   0  0  0  0  0  0  0  0  0  0  0  0
   -2.3057    0.6354   -4.1646 H   0  0  0  0  0  0  0  0  0  0  0  0
   -1.5180    2.4181   -5.0157 N   0  3  0  0  0  0  0  0  0  0  0  0
   -0.7011    3.0111   -4.9391 H   0  0  0  0  0  0  0  0  0  0  0  0
   -1.5812    2.0843   -5.9694 H   0  0  0  0  0  0  0  0  0  0  0  0
   -2.3396    2.9772   -4.8177 H   0  0  0  0  0  0  0  0  0  0  0  0
   -0.7735    0.4005    2.2250 C   0  0  0  0  0  0  0  0  0  0  0  0
    0.2685    1.0127    2.4273 O   0  0  0  0  0  0  0  0  0  0  0  0
   -1.6529    0.1149    3.1908 N   0  0  0  0  0  0  0  0  0  0  0  0
   -2.4983   -0.3650    2.9300 H   0  0  0  0  0  0  0  0  0  0  0  0
   -1.5002    0.5287    4.5869 C   0  0  0  0  0  0  0  0  0  0  0  0
   -1.4912    1.6190    4.6494 H   0  0  0  0  0  0  0  0  0  0  0  0
   -2.3242    0.1458    5.1900 H   0  0  0  0  0  0  0  0  0  0  0  0
   -0.5558    0.1534    4.9871 H   0  0  0  0  0  0  0  0  0  0  0  0
  5  6  2  0  0  0  0
  5  7  1  0  0  0  0
  2  3  1  0  0  0  0
  2  4  1  0  0  0  0
  2  5  1  0  0  0  0
  1  2  1  0  0  0  0
 27 28  2  0  0  0  0
 27 29  1  0  0  0  0
 23 24  1  0  0  0  0
 23 25  1  0  0  0  0
 23 26  1  0  0  0  0
 20 21  1  0  0  0  0
 20 22  1  0  0  0  0
 20 23  1  0  0  0  0
 17 18  1  0  0  0  0
 17 19  1  0  0  0  0
 17 20  1  0  0  0  0
 14 15  1  0  0  0  0
 14 16  1  0  0  0  0
 14 17  1  0  0  0  0
 11 12  1  0  0  0  0
 11 13  1  0  0  0  0
 11 14  1  0  0  0  0
  9 10  1  0  0  0  0
  9 11  1  0  0  0  0
  9 27  1  0  0  0  0
  7  8  1  0  0  0  0
  7  9  1  0  0  0  0
 31 32  1  0  0  0  0
 31 33  1  0  0  0  0
 31 34  1  0  0  0  0
 29 30  1  0  0  0  0
 29 31  1  0  0  0  0
M  CHG  1  23   1
M  END
$$$$
default_name
  -OEChem-01062215323D

 34 33  0     1  0  0  0  0  0999 V2000
   -3.8899   -3.6747    1.6490 H   0  0  0  0  0  0  0  0  0  0  0  0
   -3.9109   -2.6717    1.2250 C   0  0  0  0  0  0  0  0  0  0  0  0
   -4.6009   -2.0517    1.7950 H   0  0  0  0  0  0  0  0  0  0  0  0
   -4.2309   -2.7237    0.1860 H   0  0  0  0  0  0  0  0  0  0  0  0
   -2.5229   -2.0787    1.2980 C   0  0  0  0  0  0  0  0  0  0  0  0
   -1.5999   -2.7227    1.7810 O   0  0  0  0  0  0  0  0  0  0  0  0
   -2.3659   -0.8447    0.8120 N   0  0  0  0  0  0  0  0  0  0  0  0
   -3.1749   -0.3807    0.4220 H   0  0  0  0  0  0  0  0  0  0  0  0
   -1.0919   -0.1077    0.8170 C   0  0  1  0  0  0  0  0  0  0  0  0
   -0.3002   -0.7903    0.5028 H   0  0  0  0  0  0  0  0  0  0  0  0
   -1.1885    1.0439   -0.2013 C   0  0  0  0  0  0  0  0  0  0  0  0
   -2.0884    1.6226    0.0128 H   0  0  0  0  0  0  0  0  0  0  0  0
   -0.3250    1.7014   -0.0823 H   0  0  0  0  0  0  0  0  0  0  0  0
   -1.2599    0.5611   -1.6581 C   0  0  0  0  0  0  0  0  0  0  0  0
   -0.3756   -0.0332   -1.8919 H   0  0  0  0  0  0  0  0  0  0  0  0
   -2.1499   -0.0575   -1.7885 H   0  0  0  0  0  0  0  0  0  0  0  0
   -1.3291    1.7590   -2.6154 C   0  0  0  0  0  0  0  0  0  0  0  0
   -2.2075    2.3603   -2.3689 H   0  0  0  0  0  0  0  0  0  0  0  0
   -0.4328    2.3692   -2.4876 H   0  0  0  0  0  0  0  0  0  0  0  0
   -1.4255    1.2783   -4.0687 C   0  0  0  0  0  0  0  0  0  0  0  0
   -0.5417    0.6724   -4.2932 H   0  0  0  0  0  0  0  0  0  0  0  0
   -2.3057    0.6354   -4.1646 H   0  0  0  0  0  0  0  0  0  0  0  0
   -1.5180    2.4181   -5.0157 N   0  3  0  0  0  0  0  0  0  0  0  0
   -0.7011    3.0111   -4.9391 H   0  0  0  0  0  0  0  0  0  0  0  0
   -1.5812    2.0843   -5.9694 H   0  0  0  0  0  0  0  0  0  0  0  0
   -2.3396    2.9772   -4.8177 H   0  0  0  0  0  0  0  0  0  0  0  0
   -0.7735    0.4005    2.2250 C   0  0  0  0  0  0  0  0  0  0  0  0
    0.1089    1.2359    2.3828 O   0  0  0  0  0  0  0  0  0  0  0  0
   -1.4676   -0.1298    3.2372 N   0  0  0  0  0  0  0  0  0  0  0  0
   -2.1964   -0.7872    3.0141 H   0  0  0  0  0  0  0  0  0  0  0  0
   -1.2883    0.2475    4.6404 C   0  0  0  0  0  0  0  0  0  0  0  0
   -1.5309    1.3041    4.7720 H   0  0  0  0  0  0  0  0  0  0  0  0
   -1.9395   -0.3482    5.2813 H   0  0  0  0  0  0  0  0  0  0  0  0
   -0.2493    0.0932    4.9395 H   0  0  0  0  0  0  0  0  0  0  0  0
  5  6  2  0  0  0  0
  5  7  1  0  0  0  0
  2  3  1  0  0  0  0
  2  4  1  0  0  0  0
  2  5  1  0  0  0  0
  1  2  1  0  0  0  0
 27 28  2  0  0  0  0
 27 29  1  0  0  0  0
 23 24  1  0  0  0  0
 23 25  1  0  0  0  0
 23 26  1  0  0  0  0
 20 21  1  0  0  0  0
 20 22  1  0  0  0  0
 20 23  1  0  0  0  0
 17 18  1  0  0  0  0
 17 19  1  0  0  0  0
 17 20  1  0  0  0  0
 14 15  1  0  0  0  0
 14 16  1  0  0  0  0
 14 17  1  0  0  0  0
 11 12  1  0  0  0  0
 11 13  1  0  0  0  0
 11 14  1  0  0  0  0
  9 10  1  0  0  0  0
  9 11  1  0  0  0  0
  9 27  1  0  0  0  0
  7  8  1  0  0  0  0
  7  9  1  0  0  0  0
 31 32  1  0  0  0  0
 31 33  1  0  0  0  0
 31 34  1  0  0  0  0
 29 30  1  0  0  0  0
 29 31  1  0  0  0  0
M  CHG  1  23   1
M  END
$$$$
default_name
  -OEChem-01062215323D

 34 33  0     1  0  0  0  0  0999 V2000
   -3.8899   -3.6747    1.6490 H   0  0  0  0  0  0  0  0  0  0  0  0
   -3.9109   -2.6717    1.2250 C   0  0  0  0  0  0  0  0  0  0  0  0
   -4.6009   -2.0517    1.7950 H   0  0  0  0  0  0  0  0  0  0  0  0
   -4.2309   -2.7237    0.1860 H   0  0  0  0  0  0  0  0  0  0  0  0
   -2.5229   -2.0787    1.2980 C   0  0  0  0  0  0  0  0  0  0  0  0
   -1.5999   -2.7227    1.7810 O   0  0  0  0  0  0  0  0  0  0  0  0
   -2.3659   -0.8447    0.8120 N   0  0  0  0  0  0  0  0  0  0  0  0
   -3.1749   -0.3807    0.4220 H   0  0  0  0  0  0  0  0  0  0  0  0
   -1.0919   -0.1077    0.8170 C   0  0  1  0  0  0  0  0  0  0  0  0
   -0.3002   -0.7903    0.5028 H   0  0  0  0  0  0  0  0  0  0  0  0
   -1.1885    1.0439   -0.2013 C   0  0  0  0  0  0  0  0  0  0  0  0
   -2.0884    1.6226    0.0128 H   0  0  0  0  0  0  0  0  0  0  0  0
   -0.3250    1.7014   -0.0823 H   0  0  0  0  0  0  0  0  0  0  0  0
   -1.2599    0.5611   -1.6581 C   0  0  0  0  0  0  0  0  0  0  0  0
   -0.3756   -0.0332   -1.8919 H   0  0  0  0  0  0  0  0  0  0  0  0
   -2.1499   -0.0575   -1.7885 H   0  0  0  0  0  0  0  0  0  0  0  0
   -1.3291    1.7590   -2.6154 C   0  0  0  0  0  0  0  0  0  0  0  0
   -2.2075    2.3603   -2.3689 H   0  0  0  0  0  0  0  0  0  0  0  0
   -0.4328    2.3692   -2.4876 H   0  0  0  0  0  0  0  0  0  0  0  0
   -1.4255    1.2783   -4.0687 C   0  0  0  0  0  0  0  0  0  0  0  0
   -0.5417    0.6724   -4.2932 H   0  0  0  0  0  0  0  0  0  0  0  0
   -2.3057    0.6354   -4.1646 H   0  0  0  0  0  0  0  0  0  0  0  0
   -1.5180    2.4181   -5.0157 N   0  3  0  0  0  0  0  0  0  0  0  0
   -0.7011    3.0111   -4.9391 H   0  0  0  0  0  0  0  0  0  0  0  0
   -1.5812    2.0843   -5.9694 H   0  0  0  0  0  0  0  0  0  0  0  0
   -2.3396    2.9772   -4.8177 H   0  0  0  0  0  0  0  0  0  0  0  0
   -0.7735    0.4005    2.2250 C   0  0  0  0  0  0  0  0  0  0  0  0
   -0.1023    1.4159    2.3656 O   0  0  0  0  0  0  0  0  0  0  0  0
   -1.2263   -0.3247    3.2530 N   0  0  0  0  0  0  0  0  0  0  0  0
   -1.7970   -1.1277    3.0467 H   0  0  0  0  0  0  0  0  0  0  0  0
   -1.0121    0.0233    4.6589 C   0  0  0  0  0  0  0  0  0  0  0  0
   -1.4838    0.9839    4.8769 H   0  0  0  0  0  0  0  0  0  0  0  0
   -1.4424   -0.7387    5.3098 H   0  0  0  0  0  0  0  0  0  0  0  0
    0.0571    0.1106    4.8639 H   0  0  0  0  0  0  0  0  0  0  0  0
  5  6  2  0  0  0  0
  5  7  1  0  0  0  0
  2  3  1  0  0  0  0
  2  4  1  0  0  0  0
  2  5  1  0  0  0  0
  1  2  1  0  0  0  0
 27 28  2  0  0  0  0
 27 29  1  0  0  0  0
 23 24  1  0  0  0  0
 23 25  1  0  0  0  0
 23 26  1  0  0  0  0
 20 21  1  0  0  0  0
 20 22  1  0  0  0  0
 20 23  1  0  0  0  0
 17 18  1  0  0  0  0
 17 19  1  0  0  0  0
 17 20  1  0  0  0  0
 14 15  1  0  0  0  0
 14 16  1  0  0  0  0
 14 17  1  0  0  0  0
 11 12  1  0  0  0  0
 11 13  1  0  0  0  0
 11 14  1  0  0  0  0
  9 10  1  0  0  0  0
  9 11  1  0  0  0  0
  9 27  1  0  0  0  0
  7  8  1  0  0  0  0
  7  9  1  0  0  0  0
 31 32  1  0  0  0  0
 31 33  1  0  0  0  0
 31 34  1  0  0  0  0
 29 30  1  0  0  0  0
 29 31  1  0  0  0  0
M  CHG  1  23   1
M  END
$$$$
default_name
  -OEChem-01062215323D

 34 33  0     1  0  0  0  0  0999 V2000
   -3.8899   -3.6747    1.6490 H   0  0  0  0  0  0  0  0  0  0  0  0
   -3.9109   -2.6717    1.2250 C   0  0  0  0  0  0  0  0  0  0  0  0
   -4.6009   -2.0517    1.7950 H   0  0  0  0  0  0  0  0  0  0  0  0
   -4.2309   -2.7237    0.1860 H   0  0  0  0  0  0  0  0  0  0  0  0
   -2.5229   -2.0787    1.2980 C   0  0  0  0  0  0  0  0  0  0  0  0
   -1.5999   -2.7227    1.7810 O   0  0  0  0  0  0  0  0  0  0  0  0
   -2.3659   -0.8447    0.8120 N   0  0  0  0  0  0  0  0  0  0  0  0
   -3.1749   -0.3807    0.4220 H   0  0  0  0  0  0  0  0  0  0  0  0
   -1.0919   -0.1077    0.8170 C   0  0  1  0  0  0  0  0  0  0  0  0
   -0.3002   -0.7903    0.5028 H   0  0  0  0  0  0  0  0  0  0  0  0
   -1.1885    1.0439   -0.2013 C   0  0  0  0  0  0  0  0  0  0  0  0
   -2.0884    1.6226    0.0128 H   0  0  0  0  0  0  0  0  0  0  0  0
   -0.3250    1.7014   -0.0823 H   0  0  0  0  0  0  0  0  0  0  0  0
   -1.2599    0.5611   -1.6581 C   0  0  0  0  0  0  0  0  0  0  0  0
   -0.3756   -0.0332   -1.8919 H   0  0  0  0  0  0  0  0  0  0  0  0
   -2.1499   -0.0575   -1.7885 H   0  0  0  0  0  0  0  0  0  0  0  0
   -1.3291    1.7590   -2.6154 C   0  0  0  0  0  0  0  0  0  0  0  0
   -2.2075    2.3603   -2.3689 H   0  0  0  0  0  0  0  0  0  0  0  0
   -0.4328    2.3692   -2.4876 H   0  0  0  0  0  0  0  0  0  0  0  0
   -1.4255    1.2783   -4.0687 C   0  0  0  0  0  0  0  0  0  0  0  0
   -0.5417    0.6724   -4.2932 H   0  0  0  0  0  0  0  0  0  0  0  0
   -2.3057    0.6354   -4.1646 H   0  0  0  0  0  0  0  0  0  0  0  0
   -1.5180    2.4181   -5.0157 N   0  3  0  0  0  0  0  0  0  0  0  0
   -0.7011    3.0111   -4.9391 H   0  0  0  0  0  0  0  0  0  0  0  0
   -1.5812    2.0843   -5.9694 H   0  0  0  0  0  0  0  0  0  0  0  0
   -2.3396    2.9772   -4.8177 H   0  0  0  0  0  0  0  0  0  0  0  0
   -0.7735    0.4005    2.2250 C   0  0  0  0  0  0  0  0  0  0  0  0
   -0.3505    1.5405    2.3768 O   0  0  0  0  0  0  0  0  0  0  0  0
   -0.9456   -0.4562    3.2370 N   0  0  0  0  0  0  0  0  0  0  0  0
   -1.3274   -1.3632    3.0254 H   0  0  0  0  0  0  0  0  0  0  0  0
   -0.6904   -0.1284    4.6408 C   0  0  0  0  0  0  0  0  0  0  0  0
   -1.3530    0.6802    4.9569 H   0  0  0  0  0  0  0  0  0  0  0  0
   -0.8668   -0.9990    5.2735 H   0  0  0  0  0  0  0  0  0  0  0  0
    0.3423    0.2045    4.7656 H   0  0  0  0  0  0  0  0  0  0  0  0
  5  6  2  0  0  0  0
  5  7  1  0  0  0  0
  2  3  1  0  0  0  0
  2  4  1  0  0  0  0
  2  5  1  0  0  0  0
  1  2  1  0  0  0  0
 27 28  2  0  0  0  0
 27 29  1  0  0  0  0
 23 24  1  0  0  0  0
 23 25  1  0  0  0  0
 23 26  1  0  0  0  0
 20 21  1  0  0  0  0
 20 22  1  0  0  0  0
 20 23  1  0  0  0  0
 17 18  1  0  0  0  0
 17 19  1  0  0  0  0
 17 20  1  0  0  0  0
 14 15  1  0  0  0  0
 14 16  1  0  0  0  0
 14 17  1  0  0  0  0
 11 12  1  0  0  0  0
 11 13  1  0  0  0  0
 11 14  1  0  0  0  0
  9 10  1  0  0  0  0
  9 11  1  0  0  0  0
  9 27  1  0  0  0  0
  7  8  1  0  0  0  0
  7  9  1  0  0  0  0
 31 32  1  0  0  0  0
 31 33  1  0  0  0  0
 31 34  1  0  0  0  0
 29 30  1  0  0  0  0
 29 31  1  0  0  0  0
M  CHG  1  23   1
M  END
$$$$
default_name
  -OEChem-01062215323D

 34 33  0     1  0  0  0  0  0999 V2000
   -3.8899   -3.6747    1.6490 H   0  0  0  0  0  0  0  0  0  0  0  0
   -3.9109   -2.6717    1.2250 C   0  0  0  0  0  0  0  0  0  0  0  0
   -4.6009   -2.0517    1.7950 H   0  0  0  0  0  0  0  0  0  0  0  0
   -4.2309   -2.7237    0.1860 H   0  0  0  0  0  0  0  0  0  0  0  0
   -2.5229   -2.0787    1.2980 C   0  0  0  0  0  0  0  0  0  0  0  0
   -1.5999   -2.7227    1.7810 O   0  0  0  0  0  0  0  0  0  0  0  0
   -2.3659   -0.8447    0.8120 N   0  0  0  0  0  0  0  0  0  0  0  0
   -3.1749   -0.3807    0.4220 H   0  0  0  0  0  0  0  0  0  0  0  0
   -1.0919   -0.1077    0.8170 C   0  0  1  0  0  0  0  0  0  0  0  0
   -0.3002   -0.7903    0.5028 H   0  0  0  0  0  0  0  0  0  0  0  0
   -1.1885    1.0439   -0.2013 C   0  0  0  0  0  0  0  0  0  0  0  0
   -2.0884    1.6226    0.0128 H   0  0  0  0  0  0  0  0  0  0  0  0
   -0.3250    1.7014   -0.0823 H   0  0  0  0  0  0  0  0  0  0  0  0
   -1.2599    0.5611   -1.6581 C   0  0  0  0  0  0  0  0  0  0  0  0
   -0.3756   -0.0332   -1.8919 H   0  0  0  0  0  0  0  0  0  0  0  0
   -2.1499   -0.0575   -1.7885 H   0  0  0  0  0  0  0  0  0  0  0  0
   -1.3291    1.7590   -2.6154 C   0  0  0  0  0  0  0  0  0  0  0  0
   -2.2075    2.3603   -2.3689 H   0  0  0  0  0  0  0  0  0  0  0  0
   -0.4328    2.3692   -2.4876 H   0  0  0  0  0  0  0  0  0  0  0  0
   -1.4255    1.2783   -4.0687 C   0  0  0  0  0  0  0  0  0  0  0  0
   -0.5417    0.6724   -4.2932 H   0  0  0  0  0  0  0  0  0  0  0  0
   -2.3057    0.6354   -4.1646 H   0  0  0  0  0  0  0  0  0  0  0  0
   -1.5180    2.4181   -5.0157 N   0  3  0  0  0  0  0  0  0  0  0  0
   -0.7011    3.0111   -4.9391 H   0  0  0  0  0  0  0  0  0  0  0  0
   -1.5812    2.0843   -5.9694 H   0  0  0  0  0  0  0  0  0  0  0  0
   -2.3396    2.9772   -4.8177 H   0  0  0  0  0  0  0  0  0  0  0  0
   -0.7735    0.4005    2.2250 C   0  0  0  0  0  0  0  0  0  0  0  0
   -0.6191    1.6010    2.4157 O   0  0  0  0  0  0  0  0  0  0  0  0
   -0.6444   -0.5156    3.1903 N   0  0  0  0  0  0  0  0  0  0  0  0
   -0.8195   -1.4777    2.9519 H   0  0  0  0  0  0  0  0  0  0  0  0
   -0.3451   -0.1973    4.5876 C   0  0  0  0  0  0  0  0  0  0  0  0
   -1.1474    0.4137    5.0066 H   0  0  0  0  0  0  0  0  0  0  0  0
   -0.2519   -1.1115    5.1750 H   0  0  0  0  0  0  0  0  0  0  0  0
    0.5871    0.3684    4.6511 H   0  0  0  0  0  0  0  0  0  0  0  0
  5  6  2  0  0  0  0
  5  7  1  0  0  0  0
  2  3  1  0  0  0  0
  2  4  1  0  0  0  0
  2  5  1  0  0  0  0
  1  2  1  0  0  0  0
 27 28  2  0  0  0  0
 27 29  1  0  0  0  0
 23 24  1  0  0  0  0
 23 25  1  0  0  0  0
 23 26  1  0  0  0  0
 20 21  1  0  0  0  0
 20 22  1  0  0  0  0
 20 23  1  0  0  0  0
 17 18  1  0  0  0  0
 17 19  1  0  0  0  0
 17 20  1  0  0  0  0
 14 15  1  0  0  0  0
 14 16  1  0  0  0  0
 14 17  1  0  0  0  0
 11 12  1  0  0  0  0
 11 13  1  0  0  0  0
 11 14  1  0  0  0  0
  9 10  1  0  0  0  0
  9 11  1  0  0  0  0
  9 27  1  0  0  0  0
  7  8  1  0  0  0  0
  7  9  1  0  0  0  0
 31 32  1  0  0  0  0
 31 33  1  0  0  0  0
 31 34  1  0  0  0  0
 29 30  1  0  0  0  0
 29 31  1  0  0  0  0
M  CHG  1  23   1
M  END
$$$$
default_name
  -OEChem-01062215323D

 34 33  0     1  0  0  0  0  0999 V2000
   -3.8899   -3.6747    1.6490 H   0  0  0  0  0  0  0  0  0  0  0  0
   -3.9109   -2.6717    1.2250 C   0  0  0  0  0  0  0  0  0  0  0  0
   -4.6009   -2.0517    1.7950 H   0  0  0  0  0  0  0  0  0  0  0  0
   -4.2309   -2.7237    0.1860 H   0  0  0  0  0  0  0  0  0  0  0  0
   -2.5229   -2.0787    1.2980 C   0  0  0  0  0  0  0  0  0  0  0  0
   -1.5999   -2.7227    1.7810 O   0  0  0  0  0  0  0  0  0  0  0  0
   -2.3659   -0.8447    0.8120 N   0  0  0  0  0  0  0  0  0  0  0  0
   -3.1749   -0.3807    0.4220 H   0  0  0  0  0  0  0  0  0  0  0  0
   -1.0919   -0.1077    0.8170 C   0  0  1  0  0  0  0  0  0  0  0  0
   -0.3002   -0.7903    0.5028 H   0  0  0  0  0  0  0  0  0  0  0  0
   -1.1885    1.0439   -0.2013 C   0  0  0  0  0  0  0  0  0  0  0  0
   -2.0884    1.6226    0.0128 H   0  0  0  0  0  0  0  0  0  0  0  0
   -0.3250    1.7014   -0.0823 H   0  0  0  0  0  0  0  0  0  0  0  0
   -1.2599    0.5611   -1.6581 C   0  0  0  0  0  0  0  0  0  0  0  0
   -0.3756   -0.0332   -1.8919 H   0  0  0  0  0  0  0  0  0  0  0  0
   -2.1499   -0.0575   -1.7885 H   0  0  0  0  0  0  0  0  0  0  0  0
   -1.3291    1.7590   -2.6154 C   0  0  0  0  0  0  0  0  0  0  0  0
   -2.2075    2.3603   -2.3689 H   0  0  0  0  0  0  0  0  0  0  0  0
   -0.4328    2.3692   -2.4876 H   0  0  0  0  0  0  0  0  0  0  0  0
   -1.4255    1.2783   -4.0687 C   0  0  0  0  0  0  0  0  0  0  0  0
   -0.5417    0.6724   -4.2932 H   0  0  0  0  0  0  0  0  0  0  0  0
   -2.3057    0.6354   -4.1646 H   0  0  0  0  0  0  0  0  0  0  0  0
   -1.5180    2.4181   -5.0157 N   0  3  0  0  0  0  0  0  0  0  0  0
   -0.7011    3.0111   -4.9391 H   0  0  0  0  0  0  0  0  0  0  0  0
   -1.5812    2.0843   -5.9694 H   0  0  0  0  0  0  0  0  0  0  0  0
   -2.3396    2.9772   -4.8177 H   0  0  0  0  0  0  0  0  0  0  0  0
   -0.7735    0.4005    2.2250 C   0  0  0  0  0  0  0  0  0  0  0  0
   -0.8895    1.5934    2.4796 O   0  0  0  0  0  0  0  0  0  0  0  0
   -0.3434   -0.4987    3.1161 N   0  0  0  0  0  0  0  0  0  0  0  0
   -0.3080   -1.4634    2.8310 H   0  0  0  0  0  0  0  0  0  0  0  0
    0.0004   -0.1788    4.5028 C   0  0  0  0  0  0  0  0  0  0  0  0
   -0.8811    0.2025    5.0226 H   0  0  0  0  0  0  0  0  0  0  0  0
    0.3603   -1.0684    5.0210 H   0  0  0  0  0  0  0  0  0  0  0  0
    0.7746    0.5911    4.5282 H   0  0  0  0  0  0  0  0  0  0  0  0
  5  6  2  0  0  0  0
  5  7  1  0  0  0  0
  2  3  1  0  0  0  0
  2  4  1  0  0  0  0
  2  5  1  0  0  0  0
  1  2  1  0  0  0  0
 27 28  2  0  0  0  0
 27 29  1  0  0  0  0
 23 24  1  0  0  0  0
 23 25  1  0  0  0  0
 23 26  1  0  0  0  0
 20 21  1  0  0  0  0
 20 22  1  0  0  0  0
 20 23  1  0  0  0  0
 17 18  1  0  0  0  0
 17 19  1  0  0  0  0
 17 20  1  0  0  0  0
 14 15  1  0  0  0  0
 14 16  1  0  0  0  0
 14 17  1  0  0  0  0
 11 12  1  0  0  0  0
 11 13  1  0  0  0  0
 11 14  1  0  0  0  0
  9 10  1  0  0  0  0
  9 11  1  0  0  0  0
  9 27  1  0  0  0  0
  7  8  1  0  0  0  0
  7  9  1  0  0  0  0
 31 32  1  0  0  0  0
 31 33  1  0  0  0  0
 31 34  1  0  0  0  0
 29 30  1  0  0  0  0
 29 31  1  0  0  0  0
M  CHG  1  23   1
M  END
$$$$
default_name
  -OEChem-01062215323D

 34 33  0     1  0  0  0  0  0999 V2000
   -3.8899   -3.6747    1.6490 H   0  0  0  0  0  0  0  0  0  0  0  0
   -3.9109   -2.6717    1.2250 C   0  0  0  0  0  0  0  0  0  0  0  0
   -4.6009   -2.0517    1.7950 H   0  0  0  0  0  0  0  0  0  0  0  0
   -4.2309   -2.7237    0.1860 H   0  0  0  0  0  0  0  0  0  0  0  0
   -2.5229   -2.0787    1.2980 C   0  0  0  0  0  0  0  0  0  0  0  0
   -1.5999   -2.7227    1.7810 O   0  0  0  0  0  0  0  0  0  0  0  0
   -2.3659   -0.8447    0.8120 N   0  0  0  0  0  0  0  0  0  0  0  0
   -3.1749   -0.3807    0.4220 H   0  0  0  0  0  0  0  0  0  0  0  0
   -1.0919   -0.1077    0.8170 C   0  0  1  0  0  0  0  0  0  0  0  0
   -0.3002   -0.7903    0.5028 H   0  0  0  0  0  0  0  0  0  0  0  0
   -1.1885    1.0439   -0.2013 C   0  0  0  0  0  0  0  0  0  0  0  0
   -2.0884    1.6226    0.0128 H   0  0  0  0  0  0  0  0  0  0  0  0
   -0.3250    1.7014   -0.0823 H   0  0  0  0  0  0  0  0  0  0  0  0
   -1.2599    0.5611   -1.6581 C   0  0  0  0  0  0  0  0  0  0  0  0
   -0.3756   -0.0332   -1.8919 H   0  0  0  0  0  0  0  0  0  0  0  0
   -2.1499   -0.0575   -1.7885 H   0  0  0  0  0  0  0  0  0  0  0  0
   -1.3291    1.7590   -2.6154 C   0  0  0  0  0  0  0  0  0  0  0  0
   -2.2075    2.3603   -2.3689 H   0  0  0  0  0  0  0  0  0  0  0  0
   -0.4328    2.3692   -2.4876 H   0  0  0  0  0  0  0  0  0  0  0  0
   -1.4255    1.2783   -4.0687 C   0  0  0  0  0  0  0  0  0  0  0  0
   -0.5417    0.6724   -4.2932 H   0  0  0  0  0  0  0  0  0  0  0  0
   -2.3057    0.6354   -4.1646 H   0  0  0  0  0  0  0  0  0  0  0  0
   -1.5180    2.4181   -5.0157 N   0  3  0  0  0  0  0  0  0  0  0  0
   -0.7011    3.0111   -4.9391 H   0  0  0  0  0  0  0  0  0  0  0  0
   -1.5812    2.0843   -5.9694 H   0  0  0  0  0  0  0  0  0  0  0  0
   -2.3396    2.9772   -4.8177 H   0  0  0  0  0  0  0  0  0  0  0  0
   -0.7735    0.4005    2.2250 C   0  0  0  0  0  0  0  0  0  0  0  0
   -1.1434    1.5183    2.5642 O   0  0  0  0  0  0  0  0  0  0  0  0
   -0.0630   -0.4068    3.0195 N   0  0  0  0  0  0  0  0  0  0  0  0
    0.1723   -1.3213    2.6711 H   0  0  0  0  0  0  0  0  0  0  0  0
    0.3223   -0.0742    4.3922 C   0  0  0  0  0  0  0  0  0  0  0  0
   -0.5723    0.0610    5.0038 H   0  0  0  0  0  0  0  0  0  0  0  0
    0.9282   -0.8727    4.8219 H   0  0  0  0  0  0  0  0  0  0  0  0
    0.8922    0.8575    4.4055 H   0  0  0  0  0  0  0  0  0  0  0  0
  5  6  2  0  0  0  0
  5  7  1  0  0  0  0
  2  3  1  0  0  0  0
  2  4  1  0  0  0  0
  2  5  1  0  0  0  0
  1  2  1  0  0  0  0
 27 28  2  0  0  0  0
 27 29  1  0  0  0  0
 23 24  1  0  0  0  0
 23 25  1  0  0  0  0
 23 26  1  0  0  0  0
 20 21  1  0  0  0  0
 20 22  1  0  0  0  0
 20 23  1  0  0  0  0
 17 18  1  0  0  0  0
 17 19  1  0  0  0  0
 17 20  1  0  0  0  0
 14 15  1  0  0  0  0
 14 16  1  0  0  0  0
 14 17  1  0  0  0  0
 11 12  1  0  0  0  0
 11 13  1  0  0  0  0
 11 14  1  0  0  0  0
  9 10  1  0  0  0  0
  9 11  1  0  0  0  0
  9 27  1  0  0  0  0
  7  8  1  0  0  0  0
  7  9  1  0  0  0  0
 31 32  1  0  0  0  0
 31 33  1  0  0  0  0
 31 34  1  0  0  0  0
 29 30  1  0  0  0  0
 29 31  1  0  0  0  0
M  CHG  1  23   1
M  END
$$$$
default_name
  -OEChem-01062215323D

 34 33  0     1  0  0  0  0  0999 V2000
   -3.8899   -3.6747    1.6490 H   0  0  0  0  0  0  0  0  0  0  0  0
   -3.9109   -2.6717    1.2250 C   0  0  0  0  0  0  0  0  0  0  0  0
   -4.6009   -2.0517    1.7950 H   0  0  0  0  0  0  0  0  0  0  0  0
   -4.2309   -2.7237    0.1860 H   0  0  0  0  0  0  0  0  0  0  0  0
   -2.5229   -2.0787    1.2980 C   0  0  0  0  0  0  0  0  0  0  0  0
   -1.5999   -2.7227    1.7810 O   0  0  0  0  0  0  0  0  0  0  0  0
   -2.3659   -0.8447    0.8120 N   0  0  0  0  0  0  0  0  0  0  0  0
   -3.1749   -0.3807    0.4220 H   0  0  0  0  0  0  0  0  0  0  0  0
   -1.0919   -0.1077    0.8170 C   0  0  1  0  0  0  0  0  0  0  0  0
   -0.3002   -0.7903    0.5028 H   0  0  0  0  0  0  0  0  0  0  0  0
   -1.1885    1.0439   -0.2013 C   0  0  0  0  0  0  0  0  0  0  0  0
   -2.0884    1.6226    0.0128 H   0  0  0  0  0  0  0  0  0  0  0  0
   -0.3250    1.7014   -0.0823 H   0  0  0  0  0  0  0  0  0  0  0  0
   -1.2599    0.5611   -1.6581 C   0  0  0  0  0  0  0  0  0  0  0  0
   -0.3756   -0.0332   -1.8919 H   0  0  0  0  0  0  0  0  0  0  0  0
   -2.1499   -0.0575   -1.7885 H   0  0  0  0  0  0  0  0  0  0  0  0
   -1.3291    1.7590   -2.6154 C   0  0  0  0  0  0  0  0  0  0  0  0
   -2.2075    2.3603   -2.3689 H   0  0  0  0  0  0  0  0  0  0  0  0
   -0.4328    2.3692   -2.4876 H   0  0  0  0  0  0  0  0  0  0  0  0
   -1.4255    1.2783   -4.0687 C   0  0  0  0  0  0  0  0  0  0  0  0
   -0.5417    0.6724   -4.2932 H   0  0  0  0  0  0  0  0  0  0  0  0
   -2.3057    0.6354   -4.1646 H   0  0  0  0  0  0  0  0  0  0  0  0
   -1.5180    2.4181   -5.0157 N   0  3  0  0  0  0  0  0  0  0  0  0
   -0.7011    3.0111   -4.9391 H   0  0  0  0  0  0  0  0  0  0  0  0
   -1.5812    2.0843   -5.9694 H   0  0  0  0  0  0  0  0  0  0  0  0
   -2.3396    2.9772   -4.8177 H   0  0  0  0  0  0  0  0  0  0  0  0
   -0.7735    0.4005    2.2250 C   0  0  0  0  0  0  0  0  0  0  0  0
   -1.3636    1.3807    2.6636 O   0  0  0  0  0  0  0  0  0  0  0  0
    0.1776   -0.2460    2.9070 N   0  0  0  0  0  0  0  0  0  0  0  0
    0.5886   -1.0611    2.4830 H   0  0  0  0  0  0  0  0  0  0  0  0
    0.5989    0.1096    4.2633 C   0  0  0  0  0  0  0  0  0  0  0  0
   -0.2419   -0.0010    4.9515 H   0  0  0  0  0  0  0  0  0  0  0  0
    1.4130   -0.5377    4.5914 H   0  0  0  0  0  0  0  0  0  0  0  0
    0.9317    1.1495    4.2912 H   0  0  0  0  0  0  0  0  0  0  0  0
  5  6  2  0  0  0  0
  5  7  1  0  0  0  0
  2  3  1  0  0  0  0
  2  4  1  0  0  0  0
  2  5  1  0  0  0  0
  1  2  1  0  0  0  0
 27 28  2  0  0  0  0
 27 29  1  0  0  0  0
 23 24  1  0  0  0  0
 23 25  1  0  0  0  0
 23 26  1  0  0  0  0
 20 21  1  0  0  0  0
 20 22  1  0  0  0  0
 20 23  1  0  0  0  0
 17 18  1  0  0  0  0
 17 19  1  0  0  0  0
 17 20  1  0  0  0  0
 14 15  1  0  0  0  0
 14 16  1  0  0  0  0
 14 17  1  0  0  0  0
 11 12  1  0  0  0  0
 11 13  1  0  0  0  0
 11 14  1  0  0  0  0
  9 10  1  0  0  0  0
  9 11  1  0  0  0  0
  9 27  1  0  0  0  0
  7  8  1  0  0  0  0
  7  9  1  0  0  0  0
 31 32  1  0  0  0  0
 31 33  1  0  0  0  0
 31 34  1  0  0  0  0
 29 30  1  0  0  0  0
 29 31  1  0  0  0  0
M  CHG  1  23   1
M  END
$$$$
default_name
  -OEChem-01062215323D

 34 33  0     1  0  0  0  0  0999 V2000
   -3.8899   -3.6747    1.6490 H   0  0  0  0  0  0  0  0  0  0  0  0
   -3.9109   -2.6717    1.2250 C   0  0  0  0  0  0  0  0  0  0  0  0
   -4.6009   -2.0517    1.7950 H   0  0  0  0  0  0  0  0  0  0  0  0
   -4.2309   -2.7237    0.1860 H   0  0  0  0  0  0  0  0  0  0  0  0
   -2.5229   -2.0787    1.2980 C   0  0  0  0  0  0  0  0  0  0  0  0
   -1.5999   -2.7227    1.7810 O   0  0  0  0  0  0  0  0  0  0  0  0
   -2.3659   -0.8447    0.8120 N   0  0  0  0  0  0  0  0  0  0  0  0
   -3.1749   -0.3807    0.4220 H   0  0  0  0  0  0  0  0  0  0  0  0
   -1.0919   -0.1077    0.8170 C   0  0  1  0  0  0  0  0  0  0  0  0
   -0.3002   -0.7903    0.5028 H   0  0  0  0  0  0  0  0  0  0  0  0
   -1.1885    1.0439   -0.2013 C   0  0  0  0  0  0  0  0  0  0  0  0
   -2.0884    1.6226    0.0128 H   0  0  0  0  0  0  0  0  0  0  0  0
   -0.3250    1.7014   -0.0823 H   0  0  0  0  0  0  0  0  0  0  0  0
   -1.2599    0.5611   -1.6581 C   0  0  0  0  0  0  0  0  0  0  0  0
   -0.3756   -0.0332   -1.8919 H   0  0  0  0  0  0  0  0  0  0  0  0
   -2.1499   -0.0575   -1.7885 H   0  0  0  0  0  0  0  0  0  0  0  0
   -1.3291    1.7590   -2.6154 C   0  0  0  0  0  0  0  0  0  0  0  0
   -2.2075    2.3603   -2.3689 H   0  0  0  0  0  0  0  0  0  0  0  0
   -0.4328    2.3692   -2.4876 H   0  0  0  0  0  0  0  0  0  0  0  0
   -1.4255    1.2783   -4.0687 C   0  0  0  0  0  0  0  0  0  0  0  0
   -0.5417    0.6724   -4.2932 H   0  0  0  0  0  0  0  0  0  0  0  0
   -2.3057    0.6354   -4.1646 H   0  0  0  0  0  0  0  0  0  0  0  0
   -1.5180    2.4181   -5.0157 N   0  3  0  0  0  0  0  0  0  0  0  0
   -0.7011    3.0111   -4.9391 H   0  0  0  0  0  0  0  0  0  0  0  0
   -1.5812    2.0843   -5.9694 H   0  0  0  0  0  0  0  0  0  0  0  0
   -2.3396    2.9772   -4.8177 H   0  0  0  0  0  0  0  0  0  0  0  0
   -0.7735    0.4005    2.2250 C   0  0  0  0  0  0  0  0  0  0  0  0
   -1.5349    1.1900    2.7712 O   0  0  0  0  0  0  0  0  0  0  0  0
    0.3621   -0.0273    2.7864 N   0  0  0  0  0  0  0  0  0  0  0  0
    0.9127   -0.7004    2.2796 H   0  0  0  0  0  0  0  0  0  0  0  0
    0.8112    0.3599    4.1250 C   0  0  0  0  0  0  0  0  0  0  0  0
    0.0876    0.0205    4.8692 H   0  0  0  0  0  0  0  0  0  0  0  0
    1.7817   -0.0863    4.3451 H   0  0  0  0  0  0  0  0  0  0  0  0
    0.8906    1.4470    4.1931 H   0  0  0  0  0  0  0  0  0  0  0  0
  5  6  2  0  0  0  0
  5  7  1  0  0  0  0
  2  3  1  0  0  0  0
  2  4  1  0  0  0  0
  2  5  1  0  0  0  0
  1  2  1  0  0  0  0
 27 28  2  0  0  0  0
 27 29  1  0  0  0  0
 23 24  1  0  0  0  0
 23 25  1  0  0  0  0
 23 26  1  0  0  0  0
 20 21  1  0  0  0  0
 20 22  1  0  0  0  0
 20 23  1  0  0  0  0
 17 18  1  0  0  0  0
 17 19  1  0  0  0  0
 17 20  1  0  0  0  0
 14 15  1  0  0  0  0
 14 16  1  0  0  0  0
 14 17  1  0  0  0  0
 11 12  1  0  0  0  0
 11 13  1  0  0  0  0
 11 14  1  0  0  0  0
  9 10  1  0  0  0  0
  9 11  1  0  0  0  0
  9 27  1  0  0  0  0
  7  8  1  0  0  0  0
  7  9  1  0  0  0  0
 31 32  1  0  0  0  0
 31 33  1  0  0  0  0
 31 34  1  0  0  0  0
 29 30  1  0  0  0  0
 29 31  1  0  0  0  0
M  CHG  1  23   1
M  END
$$$$
default_name
  -OEChem-01062215323D

 34 33  0     1  0  0  0  0  0999 V2000
   -3.8899   -3.6747    1.6490 H   0  0  0  0  0  0  0  0  0  0  0  0
   -3.9109   -2.6717    1.2250 C   0  0  0  0  0  0  0  0  0  0  0  0
   -4.6009   -2.0517    1.7950 H   0  0  0  0  0  0  0  0  0  0  0  0
   -4.2309   -2.7237    0.1860 H   0  0  0  0  0  0  0  0  0  0  0  0
   -2.5229   -2.0787    1.2980 C   0  0  0  0  0  0  0  0  0  0  0  0
   -1.5999   -2.7227    1.7810 O   0  0  0  0  0  0  0  0  0  0  0  0
   -2.3659   -0.8447    0.8120 N   0  0  0  0  0  0  0  0  0  0  0  0
   -3.1749   -0.3807    0.4220 H   0  0  0  0  0  0  0  0  0  0  0  0
   -1.0919   -0.1077    0.8170 C   0  0  1  0  0  0  0  0  0  0  0  0
   -0.3002   -0.7903    0.5028 H   0  0  0  0  0  0  0  0  0  0  0  0
   -1.1885    1.0439   -0.2013 C   0  0  0  0  0  0  0  0  0  0  0  0
   -2.0884    1.6226    0.0128 H   0  0  0  0  0  0  0  0  0  0  0  0
   -0.3250    1.7014   -0.0823 H   0  0  0  0  0  0  0  0  0  0  0  0
   -1.2599    0.5611   -1.6581 C   0  0  0  0  0  0  0  0  0  0  0  0
   -0.3756   -0.0332   -1.8919 H   0  0  0  0  0  0  0  0  0  0  0  0
   -2.1499   -0.0575   -1.7885 H   0  0  0  0  0  0  0  0  0  0  0  0
   -1.3291    1.7590   -2.6154 C   0  0  0  0  0  0  0  0  0  0  0  0
   -2.2075    2.3603   -2.3689 H   0  0  0  0  0  0  0  0  0  0  0  0
   -0.4328    2.3692   -2.4876 H   0  0  0  0  0  0  0  0  0  0  0  0
   -1.4255    1.2783   -4.0687 C   0  0  0  0  0  0  0  0  0  0  0  0
   -0.5417    0.6724   -4.2932 H   0  0  0  0  0  0  0  0  0  0  0  0
   -2.3057    0.6354   -4.1646 H   0  0  0  0  0  0  0  0  0  0  0  0
   -1.5180    2.4181   -5.0157 N   0  3  0  0  0  0  0  0  0  0  0  0
   -0.7011    3.0111   -4.9391 H   0  0  0  0  0  0  0  0  0  0  0  0
   -1.5812    2.0843   -5.9694 H   0  0  0  0  0  0  0  0  0  0  0  0
   -2.3396    2.9772   -4.8177 H   0  0  0  0  0  0  0  0  0  0  0  0
   -0.7735    0.4005    2.2250 C   0  0  0  0  0  0  0  0  0  0  0  0
   -1.6457    0.9593    2.8795 O   0  0  0  0  0  0  0  0  0  0  0  0
    0.4778    0.2344    2.6658 N   0  0  0  0  0  0  0  0  0  0  0  0
    1.1223   -0.2639    2.0746 H   0  0  0  0  0  0  0  0  0  0  0  0
    0.9448    0.6596    3.9866 C   0  0  0  0  0  0  0  0  0  0  0  0
    0.3936    0.1242    4.7626 H   0  0  0  0  0  0  0  0  0  0  0  0
    2.0092    0.4508    4.0998 H   0  0  0  0  0  0  0  0  0  0  0  0
    0.7716    1.7300    4.1179 H   0  0  0  0  0  0  0  0  0  0  0  0
  5  6  2  0  0  0  0
  5  7  1  0  0  0  0
  2  3  1  0  0  0  0
  2  4  1  0  0  0  0
  2  5  1  0  0  0  0
  1  2  1  0  0  0  0
 27 28  2  0  0  0  0
 27 29  1  0  0  0  0
 23 24  1  0  0  0  0
 23 25  1  0  0  0  0
 23 26  1  0  0  0  0
 20 21  1  0  0  0  0
 20 22  1  0  0  0  0
 20 23  1  0  0  0  0
 17 18  1  0  0  0  0
 17 19  1  0  0  0  0
 17 20  1  0  0  0  0
 14 15  1  0  0  0  0
 14 16  1  0  0  0  0
 14 17  1  0  0  0  0
 11 12  1  0  0  0  0
 11 13  1  0  0  0  0
 11 14  1  0  0  0  0
  9 10  1  0  0  0  0
  9 11  1  0  0  0  0
  9 27  1  0  0  0  0
  7  8  1  0  0  0  0
  7  9  1  0  0  0  0
 31 32  1  0  0  0  0
 31 33  1  0  0  0  0
 31 34  1  0  0  0  0
 29 30  1  0  0  0  0
 29 31  1  0  0  0  0
M  CHG  1  23   1
M  END
$$$$
default_name
  -OEChem-01062215323D

 34 33  0     1  0  0  0  0  0999 V2000
   -3.8899   -3.6747    1.6490 H   0  0  0  0  0  0  0  0  0  0  0  0
   -3.9109   -2.6717    1.2250 C   0  0  0  0  0  0  0  0  0  0  0  0
   -4.6009   -2.0517    1.7950 H   0  0  0  0  0  0  0  0  0  0  0  0
   -4.2309   -2.7237    0.1860 H   0  0  0  0  0  0  0  0  0  0  0  0
   -2.5229   -2.0787    1.2980 C   0  0  0  0  0  0  0  0  0  0  0  0
   -1.5999   -2.7227    1.7810 O   0  0  0  0  0  0  0  0  0  0  0  0
   -2.3659   -0.8447    0.8120 N   0  0  0  0  0  0  0  0  0  0  0  0
   -3.1749   -0.3807    0.4220 H   0  0  0  0  0  0  0  0  0  0  0  0
   -1.0919   -0.1077    0.8170 C   0  0  1  0  0  0  0  0  0  0  0  0
   -0.3002   -0.7903    0.5028 H   0  0  0  0  0  0  0  0  0  0  0  0
   -1.1885    1.0439   -0.2013 C   0  0  0  0  0  0  0  0  0  0  0  0
   -2.0884    1.6226    0.0128 H   0  0  0  0  0  0  0  0  0  0  0  0
   -0.3250    1.7014   -0.0823 H   0  0  0  0  0  0  0  0  0  0  0  0
   -1.2599    0.5611   -1.6581 C   0  0  0  0  0  0  0  0  0  0  0  0
   -0.3756   -0.0332   -1.8919 H   0  0  0  0  0  0  0  0  0  0  0  0
   -2.1499   -0.0575   -1.7885 H   0  0  0  0  0  0  0  0  0  0  0  0
   -1.3291    1.7590   -2.6154 C   0  0  0  0  0  0  0  0  0  0  0  0
   -2.2075    2.3603   -2.3689 H   0  0  0  0  0  0  0  0  0  0  0  0
   -0.4328    2.3692   -2.4876 H   0  0  0  0  0  0  0  0  0  0  0  0
   -1.4255    1.2783   -4.0687 C   0  0  0  0  0  0  0  0  0  0  0  0
   -0.5417    0.6724   -4.2932 H   0  0  0  0  0  0  0  0  0  0  0  0
   -2.3057    0.6354   -4.1646 H   0  0  0  0  0  0  0  0  0  0  0  0
   -1.5180    2.4181   -5.0157 N   0  3  0  0  0  0  0  0  0  0  0  0
   -0.7011    3.0111   -4.9391 H   0  0  0  0  0  0  0  0  0  0  0  0
   -1.5812    2.0843   -5.9694 H   0  0  0  0  0  0  0  0  0  0  0  0
   -2.3396    2.9772   -4.8177 H   0  0  0  0  0  0  0  0  0  0  0  0
   -0.7735    0.4005    2.2250 C   0  0  0  0  0  0  0  0  0  0  0  0
   -1.6885    0.7041    2.9813 O   0  0  0  0  0  0  0  0  0  0  0  0
    0.5170    0.5212    2.5534 N   0  0  0  0  0  0  0  0  0  0  0  0
    1.2033    0.2186    1.8822 H   0  0  0  0  0  0  0  0  0  0  0  0
    0.9906    0.9884    3.8576 C   0  0  0  0  0  0  0  0  0  0  0  0
    0.6553    0.3030    4.6388 H   0  0  0  0  0  0  0  0  0  0  0  0
    2.0800    1.0370    3.8722 H   0  0  0  0  0  0  0  0  0  0  0  0
    0.5828    1.9790    4.0707 H   0  0  0  0  0  0  0  0  0  0  0  0
  5  6  2  0  0  0  0
  5  7  1  0  0  0  0
  2  3  1  0  0  0  0
  2  4  1  0  0  0  0
  2  5  1  0  0  0  0
  1  2  1  0  0  0  0
 27 28  2  0  0  0  0
 27 29  1  0  0  0  0
 23 24  1  0  0  0  0
 23 25  1  0  0  0  0
 23 26  1  0  0  0  0
 20 21  1  0  0  0  0
 20 22  1  0  0  0  0
 20 23  1  0  0  0  0
 17 18  1  0  0  0  0
 17 19  1  0  0  0  0
 17 20  1  0  0  0  0
 14 15  1  0  0  0  0
 14 16  1  0  0  0  0
 14 17  1  0  0  0  0
 11 12  1  0  0  0  0
 11 13  1  0  0  0  0
 11 14  1  0  0  0  0
  9 10  1  0  0  0  0
  9 11  1  0  0  0  0
  9 27  1  0  0  0  0
  7  8  1  0  0  0  0
  7  9  1  0  0  0  0
 31 32  1  0  0  0  0
 31 33  1  0  0  0  0
 31 34  1  0  0  0  0
 29 30  1  0  0  0  0
 29 31  1  0  0  0  0
M  CHG  1  23   1
M  END
$$$$
default_name
  -OEChem-01062215323D

 34 33  0     1  0  0  0  0  0999 V2000
   -3.8899   -3.6747    1.6490 H   0  0  0  0  0  0  0  0  0  0  0  0
   -3.9109   -2.6717    1.2250 C   0  0  0  0  0  0  0  0  0  0  0  0
   -4.6009   -2.0517    1.7950 H   0  0  0  0  0  0  0  0  0  0  0  0
   -4.2309   -2.7237    0.1860 H   0  0  0  0  0  0  0  0  0  0  0  0
   -2.5229   -2.0787    1.2980 C   0  0  0  0  0  0  0  0  0  0  0  0
   -1.5999   -2.7227    1.7810 O   0  0  0  0  0  0  0  0  0  0  0  0
   -2.3659   -0.8447    0.8120 N   0  0  0  0  0  0  0  0  0  0  0  0
   -3.1749   -0.3807    0.4220 H   0  0  0  0  0  0  0  0  0  0  0  0
   -1.0919   -0.1077    0.8170 C   0  0  1  0  0  0  0  0  0  0  0  0
   -0.3002   -0.7903    0.5028 H   0  0  0  0  0  0  0  0  0  0  0  0
   -1.1885    1.0439   -0.2013 C   0  0  0  0  0  0  0  0  0  0  0  0
   -2.0884    1.6226    0.0128 H   0  0  0  0  0  0  0  0  0  0  0  0
   -0.3250    1.7014   -0.0823 H   0  0  0  0  0  0  0  0  0  0  0  0
   -1.2599    0.5611   -1.6581 C   0  0  0  0  0  0  0  0  0  0  0  0
   -0.3756   -0.0332   -1.8919 H   0  0  0  0  0  0  0  0  0  0  0  0
   -2.1499   -0.0575   -1.7885 H   0  0  0  0  0  0  0  0  0  0  0  0
   -1.3291    1.7590   -2.6154 C   0  0  0  0  0  0  0  0  0  0  0  0
   -2.2075    2.3603   -2.3689 H   0  0  0  0  0  0  0  0  0  0  0  0
   -0.4328    2.3692   -2.4876 H   0  0  0  0  0  0  0  0  0  0  0  0
   -1.4255    1.2783   -4.0687 C   0  0  0  0  0  0  0  0  0  0  0  0
   -0.5417    0.6724   -4.2932 H   0  0  0  0  0  0  0  0  0  0  0  0
   -2.3057    0.6354   -4.1646 H   0  0  0  0  0  0  0  0  0  0  0  0
   -1.5180    2.4181   -5.0157 N   0  3  0  0  0  0  0  0  0  0  0  0
   -0.7011    3.0111   -4.9391 H   0  0  0  0  0  0  0  0  0  0  0  0
   -1.5812    2.0843   -5.9694 H   0  0  0  0  0  0  0  0  0  0  0  0
   -2.3396    2.9772   -4.8177 H   0  0  0  0  0  0  0  0  0  0  0  0
   -0.7735    0.4005    2.2250 C   0  0  0  0  0  0  0  0  0  0  0  0
   -1.6604    0.4420    3.0695 O   0  0  0  0  0  0  0  0  0  0  0  0
    0.4768    0.8135    2.4570 N   0  0  0  0  0  0  0  0  0  0  0  0
    1.1500    0.7144    1.7153 H   0  0  0  0  0  0  0  0  0  0  0  0
    0.9454    1.3239    3.7467 C   0  0  0  0  0  0  0  0  0  0  0  0
    0.8549    0.5446    4.5065 H   0  0  0  0  0  0  0  0  0  0  0  0
    1.9892    1.6323    3.6779 H   0  0  0  0  0  0  0  0  0  0  0  0
    0.3371    2.1770    4.0548 H   0  0  0  0  0  0  0  0  0  0  0  0
  5  6  2  0  0  0  0
  5  7  1  0  0  0  0
  2  3  1  0  0  0  0
  2  4  1  0  0  0  0
  2  5  1  0  0  0  0
  1  2  1  0  0  0  0
 27 28  2  0  0  0  0
 27 29  1  0  0  0  0
 23 24  1  0  0  0  0
 23 25  1  0  0  0  0
 23 26  1  0  0  0  0
 20 21  1  0  0  0  0
 20 22  1  0  0  0  0
 20 23  1  0  0  0  0
 17 18  1  0  0  0  0
 17 19  1  0  0  0  0
 17 20  1  0  0  0  0
 14 15  1  0  0  0  0
 14 16  1  0  0  0  0
 14 17  1  0  0  0  0
 11 12  1  0  0  0  0
 11 13  1  0  0  0  0
 11 14  1  0  0  0  0
  9 10  1  0  0  0  0
  9 11  1  0  0  0  0
  9 27  1  0  0  0  0
  7  8  1  0  0  0  0
  7  9  1  0  0  0  0
 31 32  1  0  0  0  0
 31 33  1  0  0  0  0
 31 34  1  0  0  0  0
 29 30  1  0  0  0  0
 29 31  1  0  0  0  0
M  CHG  1  23   1
M  END
$$$$
default_name
  -OEChem-01062215323D

 34 33  0     1  0  0  0  0  0999 V2000
   -3.8899   -3.6747    1.6490 H   0  0  0  0  0  0  0  0  0  0  0  0
   -3.9109   -2.6717    1.2250 C   0  0  0  0  0  0  0  0  0  0  0  0
   -4.6009   -2.0517    1.7950 H   0  0  0  0  0  0  0  0  0  0  0  0
   -4.2309   -2.7237    0.1860 H   0  0  0  0  0  0  0  0  0  0  0  0
   -2.5229   -2.0787    1.2980 C   0  0  0  0  0  0  0  0  0  0  0  0
   -1.5999   -2.7227    1.7810 O   0  0  0  0  0  0  0  0  0  0  0  0
   -2.3659   -0.8447    0.8120 N   0  0  0  0  0  0  0  0  0  0  0  0
   -3.1749   -0.3807    0.4220 H   0  0  0  0  0  0  0  0  0  0  0  0
   -1.0919   -0.1077    0.8170 C   0  0  1  0  0  0  0  0  0  0  0  0
   -0.3571   -0.6901    0.2581 H   0  0  0  0  0  0  0  0  0  0  0  0
   -1.3037    1.2411    0.1040 C   0  0  0  0  0  0  0  0  0  0  0  0
   -2.1602    1.7429    0.5570 H   0  0  0  0  0  0  0  0  0  0  0  0
   -0.4231    1.8686    0.2545 H   0  0  0  0  0  0  0  0  0  0  0  0
   -1.5702    1.0958   -1.4021 C   0  0  0  0  0  0  0  0  0  0  0  0
   -0.7321    0.5829   -1.8757 H   0  0  0  0  0  0  0  0  0  0  0  0
   -2.4781    0.5082   -1.5514 H   0  0  0  0  0  0  0  0  0  0  0  0
   -1.7464    2.4764   -2.0494 C   0  0  0  0  0  0  0  0  0  0  0  0
   -2.5769    2.9934   -1.5628 H   0  0  0  0  0  0  0  0  0  0  0  0
   -0.8326    3.0564   -1.9053 H   0  0  0  0  0  0  0  0  0  0  0  0
   -2.0371    2.3319   -3.5485 C   0  0  0  0  0  0  0  0  0  0  0  0
   -1.1983    1.8056   -4.0155 H   0  0  0  0  0  0  0  0  0  0  0  0
   -2.9311    1.7131   -3.6711 H   0  0  0  0  0  0  0  0  0  0  0  0
   -2.2358    3.6533   -4.1958 N   0  3  0  0  0  0  0  0  0  0  0  0
   -1.4077    4.2268   -4.0947 H   0  0  0  0  0  0  0  0  0  0  0  0
   -2.4268    3.5406   -5.1836 H   0  0  0  0  0  0  0  0  0  0  0  0
   -3.0169    4.1410   -3.7728 H   0  0  0  0  0  0  0  0  0  0  0  0
   -0.5865    0.0771    2.2496 C   0  0  0  0  0  0  0  0  0  0  0  0
   -1.2539   -0.3441    3.1870 O   0  0  0  0  0  0  0  0  0  0  0  0
    0.5675    0.7329    2.4104 N   0  0  0  0  0  0  0  0  0  0  0  0
    1.0662    1.0165    1.5834 H   0  0  0  0  0  0  0  0  0  0  0  0
    1.1894    0.9911    3.7104 C   0  0  0  0  0  0  0  0  0  0  0  0
    1.4356    0.0443    4.1958 H   0  0  0  0  0  0  0  0  0  0  0  0
    2.1027    1.5741    3.5867 H   0  0  0  0  0  0  0  0  0  0  0  0
    0.4971    1.5380    4.3543 H   0  0  0  0  0  0  0  0  0  0  0  0
  5  6  2  0  0  0  0
  5  7  1  0  0  0  0
  2  3  1  0  0  0  0
  2  4  1  0  0  0  0
  2  5  1  0  0  0  0
  1  2  1  0  0  0  0
 27 28  2  0  0  0  0
 27 29  1  0  0  0  0
 23 24  1  0  0  0  0
 23 25  1  0  0  0  0
 23 26  1  0  0  0  0
 20 21  1  0  0  0  0
 20 22  1  0  0  0  0
 20 23  1  0  0  0  0
 17 18  1  0  0  0  0
 17 19  1  0  0  0  0
 17 20  1  0  0  0  0
 14 15  1  0  0  0  0
 14 16  1  0  0  0  0
 14 17  1  0  0  0  0
 11 12  1  0  0  0  0
 11 13  1  0  0  0  0
 11 14  1  0  0  0  0
  9 10  1  0  0  0  0
  9 11  1  0  0  0  0
  9 27  1  0  0  0  0
  7  8  1  0  0  0  0
  7  9  1  0  0  0  0
 31 32  1  0  0  0  0
 31 33  1  0  0  0  0
 31 34  1  0  0  0  0
 29 30  1  0  0  0  0
 29 31  1  0  0  0  0
M  CHG  1  23   1
M  END
$$$$
default_name
  -OEChem-01062215323D

 34 33  0     1  0  0  0  0  0999 V2000
   -3.8899   -3.6747    1.6490 H   0  0  0  0  0  0  0  0  0  0  0  0
   -3.9109   -2.6717    1.2250 C   0  0  0  0  0  0  0  0  0  0  0  0
   -4.6009   -2.0517    1.7950 H   0  0  0  0  0  0  0  0  0  0  0  0
   -4.2309   -2.7237    0.1860 H   0  0  0  0  0  0  0  0  0  0  0  0
   -2.5229   -2.0787    1.2980 C   0  0  0  0  0  0  0  0  0  0  0  0
   -1.5999   -2.7227    1.7810 O   0  0  0  0  0  0  0  0  0  0  0  0
   -2.3659   -0.8447    0.8120 N   0  0  0  0  0  0  0  0  0  0  0  0
   -3.1749   -0.3807    0.4220 H   0  0  0  0  0  0  0  0  0  0  0  0
   -1.0919   -0.1077    0.8170 C   0  0  1  0  0  0  0  0  0  0  0  0
   -0.3571   -0.6901    0.2581 H   0  0  0  0  0  0  0  0  0  0  0  0
   -1.3037    1.2411    0.1040 C   0  0  0  0  0  0  0  0  0  0  0  0
   -2.1602    1.7429    0.5570 H   0  0  0  0  0  0  0  0  0  0  0  0
   -0.4231    1.8686    0.2545 H   0  0  0  0  0  0  0  0  0  0  0  0
   -1.5702    1.0958   -1.4021 C   0  0  0  0  0  0  0  0  0  0  0  0
   -0.7321    0.5829   -1.8757 H   0  0  0  0  0  0  0  0  0  0  0  0
   -2.4781    0.5082   -1.5514 H   0  0  0  0  0  0  0  0  0  0  0  0
   -1.7464    2.4764   -2.0494 C   0  0  0  0  0  0  0  0  0  0  0  0
   -2.5769    2.9934   -1.5628 H   0  0  0  0  0  0  0  0  0  0  0  0
   -0.8326    3.0564   -1.9053 H   0  0  0  0  0  0  0  0  0  0  0  0
   -2.0371    2.3319   -3.5485 C   0  0  0  0  0  0  0  0  0  0  0  0
   -1.1983    1.8056   -4.0155 H   0  0  0  0  0  0  0  0  0  0  0  0
   -2.9311    1.7131   -3.6711 H   0  0  0  0  0  0  0  0  0  0  0  0
   -2.2358    3.6533   -4.1958 N   0  3  0  0  0  0  0  0  0  0  0  0
   -1.4077    4.2268   -4.0947 H   0  0  0  0  0  0  0  0  0  0  0  0
   -2.4268    3.5406   -5.1836 H   0  0  0  0  0  0  0  0  0  0  0  0
   -3.0169    4.1410   -3.7728 H   0  0  0  0  0  0  0  0  0  0  0  0
   -0.5865    0.0771    2.2496 C   0  0  0  0  0  0  0  0  0  0  0  0
   -1.0930   -0.5691    3.1593 O   0  0  0  0  0  0  0  0  0  0  0  0
    0.3812    0.9790    2.4444 N   0  0  0  0  0  0  0  0  0  0  0  0
    0.7619    1.4421    1.6358 H   0  0  0  0  0  0  0  0  0  0  0  0
    0.9763    1.2739    3.7491 C   0  0  0  0  0  0  0  0  0  0  0  0
    1.4634    0.3792    4.1428 H   0  0  0  0  0  0  0  0  0  0  0  0
    1.7163    2.0699    3.6591 H   0  0  0  0  0  0  0  0  0  0  0  0
    0.2002    1.5812    4.4534 H   0  0  0  0  0  0  0  0  0  0  0  0
  5  6  2  0  0  0  0
  5  7  1  0  0  0  0
  2  3  1  0  0  0  0
  2  4  1  0  0  0  0
  2  5  1  0  0  0  0
  1  2  1  0  0  0  0
 27 28  2  0  0  0  0
 27 29  1  0  0  0  0
 23 24  1  0  0  0  0
 23 25  1  0  0  0  0
 23 26  1  0  0  0  0
 20 21  1  0  0  0  0
 20 22  1  0  0  0  0
 20 23  1  0  0  0  0
 17 18  1  0  0  0  0
 17 19  1  0  0  0  0
 17 20  1  0  0  0  0
 14 15  1  0  0  0  0
 14 16  1  0  0  0  0
 14 17  1  0  0  0  0
 11 12  1  0  0  0  0
 11 13  1  0  0  0  0
 11 14  1  0  0  0  0
  9 10  1  0  0  0  0
  9 11  1  0  0  0  0
  9 27  1  0  0  0  0
  7  8  1  0  0  0  0
  7  9  1  0  0  0  0
 31 32  1  0  0  0  0
 31 33  1  0  0  0  0
 31 34  1  0  0  0  0
 29 30  1  0  0  0  0
 29 31  1  0  0  0  0
M  CHG  1  23   1
M  END
$$$$
default_name
  -OEChem-01062215323D

 34 33  0     1  0  0  0  0  0999 V2000
   -3.8899   -3.6747    1.6490 H   0  0  0  0  0  0  0  0  0  0  0  0
   -3.9109   -2.6717    1.2250 C   0  0  0  0  0  0  0  0  0  0  0  0
   -4.6009   -2.0517    1.7950 H   0  0  0  0  0  0  0  0  0  0  0  0
   -4.2309   -2.7237    0.1860 H   0  0  0  0  0  0  0  0  0  0  0  0
   -2.5229   -2.0787    1.2980 C   0  0  0  0  0  0  0  0  0  0  0  0
   -1.5999   -2.7227    1.7810 O   0  0  0  0  0  0  0  0  0  0  0  0
   -2.3659   -0.8447    0.8120 N   0  0  0  0  0  0  0  0  0  0  0  0
   -3.1749   -0.3807    0.4220 H   0  0  0  0  0  0  0  0  0  0  0  0
   -1.0919   -0.1077    0.8170 C   0  0  1  0  0  0  0  0  0  0  0  0
   -0.3571   -0.6901    0.2581 H   0  0  0  0  0  0  0  0  0  0  0  0
   -1.3037    1.2411    0.1040 C   0  0  0  0  0  0  0  0  0  0  0  0
   -2.1602    1.7429    0.5570 H   0  0  0  0  0  0  0  0  0  0  0  0
   -0.4231    1.8686    0.2545 H   0  0  0  0  0  0  0  0  0  0  0  0
   -1.5702    1.0958   -1.4021 C   0  0  0  0  0  0  0  0  0  0  0  0
   -0.7321    0.5829   -1.8757 H   0  0  0  0  0  0  0  0  0  0  0  0
   -2.4781    0.5082   -1.5514 H   0  0  0  0  0  0  0  0  0  0  0  0
   -1.7464    2.4764   -2.0494 C   0  0  0  0  0  0  0  0  0  0  0  0
   -2.5769    2.9934   -1.5628 H   0  0  0  0  0  0  0  0  0  0  0  0
   -0.8326    3.0564   -1.9053 H   0  0  0  0  0  0  0  0  0  0  0  0
   -2.0371    2.3319   -3.5485 C   0  0  0  0  0  0  0  0  0  0  0  0
   -1.1983    1.8056   -4.0155 H   0  0  0  0  0  0  0  0  0  0  0  0
   -2.9311    1.7131   -3.6711 H   0  0  0  0  0  0  0  0  0  0  0  0
   -2.2358    3.6533   -4.1958 N   0  3  0  0  0  0  0  0  0  0  0  0
   -1.4077    4.2268   -4.0947 H   0  0  0  0  0  0  0  0  0  0  0  0
   -2.4268    3.5406   -5.1836 H   0  0  0  0  0  0  0  0  0  0  0  0
   -3.0169    4.1410   -3.7728 H   0  0  0  0  0  0  0  0  0  0  0  0
   -0.5865    0.0771    2.2496 C   0  0  0  0  0  0  0  0  0  0  0  0
   -0.8839   -0.7450    3.1082 O   0  0  0  0  0  0  0  0  0  0  0  0
    0.1426    1.1686    2.5040 N   0  0  0  0  0  0  0  0  0  0  0  0
    0.3664    1.7749    1.7324 H   0  0  0  0  0  0  0  0  0  0  0  0
    0.7032    1.4921    3.8173 C   0  0  0  0  0  0  0  0  0  0  0  0
    1.4075    0.7140    4.1193 H   0  0  0  0  0  0  0  0  0  0  0  0
    1.2252    2.4490    3.7835 H   0  0  0  0  0  0  0  0  0  0  0  0
   -0.0940    1.5425    4.5622 H   0  0  0  0  0  0  0  0  0  0  0  0
  5  6  2  0  0  0  0
  5  7  1  0  0  0  0
  2  3  1  0  0  0  0
  2  4  1  0  0  0  0
  2  5  1  0  0  0  0
  1  2  1  0  0  0  0
 27 28  2  0  0  0  0
 27 29  1  0  0  0  0
 23 24  1  0  0  0  0
 23 25  1  0  0  0  0
 23 26  1  0  0  0  0
 20 21  1  0  0  0  0
 20 22  1  0  0  0  0
 20 23  1  0  0  0  0
 17 18  1  0  0  0  0
 17 19  1  0  0  0  0
 17 20  1  0  0  0  0
 14 15  1  0  0  0  0
 14 16  1  0  0  0  0
 14 17  1  0  0  0  0
 11 12  1  0  0  0  0
 11 13  1  0  0  0  0
 11 14  1  0  0  0  0
  9 10  1  0  0  0  0
  9 11  1  0  0  0  0
  9 27  1  0  0  0  0
  7  8  1  0  0  0  0
  7  9  1  0  0  0  0
 31 32  1  0  0  0  0
 31 33  1  0  0  0  0
 31 34  1  0  0  0  0
 29 30  1  0  0  0  0
 29 31  1  0  0  0  0
M  CHG  1  23   1
M  END
$$$$
default_name
  -OEChem-01062215323D

 34 33  0     1  0  0  0  0  0999 V2000
   -3.8899   -3.6747    1.6490 H   0  0  0  0  0  0  0  0  0  0  0  0
   -3.9109   -2.6717    1.2250 C   0  0  0  0  0  0  0  0  0  0  0  0
   -4.6009   -2.0517    1.7950 H   0  0  0  0  0  0  0  0  0  0  0  0
   -4.2309   -2.7237    0.1860 H   0  0  0  0  0  0  0  0  0  0  0  0
   -2.5229   -2.0787    1.2980 C   0  0  0  0  0  0  0  0  0  0  0  0
   -1.5999   -2.7227    1.7810 O   0  0  0  0  0  0  0  0  0  0  0  0
   -2.3659   -0.8447    0.8120 N   0  0  0  0  0  0  0  0  0  0  0  0
   -3.1749   -0.3807    0.4220 H   0  0  0  0  0  0  0  0  0  0  0  0
   -1.0919   -0.1077    0.8170 C   0  0  1  0  0  0  0  0  0  0  0  0
   -0.3571   -0.6901    0.2581 H   0  0  0  0  0  0  0  0  0  0  0  0
   -1.3037    1.2411    0.1040 C   0  0  0  0  0  0  0  0  0  0  0  0
   -2.1602    1.7429    0.5570 H   0  0  0  0  0  0  0  0  0  0  0  0
   -0.4231    1.8686    0.2545 H   0  0  0  0  0  0  0  0  0  0  0  0
   -1.5702    1.0958   -1.4021 C   0  0  0  0  0  0  0  0  0  0  0  0
   -0.7321    0.5829   -1.8757 H   0  0  0  0  0  0  0  0  0  0  0  0
   -2.4781    0.5082   -1.5514 H   0  0  0  0  0  0  0  0  0  0  0  0
   -1.7464    2.4764   -2.0494 C   0  0  0  0  0  0  0  0  0  0  0  0
   -2.5769    2.9934   -1.5628 H   0  0  0  0  0  0  0  0  0  0  0  0
   -0.8326    3.0564   -1.9053 H   0  0  0  0  0  0  0  0  0  0  0  0
   -2.0371    2.3319   -3.5485 C   0  0  0  0  0  0  0  0  0  0  0  0
   -1.1983    1.8056   -4.0155 H   0  0  0  0  0  0  0  0  0  0  0  0
   -2.9311    1.7131   -3.6711 H   0  0  0  0  0  0  0  0  0  0  0  0
   -2.2358    3.6533   -4.1958 N   0  3  0  0  0  0  0  0  0  0  0  0
   -1.4077    4.2268   -4.0947 H   0  0  0  0  0  0  0  0  0  0  0  0
   -2.4268    3.5406   -5.1836 H   0  0  0  0  0  0  0  0  0  0  0  0
   -3.0169    4.1410   -3.7728 H   0  0  0  0  0  0  0  0  0  0  0  0
   -0.5865    0.0771    2.2496 C   0  0  0  0  0  0  0  0  0  0  0  0
   -0.6409   -0.8600    3.0373 O   0  0  0  0  0  0  0  0  0  0  0  0
   -0.1318    1.2888    2.5854 N   0  0  0  0  0  0  0  0  0  0  0  0
   -0.0931    1.9923    1.8665 H   0  0  0  0  0  0  0  0  0  0  0  0
    0.3887    1.6308    3.9104 C   0  0  0  0  0  0  0  0  0  0  0  0
    1.2717    1.0259    4.1270 H   0  0  0  0  0  0  0  0  0  0  0  0
    0.6628    2.6856    3.9513 H   0  0  0  0  0  0  0  0  0  0  0  0
   -0.3653    1.4246    4.6732 H   0  0  0  0  0  0  0  0  0  0  0  0
  5  6  2  0  0  0  0
  5  7  1  0  0  0  0
  2  3  1  0  0  0  0
  2  4  1  0  0  0  0
  2  5  1  0  0  0  0
  1  2  1  0  0  0  0
 27 28  2  0  0  0  0
 27 29  1  0  0  0  0
 23 24  1  0  0  0  0
 23 25  1  0  0  0  0
 23 26  1  0  0  0  0
 20 21  1  0  0  0  0
 20 22  1  0  0  0  0
 20 23  1  0  0  0  0
 17 18  1  0  0  0  0
 17 19  1  0  0  0  0
 17 20  1  0  0  0  0
 14 15  1  0  0  0  0
 14 16  1  0  0  0  0
 14 17  1  0  0  0  0
 11 12  1  0  0  0  0
 11 13  1  0  0  0  0
 11 14  1  0  0  0  0
  9 10  1  0  0  0  0
  9 11  1  0  0  0  0
  9 27  1  0  0  0  0
  7  8  1  0  0  0  0
  7  9  1  0  0  0  0
 31 32  1  0  0  0  0
 31 33  1  0  0  0  0
 31 34  1  0  0  0  0
 29 30  1  0  0  0  0
 29 31  1  0  0  0  0
M  CHG  1  23   1
M  END
$$$$
default_name
  -OEChem-01062215323D

 34 33  0     1  0  0  0  0  0999 V2000
   -3.8899   -3.6747    1.6490 H   0  0  0  0  0  0  0  0  0  0  0  0
   -3.9109   -2.6717    1.2250 C   0  0  0  0  0  0  0  0  0  0  0  0
   -4.6009   -2.0517    1.7950 H   0  0  0  0  0  0  0  0  0  0  0  0
   -4.2309   -2.7237    0.1860 H   0  0  0  0  0  0  0  0  0  0  0  0
   -2.5229   -2.0787    1.2980 C   0  0  0  0  0  0  0  0  0  0  0  0
   -1.5999   -2.7227    1.7810 O   0  0  0  0  0  0  0  0  0  0  0  0
   -2.3659   -0.8447    0.8120 N   0  0  0  0  0  0  0  0  0  0  0  0
   -3.1749   -0.3807    0.4220 H   0  0  0  0  0  0  0  0  0  0  0  0
   -1.0919   -0.1077    0.8170 C   0  0  1  0  0  0  0  0  0  0  0  0
   -0.3571   -0.6901    0.2581 H   0  0  0  0  0  0  0  0  0  0  0  0
   -1.3037    1.2411    0.1040 C   0  0  0  0  0  0  0  0  0  0  0  0
   -2.1602    1.7429    0.5570 H   0  0  0  0  0  0  0  0  0  0  0  0
   -0.4231    1.8686    0.2545 H   0  0  0  0  0  0  0  0  0  0  0  0
   -1.5702    1.0958   -1.4021 C   0  0  0  0  0  0  0  0  0  0  0  0
   -0.7321    0.5829   -1.8757 H   0  0  0  0  0  0  0  0  0  0  0  0
   -2.4781    0.5082   -1.5514 H   0  0  0  0  0  0  0  0  0  0  0  0
   -1.7464    2.4764   -2.0494 C   0  0  0  0  0  0  0  0  0  0  0  0
   -2.5769    2.9934   -1.5628 H   0  0  0  0  0  0  0  0  0  0  0  0
   -0.8326    3.0564   -1.9053 H   0  0  0  0  0  0  0  0  0  0  0  0
   -2.0371    2.3319   -3.5485 C   0  0  0  0  0  0  0  0  0  0  0  0
   -1.1983    1.8056   -4.0155 H   0  0  0  0  0  0  0  0  0  0  0  0
   -2.9311    1.7131   -3.6711 H   0  0  0  0  0  0  0  0  0  0  0  0
   -2.2358    3.6533   -4.1958 N   0  3  0  0  0  0  0  0  0  0  0  0
   -1.4077    4.2268   -4.0947 H   0  0  0  0  0  0  0  0  0  0  0  0
   -2.4268    3.5406   -5.1836 H   0  0  0  0  0  0  0  0  0  0  0  0
   -3.0169    4.1410   -3.7728 H   0  0  0  0  0  0  0  0  0  0  0  0
   -0.5865    0.0771    2.2496 C   0  0  0  0  0  0  0  0  0  0  0  0
   -0.3806   -0.9061    2.9514 O   0  0  0  0  0  0  0  0  0  0  0  0
   -0.4236    1.3315    2.6828 N   0  0  0  0  0  0  0  0  0  0  0  0
   -0.5856    2.0795    2.0290 H   0  0  0  0  0  0  0  0  0  0  0  0
    0.0541    1.6807    4.0219 C   0  0  0  0  0  0  0  0  0  0  0  0
    1.0651    1.2935    4.1654 H   0  0  0  0  0  0  0  0  0  0  0  0
    0.0675    2.7635    4.1513 H   0  0  0  0  0  0  0  0  0  0  0  0
   -0.5954    1.2354    4.7787 H   0  0  0  0  0  0  0  0  0  0  0  0
  5  6  2  0  0  0  0
  5  7  1  0  0  0  0
  2  3  1  0  0  0  0
  2  4  1  0  0  0  0
  2  5  1  0  0  0  0
  1  2  1  0  0  0  0
 27 28  2  0  0  0  0
 27 29  1  0  0  0  0
 23 24  1  0  0  0  0
 23 25  1  0  0  0  0
 23 26  1  0  0  0  0
 20 21  1  0  0  0  0
 20 22  1  0  0  0  0
 20 23  1  0  0  0  0
 17 18  1  0  0  0  0
 17 19  1  0  0  0  0
 17 20  1  0  0  0  0
 14 15  1  0  0  0  0
 14 16  1  0  0  0  0
 14 17  1  0  0  0  0
 11 12  1  0  0  0  0
 11 13  1  0  0  0  0
 11 14  1  0  0  0  0
  9 10  1  0  0  0  0
  9 11  1  0  0  0  0
  9 27  1  0  0  0  0
  7  8  1  0  0  0  0
  7  9  1  0  0  0  0
 31 32  1  0  0  0  0
 31 33  1  0  0  0  0
 31 34  1  0  0  0  0
 29 30  1  0  0  0  0
 29 31  1  0  0  0  0
M  CHG  1  23   1
M  END
$$$$
default_name
  -OEChem-01062215323D

 34 33  0     1  0  0  0  0  0999 V2000
   -3.8899   -3.6747    1.6490 H   0  0  0  0  0  0  0  0  0  0  0  0
   -3.9109   -2.6717    1.2250 C   0  0  0  0  0  0  0  0  0  0  0  0
   -4.6009   -2.0517    1.7950 H   0  0  0  0  0  0  0  0  0  0  0  0
   -4.2309   -2.7237    0.1860 H   0  0  0  0  0  0  0  0  0  0  0  0
   -2.5229   -2.0787    1.2980 C   0  0  0  0  0  0  0  0  0  0  0  0
   -1.5999   -2.7227    1.7810 O   0  0  0  0  0  0  0  0  0  0  0  0
   -2.3659   -0.8447    0.8120 N   0  0  0  0  0  0  0  0  0  0  0  0
   -3.1749   -0.3807    0.4220 H   0  0  0  0  0  0  0  0  0  0  0  0
   -1.0919   -0.1077    0.8170 C   0  0  1  0  0  0  0  0  0  0  0  0
   -0.3571   -0.6901    0.2581 H   0  0  0  0  0  0  0  0  0  0  0  0
   -1.3037    1.2411    0.1040 C   0  0  0  0  0  0  0  0  0  0  0  0
   -2.1602    1.7429    0.5570 H   0  0  0  0  0  0  0  0  0  0  0  0
   -0.4231    1.8686    0.2545 H   0  0  0  0  0  0  0  0  0  0  0  0
   -1.5702    1.0958   -1.4021 C   0  0  0  0  0  0  0  0  0  0  0  0
   -0.7321    0.5829   -1.8757 H   0  0  0  0  0  0  0  0  0  0  0  0
   -2.4781    0.5082   -1.5514 H   0  0  0  0  0  0  0  0  0  0  0  0
   -1.7464    2.4764   -2.0494 C   0  0  0  0  0  0  0  0  0  0  0  0
   -2.5769    2.9934   -1.5628 H   0  0  0  0  0  0  0  0  0  0  0  0
   -0.8326    3.0564   -1.9053 H   0  0  0  0  0  0  0  0  0  0  0  0
   -2.0371    2.3319   -3.5485 C   0  0  0  0  0  0  0  0  0  0  0  0
   -1.1983    1.8056   -4.0155 H   0  0  0  0  0  0  0  0  0  0  0  0
   -2.9311    1.7131   -3.6711 H   0  0  0  0  0  0  0  0  0  0  0  0
   -2.2358    3.6533   -4.1958 N   0  3  0  0  0  0  0  0  0  0  0  0
   -1.4077    4.2268   -4.0947 H   0  0  0  0  0  0  0  0  0  0  0  0
   -2.4268    3.5406   -5.1836 H   0  0  0  0  0  0  0  0  0  0  0  0
   -3.0169    4.1410   -3.7728 H   0  0  0  0  0  0  0  0  0  0  0  0
   -0.5865    0.0771    2.2496 C   0  0  0  0  0  0  0  0  0  0  0  0
   -0.1206   -0.8802    2.8564 O   0  0  0  0  0  0  0  0  0  0  0  0
   -0.7126    1.2937    2.7896 N   0  0  0  0  0  0  0  0  0  0  0  0
   -1.0772    2.0305    2.2087 H   0  0  0  0  0  0  0  0  0  0  0  0
   -0.2776    1.6383    4.1444 C   0  0  0  0  0  0  0  0  0  0  0  0
    0.8020    1.4987    4.2317 H   0  0  0  0  0  0  0  0  0  0  0  0
   -0.5201    2.6774    4.3697 H   0  0  0  0  0  0  0  0  0  0  0  0
   -0.7685    0.9879    4.8717 H   0  0  0  0  0  0  0  0  0  0  0  0
  5  6  2  0  0  0  0
  5  7  1  0  0  0  0
  2  3  1  0  0  0  0
  2  4  1  0  0  0  0
  2  5  1  0  0  0  0
  1  2  1  0  0  0  0
 27 28  2  0  0  0  0
 27 29  1  0  0  0  0
 23 24  1  0  0  0  0
 23 25  1  0  0  0  0
 23 26  1  0  0  0  0
 20 21  1  0  0  0  0
 20 22  1  0  0  0  0
 20 23  1  0  0  0  0
 17 18  1  0  0  0  0
 17 19  1  0  0  0  0
 17 20  1  0  0  0  0
 14 15  1  0  0  0  0
 14 16  1  0  0  0  0
 14 17  1  0  0  0  0
 11 12  1  0  0  0  0
 11 13  1  0  0  0  0
 11 14  1  0  0  0  0
  9 10  1  0  0  0  0
  9 11  1  0  0  0  0
  9 27  1  0  0  0  0
  7  8  1  0  0  0  0
  7  9  1  0  0  0  0
 31 32  1  0  0  0  0
 31 33  1  0  0  0  0
 31 34  1  0  0  0  0
 29 30  1  0  0  0  0
 29 31  1  0  0  0  0
M  CHG  1  23   1
M  END
$$$$
default_name
  -OEChem-01062215323D

 34 33  0     1  0  0  0  0  0999 V2000
   -3.8899   -3.6747    1.6490 H   0  0  0  0  0  0  0  0  0  0  0  0
   -3.9109   -2.6717    1.2250 C   0  0  0  0  0  0  0  0  0  0  0  0
   -4.6009   -2.0517    1.7950 H   0  0  0  0  0  0  0  0  0  0  0  0
   -4.2309   -2.7237    0.1860 H   0  0  0  0  0  0  0  0  0  0  0  0
   -2.5229   -2.0787    1.2980 C   0  0  0  0  0  0  0  0  0  0  0  0
   -1.5999   -2.7227    1.7810 O   0  0  0  0  0  0  0  0  0  0  0  0
   -2.3659   -0.8447    0.8120 N   0  0  0  0  0  0  0  0  0  0  0  0
   -3.1749   -0.3807    0.4220 H   0  0  0  0  0  0  0  0  0  0  0  0
   -1.0919   -0.1077    0.8170 C   0  0  1  0  0  0  0  0  0  0  0  0
   -0.3571   -0.6901    0.2581 H   0  0  0  0  0  0  0  0  0  0  0  0
   -1.3037    1.2411    0.1040 C   0  0  0  0  0  0  0  0  0  0  0  0
   -2.1602    1.7429    0.5570 H   0  0  0  0  0  0  0  0  0  0  0  0
   -0.4231    1.8686    0.2545 H   0  0  0  0  0  0  0  0  0  0  0  0
   -1.5702    1.0958   -1.4021 C   0  0  0  0  0  0  0  0  0  0  0  0
   -0.7321    0.5829   -1.8757 H   0  0  0  0  0  0  0  0  0  0  0  0
   -2.4781    0.5082   -1.5514 H   0  0  0  0  0  0  0  0  0  0  0  0
   -1.7464    2.4764   -2.0494 C   0  0  0  0  0  0  0  0  0  0  0  0
   -2.5769    2.9934   -1.5628 H   0  0  0  0  0  0  0  0  0  0  0  0
   -0.8326    3.0564   -1.9053 H   0  0  0  0  0  0  0  0  0  0  0  0
   -2.0371    2.3319   -3.5485 C   0  0  0  0  0  0  0  0  0  0  0  0
   -1.1983    1.8056   -4.0155 H   0  0  0  0  0  0  0  0  0  0  0  0
   -2.9311    1.7131   -3.6711 H   0  0  0  0  0  0  0  0  0  0  0  0
   -2.2358    3.6533   -4.1958 N   0  3  0  0  0  0  0  0  0  0  0  0
   -1.4077    4.2268   -4.0947 H   0  0  0  0  0  0  0  0  0  0  0  0
   -2.4268    3.5406   -5.1836 H   0  0  0  0  0  0  0  0  0  0  0  0
   -3.0169    4.1410   -3.7728 H   0  0  0  0  0  0  0  0  0  0  0  0
   -0.5865    0.0771    2.2496 C   0  0  0  0  0  0  0  0  0  0  0  0
    0.1212   -0.7840    2.7586 O   0  0  0  0  0  0  0  0  0  0  0  0
   -0.9793    1.1781    2.8986 N   0  0  0  0  0  0  0  0  0  0  0  0
   -1.5347    1.8487    2.3936 H   0  0  0  0  0  0  0  0  0  0  0  0
   -0.5840    1.5065    4.2695 C   0  0  0  0  0  0  0  0  0  0  0  0
    0.5002    1.6275    4.3216 H   0  0  0  0  0  0  0  0  0  0  0  0
   -1.0600    2.4333    4.5917 H   0  0  0  0  0  0  0  0  0  0  0  0
   -0.8728    0.6989    4.9458 H   0  0  0  0  0  0  0  0  0  0  0  0
  5  6  2  0  0  0  0
  5  7  1  0  0  0  0
  2  3  1  0  0  0  0
  2  4  1  0  0  0  0
  2  5  1  0  0  0  0
  1  2  1  0  0  0  0
 27 28  2  0  0  0  0
 27 29  1  0  0  0  0
 23 24  1  0  0  0  0
 23 25  1  0  0  0  0
 23 26  1  0  0  0  0
 20 21  1  0  0  0  0
 20 22  1  0  0  0  0
 20 23  1  0  0  0  0
 17 18  1  0  0  0  0
 17 19  1  0  0  0  0
 17 20  1  0  0  0  0
 14 15  1  0  0  0  0
 14 16  1  0  0  0  0
 14 17  1  0  0  0  0
 11 12  1  0  0  0  0
 11 13  1  0  0  0  0
 11 14  1  0  0  0  0
  9 10  1  0  0  0  0
  9 11  1  0  0  0  0
  9 27  1  0  0  0  0
  7  8  1  0  0  0  0
  7  9  1  0  0  0  0
 31 32  1  0  0  0  0
 31 33  1  0  0  0  0
 31 34  1  0  0  0  0
 29 30  1  0  0  0  0
 29 31  1  0  0  0  0
M  CHG  1  23   1
M  END
$$$$
default_name
  -OEChem-01062215323D

 34 33  0     1  0  0  0  0  0999 V2000
   -3.8899   -3.6747    1.6490 H   0  0  0  0  0  0  0  0  0  0  0  0
   -3.9109   -2.6717    1.2250 C   0  0  0  0  0  0  0  0  0  0  0  0
   -4.6009   -2.0517    1.7950 H   0  0  0  0  0  0  0  0  0  0  0  0
   -4.2309   -2.7237    0.1860 H   0  0  0  0  0  0  0  0  0  0  0  0
   -2.5229   -2.0787    1.2980 C   0  0  0  0  0  0  0  0  0  0  0  0
   -1.5999   -2.7227    1.7810 O   0  0  0  0  0  0  0  0  0  0  0  0
   -2.3659   -0.8447    0.8120 N   0  0  0  0  0  0  0  0  0  0  0  0
   -3.1749   -0.3807    0.4220 H   0  0  0  0  0  0  0  0  0  0  0  0
   -1.0919   -0.1077    0.8170 C   0  0  1  0  0  0  0  0  0  0  0  0
   -0.3571   -0.6901    0.2581 H   0  0  0  0  0  0  0  0  0  0  0  0
   -1.3037    1.2411    0.1040 C   0  0  0  0  0  0  0  0  0  0  0  0
   -2.1602    1.7429    0.5570 H   0  0  0  0  0  0  0  0  0  0  0  0
   -0.4231    1.8686    0.2545 H   0  0  0  0  0  0  0  0  0  0  0  0
   -1.5702    1.0958   -1.4021 C   0  0  0  0  0  0  0  0  0  0  0  0
   -0.7321    0.5829   -1.8757 H   0  0  0  0  0  0  0  0  0  0  0  0
   -2.4781    0.5082   -1.5514 H   0  0  0  0  0  0  0  0  0  0  0  0
   -1.7464    2.4764   -2.0494 C   0  0  0  0  0  0  0  0  0  0  0  0
   -2.5769    2.9934   -1.5628 H   0  0  0  0  0  0  0  0  0  0  0  0
   -0.8326    3.0564   -1.9053 H   0  0  0  0  0  0  0  0  0  0  0  0
   -2.0371    2.3319   -3.5485 C   0  0  0  0  0  0  0  0  0  0  0  0
   -1.1983    1.8056   -4.0155 H   0  0  0  0  0  0  0  0  0  0  0  0
   -2.9311    1.7131   -3.6711 H   0  0  0  0  0  0  0  0  0  0  0  0
   -2.2358    3.6533   -4.1958 N   0  3  0  0  0  0  0  0  0  0  0  0
   -1.4077    4.2268   -4.0947 H   0  0  0  0  0  0  0  0  0  0  0  0
   -2.4268    3.5406   -5.1836 H   0  0  0  0  0  0  0  0  0  0  0  0
   -3.0169    4.1410   -3.7728 H   0  0  0  0  0  0  0  0  0  0  0  0
   -0.5865    0.0771    2.2496 C   0  0  0  0  0  0  0  0  0  0  0  0
    0.3285   -0.6242    2.6649 O   0  0  0  0  0  0  0  0  0  0  0  0
   -1.2056    0.9924    3.0024 N   0  0  0  0  0  0  0  0  0  0  0  0
   -1.9267    1.5464    2.5709 H   0  0  0  0  0  0  0  0  0  0  0  0
   -0.8440    1.2942    4.3886 C   0  0  0  0  0  0  0  0  0  0  0  0
    0.1802    1.6711    4.4288 H   0  0  0  0  0  0  0  0  0  0  0  0
   -1.5154    2.0476    4.8021 H   0  0  0  0  0  0  0  0  0  0  0  0
   -0.9013    0.3882    4.9959 H   0  0  0  0  0  0  0  0  0  0  0  0
  5  6  2  0  0  0  0
  5  7  1  0  0  0  0
  2  3  1  0  0  0  0
  2  4  1  0  0  0  0
  2  5  1  0  0  0  0
  1  2  1  0  0  0  0
 27 28  2  0  0  0  0
 27 29  1  0  0  0  0
 23 24  1  0  0  0  0
 23 25  1  0  0  0  0
 23 26  1  0  0  0  0
 20 21  1  0  0  0  0
 20 22  1  0  0  0  0
 20 23  1  0  0  0  0
 17 18  1  0  0  0  0
 17 19  1  0  0  0  0
 17 20  1  0  0  0  0
 14 15  1  0  0  0  0
 14 16  1  0  0  0  0
 14 17  1  0  0  0  0
 11 12  1  0  0  0  0
 11 13  1  0  0  0  0
 11 14  1  0  0  0  0
  9 10  1  0  0  0  0
  9 11  1  0  0  0  0
  9 27  1  0  0  0  0
  7  8  1  0  0  0  0
  7  9  1  0  0  0  0
 31 32  1  0  0  0  0
 31 33  1  0  0  0  0
 31 34  1  0  0  0  0
 29 30  1  0  0  0  0
 29 31  1  0  0  0  0
M  CHG  1  23   1
M  END
$$$$
default_name
  -OEChem-01062215323D

 34 33  0     1  0  0  0  0  0999 V2000
   -3.8899   -3.6747    1.6490 H   0  0  0  0  0  0  0  0  0  0  0  0
   -3.9109   -2.6717    1.2250 C   0  0  0  0  0  0  0  0  0  0  0  0
   -4.6009   -2.0517    1.7950 H   0  0  0  0  0  0  0  0  0  0  0  0
   -4.2309   -2.7237    0.1860 H   0  0  0  0  0  0  0  0  0  0  0  0
   -2.5229   -2.0787    1.2980 C   0  0  0  0  0  0  0  0  0  0  0  0
   -1.5999   -2.7227    1.7810 O   0  0  0  0  0  0  0  0  0  0  0  0
   -2.3659   -0.8447    0.8120 N   0  0  0  0  0  0  0  0  0  0  0  0
   -3.1749   -0.3807    0.4220 H   0  0  0  0  0  0  0  0  0  0  0  0
   -1.0919   -0.1077    0.8170 C   0  0  1  0  0  0  0  0  0  0  0  0
   -0.3571   -0.6901    0.2581 H   0  0  0  0  0  0  0  0  0  0  0  0
   -1.3037    1.2411    0.1040 C   0  0  0  0  0  0  0  0  0  0  0  0
   -2.1602    1.7429    0.5570 H   0  0  0  0  0  0  0  0  0  0  0  0
   -0.4231    1.8686    0.2545 H   0  0  0  0  0  0  0  0  0  0  0  0
   -1.5702    1.0958   -1.4021 C   0  0  0  0  0  0  0  0  0  0  0  0
   -0.7321    0.5829   -1.8757 H   0  0  0  0  0  0  0  0  0  0  0  0
   -2.4781    0.5082   -1.5514 H   0  0  0  0  0  0  0  0  0  0  0  0
   -1.7464    2.4764   -2.0494 C   0  0  0  0  0  0  0  0  0  0  0  0
   -2.5769    2.9934   -1.5628 H   0  0  0  0  0  0  0  0  0  0  0  0
   -0.8326    3.0564   -1.9053 H   0  0  0  0  0  0  0  0  0  0  0  0
   -2.0371    2.3319   -3.5485 C   0  0  0  0  0  0  0  0  0  0  0  0
   -1.1983    1.8056   -4.0155 H   0  0  0  0  0  0  0  0  0  0  0  0
   -2.9311    1.7131   -3.6711 H   0  0  0  0  0  0  0  0  0  0  0  0
   -2.2358    3.6533   -4.1958 N   0  3  0  0  0  0  0  0  0  0  0  0
   -1.4077    4.2268   -4.0947 H   0  0  0  0  0  0  0  0  0  0  0  0
   -2.4268    3.5406   -5.1836 H   0  0  0  0  0  0  0  0  0  0  0  0
   -3.0169    4.1410   -3.7728 H   0  0  0  0  0  0  0  0  0  0  0  0
   -0.5865    0.0771    2.2496 C   0  0  0  0  0  0  0  0  0  0  0  0
    0.4870   -0.4116    2.5816 O   0  0  0  0  0  0  0  0  0  0  0  0
   -1.3758    0.7494    3.0938 N   0  0  0  0  0  0  0  0  0  0  0  0
   -2.2266    1.1443    2.7285 H   0  0  0  0  0  0  0  0  0  0  0  0
   -1.0400    1.0160    4.4937 C   0  0  0  0  0  0  0  0  0  0  0  0
   -0.1360    1.6265    4.5462 H   0  0  0  0  0  0  0  0  0  0  0  0
   -1.8553    1.5468    4.9866 H   0  0  0  0  0  0  0  0  0  0  0  0
   -0.8519    0.0769    5.0187 H   0  0  0  0  0  0  0  0  0  0  0  0
  5  6  2  0  0  0  0
  5  7  1  0  0  0  0
  2  3  1  0  0  0  0
  2  4  1  0  0  0  0
  2  5  1  0  0  0  0
  1  2  1  0  0  0  0
 27 28  2  0  0  0  0
 27 29  1  0  0  0  0
 23 24  1  0  0  0  0
 23 25  1  0  0  0  0
 23 26  1  0  0  0  0
 20 21  1  0  0  0  0
 20 22  1  0  0  0  0
 20 23  1  0  0  0  0
 17 18  1  0  0  0  0
 17 19  1  0  0  0  0
 17 20  1  0  0  0  0
 14 15  1  0  0  0  0
 14 16  1  0  0  0  0
 14 17  1  0  0  0  0
 11 12  1  0  0  0  0
 11 13  1  0  0  0  0
 11 14  1  0  0  0  0
  9 10  1  0  0  0  0
  9 11  1  0  0  0  0
  9 27  1  0  0  0  0
  7  8  1  0  0  0  0
  7  9  1  0  0  0  0
 31 32  1  0  0  0  0
 31 33  1  0  0  0  0
 31 34  1  0  0  0  0
 29 30  1  0  0  0  0
 29 31  1  0  0  0  0
M  CHG  1  23   1
M  END
$$$$
default_name
  -OEChem-01062215323D

 34 33  0     1  0  0  0  0  0999 V2000
   -3.8899   -3.6747    1.6490 H   0  0  0  0  0  0  0  0  0  0  0  0
   -3.9109   -2.6717    1.2250 C   0  0  0  0  0  0  0  0  0  0  0  0
   -4.6009   -2.0517    1.7950 H   0  0  0  0  0  0  0  0  0  0  0  0
   -4.2309   -2.7237    0.1860 H   0  0  0  0  0  0  0  0  0  0  0  0
   -2.5229   -2.0787    1.2980 C   0  0  0  0  0  0  0  0  0  0  0  0
   -1.5999   -2.7227    1.7810 O   0  0  0  0  0  0  0  0  0  0  0  0
   -2.3659   -0.8447    0.8120 N   0  0  0  0  0  0  0  0  0  0  0  0
   -3.1749   -0.3807    0.4220 H   0  0  0  0  0  0  0  0  0  0  0  0
   -1.0919   -0.1077    0.8170 C   0  0  1  0  0  0  0  0  0  0  0  0
   -0.3571   -0.6901    0.2581 H   0  0  0  0  0  0  0  0  0  0  0  0
   -1.3037    1.2411    0.1040 C   0  0  0  0  0  0  0  0  0  0  0  0
   -2.1602    1.7429    0.5570 H   0  0  0  0  0  0  0  0  0  0  0  0
   -0.4231    1.8686    0.2545 H   0  0  0  0  0  0  0  0  0  0  0  0
   -1.5702    1.0958   -1.4021 C   0  0  0  0  0  0  0  0  0  0  0  0
   -0.7321    0.5829   -1.8757 H   0  0  0  0  0  0  0  0  0  0  0  0
   -2.4781    0.5082   -1.5514 H   0  0  0  0  0  0  0  0  0  0  0  0
   -1.7464    2.4764   -2.0494 C   0  0  0  0  0  0  0  0  0  0  0  0
   -2.5769    2.9934   -1.5628 H   0  0  0  0  0  0  0  0  0  0  0  0
   -0.8326    3.0564   -1.9053 H   0  0  0  0  0  0  0  0  0  0  0  0
   -2.0371    2.3319   -3.5485 C   0  0  0  0  0  0  0  0  0  0  0  0
   -1.1983    1.8056   -4.0155 H   0  0  0  0  0  0  0  0  0  0  0  0
   -2.9311    1.7131   -3.6711 H   0  0  0  0  0  0  0  0  0  0  0  0
   -2.2358    3.6533   -4.1958 N   0  3  0  0  0  0  0  0  0  0  0  0
   -1.4077    4.2268   -4.0947 H   0  0  0  0  0  0  0  0  0  0  0  0
   -2.4268    3.5406   -5.1836 H   0  0  0  0  0  0  0  0  0  0  0  0
   -3.0169    4.1410   -3.7728 H   0  0  0  0  0  0  0  0  0  0  0  0
   -0.5865    0.0771    2.2496 C   0  0  0  0  0  0  0  0  0  0  0  0
    0.5861   -0.1608    2.5143 O   0  0  0  0  0  0  0  0  0  0  0  0
   -1.4786    0.4656    3.1667 N   0  0  0  0  0  0  0  0  0  0  0  0
   -2.4139    0.6698    2.8558 H   0  0  0  0  0  0  0  0  0  0  0  0
   -1.1587    0.6908    4.5775 C   0  0  0  0  0  0  0  0  0  0  0  0
   -0.4270    1.4968    4.6656 H   0  0  0  0  0  0  0  0  0  0  0  0
   -2.0565    0.9649    5.1327 H   0  0  0  0  0  0  0  0  0  0  0  0
   -0.7281   -0.2137    5.0125 H   0  0  0  0  0  0  0  0  0  0  0  0
  5  6  2  0  0  0  0
  5  7  1  0  0  0  0
  2  3  1  0  0  0  0
  2  4  1  0  0  0  0
  2  5  1  0  0  0  0
  1  2  1  0  0  0  0
 27 28  2  0  0  0  0
 27 29  1  0  0  0  0
 23 24  1  0  0  0  0
 23 25  1  0  0  0  0
 23 26  1  0  0  0  0
 20 21  1  0  0  0  0
 20 22  1  0  0  0  0
 20 23  1  0  0  0  0
 17 18  1  0  0  0  0
 17 19  1  0  0  0  0
 17 20  1  0  0  0  0
 14 15  1  0  0  0  0
 14 16  1  0  0  0  0
 14 17  1  0  0  0  0
 11 12  1  0  0  0  0
 11 13  1  0  0  0  0
 11 14  1  0  0  0  0
  9 10  1  0  0  0  0
  9 11  1  0  0  0  0
  9 27  1  0  0  0  0
  7  8  1  0  0  0  0
  7  9  1  0  0  0  0
 31 32  1  0  0  0  0
 31 33  1  0  0  0  0
 31 34  1  0  0  0  0
 29 30  1  0  0  0  0
 29 31  1  0  0  0  0
M  CHG  1  23   1
M  END
$$$$
default_name
  -OEChem-01062215323D

 34 33  0     1  0  0  0  0  0999 V2000
   -3.8899   -3.6747    1.6490 H   0  0  0  0  0  0  0  0  0  0  0  0
   -3.9109   -2.6717    1.2250 C   0  0  0  0  0  0  0  0  0  0  0  0
   -4.6009   -2.0517    1.7950 H   0  0  0  0  0  0  0  0  0  0  0  0
   -4.2309   -2.7237    0.1860 H   0  0  0  0  0  0  0  0  0  0  0  0
   -2.5229   -2.0787    1.2980 C   0  0  0  0  0  0  0  0  0  0  0  0
   -1.5999   -2.7227    1.7810 O   0  0  0  0  0  0  0  0  0  0  0  0
   -2.3659   -0.8447    0.8120 N   0  0  0  0  0  0  0  0  0  0  0  0
   -3.1749   -0.3807    0.4220 H   0  0  0  0  0  0  0  0  0  0  0  0
   -1.0919   -0.1077    0.8170 C   0  0  1  0  0  0  0  0  0  0  0  0
   -0.3571   -0.6901    0.2581 H   0  0  0  0  0  0  0  0  0  0  0  0
   -1.3037    1.2411    0.1040 C   0  0  0  0  0  0  0  0  0  0  0  0
   -2.1602    1.7429    0.5570 H   0  0  0  0  0  0  0  0  0  0  0  0
   -0.4231    1.8686    0.2545 H   0  0  0  0  0  0  0  0  0  0  0  0
   -1.5702    1.0958   -1.4021 C   0  0  0  0  0  0  0  0  0  0  0  0
   -0.7321    0.5829   -1.8757 H   0  0  0  0  0  0  0  0  0  0  0  0
   -2.4781    0.5082   -1.5514 H   0  0  0  0  0  0  0  0  0  0  0  0
   -1.7464    2.4764   -2.0494 C   0  0  0  0  0  0  0  0  0  0  0  0
   -2.5769    2.9934   -1.5628 H   0  0  0  0  0  0  0  0  0  0  0  0
   -0.8326    3.0564   -1.9053 H   0  0  0  0  0  0  0  0  0  0  0  0
   -2.0371    2.3319   -3.5485 C   0  0  0  0  0  0  0  0  0  0  0  0
   -1.1983    1.8056   -4.0155 H   0  0  0  0  0  0  0  0  0  0  0  0
   -2.9311    1.7131   -3.6711 H   0  0  0  0  0  0  0  0  0  0  0  0
   -2.2358    3.6533   -4.1958 N   0  3  0  0  0  0  0  0  0  0  0  0
   -1.4077    4.2268   -4.0947 H   0  0  0  0  0  0  0  0  0  0  0  0
   -2.4268    3.5406   -5.1836 H   0  0  0  0  0  0  0  0  0  0  0  0
   -3.0169    4.1410   -3.7728 H   0  0  0  0  0  0  0  0  0  0  0  0
   -0.5865    0.0771    2.2496 C   0  0  0  0  0  0  0  0  0  0  0  0
    0.6188    0.1113    2.4676 O   0  0  0  0  0  0  0  0  0  0  0  0
   -1.5068    0.1604    3.2160 N   0  0  0  0  0  0  0  0  0  0  0  0
   -2.4759    0.1552    2.9441 H   0  0  0  0  0  0  0  0  0  0  0  0
   -1.1919    0.3408    4.6344 C   0  0  0  0  0  0  0  0  0  0  0  0
   -0.6729    1.2908    4.7789 H   0  0  0  0  0  0  0  0  0  0  0  0
   -2.1053    0.3416    5.2303 H   0  0  0  0  0  0  0  0  0  0  0  0
   -0.5383   -0.4640    4.9778 H   0  0  0  0  0  0  0  0  0  0  0  0
  5  6  2  0  0  0  0
  5  7  1  0  0  0  0
  2  3  1  0  0  0  0
  2  4  1  0  0  0  0
  2  5  1  0  0  0  0
  1  2  1  0  0  0  0
 27 28  2  0  0  0  0
 27 29  1  0  0  0  0
 23 24  1  0  0  0  0
 23 25  1  0  0  0  0
 23 26  1  0  0  0  0
 20 21  1  0  0  0  0
 20 22  1  0  0  0  0
 20 23  1  0  0  0  0
 17 18  1  0  0  0  0
 17 19  1  0  0  0  0
 17 20  1  0  0  0  0
 14 15  1  0  0  0  0
 14 16  1  0  0  0  0
 14 17  1  0  0  0  0
 11 12  1  0  0  0  0
 11 13  1  0  0  0  0
 11 14  1  0  0  0  0
  9 10  1  0  0  0  0
  9 11  1  0  0  0  0
  9 27  1  0  0  0  0
  7  8  1  0  0  0  0
  7  9  1  0  0  0  0
 31 32  1  0  0  0  0
 31 33  1  0  0  0  0
 31 34  1  0  0  0  0
 29 30  1  0  0  0  0
 29 31  1  0  0  0  0
M  CHG  1  23   1
M  END
$$$$
default_name
  -OEChem-01062215323D

 34 33  0     1  0  0  0  0  0999 V2000
   -3.8899   -3.6747    1.6490 H   0  0  0  0  0  0  0  0  0  0  0  0
   -3.9109   -2.6717    1.2250 C   0  0  0  0  0  0  0  0  0  0  0  0
   -4.6009   -2.0517    1.7950 H   0  0  0  0  0  0  0  0  0  0  0  0
   -4.2309   -2.7237    0.1860 H   0  0  0  0  0  0  0  0  0  0  0  0
   -2.5229   -2.0787    1.2980 C   0  0  0  0  0  0  0  0  0  0  0  0
   -1.5999   -2.7227    1.7810 O   0  0  0  0  0  0  0  0  0  0  0  0
   -2.3659   -0.8447    0.8120 N   0  0  0  0  0  0  0  0  0  0  0  0
   -3.1749   -0.3807    0.4220 H   0  0  0  0  0  0  0  0  0  0  0  0
   -1.0919   -0.1077    0.8170 C   0  0  1  0  0  0  0  0  0  0  0  0
   -0.3571   -0.6901    0.2581 H   0  0  0  0  0  0  0  0  0  0  0  0
   -1.3037    1.2411    0.1040 C   0  0  0  0  0  0  0  0  0  0  0  0
   -2.1602    1.7429    0.5570 H   0  0  0  0  0  0  0  0  0  0  0  0
   -0.4231    1.8686    0.2545 H   0  0  0  0  0  0  0  0  0  0  0  0
   -1.5702    1.0958   -1.4021 C   0  0  0  0  0  0  0  0  0  0  0  0
   -0.7321    0.5829   -1.8757 H   0  0  0  0  0  0  0  0  0  0  0  0
   -2.4781    0.5082   -1.5514 H   0  0  0  0  0  0  0  0  0  0  0  0
   -1.7464    2.4764   -2.0494 C   0  0  0  0  0  0  0  0  0  0  0  0
   -2.5769    2.9934   -1.5628 H   0  0  0  0  0  0  0  0  0  0  0  0
   -0.8326    3.0564   -1.9053 H   0  0  0  0  0  0  0  0  0  0  0  0
   -2.0371    2.3319   -3.5485 C   0  0  0  0  0  0  0  0  0  0  0  0
   -1.1983    1.8056   -4.0155 H   0  0  0  0  0  0  0  0  0  0  0  0
   -2.9311    1.7131   -3.6711 H   0  0  0  0  0  0  0  0  0  0  0  0
   -2.2358    3.6533   -4.1958 N   0  3  0  0  0  0  0  0  0  0  0  0
   -1.4077    4.2268   -4.0947 H   0  0  0  0  0  0  0  0  0  0  0  0
   -2.4268    3.5406   -5.1836 H   0  0  0  0  0  0  0  0  0  0  0  0
   -3.0169    4.1410   -3.7728 H   0  0  0  0  0  0  0  0  0  0  0  0
   -0.5865    0.0771    2.2496 C   0  0  0  0  0  0  0  0  0  0  0  0
    0.5831    0.3861    2.4448 O   0  0  0  0  0  0  0  0  0  0  0  0
   -1.4585   -0.1455    3.2384 N   0  0  0  0  0  0  0  0  0  0  0  0
   -2.4083   -0.3645    2.9873 H   0  0  0  0  0  0  0  0  0  0  0  0
   -1.1374   -0.0102    4.6604 C   0  0  0  0  0  0  0  0  0  0  0  0
   -0.8570    1.0225    4.8784 H   0  0  0  0  0  0  0  0  0  0  0  0
   -1.9983   -0.2806    5.2728 H   0  0  0  0  0  0  0  0  0  0  0  0
   -0.2953   -0.6567    4.9170 H   0  0  0  0  0  0  0  0  0  0  0  0
  5  6  2  0  0  0  0
  5  7  1  0  0  0  0
  2  3  1  0  0  0  0
  2  4  1  0  0  0  0
  2  5  1  0  0  0  0
  1  2  1  0  0  0  0
 27 28  2  0  0  0  0
 27 29  1  0  0  0  0
 23 24  1  0  0  0  0
 23 25  1  0  0  0  0
 23 26  1  0  0  0  0
 20 21  1  0  0  0  0
 20 22  1  0  0  0  0
 20 23  1  0  0  0  0
 17 18  1  0  0  0  0
 17 19  1  0  0  0  0
 17 20  1  0  0  0  0
 14 15  1  0  0  0  0
 14 16  1  0  0  0  0
 14 17  1  0  0  0  0
 11 12  1  0  0  0  0
 11 13  1  0  0  0  0
 11 14  1  0  0  0  0
  9 10  1  0  0  0  0
  9 11  1  0  0  0  0
  9 27  1  0  0  0  0
  7  8  1  0  0  0  0
  7  9  1  0  0  0  0
 31 32  1  0  0  0  0
 31 33  1  0  0  0  0
 31 34  1  0  0  0  0
 29 30  1  0  0  0  0
 29 31  1  0  0  0  0
M  CHG  1  23   1
M  END
$$$$
default_name
  -OEChem-01062215323D

 34 33  0     1  0  0  0  0  0999 V2000
   -3.8899   -3.6747    1.6490 H   0  0  0  0  0  0  0  0  0  0  0  0
   -3.9109   -2.6717    1.2250 C   0  0  0  0  0  0  0  0  0  0  0  0
   -4.6009   -2.0517    1.7950 H   0  0  0  0  0  0  0  0  0  0  0  0
   -4.2309   -2.7237    0.1860 H   0  0  0  0  0  0  0  0  0  0  0  0
   -2.5229   -2.0787    1.2980 C   0  0  0  0  0  0  0  0  0  0  0  0
   -1.5999   -2.7227    1.7810 O   0  0  0  0  0  0  0  0  0  0  0  0
   -2.3659   -0.8447    0.8120 N   0  0  0  0  0  0  0  0  0  0  0  0
   -3.1749   -0.3807    0.4220 H   0  0  0  0  0  0  0  0  0  0  0  0
   -1.0919   -0.1077    0.8170 C   0  0  1  0  0  0  0  0  0  0  0  0
   -0.3571   -0.6901    0.2581 H   0  0  0  0  0  0  0  0  0  0  0  0
   -1.3037    1.2411    0.1040 C   0  0  0  0  0  0  0  0  0  0  0  0
   -2.1602    1.7429    0.5570 H   0  0  0  0  0  0  0  0  0  0  0  0
   -0.4231    1.8686    0.2545 H   0  0  0  0  0  0  0  0  0  0  0  0
   -1.5702    1.0958   -1.4021 C   0  0  0  0  0  0  0  0  0  0  0  0
   -0.7321    0.5829   -1.8757 H   0  0  0  0  0  0  0  0  0  0  0  0
   -2.4781    0.5082   -1.5514 H   0  0  0  0  0  0  0  0  0  0  0  0
   -1.7464    2.4764   -2.0494 C   0  0  0  0  0  0  0  0  0  0  0  0
   -2.5769    2.9934   -1.5628 H   0  0  0  0  0  0  0  0  0  0  0  0
   -0.8326    3.0564   -1.9053 H   0  0  0  0  0  0  0  0  0  0  0  0
   -2.0371    2.3319   -3.5485 C   0  0  0  0  0  0  0  0  0  0  0  0
   -1.1983    1.8056   -4.0155 H   0  0  0  0  0  0  0  0  0  0  0  0
   -2.9311    1.7131   -3.6711 H   0  0  0  0  0  0  0  0  0  0  0  0
   -2.2358    3.6533   -4.1958 N   0  3  0  0  0  0  0  0  0  0  0  0
   -1.4077    4.2268   -4.0947 H   0  0  0  0  0  0  0  0  0  0  0  0
   -2.4268    3.5406   -5.1836 H   0  0  0  0  0  0  0  0  0  0  0  0
   -3.0169    4.1410   -3.7728 H   0  0  0  0  0  0  0  0  0  0  0  0
   -0.5865    0.0771    2.2496 C   0  0  0  0  0  0  0  0  0  0  0  0
    0.4813    0.6447    2.4473 O   0  0  0  0  0  0  0  0  0  0  0  0
   -1.3371   -0.4312    3.2324 N   0  0  0  0  0  0  0  0  0  0  0  0
   -2.2158   -0.8537    2.9825 H   0  0  0  0  0  0  0  0  0  0  0  0
   -0.9989   -0.3383    4.6539 C   0  0  0  0  0  0  0  0  0  0  0  0
   -0.9667    0.7103    4.9574 H   0  0  0  0  0  0  0  0  0  0  0  0
   -1.7430   -0.8594    5.2574 H   0  0  0  0  0  0  0  0  0  0  0  0
   -0.0159   -0.7789    4.8341 H   0  0  0  0  0  0  0  0  0  0  0  0
  5  6  2  0  0  0  0
  5  7  1  0  0  0  0
  2  3  1  0  0  0  0
  2  4  1  0  0  0  0
  2  5  1  0  0  0  0
  1  2  1  0  0  0  0
 27 28  2  0  0  0  0
 27 29  1  0  0  0  0
 23 24  1  0  0  0  0
 23 25  1  0  0  0  0
 23 26  1  0  0  0  0
 20 21  1  0  0  0  0
 20 22  1  0  0  0  0
 20 23  1  0  0  0  0
 17 18  1  0  0  0  0
 17 19  1  0  0  0  0
 17 20  1  0  0  0  0
 14 15  1  0  0  0  0
 14 16  1  0  0  0  0
 14 17  1  0  0  0  0
 11 12  1  0  0  0  0
 11 13  1  0  0  0  0
 11 14  1  0  0  0  0
  9 10  1  0  0  0  0
  9 11  1  0  0  0  0
  9 27  1  0  0  0  0
  7  8  1  0  0  0  0
  7  9  1  0  0  0  0
 31 32  1  0  0  0  0
 31 33  1  0  0  0  0
 31 34  1  0  0  0  0
 29 30  1  0  0  0  0
 29 31  1  0  0  0  0
M  CHG  1  23   1
M  END
$$$$
default_name
  -OEChem-01062215323D

 34 33  0     1  0  0  0  0  0999 V2000
   -3.8899   -3.6747    1.6490 H   0  0  0  0  0  0  0  0  0  0  0  0
   -3.9109   -2.6717    1.2250 C   0  0  0  0  0  0  0  0  0  0  0  0
   -4.6009   -2.0517    1.7950 H   0  0  0  0  0  0  0  0  0  0  0  0
   -4.2309   -2.7237    0.1860 H   0  0  0  0  0  0  0  0  0  0  0  0
   -2.5229   -2.0787    1.2980 C   0  0  0  0  0  0  0  0  0  0  0  0
   -1.5999   -2.7227    1.7810 O   0  0  0  0  0  0  0  0  0  0  0  0
   -2.3659   -0.8447    0.8120 N   0  0  0  0  0  0  0  0  0  0  0  0
   -3.1749   -0.3807    0.4220 H   0  0  0  0  0  0  0  0  0  0  0  0
   -1.0919   -0.1077    0.8170 C   0  0  1  0  0  0  0  0  0  0  0  0
   -0.3571   -0.6901    0.2581 H   0  0  0  0  0  0  0  0  0  0  0  0
   -1.3037    1.2411    0.1040 C   0  0  0  0  0  0  0  0  0  0  0  0
   -2.1602    1.7429    0.5570 H   0  0  0  0  0  0  0  0  0  0  0  0
   -0.4231    1.8686    0.2545 H   0  0  0  0  0  0  0  0  0  0  0  0
   -1.5702    1.0958   -1.4021 C   0  0  0  0  0  0  0  0  0  0  0  0
   -0.7321    0.5829   -1.8757 H   0  0  0  0  0  0  0  0  0  0  0  0
   -2.4781    0.5082   -1.5514 H   0  0  0  0  0  0  0  0  0  0  0  0
   -1.7464    2.4764   -2.0494 C   0  0  0  0  0  0  0  0  0  0  0  0
   -2.5769    2.9934   -1.5628 H   0  0  0  0  0  0  0  0  0  0  0  0
   -0.8326    3.0564   -1.9053 H   0  0  0  0  0  0  0  0  0  0  0  0
   -2.0371    2.3319   -3.5485 C   0  0  0  0  0  0  0  0  0  0  0  0
   -1.1983    1.8056   -4.0155 H   0  0  0  0  0  0  0  0  0  0  0  0
   -2.9311    1.7131   -3.6711 H   0  0  0  0  0  0  0  0  0  0  0  0
   -2.2358    3.6533   -4.1958 N   0  3  0  0  0  0  0  0  0  0  0  0
   -1.4077    4.2268   -4.0947 H   0  0  0  0  0  0  0  0  0  0  0  0
   -2.4268    3.5406   -5.1836 H   0  0  0  0  0  0  0  0  0  0  0  0
   -3.0169    4.1410   -3.7728 H   0  0  0  0  0  0  0  0  0  0  0  0
   -0.5865    0.0771    2.2496 C   0  0  0  0  0  0  0  0  0  0  0  0
    0.3204    0.8697    2.4750 O   0  0  0  0  0  0  0  0  0  0  0  0
   -1.1508   -0.6772    3.1984 N   0  0  0  0  0  0  0  0  0  0  0  0
   -1.9114   -1.2793    2.9300 H   0  0  0  0  0  0  0  0  0  0  0  0
   -0.7858   -0.6210    4.6152 C   0  0  0  0  0  0  0  0  0  0  0  0
   -0.9946    0.3754    5.0105 H   0  0  0  0  0  0  0  0  0  0  0  0
   -1.3565   -1.3552    5.1850 H   0  0  0  0  0  0  0  0  0  0  0  0
    0.2810   -0.8221    4.7350 H   0  0  0  0  0  0  0  0  0  0  0  0
  5  6  2  0  0  0  0
  5  7  1  0  0  0  0
  2  3  1  0  0  0  0
  2  4  1  0  0  0  0
  2  5  1  0  0  0  0
  1  2  1  0  0  0  0
 27 28  2  0  0  0  0
 27 29  1  0  0  0  0
 23 24  1  0  0  0  0
 23 25  1  0  0  0  0
 23 26  1  0  0  0  0
 20 21  1  0  0  0  0
 20 22  1  0  0  0  0
 20 23  1  0  0  0  0
 17 18  1  0  0  0  0
 17 19  1  0  0  0  0
 17 20  1  0  0  0  0
 14 15  1  0  0  0  0
 14 16  1  0  0  0  0
 14 17  1  0  0  0  0
 11 12  1  0  0  0  0
 11 13  1  0  0  0  0
 11 14  1  0  0  0  0
  9 10  1  0  0  0  0
  9 11  1  0  0  0  0
  9 27  1  0  0  0  0
  7  8  1  0  0  0  0
  7  9  1  0  0  0  0
 31 32  1  0  0  0  0
 31 33  1  0  0  0  0
 31 34  1  0  0  0  0
 29 30  1  0  0  0  0
 29 31  1  0  0  0  0
M  CHG  1  23   1
M  END
$$$$
default_name
  -OEChem-01062215323D

 34 33  0     1  0  0  0  0  0999 V2000
   -3.8899   -3.6747    1.6490 H   0  0  0  0  0  0  0  0  0  0  0  0
   -3.9109   -2.6717    1.2250 C   0  0  0  0  0  0  0  0  0  0  0  0
   -4.6009   -2.0517    1.7950 H   0  0  0  0  0  0  0  0  0  0  0  0
   -4.2309   -2.7237    0.1860 H   0  0  0  0  0  0  0  0  0  0  0  0
   -2.5229   -2.0787    1.2980 C   0  0  0  0  0  0  0  0  0  0  0  0
   -1.5999   -2.7227    1.7810 O   0  0  0  0  0  0  0  0  0  0  0  0
   -2.3659   -0.8447    0.8120 N   0  0  0  0  0  0  0  0  0  0  0  0
   -3.1749   -0.3807    0.4220 H   0  0  0  0  0  0  0  0  0  0  0  0
   -1.0919   -0.1077    0.8170 C   0  0  1  0  0  0  0  0  0  0  0  0
   -0.3571   -0.6901    0.2581 H   0  0  0  0  0  0  0  0  0  0  0  0
   -1.3037    1.2411    0.1040 C   0  0  0  0  0  0  0  0  0  0  0  0
   -2.1602    1.7429    0.5570 H   0  0  0  0  0  0  0  0  0  0  0  0
   -0.4231    1.8686    0.2545 H   0  0  0  0  0  0  0  0  0  0  0  0
   -1.5702    1.0958   -1.4021 C   0  0  0  0  0  0  0  0  0  0  0  0
   -0.7321    0.5829   -1.8757 H   0  0  0  0  0  0  0  0  0  0  0  0
   -2.4781    0.5082   -1.5514 H   0  0  0  0  0  0  0  0  0  0  0  0
   -1.7464    2.4764   -2.0494 C   0  0  0  0  0  0  0  0  0  0  0  0
   -2.5769    2.9934   -1.5628 H   0  0  0  0  0  0  0  0  0  0  0  0
   -0.8326    3.0564   -1.9053 H   0  0  0  0  0  0  0  0  0  0  0  0
   -2.0371    2.3319   -3.5485 C   0  0  0  0  0  0  0  0  0  0  0  0
   -1.1983    1.8056   -4.0155 H   0  0  0  0  0  0  0  0  0  0  0  0
   -2.9311    1.7131   -3.6711 H   0  0  0  0  0  0  0  0  0  0  0  0
   -2.2358    3.6533   -4.1958 N   0  3  0  0  0  0  0  0  0  0  0  0
   -1.4077    4.2268   -4.0947 H   0  0  0  0  0  0  0  0  0  0  0  0
   -2.4268    3.5406   -5.1836 H   0  0  0  0  0  0  0  0  0  0  0  0
   -3.0169    4.1410   -3.7728 H   0  0  0  0  0  0  0  0  0  0  0  0
   -0.5865    0.0771    2.2496 C   0  0  0  0  0  0  0  0  0  0  0  0
    0.1113    1.0457    2.5261 O   0  0  0  0  0  0  0  0  0  0  0  0
   -0.9122   -0.8668    3.1388 N   0  0  0  0  0  0  0  0  0  0  0  0
   -1.5160   -1.6121    2.8334 H   0  0  0  0  0  0  0  0  0  0  0  0
   -0.5127   -0.8392    4.5470 C   0  0  0  0  0  0  0  0  0  0  0  0
   -0.9387    0.0406    5.0339 H   0  0  0  0  0  0  0  0  0  0  0  0
   -0.8654   -1.7343    5.0607 H   0  0  0  0  0  0  0  0  0  0  0  0
    0.5752   -0.7834    4.6262 H   0  0  0  0  0  0  0  0  0  0  0  0
  5  6  2  0  0  0  0
  5  7  1  0  0  0  0
  2  3  1  0  0  0  0
  2  4  1  0  0  0  0
  2  5  1  0  0  0  0
  1  2  1  0  0  0  0
 27 28  2  0  0  0  0
 27 29  1  0  0  0  0
 23 24  1  0  0  0  0
 23 25  1  0  0  0  0
 23 26  1  0  0  0  0
 20 21  1  0  0  0  0
 20 22  1  0  0  0  0
 20 23  1  0  0  0  0
 17 18  1  0  0  0  0
 17 19  1  0  0  0  0
 17 20  1  0  0  0  0
 14 15  1  0  0  0  0
 14 16  1  0  0  0  0
 14 17  1  0  0  0  0
 11 12  1  0  0  0  0
 11 13  1  0  0  0  0
 11 14  1  0  0  0  0
  9 10  1  0  0  0  0
  9 11  1  0  0  0  0
  9 27  1  0  0  0  0
  7  8  1  0  0  0  0
  7  9  1  0  0  0  0
 31 32  1  0  0  0  0
 31 33  1  0  0  0  0
 31 34  1  0  0  0  0
 29 30  1  0  0  0  0
 29 31  1  0  0  0  0
M  CHG  1  23   1
M  END
$$$$
default_name
  -OEChem-01062215323D

 34 33  0     1  0  0  0  0  0999 V2000
   -3.8899   -3.6747    1.6490 H   0  0  0  0  0  0  0  0  0  0  0  0
   -3.9109   -2.6717    1.2250 C   0  0  0  0  0  0  0  0  0  0  0  0
   -4.6009   -2.0517    1.7950 H   0  0  0  0  0  0  0  0  0  0  0  0
   -4.2309   -2.7237    0.1860 H   0  0  0  0  0  0  0  0  0  0  0  0
   -2.5229   -2.0787    1.2980 C   0  0  0  0  0  0  0  0  0  0  0  0
   -1.5999   -2.7227    1.7810 O   0  0  0  0  0  0  0  0  0  0  0  0
   -2.3659   -0.8447    0.8120 N   0  0  0  0  0  0  0  0  0  0  0  0
   -3.1749   -0.3807    0.4220 H   0  0  0  0  0  0  0  0  0  0  0  0
   -1.0919   -0.1077    0.8170 C   0  0  1  0  0  0  0  0  0  0  0  0
   -0.3571   -0.6901    0.2581 H   0  0  0  0  0  0  0  0  0  0  0  0
   -1.3037    1.2411    0.1040 C   0  0  0  0  0  0  0  0  0  0  0  0
   -2.1602    1.7429    0.5570 H   0  0  0  0  0  0  0  0  0  0  0  0
   -0.4231    1.8686    0.2545 H   0  0  0  0  0  0  0  0  0  0  0  0
   -1.5702    1.0958   -1.4021 C   0  0  0  0  0  0  0  0  0  0  0  0
   -0.7321    0.5829   -1.8757 H   0  0  0  0  0  0  0  0  0  0  0  0
   -2.4781    0.5082   -1.5514 H   0  0  0  0  0  0  0  0  0  0  0  0
   -1.7464    2.4764   -2.0494 C   0  0  0  0  0  0  0  0  0  0  0  0
   -2.5769    2.9934   -1.5628 H   0  0  0  0  0  0  0  0  0  0  0  0
   -0.8326    3.0564   -1.9053 H   0  0  0  0  0  0  0  0  0  0  0  0
   -2.0371    2.3319   -3.5485 C   0  0  0  0  0  0  0  0  0  0  0  0
   -1.1983    1.8056   -4.0155 H   0  0  0  0  0  0  0  0  0  0  0  0
   -2.9311    1.7131   -3.6711 H   0  0  0  0  0  0  0  0  0  0  0  0
   -2.2358    3.6533   -4.1958 N   0  3  0  0  0  0  0  0  0  0  0  0
   -1.4077    4.2268   -4.0947 H   0  0  0  0  0  0  0  0  0  0  0  0
   -2.4268    3.5406   -5.1836 H   0  0  0  0  0  0  0  0  0  0  0  0
   -3.0169    4.1410   -3.7728 H   0  0  0  0  0  0  0  0  0  0  0  0
   -0.5865    0.0771    2.2496 C   0  0  0  0  0  0  0  0  0  0  0  0
   -0.1317    1.1606    2.5970 O   0  0  0  0  0  0  0  0  0  0  0  0
   -0.6378   -0.9871    3.0574 N   0  0  0  0  0  0  0  0  0  0  0  0
   -1.0564   -1.8295    2.6993 H   0  0  0  0  0  0  0  0  0  0  0  0
   -0.1982   -0.9780    4.4539 C   0  0  0  0  0  0  0  0  0  0  0  0
   -0.8028   -0.2712    5.0262 H   0  0  0  0  0  0  0  0  0  0  0  0
   -0.3030   -1.9709    4.8928 H   0  0  0  0  0  0  0  0  0  0  0  0
    0.8465   -0.6654    4.5152 H   0  0  0  0  0  0  0  0  0  0  0  0
  5  6  2  0  0  0  0
  5  7  1  0  0  0  0
  2  3  1  0  0  0  0
  2  4  1  0  0  0  0
  2  5  1  0  0  0  0
  1  2  1  0  0  0  0
 27 28  2  0  0  0  0
 27 29  1  0  0  0  0
 23 24  1  0  0  0  0
 23 25  1  0  0  0  0
 23 26  1  0  0  0  0
 20 21  1  0  0  0  0
 20 22  1  0  0  0  0
 20 23  1  0  0  0  0
 17 18  1  0  0  0  0
 17 19  1  0  0  0  0
 17 20  1  0  0  0  0
 14 15  1  0  0  0  0
 14 16  1  0  0  0  0
 14 17  1  0  0  0  0
 11 12  1  0  0  0  0
 11 13  1  0  0  0  0
 11 14  1  0  0  0  0
  9 10  1  0  0  0  0
  9 11  1  0  0  0  0
  9 27  1  0  0  0  0
  7  8  1  0  0  0  0
  7  9  1  0  0  0  0
 31 32  1  0  0  0  0
 31 33  1  0  0  0  0
 31 34  1  0  0  0  0
 29 30  1  0  0  0  0
 29 31  1  0  0  0  0
M  CHG  1  23   1
M  END
$$$$
default_name
  -OEChem-01062215323D

 34 33  0     1  0  0  0  0  0999 V2000
   -3.8899   -3.6747    1.6490 H   0  0  0  0  0  0  0  0  0  0  0  0
   -3.9109   -2.6717    1.2250 C   0  0  0  0  0  0  0  0  0  0  0  0
   -4.6009   -2.0517    1.7950 H   0  0  0  0  0  0  0  0  0  0  0  0
   -4.2309   -2.7237    0.1860 H   0  0  0  0  0  0  0  0  0  0  0  0
   -2.5229   -2.0787    1.2980 C   0  0  0  0  0  0  0  0  0  0  0  0
   -1.5999   -2.7227    1.7810 O   0  0  0  0  0  0  0  0  0  0  0  0
   -2.3659   -0.8447    0.8120 N   0  0  0  0  0  0  0  0  0  0  0  0
   -3.1749   -0.3807    0.4220 H   0  0  0  0  0  0  0  0  0  0  0  0
   -1.0919   -0.1077    0.8170 C   0  0  1  0  0  0  0  0  0  0  0  0
   -0.3571   -0.6901    0.2581 H   0  0  0  0  0  0  0  0  0  0  0  0
   -1.3037    1.2411    0.1040 C   0  0  0  0  0  0  0  0  0  0  0  0
   -2.1602    1.7429    0.5570 H   0  0  0  0  0  0  0  0  0  0  0  0
   -0.4231    1.8686    0.2545 H   0  0  0  0  0  0  0  0  0  0  0  0
   -1.5702    1.0958   -1.4021 C   0  0  0  0  0  0  0  0  0  0  0  0
   -0.7321    0.5829   -1.8757 H   0  0  0  0  0  0  0  0  0  0  0  0
   -2.4781    0.5082   -1.5514 H   0  0  0  0  0  0  0  0  0  0  0  0
   -1.7464    2.4764   -2.0494 C   0  0  0  0  0  0  0  0  0  0  0  0
   -2.5769    2.9934   -1.5628 H   0  0  0  0  0  0  0  0  0  0  0  0
   -0.8326    3.0564   -1.9053 H   0  0  0  0  0  0  0  0  0  0  0  0
   -2.0371    2.3319   -3.5485 C   0  0  0  0  0  0  0  0  0  0  0  0
   -1.1983    1.8056   -4.0155 H   0  0  0  0  0  0  0  0  0  0  0  0
   -2.9311    1.7131   -3.6711 H   0  0  0  0  0  0  0  0  0  0  0  0
   -2.2358    3.6533   -4.1958 N   0  3  0  0  0  0  0  0  0  0  0  0
   -1.4077    4.2268   -4.0947 H   0  0  0  0  0  0  0  0  0  0  0  0
   -2.4268    3.5406   -5.1836 H   0  0  0  0  0  0  0  0  0  0  0  0
   -3.0169    4.1410   -3.7728 H   0  0  0  0  0  0  0  0  0  0  0  0
   -0.5865    0.0771    2.2496 C   0  0  0  0  0  0  0  0  0  0  0  0
   -0.3920    1.2067    2.6829 O   0  0  0  0  0  0  0  0  0  0  0  0
   -0.3461   -1.0298    2.9600 N   0  0  0  0  0  0  0  0  0  0  0  0
   -0.5640   -1.9166    2.5369 H   0  0  0  0  0  0  0  0  0  0  0  0
    0.1364   -1.0279    4.3423 C   0  0  0  0  0  0  0  0  0  0  0  0
   -0.5963   -0.5389    4.9879 H   0  0  0  0  0  0  0  0  0  0  0  0
    0.2922   -2.0488    4.6928 H   0  0  0  0  0  0  0  0  0  0  0  0
    1.0766   -0.4762    4.4097 H   0  0  0  0  0  0  0  0  0  0  0  0
  5  6  2  0  0  0  0
  5  7  1  0  0  0  0
  2  3  1  0  0  0  0
  2  4  1  0  0  0  0
  2  5  1  0  0  0  0
  1  2  1  0  0  0  0
 27 28  2  0  0  0  0
 27 29  1  0  0  0  0
 23 24  1  0  0  0  0
 23 25  1  0  0  0  0
 23 26  1  0  0  0  0
 20 21  1  0  0  0  0
 20 22  1  0  0  0  0
 20 23  1  0  0  0  0
 17 18  1  0  0  0  0
 17 19  1  0  0  0  0
 17 20  1  0  0  0  0
 14 15  1  0  0  0  0
 14 16  1  0  0  0  0
 14 17  1  0  0  0  0
 11 12  1  0  0  0  0
 11 13  1  0  0  0  0
 11 14  1  0  0  0  0
  9 10  1  0  0  0  0
  9 11  1  0  0  0  0
  9 27  1  0  0  0  0
  7  8  1  0  0  0  0
  7  9  1  0  0  0  0
 31 32  1  0  0  0  0
 31 33  1  0  0  0  0
 31 34  1  0  0  0  0
 29 30  1  0  0  0  0
 29 31  1  0  0  0  0
M  CHG  1  23   1
M  END
$$$$
default_name
  -OEChem-01062215323D

 34 33  0     1  0  0  0  0  0999 V2000
   -3.8899   -3.6747    1.6490 H   0  0  0  0  0  0  0  0  0  0  0  0
   -3.9109   -2.6717    1.2250 C   0  0  0  0  0  0  0  0  0  0  0  0
   -4.6009   -2.0517    1.7950 H   0  0  0  0  0  0  0  0  0  0  0  0
   -4.2309   -2.7237    0.1860 H   0  0  0  0  0  0  0  0  0  0  0  0
   -2.5229   -2.0787    1.2980 C   0  0  0  0  0  0  0  0  0  0  0  0
   -1.5999   -2.7227    1.7810 O   0  0  0  0  0  0  0  0  0  0  0  0
   -2.3659   -0.8447    0.8120 N   0  0  0  0  0  0  0  0  0  0  0  0
   -3.1749   -0.3807    0.4220 H   0  0  0  0  0  0  0  0  0  0  0  0
   -1.0919   -0.1077    0.8170 C   0  0  1  0  0  0  0  0  0  0  0  0
   -0.3571   -0.6901    0.2581 H   0  0  0  0  0  0  0  0  0  0  0  0
   -1.3037    1.2411    0.1040 C   0  0  0  0  0  0  0  0  0  0  0  0
   -2.1602    1.7429    0.5570 H   0  0  0  0  0  0  0  0  0  0  0  0
   -0.4231    1.8686    0.2545 H   0  0  0  0  0  0  0  0  0  0  0  0
   -1.5702    1.0958   -1.4021 C   0  0  0  0  0  0  0  0  0  0  0  0
   -0.7321    0.5829   -1.8757 H   0  0  0  0  0  0  0  0  0  0  0  0
   -2.4781    0.5082   -1.5514 H   0  0  0  0  0  0  0  0  0  0  0  0
   -1.7464    2.4764   -2.0494 C   0  0  0  0  0  0  0  0  0  0  0  0
   -2.5769    2.9934   -1.5628 H   0  0  0  0  0  0  0  0  0  0  0  0
   -0.8326    3.0564   -1.9053 H   0  0  0  0  0  0  0  0  0  0  0  0
   -2.0371    2.3319   -3.5485 C   0  0  0  0  0  0  0  0  0  0  0  0
   -1.1983    1.8056   -4.0155 H   0  0  0  0  0  0  0  0  0  0  0  0
   -2.9311    1.7131   -3.6711 H   0  0  0  0  0  0  0  0  0  0  0  0
   -2.2358    3.6533   -4.1958 N   0  3  0  0  0  0  0  0  0  0  0  0
   -1.4077    4.2268   -4.0947 H   0  0  0  0  0  0  0  0  0  0  0  0
   -2.4268    3.5406   -5.1836 H   0  0  0  0  0  0  0  0  0  0  0  0
   -3.0169    4.1410   -3.7728 H   0  0  0  0  0  0  0  0  0  0  0  0
   -0.5865    0.0771    2.2496 C   0  0  0  0  0  0  0  0  0  0  0  0
   -0.6520    1.1808    2.7779 O   0  0  0  0  0  0  0  0  0  0  0  0
   -0.0570   -0.9920    2.8532 N   0  0  0  0  0  0  0  0  0  0  0  0
   -0.0723   -1.8677    2.3571 H   0  0  0  0  0  0  0  0  0  0  0  0
    0.4681   -0.9855    4.2198 C   0  0  0  0  0  0  0  0  0  0  0  0
   -0.3332   -0.7441    4.9215 H   0  0  0  0  0  0  0  0  0  0  0  0
    0.8799   -1.9627    4.4744 H   0  0  0  0  0  0  0  0  0  0  0  0
    1.2497   -0.2288    4.3167 H   0  0  0  0  0  0  0  0  0  0  0  0
  5  6  2  0  0  0  0
  5  7  1  0  0  0  0
  2  3  1  0  0  0  0
  2  4  1  0  0  0  0
  2  5  1  0  0  0  0
  1  2  1  0  0  0  0
 27 28  2  0  0  0  0
 27 29  1  0  0  0  0
 23 24  1  0  0  0  0
 23 25  1  0  0  0  0
 23 26  1  0  0  0  0
 20 21  1  0  0  0  0
 20 22  1  0  0  0  0
 20 23  1  0  0  0  0
 17 18  1  0  0  0  0
 17 19  1  0  0  0  0
 17 20  1  0  0  0  0
 14 15  1  0  0  0  0
 14 16  1  0  0  0  0
 14 17  1  0  0  0  0
 11 12  1  0  0  0  0
 11 13  1  0  0  0  0
 11 14  1  0  0  0  0
  9 10  1  0  0  0  0
  9 11  1  0  0  0  0
  9 27  1  0  0  0  0
  7  8  1  0  0  0  0
  7  9  1  0  0  0  0
 31 32  1  0  0  0  0
 31 33  1  0  0  0  0
 31 34  1  0  0  0  0
 29 30  1  0  0  0  0
 29 31  1  0  0  0  0
M  CHG  1  23   1
M  END
$$$$
default_name
  -OEChem-01062215323D

 34 33  0     1  0  0  0  0  0999 V2000
   -3.8899   -3.6747    1.6490 H   0  0  0  0  0  0  0  0  0  0  0  0
   -3.9109   -2.6717    1.2250 C   0  0  0  0  0  0  0  0  0  0  0  0
   -4.6009   -2.0517    1.7950 H   0  0  0  0  0  0  0  0  0  0  0  0
   -4.2309   -2.7237    0.1860 H   0  0  0  0  0  0  0  0  0  0  0  0
   -2.5229   -2.0787    1.2980 C   0  0  0  0  0  0  0  0  0  0  0  0
   -1.5999   -2.7227    1.7810 O   0  0  0  0  0  0  0  0  0  0  0  0
   -2.3659   -0.8447    0.8120 N   0  0  0  0  0  0  0  0  0  0  0  0
   -3.1749   -0.3807    0.4220 H   0  0  0  0  0  0  0  0  0  0  0  0
   -1.0919   -0.1077    0.8170 C   0  0  1  0  0  0  0  0  0  0  0  0
   -0.3571   -0.6901    0.2581 H   0  0  0  0  0  0  0  0  0  0  0  0
   -1.3037    1.2411    0.1040 C   0  0  0  0  0  0  0  0  0  0  0  0
   -2.1602    1.7429    0.5570 H   0  0  0  0  0  0  0  0  0  0  0  0
   -0.4231    1.8686    0.2545 H   0  0  0  0  0  0  0  0  0  0  0  0
   -1.5702    1.0958   -1.4021 C   0  0  0  0  0  0  0  0  0  0  0  0
   -0.7321    0.5829   -1.8757 H   0  0  0  0  0  0  0  0  0  0  0  0
   -2.4781    0.5082   -1.5514 H   0  0  0  0  0  0  0  0  0  0  0  0
   -1.7464    2.4764   -2.0494 C   0  0  0  0  0  0  0  0  0  0  0  0
   -2.5769    2.9934   -1.5628 H   0  0  0  0  0  0  0  0  0  0  0  0
   -0.8326    3.0564   -1.9053 H   0  0  0  0  0  0  0  0  0  0  0  0
   -2.0371    2.3319   -3.5485 C   0  0  0  0  0  0  0  0  0  0  0  0
   -1.1983    1.8056   -4.0155 H   0  0  0  0  0  0  0  0  0  0  0  0
   -2.9311    1.7131   -3.6711 H   0  0  0  0  0  0  0  0  0  0  0  0
   -2.2358    3.6533   -4.1958 N   0  3  0  0  0  0  0  0  0  0  0  0
   -1.4077    4.2268   -4.0947 H   0  0  0  0  0  0  0  0  0  0  0  0
   -2.4268    3.5406   -5.1836 H   0  0  0  0  0  0  0  0  0  0  0  0
   -3.0169    4.1410   -3.7728 H   0  0  0  0  0  0  0  0  0  0  0  0
   -0.5865    0.0771    2.2496 C   0  0  0  0  0  0  0  0  0  0  0  0
   -0.8938    1.0847    2.8757 O   0  0  0  0  0  0  0  0  0  0  0  0
    0.2097   -0.8763    2.7442 N   0  0  0  0  0  0  0  0  0  0  0  0
    0.3851   -1.6858    2.1723 H   0  0  0  0  0  0  0  0  0  0  0  0
    0.7744   -0.8536    4.0948 C   0  0  0  0  0  0  0  0  0  0  0  0
   -0.0313   -0.8729    4.8317 H   0  0  0  0  0  0  0  0  0  0  0  0
    1.4198   -1.7185    4.2524 H   0  0  0  0  0  0  0  0  0  0  0  0
    1.3541    0.0602    4.2426 H   0  0  0  0  0  0  0  0  0  0  0  0
  5  6  2  0  0  0  0
  5  7  1  0  0  0  0
  2  3  1  0  0  0  0
  2  4  1  0  0  0  0
  2  5  1  0  0  0  0
  1  2  1  0  0  0  0
 27 28  2  0  0  0  0
 27 29  1  0  0  0  0
 23 24  1  0  0  0  0
 23 25  1  0  0  0  0
 23 26  1  0  0  0  0
 20 21  1  0  0  0  0
 20 22  1  0  0  0  0
 20 23  1  0  0  0  0
 17 18  1  0  0  0  0
 17 19  1  0  0  0  0
 17 20  1  0  0  0  0
 14 15  1  0  0  0  0
 14 16  1  0  0  0  0
 14 17  1  0  0  0  0
 11 12  1  0  0  0  0
 11 13  1  0  0  0  0
 11 14  1  0  0  0  0
  9 10  1  0  0  0  0
  9 11  1  0  0  0  0
  9 27  1  0  0  0  0
  7  8  1  0  0  0  0
  7  9  1  0  0  0  0
 31 32  1  0  0  0  0
 31 33  1  0  0  0  0
 31 34  1  0  0  0  0
 29 30  1  0  0  0  0
 29 31  1  0  0  0  0
M  CHG  1  23   1
M  END
$$$$
default_name
  -OEChem-01062215323D

 34 33  0     1  0  0  0  0  0999 V2000
   -3.8899   -3.6747    1.6490 H   0  0  0  0  0  0  0  0  0  0  0  0
   -3.9109   -2.6717    1.2250 C   0  0  0  0  0  0  0  0  0  0  0  0
   -4.6009   -2.0517    1.7950 H   0  0  0  0  0  0  0  0  0  0  0  0
   -4.2309   -2.7237    0.1860 H   0  0  0  0  0  0  0  0  0  0  0  0
   -2.5229   -2.0787    1.2980 C   0  0  0  0  0  0  0  0  0  0  0  0
   -1.5999   -2.7227    1.7810 O   0  0  0  0  0  0  0  0  0  0  0  0
   -2.3659   -0.8447    0.8120 N   0  0  0  0  0  0  0  0  0  0  0  0
   -3.1749   -0.3807    0.4220 H   0  0  0  0  0  0  0  0  0  0  0  0
   -1.0919   -0.1077    0.8170 C   0  0  1  0  0  0  0  0  0  0  0  0
   -0.3571   -0.6901    0.2581 H   0  0  0  0  0  0  0  0  0  0  0  0
   -1.3037    1.2411    0.1040 C   0  0  0  0  0  0  0  0  0  0  0  0
   -2.1602    1.7429    0.5570 H   0  0  0  0  0  0  0  0  0  0  0  0
   -0.4231    1.8686    0.2545 H   0  0  0  0  0  0  0  0  0  0  0  0
   -1.5702    1.0958   -1.4021 C   0  0  0  0  0  0  0  0  0  0  0  0
   -0.7321    0.5829   -1.8757 H   0  0  0  0  0  0  0  0  0  0  0  0
   -2.4781    0.5082   -1.5514 H   0  0  0  0  0  0  0  0  0  0  0  0
   -1.7464    2.4764   -2.0494 C   0  0  0  0  0  0  0  0  0  0  0  0
   -2.5769    2.9934   -1.5628 H   0  0  0  0  0  0  0  0  0  0  0  0
   -0.8326    3.0564   -1.9053 H   0  0  0  0  0  0  0  0  0  0  0  0
   -2.0371    2.3319   -3.5485 C   0  0  0  0  0  0  0  0  0  0  0  0
   -1.1983    1.8056   -4.0155 H   0  0  0  0  0  0  0  0  0  0  0  0
   -2.9311    1.7131   -3.6711 H   0  0  0  0  0  0  0  0  0  0  0  0
   -2.2358    3.6533   -4.1958 N   0  3  0  0  0  0  0  0  0  0  0  0
   -1.4077    4.2268   -4.0947 H   0  0  0  0  0  0  0  0  0  0  0  0
   -2.4268    3.5406   -5.1836 H   0  0  0  0  0  0  0  0  0  0  0  0
   -3.0169    4.1410   -3.7728 H   0  0  0  0  0  0  0  0  0  0  0  0
   -0.5865    0.0771    2.2496 C   0  0  0  0  0  0  0  0  0  0  0  0
   -1.1011    0.9249    2.9694 O   0  0  0  0  0  0  0  0  0  0  0  0
    0.4359   -0.6907    2.6404 N   0  0  0  0  0  0  0  0  0  0  0  0
    0.7771   -1.3836    1.9950 H   0  0  0  0  0  0  0  0  0  0  0  0
    1.0345   -0.6414    3.9756 C   0  0  0  0  0  0  0  0  0  0  0  0
    0.2886   -0.9165    4.7244 H   0  0  0  0  0  0  0  0  0  0  0  0
    1.8752   -1.3329    4.0420 H   0  0  0  0  0  0  0  0  0  0  0  0
    1.3825    0.3709    4.1925 H   0  0  0  0  0  0  0  0  0  0  0  0
  5  6  2  0  0  0  0
  5  7  1  0  0  0  0
  2  3  1  0  0  0  0
  2  4  1  0  0  0  0
  2  5  1  0  0  0  0
  1  2  1  0  0  0  0
 27 28  2  0  0  0  0
 27 29  1  0  0  0  0
 23 24  1  0  0  0  0
 23 25  1  0  0  0  0
 23 26  1  0  0  0  0
 20 21  1  0  0  0  0
 20 22  1  0  0  0  0
 20 23  1  0  0  0  0
 17 18  1  0  0  0  0
 17 19  1  0  0  0  0
 17 20  1  0  0  0  0
 14 15  1  0  0  0  0
 14 16  1  0  0  0  0
 14 17  1  0  0  0  0
 11 12  1  0  0  0  0
 11 13  1  0  0  0  0
 11 14  1  0  0  0  0
  9 10  1  0  0  0  0
  9 11  1  0  0  0  0
  9 27  1  0  0  0  0
  7  8  1  0  0  0  0
  7  9  1  0  0  0  0
 31 32  1  0  0  0  0
 31 33  1  0  0  0  0
 31 34  1  0  0  0  0
 29 30  1  0  0  0  0
 29 31  1  0  0  0  0
M  CHG  1  23   1
M  END
$$$$
default_name
  -OEChem-01062215323D

 34 33  0     1  0  0  0  0  0999 V2000
   -3.8899   -3.6747    1.6490 H   0  0  0  0  0  0  0  0  0  0  0  0
   -3.9109   -2.6717    1.2250 C   0  0  0  0  0  0  0  0  0  0  0  0
   -4.6009   -2.0517    1.7950 H   0  0  0  0  0  0  0  0  0  0  0  0
   -4.2309   -2.7237    0.1860 H   0  0  0  0  0  0  0  0  0  0  0  0
   -2.5229   -2.0787    1.2980 C   0  0  0  0  0  0  0  0  0  0  0  0
   -1.5999   -2.7227    1.7810 O   0  0  0  0  0  0  0  0  0  0  0  0
   -2.3659   -0.8447    0.8120 N   0  0  0  0  0  0  0  0  0  0  0  0
   -3.1749   -0.3807    0.4220 H   0  0  0  0  0  0  0  0  0  0  0  0
   -1.0919   -0.1077    0.8170 C   0  0  1  0  0  0  0  0  0  0  0  0
   -0.3571   -0.6901    0.2581 H   0  0  0  0  0  0  0  0  0  0  0  0
   -1.3037    1.2411    0.1040 C   0  0  0  0  0  0  0  0  0  0  0  0
   -2.1602    1.7429    0.5570 H   0  0  0  0  0  0  0  0  0  0  0  0
   -0.4231    1.8686    0.2545 H   0  0  0  0  0  0  0  0  0  0  0  0
   -1.5702    1.0958   -1.4021 C   0  0  0  0  0  0  0  0  0  0  0  0
   -0.7321    0.5829   -1.8757 H   0  0  0  0  0  0  0  0  0  0  0  0
   -2.4781    0.5082   -1.5514 H   0  0  0  0  0  0  0  0  0  0  0  0
   -1.7464    2.4764   -2.0494 C   0  0  0  0  0  0  0  0  0  0  0  0
   -2.5769    2.9934   -1.5628 H   0  0  0  0  0  0  0  0  0  0  0  0
   -0.8326    3.0564   -1.9053 H   0  0  0  0  0  0  0  0  0  0  0  0
   -2.0371    2.3319   -3.5485 C   0  0  0  0  0  0  0  0  0  0  0  0
   -1.1983    1.8056   -4.0155 H   0  0  0  0  0  0  0  0  0  0  0  0
   -2.9311    1.7131   -3.6711 H   0  0  0  0  0  0  0  0  0  0  0  0
   -2.2358    3.6533   -4.1958 N   0  3  0  0  0  0  0  0  0  0  0  0
   -1.4077    4.2268   -4.0947 H   0  0  0  0  0  0  0  0  0  0  0  0
   -2.4268    3.5406   -5.1836 H   0  0  0  0  0  0  0  0  0  0  0  0
   -3.0169    4.1410   -3.7728 H   0  0  0  0  0  0  0  0  0  0  0  0
   -0.5865    0.0771    2.2496 C   0  0  0  0  0  0  0  0  0  0  0  0
   -1.2596    0.7123    3.0528 O   0  0  0  0  0  0  0  0  0  0  0  0
    0.6062   -0.4477    2.5490 N   0  0  0  0  0  0  0  0  0  0  0  0
    1.0770   -0.9815    1.8373 H   0  0  0  0  0  0  0  0  0  0  0  0
    1.2305   -0.3632    3.8706 C   0  0  0  0  0  0  0  0  0  0  0  0
    0.6048   -0.8719    4.6071 H   0  0  0  0  0  0  0  0  0  0  0  0
    2.2151   -0.8321    3.8575 H   0  0  0  0  0  0  0  0  0  0  0  0
    1.3331    0.6822    4.1697 H   0  0  0  0  0  0  0  0  0  0  0  0
  5  6  2  0  0  0  0
  5  7  1  0  0  0  0
  2  3  1  0  0  0  0
  2  4  1  0  0  0  0
  2  5  1  0  0  0  0
  1  2  1  0  0  0  0
 27 28  2  0  0  0  0
 27 29  1  0  0  0  0
 23 24  1  0  0  0  0
 23 25  1  0  0  0  0
 23 26  1  0  0  0  0
 20 21  1  0  0  0  0
 20 22  1  0  0  0  0
 20 23  1  0  0  0  0
 17 18  1  0  0  0  0
 17 19  1  0  0  0  0
 17 20  1  0  0  0  0
 14 15  1  0  0  0  0
 14 16  1  0  0  0  0
 14 17  1  0  0  0  0
 11 12  1  0  0  0  0
 11 13  1  0  0  0  0
 11 14  1  0  0  0  0
  9 10  1  0  0  0  0
  9 11  1  0  0  0  0
  9 27  1  0  0  0  0
  7  8  1  0  0  0  0
  7  9  1  0  0  0  0
 31 32  1  0  0  0  0
 31 33  1  0  0  0  0
 31 34  1  0  0  0  0
 29 30  1  0  0  0  0
 29 31  1  0  0  0  0
M  CHG  1  23   1
M  END
$$$$
default_name
  -OEChem-01062215323D

 34 33  0     1  0  0  0  0  0999 V2000
   -3.8899   -3.6747    1.6490 H   0  0  0  0  0  0  0  0  0  0  0  0
   -3.9109   -2.6717    1.2250 C   0  0  0  0  0  0  0  0  0  0  0  0
   -4.6009   -2.0517    1.7950 H   0  0  0  0  0  0  0  0  0  0  0  0
   -4.2309   -2.7237    0.1860 H   0  0  0  0  0  0  0  0  0  0  0  0
   -2.5229   -2.0787    1.2980 C   0  0  0  0  0  0  0  0  0  0  0  0
   -1.5999   -2.7227    1.7810 O   0  0  0  0  0  0  0  0  0  0  0  0
   -2.3659   -0.8447    0.8120 N   0  0  0  0  0  0  0  0  0  0  0  0
   -3.1749   -0.3807    0.4220 H   0  0  0  0  0  0  0  0  0  0  0  0
   -1.0919   -0.1077    0.8170 C   0  0  1  0  0  0  0  0  0  0  0  0
   -0.3571   -0.6901    0.2581 H   0  0  0  0  0  0  0  0  0  0  0  0
   -1.3037    1.2411    0.1040 C   0  0  0  0  0  0  0  0  0  0  0  0
   -2.1602    1.7429    0.5570 H   0  0  0  0  0  0  0  0  0  0  0  0
   -0.4231    1.8686    0.2545 H   0  0  0  0  0  0  0  0  0  0  0  0
   -1.5702    1.0958   -1.4021 C   0  0  0  0  0  0  0  0  0  0  0  0
   -0.7321    0.5829   -1.8757 H   0  0  0  0  0  0  0  0  0  0  0  0
   -2.4781    0.5082   -1.5514 H   0  0  0  0  0  0  0  0  0  0  0  0
   -1.7464    2.4764   -2.0494 C   0  0  0  0  0  0  0  0  0  0  0  0
   -2.5769    2.9934   -1.5628 H   0  0  0  0  0  0  0  0  0  0  0  0
   -0.8326    3.0564   -1.9053 H   0  0  0  0  0  0  0  0  0  0  0  0
   -2.0371    2.3319   -3.5485 C   0  0  0  0  0  0  0  0  0  0  0  0
   -1.1983    1.8056   -4.0155 H   0  0  0  0  0  0  0  0  0  0  0  0
   -2.9311    1.7131   -3.6711 H   0  0  0  0  0  0  0  0  0  0  0  0
   -2.2358    3.6533   -4.1958 N   0  3  0  0  0  0  0  0  0  0  0  0
   -1.4077    4.2268   -4.0947 H   0  0  0  0  0  0  0  0  0  0  0  0
   -2.4268    3.5406   -5.1836 H   0  0  0  0  0  0  0  0  0  0  0  0
   -3.0169    4.1410   -3.7728 H   0  0  0  0  0  0  0  0  0  0  0  0
   -0.5865    0.0771    2.2496 C   0  0  0  0  0  0  0  0  0  0  0  0
   -1.3587    0.4614    3.1201 O   0  0  0  0  0  0  0  0  0  0  0  0
    0.7090   -0.1639    2.4761 N   0  0  0  0  0  0  0  0  0  0  0  0
    1.2643   -0.5070    1.7100 H   0  0  0  0  0  0  0  0  0  0  0  0
    1.3492   -0.0380    3.7868 C   0  0  0  0  0  0  0  0  0  0  0  0
    0.8958   -0.7422    4.4877 H   0  0  0  0  0  0  0  0  0  0  0  0
    2.4163   -0.2502    3.7115 H   0  0  0  0  0  0  0  0  0  0  0  0
    1.2093    0.9729    4.1759 H   0  0  0  0  0  0  0  0  0  0  0  0
  5  6  2  0  0  0  0
  5  7  1  0  0  0  0
  2  3  1  0  0  0  0
  2  4  1  0  0  0  0
  2  5  1  0  0  0  0
  1  2  1  0  0  0  0
 27 28  2  0  0  0  0
 27 29  1  0  0  0  0
 23 24  1  0  0  0  0
 23 25  1  0  0  0  0
 23 26  1  0  0  0  0
 20 21  1  0  0  0  0
 20 22  1  0  0  0  0
 20 23  1  0  0  0  0
 17 18  1  0  0  0  0
 17 19  1  0  0  0  0
 17 20  1  0  0  0  0
 14 15  1  0  0  0  0
 14 16  1  0  0  0  0
 14 17  1  0  0  0  0
 11 12  1  0  0  0  0
 11 13  1  0  0  0  0
 11 14  1  0  0  0  0
  9 10  1  0  0  0  0
  9 11  1  0  0  0  0
  9 27  1  0  0  0  0
  7  8  1  0  0  0  0
  7  9  1  0  0  0  0
 31 32  1  0  0  0  0
 31 33  1  0  0  0  0
 31 34  1  0  0  0  0
 29 30  1  0  0  0  0
 29 31  1  0  0  0  0
M  CHG  1  23   1
M  END
$$$$
default_name
  -OEChem-01062215323D

 34 33  0     1  0  0  0  0  0999 V2000
   -3.8899   -3.6747    1.6490 H   0  0  0  0  0  0  0  0  0  0  0  0
   -3.9109   -2.6717    1.2250 C   0  0  0  0  0  0  0  0  0  0  0  0
   -4.6009   -2.0517    1.7950 H   0  0  0  0  0  0  0  0  0  0  0  0
   -4.2309   -2.7237    0.1860 H   0  0  0  0  0  0  0  0  0  0  0  0
   -2.5229   -2.0787    1.2980 C   0  0  0  0  0  0  0  0  0  0  0  0
   -1.5999   -2.7227    1.7810 O   0  0  0  0  0  0  0  0  0  0  0  0
   -2.3659   -0.8447    0.8120 N   0  0  0  0  0  0  0  0  0  0  0  0
   -3.1749   -0.3807    0.4220 H   0  0  0  0  0  0  0  0  0  0  0  0
   -1.0919   -0.1077    0.8170 C   0  0  1  0  0  0  0  0  0  0  0  0
   -0.3571   -0.6901    0.2581 H   0  0  0  0  0  0  0  0  0  0  0  0
   -1.3037    1.2411    0.1040 C   0  0  0  0  0  0  0  0  0  0  0  0
   -2.1602    1.7429    0.5570 H   0  0  0  0  0  0  0  0  0  0  0  0
   -0.4231    1.8686    0.2545 H   0  0  0  0  0  0  0  0  0  0  0  0
   -1.5702    1.0958   -1.4021 C   0  0  0  0  0  0  0  0  0  0  0  0
   -0.7321    0.5829   -1.8757 H   0  0  0  0  0  0  0  0  0  0  0  0
   -2.4781    0.5082   -1.5514 H   0  0  0  0  0  0  0  0  0  0  0  0
   -1.7464    2.4764   -2.0494 C   0  0  0  0  0  0  0  0  0  0  0  0
   -2.5769    2.9934   -1.5628 H   0  0  0  0  0  0  0  0  0  0  0  0
   -0.8326    3.0564   -1.9053 H   0  0  0  0  0  0  0  0  0  0  0  0
   -2.0371    2.3319   -3.5485 C   0  0  0  0  0  0  0  0  0  0  0  0
   -1.1983    1.8056   -4.0155 H   0  0  0  0  0  0  0  0  0  0  0  0
   -2.9311    1.7131   -3.6711 H   0  0  0  0  0  0  0  0  0  0  0  0
   -2.2358    3.6533   -4.1958 N   0  3  0  0  0  0  0  0  0  0  0  0
   -1.4077    4.2268   -4.0947 H   0  0  0  0  0  0  0  0  0  0  0  0
   -2.4268    3.5406   -5.1836 H   0  0  0  0  0  0  0  0  0  0  0  0
   -3.0169    4.1410   -3.7728 H   0  0  0  0  0  0  0  0  0  0  0  0
   -0.5865    0.0771    2.2496 C   0  0  0  0  0  0  0  0  0  0  0  0
   -1.3914    0.1893    3.1667 O   0  0  0  0  0  0  0  0  0  0  0  0
    0.7372    0.1414    2.4268 N   0  0  0  0  0  0  0  0  0  0  0  0
    1.3263    0.0076    1.6218 H   0  0  0  0  0  0  0  0  0  0  0  0
    1.3824    0.3120    3.7299 C   0  0  0  0  0  0  0  0  0  0  0  0
    1.1418   -0.5362    4.3744 H   0  0  0  0  0  0  0  0  0  0  0  0
    2.4651    0.3731    3.6138 H   0  0  0  0  0  0  0  0  0  0  0  0
    1.0195    1.2231    4.2106 H   0  0  0  0  0  0  0  0  0  0  0  0
  5  6  2  0  0  0  0
  5  7  1  0  0  0  0
  2  3  1  0  0  0  0
  2  4  1  0  0  0  0
  2  5  1  0  0  0  0
  1  2  1  0  0  0  0
 27 28  2  0  0  0  0
 27 29  1  0  0  0  0
 23 24  1  0  0  0  0
 23 25  1  0  0  0  0
 23 26  1  0  0  0  0
 20 21  1  0  0  0  0
 20 22  1  0  0  0  0
 20 23  1  0  0  0  0
 17 18  1  0  0  0  0
 17 19  1  0  0  0  0
 17 20  1  0  0  0  0
 14 15  1  0  0  0  0
 14 16  1  0  0  0  0
 14 17  1  0  0  0  0
 11 12  1  0  0  0  0
 11 13  1  0  0  0  0
 11 14  1  0  0  0  0
  9 10  1  0  0  0  0
  9 11  1  0  0  0  0
  9 27  1  0  0  0  0
  7  8  1  0  0  0  0
  7  9  1  0  0  0  0
 31 32  1  0  0  0  0
 31 33  1  0  0  0  0
 31 34  1  0  0  0  0
 29 30  1  0  0  0  0
 29 31  1  0  0  0  0
M  CHG  1  23   1
M  END
$$$$
default_name
  -OEChem-01062215323D

 34 33  0     1  0  0  0  0  0999 V2000
   -3.8899   -3.6747    1.6490 H   0  0  0  0  0  0  0  0  0  0  0  0
   -3.9109   -2.6717    1.2250 C   0  0  0  0  0  0  0  0  0  0  0  0
   -4.6009   -2.0517    1.7950 H   0  0  0  0  0  0  0  0  0  0  0  0
   -4.2309   -2.7237    0.1860 H   0  0  0  0  0  0  0  0  0  0  0  0
   -2.5229   -2.0787    1.2980 C   0  0  0  0  0  0  0  0  0  0  0  0
   -1.5999   -2.7227    1.7810 O   0  0  0  0  0  0  0  0  0  0  0  0
   -2.3659   -0.8447    0.8120 N   0  0  0  0  0  0  0  0  0  0  0  0
   -3.1749   -0.3807    0.4220 H   0  0  0  0  0  0  0  0  0  0  0  0
   -1.0919   -0.1077    0.8170 C   0  0  1  0  0  0  0  0  0  0  0  0
   -0.3571   -0.6901    0.2581 H   0  0  0  0  0  0  0  0  0  0  0  0
   -1.3037    1.2411    0.1040 C   0  0  0  0  0  0  0  0  0  0  0  0
   -2.1602    1.7429    0.5570 H   0  0  0  0  0  0  0  0  0  0  0  0
   -0.4231    1.8686    0.2545 H   0  0  0  0  0  0  0  0  0  0  0  0
   -1.5702    1.0958   -1.4021 C   0  0  0  0  0  0  0  0  0  0  0  0
   -0.7321    0.5829   -1.8757 H   0  0  0  0  0  0  0  0  0  0  0  0
   -2.4781    0.5082   -1.5514 H   0  0  0  0  0  0  0  0  0  0  0  0
   -1.7464    2.4764   -2.0494 C   0  0  0  0  0  0  0  0  0  0  0  0
   -2.5769    2.9934   -1.5628 H   0  0  0  0  0  0  0  0  0  0  0  0
   -0.8326    3.0564   -1.9053 H   0  0  0  0  0  0  0  0  0  0  0  0
   -2.0371    2.3319   -3.5485 C   0  0  0  0  0  0  0  0  0  0  0  0
   -1.1983    1.8056   -4.0155 H   0  0  0  0  0  0  0  0  0  0  0  0
   -2.9311    1.7131   -3.6711 H   0  0  0  0  0  0  0  0  0  0  0  0
   -2.2358    3.6533   -4.1958 N   0  3  0  0  0  0  0  0  0  0  0  0
   -1.4077    4.2268   -4.0947 H   0  0  0  0  0  0  0  0  0  0  0  0
   -2.4268    3.5406   -5.1836 H   0  0  0  0  0  0  0  0  0  0  0  0
   -3.0169    4.1410   -3.7728 H   0  0  0  0  0  0  0  0  0  0  0  0
   -0.5865    0.0771    2.2496 C   0  0  0  0  0  0  0  0  0  0  0  0
   -1.3557   -0.0854    3.1896 O   0  0  0  0  0  0  0  0  0  0  0  0
    0.6889    0.4473    2.4044 N   0  0  0  0  0  0  0  0  0  0  0  0
    1.2588    0.5273    1.5786 H   0  0  0  0  0  0  0  0  0  0  0  0
    1.3279    0.6630    3.7039 C   0  0  0  0  0  0  0  0  0  0  0  0
    1.3259   -0.2679    4.2748 H   0  0  0  0  0  0  0  0  0  0  0  0
    2.3581    0.9953    3.5713 H   0  0  0  0  0  0  0  0  0  0  0  0
    0.7766    1.4159    4.2714 H   0  0  0  0  0  0  0  0  0  0  0  0
  5  6  2  0  0  0  0
  5  7  1  0  0  0  0
  2  3  1  0  0  0  0
  2  4  1  0  0  0  0
  2  5  1  0  0  0  0
  1  2  1  0  0  0  0
 27 28  2  0  0  0  0
 27 29  1  0  0  0  0
 23 24  1  0  0  0  0
 23 25  1  0  0  0  0
 23 26  1  0  0  0  0
 20 21  1  0  0  0  0
 20 22  1  0  0  0  0
 20 23  1  0  0  0  0
 17 18  1  0  0  0  0
 17 19  1  0  0  0  0
 17 20  1  0  0  0  0
 14 15  1  0  0  0  0
 14 16  1  0  0  0  0
 14 17  1  0  0  0  0
 11 12  1  0  0  0  0
 11 13  1  0  0  0  0
 11 14  1  0  0  0  0
  9 10  1  0  0  0  0
  9 11  1  0  0  0  0
  9 27  1  0  0  0  0
  7  8  1  0  0  0  0
  7  9  1  0  0  0  0
 31 32  1  0  0  0  0
 31 33  1  0  0  0  0
 31 34  1  0  0  0  0
 29 30  1  0  0  0  0
 29 31  1  0  0  0  0
M  CHG  1  23   1
M  END
$$$$
default_name
  -OEChem-01062215323D

 34 33  0     1  0  0  0  0  0999 V2000
   -3.8899   -3.6747    1.6490 H   0  0  0  0  0  0  0  0  0  0  0  0
   -3.9109   -2.6717    1.2250 C   0  0  0  0  0  0  0  0  0  0  0  0
   -4.6009   -2.0517    1.7950 H   0  0  0  0  0  0  0  0  0  0  0  0
   -4.2309   -2.7237    0.1860 H   0  0  0  0  0  0  0  0  0  0  0  0
   -2.5229   -2.0787    1.2980 C   0  0  0  0  0  0  0  0  0  0  0  0
   -1.5999   -2.7227    1.7810 O   0  0  0  0  0  0  0  0  0  0  0  0
   -2.3659   -0.8447    0.8120 N   0  0  0  0  0  0  0  0  0  0  0  0
   -3.1749   -0.3807    0.4220 H   0  0  0  0  0  0  0  0  0  0  0  0
   -1.0919   -0.1077    0.8170 C   0  0  1  0  0  0  0  0  0  0  0  0
   -0.4440   -0.5386    0.0514 H   0  0  0  0  0  0  0  0  0  0  0  0
   -1.3757    1.3630    0.4580 C   0  0  0  0  0  0  0  0  0  0  0  0
   -2.1591    1.7372    1.1189 H   0  0  0  0  0  0  0  0  0  0  0  0
   -0.4743    1.9546    0.6299 H   0  0  0  0  0  0  0  0  0  0  0  0
   -1.8372    1.5546   -0.9949 C   0  0  0  0  0  0  0  0  0  0  0  0
   -1.0748    1.1740   -1.6758 H   0  0  0  0  0  0  0  0  0  0  0  0
   -2.7649    1.0012   -1.1532 H   0  0  0  0  0  0  0  0  0  0  0  0
   -2.0767    3.0421   -1.2879 C   0  0  0  0  0  0  0  0  0  0  0  0
   -2.8298    3.4240   -0.5945 H   0  0  0  0  0  0  0  0  0  0  0  0
   -1.1440    3.5894   -1.1371 H   0  0  0  0  0  0  0  0  0  0  0  0
   -2.5614    3.2326   -2.7306 C   0  0  0  0  0  0  0  0  0  0  0  0
   -1.7976    2.8374   -3.4083 H   0  0  0  0  0  0  0  0  0  0  0  0
   -3.4722    2.6431   -2.8720 H   0  0  0  0  0  0  0  0  0  0  0  0
   -2.8239    4.6621   -3.0341 N   0  3  0  0  0  0  0  0  0  0  0  0
   -1.9818    5.2112   -2.9151 H   0  0  0  0  0  0  0  0  0  0  0  0
   -3.1430    4.7706   -3.9887 H   0  0  0  0  0  0  0  0  0  0  0  0
   -3.5367    5.0304   -2.4151 H   0  0  0  0  0  0  0  0  0  0  0  0
   -0.4025   -0.2406    2.1768 C   0  0  0  0  0  0  0  0  0  0  0  0
   -0.9484   -0.8714    3.0743 O   0  0  0  0  0  0  0  0  0  0  0  0
    0.7716    0.3806    2.3296 N   0  0  0  0  0  0  0  0  0  0  0  0
    1.1628    0.8500    1.5297 H   0  0  0  0  0  0  0  0  0  0  0  0
    1.5604    0.3507    3.5626 C   0  0  0  0  0  0  0  0  0  0  0  0
    1.8543   -0.6768    3.7875 H   0  0  0  0  0  0  0  0  0  0  0  0
    2.4580    0.9608    3.4555 H   0  0  0  0  0  0  0  0  0  0  0  0
    0.9652    0.7286    4.3967 H   0  0  0  0  0  0  0  0  0  0  0  0
  5  6  2  0  0  0  0
  5  7  1  0  0  0  0
  2  3  1  0  0  0  0
  2  4  1  0  0  0  0
  2  5  1  0  0  0  0
  1  2  1  0  0  0  0
 27 28  2  0  0  0  0
 27 29  1  0  0  0  0
 23 24  1  0  0  0  0
 23 25  1  0  0  0  0
 23 26  1  0  0  0  0
 20 21  1  0  0  0  0
 20 22  1  0  0  0  0
 20 23  1  0  0  0  0
 17 18  1  0  0  0  0
 17 19  1  0  0  0  0
 17 20  1  0  0  0  0
 14 15  1  0  0  0  0
 14 16  1  0  0  0  0
 14 17  1  0  0  0  0
 11 12  1  0  0  0  0
 11 13  1  0  0  0  0
 11 14  1  0  0  0  0
  9 10  1  0  0  0  0
  9 11  1  0  0  0  0
  9 27  1  0  0  0  0
  7  8  1  0  0  0  0
  7  9  1  0  0  0  0
 31 32  1  0  0  0  0
 31 33  1  0  0  0  0
 31 34  1  0  0  0  0
 29 30  1  0  0  0  0
 29 31  1  0  0  0  0
M  CHG  1  23   1
M  END
$$$$
default_name
  -OEChem-01062215323D

 34 33  0     1  0  0  0  0  0999 V2000
   -3.8899   -3.6747    1.6490 H   0  0  0  0  0  0  0  0  0  0  0  0
   -3.9109   -2.6717    1.2250 C   0  0  0  0  0  0  0  0  0  0  0  0
   -4.6009   -2.0517    1.7950 H   0  0  0  0  0  0  0  0  0  0  0  0
   -4.2309   -2.7237    0.1860 H   0  0  0  0  0  0  0  0  0  0  0  0
   -2.5229   -2.0787    1.2980 C   0  0  0  0  0  0  0  0  0  0  0  0
   -1.5999   -2.7227    1.7810 O   0  0  0  0  0  0  0  0  0  0  0  0
   -2.3659   -0.8447    0.8120 N   0  0  0  0  0  0  0  0  0  0  0  0
   -3.1749   -0.3807    0.4220 H   0  0  0  0  0  0  0  0  0  0  0  0
   -1.0919   -0.1077    0.8170 C   0  0  1  0  0  0  0  0  0  0  0  0
   -0.4440   -0.5386    0.0514 H   0  0  0  0  0  0  0  0  0  0  0  0
   -1.3757    1.3630    0.4580 C   0  0  0  0  0  0  0  0  0  0  0  0
   -2.1591    1.7372    1.1189 H   0  0  0  0  0  0  0  0  0  0  0  0
   -0.4743    1.9546    0.6299 H   0  0  0  0  0  0  0  0  0  0  0  0
   -1.8372    1.5546   -0.9949 C   0  0  0  0  0  0  0  0  0  0  0  0
   -1.0748    1.1740   -1.6758 H   0  0  0  0  0  0  0  0  0  0  0  0
   -2.7649    1.0012   -1.1532 H   0  0  0  0  0  0  0  0  0  0  0  0
   -2.0767    3.0421   -1.2879 C   0  0  0  0  0  0  0  0  0  0  0  0
   -2.8298    3.4240   -0.5945 H   0  0  0  0  0  0  0  0  0  0  0  0
   -1.1440    3.5894   -1.1371 H   0  0  0  0  0  0  0  0  0  0  0  0
   -2.5614    3.2326   -2.7306 C   0  0  0  0  0  0  0  0  0  0  0  0
   -1.7976    2.8374   -3.4083 H   0  0  0  0  0  0  0  0  0  0  0  0
   -3.4722    2.6431   -2.8720 H   0  0  0  0  0  0  0  0  0  0  0  0
   -2.8239    4.6621   -3.0341 N   0  3  0  0  0  0  0  0  0  0  0  0
   -1.9818    5.2112   -2.9151 H   0  0  0  0  0  0  0  0  0  0  0  0
   -3.1430    4.7706   -3.9887 H   0  0  0  0  0  0  0  0  0  0  0  0
   -3.5367    5.0304   -2.4151 H   0  0  0  0  0  0  0  0  0  0  0  0
   -0.4025   -0.2406    2.1768 C   0  0  0  0  0  0  0  0  0  0  0  0
   -0.7956   -1.0819    2.9762 O   0  0  0  0  0  0  0  0  0  0  0  0
    0.5947    0.6098    2.4417 N   0  0  0  0  0  0  0  0  0  0  0  0
    0.8738    1.2481    1.7151 H   0  0  0  0  0  0  0  0  0  0  0  0
    1.3581    0.6142    3.6909 C   0  0  0  0  0  0  0  0  0  0  0  0
    1.8797   -0.3381    3.8077 H   0  0  0  0  0  0  0  0  0  0  0  0
    2.0912    1.4217    3.6866 H   0  0  0  0  0  0  0  0  0  0  0  0
    0.6843    0.7438    4.5407 H   0  0  0  0  0  0  0  0  0  0  0  0
  5  6  2  0  0  0  0
  5  7  1  0  0  0  0
  2  3  1  0  0  0  0
  2  4  1  0  0  0  0
  2  5  1  0  0  0  0
  1  2  1  0  0  0  0
 27 28  2  0  0  0  0
 27 29  1  0  0  0  0
 23 24  1  0  0  0  0
 23 25  1  0  0  0  0
 23 26  1  0  0  0  0
 20 21  1  0  0  0  0
 20 22  1  0  0  0  0
 20 23  1  0  0  0  0
 17 18  1  0  0  0  0
 17 19  1  0  0  0  0
 17 20  1  0  0  0  0
 14 15  1  0  0  0  0
 14 16  1  0  0  0  0
 14 17  1  0  0  0  0
 11 12  1  0  0  0  0
 11 13  1  0  0  0  0
 11 14  1  0  0  0  0
  9 10  1  0  0  0  0
  9 11  1  0  0  0  0
  9 27  1  0  0  0  0
  7  8  1  0  0  0  0
  7  9  1  0  0  0  0
 31 32  1  0  0  0  0
 31 33  1  0  0  0  0
 31 34  1  0  0  0  0
 29 30  1  0  0  0  0
 29 31  1  0  0  0  0
M  CHG  1  23   1
M  END
$$$$
default_name
  -OEChem-01062215323D

 34 33  0     1  0  0  0  0  0999 V2000
   -3.8899   -3.6747    1.6490 H   0  0  0  0  0  0  0  0  0  0  0  0
   -3.9109   -2.6717    1.2250 C   0  0  0  0  0  0  0  0  0  0  0  0
   -4.6009   -2.0517    1.7950 H   0  0  0  0  0  0  0  0  0  0  0  0
   -4.2309   -2.7237    0.1860 H   0  0  0  0  0  0  0  0  0  0  0  0
   -2.5229   -2.0787    1.2980 C   0  0  0  0  0  0  0  0  0  0  0  0
   -1.5999   -2.7227    1.7810 O   0  0  0  0  0  0  0  0  0  0  0  0
   -2.3659   -0.8447    0.8120 N   0  0  0  0  0  0  0  0  0  0  0  0
   -3.1749   -0.3807    0.4220 H   0  0  0  0  0  0  0  0  0  0  0  0
   -1.0919   -0.1077    0.8170 C   0  0  1  0  0  0  0  0  0  0  0  0
   -0.4440   -0.5386    0.0514 H   0  0  0  0  0  0  0  0  0  0  0  0
   -1.3757    1.3630    0.4580 C   0  0  0  0  0  0  0  0  0  0  0  0
   -2.1591    1.7372    1.1189 H   0  0  0  0  0  0  0  0  0  0  0  0
   -0.4743    1.9546    0.6299 H   0  0  0  0  0  0  0  0  0  0  0  0
   -1.8372    1.5546   -0.9949 C   0  0  0  0  0  0  0  0  0  0  0  0
   -1.0748    1.1740   -1.6758 H   0  0  0  0  0  0  0  0  0  0  0  0
   -2.7649    1.0012   -1.1532 H   0  0  0  0  0  0  0  0  0  0  0  0
   -2.0767    3.0421   -1.2879 C   0  0  0  0  0  0  0  0  0  0  0  0
   -2.8298    3.4240   -0.5945 H   0  0  0  0  0  0  0  0  0  0  0  0
   -1.1440    3.5894   -1.1371 H   0  0  0  0  0  0  0  0  0  0  0  0
   -2.5614    3.2326   -2.7306 C   0  0  0  0  0  0  0  0  0  0  0  0
   -1.7976    2.8374   -3.4083 H   0  0  0  0  0  0  0  0  0  0  0  0
   -3.4722    2.6431   -2.8720 H   0  0  0  0  0  0  0  0  0  0  0  0
   -2.8239    4.6621   -3.0341 N   0  3  0  0  0  0  0  0  0  0  0  0
   -1.9818    5.2112   -2.9151 H   0  0  0  0  0  0  0  0  0  0  0  0
   -3.1430    4.7706   -3.9887 H   0  0  0  0  0  0  0  0  0  0  0  0
   -3.5367    5.0304   -2.4151 H   0  0  0  0  0  0  0  0  0  0  0  0
   -0.4025   -0.2406    2.1768 C   0  0  0  0  0  0  0  0  0  0  0  0
   -0.5974   -1.2387    2.8604 O   0  0  0  0  0  0  0  0  0  0  0  0
    0.3686    0.7774    2.5727 N   0  0  0  0  0  0  0  0  0  0  0  0
    0.4989    1.5446    1.9342 H   0  0  0  0  0  0  0  0  0  0  0  0
    1.0992    0.8073    3.8411 C   0  0  0  0  0  0  0  0  0  0  0  0
    1.8259   -0.0075    3.8673 H   0  0  0  0  0  0  0  0  0  0  0  0
    1.6256    1.7556    3.9553 H   0  0  0  0  0  0  0  0  0  0  0  0
    0.4062    0.6772    4.6751 H   0  0  0  0  0  0  0  0  0  0  0  0
  5  6  2  0  0  0  0
  5  7  1  0  0  0  0
  2  3  1  0  0  0  0
  2  4  1  0  0  0  0
  2  5  1  0  0  0  0
  1  2  1  0  0  0  0
 27 28  2  0  0  0  0
 27 29  1  0  0  0  0
 23 24  1  0  0  0  0
 23 25  1  0  0  0  0
 23 26  1  0  0  0  0
 20 21  1  0  0  0  0
 20 22  1  0  0  0  0
 20 23  1  0  0  0  0
 17 18  1  0  0  0  0
 17 19  1  0  0  0  0
 17 20  1  0  0  0  0
 14 15  1  0  0  0  0
 14 16  1  0  0  0  0
 14 17  1  0  0  0  0
 11 12  1  0  0  0  0
 11 13  1  0  0  0  0
 11 14  1  0  0  0  0
  9 10  1  0  0  0  0
  9 11  1  0  0  0  0
  9 27  1  0  0  0  0
  7  8  1  0  0  0  0
  7  9  1  0  0  0  0
 31 32  1  0  0  0  0
 31 33  1  0  0  0  0
 31 34  1  0  0  0  0
 29 30  1  0  0  0  0
 29 31  1  0  0  0  0
M  CHG  1  23   1
M  END
$$$$
default_name
  -OEChem-01062215323D

 34 33  0     1  0  0  0  0  0999 V2000
   -3.8899   -3.6747    1.6490 H   0  0  0  0  0  0  0  0  0  0  0  0
   -3.9109   -2.6717    1.2250 C   0  0  0  0  0  0  0  0  0  0  0  0
   -4.6009   -2.0517    1.7950 H   0  0  0  0  0  0  0  0  0  0  0  0
   -4.2309   -2.7237    0.1860 H   0  0  0  0  0  0  0  0  0  0  0  0
   -2.5229   -2.0787    1.2980 C   0  0  0  0  0  0  0  0  0  0  0  0
   -1.5999   -2.7227    1.7810 O   0  0  0  0  0  0  0  0  0  0  0  0
   -2.3659   -0.8447    0.8120 N   0  0  0  0  0  0  0  0  0  0  0  0
   -3.1749   -0.3807    0.4220 H   0  0  0  0  0  0  0  0  0  0  0  0
   -1.0919   -0.1077    0.8170 C   0  0  1  0  0  0  0  0  0  0  0  0
   -0.4440   -0.5386    0.0514 H   0  0  0  0  0  0  0  0  0  0  0  0
   -1.3757    1.3630    0.4580 C   0  0  0  0  0  0  0  0  0  0  0  0
   -2.1591    1.7372    1.1189 H   0  0  0  0  0  0  0  0  0  0  0  0
   -0.4743    1.9546    0.6299 H   0  0  0  0  0  0  0  0  0  0  0  0
   -1.8372    1.5546   -0.9949 C   0  0  0  0  0  0  0  0  0  0  0  0
   -1.0748    1.1740   -1.6758 H   0  0  0  0  0  0  0  0  0  0  0  0
   -2.7649    1.0012   -1.1532 H   0  0  0  0  0  0  0  0  0  0  0  0
   -2.0767    3.0421   -1.2879 C   0  0  0  0  0  0  0  0  0  0  0  0
   -2.8298    3.4240   -0.5945 H   0  0  0  0  0  0  0  0  0  0  0  0
   -1.1440    3.5894   -1.1371 H   0  0  0  0  0  0  0  0  0  0  0  0
   -2.5614    3.2326   -2.7306 C   0  0  0  0  0  0  0  0  0  0  0  0
   -1.7976    2.8374   -3.4083 H   0  0  0  0  0  0  0  0  0  0  0  0
   -3.4722    2.6431   -2.8720 H   0  0  0  0  0  0  0  0  0  0  0  0
   -2.8239    4.6621   -3.0341 N   0  3  0  0  0  0  0  0  0  0  0  0
   -1.9818    5.2112   -2.9151 H   0  0  0  0  0  0  0  0  0  0  0  0
   -3.1430    4.7706   -3.9887 H   0  0  0  0  0  0  0  0  0  0  0  0
   -3.5367    5.0304   -2.4151 H   0  0  0  0  0  0  0  0  0  0  0  0
   -0.4025   -0.2406    2.1768 C   0  0  0  0  0  0  0  0  0  0  0  0
   -0.3673   -1.3310    2.7347 O   0  0  0  0  0  0  0  0  0  0  0  0
    0.1087    0.8721    2.7137 N   0  0  0  0  0  0  0  0  0  0  0  0
    0.0636    1.7192    2.1720 H   0  0  0  0  0  0  0  0  0  0  0  0
    0.8014    0.9168    4.0028 C   0  0  0  0  0  0  0  0  0  0  0  0
    1.6965    0.2925    3.9622 H   0  0  0  0  0  0  0  0  0  0  0  0
    1.0931    1.9397    4.2432 H   0  0  0  0  0  0  0  0  0  0  0  0
    0.1499    0.5331    4.7910 H   0  0  0  0  0  0  0  0  0  0  0  0
  5  6  2  0  0  0  0
  5  7  1  0  0  0  0
  2  3  1  0  0  0  0
  2  4  1  0  0  0  0
  2  5  1  0  0  0  0
  1  2  1  0  0  0  0
 27 28  2  0  0  0  0
 27 29  1  0  0  0  0
 23 24  1  0  0  0  0
 23 25  1  0  0  0  0
 23 26  1  0  0  0  0
 20 21  1  0  0  0  0
 20 22  1  0  0  0  0
 20 23  1  0  0  0  0
 17 18  1  0  0  0  0
 17 19  1  0  0  0  0
 17 20  1  0  0  0  0
 14 15  1  0  0  0  0
 14 16  1  0  0  0  0
 14 17  1  0  0  0  0
 11 12  1  0  0  0  0
 11 13  1  0  0  0  0
 11 14  1  0  0  0  0
  9 10  1  0  0  0  0
  9 11  1  0  0  0  0
  9 27  1  0  0  0  0
  7  8  1  0  0  0  0
  7  9  1  0  0  0  0
 31 32  1  0  0  0  0
 31 33  1  0  0  0  0
 31 34  1  0  0  0  0
 29 30  1  0  0  0  0
 29 31  1  0  0  0  0
M  CHG  1  23   1
M  END
$$$$
default_name
  -OEChem-01062215323D

 34 33  0     1  0  0  0  0  0999 V2000
   -3.8899   -3.6747    1.6490 H   0  0  0  0  0  0  0  0  0  0  0  0
   -3.9109   -2.6717    1.2250 C   0  0  0  0  0  0  0  0  0  0  0  0
   -4.6009   -2.0517    1.7950 H   0  0  0  0  0  0  0  0  0  0  0  0
   -4.2309   -2.7237    0.1860 H   0  0  0  0  0  0  0  0  0  0  0  0
   -2.5229   -2.0787    1.2980 C   0  0  0  0  0  0  0  0  0  0  0  0
   -1.5999   -2.7227    1.7810 O   0  0  0  0  0  0  0  0  0  0  0  0
   -2.3659   -0.8447    0.8120 N   0  0  0  0  0  0  0  0  0  0  0  0
   -3.1749   -0.3807    0.4220 H   0  0  0  0  0  0  0  0  0  0  0  0
   -1.0919   -0.1077    0.8170 C   0  0  1  0  0  0  0  0  0  0  0  0
   -0.4440   -0.5386    0.0514 H   0  0  0  0  0  0  0  0  0  0  0  0
   -1.3757    1.3630    0.4580 C   0  0  0  0  0  0  0  0  0  0  0  0
   -2.1591    1.7372    1.1189 H   0  0  0  0  0  0  0  0  0  0  0  0
   -0.4743    1.9546    0.6299 H   0  0  0  0  0  0  0  0  0  0  0  0
   -1.8372    1.5546   -0.9949 C   0  0  0  0  0  0  0  0  0  0  0  0
   -1.0748    1.1740   -1.6758 H   0  0  0  0  0  0  0  0  0  0  0  0
   -2.7649    1.0012   -1.1532 H   0  0  0  0  0  0  0  0  0  0  0  0
   -2.0767    3.0421   -1.2879 C   0  0  0  0  0  0  0  0  0  0  0  0
   -2.8298    3.4240   -0.5945 H   0  0  0  0  0  0  0  0  0  0  0  0
   -1.1440    3.5894   -1.1371 H   0  0  0  0  0  0  0  0  0  0  0  0
   -2.5614    3.2326   -2.7306 C   0  0  0  0  0  0  0  0  0  0  0  0
   -1.7976    2.8374   -3.4083 H   0  0  0  0  0  0  0  0  0  0  0  0
   -3.4722    2.6431   -2.8720 H   0  0  0  0  0  0  0  0  0  0  0  0
   -2.8239    4.6621   -3.0341 N   0  3  0  0  0  0  0  0  0  0  0  0
   -1.9818    5.2112   -2.9151 H   0  0  0  0  0  0  0  0  0  0  0  0
   -3.1430    4.7706   -3.9887 H   0  0  0  0  0  0  0  0  0  0  0  0
   -3.5367    5.0304   -2.4151 H   0  0  0  0  0  0  0  0  0  0  0  0
   -0.4025   -0.2406    2.1768 C   0  0  0  0  0  0  0  0  0  0  0  0
   -0.1209   -1.3526    2.6077 O   0  0  0  0  0  0  0  0  0  0  0  0
   -0.1673    0.8873    2.8551 N   0  0  0  0  0  0  0  0  0  0  0  0
   -0.4023    1.7601    2.4122 H   0  0  0  0  0  0  0  0  0  0  0  0
    0.4848    0.9352    4.1651 C   0  0  0  0  0  0  0  0  0  0  0  0
    1.5005    0.5415    4.0859 H   0  0  0  0  0  0  0  0  0  0  0  0
    0.5300    1.9616    4.5309 H   0  0  0  0  0  0  0  0  0  0  0  0
   -0.0671    0.3215    4.8804 H   0  0  0  0  0  0  0  0  0  0  0  0
  5  6  2  0  0  0  0
  5  7  1  0  0  0  0
  2  3  1  0  0  0  0
  2  4  1  0  0  0  0
  2  5  1  0  0  0  0
  1  2  1  0  0  0  0
 27 28  2  0  0  0  0
 27 29  1  0  0  0  0
 23 24  1  0  0  0  0
 23 25  1  0  0  0  0
 23 26  1  0  0  0  0
 20 21  1  0  0  0  0
 20 22  1  0  0  0  0
 20 23  1  0  0  0  0
 17 18  1  0  0  0  0
 17 19  1  0  0  0  0
 17 20  1  0  0  0  0
 14 15  1  0  0  0  0
 14 16  1  0  0  0  0
 14 17  1  0  0  0  0
 11 12  1  0  0  0  0
 11 13  1  0  0  0  0
 11 14  1  0  0  0  0
  9 10  1  0  0  0  0
  9 11  1  0  0  0  0
  9 27  1  0  0  0  0
  7  8  1  0  0  0  0
  7  9  1  0  0  0  0
 31 32  1  0  0  0  0
 31 33  1  0  0  0  0
 31 34  1  0  0  0  0
 29 30  1  0  0  0  0
 29 31  1  0  0  0  0
M  CHG  1  23   1
M  END
$$$$
default_name
  -OEChem-01062215323D

 34 33  0     1  0  0  0  0  0999 V2000
   -3.8899   -3.6747    1.6490 H   0  0  0  0  0  0  0  0  0  0  0  0
   -3.9109   -2.6717    1.2250 C   0  0  0  0  0  0  0  0  0  0  0  0
   -4.6009   -2.0517    1.7950 H   0  0  0  0  0  0  0  0  0  0  0  0
   -4.2309   -2.7237    0.1860 H   0  0  0  0  0  0  0  0  0  0  0  0
   -2.5229   -2.0787    1.2980 C   0  0  0  0  0  0  0  0  0  0  0  0
   -1.5999   -2.7227    1.7810 O   0  0  0  0  0  0  0  0  0  0  0  0
   -2.3659   -0.8447    0.8120 N   0  0  0  0  0  0  0  0  0  0  0  0
   -3.1749   -0.3807    0.4220 H   0  0  0  0  0  0  0  0  0  0  0  0
   -1.0919   -0.1077    0.8170 C   0  0  1  0  0  0  0  0  0  0  0  0
   -0.4440   -0.5386    0.0514 H   0  0  0  0  0  0  0  0  0  0  0  0
   -1.3757    1.3630    0.4580 C   0  0  0  0  0  0  0  0  0  0  0  0
   -2.1591    1.7372    1.1189 H   0  0  0  0  0  0  0  0  0  0  0  0
   -0.4743    1.9546    0.6299 H   0  0  0  0  0  0  0  0  0  0  0  0
   -1.8372    1.5546   -0.9949 C   0  0  0  0  0  0  0  0  0  0  0  0
   -1.0748    1.1740   -1.6758 H   0  0  0  0  0  0  0  0  0  0  0  0
   -2.7649    1.0012   -1.1532 H   0  0  0  0  0  0  0  0  0  0  0  0
   -2.0767    3.0421   -1.2879 C   0  0  0  0  0  0  0  0  0  0  0  0
   -2.8298    3.4240   -0.5945 H   0  0  0  0  0  0  0  0  0  0  0  0
   -1.1440    3.5894   -1.1371 H   0  0  0  0  0  0  0  0  0  0  0  0
   -2.5614    3.2326   -2.7306 C   0  0  0  0  0  0  0  0  0  0  0  0
   -1.7976    2.8374   -3.4083 H   0  0  0  0  0  0  0  0  0  0  0  0
   -3.4722    2.6431   -2.8720 H   0  0  0  0  0  0  0  0  0  0  0  0
   -2.8239    4.6621   -3.0341 N   0  3  0  0  0  0  0  0  0  0  0  0
   -1.9818    5.2112   -2.9151 H   0  0  0  0  0  0  0  0  0  0  0  0
   -3.1430    4.7706   -3.9887 H   0  0  0  0  0  0  0  0  0  0  0  0
   -3.5367    5.0304   -2.4151 H   0  0  0  0  0  0  0  0  0  0  0  0
   -0.4025   -0.2406    2.1768 C   0  0  0  0  0  0  0  0  0  0  0  0
    0.1248   -1.3020    2.4880 O   0  0  0  0  0  0  0  0  0  0  0  0
   -0.4405    0.8221    2.9873 N   0  0  0  0  0  0  0  0  0  0  0  0
   -0.8671    1.6644    2.6386 H   0  0  0  0  0  0  0  0  0  0  0  0
    0.1712    0.8612    4.3169 C   0  0  0  0  0  0  0  0  0  0  0  0
    1.2510    0.7225    4.2301 H   0  0  0  0  0  0  0  0  0  0  0  0
   -0.0255    1.8196    4.7987 H   0  0  0  0  0  0  0  0  0  0  0  0
   -0.2301    0.0568    4.9372 H   0  0  0  0  0  0  0  0  0  0  0  0
  5  6  2  0  0  0  0
  5  7  1  0  0  0  0
  2  3  1  0  0  0  0
  2  4  1  0  0  0  0
  2  5  1  0  0  0  0
  1  2  1  0  0  0  0
 27 28  2  0  0  0  0
 27 29  1  0  0  0  0
 23 24  1  0  0  0  0
 23 25  1  0  0  0  0
 23 26  1  0  0  0  0
 20 21  1  0  0  0  0
 20 22  1  0  0  0  0
 20 23  1  0  0  0  0
 17 18  1  0  0  0  0
 17 19  1  0  0  0  0
 17 20  1  0  0  0  0
 14 15  1  0  0  0  0
 14 16  1  0  0  0  0
 14 17  1  0  0  0  0
 11 12  1  0  0  0  0
 11 13  1  0  0  0  0
 11 14  1  0  0  0  0
  9 10  1  0  0  0  0
  9 11  1  0  0  0  0
  9 27  1  0  0  0  0
  7  8  1  0  0  0  0
  7  9  1  0  0  0  0
 31 32  1  0  0  0  0
 31 33  1  0  0  0  0
 31 34  1  0  0  0  0
 29 30  1  0  0  0  0
 29 31  1  0  0  0  0
M  CHG  1  23   1
M  END
$$$$
default_name
  -OEChem-01062215323D

 34 33  0     1  0  0  0  0  0999 V2000
   -3.8899   -3.6747    1.6490 H   0  0  0  0  0  0  0  0  0  0  0  0
   -3.9109   -2.6717    1.2250 C   0  0  0  0  0  0  0  0  0  0  0  0
   -4.6009   -2.0517    1.7950 H   0  0  0  0  0  0  0  0  0  0  0  0
   -4.2309   -2.7237    0.1860 H   0  0  0  0  0  0  0  0  0  0  0  0
   -2.5229   -2.0787    1.2980 C   0  0  0  0  0  0  0  0  0  0  0  0
   -1.5999   -2.7227    1.7810 O   0  0  0  0  0  0  0  0  0  0  0  0
   -2.3659   -0.8447    0.8120 N   0  0  0  0  0  0  0  0  0  0  0  0
   -3.1749   -0.3807    0.4220 H   0  0  0  0  0  0  0  0  0  0  0  0
   -1.0919   -0.1077    0.8170 C   0  0  1  0  0  0  0  0  0  0  0  0
   -0.4440   -0.5386    0.0514 H   0  0  0  0  0  0  0  0  0  0  0  0
   -1.3757    1.3630    0.4580 C   0  0  0  0  0  0  0  0  0  0  0  0
   -2.1591    1.7372    1.1189 H   0  0  0  0  0  0  0  0  0  0  0  0
   -0.4743    1.9546    0.6299 H   0  0  0  0  0  0  0  0  0  0  0  0
   -1.8372    1.5546   -0.9949 C   0  0  0  0  0  0  0  0  0  0  0  0
   -1.0748    1.1740   -1.6758 H   0  0  0  0  0  0  0  0  0  0  0  0
   -2.7649    1.0012   -1.1532 H   0  0  0  0  0  0  0  0  0  0  0  0
   -2.0767    3.0421   -1.2879 C   0  0  0  0  0  0  0  0  0  0  0  0
   -2.8298    3.4240   -0.5945 H   0  0  0  0  0  0  0  0  0  0  0  0
   -1.1440    3.5894   -1.1371 H   0  0  0  0  0  0  0  0  0  0  0  0
   -2.5614    3.2326   -2.7306 C   0  0  0  0  0  0  0  0  0  0  0  0
   -1.7976    2.8374   -3.4083 H   0  0  0  0  0  0  0  0  0  0  0  0
   -3.4722    2.6431   -2.8720 H   0  0  0  0  0  0  0  0  0  0  0  0
   -2.8239    4.6621   -3.0341 N   0  3  0  0  0  0  0  0  0  0  0  0
   -1.9818    5.2112   -2.9151 H   0  0  0  0  0  0  0  0  0  0  0  0
   -3.1430    4.7706   -3.9887 H   0  0  0  0  0  0  0  0  0  0  0  0
   -3.5367    5.0304   -2.4151 H   0  0  0  0  0  0  0  0  0  0  0  0
   -0.4025   -0.2406    2.1768 C   0  0  0  0  0  0  0  0  0  0  0  0
    0.3533   -1.1827    2.3838 O   0  0  0  0  0  0  0  0  0  0  0  0
   -0.6925    0.6808    3.1013 N   0  0  0  0  0  0  0  0  0  0  0  0
   -1.2992    1.4387    2.8356 H   0  0  0  0  0  0  0  0  0  0  0  0
   -0.1181    0.6999    4.4478 C   0  0  0  0  0  0  0  0  0  0  0  0
    0.9652    0.8232    4.3848 H   0  0  0  0  0  0  0  0  0  0  0  0
   -0.5354    1.5235    5.0283 H   0  0  0  0  0  0  0  0  0  0  0  0
   -0.3280   -0.2430    4.9575 H   0  0  0  0  0  0  0  0  0  0  0  0
  5  6  2  0  0  0  0
  5  7  1  0  0  0  0
  2  3  1  0  0  0  0
  2  4  1  0  0  0  0
  2  5  1  0  0  0  0
  1  2  1  0  0  0  0
 27 28  2  0  0  0  0
 27 29  1  0  0  0  0
 23 24  1  0  0  0  0
 23 25  1  0  0  0  0
 23 26  1  0  0  0  0
 20 21  1  0  0  0  0
 20 22  1  0  0  0  0
 20 23  1  0  0  0  0
 17 18  1  0  0  0  0
 17 19  1  0  0  0  0
 17 20  1  0  0  0  0
 14 15  1  0  0  0  0
 14 16  1  0  0  0  0
 14 17  1  0  0  0  0
 11 12  1  0  0  0  0
 11 13  1  0  0  0  0
 11 14  1  0  0  0  0
  9 10  1  0  0  0  0
  9 11  1  0  0  0  0
  9 27  1  0  0  0  0
  7  8  1  0  0  0  0
  7  9  1  0  0  0  0
 31 32  1  0  0  0  0
 31 33  1  0  0  0  0
 31 34  1  0  0  0  0
 29 30  1  0  0  0  0
 29 31  1  0  0  0  0
M  CHG  1  23   1
M  END
$$$$
default_name
  -OEChem-01062215323D

 34 33  0     1  0  0  0  0  0999 V2000
   -3.8899   -3.6747    1.6490 H   0  0  0  0  0  0  0  0  0  0  0  0
   -3.9109   -2.6717    1.2250 C   0  0  0  0  0  0  0  0  0  0  0  0
   -4.6009   -2.0517    1.7950 H   0  0  0  0  0  0  0  0  0  0  0  0
   -4.2309   -2.7237    0.1860 H   0  0  0  0  0  0  0  0  0  0  0  0
   -2.5229   -2.0787    1.2980 C   0  0  0  0  0  0  0  0  0  0  0  0
   -1.5999   -2.7227    1.7810 O   0  0  0  0  0  0  0  0  0  0  0  0
   -2.3659   -0.8447    0.8120 N   0  0  0  0  0  0  0  0  0  0  0  0
   -3.1749   -0.3807    0.4220 H   0  0  0  0  0  0  0  0  0  0  0  0
   -1.0919   -0.1077    0.8170 C   0  0  1  0  0  0  0  0  0  0  0  0
   -0.4440   -0.5386    0.0514 H   0  0  0  0  0  0  0  0  0  0  0  0
   -1.3757    1.3630    0.4580 C   0  0  0  0  0  0  0  0  0  0  0  0
   -2.1591    1.7372    1.1189 H   0  0  0  0  0  0  0  0  0  0  0  0
   -0.4743    1.9546    0.6299 H   0  0  0  0  0  0  0  0  0  0  0  0
   -1.8372    1.5546   -0.9949 C   0  0  0  0  0  0  0  0  0  0  0  0
   -1.0748    1.1740   -1.6758 H   0  0  0  0  0  0  0  0  0  0  0  0
   -2.7649    1.0012   -1.1532 H   0  0  0  0  0  0  0  0  0  0  0  0
   -2.0767    3.0421   -1.2879 C   0  0  0  0  0  0  0  0  0  0  0  0
   -2.8298    3.4240   -0.5945 H   0  0  0  0  0  0  0  0  0  0  0  0
   -1.1440    3.5894   -1.1371 H   0  0  0  0  0  0  0  0  0  0  0  0
   -2.5614    3.2326   -2.7306 C   0  0  0  0  0  0  0  0  0  0  0  0
   -1.7976    2.8374   -3.4083 H   0  0  0  0  0  0  0  0  0  0  0  0
   -3.4722    2.6431   -2.8720 H   0  0  0  0  0  0  0  0  0  0  0  0
   -2.8239    4.6621   -3.0341 N   0  3  0  0  0  0  0  0  0  0  0  0
   -1.9818    5.2112   -2.9151 H   0  0  0  0  0  0  0  0  0  0  0  0
   -3.1430    4.7706   -3.9887 H   0  0  0  0  0  0  0  0  0  0  0  0
   -3.5367    5.0304   -2.4151 H   0  0  0  0  0  0  0  0  0  0  0  0
   -0.4025   -0.2406    2.1768 C   0  0  0  0  0  0  0  0  0  0  0  0
    0.5488   -1.0027    2.3023 O   0  0  0  0  0  0  0  0  0  0  0  0
   -0.9059    0.4731    3.1892 N   0  0  0  0  0  0  0  0  0  0  0  0
   -1.6691    1.0983    2.9899 H   0  0  0  0  0  0  0  0  0  0  0  0
   -0.3634    0.4624    4.5490 C   0  0  0  0  0  0  0  0  0  0  0  0
    0.6625    0.8366    4.5396 H   0  0  0  0  0  0  0  0  0  0  0  0
   -0.9650    1.0934    5.2041 H   0  0  0  0  0  0  0  0  0  0  0  0
   -0.3540   -0.5574    4.9400 H   0  0  0  0  0  0  0  0  0  0  0  0
  5  6  2  0  0  0  0
  5  7  1  0  0  0  0
  2  3  1  0  0  0  0
  2  4  1  0  0  0  0
  2  5  1  0  0  0  0
  1  2  1  0  0  0  0
 27 28  2  0  0  0  0
 27 29  1  0  0  0  0
 23 24  1  0  0  0  0
 23 25  1  0  0  0  0
 23 26  1  0  0  0  0
 20 21  1  0  0  0  0
 20 22  1  0  0  0  0
 20 23  1  0  0  0  0
 17 18  1  0  0  0  0
 17 19  1  0  0  0  0
 17 20  1  0  0  0  0
 14 15  1  0  0  0  0
 14 16  1  0  0  0  0
 14 17  1  0  0  0  0
 11 12  1  0  0  0  0
 11 13  1  0  0  0  0
 11 14  1  0  0  0  0
  9 10  1  0  0  0  0
  9 11  1  0  0  0  0
  9 27  1  0  0  0  0
  7  8  1  0  0  0  0
  7  9  1  0  0  0  0
 31 32  1  0  0  0  0
 31 33  1  0  0  0  0
 31 34  1  0  0  0  0
 29 30  1  0  0  0  0
 29 31  1  0  0  0  0
M  CHG  1  23   1
M  END
$$$$
default_name
  -OEChem-01062215323D

 34 33  0     1  0  0  0  0  0999 V2000
   -3.8899   -3.6747    1.6490 H   0  0  0  0  0  0  0  0  0  0  0  0
   -3.9109   -2.6717    1.2250 C   0  0  0  0  0  0  0  0  0  0  0  0
   -4.6009   -2.0517    1.7950 H   0  0  0  0  0  0  0  0  0  0  0  0
   -4.2309   -2.7237    0.1860 H   0  0  0  0  0  0  0  0  0  0  0  0
   -2.5229   -2.0787    1.2980 C   0  0  0  0  0  0  0  0  0  0  0  0
   -1.5999   -2.7227    1.7810 O   0  0  0  0  0  0  0  0  0  0  0  0
   -2.3659   -0.8447    0.8120 N   0  0  0  0  0  0  0  0  0  0  0  0
   -3.1749   -0.3807    0.4220 H   0  0  0  0  0  0  0  0  0  0  0  0
   -1.0919   -0.1077    0.8170 C   0  0  1  0  0  0  0  0  0  0  0  0
   -0.4440   -0.5386    0.0514 H   0  0  0  0  0  0  0  0  0  0  0  0
   -1.3757    1.3630    0.4580 C   0  0  0  0  0  0  0  0  0  0  0  0
   -2.1591    1.7372    1.1189 H   0  0  0  0  0  0  0  0  0  0  0  0
   -0.4743    1.9546    0.6299 H   0  0  0  0  0  0  0  0  0  0  0  0
   -1.8372    1.5546   -0.9949 C   0  0  0  0  0  0  0  0  0  0  0  0
   -1.0748    1.1740   -1.6758 H   0  0  0  0  0  0  0  0  0  0  0  0
   -2.7649    1.0012   -1.1532 H   0  0  0  0  0  0  0  0  0  0  0  0
   -2.0767    3.0421   -1.2879 C   0  0  0  0  0  0  0  0  0  0  0  0
   -2.8298    3.4240   -0.5945 H   0  0  0  0  0  0  0  0  0  0  0  0
   -1.1440    3.5894   -1.1371 H   0  0  0  0  0  0  0  0  0  0  0  0
   -2.5614    3.2326   -2.7306 C   0  0  0  0  0  0  0  0  0  0  0  0
   -1.7976    2.8374   -3.4083 H   0  0  0  0  0  0  0  0  0  0  0  0
   -3.4722    2.6431   -2.8720 H   0  0  0  0  0  0  0  0  0  0  0  0
   -2.8239    4.6621   -3.0341 N   0  3  0  0  0  0  0  0  0  0  0  0
   -1.9818    5.2112   -2.9151 H   0  0  0  0  0  0  0  0  0  0  0  0
   -3.1430    4.7706   -3.9887 H   0  0  0  0  0  0  0  0  0  0  0  0
   -3.5367    5.0304   -2.4151 H   0  0  0  0  0  0  0  0  0  0  0  0
   -0.4025   -0.2406    2.1768 C   0  0  0  0  0  0  0  0  0  0  0  0
    0.6982   -0.7744    2.2488 O   0  0  0  0  0  0  0  0  0  0  0  0
   -1.0662    0.2132    3.2451 N   0  0  0  0  0  0  0  0  0  0  0  0
   -1.9516    0.6665    3.0909 H   0  0  0  0  0  0  0  0  0  0  0  0
   -0.5480    0.1647    4.6135 C   0  0  0  0  0  0  0  0  0  0  0  0
    0.3636    0.7620    4.6839 H   0  0  0  0  0  0  0  0  0  0  0  0
   -1.2850    0.5587    5.3141 H   0  0  0  0  0  0  0  0  0  0  0  0
   -0.3064   -0.8651    4.8858 H   0  0  0  0  0  0  0  0  0  0  0  0
  5  6  2  0  0  0  0
  5  7  1  0  0  0  0
  2  3  1  0  0  0  0
  2  4  1  0  0  0  0
  2  5  1  0  0  0  0
  1  2  1  0  0  0  0
 27 28  2  0  0  0  0
 27 29  1  0  0  0  0
 23 24  1  0  0  0  0
 23 25  1  0  0  0  0
 23 26  1  0  0  0  0
 20 21  1  0  0  0  0
 20 22  1  0  0  0  0
 20 23  1  0  0  0  0
 17 18  1  0  0  0  0
 17 19  1  0  0  0  0
 17 20  1  0  0  0  0
 14 15  1  0  0  0  0
 14 16  1  0  0  0  0
 14 17  1  0  0  0  0
 11 12  1  0  0  0  0
 11 13  1  0  0  0  0
 11 14  1  0  0  0  0
  9 10  1  0  0  0  0
  9 11  1  0  0  0  0
  9 27  1  0  0  0  0
  7  8  1  0  0  0  0
  7  9  1  0  0  0  0
 31 32  1  0  0  0  0
 31 33  1  0  0  0  0
 31 34  1  0  0  0  0
 29 30  1  0  0  0  0
 29 31  1  0  0  0  0
M  CHG  1  23   1
M  END
$$$$
default_name
  -OEChem-01062215323D

 34 33  0     1  0  0  0  0  0999 V2000
   -3.8899   -3.6747    1.6490 H   0  0  0  0  0  0  0  0  0  0  0  0
   -3.9109   -2.6717    1.2250 C   0  0  0  0  0  0  0  0  0  0  0  0
   -4.6009   -2.0517    1.7950 H   0  0  0  0  0  0  0  0  0  0  0  0
   -4.2309   -2.7237    0.1860 H   0  0  0  0  0  0  0  0  0  0  0  0
   -2.5229   -2.0787    1.2980 C   0  0  0  0  0  0  0  0  0  0  0  0
   -1.5999   -2.7227    1.7810 O   0  0  0  0  0  0  0  0  0  0  0  0
   -2.3659   -0.8447    0.8120 N   0  0  0  0  0  0  0  0  0  0  0  0
   -3.1749   -0.3807    0.4220 H   0  0  0  0  0  0  0  0  0  0  0  0
   -1.0919   -0.1077    0.8170 C   0  0  1  0  0  0  0  0  0  0  0  0
   -0.4440   -0.5386    0.0514 H   0  0  0  0  0  0  0  0  0  0  0  0
   -1.3757    1.3630    0.4580 C   0  0  0  0  0  0  0  0  0  0  0  0
   -2.1591    1.7372    1.1189 H   0  0  0  0  0  0  0  0  0  0  0  0
   -0.4743    1.9546    0.6299 H   0  0  0  0  0  0  0  0  0  0  0  0
   -1.8372    1.5546   -0.9949 C   0  0  0  0  0  0  0  0  0  0  0  0
   -1.0748    1.1740   -1.6758 H   0  0  0  0  0  0  0  0  0  0  0  0
   -2.7649    1.0012   -1.1532 H   0  0  0  0  0  0  0  0  0  0  0  0
   -2.0767    3.0421   -1.2879 C   0  0  0  0  0  0  0  0  0  0  0  0
   -2.8298    3.4240   -0.5945 H   0  0  0  0  0  0  0  0  0  0  0  0
   -1.1440    3.5894   -1.1371 H   0  0  0  0  0  0  0  0  0  0  0  0
   -2.5614    3.2326   -2.7306 C   0  0  0  0  0  0  0  0  0  0  0  0
   -1.7976    2.8374   -3.4083 H   0  0  0  0  0  0  0  0  0  0  0  0
   -3.4722    2.6431   -2.8720 H   0  0  0  0  0  0  0  0  0  0  0  0
   -2.8239    4.6621   -3.0341 N   0  3  0  0  0  0  0  0  0  0  0  0
   -1.9818    5.2112   -2.9151 H   0  0  0  0  0  0  0  0  0  0  0  0
   -3.1430    4.7706   -3.9887 H   0  0  0  0  0  0  0  0  0  0  0  0
   -3.5367    5.0304   -2.4151 H   0  0  0  0  0  0  0  0  0  0  0  0
   -0.4025   -0.2406    2.1768 C   0  0  0  0  0  0  0  0  0  0  0  0
    0.7911   -0.5133    2.2272 O   0  0  0  0  0  0  0  0  0  0  0  0
   -1.1625   -0.0813    3.2651 N   0  0  0  0  0  0  0  0  0  0  0  0
   -2.1274    0.1726    3.1318 H   0  0  0  0  0  0  0  0  0  0  0  0
   -0.6593   -0.1729    4.6370 C   0  0  0  0  0  0  0  0  0  0  0  0
    0.0888    0.6043    4.8079 H   0  0  0  0  0  0  0  0  0  0  0  0
   -1.4736   -0.0442    5.3509 H   0  0  0  0  0  0  0  0  0  0  0  0
   -0.1885   -1.1450    4.7986 H   0  0  0  0  0  0  0  0  0  0  0  0
  5  6  2  0  0  0  0
  5  7  1  0  0  0  0
  2  3  1  0  0  0  0
  2  4  1  0  0  0  0
  2  5  1  0  0  0  0
  1  2  1  0  0  0  0
 27 28  2  0  0  0  0
 27 29  1  0  0  0  0
 23 24  1  0  0  0  0
 23 25  1  0  0  0  0
 23 26  1  0  0  0  0
 20 21  1  0  0  0  0
 20 22  1  0  0  0  0
 20 23  1  0  0  0  0
 17 18  1  0  0  0  0
 17 19  1  0  0  0  0
 17 20  1  0  0  0  0
 14 15  1  0  0  0  0
 14 16  1  0  0  0  0
 14 17  1  0  0  0  0
 11 12  1  0  0  0  0
 11 13  1  0  0  0  0
 11 14  1  0  0  0  0
  9 10  1  0  0  0  0
  9 11  1  0  0  0  0
  9 27  1  0  0  0  0
  7  8  1  0  0  0  0
  7  9  1  0  0  0  0
 31 32  1  0  0  0  0
 31 33  1  0  0  0  0
 31 34  1  0  0  0  0
 29 30  1  0  0  0  0
 29 31  1  0  0  0  0
M  CHG  1  23   1
M  END
$$$$
default_name
  -OEChem-01062215323D

 34 33  0     1  0  0  0  0  0999 V2000
   -3.8899   -3.6747    1.6490 H   0  0  0  0  0  0  0  0  0  0  0  0
   -3.9109   -2.6717    1.2250 C   0  0  0  0  0  0  0  0  0  0  0  0
   -4.6009   -2.0517    1.7950 H   0  0  0  0  0  0  0  0  0  0  0  0
   -4.2309   -2.7237    0.1860 H   0  0  0  0  0  0  0  0  0  0  0  0
   -2.5229   -2.0787    1.2980 C   0  0  0  0  0  0  0  0  0  0  0  0
   -1.5999   -2.7227    1.7810 O   0  0  0  0  0  0  0  0  0  0  0  0
   -2.3659   -0.8447    0.8120 N   0  0  0  0  0  0  0  0  0  0  0  0
   -3.1749   -0.3807    0.4220 H   0  0  0  0  0  0  0  0  0  0  0  0
   -1.0919   -0.1077    0.8170 C   0  0  1  0  0  0  0  0  0  0  0  0
   -0.4440   -0.5386    0.0514 H   0  0  0  0  0  0  0  0  0  0  0  0
   -1.3757    1.3630    0.4580 C   0  0  0  0  0  0  0  0  0  0  0  0
   -2.1591    1.7372    1.1189 H   0  0  0  0  0  0  0  0  0  0  0  0
   -0.4743    1.9546    0.6299 H   0  0  0  0  0  0  0  0  0  0  0  0
   -1.8372    1.5546   -0.9949 C   0  0  0  0  0  0  0  0  0  0  0  0
   -1.0748    1.1740   -1.6758 H   0  0  0  0  0  0  0  0  0  0  0  0
   -2.7649    1.0012   -1.1532 H   0  0  0  0  0  0  0  0  0  0  0  0
   -2.0767    3.0421   -1.2879 C   0  0  0  0  0  0  0  0  0  0  0  0
   -2.8298    3.4240   -0.5945 H   0  0  0  0  0  0  0  0  0  0  0  0
   -1.1440    3.5894   -1.1371 H   0  0  0  0  0  0  0  0  0  0  0  0
   -2.5614    3.2326   -2.7306 C   0  0  0  0  0  0  0  0  0  0  0  0
   -1.7976    2.8374   -3.4083 H   0  0  0  0  0  0  0  0  0  0  0  0
   -3.4722    2.6431   -2.8720 H   0  0  0  0  0  0  0  0  0  0  0  0
   -2.8239    4.6621   -3.0341 N   0  3  0  0  0  0  0  0  0  0  0  0
   -1.9818    5.2112   -2.9151 H   0  0  0  0  0  0  0  0  0  0  0  0
   -3.1430    4.7706   -3.9887 H   0  0  0  0  0  0  0  0  0  0  0  0
   -3.5367    5.0304   -2.4151 H   0  0  0  0  0  0  0  0  0  0  0  0
   -0.4025   -0.2406    2.1768 C   0  0  0  0  0  0  0  0  0  0  0  0
    0.8213   -0.2372    2.2389 O   0  0  0  0  0  0  0  0  0  0  0  0
   -1.1884   -0.3903    3.2480 N   0  0  0  0  0  0  0  0  0  0  0  0
   -2.1845   -0.3496    3.1097 H   0  0  0  0  0  0  0  0  0  0  0  0
   -0.6897   -0.5272    4.6178 C   0  0  0  0  0  0  0  0  0  0  0  0
   -0.1432    0.3743    4.9030 H   0  0  0  0  0  0  0  0  0  0  0  0
   -1.5180   -0.6742    5.3118 H   0  0  0  0  0  0  0  0  0  0  0  0
   -0.0083   -1.3781    4.6845 H   0  0  0  0  0  0  0  0  0  0  0  0
  5  6  2  0  0  0  0
  5  7  1  0  0  0  0
  2  3  1  0  0  0  0
  2  4  1  0  0  0  0
  2  5  1  0  0  0  0
  1  2  1  0  0  0  0
 27 28  2  0  0  0  0
 27 29  1  0  0  0  0
 23 24  1  0  0  0  0
 23 25  1  0  0  0  0
 23 26  1  0  0  0  0
 20 21  1  0  0  0  0
 20 22  1  0  0  0  0
 20 23  1  0  0  0  0
 17 18  1  0  0  0  0
 17 19  1  0  0  0  0
 17 20  1  0  0  0  0
 14 15  1  0  0  0  0
 14 16  1  0  0  0  0
 14 17  1  0  0  0  0
 11 12  1  0  0  0  0
 11 13  1  0  0  0  0
 11 14  1  0  0  0  0
  9 10  1  0  0  0  0
  9 11  1  0  0  0  0
  9 27  1  0  0  0  0
  7  8  1  0  0  0  0
  7  9  1  0  0  0  0
 31 32  1  0  0  0  0
 31 33  1  0  0  0  0
 31 34  1  0  0  0  0
 29 30  1  0  0  0  0
 29 31  1  0  0  0  0
M  CHG  1  23   1
M  END
$$$$
default_name
  -OEChem-01062215323D

 34 33  0     1  0  0  0  0  0999 V2000
   -3.8899   -3.6747    1.6490 H   0  0  0  0  0  0  0  0  0  0  0  0
   -3.9109   -2.6717    1.2250 C   0  0  0  0  0  0  0  0  0  0  0  0
   -4.6009   -2.0517    1.7950 H   0  0  0  0  0  0  0  0  0  0  0  0
   -4.2309   -2.7237    0.1860 H   0  0  0  0  0  0  0  0  0  0  0  0
   -2.5229   -2.0787    1.2980 C   0  0  0  0  0  0  0  0  0  0  0  0
   -1.5999   -2.7227    1.7810 O   0  0  0  0  0  0  0  0  0  0  0  0
   -2.3659   -0.8447    0.8120 N   0  0  0  0  0  0  0  0  0  0  0  0
   -3.1749   -0.3807    0.4220 H   0  0  0  0  0  0  0  0  0  0  0  0
   -1.0919   -0.1077    0.8170 C   0  0  1  0  0  0  0  0  0  0  0  0
   -0.4440   -0.5386    0.0514 H   0  0  0  0  0  0  0  0  0  0  0  0
   -1.3757    1.3630    0.4580 C   0  0  0  0  0  0  0  0  0  0  0  0
   -2.1591    1.7372    1.1189 H   0  0  0  0  0  0  0  0  0  0  0  0
   -0.4743    1.9546    0.6299 H   0  0  0  0  0  0  0  0  0  0  0  0
   -1.8372    1.5546   -0.9949 C   0  0  0  0  0  0  0  0  0  0  0  0
   -1.0748    1.1740   -1.6758 H   0  0  0  0  0  0  0  0  0  0  0  0
   -2.7649    1.0012   -1.1532 H   0  0  0  0  0  0  0  0  0  0  0  0
   -2.0767    3.0421   -1.2879 C   0  0  0  0  0  0  0  0  0  0  0  0
   -2.8298    3.4240   -0.5945 H   0  0  0  0  0  0  0  0  0  0  0  0
   -1.1440    3.5894   -1.1371 H   0  0  0  0  0  0  0  0  0  0  0  0
   -2.5614    3.2326   -2.7306 C   0  0  0  0  0  0  0  0  0  0  0  0
   -1.7976    2.8374   -3.4083 H   0  0  0  0  0  0  0  0  0  0  0  0
   -3.4722    2.6431   -2.8720 H   0  0  0  0  0  0  0  0  0  0  0  0
   -2.8239    4.6621   -3.0341 N   0  3  0  0  0  0  0  0  0  0  0  0
   -1.9818    5.2112   -2.9151 H   0  0  0  0  0  0  0  0  0  0  0  0
   -3.1430    4.7706   -3.9887 H   0  0  0  0  0  0  0  0  0  0  0  0
   -3.5367    5.0304   -2.4151 H   0  0  0  0  0  0  0  0  0  0  0  0
   -0.4025   -0.2406    2.1768 C   0  0  0  0  0  0  0  0  0  0  0  0
    0.7868    0.0351    2.2830 O   0  0  0  0  0  0  0  0  0  0  0  0
   -1.1418   -0.6926    3.1949 N   0  0  0  0  0  0  0  0  0  0  0  0
   -2.1191   -0.8646    3.0263 H   0  0  0  0  0  0  0  0  0  0  0  0
   -0.6372   -0.8742    4.5572 C   0  0  0  0  0  0  0  0  0  0  0  0
   -0.3166    0.0877    4.9629 H   0  0  0  0  0  0  0  0  0  0  0  0
   -1.4151   -1.2884    5.1996 H   0  0  0  0  0  0  0  0  0  0  0  0
    0.2220   -1.5486    4.5511 H   0  0  0  0  0  0  0  0  0  0  0  0
  5  6  2  0  0  0  0
  5  7  1  0  0  0  0
  2  3  1  0  0  0  0
  2  4  1  0  0  0  0
  2  5  1  0  0  0  0
  1  2  1  0  0  0  0
 27 28  2  0  0  0  0
 27 29  1  0  0  0  0
 23 24  1  0  0  0  0
 23 25  1  0  0  0  0
 23 26  1  0  0  0  0
 20 21  1  0  0  0  0
 20 22  1  0  0  0  0
 20 23  1  0  0  0  0
 17 18  1  0  0  0  0
 17 19  1  0  0  0  0
 17 20  1  0  0  0  0
 14 15  1  0  0  0  0
 14 16  1  0  0  0  0
 14 17  1  0  0  0  0
 11 12  1  0  0  0  0
 11 13  1  0  0  0  0
 11 14  1  0  0  0  0
  9 10  1  0  0  0  0
  9 11  1  0  0  0  0
  9 27  1  0  0  0  0
  7  8  1  0  0  0  0
  7  9  1  0  0  0  0
 31 32  1  0  0  0  0
 31 33  1  0  0  0  0
 31 34  1  0  0  0  0
 29 30  1  0  0  0  0
 29 31  1  0  0  0  0
M  CHG  1  23   1
M  END
$$$$
default_name
  -OEChem-01062215323D

 34 33  0     1  0  0  0  0  0999 V2000
   -3.8899   -3.6747    1.6490 H   0  0  0  0  0  0  0  0  0  0  0  0
   -3.9109   -2.6717    1.2250 C   0  0  0  0  0  0  0  0  0  0  0  0
   -4.6009   -2.0517    1.7950 H   0  0  0  0  0  0  0  0  0  0  0  0
   -4.2309   -2.7237    0.1860 H   0  0  0  0  0  0  0  0  0  0  0  0
   -2.5229   -2.0787    1.2980 C   0  0  0  0  0  0  0  0  0  0  0  0
   -1.5999   -2.7227    1.7810 O   0  0  0  0  0  0  0  0  0  0  0  0
   -2.3659   -0.8447    0.8120 N   0  0  0  0  0  0  0  0  0  0  0  0
   -3.1749   -0.3807    0.4220 H   0  0  0  0  0  0  0  0  0  0  0  0
   -1.0919   -0.1077    0.8170 C   0  0  1  0  0  0  0  0  0  0  0  0
   -0.4440   -0.5386    0.0514 H   0  0  0  0  0  0  0  0  0  0  0  0
   -1.3757    1.3630    0.4580 C   0  0  0  0  0  0  0  0  0  0  0  0
   -2.1591    1.7372    1.1189 H   0  0  0  0  0  0  0  0  0  0  0  0
   -0.4743    1.9546    0.6299 H   0  0  0  0  0  0  0  0  0  0  0  0
   -1.8372    1.5546   -0.9949 C   0  0  0  0  0  0  0  0  0  0  0  0
   -1.0748    1.1740   -1.6758 H   0  0  0  0  0  0  0  0  0  0  0  0
   -2.7649    1.0012   -1.1532 H   0  0  0  0  0  0  0  0  0  0  0  0
   -2.0767    3.0421   -1.2879 C   0  0  0  0  0  0  0  0  0  0  0  0
   -2.8298    3.4240   -0.5945 H   0  0  0  0  0  0  0  0  0  0  0  0
   -1.1440    3.5894   -1.1371 H   0  0  0  0  0  0  0  0  0  0  0  0
   -2.5614    3.2326   -2.7306 C   0  0  0  0  0  0  0  0  0  0  0  0
   -1.7976    2.8374   -3.4083 H   0  0  0  0  0  0  0  0  0  0  0  0
   -3.4722    2.6431   -2.8720 H   0  0  0  0  0  0  0  0  0  0  0  0
   -2.8239    4.6621   -3.0341 N   0  3  0  0  0  0  0  0  0  0  0  0
   -1.9818    5.2112   -2.9151 H   0  0  0  0  0  0  0  0  0  0  0  0
   -3.1430    4.7706   -3.9887 H   0  0  0  0  0  0  0  0  0  0  0  0
   -3.5367    5.0304   -2.4151 H   0  0  0  0  0  0  0  0  0  0  0  0
   -0.4025   -0.2406    2.1768 C   0  0  0  0  0  0  0  0  0  0  0  0
    0.6898    0.2850    2.3566 O   0  0  0  0  0  0  0  0  0  0  0  0
   -1.0262   -0.9678    3.1094 N   0  0  0  0  0  0  0  0  0  0  0  0
   -1.9357   -1.3373    2.8871 H   0  0  0  0  0  0  0  0  0  0  0  0
   -0.5052   -1.1903    4.4594 C   0  0  0  0  0  0  0  0  0  0  0  0
   -0.4194   -0.2360    4.9834 H   0  0  0  0  0  0  0  0  0  0  0  0
   -1.1719   -1.8449    5.0219 H   0  0  0  0  0  0  0  0  0  0  0  0
    0.4866   -1.6446    4.4075 H   0  0  0  0  0  0  0  0  0  0  0  0
  5  6  2  0  0  0  0
  5  7  1  0  0  0  0
  2  3  1  0  0  0  0
  2  4  1  0  0  0  0
  2  5  1  0  0  0  0
  1  2  1  0  0  0  0
 27 28  2  0  0  0  0
 27 29  1  0  0  0  0
 23 24  1  0  0  0  0
 23 25  1  0  0  0  0
 23 26  1  0  0  0  0
 20 21  1  0  0  0  0
 20 22  1  0  0  0  0
 20 23  1  0  0  0  0
 17 18  1  0  0  0  0
 17 19  1  0  0  0  0
 17 20  1  0  0  0  0
 14 15  1  0  0  0  0
 14 16  1  0  0  0  0
 14 17  1  0  0  0  0
 11 12  1  0  0  0  0
 11 13  1  0  0  0  0
 11 14  1  0  0  0  0
  9 10  1  0  0  0  0
  9 11  1  0  0  0  0
  9 27  1  0  0  0  0
  7  8  1  0  0  0  0
  7  9  1  0  0  0  0
 31 32  1  0  0  0  0
 31 33  1  0  0  0  0
 31 34  1  0  0  0  0
 29 30  1  0  0  0  0
 29 31  1  0  0  0  0
M  CHG  1  23   1
M  END
$$$$
default_name
  -OEChem-01062215323D

 34 33  0     1  0  0  0  0  0999 V2000
   -3.8899   -3.6747    1.6490 H   0  0  0  0  0  0  0  0  0  0  0  0
   -3.9109   -2.6717    1.2250 C   0  0  0  0  0  0  0  0  0  0  0  0
   -4.6009   -2.0517    1.7950 H   0  0  0  0  0  0  0  0  0  0  0  0
   -4.2309   -2.7237    0.1860 H   0  0  0  0  0  0  0  0  0  0  0  0
   -2.5229   -2.0787    1.2980 C   0  0  0  0  0  0  0  0  0  0  0  0
   -1.5999   -2.7227    1.7810 O   0  0  0  0  0  0  0  0  0  0  0  0
   -2.3659   -0.8447    0.8120 N   0  0  0  0  0  0  0  0  0  0  0  0
   -3.1749   -0.3807    0.4220 H   0  0  0  0  0  0  0  0  0  0  0  0
   -1.0919   -0.1077    0.8170 C   0  0  1  0  0  0  0  0  0  0  0  0
   -0.4440   -0.5386    0.0514 H   0  0  0  0  0  0  0  0  0  0  0  0
   -1.3757    1.3630    0.4580 C   0  0  0  0  0  0  0  0  0  0  0  0
   -2.1591    1.7372    1.1189 H   0  0  0  0  0  0  0  0  0  0  0  0
   -0.4743    1.9546    0.6299 H   0  0  0  0  0  0  0  0  0  0  0  0
   -1.8372    1.5546   -0.9949 C   0  0  0  0  0  0  0  0  0  0  0  0
   -1.0748    1.1740   -1.6758 H   0  0  0  0  0  0  0  0  0  0  0  0
   -2.7649    1.0012   -1.1532 H   0  0  0  0  0  0  0  0  0  0  0  0
   -2.0767    3.0421   -1.2879 C   0  0  0  0  0  0  0  0  0  0  0  0
   -2.8298    3.4240   -0.5945 H   0  0  0  0  0  0  0  0  0  0  0  0
   -1.1440    3.5894   -1.1371 H   0  0  0  0  0  0  0  0  0  0  0  0
   -2.5614    3.2326   -2.7306 C   0  0  0  0  0  0  0  0  0  0  0  0
   -1.7976    2.8374   -3.4083 H   0  0  0  0  0  0  0  0  0  0  0  0
   -3.4722    2.6431   -2.8720 H   0  0  0  0  0  0  0  0  0  0  0  0
   -2.8239    4.6621   -3.0341 N   0  3  0  0  0  0  0  0  0  0  0  0
   -1.9818    5.2112   -2.9151 H   0  0  0  0  0  0  0  0  0  0  0  0
   -3.1430    4.7706   -3.9887 H   0  0  0  0  0  0  0  0  0  0  0  0
   -3.5367    5.0304   -2.4151 H   0  0  0  0  0  0  0  0  0  0  0  0
   -0.4025   -0.2406    2.1768 C   0  0  0  0  0  0  0  0  0  0  0  0
    0.5370    0.4955    2.4547 O   0  0  0  0  0  0  0  0  0  0  0  0
   -0.8493   -1.1970    2.9973 N   0  0  0  0  0  0  0  0  0  0  0  0
   -1.6466   -1.7354    2.7016 H   0  0  0  0  0  0  0  0  0  0  0  0
   -0.3029   -1.4538    4.3311 C   0  0  0  0  0  0  0  0  0  0  0  0
   -0.4448   -0.5747    4.9632 H   0  0  0  0  0  0  0  0  0  0  0  0
   -0.8051   -2.3058    4.7909 H   0  0  0  0  0  0  0  0  0  0  0  0
    0.7675   -1.6599    4.2636 H   0  0  0  0  0  0  0  0  0  0  0  0
  5  6  2  0  0  0  0
  5  7  1  0  0  0  0
  2  3  1  0  0  0  0
  2  4  1  0  0  0  0
  2  5  1  0  0  0  0
  1  2  1  0  0  0  0
 27 28  2  0  0  0  0
 27 29  1  0  0  0  0
 23 24  1  0  0  0  0
 23 25  1  0  0  0  0
 23 26  1  0  0  0  0
 20 21  1  0  0  0  0
 20 22  1  0  0  0  0
 20 23  1  0  0  0  0
 17 18  1  0  0  0  0
 17 19  1  0  0  0  0
 17 20  1  0  0  0  0
 14 15  1  0  0  0  0
 14 16  1  0  0  0  0
 14 17  1  0  0  0  0
 11 12  1  0  0  0  0
 11 13  1  0  0  0  0
 11 14  1  0  0  0  0
  9 10  1  0  0  0  0
  9 11  1  0  0  0  0
  9 27  1  0  0  0  0
  7  8  1  0  0  0  0
  7  9  1  0  0  0  0
 31 32  1  0  0  0  0
 31 33  1  0  0  0  0
 31 34  1  0  0  0  0
 29 30  1  0  0  0  0
 29 31  1  0  0  0  0
M  CHG  1  23   1
M  END
$$$$
default_name
  -OEChem-01062215323D

 34 33  0     1  0  0  0  0  0999 V2000
   -3.8899   -3.6747    1.6490 H   0  0  0  0  0  0  0  0  0  0  0  0
   -3.9109   -2.6717    1.2250 C   0  0  0  0  0  0  0  0  0  0  0  0
   -4.6009   -2.0517    1.7950 H   0  0  0  0  0  0  0  0  0  0  0  0
   -4.2309   -2.7237    0.1860 H   0  0  0  0  0  0  0  0  0  0  0  0
   -2.5229   -2.0787    1.2980 C   0  0  0  0  0  0  0  0  0  0  0  0
   -1.5999   -2.7227    1.7810 O   0  0  0  0  0  0  0  0  0  0  0  0
   -2.3659   -0.8447    0.8120 N   0  0  0  0  0  0  0  0  0  0  0  0
   -3.1749   -0.3807    0.4220 H   0  0  0  0  0  0  0  0  0  0  0  0
   -1.0919   -0.1077    0.8170 C   0  0  1  0  0  0  0  0  0  0  0  0
   -0.4440   -0.5386    0.0514 H   0  0  0  0  0  0  0  0  0  0  0  0
   -1.3757    1.3630    0.4580 C   0  0  0  0  0  0  0  0  0  0  0  0
   -2.1591    1.7372    1.1189 H   0  0  0  0  0  0  0  0  0  0  0  0
   -0.4743    1.9546    0.6299 H   0  0  0  0  0  0  0  0  0  0  0  0
   -1.8372    1.5546   -0.9949 C   0  0  0  0  0  0  0  0  0  0  0  0
   -1.0748    1.1740   -1.6758 H   0  0  0  0  0  0  0  0  0  0  0  0
   -2.7649    1.0012   -1.1532 H   0  0  0  0  0  0  0  0  0  0  0  0
   -2.0767    3.0421   -1.2879 C   0  0  0  0  0  0  0  0  0  0  0  0
   -2.8298    3.4240   -0.5945 H   0  0  0  0  0  0  0  0  0  0  0  0
   -1.1440    3.5894   -1.1371 H   0  0  0  0  0  0  0  0  0  0  0  0
   -2.5614    3.2326   -2.7306 C   0  0  0  0  0  0  0  0  0  0  0  0
   -1.7976    2.8374   -3.4083 H   0  0  0  0  0  0  0  0  0  0  0  0
   -3.4722    2.6431   -2.8720 H   0  0  0  0  0  0  0  0  0  0  0  0
   -2.8239    4.6621   -3.0341 N   0  3  0  0  0  0  0  0  0  0  0  0
   -1.9818    5.2112   -2.9151 H   0  0  0  0  0  0  0  0  0  0  0  0
   -3.1430    4.7706   -3.9887 H   0  0  0  0  0  0  0  0  0  0  0  0
   -3.5367    5.0304   -2.4151 H   0  0  0  0  0  0  0  0  0  0  0  0
   -0.4025   -0.2406    2.1768 C   0  0  0  0  0  0  0  0  0  0  0  0
    0.3387    0.6523    2.5705 O   0  0  0  0  0  0  0  0  0  0  0  0
   -0.6232   -1.3647    2.8663 N   0  0  0  0  0  0  0  0  0  0  0  0
   -1.2717   -2.0319    2.4825 H   0  0  0  0  0  0  0  0  0  0  0  0
   -0.0440   -1.6469    4.1810 C   0  0  0  0  0  0  0  0  0  0  0  0
   -0.3910   -0.9053    4.9036 H   0  0  0  0  0  0  0  0  0  0  0  0
   -0.3395   -2.6397    4.5222 H   0  0  0  0  0  0  0  0  0  0  0  0
    1.0456   -1.5932    4.1291 H   0  0  0  0  0  0  0  0  0  0  0  0
  5  6  2  0  0  0  0
  5  7  1  0  0  0  0
  2  3  1  0  0  0  0
  2  4  1  0  0  0  0
  2  5  1  0  0  0  0
  1  2  1  0  0  0  0
 27 28  2  0  0  0  0
 27 29  1  0  0  0  0
 23 24  1  0  0  0  0
 23 25  1  0  0  0  0
 23 26  1  0  0  0  0
 20 21  1  0  0  0  0
 20 22  1  0  0  0  0
 20 23  1  0  0  0  0
 17 18  1  0  0  0  0
 17 19  1  0  0  0  0
 17 20  1  0  0  0  0
 14 15  1  0  0  0  0
 14 16  1  0  0  0  0
 14 17  1  0  0  0  0
 11 12  1  0  0  0  0
 11 13  1  0  0  0  0
 11 14  1  0  0  0  0
  9 10  1  0  0  0  0
  9 11  1  0  0  0  0
  9 27  1  0  0  0  0
  7  8  1  0  0  0  0
  7  9  1  0  0  0  0
 31 32  1  0  0  0  0
 31 33  1  0  0  0  0
 31 34  1  0  0  0  0
 29 30  1  0  0  0  0
 29 31  1  0  0  0  0
M  CHG  1  23   1
M  END
$$$$
default_name
  -OEChem-01062215323D

 34 33  0     1  0  0  0  0  0999 V2000
   -3.8899   -3.6747    1.6490 H   0  0  0  0  0  0  0  0  0  0  0  0
   -3.9109   -2.6717    1.2250 C   0  0  0  0  0  0  0  0  0  0  0  0
   -4.6009   -2.0517    1.7950 H   0  0  0  0  0  0  0  0  0  0  0  0
   -4.2309   -2.7237    0.1860 H   0  0  0  0  0  0  0  0  0  0  0  0
   -2.5229   -2.0787    1.2980 C   0  0  0  0  0  0  0  0  0  0  0  0
   -1.5999   -2.7227    1.7810 O   0  0  0  0  0  0  0  0  0  0  0  0
   -2.3659   -0.8447    0.8120 N   0  0  0  0  0  0  0  0  0  0  0  0
   -3.1749   -0.3807    0.4220 H   0  0  0  0  0  0  0  0  0  0  0  0
   -1.0919   -0.1077    0.8170 C   0  0  1  0  0  0  0  0  0  0  0  0
   -0.4440   -0.5386    0.0514 H   0  0  0  0  0  0  0  0  0  0  0  0
   -1.3757    1.3630    0.4580 C   0  0  0  0  0  0  0  0  0  0  0  0
   -2.1591    1.7372    1.1189 H   0  0  0  0  0  0  0  0  0  0  0  0
   -0.4743    1.9546    0.6299 H   0  0  0  0  0  0  0  0  0  0  0  0
   -1.8372    1.5546   -0.9949 C   0  0  0  0  0  0  0  0  0  0  0  0
   -1.0748    1.1740   -1.6758 H   0  0  0  0  0  0  0  0  0  0  0  0
   -2.7649    1.0012   -1.1532 H   0  0  0  0  0  0  0  0  0  0  0  0
   -2.0767    3.0421   -1.2879 C   0  0  0  0  0  0  0  0  0  0  0  0
   -2.8298    3.4240   -0.5945 H   0  0  0  0  0  0  0  0  0  0  0  0
   -1.1440    3.5894   -1.1371 H   0  0  0  0  0  0  0  0  0  0  0  0
   -2.5614    3.2326   -2.7306 C   0  0  0  0  0  0  0  0  0  0  0  0
   -1.7976    2.8374   -3.4083 H   0  0  0  0  0  0  0  0  0  0  0  0
   -3.4722    2.6431   -2.8720 H   0  0  0  0  0  0  0  0  0  0  0  0
   -2.8239    4.6621   -3.0341 N   0  3  0  0  0  0  0  0  0  0  0  0
   -1.9818    5.2112   -2.9151 H   0  0  0  0  0  0  0  0  0  0  0  0
   -3.1430    4.7706   -3.9887 H   0  0  0  0  0  0  0  0  0  0  0  0
   -3.5367    5.0304   -2.4151 H   0  0  0  0  0  0  0  0  0  0  0  0
   -0.4025   -0.2406    2.1768 C   0  0  0  0  0  0  0  0  0  0  0  0
    0.1086    0.7446    2.6962 O   0  0  0  0  0  0  0  0  0  0  0  0
   -0.3633   -1.4593    2.7252 N   0  0  0  0  0  0  0  0  0  0  0  0
   -0.8365   -2.2066    2.2448 H   0  0  0  0  0  0  0  0  0  0  0  0
    0.2538   -1.7564    4.0192 C   0  0  0  0  0  0  0  0  0  0  0  0
   -0.2616   -1.2053    4.8087 H   0  0  0  0  0  0  0  0  0  0  0  0
    0.1930   -2.8238    4.2342 H   0  0  0  0  0  0  0  0  0  0  0  0
    1.3019   -1.4492    4.0132 H   0  0  0  0  0  0  0  0  0  0  0  0
  5  6  2  0  0  0  0
  5  7  1  0  0  0  0
  2  3  1  0  0  0  0
  2  4  1  0  0  0  0
  2  5  1  0  0  0  0
  1  2  1  0  0  0  0
 27 28  2  0  0  0  0
 27 29  1  0  0  0  0
 23 24  1  0  0  0  0
 23 25  1  0  0  0  0
 23 26  1  0  0  0  0
 20 21  1  0  0  0  0
 20 22  1  0  0  0  0
 20 23  1  0  0  0  0
 17 18  1  0  0  0  0
 17 19  1  0  0  0  0
 17 20  1  0  0  0  0
 14 15  1  0  0  0  0
 14 16  1  0  0  0  0
 14 17  1  0  0  0  0
 11 12  1  0  0  0  0
 11 13  1  0  0  0  0
 11 14  1  0  0  0  0
  9 10  1  0  0  0  0
  9 11  1  0  0  0  0
  9 27  1  0  0  0  0
  7  8  1  0  0  0  0
  7  9  1  0  0  0  0
 31 32  1  0  0  0  0
 31 33  1  0  0  0  0
 31 34  1  0  0  0  0
 29 30  1  0  0  0  0
 29 31  1  0  0  0  0
M  CHG  1  23   1
M  END
$$$$
default_name
  -OEChem-01062215323D

 34 33  0     1  0  0  0  0  0999 V2000
   -3.8899   -3.6747    1.6490 H   0  0  0  0  0  0  0  0  0  0  0  0
   -3.9109   -2.6717    1.2250 C   0  0  0  0  0  0  0  0  0  0  0  0
   -4.6009   -2.0517    1.7950 H   0  0  0  0  0  0  0  0  0  0  0  0
   -4.2309   -2.7237    0.1860 H   0  0  0  0  0  0  0  0  0  0  0  0
   -2.5229   -2.0787    1.2980 C   0  0  0  0  0  0  0  0  0  0  0  0
   -1.5999   -2.7227    1.7810 O   0  0  0  0  0  0  0  0  0  0  0  0
   -2.3659   -0.8447    0.8120 N   0  0  0  0  0  0  0  0  0  0  0  0
   -3.1749   -0.3807    0.4220 H   0  0  0  0  0  0  0  0  0  0  0  0
   -1.0919   -0.1077    0.8170 C   0  0  1  0  0  0  0  0  0  0  0  0
   -0.4440   -0.5386    0.0514 H   0  0  0  0  0  0  0  0  0  0  0  0
   -1.3757    1.3630    0.4580 C   0  0  0  0  0  0  0  0  0  0  0  0
   -2.1591    1.7372    1.1189 H   0  0  0  0  0  0  0  0  0  0  0  0
   -0.4743    1.9546    0.6299 H   0  0  0  0  0  0  0  0  0  0  0  0
   -1.8372    1.5546   -0.9949 C   0  0  0  0  0  0  0  0  0  0  0  0
   -1.0748    1.1740   -1.6758 H   0  0  0  0  0  0  0  0  0  0  0  0
   -2.7649    1.0012   -1.1532 H   0  0  0  0  0  0  0  0  0  0  0  0
   -2.0767    3.0421   -1.2879 C   0  0  0  0  0  0  0  0  0  0  0  0
   -2.8298    3.4240   -0.5945 H   0  0  0  0  0  0  0  0  0  0  0  0
   -1.1440    3.5894   -1.1371 H   0  0  0  0  0  0  0  0  0  0  0  0
   -2.5614    3.2326   -2.7306 C   0  0  0  0  0  0  0  0  0  0  0  0
   -1.7976    2.8374   -3.4083 H   0  0  0  0  0  0  0  0  0  0  0  0
   -3.4722    2.6431   -2.8720 H   0  0  0  0  0  0  0  0  0  0  0  0
   -2.8239    4.6621   -3.0341 N   0  3  0  0  0  0  0  0  0  0  0  0
   -1.9818    5.2112   -2.9151 H   0  0  0  0  0  0  0  0  0  0  0  0
   -3.1430    4.7706   -3.9887 H   0  0  0  0  0  0  0  0  0  0  0  0
   -3.5367    5.0304   -2.4151 H   0  0  0  0  0  0  0  0  0  0  0  0
   -0.4025   -0.2406    2.1768 C   0  0  0  0  0  0  0  0  0  0  0  0
   -0.1377    0.7662    2.8232 O   0  0  0  0  0  0  0  0  0  0  0  0
   -0.0873   -1.4745    2.5838 N   0  0  0  0  0  0  0  0  0  0  0  0
   -0.3706   -2.2474    2.0045 H   0  0  0  0  0  0  0  0  0  0  0  0
    0.5703   -1.7748    3.8569 C   0  0  0  0  0  0  0  0  0  0  0  0
   -0.0656   -1.4543    4.6850 H   0  0  0  0  0  0  0  0  0  0  0  0
    0.7562   -2.8457    3.9465 H   0  0  0  0  0  0  0  0  0  0  0  0
    1.5189   -1.2376    3.9238 H   0  0  0  0  0  0  0  0  0  0  0  0
  5  6  2  0  0  0  0
  5  7  1  0  0  0  0
  2  3  1  0  0  0  0
  2  4  1  0  0  0  0
  2  5  1  0  0  0  0
  1  2  1  0  0  0  0
 27 28  2  0  0  0  0
 27 29  1  0  0  0  0
 23 24  1  0  0  0  0
 23 25  1  0  0  0  0
 23 26  1  0  0  0  0
 20 21  1  0  0  0  0
 20 22  1  0  0  0  0
 20 23  1  0  0  0  0
 17 18  1  0  0  0  0
 17 19  1  0  0  0  0
 17 20  1  0  0  0  0
 14 15  1  0  0  0  0
 14 16  1  0  0  0  0
 14 17  1  0  0  0  0
 11 12  1  0  0  0  0
 11 13  1  0  0  0  0
 11 14  1  0  0  0  0
  9 10  1  0  0  0  0
  9 11  1  0  0  0  0
  9 27  1  0  0  0  0
  7  8  1  0  0  0  0
  7  9  1  0  0  0  0
 31 32  1  0  0  0  0
 31 33  1  0  0  0  0
 31 34  1  0  0  0  0
 29 30  1  0  0  0  0
 29 31  1  0  0  0  0
M  CHG  1  23   1
M  END
$$$$
default_name
  -OEChem-01062215323D

 34 33  0     1  0  0  0  0  0999 V2000
   -3.8899   -3.6747    1.6490 H   0  0  0  0  0  0  0  0  0  0  0  0
   -3.9109   -2.6717    1.2250 C   0  0  0  0  0  0  0  0  0  0  0  0
   -4.6009   -2.0517    1.7950 H   0  0  0  0  0  0  0  0  0  0  0  0
   -4.2309   -2.7237    0.1860 H   0  0  0  0  0  0  0  0  0  0  0  0
   -2.5229   -2.0787    1.2980 C   0  0  0  0  0  0  0  0  0  0  0  0
   -1.5999   -2.7227    1.7810 O   0  0  0  0  0  0  0  0  0  0  0  0
   -2.3659   -0.8447    0.8120 N   0  0  0  0  0  0  0  0  0  0  0  0
   -3.1749   -0.3807    0.4220 H   0  0  0  0  0  0  0  0  0  0  0  0
   -1.0919   -0.1077    0.8170 C   0  0  1  0  0  0  0  0  0  0  0  0
   -0.4440   -0.5386    0.0514 H   0  0  0  0  0  0  0  0  0  0  0  0
   -1.3757    1.3630    0.4580 C   0  0  0  0  0  0  0  0  0  0  0  0
   -2.1591    1.7372    1.1189 H   0  0  0  0  0  0  0  0  0  0  0  0
   -0.4743    1.9546    0.6299 H   0  0  0  0  0  0  0  0  0  0  0  0
   -1.8372    1.5546   -0.9949 C   0  0  0  0  0  0  0  0  0  0  0  0
   -1.0748    1.1740   -1.6758 H   0  0  0  0  0  0  0  0  0  0  0  0
   -2.7649    1.0012   -1.1532 H   0  0  0  0  0  0  0  0  0  0  0  0
   -2.0767    3.0421   -1.2879 C   0  0  0  0  0  0  0  0  0  0  0  0
   -2.8298    3.4240   -0.5945 H   0  0  0  0  0  0  0  0  0  0  0  0
   -1.1440    3.5894   -1.1371 H   0  0  0  0  0  0  0  0  0  0  0  0
   -2.5614    3.2326   -2.7306 C   0  0  0  0  0  0  0  0  0  0  0  0
   -1.7976    2.8374   -3.4083 H   0  0  0  0  0  0  0  0  0  0  0  0
   -3.4722    2.6431   -2.8720 H   0  0  0  0  0  0  0  0  0  0  0  0
   -2.8239    4.6621   -3.0341 N   0  3  0  0  0  0  0  0  0  0  0  0
   -1.9818    5.2112   -2.9151 H   0  0  0  0  0  0  0  0  0  0  0  0
   -3.1430    4.7706   -3.9887 H   0  0  0  0  0  0  0  0  0  0  0  0
   -3.5367    5.0304   -2.4151 H   0  0  0  0  0  0  0  0  0  0  0  0
   -0.4025   -0.2406    2.1768 C   0  0  0  0  0  0  0  0  0  0  0  0
   -0.3835    0.7156    2.9429 O   0  0  0  0  0  0  0  0  0  0  0  0
    0.1860   -1.4093    2.4516 N   0  0  0  0  0  0  0  0  0  0  0  0
    0.0943   -2.1517    1.7782 H   0  0  0  0  0  0  0  0  0  0  0  0
    0.8840   -1.7008    3.7052 C   0  0  0  0  0  0  0  0  0  0  0  0
    0.1839   -1.6353    4.5408 H   0  0  0  0  0  0  0  0  0  0  0  0
    1.3116   -2.7037    3.6788 H   0  0  0  0  0  0  0  0  0  0  0  0
    1.6819   -0.9729    3.8670 H   0  0  0  0  0  0  0  0  0  0  0  0
  5  6  2  0  0  0  0
  5  7  1  0  0  0  0
  2  3  1  0  0  0  0
  2  4  1  0  0  0  0
  2  5  1  0  0  0  0
  1  2  1  0  0  0  0
 27 28  2  0  0  0  0
 27 29  1  0  0  0  0
 23 24  1  0  0  0  0
 23 25  1  0  0  0  0
 23 26  1  0  0  0  0
 20 21  1  0  0  0  0
 20 22  1  0  0  0  0
 20 23  1  0  0  0  0
 17 18  1  0  0  0  0
 17 19  1  0  0  0  0
 17 20  1  0  0  0  0
 14 15  1  0  0  0  0
 14 16  1  0  0  0  0
 14 17  1  0  0  0  0
 11 12  1  0  0  0  0
 11 13  1  0  0  0  0
 11 14  1  0  0  0  0
  9 10  1  0  0  0  0
  9 11  1  0  0  0  0
  9 27  1  0  0  0  0
  7  8  1  0  0  0  0
  7  9  1  0  0  0  0
 31 32  1  0  0  0  0
 31 33  1  0  0  0  0
 31 34  1  0  0  0  0
 29 30  1  0  0  0  0
 29 31  1  0  0  0  0
M  CHG  1  23   1
M  END
$$$$
default_name
  -OEChem-01062215323D

 34 33  0     1  0  0  0  0  0999 V2000
   -3.8899   -3.6747    1.6490 H   0  0  0  0  0  0  0  0  0  0  0  0
   -3.9109   -2.6717    1.2250 C   0  0  0  0  0  0  0  0  0  0  0  0
   -4.6009   -2.0517    1.7950 H   0  0  0  0  0  0  0  0  0  0  0  0
   -4.2309   -2.7237    0.1860 H   0  0  0  0  0  0  0  0  0  0  0  0
   -2.5229   -2.0787    1.2980 C   0  0  0  0  0  0  0  0  0  0  0  0
   -1.5999   -2.7227    1.7810 O   0  0  0  0  0  0  0  0  0  0  0  0
   -2.3659   -0.8447    0.8120 N   0  0  0  0  0  0  0  0  0  0  0  0
   -3.1749   -0.3807    0.4220 H   0  0  0  0  0  0  0  0  0  0  0  0
   -1.0919   -0.1077    0.8170 C   0  0  1  0  0  0  0  0  0  0  0  0
   -0.4440   -0.5386    0.0514 H   0  0  0  0  0  0  0  0  0  0  0  0
   -1.3757    1.3630    0.4580 C   0  0  0  0  0  0  0  0  0  0  0  0
   -2.1591    1.7372    1.1189 H   0  0  0  0  0  0  0  0  0  0  0  0
   -0.4743    1.9546    0.6299 H   0  0  0  0  0  0  0  0  0  0  0  0
   -1.8372    1.5546   -0.9949 C   0  0  0  0  0  0  0  0  0  0  0  0
   -1.0748    1.1740   -1.6758 H   0  0  0  0  0  0  0  0  0  0  0  0
   -2.7649    1.0012   -1.1532 H   0  0  0  0  0  0  0  0  0  0  0  0
   -2.0767    3.0421   -1.2879 C   0  0  0  0  0  0  0  0  0  0  0  0
   -2.8298    3.4240   -0.5945 H   0  0  0  0  0  0  0  0  0  0  0  0
   -1.1440    3.5894   -1.1371 H   0  0  0  0  0  0  0  0  0  0  0  0
   -2.5614    3.2326   -2.7306 C   0  0  0  0  0  0  0  0  0  0  0  0
   -1.7976    2.8374   -3.4083 H   0  0  0  0  0  0  0  0  0  0  0  0
   -3.4722    2.6431   -2.8720 H   0  0  0  0  0  0  0  0  0  0  0  0
   -2.8239    4.6621   -3.0341 N   0  3  0  0  0  0  0  0  0  0  0  0
   -1.9818    5.2112   -2.9151 H   0  0  0  0  0  0  0  0  0  0  0  0
   -3.1430    4.7706   -3.9887 H   0  0  0  0  0  0  0  0  0  0  0  0
   -3.5367    5.0304   -2.4151 H   0  0  0  0  0  0  0  0  0  0  0  0
   -0.4025   -0.2406    2.1768 C   0  0  0  0  0  0  0  0  0  0  0  0
   -0.6119    0.5962    3.0471 O   0  0  0  0  0  0  0  0  0  0  0  0
    0.4379   -1.2680    2.3377 N   0  0  0  0  0  0  0  0  0  0  0  0
    0.5264   -1.9260    1.5812 H   0  0  0  0  0  0  0  0  0  0  0  0
    1.1733   -1.5395    3.5742 C   0  0  0  0  0  0  0  0  0  0  0  0
    0.4697   -1.7359    4.3861 H   0  0  0  0  0  0  0  0  0  0  0  0
    1.8215   -2.4076    3.4491 H   0  0  0  0  0  0  0  0  0  0  0  0
    1.7798   -0.6731    3.8467 H   0  0  0  0  0  0  0  0  0  0  0  0
  5  6  2  0  0  0  0
  5  7  1  0  0  0  0
  2  3  1  0  0  0  0
  2  4  1  0  0  0  0
  2  5  1  0  0  0  0
  1  2  1  0  0  0  0
 27 28  2  0  0  0  0
 27 29  1  0  0  0  0
 23 24  1  0  0  0  0
 23 25  1  0  0  0  0
 23 26  1  0  0  0  0
 20 21  1  0  0  0  0
 20 22  1  0  0  0  0
 20 23  1  0  0  0  0
 17 18  1  0  0  0  0
 17 19  1  0  0  0  0
 17 20  1  0  0  0  0
 14 15  1  0  0  0  0
 14 16  1  0  0  0  0
 14 17  1  0  0  0  0
 11 12  1  0  0  0  0
 11 13  1  0  0  0  0
 11 14  1  0  0  0  0
  9 10  1  0  0  0  0
  9 11  1  0  0  0  0
  9 27  1  0  0  0  0
  7  8  1  0  0  0  0
  7  9  1  0  0  0  0
 31 32  1  0  0  0  0
 31 33  1  0  0  0  0
 31 34  1  0  0  0  0
 29 30  1  0  0  0  0
 29 31  1  0  0  0  0
M  CHG  1  23   1
M  END
$$$$
default_name
  -OEChem-01062215323D

 34 33  0     1  0  0  0  0  0999 V2000
   -3.8899   -3.6747    1.6490 H   0  0  0  0  0  0  0  0  0  0  0  0
   -3.9109   -2.6717    1.2250 C   0  0  0  0  0  0  0  0  0  0  0  0
   -4.6009   -2.0517    1.7950 H   0  0  0  0  0  0  0  0  0  0  0  0
   -4.2309   -2.7237    0.1860 H   0  0  0  0  0  0  0  0  0  0  0  0
   -2.5229   -2.0787    1.2980 C   0  0  0  0  0  0  0  0  0  0  0  0
   -1.5999   -2.7227    1.7810 O   0  0  0  0  0  0  0  0  0  0  0  0
   -2.3659   -0.8447    0.8120 N   0  0  0  0  0  0  0  0  0  0  0  0
   -3.1749   -0.3807    0.4220 H   0  0  0  0  0  0  0  0  0  0  0  0
   -1.0919   -0.1077    0.8170 C   0  0  1  0  0  0  0  0  0  0  0  0
   -0.4440   -0.5386    0.0514 H   0  0  0  0  0  0  0  0  0  0  0  0
   -1.3757    1.3630    0.4580 C   0  0  0  0  0  0  0  0  0  0  0  0
   -2.1591    1.7372    1.1189 H   0  0  0  0  0  0  0  0  0  0  0  0
   -0.4743    1.9546    0.6299 H   0  0  0  0  0  0  0  0  0  0  0  0
   -1.8372    1.5546   -0.9949 C   0  0  0  0  0  0  0  0  0  0  0  0
   -1.0748    1.1740   -1.6758 H   0  0  0  0  0  0  0  0  0  0  0  0
   -2.7649    1.0012   -1.1532 H   0  0  0  0  0  0  0  0  0  0  0  0
   -2.0767    3.0421   -1.2879 C   0  0  0  0  0  0  0  0  0  0  0  0
   -2.8298    3.4240   -0.5945 H   0  0  0  0  0  0  0  0  0  0  0  0
   -1.1440    3.5894   -1.1371 H   0  0  0  0  0  0  0  0  0  0  0  0
   -2.5614    3.2326   -2.7306 C   0  0  0  0  0  0  0  0  0  0  0  0
   -1.7976    2.8374   -3.4083 H   0  0  0  0  0  0  0  0  0  0  0  0
   -3.4722    2.6431   -2.8720 H   0  0  0  0  0  0  0  0  0  0  0  0
   -2.8239    4.6621   -3.0341 N   0  3  0  0  0  0  0  0  0  0  0  0
   -1.9818    5.2112   -2.9151 H   0  0  0  0  0  0  0  0  0  0  0  0
   -3.1430    4.7706   -3.9887 H   0  0  0  0  0  0  0  0  0  0  0  0
   -3.5367    5.0304   -2.4151 H   0  0  0  0  0  0  0  0  0  0  0  0
   -0.4025   -0.2406    2.1768 C   0  0  0  0  0  0  0  0  0  0  0  0
   -0.8075    0.4163    3.1286 O   0  0  0  0  0  0  0  0  0  0  0  0
    0.6513   -1.0603    2.2498 N   0  0  0  0  0  0  0  0  0  0  0  0
    0.8962   -1.5856    1.4269 H   0  0  0  0  0  0  0  0  0  0  0  0
    1.4186   -1.3020    3.4730 C   0  0  0  0  0  0  0  0  0  0  0  0
    0.7724   -1.7494    4.2313 H   0  0  0  0  0  0  0  0  0  0  0  0
    2.2511   -1.9775    3.2733 H   0  0  0  0  0  0  0  0  0  0  0  0
    1.8058   -0.3586    3.8643 H   0  0  0  0  0  0  0  0  0  0  0  0
  5  6  2  0  0  0  0
  5  7  1  0  0  0  0
  2  3  1  0  0  0  0
  2  4  1  0  0  0  0
  2  5  1  0  0  0  0
  1  2  1  0  0  0  0
 27 28  2  0  0  0  0
 27 29  1  0  0  0  0
 23 24  1  0  0  0  0
 23 25  1  0  0  0  0
 23 26  1  0  0  0  0
 20 21  1  0  0  0  0
 20 22  1  0  0  0  0
 20 23  1  0  0  0  0
 17 18  1  0  0  0  0
 17 19  1  0  0  0  0
 17 20  1  0  0  0  0
 14 15  1  0  0  0  0
 14 16  1  0  0  0  0
 14 17  1  0  0  0  0
 11 12  1  0  0  0  0
 11 13  1  0  0  0  0
 11 14  1  0  0  0  0
  9 10  1  0  0  0  0
  9 11  1  0  0  0  0
  9 27  1  0  0  0  0
  7  8  1  0  0  0  0
  7  9  1  0  0  0  0
 31 32  1  0  0  0  0
 31 33  1  0  0  0  0
 31 34  1  0  0  0  0
 29 30  1  0  0  0  0
 29 31  1  0  0  0  0
M  CHG  1  23   1
M  END
$$$$
default_name
  -OEChem-01062215323D

 34 33  0     1  0  0  0  0  0999 V2000
   -3.8899   -3.6747    1.6490 H   0  0  0  0  0  0  0  0  0  0  0  0
   -3.9109   -2.6717    1.2250 C   0  0  0  0  0  0  0  0  0  0  0  0
   -4.6009   -2.0517    1.7950 H   0  0  0  0  0  0  0  0  0  0  0  0
   -4.2309   -2.7237    0.1860 H   0  0  0  0  0  0  0  0  0  0  0  0
   -2.5229   -2.0787    1.2980 C   0  0  0  0  0  0  0  0  0  0  0  0
   -1.5999   -2.7227    1.7810 O   0  0  0  0  0  0  0  0  0  0  0  0
   -2.3659   -0.8447    0.8120 N   0  0  0  0  0  0  0  0  0  0  0  0
   -3.1749   -0.3807    0.4220 H   0  0  0  0  0  0  0  0  0  0  0  0
   -1.0919   -0.1077    0.8170 C   0  0  1  0  0  0  0  0  0  0  0  0
   -0.4440   -0.5386    0.0514 H   0  0  0  0  0  0  0  0  0  0  0  0
   -1.3757    1.3630    0.4580 C   0  0  0  0  0  0  0  0  0  0  0  0
   -2.1591    1.7372    1.1189 H   0  0  0  0  0  0  0  0  0  0  0  0
   -0.4743    1.9546    0.6299 H   0  0  0  0  0  0  0  0  0  0  0  0
   -1.8372    1.5546   -0.9949 C   0  0  0  0  0  0  0  0  0  0  0  0
   -1.0748    1.1740   -1.6758 H   0  0  0  0  0  0  0  0  0  0  0  0
   -2.7649    1.0012   -1.1532 H   0  0  0  0  0  0  0  0  0  0  0  0
   -2.0767    3.0421   -1.2879 C   0  0  0  0  0  0  0  0  0  0  0  0
   -2.8298    3.4240   -0.5945 H   0  0  0  0  0  0  0  0  0  0  0  0
   -1.1440    3.5894   -1.1371 H   0  0  0  0  0  0  0  0  0  0  0  0
   -2.5614    3.2326   -2.7306 C   0  0  0  0  0  0  0  0  0  0  0  0
   -1.7976    2.8374   -3.4083 H   0  0  0  0  0  0  0  0  0  0  0  0
   -3.4722    2.6431   -2.8720 H   0  0  0  0  0  0  0  0  0  0  0  0
   -2.8239    4.6621   -3.0341 N   0  3  0  0  0  0  0  0  0  0  0  0
   -1.9818    5.2112   -2.9151 H   0  0  0  0  0  0  0  0  0  0  0  0
   -3.1430    4.7706   -3.9887 H   0  0  0  0  0  0  0  0  0  0  0  0
   -3.5367    5.0304   -2.4151 H   0  0  0  0  0  0  0  0  0  0  0  0
   -0.4025   -0.2406    2.1768 C   0  0  0  0  0  0  0  0  0  0  0  0
   -0.9568    0.1880    3.1820 O   0  0  0  0  0  0  0  0  0  0  0  0
    0.8116   -0.8004    2.1939 N   0  0  0  0  0  0  0  0  0  0  0  0
    1.1787   -1.1538    1.3258 H   0  0  0  0  0  0  0  0  0  0  0  0
    1.6032   -1.0043    3.4085 C   0  0  0  0  0  0  0  0  0  0  0  0
    1.0713   -1.6747    4.0870 H   0  0  0  0  0  0  0  0  0  0  0  0
    2.5711   -1.4428    3.1633 H   0  0  0  0  0  0  0  0  0  0  0  0
    1.7582   -0.0509    3.9184 H   0  0  0  0  0  0  0  0  0  0  0  0
  5  6  2  0  0  0  0
  5  7  1  0  0  0  0
  2  3  1  0  0  0  0
  2  4  1  0  0  0  0
  2  5  1  0  0  0  0
  1  2  1  0  0  0  0
 27 28  2  0  0  0  0
 27 29  1  0  0  0  0
 23 24  1  0  0  0  0
 23 25  1  0  0  0  0
 23 26  1  0  0  0  0
 20 21  1  0  0  0  0
 20 22  1  0  0  0  0
 20 23  1  0  0  0  0
 17 18  1  0  0  0  0
 17 19  1  0  0  0  0
 17 20  1  0  0  0  0
 14 15  1  0  0  0  0
 14 16  1  0  0  0  0
 14 17  1  0  0  0  0
 11 12  1  0  0  0  0
 11 13  1  0  0  0  0
 11 14  1  0  0  0  0
  9 10  1  0  0  0  0
  9 11  1  0  0  0  0
  9 27  1  0  0  0  0
  7  8  1  0  0  0  0
  7  9  1  0  0  0  0
 31 32  1  0  0  0  0
 31 33  1  0  0  0  0
 31 34  1  0  0  0  0
 29 30  1  0  0  0  0
 29 31  1  0  0  0  0
M  CHG  1  23   1
M  END
$$$$
default_name
  -OEChem-01062215323D

 34 33  0     1  0  0  0  0  0999 V2000
   -3.8899   -3.6747    1.6490 H   0  0  0  0  0  0  0  0  0  0  0  0
   -3.9109   -2.6717    1.2250 C   0  0  0  0  0  0  0  0  0  0  0  0
   -4.6009   -2.0517    1.7950 H   0  0  0  0  0  0  0  0  0  0  0  0
   -4.2309   -2.7237    0.1860 H   0  0  0  0  0  0  0  0  0  0  0  0
   -2.5229   -2.0787    1.2980 C   0  0  0  0  0  0  0  0  0  0  0  0
   -1.5999   -2.7227    1.7810 O   0  0  0  0  0  0  0  0  0  0  0  0
   -2.3659   -0.8447    0.8120 N   0  0  0  0  0  0  0  0  0  0  0  0
   -3.1749   -0.3807    0.4220 H   0  0  0  0  0  0  0  0  0  0  0  0
   -1.0919   -0.1077    0.8170 C   0  0  1  0  0  0  0  0  0  0  0  0
   -0.4440   -0.5386    0.0514 H   0  0  0  0  0  0  0  0  0  0  0  0
   -1.3757    1.3630    0.4580 C   0  0  0  0  0  0  0  0  0  0  0  0
   -2.1591    1.7372    1.1189 H   0  0  0  0  0  0  0  0  0  0  0  0
   -0.4743    1.9546    0.6299 H   0  0  0  0  0  0  0  0  0  0  0  0
   -1.8372    1.5546   -0.9949 C   0  0  0  0  0  0  0  0  0  0  0  0
   -1.0748    1.1740   -1.6758 H   0  0  0  0  0  0  0  0  0  0  0  0
   -2.7649    1.0012   -1.1532 H   0  0  0  0  0  0  0  0  0  0  0  0
   -2.0767    3.0421   -1.2879 C   0  0  0  0  0  0  0  0  0  0  0  0
   -2.8298    3.4240   -0.5945 H   0  0  0  0  0  0  0  0  0  0  0  0
   -1.1440    3.5894   -1.1371 H   0  0  0  0  0  0  0  0  0  0  0  0
   -2.5614    3.2326   -2.7306 C   0  0  0  0  0  0  0  0  0  0  0  0
   -1.7976    2.8374   -3.4083 H   0  0  0  0  0  0  0  0  0  0  0  0
   -3.4722    2.6431   -2.8720 H   0  0  0  0  0  0  0  0  0  0  0  0
   -2.8239    4.6621   -3.0341 N   0  3  0  0  0  0  0  0  0  0  0  0
   -1.9818    5.2112   -2.9151 H   0  0  0  0  0  0  0  0  0  0  0  0
   -3.1430    4.7706   -3.9887 H   0  0  0  0  0  0  0  0  0  0  0  0
   -3.5367    5.0304   -2.4151 H   0  0  0  0  0  0  0  0  0  0  0  0
   -0.4025   -0.2406    2.1768 C   0  0  0  0  0  0  0  0  0  0  0  0
   -1.0498   -0.0731    3.2037 O   0  0  0  0  0  0  0  0  0  0  0  0
    0.9080   -0.5059    2.1738 N   0  0  0  0  0  0  0  0  0  0  0  0
    1.3545   -0.6599    1.2850 H   0  0  0  0  0  0  0  0  0  0  0  0
    1.7145   -0.6668    3.3851 C   0  0  0  0  0  0  0  0  0  0  0  0
    1.3461   -1.5170    3.9630 H   0  0  0  0  0  0  0  0  0  0  0  0
    2.7597   -0.8399    3.1266 H   0  0  0  0  0  0  0  0  0  0  0  0
    1.6403    0.2290    4.0056 H   0  0  0  0  0  0  0  0  0  0  0  0
  5  6  2  0  0  0  0
  5  7  1  0  0  0  0
  2  3  1  0  0  0  0
  2  4  1  0  0  0  0
  2  5  1  0  0  0  0
  1  2  1  0  0  0  0
 27 28  2  0  0  0  0
 27 29  1  0  0  0  0
 23 24  1  0  0  0  0
 23 25  1  0  0  0  0
 23 26  1  0  0  0  0
 20 21  1  0  0  0  0
 20 22  1  0  0  0  0
 20 23  1  0  0  0  0
 17 18  1  0  0  0  0
 17 19  1  0  0  0  0
 17 20  1  0  0  0  0
 14 15  1  0  0  0  0
 14 16  1  0  0  0  0
 14 17  1  0  0  0  0
 11 12  1  0  0  0  0
 11 13  1  0  0  0  0
 11 14  1  0  0  0  0
  9 10  1  0  0  0  0
  9 11  1  0  0  0  0
  9 27  1  0  0  0  0
  7  8  1  0  0  0  0
  7  9  1  0  0  0  0
 31 32  1  0  0  0  0
 31 33  1  0  0  0  0
 31 34  1  0  0  0  0
 29 30  1  0  0  0  0
 29 31  1  0  0  0  0
M  CHG  1  23   1
M  END
$$$$
default_name
  -OEChem-01062215323D

 34 33  0     1  0  0  0  0  0999 V2000
   -3.8899   -3.6747    1.6490 H   0  0  0  0  0  0  0  0  0  0  0  0
   -3.9109   -2.6717    1.2250 C   0  0  0  0  0  0  0  0  0  0  0  0
   -4.6009   -2.0517    1.7950 H   0  0  0  0  0  0  0  0  0  0  0  0
   -4.2309   -2.7237    0.1860 H   0  0  0  0  0  0  0  0  0  0  0  0
   -2.5229   -2.0787    1.2980 C   0  0  0  0  0  0  0  0  0  0  0  0
   -1.5999   -2.7227    1.7810 O   0  0  0  0  0  0  0  0  0  0  0  0
   -2.3659   -0.8447    0.8120 N   0  0  0  0  0  0  0  0  0  0  0  0
   -3.1749   -0.3807    0.4220 H   0  0  0  0  0  0  0  0  0  0  0  0
   -1.0919   -0.1077    0.8170 C   0  0  1  0  0  0  0  0  0  0  0  0
   -0.4440   -0.5386    0.0514 H   0  0  0  0  0  0  0  0  0  0  0  0
   -1.3757    1.3630    0.4580 C   0  0  0  0  0  0  0  0  0  0  0  0
   -2.1591    1.7372    1.1189 H   0  0  0  0  0  0  0  0  0  0  0  0
   -0.4743    1.9546    0.6299 H   0  0  0  0  0  0  0  0  0  0  0  0
   -1.8372    1.5546   -0.9949 C   0  0  0  0  0  0  0  0  0  0  0  0
   -1.0748    1.1740   -1.6758 H   0  0  0  0  0  0  0  0  0  0  0  0
   -2.7649    1.0012   -1.1532 H   0  0  0  0  0  0  0  0  0  0  0  0
   -2.0767    3.0421   -1.2879 C   0  0  0  0  0  0  0  0  0  0  0  0
   -2.8298    3.4240   -0.5945 H   0  0  0  0  0  0  0  0  0  0  0  0
   -1.1440    3.5894   -1.1371 H   0  0  0  0  0  0  0  0  0  0  0  0
   -2.5614    3.2326   -2.7306 C   0  0  0  0  0  0  0  0  0  0  0  0
   -1.7976    2.8374   -3.4083 H   0  0  0  0  0  0  0  0  0  0  0  0
   -3.4722    2.6431   -2.8720 H   0  0  0  0  0  0  0  0  0  0  0  0
   -2.8239    4.6621   -3.0341 N   0  3  0  0  0  0  0  0  0  0  0  0
   -1.9818    5.2112   -2.9151 H   0  0  0  0  0  0  0  0  0  0  0  0
   -3.1430    4.7706   -3.9887 H   0  0  0  0  0  0  0  0  0  0  0  0
   -3.5367    5.0304   -2.4151 H   0  0  0  0  0  0  0  0  0  0  0  0
   -0.4025   -0.2406    2.1768 C   0  0  0  0  0  0  0  0  0  0  0  0
   -1.0800   -0.3492    3.1920 O   0  0  0  0  0  0  0  0  0  0  0  0
    0.9338   -0.1969    2.1909 N   0  0  0  0  0  0  0  0  0  0  0  0
    1.4117   -0.1377    1.3070 H   0  0  0  0  0  0  0  0  0  0  0  0
    1.7449   -0.3124    3.4043 C   0  0  0  0  0  0  0  0  0  0  0  0
    1.5781   -1.2871    3.8679 H   0  0  0  0  0  0  0  0  0  0  0  0
    2.8041   -0.2099    3.1657 H   0  0  0  0  0  0  0  0  0  0  0  0
    1.4601    0.4621    4.1198 H   0  0  0  0  0  0  0  0  0  0  0  0
  5  6  2  0  0  0  0
  5  7  1  0  0  0  0
  2  3  1  0  0  0  0
  2  4  1  0  0  0  0
  2  5  1  0  0  0  0
  1  2  1  0  0  0  0
 27 28  2  0  0  0  0
 27 29  1  0  0  0  0
 23 24  1  0  0  0  0
 23 25  1  0  0  0  0
 23 26  1  0  0  0  0
 20 21  1  0  0  0  0
 20 22  1  0  0  0  0
 20 23  1  0  0  0  0
 17 18  1  0  0  0  0
 17 19  1  0  0  0  0
 17 20  1  0  0  0  0
 14 15  1  0  0  0  0
 14 16  1  0  0  0  0
 14 17  1  0  0  0  0
 11 12  1  0  0  0  0
 11 13  1  0  0  0  0
 11 14  1  0  0  0  0
  9 10  1  0  0  0  0
  9 11  1  0  0  0  0
  9 27  1  0  0  0  0
  7  8  1  0  0  0  0
  7  9  1  0  0  0  0
 31 32  1  0  0  0  0
 31 33  1  0  0  0  0
 31 34  1  0  0  0  0
 29 30  1  0  0  0  0
 29 31  1  0  0  0  0
M  CHG  1  23   1
M  END
$$$$
default_name
  -OEChem-01062215323D

 34 33  0     1  0  0  0  0  0999 V2000
   -3.8899   -3.6747    1.6490 H   0  0  0  0  0  0  0  0  0  0  0  0
   -3.9109   -2.6717    1.2250 C   0  0  0  0  0  0  0  0  0  0  0  0
   -4.6009   -2.0517    1.7950 H   0  0  0  0  0  0  0  0  0  0  0  0
   -4.2309   -2.7237    0.1860 H   0  0  0  0  0  0  0  0  0  0  0  0
   -2.5229   -2.0787    1.2980 C   0  0  0  0  0  0  0  0  0  0  0  0
   -1.5999   -2.7227    1.7810 O   0  0  0  0  0  0  0  0  0  0  0  0
   -2.3659   -0.8447    0.8120 N   0  0  0  0  0  0  0  0  0  0  0  0
   -3.1749   -0.3807    0.4220 H   0  0  0  0  0  0  0  0  0  0  0  0
   -1.0919   -0.1077    0.8170 C   0  0  1  0  0  0  0  0  0  0  0  0
   -0.4440   -0.5386    0.0514 H   0  0  0  0  0  0  0  0  0  0  0  0
   -1.3757    1.3630    0.4580 C   0  0  0  0  0  0  0  0  0  0  0  0
   -2.1591    1.7372    1.1189 H   0  0  0  0  0  0  0  0  0  0  0  0
   -0.4743    1.9546    0.6299 H   0  0  0  0  0  0  0  0  0  0  0  0
   -1.8372    1.5546   -0.9949 C   0  0  0  0  0  0  0  0  0  0  0  0
   -1.0748    1.1740   -1.6758 H   0  0  0  0  0  0  0  0  0  0  0  0
   -2.7649    1.0012   -1.1532 H   0  0  0  0  0  0  0  0  0  0  0  0
   -2.0767    3.0421   -1.2879 C   0  0  0  0  0  0  0  0  0  0  0  0
   -2.8298    3.4240   -0.5945 H   0  0  0  0  0  0  0  0  0  0  0  0
   -1.1440    3.5894   -1.1371 H   0  0  0  0  0  0  0  0  0  0  0  0
   -2.5614    3.2326   -2.7306 C   0  0  0  0  0  0  0  0  0  0  0  0
   -1.7976    2.8374   -3.4083 H   0  0  0  0  0  0  0  0  0  0  0  0
   -3.4722    2.6431   -2.8720 H   0  0  0  0  0  0  0  0  0  0  0  0
   -2.8239    4.6621   -3.0341 N   0  3  0  0  0  0  0  0  0  0  0  0
   -1.9818    5.2112   -2.9151 H   0  0  0  0  0  0  0  0  0  0  0  0
   -3.1430    4.7706   -3.9887 H   0  0  0  0  0  0  0  0  0  0  0  0
   -3.5367    5.0304   -2.4151 H   0  0  0  0  0  0  0  0  0  0  0  0
   -0.4025   -0.2406    2.1768 C   0  0  0  0  0  0  0  0  0  0  0  0
   -1.0454   -0.6215    3.1479 O   0  0  0  0  0  0  0  0  0  0  0  0
    0.8873    0.1054    2.2440 N   0  0  0  0  0  0  0  0  0  0  0  0
    1.3463    0.3773    1.3905 H   0  0  0  0  0  0  0  0  0  0  0  0
    1.6924    0.0346    3.4648 C   0  0  0  0  0  0  0  0  0  0  0  0
    1.7515   -1.0005    3.8080 H   0  0  0  0  0  0  0  0  0  0  0  0
    2.7012    0.4043    3.2779 H   0  0  0  0  0  0  0  0  0  0  0  0
    1.2298    0.6325    4.2532 H   0  0  0  0  0  0  0  0  0  0  0  0
  5  6  2  0  0  0  0
  5  7  1  0  0  0  0
  2  3  1  0  0  0  0
  2  4  1  0  0  0  0
  2  5  1  0  0  0  0
  1  2  1  0  0  0  0
 27 28  2  0  0  0  0
 27 29  1  0  0  0  0
 23 24  1  0  0  0  0
 23 25  1  0  0  0  0
 23 26  1  0  0  0  0
 20 21  1  0  0  0  0
 20 22  1  0  0  0  0
 20 23  1  0  0  0  0
 17 18  1  0  0  0  0
 17 19  1  0  0  0  0
 17 20  1  0  0  0  0
 14 15  1  0  0  0  0
 14 16  1  0  0  0  0
 14 17  1  0  0  0  0
 11 12  1  0  0  0  0
 11 13  1  0  0  0  0
 11 14  1  0  0  0  0
  9 10  1  0  0  0  0
  9 11  1  0  0  0  0
  9 27  1  0  0  0  0
  7  8  1  0  0  0  0
  7  9  1  0  0  0  0
 31 32  1  0  0  0  0
 31 33  1  0  0  0  0
 31 34  1  0  0  0  0
 29 30  1  0  0  0  0
 29 31  1  0  0  0  0
M  CHG  1  23   1
M  END
$$$$
default_name
  -OEChem-01062215323D

 34 33  0     1  0  0  0  0  0999 V2000
   -3.8899   -3.6747    1.6490 H   0  0  0  0  0  0  0  0  0  0  0  0
   -3.9109   -2.6717    1.2250 C   0  0  0  0  0  0  0  0  0  0  0  0
   -4.6009   -2.0517    1.7950 H   0  0  0  0  0  0  0  0  0  0  0  0
   -4.2309   -2.7237    0.1860 H   0  0  0  0  0  0  0  0  0  0  0  0
   -2.5229   -2.0787    1.2980 C   0  0  0  0  0  0  0  0  0  0  0  0
   -1.5999   -2.7227    1.7810 O   0  0  0  0  0  0  0  0  0  0  0  0
   -2.3659   -0.8447    0.8120 N   0  0  0  0  0  0  0  0  0  0  0  0
   -3.1749   -0.3807    0.4220 H   0  0  0  0  0  0  0  0  0  0  0  0
   -1.0919   -0.1077    0.8170 C   0  0  1  0  0  0  0  0  0  0  0  0
   -0.5548   -0.3460   -0.1029 H   0  0  0  0  0  0  0  0  0  0  0  0
   -1.3994    1.4014    0.8365 C   0  0  0  0  0  0  0  0  0  0  0  0
   -2.0852    1.6058    1.6602 H   0  0  0  0  0  0  0  0  0  0  0  0
   -0.4752    1.9535    1.0184 H   0  0  0  0  0  0  0  0  0  0  0  0
   -2.0428    1.9063   -0.4641 C   0  0  0  0  0  0  0  0  0  0  0  0
   -1.3804    1.6998   -1.3059 H   0  0  0  0  0  0  0  0  0  0  0  0
   -2.9908    1.3880   -0.6209 H   0  0  0  0  0  0  0  0  0  0  0  0
   -2.2975    3.4178   -0.3828 C   0  0  0  0  0  0  0  0  0  0  0  0
   -2.9490    3.6228    0.4700 H   0  0  0  0  0  0  0  0  0  0  0  0
   -1.3457    3.9319   -0.2353 H   0  0  0  0  0  0  0  0  0  0  0  0
   -2.9625    3.9189   -1.6709 C   0  0  0  0  0  0  0  0  0  0  0  0
   -2.2987    3.6975   -2.5130 H   0  0  0  0  0  0  0  0  0  0  0  0
   -3.8922    3.3618   -1.8216 H   0  0  0  0  0  0  0  0  0  0  0  0
   -3.2423    5.3757   -1.6097 N   0  3  0  0  0  0  0  0  0  0  0  0
   -2.3844    5.8974   -1.4808 H   0  0  0  0  0  0  0  0  0  0  0  0
   -3.6810    5.6903   -2.4662 H   0  0  0  0  0  0  0  0  0  0  0  0
   -3.8637    5.5848   -0.8370 H   0  0  0  0  0  0  0  0  0  0  0  0
   -0.2338   -0.5310    2.0114 C   0  0  0  0  0  0  0  0  0  0  0  0
   -0.6675   -1.3552    2.8076 O   0  0  0  0  0  0  0  0  0  0  0  0
    0.9587    0.0585    2.1461 N   0  0  0  0  0  0  0  0  0  0  0  0
    1.2493    0.7012    1.4280 H   0  0  0  0  0  0  0  0  0  0  0  0
    1.9002   -0.2345    3.2283 C   0  0  0  0  0  0  0  0  0  0  0  0
    2.2065   -1.2815    3.1772 H   0  0  0  0  0  0  0  0  0  0  0  0
    2.7848    0.3981    3.1453 H   0  0  0  0  0  0  0  0  0  0  0  0
    1.4235   -0.0623    4.1958 H   0  0  0  0  0  0  0  0  0  0  0  0
  5  6  2  0  0  0  0
  5  7  1  0  0  0  0
  2  3  1  0  0  0  0
  2  4  1  0  0  0  0
  2  5  1  0  0  0  0
  1  2  1  0  0  0  0
 27 28  2  0  0  0  0
 27 29  1  0  0  0  0
 23 24  1  0  0  0  0
 23 25  1  0  0  0  0
 23 26  1  0  0  0  0
 20 21  1  0  0  0  0
 20 22  1  0  0  0  0
 20 23  1  0  0  0  0
 17 18  1  0  0  0  0
 17 19  1  0  0  0  0
 17 20  1  0  0  0  0
 14 15  1  0  0  0  0
 14 16  1  0  0  0  0
 14 17  1  0  0  0  0
 11 12  1  0  0  0  0
 11 13  1  0  0  0  0
 11 14  1  0  0  0  0
  9 10  1  0  0  0  0
  9 11  1  0  0  0  0
  9 27  1  0  0  0  0
  7  8  1  0  0  0  0
  7  9  1  0  0  0  0
 31 32  1  0  0  0  0
 31 33  1  0  0  0  0
 31 34  1  0  0  0  0
 29 30  1  0  0  0  0
 29 31  1  0  0  0  0
M  CHG  1  23   1
M  END
$$$$
default_name
  -OEChem-01062215323D

 34 33  0     1  0  0  0  0  0999 V2000
   -3.8899   -3.6747    1.6490 H   0  0  0  0  0  0  0  0  0  0  0  0
   -3.9109   -2.6717    1.2250 C   0  0  0  0  0  0  0  0  0  0  0  0
   -4.6009   -2.0517    1.7950 H   0  0  0  0  0  0  0  0  0  0  0  0
   -4.2309   -2.7237    0.1860 H   0  0  0  0  0  0  0  0  0  0  0  0
   -2.5229   -2.0787    1.2980 C   0  0  0  0  0  0  0  0  0  0  0  0
   -1.5999   -2.7227    1.7810 O   0  0  0  0  0  0  0  0  0  0  0  0
   -2.3659   -0.8447    0.8120 N   0  0  0  0  0  0  0  0  0  0  0  0
   -3.1749   -0.3807    0.4220 H   0  0  0  0  0  0  0  0  0  0  0  0
   -1.0919   -0.1077    0.8170 C   0  0  1  0  0  0  0  0  0  0  0  0
   -0.5548   -0.3460   -0.1029 H   0  0  0  0  0  0  0  0  0  0  0  0
   -1.3994    1.4014    0.8365 C   0  0  0  0  0  0  0  0  0  0  0  0
   -2.0852    1.6058    1.6602 H   0  0  0  0  0  0  0  0  0  0  0  0
   -0.4752    1.9535    1.0184 H   0  0  0  0  0  0  0  0  0  0  0  0
   -2.0428    1.9063   -0.4641 C   0  0  0  0  0  0  0  0  0  0  0  0
   -1.3804    1.6998   -1.3059 H   0  0  0  0  0  0  0  0  0  0  0  0
   -2.9908    1.3880   -0.6209 H   0  0  0  0  0  0  0  0  0  0  0  0
   -2.2975    3.4178   -0.3828 C   0  0  0  0  0  0  0  0  0  0  0  0
   -2.9490    3.6228    0.4700 H   0  0  0  0  0  0  0  0  0  0  0  0
   -1.3457    3.9319   -0.2353 H   0  0  0  0  0  0  0  0  0  0  0  0
   -2.9625    3.9189   -1.6709 C   0  0  0  0  0  0  0  0  0  0  0  0
   -2.2987    3.6975   -2.5130 H   0  0  0  0  0  0  0  0  0  0  0  0
   -3.8922    3.3618   -1.8216 H   0  0  0  0  0  0  0  0  0  0  0  0
   -3.2423    5.3757   -1.6097 N   0  3  0  0  0  0  0  0  0  0  0  0
   -2.3844    5.8974   -1.4808 H   0  0  0  0  0  0  0  0  0  0  0  0
   -3.6810    5.6903   -2.4662 H   0  0  0  0  0  0  0  0  0  0  0  0
   -3.8637    5.5848   -0.8370 H   0  0  0  0  0  0  0  0  0  0  0  0
   -0.2338   -0.5310    2.0114 C   0  0  0  0  0  0  0  0  0  0  0  0
   -0.5316   -1.5360    2.6459 O   0  0  0  0  0  0  0  0  0  0  0  0
    0.8010    0.2540    2.3287 N   0  0  0  0  0  0  0  0  0  0  0  0
    0.9923    1.0431    1.7338 H   0  0  0  0  0  0  0  0  0  0  0  0
    1.7200   -0.0095    3.4375 C   0  0  0  0  0  0  0  0  0  0  0  0
    2.2390   -0.9556    3.2693 H   0  0  0  0  0  0  0  0  0  0  0  0
    2.4574    0.7897    3.5193 H   0  0  0  0  0  0  0  0  0  0  0  0
    1.1639   -0.0841    4.3746 H   0  0  0  0  0  0  0  0  0  0  0  0
  5  6  2  0  0  0  0
  5  7  1  0  0  0  0
  2  3  1  0  0  0  0
  2  4  1  0  0  0  0
  2  5  1  0  0  0  0
  1  2  1  0  0  0  0
 27 28  2  0  0  0  0
 27 29  1  0  0  0  0
 23 24  1  0  0  0  0
 23 25  1  0  0  0  0
 23 26  1  0  0  0  0
 20 21  1  0  0  0  0
 20 22  1  0  0  0  0
 20 23  1  0  0  0  0
 17 18  1  0  0  0  0
 17 19  1  0  0  0  0
 17 20  1  0  0  0  0
 14 15  1  0  0  0  0
 14 16  1  0  0  0  0
 14 17  1  0  0  0  0
 11 12  1  0  0  0  0
 11 13  1  0  0  0  0
 11 14  1  0  0  0  0
  9 10  1  0  0  0  0
  9 11  1  0  0  0  0
  9 27  1  0  0  0  0
  7  8  1  0  0  0  0
  7  9  1  0  0  0  0
 31 32  1  0  0  0  0
 31 33  1  0  0  0  0
 31 34  1  0  0  0  0
 29 30  1  0  0  0  0
 29 31  1  0  0  0  0
M  CHG  1  23   1
M  END
$$$$
default_name
  -OEChem-01062215323D

 34 33  0     1  0  0  0  0  0999 V2000
   -3.8899   -3.6747    1.6490 H   0  0  0  0  0  0  0  0  0  0  0  0
   -3.9109   -2.6717    1.2250 C   0  0  0  0  0  0  0  0  0  0  0  0
   -4.6009   -2.0517    1.7950 H   0  0  0  0  0  0  0  0  0  0  0  0
   -4.2309   -2.7237    0.1860 H   0  0  0  0  0  0  0  0  0  0  0  0
   -2.5229   -2.0787    1.2980 C   0  0  0  0  0  0  0  0  0  0  0  0
   -1.5999   -2.7227    1.7810 O   0  0  0  0  0  0  0  0  0  0  0  0
   -2.3659   -0.8447    0.8120 N   0  0  0  0  0  0  0  0  0  0  0  0
   -3.1749   -0.3807    0.4220 H   0  0  0  0  0  0  0  0  0  0  0  0
   -1.0919   -0.1077    0.8170 C   0  0  1  0  0  0  0  0  0  0  0  0
   -0.5548   -0.3460   -0.1029 H   0  0  0  0  0  0  0  0  0  0  0  0
   -1.3994    1.4014    0.8365 C   0  0  0  0  0  0  0  0  0  0  0  0
   -2.0852    1.6058    1.6602 H   0  0  0  0  0  0  0  0  0  0  0  0
   -0.4752    1.9535    1.0184 H   0  0  0  0  0  0  0  0  0  0  0  0
   -2.0428    1.9063   -0.4641 C   0  0  0  0  0  0  0  0  0  0  0  0
   -1.3804    1.6998   -1.3059 H   0  0  0  0  0  0  0  0  0  0  0  0
   -2.9908    1.3880   -0.6209 H   0  0  0  0  0  0  0  0  0  0  0  0
   -2.2975    3.4178   -0.3828 C   0  0  0  0  0  0  0  0  0  0  0  0
   -2.9490    3.6228    0.4700 H   0  0  0  0  0  0  0  0  0  0  0  0
   -1.3457    3.9319   -0.2353 H   0  0  0  0  0  0  0  0  0  0  0  0
   -2.9625    3.9189   -1.6709 C   0  0  0  0  0  0  0  0  0  0  0  0
   -2.2987    3.6975   -2.5130 H   0  0  0  0  0  0  0  0  0  0  0  0
   -3.8922    3.3618   -1.8216 H   0  0  0  0  0  0  0  0  0  0  0  0
   -3.2423    5.3757   -1.6097 N   0  3  0  0  0  0  0  0  0  0  0  0
   -2.3844    5.8974   -1.4808 H   0  0  0  0  0  0  0  0  0  0  0  0
   -3.6810    5.6903   -2.4662 H   0  0  0  0  0  0  0  0  0  0  0  0
   -3.8637    5.5848   -0.8370 H   0  0  0  0  0  0  0  0  0  0  0  0
   -0.2338   -0.5310    2.0114 C   0  0  0  0  0  0  0  0  0  0  0  0
   -0.3523   -1.6597    2.4733 O   0  0  0  0  0  0  0  0  0  0  0  0
    0.5962    0.3845    2.5221 N   0  0  0  0  0  0  0  0  0  0  0  0
    0.6531    1.2771    2.0604 H   0  0  0  0  0  0  0  0  0  0  0  0
    1.4854    0.1409    3.6593 C   0  0  0  0  0  0  0  0  0  0  0  0
    2.1980   -0.6476    3.4079 H   0  0  0  0  0  0  0  0  0  0  0  0
    2.0353    1.0477    3.9139 H   0  0  0  0  0  0  0  0  0  0  0  0
    0.9047   -0.1836    4.5256 H   0  0  0  0  0  0  0  0  0  0  0  0
  5  6  2  0  0  0  0
  5  7  1  0  0  0  0
  2  3  1  0  0  0  0
  2  4  1  0  0  0  0
  2  5  1  0  0  0  0
  1  2  1  0  0  0  0
 27 28  2  0  0  0  0
 27 29  1  0  0  0  0
 23 24  1  0  0  0  0
 23 25  1  0  0  0  0
 23 26  1  0  0  0  0
 20 21  1  0  0  0  0
 20 22  1  0  0  0  0
 20 23  1  0  0  0  0
 17 18  1  0  0  0  0
 17 19  1  0  0  0  0
 17 20  1  0  0  0  0
 14 15  1  0  0  0  0
 14 16  1  0  0  0  0
 14 17  1  0  0  0  0
 11 12  1  0  0  0  0
 11 13  1  0  0  0  0
 11 14  1  0  0  0  0
  9 10  1  0  0  0  0
  9 11  1  0  0  0  0
  9 27  1  0  0  0  0
  7  8  1  0  0  0  0
  7  9  1  0  0  0  0
 31 32  1  0  0  0  0
 31 33  1  0  0  0  0
 31 34  1  0  0  0  0
 29 30  1  0  0  0  0
 29 31  1  0  0  0  0
M  CHG  1  23   1
M  END
$$$$
default_name
  -OEChem-01062215323D

 34 33  0     1  0  0  0  0  0999 V2000
   -3.8899   -3.6747    1.6490 H   0  0  0  0  0  0  0  0  0  0  0  0
   -3.9109   -2.6717    1.2250 C   0  0  0  0  0  0  0  0  0  0  0  0
   -4.6009   -2.0517    1.7950 H   0  0  0  0  0  0  0  0  0  0  0  0
   -4.2309   -2.7237    0.1860 H   0  0  0  0  0  0  0  0  0  0  0  0
   -2.5229   -2.0787    1.2980 C   0  0  0  0  0  0  0  0  0  0  0  0
   -1.5999   -2.7227    1.7810 O   0  0  0  0  0  0  0  0  0  0  0  0
   -2.3659   -0.8447    0.8120 N   0  0  0  0  0  0  0  0  0  0  0  0
   -3.1749   -0.3807    0.4220 H   0  0  0  0  0  0  0  0  0  0  0  0
   -1.0919   -0.1077    0.8170 C   0  0  1  0  0  0  0  0  0  0  0  0
   -0.5548   -0.3460   -0.1029 H   0  0  0  0  0  0  0  0  0  0  0  0
   -1.3994    1.4014    0.8365 C   0  0  0  0  0  0  0  0  0  0  0  0
   -2.0852    1.6058    1.6602 H   0  0  0  0  0  0  0  0  0  0  0  0
   -0.4752    1.9535    1.0184 H   0  0  0  0  0  0  0  0  0  0  0  0
   -2.0428    1.9063   -0.4641 C   0  0  0  0  0  0  0  0  0  0  0  0
   -1.3804    1.6998   -1.3059 H   0  0  0  0  0  0  0  0  0  0  0  0
   -2.9908    1.3880   -0.6209 H   0  0  0  0  0  0  0  0  0  0  0  0
   -2.2975    3.4178   -0.3828 C   0  0  0  0  0  0  0  0  0  0  0  0
   -2.9490    3.6228    0.4700 H   0  0  0  0  0  0  0  0  0  0  0  0
   -1.3457    3.9319   -0.2353 H   0  0  0  0  0  0  0  0  0  0  0  0
   -2.9625    3.9189   -1.6709 C   0  0  0  0  0  0  0  0  0  0  0  0
   -2.2987    3.6975   -2.5130 H   0  0  0  0  0  0  0  0  0  0  0  0
   -3.8922    3.3618   -1.8216 H   0  0  0  0  0  0  0  0  0  0  0  0
   -3.2423    5.3757   -1.6097 N   0  3  0  0  0  0  0  0  0  0  0  0
   -2.3844    5.8974   -1.4808 H   0  0  0  0  0  0  0  0  0  0  0  0
   -3.6810    5.6903   -2.4662 H   0  0  0  0  0  0  0  0  0  0  0  0
   -3.8637    5.5848   -0.8370 H   0  0  0  0  0  0  0  0  0  0  0  0
   -0.2338   -0.5310    2.0114 C   0  0  0  0  0  0  0  0  0  0  0  0
   -0.1417   -1.7179    2.3014 O   0  0  0  0  0  0  0  0  0  0  0  0
    0.3581    0.4411    2.7132 N   0  0  0  0  0  0  0  0  0  0  0  0
    0.2549    1.3872    2.3856 H   0  0  0  0  0  0  0  0  0  0  0  0
    1.2126    0.2067    3.8786 C   0  0  0  0  0  0  0  0  0  0  0  0
    2.0862   -0.3785    3.5836 H   0  0  0  0  0  0  0  0  0  0  0  0
    1.5473    1.1543    4.3023 H   0  0  0  0  0  0  0  0  0  0  0  0
    0.6636   -0.3539    4.6384 H   0  0  0  0  0  0  0  0  0  0  0  0
  5  6  2  0  0  0  0
  5  7  1  0  0  0  0
  2  3  1  0  0  0  0
  2  4  1  0  0  0  0
  2  5  1  0  0  0  0
  1  2  1  0  0  0  0
 27 28  2  0  0  0  0
 27 29  1  0  0  0  0
 23 24  1  0  0  0  0
 23 25  1  0  0  0  0
 23 26  1  0  0  0  0
 20 21  1  0  0  0  0
 20 22  1  0  0  0  0
 20 23  1  0  0  0  0
 17 18  1  0  0  0  0
 17 19  1  0  0  0  0
 17 20  1  0  0  0  0
 14 15  1  0  0  0  0
 14 16  1  0  0  0  0
 14 17  1  0  0  0  0
 11 12  1  0  0  0  0
 11 13  1  0  0  0  0
 11 14  1  0  0  0  0
  9 10  1  0  0  0  0
  9 11  1  0  0  0  0
  9 27  1  0  0  0  0
  7  8  1  0  0  0  0
  7  9  1  0  0  0  0
 31 32  1  0  0  0  0
 31 33  1  0  0  0  0
 31 34  1  0  0  0  0
 29 30  1  0  0  0  0
 29 31  1  0  0  0  0
M  CHG  1  23   1
M  END
$$$$
default_name
  -OEChem-01062215323D

 34 33  0     1  0  0  0  0  0999 V2000
   -3.8899   -3.6747    1.6490 H   0  0  0  0  0  0  0  0  0  0  0  0
   -3.9109   -2.6717    1.2250 C   0  0  0  0  0  0  0  0  0  0  0  0
   -4.6009   -2.0517    1.7950 H   0  0  0  0  0  0  0  0  0  0  0  0
   -4.2309   -2.7237    0.1860 H   0  0  0  0  0  0  0  0  0  0  0  0
   -2.5229   -2.0787    1.2980 C   0  0  0  0  0  0  0  0  0  0  0  0
   -1.5999   -2.7227    1.7810 O   0  0  0  0  0  0  0  0  0  0  0  0
   -2.3659   -0.8447    0.8120 N   0  0  0  0  0  0  0  0  0  0  0  0
   -3.1749   -0.3807    0.4220 H   0  0  0  0  0  0  0  0  0  0  0  0
   -1.0919   -0.1077    0.8170 C   0  0  1  0  0  0  0  0  0  0  0  0
   -0.5548   -0.3460   -0.1029 H   0  0  0  0  0  0  0  0  0  0  0  0
   -1.3994    1.4014    0.8365 C   0  0  0  0  0  0  0  0  0  0  0  0
   -2.0852    1.6058    1.6602 H   0  0  0  0  0  0  0  0  0  0  0  0
   -0.4752    1.9535    1.0184 H   0  0  0  0  0  0  0  0  0  0  0  0
   -2.0428    1.9063   -0.4641 C   0  0  0  0  0  0  0  0  0  0  0  0
   -1.3804    1.6998   -1.3059 H   0  0  0  0  0  0  0  0  0  0  0  0
   -2.9908    1.3880   -0.6209 H   0  0  0  0  0  0  0  0  0  0  0  0
   -2.2975    3.4178   -0.3828 C   0  0  0  0  0  0  0  0  0  0  0  0
   -2.9490    3.6228    0.4700 H   0  0  0  0  0  0  0  0  0  0  0  0
   -1.3457    3.9319   -0.2353 H   0  0  0  0  0  0  0  0  0  0  0  0
   -2.9625    3.9189   -1.6709 C   0  0  0  0  0  0  0  0  0  0  0  0
   -2.2987    3.6975   -2.5130 H   0  0  0  0  0  0  0  0  0  0  0  0
   -3.8922    3.3618   -1.8216 H   0  0  0  0  0  0  0  0  0  0  0  0
   -3.2423    5.3757   -1.6097 N   0  3  0  0  0  0  0  0  0  0  0  0
   -2.3844    5.8974   -1.4808 H   0  0  0  0  0  0  0  0  0  0  0  0
   -3.6810    5.6903   -2.4662 H   0  0  0  0  0  0  0  0  0  0  0  0
   -3.8637    5.5848   -0.8370 H   0  0  0  0  0  0  0  0  0  0  0  0
   -0.2338   -0.5310    2.0114 C   0  0  0  0  0  0  0  0  0  0  0  0
    0.0857   -1.7067    2.1419 O   0  0  0  0  0  0  0  0  0  0  0  0
    0.1030    0.4199    2.8889 N   0  0  0  0  0  0  0  0  0  0  0  0
   -0.1754    1.3659    2.6871 H   0  0  0  0  0  0  0  0  0  0  0  0
    0.9201    0.1833    4.0805 C   0  0  0  0  0  0  0  0  0  0  0  0
    1.9113   -0.1666    3.7843 H   0  0  0  0  0  0  0  0  0  0  0  0
    1.0266    1.1023    4.6581 H   0  0  0  0  0  0  0  0  0  0  0  0
    0.4571   -0.5835    4.7054 H   0  0  0  0  0  0  0  0  0  0  0  0
  5  6  2  0  0  0  0
  5  7  1  0  0  0  0
  2  3  1  0  0  0  0
  2  4  1  0  0  0  0
  2  5  1  0  0  0  0
  1  2  1  0  0  0  0
 27 28  2  0  0  0  0
 27 29  1  0  0  0  0
 23 24  1  0  0  0  0
 23 25  1  0  0  0  0
 23 26  1  0  0  0  0
 20 21  1  0  0  0  0
 20 22  1  0  0  0  0
 20 23  1  0  0  0  0
 17 18  1  0  0  0  0
 17 19  1  0  0  0  0
 17 20  1  0  0  0  0
 14 15  1  0  0  0  0
 14 16  1  0  0  0  0
 14 17  1  0  0  0  0
 11 12  1  0  0  0  0
 11 13  1  0  0  0  0
 11 14  1  0  0  0  0
  9 10  1  0  0  0  0
  9 11  1  0  0  0  0
  9 27  1  0  0  0  0
  7  8  1  0  0  0  0
  7  9  1  0  0  0  0
 31 32  1  0  0  0  0
 31 33  1  0  0  0  0
 31 34  1  0  0  0  0
 29 30  1  0  0  0  0
 29 31  1  0  0  0  0
M  CHG  1  23   1
M  END
$$$$
default_name
  -OEChem-01062215323D

 34 33  0     1  0  0  0  0  0999 V2000
   -3.8899   -3.6747    1.6490 H   0  0  0  0  0  0  0  0  0  0  0  0
   -3.9109   -2.6717    1.2250 C   0  0  0  0  0  0  0  0  0  0  0  0
   -4.6009   -2.0517    1.7950 H   0  0  0  0  0  0  0  0  0  0  0  0
   -4.2309   -2.7237    0.1860 H   0  0  0  0  0  0  0  0  0  0  0  0
   -2.5229   -2.0787    1.2980 C   0  0  0  0  0  0  0  0  0  0  0  0
   -1.5999   -2.7227    1.7810 O   0  0  0  0  0  0  0  0  0  0  0  0
   -2.3659   -0.8447    0.8120 N   0  0  0  0  0  0  0  0  0  0  0  0
   -3.1749   -0.3807    0.4220 H   0  0  0  0  0  0  0  0  0  0  0  0
   -1.0919   -0.1077    0.8170 C   0  0  1  0  0  0  0  0  0  0  0  0
   -0.5548   -0.3460   -0.1029 H   0  0  0  0  0  0  0  0  0  0  0  0
   -1.3994    1.4014    0.8365 C   0  0  0  0  0  0  0  0  0  0  0  0
   -2.0852    1.6058    1.6602 H   0  0  0  0  0  0  0  0  0  0  0  0
   -0.4752    1.9535    1.0184 H   0  0  0  0  0  0  0  0  0  0  0  0
   -2.0428    1.9063   -0.4641 C   0  0  0  0  0  0  0  0  0  0  0  0
   -1.3804    1.6998   -1.3059 H   0  0  0  0  0  0  0  0  0  0  0  0
   -2.9908    1.3880   -0.6209 H   0  0  0  0  0  0  0  0  0  0  0  0
   -2.2975    3.4178   -0.3828 C   0  0  0  0  0  0  0  0  0  0  0  0
   -2.9490    3.6228    0.4700 H   0  0  0  0  0  0  0  0  0  0  0  0
   -1.3457    3.9319   -0.2353 H   0  0  0  0  0  0  0  0  0  0  0  0
   -2.9625    3.9189   -1.6709 C   0  0  0  0  0  0  0  0  0  0  0  0
   -2.2987    3.6975   -2.5130 H   0  0  0  0  0  0  0  0  0  0  0  0
   -3.8922    3.3618   -1.8216 H   0  0  0  0  0  0  0  0  0  0  0  0
   -3.2423    5.3757   -1.6097 N   0  3  0  0  0  0  0  0  0  0  0  0
   -2.3844    5.8974   -1.4808 H   0  0  0  0  0  0  0  0  0  0  0  0
   -3.6810    5.6903   -2.4662 H   0  0  0  0  0  0  0  0  0  0  0  0
   -3.8637    5.5848   -0.8370 H   0  0  0  0  0  0  0  0  0  0  0  0
   -0.2338   -0.5310    2.0114 C   0  0  0  0  0  0  0  0  0  0  0  0
    0.3146   -1.6267    2.0059 O   0  0  0  0  0  0  0  0  0  0  0  0
   -0.1517    0.3224    3.0374 N   0  0  0  0  0  0  0  0  0  0  0  0
   -0.6082    1.2147    2.9445 H   0  0  0  0  0  0  0  0  0  0  0  0
    0.6278    0.0723    4.2512 C   0  0  0  0  0  0  0  0  0  0  0  0
    1.6852   -0.0265    3.9964 H   0  0  0  0  0  0  0  0  0  0  0  0
    0.5086    0.8953    4.9568 H   0  0  0  0  0  0  0  0  0  0  0  0
    0.2992   -0.8567    4.7221 H   0  0  0  0  0  0  0  0  0  0  0  0
  5  6  2  0  0  0  0
  5  7  1  0  0  0  0
  2  3  1  0  0  0  0
  2  4  1  0  0  0  0
  2  5  1  0  0  0  0
  1  2  1  0  0  0  0
 27 28  2  0  0  0  0
 27 29  1  0  0  0  0
 23 24  1  0  0  0  0
 23 25  1  0  0  0  0
 23 26  1  0  0  0  0
 20 21  1  0  0  0  0
 20 22  1  0  0  0  0
 20 23  1  0  0  0  0
 17 18  1  0  0  0  0
 17 19  1  0  0  0  0
 17 20  1  0  0  0  0
 14 15  1  0  0  0  0
 14 16  1  0  0  0  0
 14 17  1  0  0  0  0
 11 12  1  0  0  0  0
 11 13  1  0  0  0  0
 11 14  1  0  0  0  0
  9 10  1  0  0  0  0
  9 11  1  0  0  0  0
  9 27  1  0  0  0  0
  7  8  1  0  0  0  0
  7  9  1  0  0  0  0
 31 32  1  0  0  0  0
 31 33  1  0  0  0  0
 31 34  1  0  0  0  0
 29 30  1  0  0  0  0
 29 31  1  0  0  0  0
M  CHG  1  23   1
M  END
$$$$
default_name
  -OEChem-01062215323D

 34 33  0     1  0  0  0  0  0999 V2000
   -3.8899   -3.6747    1.6490 H   0  0  0  0  0  0  0  0  0  0  0  0
   -3.9109   -2.6717    1.2250 C   0  0  0  0  0  0  0  0  0  0  0  0
   -4.6009   -2.0517    1.7950 H   0  0  0  0  0  0  0  0  0  0  0  0
   -4.2309   -2.7237    0.1860 H   0  0  0  0  0  0  0  0  0  0  0  0
   -2.5229   -2.0787    1.2980 C   0  0  0  0  0  0  0  0  0  0  0  0
   -1.5999   -2.7227    1.7810 O   0  0  0  0  0  0  0  0  0  0  0  0
   -2.3659   -0.8447    0.8120 N   0  0  0  0  0  0  0  0  0  0  0  0
   -3.1749   -0.3807    0.4220 H   0  0  0  0  0  0  0  0  0  0  0  0
   -1.0919   -0.1077    0.8170 C   0  0  1  0  0  0  0  0  0  0  0  0
   -0.5548   -0.3460   -0.1029 H   0  0  0  0  0  0  0  0  0  0  0  0
   -1.3994    1.4014    0.8365 C   0  0  0  0  0  0  0  0  0  0  0  0
   -2.0852    1.6058    1.6602 H   0  0  0  0  0  0  0  0  0  0  0  0
   -0.4752    1.9535    1.0184 H   0  0  0  0  0  0  0  0  0  0  0  0
   -2.0428    1.9063   -0.4641 C   0  0  0  0  0  0  0  0  0  0  0  0
   -1.3804    1.6998   -1.3059 H   0  0  0  0  0  0  0  0  0  0  0  0
   -2.9908    1.3880   -0.6209 H   0  0  0  0  0  0  0  0  0  0  0  0
   -2.2975    3.4178   -0.3828 C   0  0  0  0  0  0  0  0  0  0  0  0
   -2.9490    3.6228    0.4700 H   0  0  0  0  0  0  0  0  0  0  0  0
   -1.3457    3.9319   -0.2353 H   0  0  0  0  0  0  0  0  0  0  0  0
   -2.9625    3.9189   -1.6709 C   0  0  0  0  0  0  0  0  0  0  0  0
   -2.2987    3.6975   -2.5130 H   0  0  0  0  0  0  0  0  0  0  0  0
   -3.8922    3.3618   -1.8216 H   0  0  0  0  0  0  0  0  0  0  0  0
   -3.2423    5.3757   -1.6097 N   0  3  0  0  0  0  0  0  0  0  0  0
   -2.3844    5.8974   -1.4808 H   0  0  0  0  0  0  0  0  0  0  0  0
   -3.6810    5.6903   -2.4662 H   0  0  0  0  0  0  0  0  0  0  0  0
   -3.8637    5.5848   -0.8370 H   0  0  0  0  0  0  0  0  0  0  0  0
   -0.2338   -0.5310    2.0114 C   0  0  0  0  0  0  0  0  0  0  0  0
    0.5292   -1.4835    1.9024 O   0  0  0  0  0  0  0  0  0  0  0  0
   -0.3886    0.1553    3.1484 N   0  0  0  0  0  0  0  0  0  0  0  0
   -1.0142    0.9438    3.1402 H   0  0  0  0  0  0  0  0  0  0  0  0
    0.3557   -0.1187    4.3790 C   0  0  0  0  0  0  0  0  0  0  0  0
    1.4233    0.0325    4.2055 H   0  0  0  0  0  0  0  0  0  0  0  0
    0.0287    0.5473    5.1783 H   0  0  0  0  0  0  0  0  0  0  0  0
    0.2006   -1.1549    4.6872 H   0  0  0  0  0  0  0  0  0  0  0  0
  5  6  2  0  0  0  0
  5  7  1  0  0  0  0
  2  3  1  0  0  0  0
  2  4  1  0  0  0  0
  2  5  1  0  0  0  0
  1  2  1  0  0  0  0
 27 28  2  0  0  0  0
 27 29  1  0  0  0  0
 23 24  1  0  0  0  0
 23 25  1  0  0  0  0
 23 26  1  0  0  0  0
 20 21  1  0  0  0  0
 20 22  1  0  0  0  0
 20 23  1  0  0  0  0
 17 18  1  0  0  0  0
 17 19  1  0  0  0  0
 17 20  1  0  0  0  0
 14 15  1  0  0  0  0
 14 16  1  0  0  0  0
 14 17  1  0  0  0  0
 11 12  1  0  0  0  0
 11 13  1  0  0  0  0
 11 14  1  0  0  0  0
  9 10  1  0  0  0  0
  9 11  1  0  0  0  0
  9 27  1  0  0  0  0
  7  8  1  0  0  0  0
  7  9  1  0  0  0  0
 31 32  1  0  0  0  0
 31 33  1  0  0  0  0
 31 34  1  0  0  0  0
 29 30  1  0  0  0  0
 29 31  1  0  0  0  0
M  CHG  1  23   1
M  END
$$$$
default_name
  -OEChem-01062215323D

 34 33  0     1  0  0  0  0  0999 V2000
   -3.8899   -3.6747    1.6490 H   0  0  0  0  0  0  0  0  0  0  0  0
   -3.9109   -2.6717    1.2250 C   0  0  0  0  0  0  0  0  0  0  0  0
   -4.6009   -2.0517    1.7950 H   0  0  0  0  0  0  0  0  0  0  0  0
   -4.2309   -2.7237    0.1860 H   0  0  0  0  0  0  0  0  0  0  0  0
   -2.5229   -2.0787    1.2980 C   0  0  0  0  0  0  0  0  0  0  0  0
   -1.5999   -2.7227    1.7810 O   0  0  0  0  0  0  0  0  0  0  0  0
   -2.3659   -0.8447    0.8120 N   0  0  0  0  0  0  0  0  0  0  0  0
   -3.1749   -0.3807    0.4220 H   0  0  0  0  0  0  0  0  0  0  0  0
   -1.0919   -0.1077    0.8170 C   0  0  1  0  0  0  0  0  0  0  0  0
   -0.5548   -0.3460   -0.1029 H   0  0  0  0  0  0  0  0  0  0  0  0
   -1.3994    1.4014    0.8365 C   0  0  0  0  0  0  0  0  0  0  0  0
   -2.0852    1.6058    1.6602 H   0  0  0  0  0  0  0  0  0  0  0  0
   -0.4752    1.9535    1.0184 H   0  0  0  0  0  0  0  0  0  0  0  0
   -2.0428    1.9063   -0.4641 C   0  0  0  0  0  0  0  0  0  0  0  0
   -1.3804    1.6998   -1.3059 H   0  0  0  0  0  0  0  0  0  0  0  0
   -2.9908    1.3880   -0.6209 H   0  0  0  0  0  0  0  0  0  0  0  0
   -2.2975    3.4178   -0.3828 C   0  0  0  0  0  0  0  0  0  0  0  0
   -2.9490    3.6228    0.4700 H   0  0  0  0  0  0  0  0  0  0  0  0
   -1.3457    3.9319   -0.2353 H   0  0  0  0  0  0  0  0  0  0  0  0
   -2.9625    3.9189   -1.6709 C   0  0  0  0  0  0  0  0  0  0  0  0
   -2.2987    3.6975   -2.5130 H   0  0  0  0  0  0  0  0  0  0  0  0
   -3.8922    3.3618   -1.8216 H   0  0  0  0  0  0  0  0  0  0  0  0
   -3.2423    5.3757   -1.6097 N   0  3  0  0  0  0  0  0  0  0  0  0
   -2.3844    5.8974   -1.4808 H   0  0  0  0  0  0  0  0  0  0  0  0
   -3.6810    5.6903   -2.4662 H   0  0  0  0  0  0  0  0  0  0  0  0
   -3.8637    5.5848   -0.8370 H   0  0  0  0  0  0  0  0  0  0  0  0
   -0.2338   -0.5310    2.0114 C   0  0  0  0  0  0  0  0  0  0  0  0
    0.7150   -1.2868    1.8386 O   0  0  0  0  0  0  0  0  0  0  0  0
   -0.5917   -0.0701    3.2144 N   0  0  0  0  0  0  0  0  0  0  0  0
   -1.3656    0.5718    3.2608 H   0  0  0  0  0  0  0  0  0  0  0  0
    0.1223   -0.3767    4.4552 C   0  0  0  0  0  0  0  0  0  0  0  0
    1.1435    0.0062    4.3972 H   0  0  0  0  0  0  0  0  0  0  0  0
   -0.3804    0.0821    5.3074 H   0  0  0  0  0  0  0  0  0  0  0  0
    0.1682   -1.4578    4.6031 H   0  0  0  0  0  0  0  0  0  0  0  0
  5  6  2  0  0  0  0
  5  7  1  0  0  0  0
  2  3  1  0  0  0  0
  2  4  1  0  0  0  0
  2  5  1  0  0  0  0
  1  2  1  0  0  0  0
 27 28  2  0  0  0  0
 27 29  1  0  0  0  0
 23 24  1  0  0  0  0
 23 25  1  0  0  0  0
 23 26  1  0  0  0  0
 20 21  1  0  0  0  0
 20 22  1  0  0  0  0
 20 23  1  0  0  0  0
 17 18  1  0  0  0  0
 17 19  1  0  0  0  0
 17 20  1  0  0  0  0
 14 15  1  0  0  0  0
 14 16  1  0  0  0  0
 14 17  1  0  0  0  0
 11 12  1  0  0  0  0
 11 13  1  0  0  0  0
 11 14  1  0  0  0  0
  9 10  1  0  0  0  0
  9 11  1  0  0  0  0
  9 27  1  0  0  0  0
  7  8  1  0  0  0  0
  7  9  1  0  0  0  0
 31 32  1  0  0  0  0
 31 33  1  0  0  0  0
 31 34  1  0  0  0  0
 29 30  1  0  0  0  0
 29 31  1  0  0  0  0
M  CHG  1  23   1
M  END
$$$$
default_name
  -OEChem-01062215323D

 34 33  0     1  0  0  0  0  0999 V2000
   -3.8899   -3.6747    1.6490 H   0  0  0  0  0  0  0  0  0  0  0  0
   -3.9109   -2.6717    1.2250 C   0  0  0  0  0  0  0  0  0  0  0  0
   -4.6009   -2.0517    1.7950 H   0  0  0  0  0  0  0  0  0  0  0  0
   -4.2309   -2.7237    0.1860 H   0  0  0  0  0  0  0  0  0  0  0  0
   -2.5229   -2.0787    1.2980 C   0  0  0  0  0  0  0  0  0  0  0  0
   -1.5999   -2.7227    1.7810 O   0  0  0  0  0  0  0  0  0  0  0  0
   -2.3659   -0.8447    0.8120 N   0  0  0  0  0  0  0  0  0  0  0  0
   -3.1749   -0.3807    0.4220 H   0  0  0  0  0  0  0  0  0  0  0  0
   -1.0919   -0.1077    0.8170 C   0  0  1  0  0  0  0  0  0  0  0  0
   -0.5548   -0.3460   -0.1029 H   0  0  0  0  0  0  0  0  0  0  0  0
   -1.3994    1.4014    0.8365 C   0  0  0  0  0  0  0  0  0  0  0  0
   -2.0852    1.6058    1.6602 H   0  0  0  0  0  0  0  0  0  0  0  0
   -0.4752    1.9535    1.0184 H   0  0  0  0  0  0  0  0  0  0  0  0
   -2.0428    1.9063   -0.4641 C   0  0  0  0  0  0  0  0  0  0  0  0
   -1.3804    1.6998   -1.3059 H   0  0  0  0  0  0  0  0  0  0  0  0
   -2.9908    1.3880   -0.6209 H   0  0  0  0  0  0  0  0  0  0  0  0
   -2.2975    3.4178   -0.3828 C   0  0  0  0  0  0  0  0  0  0  0  0
   -2.9490    3.6228    0.4700 H   0  0  0  0  0  0  0  0  0  0  0  0
   -1.3457    3.9319   -0.2353 H   0  0  0  0  0  0  0  0  0  0  0  0
   -2.9625    3.9189   -1.6709 C   0  0  0  0  0  0  0  0  0  0  0  0
   -2.2987    3.6975   -2.5130 H   0  0  0  0  0  0  0  0  0  0  0  0
   -3.8922    3.3618   -1.8216 H   0  0  0  0  0  0  0  0  0  0  0  0
   -3.2423    5.3757   -1.6097 N   0  3  0  0  0  0  0  0  0  0  0  0
   -2.3844    5.8974   -1.4808 H   0  0  0  0  0  0  0  0  0  0  0  0
   -3.6810    5.6903   -2.4662 H   0  0  0  0  0  0  0  0  0  0  0  0
   -3.8637    5.5848   -0.8370 H   0  0  0  0  0  0  0  0  0  0  0  0
   -0.2338   -0.5310    2.0114 C   0  0  0  0  0  0  0  0  0  0  0  0
    0.8593   -1.0501    1.8188 O   0  0  0  0  0  0  0  0  0  0  0  0
   -0.7470   -0.3385    3.2309 N   0  0  0  0  0  0  0  0  0  0  0  0
   -1.6385    0.1239    3.2982 H   0  0  0  0  0  0  0  0  0  0  0  0
   -0.0564   -0.6841    4.4747 C   0  0  0  0  0  0  0  0  0  0  0  0
    0.8648   -0.1036    4.5585 H   0  0  0  0  0  0  0  0  0  0  0  0
   -0.6908   -0.4686    5.3353 H   0  0  0  0  0  0  0  0  0  0  0  0
    0.2041   -1.7448    4.4757 H   0  0  0  0  0  0  0  0  0  0  0  0
  5  6  2  0  0  0  0
  5  7  1  0  0  0  0
  2  3  1  0  0  0  0
  2  4  1  0  0  0  0
  2  5  1  0  0  0  0
  1  2  1  0  0  0  0
 27 28  2  0  0  0  0
 27 29  1  0  0  0  0
 23 24  1  0  0  0  0
 23 25  1  0  0  0  0
 23 26  1  0  0  0  0
 20 21  1  0  0  0  0
 20 22  1  0  0  0  0
 20 23  1  0  0  0  0
 17 18  1  0  0  0  0
 17 19  1  0  0  0  0
 17 20  1  0  0  0  0
 14 15  1  0  0  0  0
 14 16  1  0  0  0  0
 14 17  1  0  0  0  0
 11 12  1  0  0  0  0
 11 13  1  0  0  0  0
 11 14  1  0  0  0  0
  9 10  1  0  0  0  0
  9 11  1  0  0  0  0
  9 27  1  0  0  0  0
  7  8  1  0  0  0  0
  7  9  1  0  0  0  0
 31 32  1  0  0  0  0
 31 33  1  0  0  0  0
 31 34  1  0  0  0  0
 29 30  1  0  0  0  0
 29 31  1  0  0  0  0
M  CHG  1  23   1
M  END
$$$$
default_name
  -OEChem-01062215323D

 34 33  0     1  0  0  0  0  0999 V2000
   -3.8899   -3.6747    1.6490 H   0  0  0  0  0  0  0  0  0  0  0  0
   -3.9109   -2.6717    1.2250 C   0  0  0  0  0  0  0  0  0  0  0  0
   -4.6009   -2.0517    1.7950 H   0  0  0  0  0  0  0  0  0  0  0  0
   -4.2309   -2.7237    0.1860 H   0  0  0  0  0  0  0  0  0  0  0  0
   -2.5229   -2.0787    1.2980 C   0  0  0  0  0  0  0  0  0  0  0  0
   -1.5999   -2.7227    1.7810 O   0  0  0  0  0  0  0  0  0  0  0  0
   -2.3659   -0.8447    0.8120 N   0  0  0  0  0  0  0  0  0  0  0  0
   -3.1749   -0.3807    0.4220 H   0  0  0  0  0  0  0  0  0  0  0  0
   -1.0919   -0.1077    0.8170 C   0  0  1  0  0  0  0  0  0  0  0  0
   -0.5548   -0.3460   -0.1029 H   0  0  0  0  0  0  0  0  0  0  0  0
   -1.3994    1.4014    0.8365 C   0  0  0  0  0  0  0  0  0  0  0  0
   -2.0852    1.6058    1.6602 H   0  0  0  0  0  0  0  0  0  0  0  0
   -0.4752    1.9535    1.0184 H   0  0  0  0  0  0  0  0  0  0  0  0
   -2.0428    1.9063   -0.4641 C   0  0  0  0  0  0  0  0  0  0  0  0
   -1.3804    1.6998   -1.3059 H   0  0  0  0  0  0  0  0  0  0  0  0
   -2.9908    1.3880   -0.6209 H   0  0  0  0  0  0  0  0  0  0  0  0
   -2.2975    3.4178   -0.3828 C   0  0  0  0  0  0  0  0  0  0  0  0
   -2.9490    3.6228    0.4700 H   0  0  0  0  0  0  0  0  0  0  0  0
   -1.3457    3.9319   -0.2353 H   0  0  0  0  0  0  0  0  0  0  0  0
   -2.9625    3.9189   -1.6709 C   0  0  0  0  0  0  0  0  0  0  0  0
   -2.2987    3.6975   -2.5130 H   0  0  0  0  0  0  0  0  0  0  0  0
   -3.8922    3.3618   -1.8216 H   0  0  0  0  0  0  0  0  0  0  0  0
   -3.2423    5.3757   -1.6097 N   0  3  0  0  0  0  0  0  0  0  0  0
   -2.3844    5.8974   -1.4808 H   0  0  0  0  0  0  0  0  0  0  0  0
   -3.6810    5.6903   -2.4662 H   0  0  0  0  0  0  0  0  0  0  0  0
   -3.8637    5.5848   -0.8370 H   0  0  0  0  0  0  0  0  0  0  0  0
   -0.2338   -0.5310    2.0114 C   0  0  0  0  0  0  0  0  0  0  0  0
    0.9523   -0.7893    1.8444 O   0  0  0  0  0  0  0  0  0  0  0  0
   -0.8440   -0.6314    3.1968 N   0  0  0  0  0  0  0  0  0  0  0  0
   -1.8144   -0.3692    3.2498 H   0  0  0  0  0  0  0  0  0  0  0  0
   -0.1684   -1.0200    4.4362 C   0  0  0  0  0  0  0  0  0  0  0  0
    0.6062   -0.2893    4.6785 H   0  0  0  0  0  0  0  0  0  0  0  0
   -0.8814   -1.0672    5.2601 H   0  0  0  0  0  0  0  0  0  0  0  0
    0.3058   -1.9962    4.3135 H   0  0  0  0  0  0  0  0  0  0  0  0
  5  6  2  0  0  0  0
  5  7  1  0  0  0  0
  2  3  1  0  0  0  0
  2  4  1  0  0  0  0
  2  5  1  0  0  0  0
  1  2  1  0  0  0  0
 27 28  2  0  0  0  0
 27 29  1  0  0  0  0
 23 24  1  0  0  0  0
 23 25  1  0  0  0  0
 23 26  1  0  0  0  0
 20 21  1  0  0  0  0
 20 22  1  0  0  0  0
 20 23  1  0  0  0  0
 17 18  1  0  0  0  0
 17 19  1  0  0  0  0
 17 20  1  0  0  0  0
 14 15  1  0  0  0  0
 14 16  1  0  0  0  0
 14 17  1  0  0  0  0
 11 12  1  0  0  0  0
 11 13  1  0  0  0  0
 11 14  1  0  0  0  0
  9 10  1  0  0  0  0
  9 11  1  0  0  0  0
  9 27  1  0  0  0  0
  7  8  1  0  0  0  0
  7  9  1  0  0  0  0
 31 32  1  0  0  0  0
 31 33  1  0  0  0  0
 31 34  1  0  0  0  0
 29 30  1  0  0  0  0
 29 31  1  0  0  0  0
M  CHG  1  23   1
M  END
$$$$
default_name
  -OEChem-01062215323D

 34 33  0     1  0  0  0  0  0999 V2000
   -3.8899   -3.6747    1.6490 H   0  0  0  0  0  0  0  0  0  0  0  0
   -3.9109   -2.6717    1.2250 C   0  0  0  0  0  0  0  0  0  0  0  0
   -4.6009   -2.0517    1.7950 H   0  0  0  0  0  0  0  0  0  0  0  0
   -4.2309   -2.7237    0.1860 H   0  0  0  0  0  0  0  0  0  0  0  0
   -2.5229   -2.0787    1.2980 C   0  0  0  0  0  0  0  0  0  0  0  0
   -1.5999   -2.7227    1.7810 O   0  0  0  0  0  0  0  0  0  0  0  0
   -2.3659   -0.8447    0.8120 N   0  0  0  0  0  0  0  0  0  0  0  0
   -3.1749   -0.3807    0.4220 H   0  0  0  0  0  0  0  0  0  0  0  0
   -1.0919   -0.1077    0.8170 C   0  0  1  0  0  0  0  0  0  0  0  0
   -0.5548   -0.3460   -0.1029 H   0  0  0  0  0  0  0  0  0  0  0  0
   -1.3994    1.4014    0.8365 C   0  0  0  0  0  0  0  0  0  0  0  0
   -2.0852    1.6058    1.6602 H   0  0  0  0  0  0  0  0  0  0  0  0
   -0.4752    1.9535    1.0184 H   0  0  0  0  0  0  0  0  0  0  0  0
   -2.0428    1.9063   -0.4641 C   0  0  0  0  0  0  0  0  0  0  0  0
   -1.3804    1.6998   -1.3059 H   0  0  0  0  0  0  0  0  0  0  0  0
   -2.9908    1.3880   -0.6209 H   0  0  0  0  0  0  0  0  0  0  0  0
   -2.2975    3.4178   -0.3828 C   0  0  0  0  0  0  0  0  0  0  0  0
   -2.9490    3.6228    0.4700 H   0  0  0  0  0  0  0  0  0  0  0  0
   -1.3457    3.9319   -0.2353 H   0  0  0  0  0  0  0  0  0  0  0  0
   -2.9625    3.9189   -1.6709 C   0  0  0  0  0  0  0  0  0  0  0  0
   -2.2987    3.6975   -2.5130 H   0  0  0  0  0  0  0  0  0  0  0  0
   -3.8922    3.3618   -1.8216 H   0  0  0  0  0  0  0  0  0  0  0  0
   -3.2423    5.3757   -1.6097 N   0  3  0  0  0  0  0  0  0  0  0  0
   -2.3844    5.8974   -1.4808 H   0  0  0  0  0  0  0  0  0  0  0  0
   -3.6810    5.6903   -2.4662 H   0  0  0  0  0  0  0  0  0  0  0  0
   -3.8637    5.5848   -0.8370 H   0  0  0  0  0  0  0  0  0  0  0  0
   -0.2338   -0.5310    2.0114 C   0  0  0  0  0  0  0  0  0  0  0  0
    0.9876   -0.5224    1.9137 O   0  0  0  0  0  0  0  0  0  0  0  0
   -0.8761   -0.9291    3.1144 N   0  0  0  0  0  0  0  0  0  0  0  0
   -1.8812   -0.8740    3.1189 H   0  0  0  0  0  0  0  0  0  0  0  0
   -0.2060   -1.3615    4.3421 C   0  0  0  0  0  0  0  0  0  0  0  0
    0.3853   -0.5383    4.7489 H   0  0  0  0  0  0  0  0  0  0  0  0
   -0.9392   -1.6731    5.0869 H   0  0  0  0  0  0  0  0  0  0  0  0
    0.4664   -2.1950    4.1277 H   0  0  0  0  0  0  0  0  0  0  0  0
  5  6  2  0  0  0  0
  5  7  1  0  0  0  0
  2  3  1  0  0  0  0
  2  4  1  0  0  0  0
  2  5  1  0  0  0  0
  1  2  1  0  0  0  0
 27 28  2  0  0  0  0
 27 29  1  0  0  0  0
 23 24  1  0  0  0  0
 23 25  1  0  0  0  0
 23 26  1  0  0  0  0
 20 21  1  0  0  0  0
 20 22  1  0  0  0  0
 20 23  1  0  0  0  0
 17 18  1  0  0  0  0
 17 19  1  0  0  0  0
 17 20  1  0  0  0  0
 14 15  1  0  0  0  0
 14 16  1  0  0  0  0
 14 17  1  0  0  0  0
 11 12  1  0  0  0  0
 11 13  1  0  0  0  0
 11 14  1  0  0  0  0
  9 10  1  0  0  0  0
  9 11  1  0  0  0  0
  9 27  1  0  0  0  0
  7  8  1  0  0  0  0
  7  9  1  0  0  0  0
 31 32  1  0  0  0  0
 31 33  1  0  0  0  0
 31 34  1  0  0  0  0
 29 30  1  0  0  0  0
 29 31  1  0  0  0  0
M  CHG  1  23   1
M  END
$$$$
default_name
  -OEChem-01062215323D

 34 33  0     1  0  0  0  0  0999 V2000
   -3.8899   -3.6747    1.6490 H   0  0  0  0  0  0  0  0  0  0  0  0
   -3.9109   -2.6717    1.2250 C   0  0  0  0  0  0  0  0  0  0  0  0
   -4.6009   -2.0517    1.7950 H   0  0  0  0  0  0  0  0  0  0  0  0
   -4.2309   -2.7237    0.1860 H   0  0  0  0  0  0  0  0  0  0  0  0
   -2.5229   -2.0787    1.2980 C   0  0  0  0  0  0  0  0  0  0  0  0
   -1.5999   -2.7227    1.7810 O   0  0  0  0  0  0  0  0  0  0  0  0
   -2.3659   -0.8447    0.8120 N   0  0  0  0  0  0  0  0  0  0  0  0
   -3.1749   -0.3807    0.4220 H   0  0  0  0  0  0  0  0  0  0  0  0
   -1.0919   -0.1077    0.8170 C   0  0  1  0  0  0  0  0  0  0  0  0
   -0.5548   -0.3460   -0.1029 H   0  0  0  0  0  0  0  0  0  0  0  0
   -1.3994    1.4014    0.8365 C   0  0  0  0  0  0  0  0  0  0  0  0
   -2.0852    1.6058    1.6602 H   0  0  0  0  0  0  0  0  0  0  0  0
   -0.4752    1.9535    1.0184 H   0  0  0  0  0  0  0  0  0  0  0  0
   -2.0428    1.9063   -0.4641 C   0  0  0  0  0  0  0  0  0  0  0  0
   -1.3804    1.6998   -1.3059 H   0  0  0  0  0  0  0  0  0  0  0  0
   -2.9908    1.3880   -0.6209 H   0  0  0  0  0  0  0  0  0  0  0  0
   -2.2975    3.4178   -0.3828 C   0  0  0  0  0  0  0  0  0  0  0  0
   -2.9490    3.6228    0.4700 H   0  0  0  0  0  0  0  0  0  0  0  0
   -1.3457    3.9319   -0.2353 H   0  0  0  0  0  0  0  0  0  0  0  0
   -2.9625    3.9189   -1.6709 C   0  0  0  0  0  0  0  0  0  0  0  0
   -2.2987    3.6975   -2.5130 H   0  0  0  0  0  0  0  0  0  0  0  0
   -3.8922    3.3618   -1.8216 H   0  0  0  0  0  0  0  0  0  0  0  0
   -3.2423    5.3757   -1.6097 N   0  3  0  0  0  0  0  0  0  0  0  0
   -2.3844    5.8974   -1.4808 H   0  0  0  0  0  0  0  0  0  0  0  0
   -3.6810    5.6903   -2.4662 H   0  0  0  0  0  0  0  0  0  0  0  0
   -3.8637    5.5848   -0.8370 H   0  0  0  0  0  0  0  0  0  0  0  0
   -0.2338   -0.5310    2.0114 C   0  0  0  0  0  0  0  0  0  0  0  0
    0.9628   -0.2675    2.0218 O   0  0  0  0  0  0  0  0  0  0  0  0
   -0.8411   -1.2111    2.9893 N   0  0  0  0  0  0  0  0  0  0  0  0
   -1.8343   -1.3562    2.9144 H   0  0  0  0  0  0  0  0  0  0  0  0
   -0.1666   -1.6853    4.1991 C   0  0  0  0  0  0  0  0  0  0  0  0
    0.2173   -0.8337    4.7650 H   0  0  0  0  0  0  0  0  0  0  0  0
   -0.8603   -2.2449    4.8276 H   0  0  0  0  0  0  0  0  0  0  0  0
    0.6751   -2.3275    3.9308 H   0  0  0  0  0  0  0  0  0  0  0  0
  5  6  2  0  0  0  0
  5  7  1  0  0  0  0
  2  3  1  0  0  0  0
  2  4  1  0  0  0  0
  2  5  1  0  0  0  0
  1  2  1  0  0  0  0
 27 28  2  0  0  0  0
 27 29  1  0  0  0  0
 23 24  1  0  0  0  0
 23 25  1  0  0  0  0
 23 26  1  0  0  0  0
 20 21  1  0  0  0  0
 20 22  1  0  0  0  0
 20 23  1  0  0  0  0
 17 18  1  0  0  0  0
 17 19  1  0  0  0  0
 17 20  1  0  0  0  0
 14 15  1  0  0  0  0
 14 16  1  0  0  0  0
 14 17  1  0  0  0  0
 11 12  1  0  0  0  0
 11 13  1  0  0  0  0
 11 14  1  0  0  0  0
  9 10  1  0  0  0  0
  9 11  1  0  0  0  0
  9 27  1  0  0  0  0
  7  8  1  0  0  0  0
  7  9  1  0  0  0  0
 31 32  1  0  0  0  0
 31 33  1  0  0  0  0
 31 34  1  0  0  0  0
 29 30  1  0  0  0  0
 29 31  1  0  0  0  0
M  CHG  1  23   1
M  END
$$$$
default_name
  -OEChem-01062215323D

 34 33  0     1  0  0  0  0  0999 V2000
   -3.8899   -3.6747    1.6490 H   0  0  0  0  0  0  0  0  0  0  0  0
   -3.9109   -2.6717    1.2250 C   0  0  0  0  0  0  0  0  0  0  0  0
   -4.6009   -2.0517    1.7950 H   0  0  0  0  0  0  0  0  0  0  0  0
   -4.2309   -2.7237    0.1860 H   0  0  0  0  0  0  0  0  0  0  0  0
   -2.5229   -2.0787    1.2980 C   0  0  0  0  0  0  0  0  0  0  0  0
   -1.5999   -2.7227    1.7810 O   0  0  0  0  0  0  0  0  0  0  0  0
   -2.3659   -0.8447    0.8120 N   0  0  0  0  0  0  0  0  0  0  0  0
   -3.1749   -0.3807    0.4220 H   0  0  0  0  0  0  0  0  0  0  0  0
   -1.0919   -0.1077    0.8170 C   0  0  1  0  0  0  0  0  0  0  0  0
   -0.5548   -0.3460   -0.1029 H   0  0  0  0  0  0  0  0  0  0  0  0
   -1.3994    1.4014    0.8365 C   0  0  0  0  0  0  0  0  0  0  0  0
   -2.0852    1.6058    1.6602 H   0  0  0  0  0  0  0  0  0  0  0  0
   -0.4752    1.9535    1.0184 H   0  0  0  0  0  0  0  0  0  0  0  0
   -2.0428    1.9063   -0.4641 C   0  0  0  0  0  0  0  0  0  0  0  0
   -1.3804    1.6998   -1.3059 H   0  0  0  0  0  0  0  0  0  0  0  0
   -2.9908    1.3880   -0.6209 H   0  0  0  0  0  0  0  0  0  0  0  0
   -2.2975    3.4178   -0.3828 C   0  0  0  0  0  0  0  0  0  0  0  0
   -2.9490    3.6228    0.4700 H   0  0  0  0  0  0  0  0  0  0  0  0
   -1.3457    3.9319   -0.2353 H   0  0  0  0  0  0  0  0  0  0  0  0
   -2.9625    3.9189   -1.6709 C   0  0  0  0  0  0  0  0  0  0  0  0
   -2.2987    3.6975   -2.5130 H   0  0  0  0  0  0  0  0  0  0  0  0
   -3.8922    3.3618   -1.8216 H   0  0  0  0  0  0  0  0  0  0  0  0
   -3.2423    5.3757   -1.6097 N   0  3  0  0  0  0  0  0  0  0  0  0
   -2.3844    5.8974   -1.4808 H   0  0  0  0  0  0  0  0  0  0  0  0
   -3.6810    5.6903   -2.4662 H   0  0  0  0  0  0  0  0  0  0  0  0
   -3.8637    5.5848   -0.8370 H   0  0  0  0  0  0  0  0  0  0  0  0
   -0.2338   -0.5310    2.0114 C   0  0  0  0  0  0  0  0  0  0  0  0
    0.8797   -0.0420    2.1614 O   0  0  0  0  0  0  0  0  0  0  0  0
   -0.7414   -1.4582    2.8300 N   0  0  0  0  0  0  0  0  0  0  0  0
   -1.6771   -1.7827    2.6503 H   0  0  0  0  0  0  0  0  0  0  0  0
   -0.0529   -1.9693    4.0167 C   0  0  0  0  0  0  0  0  0  0  0  0
    0.1134   -1.1553    4.7256 H   0  0  0  0  0  0  0  0  0  0  0  0
   -0.6500   -2.7436    4.4997 H   0  0  0  0  0  0  0  0  0  0  0  0
    0.9175   -2.3849    3.7363 H   0  0  0  0  0  0  0  0  0  0  0  0
  5  6  2  0  0  0  0
  5  7  1  0  0  0  0
  2  3  1  0  0  0  0
  2  4  1  0  0  0  0
  2  5  1  0  0  0  0
  1  2  1  0  0  0  0
 27 28  2  0  0  0  0
 27 29  1  0  0  0  0
 23 24  1  0  0  0  0
 23 25  1  0  0  0  0
 23 26  1  0  0  0  0
 20 21  1  0  0  0  0
 20 22  1  0  0  0  0
 20 23  1  0  0  0  0
 17 18  1  0  0  0  0
 17 19  1  0  0  0  0
 17 20  1  0  0  0  0
 14 15  1  0  0  0  0
 14 16  1  0  0  0  0
 14 17  1  0  0  0  0
 11 12  1  0  0  0  0
 11 13  1  0  0  0  0
 11 14  1  0  0  0  0
  9 10  1  0  0  0  0
  9 11  1  0  0  0  0
  9 27  1  0  0  0  0
  7  8  1  0  0  0  0
  7  9  1  0  0  0  0
 31 32  1  0  0  0  0
 31 33  1  0  0  0  0
 31 34  1  0  0  0  0
 29 30  1  0  0  0  0
 29 31  1  0  0  0  0
M  CHG  1  23   1
M  END
$$$$
default_name
  -OEChem-01062215323D

 34 33  0     1  0  0  0  0  0999 V2000
   -3.8899   -3.6747    1.6490 H   0  0  0  0  0  0  0  0  0  0  0  0
   -3.9109   -2.6717    1.2250 C   0  0  0  0  0  0  0  0  0  0  0  0
   -4.6009   -2.0517    1.7950 H   0  0  0  0  0  0  0  0  0  0  0  0
   -4.2309   -2.7237    0.1860 H   0  0  0  0  0  0  0  0  0  0  0  0
   -2.5229   -2.0787    1.2980 C   0  0  0  0  0  0  0  0  0  0  0  0
   -1.5999   -2.7227    1.7810 O   0  0  0  0  0  0  0  0  0  0  0  0
   -2.3659   -0.8447    0.8120 N   0  0  0  0  0  0  0  0  0  0  0  0
   -3.1749   -0.3807    0.4220 H   0  0  0  0  0  0  0  0  0  0  0  0
   -1.0919   -0.1077    0.8170 C   0  0  1  0  0  0  0  0  0  0  0  0
   -0.5548   -0.3460   -0.1029 H   0  0  0  0  0  0  0  0  0  0  0  0
   -1.3994    1.4014    0.8365 C   0  0  0  0  0  0  0  0  0  0  0  0
   -2.0852    1.6058    1.6602 H   0  0  0  0  0  0  0  0  0  0  0  0
   -0.4752    1.9535    1.0184 H   0  0  0  0  0  0  0  0  0  0  0  0
   -2.0428    1.9063   -0.4641 C   0  0  0  0  0  0  0  0  0  0  0  0
   -1.3804    1.6998   -1.3059 H   0  0  0  0  0  0  0  0  0  0  0  0
   -2.9908    1.3880   -0.6209 H   0  0  0  0  0  0  0  0  0  0  0  0
   -2.2975    3.4178   -0.3828 C   0  0  0  0  0  0  0  0  0  0  0  0
   -2.9490    3.6228    0.4700 H   0  0  0  0  0  0  0  0  0  0  0  0
   -1.3457    3.9319   -0.2353 H   0  0  0  0  0  0  0  0  0  0  0  0
   -2.9625    3.9189   -1.6709 C   0  0  0  0  0  0  0  0  0  0  0  0
   -2.2987    3.6975   -2.5130 H   0  0  0  0  0  0  0  0  0  0  0  0
   -3.8922    3.3618   -1.8216 H   0  0  0  0  0  0  0  0  0  0  0  0
   -3.2423    5.3757   -1.6097 N   0  3  0  0  0  0  0  0  0  0  0  0
   -2.3844    5.8974   -1.4808 H   0  0  0  0  0  0  0  0  0  0  0  0
   -3.6810    5.6903   -2.4662 H   0  0  0  0  0  0  0  0  0  0  0  0
   -3.8637    5.5848   -0.8370 H   0  0  0  0  0  0  0  0  0  0  0  0
   -0.2338   -0.5310    2.0114 C   0  0  0  0  0  0  0  0  0  0  0  0
    0.7438    0.1388    2.3231 O   0  0  0  0  0  0  0  0  0  0  0  0
   -0.5837   -1.6537    2.6475 N   0  0  0  0  0  0  0  0  0  0  0  0
   -1.4201   -2.1247    2.3445 H   0  0  0  0  0  0  0  0  0  0  0  0
    0.1274   -2.1942    3.8075 C   0  0  0  0  0  0  0  0  0  0  0  0
    0.0810   -1.4813    4.6335 H   0  0  0  0  0  0  0  0  0  0  0  0
   -0.3226   -3.1352    4.1258 H   0  0  0  0  0  0  0  0  0  0  0  0
    1.1771   -2.3631    3.5575 H   0  0  0  0  0  0  0  0  0  0  0  0
  5  6  2  0  0  0  0
  5  7  1  0  0  0  0
  2  3  1  0  0  0  0
  2  4  1  0  0  0  0
  2  5  1  0  0  0  0
  1  2  1  0  0  0  0
 27 28  2  0  0  0  0
 27 29  1  0  0  0  0
 23 24  1  0  0  0  0
 23 25  1  0  0  0  0
 23 26  1  0  0  0  0
 20 21  1  0  0  0  0
 20 22  1  0  0  0  0
 20 23  1  0  0  0  0
 17 18  1  0  0  0  0
 17 19  1  0  0  0  0
 17 20  1  0  0  0  0
 14 15  1  0  0  0  0
 14 16  1  0  0  0  0
 14 17  1  0  0  0  0
 11 12  1  0  0  0  0
 11 13  1  0  0  0  0
 11 14  1  0  0  0  0
  9 10  1  0  0  0  0
  9 11  1  0  0  0  0
  9 27  1  0  0  0  0
  7  8  1  0  0  0  0
  7  9  1  0  0  0  0
 31 32  1  0  0  0  0
 31 33  1  0  0  0  0
 31 34  1  0  0  0  0
 29 30  1  0  0  0  0
 29 31  1  0  0  0  0
M  CHG  1  23   1
M  END
$$$$
default_name
  -OEChem-01062215323D

 34 33  0     1  0  0  0  0  0999 V2000
   -3.8899   -3.6747    1.6490 H   0  0  0  0  0  0  0  0  0  0  0  0
   -3.9109   -2.6717    1.2250 C   0  0  0  0  0  0  0  0  0  0  0  0
   -4.6009   -2.0517    1.7950 H   0  0  0  0  0  0  0  0  0  0  0  0
   -4.2309   -2.7237    0.1860 H   0  0  0  0  0  0  0  0  0  0  0  0
   -2.5229   -2.0787    1.2980 C   0  0  0  0  0  0  0  0  0  0  0  0
   -1.5999   -2.7227    1.7810 O   0  0  0  0  0  0  0  0  0  0  0  0
   -2.3659   -0.8447    0.8120 N   0  0  0  0  0  0  0  0  0  0  0  0
   -3.1749   -0.3807    0.4220 H   0  0  0  0  0  0  0  0  0  0  0  0
   -1.0919   -0.1077    0.8170 C   0  0  1  0  0  0  0  0  0  0  0  0
   -0.5548   -0.3460   -0.1029 H   0  0  0  0  0  0  0  0  0  0  0  0
   -1.3994    1.4014    0.8365 C   0  0  0  0  0  0  0  0  0  0  0  0
   -2.0852    1.6058    1.6602 H   0  0  0  0  0  0  0  0  0  0  0  0
   -0.4752    1.9535    1.0184 H   0  0  0  0  0  0  0  0  0  0  0  0
   -2.0428    1.9063   -0.4641 C   0  0  0  0  0  0  0  0  0  0  0  0
   -1.3804    1.6998   -1.3059 H   0  0  0  0  0  0  0  0  0  0  0  0
   -2.9908    1.3880   -0.6209 H   0  0  0  0  0  0  0  0  0  0  0  0
   -2.2975    3.4178   -0.3828 C   0  0  0  0  0  0  0  0  0  0  0  0
   -2.9490    3.6228    0.4700 H   0  0  0  0  0  0  0  0  0  0  0  0
   -1.3457    3.9319   -0.2353 H   0  0  0  0  0  0  0  0  0  0  0  0
   -2.9625    3.9189   -1.6709 C   0  0  0  0  0  0  0  0  0  0  0  0
   -2.2987    3.6975   -2.5130 H   0  0  0  0  0  0  0  0  0  0  0  0
   -3.8922    3.3618   -1.8216 H   0  0  0  0  0  0  0  0  0  0  0  0
   -3.2423    5.3757   -1.6097 N   0  3  0  0  0  0  0  0  0  0  0  0
   -2.3844    5.8974   -1.4808 H   0  0  0  0  0  0  0  0  0  0  0  0
   -3.6810    5.6903   -2.4662 H   0  0  0  0  0  0  0  0  0  0  0  0
   -3.8637    5.5848   -0.8370 H   0  0  0  0  0  0  0  0  0  0  0  0
   -0.2338   -0.5310    2.0114 C   0  0  0  0  0  0  0  0  0  0  0  0
    0.5645    0.2625    2.4958 O   0  0  0  0  0  0  0  0  0  0  0  0
   -0.3788   -1.7842    2.4541 N   0  0  0  0  0  0  0  0  0  0  0  0
   -1.0809   -2.3587    2.0179 H   0  0  0  0  0  0  0  0  0  0  0  0
    0.3620   -2.3447    3.5857 C   0  0  0  0  0  0  0  0  0  0  0  0
    0.1220   -1.7892    4.4949 H   0  0  0  0  0  0  0  0  0  0  0  0
    0.0995   -3.3932    3.7311 H   0  0  0  0  0  0  0  0  0  0  0  0
    1.4363   -2.2636    3.4065 H   0  0  0  0  0  0  0  0  0  0  0  0
  5  6  2  0  0  0  0
  5  7  1  0  0  0  0
  2  3  1  0  0  0  0
  2  4  1  0  0  0  0
  2  5  1  0  0  0  0
  1  2  1  0  0  0  0
 27 28  2  0  0  0  0
 27 29  1  0  0  0  0
 23 24  1  0  0  0  0
 23 25  1  0  0  0  0
 23 26  1  0  0  0  0
 20 21  1  0  0  0  0
 20 22  1  0  0  0  0
 20 23  1  0  0  0  0
 17 18  1  0  0  0  0
 17 19  1  0  0  0  0
 17 20  1  0  0  0  0
 14 15  1  0  0  0  0
 14 16  1  0  0  0  0
 14 17  1  0  0  0  0
 11 12  1  0  0  0  0
 11 13  1  0  0  0  0
 11 14  1  0  0  0  0
  9 10  1  0  0  0  0
  9 11  1  0  0  0  0
  9 27  1  0  0  0  0
  7  8  1  0  0  0  0
  7  9  1  0  0  0  0
 31 32  1  0  0  0  0
 31 33  1  0  0  0  0
 31 34  1  0  0  0  0
 29 30  1  0  0  0  0
 29 31  1  0  0  0  0
M  CHG  1  23   1
M  END
$$$$
default_name
  -OEChem-01062215323D

 34 33  0     1  0  0  0  0  0999 V2000
   -3.8899   -3.6747    1.6490 H   0  0  0  0  0  0  0  0  0  0  0  0
   -3.9109   -2.6717    1.2250 C   0  0  0  0  0  0  0  0  0  0  0  0
   -4.6009   -2.0517    1.7950 H   0  0  0  0  0  0  0  0  0  0  0  0
   -4.2309   -2.7237    0.1860 H   0  0  0  0  0  0  0  0  0  0  0  0
   -2.5229   -2.0787    1.2980 C   0  0  0  0  0  0  0  0  0  0  0  0
   -1.5999   -2.7227    1.7810 O   0  0  0  0  0  0  0  0  0  0  0  0
   -2.3659   -0.8447    0.8120 N   0  0  0  0  0  0  0  0  0  0  0  0
   -3.1749   -0.3807    0.4220 H   0  0  0  0  0  0  0  0  0  0  0  0
   -1.0919   -0.1077    0.8170 C   0  0  1  0  0  0  0  0  0  0  0  0
   -0.5548   -0.3460   -0.1029 H   0  0  0  0  0  0  0  0  0  0  0  0
   -1.3994    1.4014    0.8365 C   0  0  0  0  0  0  0  0  0  0  0  0
   -2.0852    1.6058    1.6602 H   0  0  0  0  0  0  0  0  0  0  0  0
   -0.4752    1.9535    1.0184 H   0  0  0  0  0  0  0  0  0  0  0  0
   -2.0428    1.9063   -0.4641 C   0  0  0  0  0  0  0  0  0  0  0  0
   -1.3804    1.6998   -1.3059 H   0  0  0  0  0  0  0  0  0  0  0  0
   -2.9908    1.3880   -0.6209 H   0  0  0  0  0  0  0  0  0  0  0  0
   -2.2975    3.4178   -0.3828 C   0  0  0  0  0  0  0  0  0  0  0  0
   -2.9490    3.6228    0.4700 H   0  0  0  0  0  0  0  0  0  0  0  0
   -1.3457    3.9319   -0.2353 H   0  0  0  0  0  0  0  0  0  0  0  0
   -2.9625    3.9189   -1.6709 C   0  0  0  0  0  0  0  0  0  0  0  0
   -2.2987    3.6975   -2.5130 H   0  0  0  0  0  0  0  0  0  0  0  0
   -3.8922    3.3618   -1.8216 H   0  0  0  0  0  0  0  0  0  0  0  0
   -3.2423    5.3757   -1.6097 N   0  3  0  0  0  0  0  0  0  0  0  0
   -2.3844    5.8974   -1.4808 H   0  0  0  0  0  0  0  0  0  0  0  0
   -3.6810    5.6903   -2.4662 H   0  0  0  0  0  0  0  0  0  0  0  0
   -3.8637    5.5848   -0.8370 H   0  0  0  0  0  0  0  0  0  0  0  0
   -0.2338   -0.5310    2.0114 C   0  0  0  0  0  0  0  0  0  0  0  0
    0.3539    0.3207    2.6677 O   0  0  0  0  0  0  0  0  0  0  0  0
   -0.1408   -1.8408    2.2630 N   0  0  0  0  0  0  0  0  0  0  0  0
   -0.6826   -2.4688    1.6927 H   0  0  0  0  0  0  0  0  0  0  0  0
    0.6348   -2.4105    3.3664 C   0  0  0  0  0  0  0  0  0  0  0  0
    0.2338   -2.0583    4.3192 H   0  0  0  0  0  0  0  0  0  0  0  0
    0.5875   -3.4998    3.3427 H   0  0  0  0  0  0  0  0  0  0  0  0
    1.6774   -2.0933    3.2937 H   0  0  0  0  0  0  0  0  0  0  0  0
  5  6  2  0  0  0  0
  5  7  1  0  0  0  0
  2  3  1  0  0  0  0
  2  4  1  0  0  0  0
  2  5  1  0  0  0  0
  1  2  1  0  0  0  0
 27 28  2  0  0  0  0
 27 29  1  0  0  0  0
 23 24  1  0  0  0  0
 23 25  1  0  0  0  0
 23 26  1  0  0  0  0
 20 21  1  0  0  0  0
 20 22  1  0  0  0  0
 20 23  1  0  0  0  0
 17 18  1  0  0  0  0
 17 19  1  0  0  0  0
 17 20  1  0  0  0  0
 14 15  1  0  0  0  0
 14 16  1  0  0  0  0
 14 17  1  0  0  0  0
 11 12  1  0  0  0  0
 11 13  1  0  0  0  0
 11 14  1  0  0  0  0
  9 10  1  0  0  0  0
  9 11  1  0  0  0  0
  9 27  1  0  0  0  0
  7  8  1  0  0  0  0
  7  9  1  0  0  0  0
 31 32  1  0  0  0  0
 31 33  1  0  0  0  0
 31 34  1  0  0  0  0
 29 30  1  0  0  0  0
 29 31  1  0  0  0  0
M  CHG  1  23   1
M  END
$$$$
default_name
  -OEChem-01062215323D

 34 33  0     1  0  0  0  0  0999 V2000
   -3.8899   -3.6747    1.6490 H   0  0  0  0  0  0  0  0  0  0  0  0
   -3.9109   -2.6717    1.2250 C   0  0  0  0  0  0  0  0  0  0  0  0
   -4.6009   -2.0517    1.7950 H   0  0  0  0  0  0  0  0  0  0  0  0
   -4.2309   -2.7237    0.1860 H   0  0  0  0  0  0  0  0  0  0  0  0
   -2.5229   -2.0787    1.2980 C   0  0  0  0  0  0  0  0  0  0  0  0
   -1.5999   -2.7227    1.7810 O   0  0  0  0  0  0  0  0  0  0  0  0
   -2.3659   -0.8447    0.8120 N   0  0  0  0  0  0  0  0  0  0  0  0
   -3.1749   -0.3807    0.4220 H   0  0  0  0  0  0  0  0  0  0  0  0
   -1.0919   -0.1077    0.8170 C   0  0  1  0  0  0  0  0  0  0  0  0
   -0.5548   -0.3460   -0.1029 H   0  0  0  0  0  0  0  0  0  0  0  0
   -1.3994    1.4014    0.8365 C   0  0  0  0  0  0  0  0  0  0  0  0
   -2.0852    1.6058    1.6602 H   0  0  0  0  0  0  0  0  0  0  0  0
   -0.4752    1.9535    1.0184 H   0  0  0  0  0  0  0  0  0  0  0  0
   -2.0428    1.9063   -0.4641 C   0  0  0  0  0  0  0  0  0  0  0  0
   -1.3804    1.6998   -1.3059 H   0  0  0  0  0  0  0  0  0  0  0  0
   -2.9908    1.3880   -0.6209 H   0  0  0  0  0  0  0  0  0  0  0  0
   -2.2975    3.4178   -0.3828 C   0  0  0  0  0  0  0  0  0  0  0  0
   -2.9490    3.6228    0.4700 H   0  0  0  0  0  0  0  0  0  0  0  0
   -1.3457    3.9319   -0.2353 H   0  0  0  0  0  0  0  0  0  0  0  0
   -2.9625    3.9189   -1.6709 C   0  0  0  0  0  0  0  0  0  0  0  0
   -2.2987    3.6975   -2.5130 H   0  0  0  0  0  0  0  0  0  0  0  0
   -3.8922    3.3618   -1.8216 H   0  0  0  0  0  0  0  0  0  0  0  0
   -3.2423    5.3757   -1.6097 N   0  3  0  0  0  0  0  0  0  0  0  0
   -2.3844    5.8974   -1.4808 H   0  0  0  0  0  0  0  0  0  0  0  0
   -3.6810    5.6903   -2.4662 H   0  0  0  0  0  0  0  0  0  0  0  0
   -3.8637    5.5848   -0.8370 H   0  0  0  0  0  0  0  0  0  0  0  0
   -0.2338   -0.5310    2.0114 C   0  0  0  0  0  0  0  0  0  0  0  0
    0.1265    0.3095    2.8271 O   0  0  0  0  0  0  0  0  0  0  0  0
    0.1143   -1.8196    2.0872 N   0  0  0  0  0  0  0  0  0  0  0  0
   -0.2524   -2.4475    1.3912 H   0  0  0  0  0  0  0  0  0  0  0  0
    0.9273   -2.3871    3.1645 C   0  0  0  0  0  0  0  0  0  0  0  0
    0.4087   -2.2702    4.1185 H   0  0  0  0  0  0  0  0  0  0  0  0
    1.1082   -3.4478    2.9870 H   0  0  0  0  0  0  0  0  0  0  0  0
    1.8839   -1.8637    3.2267 H   0  0  0  0  0  0  0  0  0  0  0  0
  5  6  2  0  0  0  0
  5  7  1  0  0  0  0
  2  3  1  0  0  0  0
  2  4  1  0  0  0  0
  2  5  1  0  0  0  0
  1  2  1  0  0  0  0
 27 28  2  0  0  0  0
 27 29  1  0  0  0  0
 23 24  1  0  0  0  0
 23 25  1  0  0  0  0
 23 26  1  0  0  0  0
 20 21  1  0  0  0  0
 20 22  1  0  0  0  0
 20 23  1  0  0  0  0
 17 18  1  0  0  0  0
 17 19  1  0  0  0  0
 17 20  1  0  0  0  0
 14 15  1  0  0  0  0
 14 16  1  0  0  0  0
 14 17  1  0  0  0  0
 11 12  1  0  0  0  0
 11 13  1  0  0  0  0
 11 14  1  0  0  0  0
  9 10  1  0  0  0  0
  9 11  1  0  0  0  0
  9 27  1  0  0  0  0
  7  8  1  0  0  0  0
  7  9  1  0  0  0  0
 31 32  1  0  0  0  0
 31 33  1  0  0  0  0
 31 34  1  0  0  0  0
 29 30  1  0  0  0  0
 29 31  1  0  0  0  0
M  CHG  1  23   1
M  END
$$$$
default_name
  -OEChem-01062215323D

 34 33  0     1  0  0  0  0  0999 V2000
   -3.8899   -3.6747    1.6490 H   0  0  0  0  0  0  0  0  0  0  0  0
   -3.9109   -2.6717    1.2250 C   0  0  0  0  0  0  0  0  0  0  0  0
   -4.6009   -2.0517    1.7950 H   0  0  0  0  0  0  0  0  0  0  0  0
   -4.2309   -2.7237    0.1860 H   0  0  0  0  0  0  0  0  0  0  0  0
   -2.5229   -2.0787    1.2980 C   0  0  0  0  0  0  0  0  0  0  0  0
   -1.5999   -2.7227    1.7810 O   0  0  0  0  0  0  0  0  0  0  0  0
   -2.3659   -0.8447    0.8120 N   0  0  0  0  0  0  0  0  0  0  0  0
   -3.1749   -0.3807    0.4220 H   0  0  0  0  0  0  0  0  0  0  0  0
   -1.0919   -0.1077    0.8170 C   0  0  1  0  0  0  0  0  0  0  0  0
   -0.5548   -0.3460   -0.1029 H   0  0  0  0  0  0  0  0  0  0  0  0
   -1.3994    1.4014    0.8365 C   0  0  0  0  0  0  0  0  0  0  0  0
   -2.0852    1.6058    1.6602 H   0  0  0  0  0  0  0  0  0  0  0  0
   -0.4752    1.9535    1.0184 H   0  0  0  0  0  0  0  0  0  0  0  0
   -2.0428    1.9063   -0.4641 C   0  0  0  0  0  0  0  0  0  0  0  0
   -1.3804    1.6998   -1.3059 H   0  0  0  0  0  0  0  0  0  0  0  0
   -2.9908    1.3880   -0.6209 H   0  0  0  0  0  0  0  0  0  0  0  0
   -2.2975    3.4178   -0.3828 C   0  0  0  0  0  0  0  0  0  0  0  0
   -2.9490    3.6228    0.4700 H   0  0  0  0  0  0  0  0  0  0  0  0
   -1.3457    3.9319   -0.2353 H   0  0  0  0  0  0  0  0  0  0  0  0
   -2.9625    3.9189   -1.6709 C   0  0  0  0  0  0  0  0  0  0  0  0
   -2.2987    3.6975   -2.5130 H   0  0  0  0  0  0  0  0  0  0  0  0
   -3.8922    3.3618   -1.8216 H   0  0  0  0  0  0  0  0  0  0  0  0
   -3.2423    5.3757   -1.6097 N   0  3  0  0  0  0  0  0  0  0  0  0
   -2.3844    5.8974   -1.4808 H   0  0  0  0  0  0  0  0  0  0  0  0
   -3.6810    5.6903   -2.4662 H   0  0  0  0  0  0  0  0  0  0  0  0
   -3.8637    5.5848   -0.8370 H   0  0  0  0  0  0  0  0  0  0  0  0
   -0.2338   -0.5310    2.0114 C   0  0  0  0  0  0  0  0  0  0  0  0
   -0.1024    0.2295    2.9632 O   0  0  0  0  0  0  0  0  0  0  0  0
    0.3690   -1.7222    1.9388 N   0  0  0  0  0  0  0  0  0  0  0  0
    0.1804   -2.2963    1.1338 H   0  0  0  0  0  0  0  0  0  0  0  0
    1.2195   -2.2761    2.9939 C   0  0  0  0  0  0  0  0  0  0  0  0
    0.6347   -2.4104    3.9064 H   0  0  0  0  0  0  0  0  0  0  0  0
    1.6262   -3.2408    2.6883 H   0  0  0  0  0  0  0  0  0  0  0  0
    2.0418   -1.5905    3.2100 H   0  0  0  0  0  0  0  0  0  0  0  0
  5  6  2  0  0  0  0
  5  7  1  0  0  0  0
  2  3  1  0  0  0  0
  2  4  1  0  0  0  0
  2  5  1  0  0  0  0
  1  2  1  0  0  0  0
 27 28  2  0  0  0  0
 27 29  1  0  0  0  0
 23 24  1  0  0  0  0
 23 25  1  0  0  0  0
 23 26  1  0  0  0  0
 20 21  1  0  0  0  0
 20 22  1  0  0  0  0
 20 23  1  0  0  0  0
 17 18  1  0  0  0  0
 17 19  1  0  0  0  0
 17 20  1  0  0  0  0
 14 15  1  0  0  0  0
 14 16  1  0  0  0  0
 14 17  1  0  0  0  0
 11 12  1  0  0  0  0
 11 13  1  0  0  0  0
 11 14  1  0  0  0  0
  9 10  1  0  0  0  0
  9 11  1  0  0  0  0
  9 27  1  0  0  0  0
  7  8  1  0  0  0  0
  7  9  1  0  0  0  0
 31 32  1  0  0  0  0
 31 33  1  0  0  0  0
 31 34  1  0  0  0  0
 29 30  1  0  0  0  0
 29 31  1  0  0  0  0
M  CHG  1  23   1
M  END
$$$$
default_name
  -OEChem-01062215323D

 34 33  0     1  0  0  0  0  0999 V2000
   -3.8899   -3.6747    1.6490 H   0  0  0  0  0  0  0  0  0  0  0  0
   -3.9109   -2.6717    1.2250 C   0  0  0  0  0  0  0  0  0  0  0  0
   -4.6009   -2.0517    1.7950 H   0  0  0  0  0  0  0  0  0  0  0  0
   -4.2309   -2.7237    0.1860 H   0  0  0  0  0  0  0  0  0  0  0  0
   -2.5229   -2.0787    1.2980 C   0  0  0  0  0  0  0  0  0  0  0  0
   -1.5999   -2.7227    1.7810 O   0  0  0  0  0  0  0  0  0  0  0  0
   -2.3659   -0.8447    0.8120 N   0  0  0  0  0  0  0  0  0  0  0  0
   -3.1749   -0.3807    0.4220 H   0  0  0  0  0  0  0  0  0  0  0  0
   -1.0919   -0.1077    0.8170 C   0  0  1  0  0  0  0  0  0  0  0  0
   -0.5548   -0.3460   -0.1029 H   0  0  0  0  0  0  0  0  0  0  0  0
   -1.3994    1.4014    0.8365 C   0  0  0  0  0  0  0  0  0  0  0  0
   -2.0852    1.6058    1.6602 H   0  0  0  0  0  0  0  0  0  0  0  0
   -0.4752    1.9535    1.0184 H   0  0  0  0  0  0  0  0  0  0  0  0
   -2.0428    1.9063   -0.4641 C   0  0  0  0  0  0  0  0  0  0  0  0
   -1.3804    1.6998   -1.3059 H   0  0  0  0  0  0  0  0  0  0  0  0
   -2.9908    1.3880   -0.6209 H   0  0  0  0  0  0  0  0  0  0  0  0
   -2.2975    3.4178   -0.3828 C   0  0  0  0  0  0  0  0  0  0  0  0
   -2.9490    3.6228    0.4700 H   0  0  0  0  0  0  0  0  0  0  0  0
   -1.3457    3.9319   -0.2353 H   0  0  0  0  0  0  0  0  0  0  0  0
   -2.9625    3.9189   -1.6709 C   0  0  0  0  0  0  0  0  0  0  0  0
   -2.2987    3.6975   -2.5130 H   0  0  0  0  0  0  0  0  0  0  0  0
   -3.8922    3.3618   -1.8216 H   0  0  0  0  0  0  0  0  0  0  0  0
   -3.2423    5.3757   -1.6097 N   0  3  0  0  0  0  0  0  0  0  0  0
   -2.3844    5.8974   -1.4808 H   0  0  0  0  0  0  0  0  0  0  0  0
   -3.6810    5.6903   -2.4662 H   0  0  0  0  0  0  0  0  0  0  0  0
   -3.8637    5.5848   -0.8370 H   0  0  0  0  0  0  0  0  0  0  0  0
   -0.2338   -0.5310    2.0114 C   0  0  0  0  0  0  0  0  0  0  0  0
   -0.3170    0.0863    3.0667 O   0  0  0  0  0  0  0  0  0  0  0  0
    0.6059   -1.5550    1.8278 N   0  0  0  0  0  0  0  0  0  0  0  0
    0.5864   -2.0254    0.9381 H   0  0  0  0  0  0  0  0  0  0  0  0
    1.4916   -2.0851    2.8661 C   0  0  0  0  0  0  0  0  0  0  0  0
    0.8966   -2.4693    3.6973 H   0  0  0  0  0  0  0  0  0  0  0  0
    2.1061   -2.8928    2.4668 H   0  0  0  0  0  0  0  0  0  0  0  0
    2.1404   -1.2923    3.2449 H   0  0  0  0  0  0  0  0  0  0  0  0
  5  6  2  0  0  0  0
  5  7  1  0  0  0  0
  2  3  1  0  0  0  0
  2  4  1  0  0  0  0
  2  5  1  0  0  0  0
  1  2  1  0  0  0  0
 27 28  2  0  0  0  0
 27 29  1  0  0  0  0
 23 24  1  0  0  0  0
 23 25  1  0  0  0  0
 23 26  1  0  0  0  0
 20 21  1  0  0  0  0
 20 22  1  0  0  0  0
 20 23  1  0  0  0  0
 17 18  1  0  0  0  0
 17 19  1  0  0  0  0
 17 20  1  0  0  0  0
 14 15  1  0  0  0  0
 14 16  1  0  0  0  0
 14 17  1  0  0  0  0
 11 12  1  0  0  0  0
 11 13  1  0  0  0  0
 11 14  1  0  0  0  0
  9 10  1  0  0  0  0
  9 11  1  0  0  0  0
  9 27  1  0  0  0  0
  7  8  1  0  0  0  0
  7  9  1  0  0  0  0
 31 32  1  0  0  0  0
 31 33  1  0  0  0  0
 31 34  1  0  0  0  0
 29 30  1  0  0  0  0
 29 31  1  0  0  0  0
M  CHG  1  23   1
M  END
$$$$
default_name
  -OEChem-01062215323D

 34 33  0     1  0  0  0  0  0999 V2000
   -3.8899   -3.6747    1.6490 H   0  0  0  0  0  0  0  0  0  0  0  0
   -3.9109   -2.6717    1.2250 C   0  0  0  0  0  0  0  0  0  0  0  0
   -4.6009   -2.0517    1.7950 H   0  0  0  0  0  0  0  0  0  0  0  0
   -4.2309   -2.7237    0.1860 H   0  0  0  0  0  0  0  0  0  0  0  0
   -2.5229   -2.0787    1.2980 C   0  0  0  0  0  0  0  0  0  0  0  0
   -1.5999   -2.7227    1.7810 O   0  0  0  0  0  0  0  0  0  0  0  0
   -2.3659   -0.8447    0.8120 N   0  0  0  0  0  0  0  0  0  0  0  0
   -3.1749   -0.3807    0.4220 H   0  0  0  0  0  0  0  0  0  0  0  0
   -1.0919   -0.1077    0.8170 C   0  0  1  0  0  0  0  0  0  0  0  0
   -0.5548   -0.3460   -0.1029 H   0  0  0  0  0  0  0  0  0  0  0  0
   -1.3994    1.4014    0.8365 C   0  0  0  0  0  0  0  0  0  0  0  0
   -2.0852    1.6058    1.6602 H   0  0  0  0  0  0  0  0  0  0  0  0
   -0.4752    1.9535    1.0184 H   0  0  0  0  0  0  0  0  0  0  0  0
   -2.0428    1.9063   -0.4641 C   0  0  0  0  0  0  0  0  0  0  0  0
   -1.3804    1.6998   -1.3059 H   0  0  0  0  0  0  0  0  0  0  0  0
   -2.9908    1.3880   -0.6209 H   0  0  0  0  0  0  0  0  0  0  0  0
   -2.2975    3.4178   -0.3828 C   0  0  0  0  0  0  0  0  0  0  0  0
   -2.9490    3.6228    0.4700 H   0  0  0  0  0  0  0  0  0  0  0  0
   -1.3457    3.9319   -0.2353 H   0  0  0  0  0  0  0  0  0  0  0  0
   -2.9625    3.9189   -1.6709 C   0  0  0  0  0  0  0  0  0  0  0  0
   -2.2987    3.6975   -2.5130 H   0  0  0  0  0  0  0  0  0  0  0  0
   -3.8922    3.3618   -1.8216 H   0  0  0  0  0  0  0  0  0  0  0  0
   -3.2423    5.3757   -1.6097 N   0  3  0  0  0  0  0  0  0  0  0  0
   -2.3844    5.8974   -1.4808 H   0  0  0  0  0  0  0  0  0  0  0  0
   -3.6810    5.6903   -2.4662 H   0  0  0  0  0  0  0  0  0  0  0  0
   -3.8637    5.5848   -0.8370 H   0  0  0  0  0  0  0  0  0  0  0  0
   -0.2338   -0.5310    2.0114 C   0  0  0  0  0  0  0  0  0  0  0  0
   -0.5028   -0.1104    3.1304 O   0  0  0  0  0  0  0  0  0  0  0  0
    0.8090   -1.3296    1.7617 N   0  0  0  0  0  0  0  0  0  0  0  0
    0.9378   -1.6534    0.8174 H   0  0  0  0  0  0  0  0  0  0  0  0
    1.7250   -1.8271    2.7898 C   0  0  0  0  0  0  0  0  0  0  0  0
    1.1765   -2.4430    3.5056 H   0  0  0  0  0  0  0  0  0  0  0  0
    2.5152   -2.4276    2.3377 H   0  0  0  0  0  0  0  0  0  0  0  0
    2.1728   -0.9894    3.3289 H   0  0  0  0  0  0  0  0  0  0  0  0
  5  6  2  0  0  0  0
  5  7  1  0  0  0  0
  2  3  1  0  0  0  0
  2  4  1  0  0  0  0
  2  5  1  0  0  0  0
  1  2  1  0  0  0  0
 27 28  2  0  0  0  0
 27 29  1  0  0  0  0
 23 24  1  0  0  0  0
 23 25  1  0  0  0  0
 23 26  1  0  0  0  0
 20 21  1  0  0  0  0
 20 22  1  0  0  0  0
 20 23  1  0  0  0  0
 17 18  1  0  0  0  0
 17 19  1  0  0  0  0
 17 20  1  0  0  0  0
 14 15  1  0  0  0  0
 14 16  1  0  0  0  0
 14 17  1  0  0  0  0
 11 12  1  0  0  0  0
 11 13  1  0  0  0  0
 11 14  1  0  0  0  0
  9 10  1  0  0  0  0
  9 11  1  0  0  0  0
  9 27  1  0  0  0  0
  7  8  1  0  0  0  0
  7  9  1  0  0  0  0
 31 32  1  0  0  0  0
 31 33  1  0  0  0  0
 31 34  1  0  0  0  0
 29 30  1  0  0  0  0
 29 31  1  0  0  0  0
M  CHG  1  23   1
M  END
$$$$
default_name
  -OEChem-01062215323D

 34 33  0     1  0  0  0  0  0999 V2000
   -3.8899   -3.6747    1.6490 H   0  0  0  0  0  0  0  0  0  0  0  0
   -3.9109   -2.6717    1.2250 C   0  0  0  0  0  0  0  0  0  0  0  0
   -4.6009   -2.0517    1.7950 H   0  0  0  0  0  0  0  0  0  0  0  0
   -4.2309   -2.7237    0.1860 H   0  0  0  0  0  0  0  0  0  0  0  0
   -2.5229   -2.0787    1.2980 C   0  0  0  0  0  0  0  0  0  0  0  0
   -1.5999   -2.7227    1.7810 O   0  0  0  0  0  0  0  0  0  0  0  0
   -2.3659   -0.8447    0.8120 N   0  0  0  0  0  0  0  0  0  0  0  0
   -3.1749   -0.3807    0.4220 H   0  0  0  0  0  0  0  0  0  0  0  0
   -1.0919   -0.1077    0.8170 C   0  0  1  0  0  0  0  0  0  0  0  0
   -0.5548   -0.3460   -0.1029 H   0  0  0  0  0  0  0  0  0  0  0  0
   -1.3994    1.4014    0.8365 C   0  0  0  0  0  0  0  0  0  0  0  0
   -2.0852    1.6058    1.6602 H   0  0  0  0  0  0  0  0  0  0  0  0
   -0.4752    1.9535    1.0184 H   0  0  0  0  0  0  0  0  0  0  0  0
   -2.0428    1.9063   -0.4641 C   0  0  0  0  0  0  0  0  0  0  0  0
   -1.3804    1.6998   -1.3059 H   0  0  0  0  0  0  0  0  0  0  0  0
   -2.9908    1.3880   -0.6209 H   0  0  0  0  0  0  0  0  0  0  0  0
   -2.2975    3.4178   -0.3828 C   0  0  0  0  0  0  0  0  0  0  0  0
   -2.9490    3.6228    0.4700 H   0  0  0  0  0  0  0  0  0  0  0  0
   -1.3457    3.9319   -0.2353 H   0  0  0  0  0  0  0  0  0  0  0  0
   -2.9625    3.9189   -1.6709 C   0  0  0  0  0  0  0  0  0  0  0  0
   -2.2987    3.6975   -2.5130 H   0  0  0  0  0  0  0  0  0  0  0  0
   -3.8922    3.3618   -1.8216 H   0  0  0  0  0  0  0  0  0  0  0  0
   -3.2423    5.3757   -1.6097 N   0  3  0  0  0  0  0  0  0  0  0  0
   -2.3844    5.8974   -1.4808 H   0  0  0  0  0  0  0  0  0  0  0  0
   -3.6810    5.6903   -2.4662 H   0  0  0  0  0  0  0  0  0  0  0  0
   -3.8637    5.5848   -0.8370 H   0  0  0  0  0  0  0  0  0  0  0  0
   -0.2338   -0.5310    2.0114 C   0  0  0  0  0  0  0  0  0  0  0  0
   -0.6471   -0.3472    3.1502 O   0  0  0  0  0  0  0  0  0  0  0  0
    0.9643   -1.0613    1.7452 N   0  0  0  0  0  0  0  0  0  0  0  0
    1.2108   -1.2055    0.7800 H   0  0  0  0  0  0  0  0  0  0  0  0
    1.9038   -1.5196    2.7703 C   0  0  0  0  0  0  0  0  0  0  0  0
    1.4552   -2.3333    3.3443 H   0  0  0  0  0  0  0  0  0  0  0  0
    2.8256   -1.8769    2.3098 H   0  0  0  0  0  0  0  0  0  0  0  0
    2.1369   -0.7024    3.4564 H   0  0  0  0  0  0  0  0  0  0  0  0
  5  6  2  0  0  0  0
  5  7  1  0  0  0  0
  2  3  1  0  0  0  0
  2  4  1  0  0  0  0
  2  5  1  0  0  0  0
  1  2  1  0  0  0  0
 27 28  2  0  0  0  0
 27 29  1  0  0  0  0
 23 24  1  0  0  0  0
 23 25  1  0  0  0  0
 23 26  1  0  0  0  0
 20 21  1  0  0  0  0
 20 22  1  0  0  0  0
 20 23  1  0  0  0  0
 17 18  1  0  0  0  0
 17 19  1  0  0  0  0
 17 20  1  0  0  0  0
 14 15  1  0  0  0  0
 14 16  1  0  0  0  0
 14 17  1  0  0  0  0
 11 12  1  0  0  0  0
 11 13  1  0  0  0  0
 11 14  1  0  0  0  0
  9 10  1  0  0  0  0
  9 11  1  0  0  0  0
  9 27  1  0  0  0  0
  7  8  1  0  0  0  0
  7  9  1  0  0  0  0
 31 32  1  0  0  0  0
 31 33  1  0  0  0  0
 31 34  1  0  0  0  0
 29 30  1  0  0  0  0
 29 31  1  0  0  0  0
M  CHG  1  23   1
M  END
$$$$
default_name
  -OEChem-01062215323D

 34 33  0     1  0  0  0  0  0999 V2000
   -3.8899   -3.6747    1.6490 H   0  0  0  0  0  0  0  0  0  0  0  0
   -3.9109   -2.6717    1.2250 C   0  0  0  0  0  0  0  0  0  0  0  0
   -4.6009   -2.0517    1.7950 H   0  0  0  0  0  0  0  0  0  0  0  0
   -4.2309   -2.7237    0.1860 H   0  0  0  0  0  0  0  0  0  0  0  0
   -2.5229   -2.0787    1.2980 C   0  0  0  0  0  0  0  0  0  0  0  0
   -1.5999   -2.7227    1.7810 O   0  0  0  0  0  0  0  0  0  0  0  0
   -2.3659   -0.8447    0.8120 N   0  0  0  0  0  0  0  0  0  0  0  0
   -3.1749   -0.3807    0.4220 H   0  0  0  0  0  0  0  0  0  0  0  0
   -1.0919   -0.1077    0.8170 C   0  0  1  0  0  0  0  0  0  0  0  0
   -0.5548   -0.3460   -0.1029 H   0  0  0  0  0  0  0  0  0  0  0  0
   -1.3994    1.4014    0.8365 C   0  0  0  0  0  0  0  0  0  0  0  0
   -2.0852    1.6058    1.6602 H   0  0  0  0  0  0  0  0  0  0  0  0
   -0.4752    1.9535    1.0184 H   0  0  0  0  0  0  0  0  0  0  0  0
   -2.0428    1.9063   -0.4641 C   0  0  0  0  0  0  0  0  0  0  0  0
   -1.3804    1.6998   -1.3059 H   0  0  0  0  0  0  0  0  0  0  0  0
   -2.9908    1.3880   -0.6209 H   0  0  0  0  0  0  0  0  0  0  0  0
   -2.2975    3.4178   -0.3828 C   0  0  0  0  0  0  0  0  0  0  0  0
   -2.9490    3.6228    0.4700 H   0  0  0  0  0  0  0  0  0  0  0  0
   -1.3457    3.9319   -0.2353 H   0  0  0  0  0  0  0  0  0  0  0  0
   -2.9625    3.9189   -1.6709 C   0  0  0  0  0  0  0  0  0  0  0  0
   -2.2987    3.6975   -2.5130 H   0  0  0  0  0  0  0  0  0  0  0  0
   -3.8922    3.3618   -1.8216 H   0  0  0  0  0  0  0  0  0  0  0  0
   -3.2423    5.3757   -1.6097 N   0  3  0  0  0  0  0  0  0  0  0  0
   -2.3844    5.8974   -1.4808 H   0  0  0  0  0  0  0  0  0  0  0  0
   -3.6810    5.6903   -2.4662 H   0  0  0  0  0  0  0  0  0  0  0  0
   -3.8637    5.5848   -0.8370 H   0  0  0  0  0  0  0  0  0  0  0  0
   -0.2338   -0.5310    2.0114 C   0  0  0  0  0  0  0  0  0  0  0  0
   -0.7401   -0.6079    3.1246 O   0  0  0  0  0  0  0  0  0  0  0  0
    1.0614   -0.7683    1.7793 N   0  0  0  0  0  0  0  0  0  0  0  0
    1.3866   -0.7124    0.8285 H   0  0  0  0  0  0  0  0  0  0  0  0
    2.0158   -1.1838    2.8089 C   0  0  0  0  0  0  0  0  0  0  0  0
    1.7138   -2.1475    3.2243 H   0  0  0  0  0  0  0  0  0  0  0  0
    3.0162   -1.2783    2.3850 H   0  0  0  0  0  0  0  0  0  0  0  0
    2.0352   -0.4510    3.6186 H   0  0  0  0  0  0  0  0  0  0  0  0
  5  6  2  0  0  0  0
  5  7  1  0  0  0  0
  2  3  1  0  0  0  0
  2  4  1  0  0  0  0
  2  5  1  0  0  0  0
  1  2  1  0  0  0  0
 27 28  2  0  0  0  0
 27 29  1  0  0  0  0
 23 24  1  0  0  0  0
 23 25  1  0  0  0  0
 23 26  1  0  0  0  0
 20 21  1  0  0  0  0
 20 22  1  0  0  0  0
 20 23  1  0  0  0  0
 17 18  1  0  0  0  0
 17 19  1  0  0  0  0
 17 20  1  0  0  0  0
 14 15  1  0  0  0  0
 14 16  1  0  0  0  0
 14 17  1  0  0  0  0
 11 12  1  0  0  0  0
 11 13  1  0  0  0  0
 11 14  1  0  0  0  0
  9 10  1  0  0  0  0
  9 11  1  0  0  0  0
  9 27  1  0  0  0  0
  7  8  1  0  0  0  0
  7  9  1  0  0  0  0
 31 32  1  0  0  0  0
 31 33  1  0  0  0  0
 31 34  1  0  0  0  0
 29 30  1  0  0  0  0
 29 31  1  0  0  0  0
M  CHG  1  23   1
M  END
$$$$
default_name
  -OEChem-01062215323D

 34 33  0     1  0  0  0  0  0999 V2000
   -3.8899   -3.6747    1.6490 H   0  0  0  0  0  0  0  0  0  0  0  0
   -3.9109   -2.6717    1.2250 C   0  0  0  0  0  0  0  0  0  0  0  0
   -4.6009   -2.0517    1.7950 H   0  0  0  0  0  0  0  0  0  0  0  0
   -4.2309   -2.7237    0.1860 H   0  0  0  0  0  0  0  0  0  0  0  0
   -2.5229   -2.0787    1.2980 C   0  0  0  0  0  0  0  0  0  0  0  0
   -1.5999   -2.7227    1.7810 O   0  0  0  0  0  0  0  0  0  0  0  0
   -2.3659   -0.8447    0.8120 N   0  0  0  0  0  0  0  0  0  0  0  0
   -3.1749   -0.3807    0.4220 H   0  0  0  0  0  0  0  0  0  0  0  0
   -1.0919   -0.1077    0.8170 C   0  0  1  0  0  0  0  0  0  0  0  0
   -0.5548   -0.3460   -0.1029 H   0  0  0  0  0  0  0  0  0  0  0  0
   -1.3994    1.4014    0.8365 C   0  0  0  0  0  0  0  0  0  0  0  0
   -2.0852    1.6058    1.6602 H   0  0  0  0  0  0  0  0  0  0  0  0
   -0.4752    1.9535    1.0184 H   0  0  0  0  0  0  0  0  0  0  0  0
   -2.0428    1.9063   -0.4641 C   0  0  0  0  0  0  0  0  0  0  0  0
   -1.3804    1.6998   -1.3059 H   0  0  0  0  0  0  0  0  0  0  0  0
   -2.9908    1.3880   -0.6209 H   0  0  0  0  0  0  0  0  0  0  0  0
   -2.2975    3.4178   -0.3828 C   0  0  0  0  0  0  0  0  0  0  0  0
   -2.9490    3.6228    0.4700 H   0  0  0  0  0  0  0  0  0  0  0  0
   -1.3457    3.9319   -0.2353 H   0  0  0  0  0  0  0  0  0  0  0  0
   -2.9625    3.9189   -1.6709 C   0  0  0  0  0  0  0  0  0  0  0  0
   -2.2987    3.6975   -2.5130 H   0  0  0  0  0  0  0  0  0  0  0  0
   -3.8922    3.3618   -1.8216 H   0  0  0  0  0  0  0  0  0  0  0  0
   -3.2423    5.3757   -1.6097 N   0  3  0  0  0  0  0  0  0  0  0  0
   -2.3844    5.8974   -1.4808 H   0  0  0  0  0  0  0  0  0  0  0  0
   -3.6810    5.6903   -2.4662 H   0  0  0  0  0  0  0  0  0  0  0  0
   -3.8637    5.5848   -0.8370 H   0  0  0  0  0  0  0  0  0  0  0  0
   -0.2338   -0.5310    2.0114 C   0  0  0  0  0  0  0  0  0  0  0  0
   -0.7754   -0.8748    3.0554 O   0  0  0  0  0  0  0  0  0  0  0  0
    1.0934   -0.4707    1.8618 N   0  0  0  0  0  0  0  0  0  0  0  0
    1.4534   -0.2075    0.9594 H   0  0  0  0  0  0  0  0  0  0  0  0
    2.0534   -0.8423    2.9029 C   0  0  0  0  0  0  0  0  0  0  0  0
    1.9346   -1.8985    3.1539 H   0  0  0  0  0  0  0  0  0  0  0  0
    3.0740   -0.6724    2.5582 H   0  0  0  0  0  0  0  0  0  0  0  0
    1.8746   -0.2522    3.8044 H   0  0  0  0  0  0  0  0  0  0  0  0
  5  6  2  0  0  0  0
  5  7  1  0  0  0  0
  2  3  1  0  0  0  0
  2  4  1  0  0  0  0
  2  5  1  0  0  0  0
  1  2  1  0  0  0  0
 27 28  2  0  0  0  0
 27 29  1  0  0  0  0
 23 24  1  0  0  0  0
 23 25  1  0  0  0  0
 23 26  1  0  0  0  0
 20 21  1  0  0  0  0
 20 22  1  0  0  0  0
 20 23  1  0  0  0  0
 17 18  1  0  0  0  0
 17 19  1  0  0  0  0
 17 20  1  0  0  0  0
 14 15  1  0  0  0  0
 14 16  1  0  0  0  0
 14 17  1  0  0  0  0
 11 12  1  0  0  0  0
 11 13  1  0  0  0  0
 11 14  1  0  0  0  0
  9 10  1  0  0  0  0
  9 11  1  0  0  0  0
  9 27  1  0  0  0  0
  7  8  1  0  0  0  0
  7  9  1  0  0  0  0
 31 32  1  0  0  0  0
 31 33  1  0  0  0  0
 31 34  1  0  0  0  0
 29 30  1  0  0  0  0
 29 31  1  0  0  0  0
M  CHG  1  23   1
M  END
$$$$
default_name
  -OEChem-01062215323D

 34 33  0     1  0  0  0  0  0999 V2000
   -3.8899   -3.6747    1.6490 H   0  0  0  0  0  0  0  0  0  0  0  0
   -3.9109   -2.6717    1.2250 C   0  0  0  0  0  0  0  0  0  0  0  0
   -4.6009   -2.0517    1.7950 H   0  0  0  0  0  0  0  0  0  0  0  0
   -4.2309   -2.7237    0.1860 H   0  0  0  0  0  0  0  0  0  0  0  0
   -2.5229   -2.0787    1.2980 C   0  0  0  0  0  0  0  0  0  0  0  0
   -1.5999   -2.7227    1.7810 O   0  0  0  0  0  0  0  0  0  0  0  0
   -2.3659   -0.8447    0.8120 N   0  0  0  0  0  0  0  0  0  0  0  0
   -3.1749   -0.3807    0.4220 H   0  0  0  0  0  0  0  0  0  0  0  0
   -1.0919   -0.1077    0.8170 C   0  0  1  0  0  0  0  0  0  0  0  0
   -0.5548   -0.3460   -0.1029 H   0  0  0  0  0  0  0  0  0  0  0  0
   -1.3994    1.4014    0.8365 C   0  0  0  0  0  0  0  0  0  0  0  0
   -2.0852    1.6058    1.6602 H   0  0  0  0  0  0  0  0  0  0  0  0
   -0.4752    1.9535    1.0184 H   0  0  0  0  0  0  0  0  0  0  0  0
   -2.0428    1.9063   -0.4641 C   0  0  0  0  0  0  0  0  0  0  0  0
   -1.3804    1.6998   -1.3059 H   0  0  0  0  0  0  0  0  0  0  0  0
   -2.9908    1.3880   -0.6209 H   0  0  0  0  0  0  0  0  0  0  0  0
   -2.2975    3.4178   -0.3828 C   0  0  0  0  0  0  0  0  0  0  0  0
   -2.9490    3.6228    0.4700 H   0  0  0  0  0  0  0  0  0  0  0  0
   -1.3457    3.9319   -0.2353 H   0  0  0  0  0  0  0  0  0  0  0  0
   -2.9625    3.9189   -1.6709 C   0  0  0  0  0  0  0  0  0  0  0  0
   -2.2987    3.6975   -2.5130 H   0  0  0  0  0  0  0  0  0  0  0  0
   -3.8922    3.3618   -1.8216 H   0  0  0  0  0  0  0  0  0  0  0  0
   -3.2423    5.3757   -1.6097 N   0  3  0  0  0  0  0  0  0  0  0  0
   -2.3844    5.8974   -1.4808 H   0  0  0  0  0  0  0  0  0  0  0  0
   -3.6810    5.6903   -2.4662 H   0  0  0  0  0  0  0  0  0  0  0  0
   -3.8637    5.5848   -0.8370 H   0  0  0  0  0  0  0  0  0  0  0  0
   -0.2338   -0.5310    2.0114 C   0  0  0  0  0  0  0  0  0  0  0  0
   -0.7506   -1.1297    2.9473 O   0  0  0  0  0  0  0  0  0  0  0  0
    1.0584   -0.1887    1.9868 N   0  0  0  0  0  0  0  0  0  0  0  0
    1.4066    0.2746    1.1639 H   0  0  0  0  0  0  0  0  0  0  0  0
    2.0140   -0.5185    3.0459 C   0  0  0  0  0  0  0  0  0  0  0  0
    2.1027   -1.6031    3.1378 H   0  0  0  0  0  0  0  0  0  0  0  0
    2.9951   -0.1006    2.8175 H   0  0  0  0  0  0  0  0  0  0  0  0
    1.6659   -0.1197    4.0013 H   0  0  0  0  0  0  0  0  0  0  0  0
  5  6  2  0  0  0  0
  5  7  1  0  0  0  0
  2  3  1  0  0  0  0
  2  4  1  0  0  0  0
  2  5  1  0  0  0  0
  1  2  1  0  0  0  0
 27 28  2  0  0  0  0
 27 29  1  0  0  0  0
 23 24  1  0  0  0  0
 23 25  1  0  0  0  0
 23 26  1  0  0  0  0
 20 21  1  0  0  0  0
 20 22  1  0  0  0  0
 20 23  1  0  0  0  0
 17 18  1  0  0  0  0
 17 19  1  0  0  0  0
 17 20  1  0  0  0  0
 14 15  1  0  0  0  0
 14 16  1  0  0  0  0
 14 17  1  0  0  0  0
 11 12  1  0  0  0  0
 11 13  1  0  0  0  0
 11 14  1  0  0  0  0
  9 10  1  0  0  0  0
  9 11  1  0  0  0  0
  9 27  1  0  0  0  0
  7  8  1  0  0  0  0
  7  9  1  0  0  0  0
 31 32  1  0  0  0  0
 31 33  1  0  0  0  0
 31 34  1  0  0  0  0
 29 30  1  0  0  0  0
 29 31  1  0  0  0  0
M  CHG  1  23   1
M  END
$$$$
default_name
  -OEChem-01062215323D

 34 33  0     1  0  0  0  0  0999 V2000
   -3.8899   -3.6747    1.6490 H   0  0  0  0  0  0  0  0  0  0  0  0
   -3.9109   -2.6717    1.2250 C   0  0  0  0  0  0  0  0  0  0  0  0
   -4.6009   -2.0517    1.7950 H   0  0  0  0  0  0  0  0  0  0  0  0
   -4.2309   -2.7237    0.1860 H   0  0  0  0  0  0  0  0  0  0  0  0
   -2.5229   -2.0787    1.2980 C   0  0  0  0  0  0  0  0  0  0  0  0
   -1.5999   -2.7227    1.7810 O   0  0  0  0  0  0  0  0  0  0  0  0
   -2.3659   -0.8447    0.8120 N   0  0  0  0  0  0  0  0  0  0  0  0
   -3.1749   -0.3807    0.4220 H   0  0  0  0  0  0  0  0  0  0  0  0
   -1.0919   -0.1077    0.8170 C   0  0  1  0  0  0  0  0  0  0  0  0
   -0.6820   -0.1254   -0.1946 H   0  0  0  0  0  0  0  0  0  0  0  0
   -1.3733    1.3537    1.2138 C   0  0  0  0  0  0  0  0  0  0  0  0
   -1.9435    1.3576    2.1441 H   0  0  0  0  0  0  0  0  0  0  0  0
   -0.4257    1.8654    1.3936 H   0  0  0  0  0  0  0  0  0  0  0  0
   -2.1728    2.1269    0.1540 C   0  0  0  0  0  0  0  0  0  0  0  0
   -1.6282    2.1246   -0.7911 H   0  0  0  0  0  0  0  0  0  0  0  0
   -3.1402    1.6421    0.0091 H   0  0  0  0  0  0  0  0  0  0  0  0
   -2.3939    3.5776    0.6042 C   0  0  0  0  0  0  0  0  0  0  0  0
   -2.9263    3.5762    1.5583 H   0  0  0  0  0  0  0  0  0  0  0  0
   -1.4239    4.0604    0.7386 H   0  0  0  0  0  0  0  0  0  0  0  0
   -3.2133    4.3440   -0.4416 C   0  0  0  0  0  0  0  0  0  0  0  0
   -2.6674    4.3273   -1.3905 H   0  0  0  0  0  0  0  0  0  0  0  0
   -4.1623    3.8204   -0.5916 H   0  0  0  0  0  0  0  0  0  0  0  0
   -3.4626    5.7456   -0.0197 N   0  3  0  0  0  0  0  0  0  0  0  0
   -2.5880    6.2385    0.1105 H   0  0  0  0  0  0  0  0  0  0  0  0
   -4.0042    6.2371   -0.7198 H   0  0  0  0  0  0  0  0  0  0  0  0
   -3.9754    5.7665    0.8540 H   0  0  0  0  0  0  0  0  0  0  0  0
   -0.0921   -0.7742    1.7647 C   0  0  0  0  0  0  0  0  0  0  0  0
   -0.4302   -1.7626    2.4053 O   0  0  0  0  0  0  0  0  0  0  0  0
    1.1159   -0.2114    1.8725 N   0  0  0  0  0  0  0  0  0  0  0  0
    1.3198    0.5803    1.2853 H   0  0  0  0  0  0  0  0  0  0  0  0
    2.1857   -0.7245    2.7302 C   0  0  0  0  0  0  0  0  0  0  0  0
    2.4682   -1.7285    2.4066 H   0  0  0  0  0  0  0  0  0  0  0  0
    3.0607   -0.0757    2.6773 H   0  0  0  0  0  0  0  0  0  0  0  0
    1.8409   -0.7809    3.7650 H   0  0  0  0  0  0  0  0  0  0  0  0
  5  6  2  0  0  0  0
  5  7  1  0  0  0  0
  2  3  1  0  0  0  0
  2  4  1  0  0  0  0
  2  5  1  0  0  0  0
  1  2  1  0  0  0  0
 27 28  2  0  0  0  0
 27 29  1  0  0  0  0
 23 24  1  0  0  0  0
 23 25  1  0  0  0  0
 23 26  1  0  0  0  0
 20 21  1  0  0  0  0
 20 22  1  0  0  0  0
 20 23  1  0  0  0  0
 17 18  1  0  0  0  0
 17 19  1  0  0  0  0
 17 20  1  0  0  0  0
 14 15  1  0  0  0  0
 14 16  1  0  0  0  0
 14 17  1  0  0  0  0
 11 12  1  0  0  0  0
 11 13  1  0  0  0  0
 11 14  1  0  0  0  0
  9 10  1  0  0  0  0
  9 11  1  0  0  0  0
  9 27  1  0  0  0  0
  7  8  1  0  0  0  0
  7  9  1  0  0  0  0
 31 32  1  0  0  0  0
 31 33  1  0  0  0  0
 31 34  1  0  0  0  0
 29 30  1  0  0  0  0
 29 31  1  0  0  0  0
M  CHG  1  23   1
M  END
$$$$
default_name
  -OEChem-01062215323D

 34 33  0     1  0  0  0  0  0999 V2000
   -3.8899   -3.6747    1.6490 H   0  0  0  0  0  0  0  0  0  0  0  0
   -3.9109   -2.6717    1.2250 C   0  0  0  0  0  0  0  0  0  0  0  0
   -4.6009   -2.0517    1.7950 H   0  0  0  0  0  0  0  0  0  0  0  0
   -4.2309   -2.7237    0.1860 H   0  0  0  0  0  0  0  0  0  0  0  0
   -2.5229   -2.0787    1.2980 C   0  0  0  0  0  0  0  0  0  0  0  0
   -1.5999   -2.7227    1.7810 O   0  0  0  0  0  0  0  0  0  0  0  0
   -2.3659   -0.8447    0.8120 N   0  0  0  0  0  0  0  0  0  0  0  0
   -3.1749   -0.3807    0.4220 H   0  0  0  0  0  0  0  0  0  0  0  0
   -1.0919   -0.1077    0.8170 C   0  0  1  0  0  0  0  0  0  0  0  0
   -0.6820   -0.1254   -0.1946 H   0  0  0  0  0  0  0  0  0  0  0  0
   -1.3733    1.3537    1.2138 C   0  0  0  0  0  0  0  0  0  0  0  0
   -1.9435    1.3576    2.1441 H   0  0  0  0  0  0  0  0  0  0  0  0
   -0.4257    1.8654    1.3936 H   0  0  0  0  0  0  0  0  0  0  0  0
   -2.1728    2.1269    0.1540 C   0  0  0  0  0  0  0  0  0  0  0  0
   -1.6282    2.1246   -0.7911 H   0  0  0  0  0  0  0  0  0  0  0  0
   -3.1402    1.6421    0.0091 H   0  0  0  0  0  0  0  0  0  0  0  0
   -2.3939    3.5776    0.6042 C   0  0  0  0  0  0  0  0  0  0  0  0
   -2.9263    3.5762    1.5583 H   0  0  0  0  0  0  0  0  0  0  0  0
   -1.4239    4.0604    0.7386 H   0  0  0  0  0  0  0  0  0  0  0  0
   -3.2133    4.3440   -0.4416 C   0  0  0  0  0  0  0  0  0  0  0  0
   -2.6674    4.3273   -1.3905 H   0  0  0  0  0  0  0  0  0  0  0  0
   -4.1623    3.8204   -0.5916 H   0  0  0  0  0  0  0  0  0  0  0  0
   -3.4626    5.7456   -0.0197 N   0  3  0  0  0  0  0  0  0  0  0  0
   -2.5880    6.2385    0.1105 H   0  0  0  0  0  0  0  0  0  0  0  0
   -4.0042    6.2371   -0.7198 H   0  0  0  0  0  0  0  0  0  0  0  0
   -3.9754    5.7665    0.8540 H   0  0  0  0  0  0  0  0  0  0  0  0
   -0.0921   -0.7742    1.7647 C   0  0  0  0  0  0  0  0  0  0  0  0
   -0.3190   -1.9004    2.1910 O   0  0  0  0  0  0  0  0  0  0  0  0
    0.9859   -0.0642    2.1131 N   0  0  0  0  0  0  0  0  0  0  0  0
    1.1094    0.8410    1.6905 H   0  0  0  0  0  0  0  0  0  0  0  0
    2.0372   -0.5550    3.0061 C   0  0  0  0  0  0  0  0  0  0  0  0
    2.5169   -1.4311    2.5644 H   0  0  0  0  0  0  0  0  0  0  0  0
    2.7901    0.2171    3.1687 H   0  0  0  0  0  0  0  0  0  0  0  0
    1.6064   -0.8462    3.9665 H   0  0  0  0  0  0  0  0  0  0  0  0
  5  6  2  0  0  0  0
  5  7  1  0  0  0  0
  2  3  1  0  0  0  0
  2  4  1  0  0  0  0
  2  5  1  0  0  0  0
  1  2  1  0  0  0  0
 27 28  2  0  0  0  0
 27 29  1  0  0  0  0
 23 24  1  0  0  0  0
 23 25  1  0  0  0  0
 23 26  1  0  0  0  0
 20 21  1  0  0  0  0
 20 22  1  0  0  0  0
 20 23  1  0  0  0  0
 17 18  1  0  0  0  0
 17 19  1  0  0  0  0
 17 20  1  0  0  0  0
 14 15  1  0  0  0  0
 14 16  1  0  0  0  0
 14 17  1  0  0  0  0
 11 12  1  0  0  0  0
 11 13  1  0  0  0  0
 11 14  1  0  0  0  0
  9 10  1  0  0  0  0
  9 11  1  0  0  0  0
  9 27  1  0  0  0  0
  7  8  1  0  0  0  0
  7  9  1  0  0  0  0
 31 32  1  0  0  0  0
 31 33  1  0  0  0  0
 31 34  1  0  0  0  0
 29 30  1  0  0  0  0
 29 31  1  0  0  0  0
M  CHG  1  23   1
M  END
$$$$
default_name
  -OEChem-01062215323D

 34 33  0     1  0  0  0  0  0999 V2000
   -3.8899   -3.6747    1.6490 H   0  0  0  0  0  0  0  0  0  0  0  0
   -3.9109   -2.6717    1.2250 C   0  0  0  0  0  0  0  0  0  0  0  0
   -4.6009   -2.0517    1.7950 H   0  0  0  0  0  0  0  0  0  0  0  0
   -4.2309   -2.7237    0.1860 H   0  0  0  0  0  0  0  0  0  0  0  0
   -2.5229   -2.0787    1.2980 C   0  0  0  0  0  0  0  0  0  0  0  0
   -1.5999   -2.7227    1.7810 O   0  0  0  0  0  0  0  0  0  0  0  0
   -2.3659   -0.8447    0.8120 N   0  0  0  0  0  0  0  0  0  0  0  0
   -3.1749   -0.3807    0.4220 H   0  0  0  0  0  0  0  0  0  0  0  0
   -1.0919   -0.1077    0.8170 C   0  0  1  0  0  0  0  0  0  0  0  0
   -0.6820   -0.1254   -0.1946 H   0  0  0  0  0  0  0  0  0  0  0  0
   -1.3733    1.3537    1.2138 C   0  0  0  0  0  0  0  0  0  0  0  0
   -1.9435    1.3576    2.1441 H   0  0  0  0  0  0  0  0  0  0  0  0
   -0.4257    1.8654    1.3936 H   0  0  0  0  0  0  0  0  0  0  0  0
   -2.1728    2.1269    0.1540 C   0  0  0  0  0  0  0  0  0  0  0  0
   -1.6282    2.1246   -0.7911 H   0  0  0  0  0  0  0  0  0  0  0  0
   -3.1402    1.6421    0.0091 H   0  0  0  0  0  0  0  0  0  0  0  0
   -2.3939    3.5776    0.6042 C   0  0  0  0  0  0  0  0  0  0  0  0
   -2.9263    3.5762    1.5583 H   0  0  0  0  0  0  0  0  0  0  0  0
   -1.4239    4.0604    0.7386 H   0  0  0  0  0  0  0  0  0  0  0  0
   -3.2133    4.3440   -0.4416 C   0  0  0  0  0  0  0  0  0  0  0  0
   -2.6674    4.3273   -1.3905 H   0  0  0  0  0  0  0  0  0  0  0  0
   -4.1623    3.8204   -0.5916 H   0  0  0  0  0  0  0  0  0  0  0  0
   -3.4626    5.7456   -0.0197 N   0  3  0  0  0  0  0  0  0  0  0  0
   -2.5880    6.2385    0.1105 H   0  0  0  0  0  0  0  0  0  0  0  0
   -4.0042    6.2371   -0.7198 H   0  0  0  0  0  0  0  0  0  0  0  0
   -3.9754    5.7665    0.8540 H   0  0  0  0  0  0  0  0  0  0  0  0
   -0.0921   -0.7742    1.7647 C   0  0  0  0  0  0  0  0  0  0  0  0
   -0.1653   -1.9795    1.9733 O   0  0  0  0  0  0  0  0  0  0  0  0
    0.8097    0.0164    2.3557 N   0  0  0  0  0  0  0  0  0  0  0  0
    0.8187    0.9905    2.1024 H   0  0  0  0  0  0  0  0  0  0  0  0
    1.8355   -0.4617    3.2844 C   0  0  0  0  0  0  0  0  0  0  0  0
    2.4984   -1.1626    2.7726 H   0  0  0  0  0  0  0  0  0  0  0  0
    2.4264    0.3735    3.6623 H   0  0  0  0  0  0  0  0  0  0  0  0
    1.3676   -0.9810    4.1236 H   0  0  0  0  0  0  0  0  0  0  0  0
  5  6  2  0  0  0  0
  5  7  1  0  0  0  0
  2  3  1  0  0  0  0
  2  4  1  0  0  0  0
  2  5  1  0  0  0  0
  1  2  1  0  0  0  0
 27 28  2  0  0  0  0
 27 29  1  0  0  0  0
 23 24  1  0  0  0  0
 23 25  1  0  0  0  0
 23 26  1  0  0  0  0
 20 21  1  0  0  0  0
 20 22  1  0  0  0  0
 20 23  1  0  0  0  0
 17 18  1  0  0  0  0
 17 19  1  0  0  0  0
 17 20  1  0  0  0  0
 14 15  1  0  0  0  0
 14 16  1  0  0  0  0
 14 17  1  0  0  0  0
 11 12  1  0  0  0  0
 11 13  1  0  0  0  0
 11 14  1  0  0  0  0
  9 10  1  0  0  0  0
  9 11  1  0  0  0  0
  9 27  1  0  0  0  0
  7  8  1  0  0  0  0
  7  9  1  0  0  0  0
 31 32  1  0  0  0  0
 31 33  1  0  0  0  0
 31 34  1  0  0  0  0
 29 30  1  0  0  0  0
 29 31  1  0  0  0  0
M  CHG  1  23   1
M  END
$$$$
default_name
  -OEChem-01062215323D

 34 33  0     1  0  0  0  0  0999 V2000
   -3.8899   -3.6747    1.6490 H   0  0  0  0  0  0  0  0  0  0  0  0
   -3.9109   -2.6717    1.2250 C   0  0  0  0  0  0  0  0  0  0  0  0
   -4.6009   -2.0517    1.7950 H   0  0  0  0  0  0  0  0  0  0  0  0
   -4.2309   -2.7237    0.1860 H   0  0  0  0  0  0  0  0  0  0  0  0
   -2.5229   -2.0787    1.2980 C   0  0  0  0  0  0  0  0  0  0  0  0
   -1.5999   -2.7227    1.7810 O   0  0  0  0  0  0  0  0  0  0  0  0
   -2.3659   -0.8447    0.8120 N   0  0  0  0  0  0  0  0  0  0  0  0
   -3.1749   -0.3807    0.4220 H   0  0  0  0  0  0  0  0  0  0  0  0
   -1.0919   -0.1077    0.8170 C   0  0  1  0  0  0  0  0  0  0  0  0
   -0.6820   -0.1254   -0.1946 H   0  0  0  0  0  0  0  0  0  0  0  0
   -1.3733    1.3537    1.2138 C   0  0  0  0  0  0  0  0  0  0  0  0
   -1.9435    1.3576    2.1441 H   0  0  0  0  0  0  0  0  0  0  0  0
   -0.4257    1.8654    1.3936 H   0  0  0  0  0  0  0  0  0  0  0  0
   -2.1728    2.1269    0.1540 C   0  0  0  0  0  0  0  0  0  0  0  0
   -1.6282    2.1246   -0.7911 H   0  0  0  0  0  0  0  0  0  0  0  0
   -3.1402    1.6421    0.0091 H   0  0  0  0  0  0  0  0  0  0  0  0
   -2.3939    3.5776    0.6042 C   0  0  0  0  0  0  0  0  0  0  0  0
   -2.9263    3.5762    1.5583 H   0  0  0  0  0  0  0  0  0  0  0  0
   -1.4239    4.0604    0.7386 H   0  0  0  0  0  0  0  0  0  0  0  0
   -3.2133    4.3440   -0.4416 C   0  0  0  0  0  0  0  0  0  0  0  0
   -2.6674    4.3273   -1.3905 H   0  0  0  0  0  0  0  0  0  0  0  0
   -4.1623    3.8204   -0.5916 H   0  0  0  0  0  0  0  0  0  0  0  0
   -3.4626    5.7456   -0.0197 N   0  3  0  0  0  0  0  0  0  0  0  0
   -2.5880    6.2385    0.1105 H   0  0  0  0  0  0  0  0  0  0  0  0
   -4.0042    6.2371   -0.7198 H   0  0  0  0  0  0  0  0  0  0  0  0
   -3.9754    5.7665    0.8540 H   0  0  0  0  0  0  0  0  0  0  0  0
   -0.0921   -0.7742    1.7647 C   0  0  0  0  0  0  0  0  0  0  0  0
    0.0203   -1.9944    1.7669 O   0  0  0  0  0  0  0  0  0  0  0  0
    0.5992    0.0250    2.5838 N   0  0  0  0  0  0  0  0  0  0  0  0
    0.4676    1.0188    2.4927 H   0  0  0  0  0  0  0  0  0  0  0  0
    1.5944   -0.4510    3.5463 C   0  0  0  0  0  0  0  0  0  0  0  0
    2.4141   -0.9415    3.0171 H   0  0  0  0  0  0  0  0  0  0  0  0
    1.9943    0.3827    4.1246 H   0  0  0  0  0  0  0  0  0  0  0  0
    1.1409   -1.1760    4.2257 H   0  0  0  0  0  0  0  0  0  0  0  0
  5  6  2  0  0  0  0
  5  7  1  0  0  0  0
  2  3  1  0  0  0  0
  2  4  1  0  0  0  0
  2  5  1  0  0  0  0
  1  2  1  0  0  0  0
 27 28  2  0  0  0  0
 27 29  1  0  0  0  0
 23 24  1  0  0  0  0
 23 25  1  0  0  0  0
 23 26  1  0  0  0  0
 20 21  1  0  0  0  0
 20 22  1  0  0  0  0
 20 23  1  0  0  0  0
 17 18  1  0  0  0  0
 17 19  1  0  0  0  0
 17 20  1  0  0  0  0
 14 15  1  0  0  0  0
 14 16  1  0  0  0  0
 14 17  1  0  0  0  0
 11 12  1  0  0  0  0
 11 13  1  0  0  0  0
 11 14  1  0  0  0  0
  9 10  1  0  0  0  0
  9 11  1  0  0  0  0
  9 27  1  0  0  0  0
  7  8  1  0  0  0  0
  7  9  1  0  0  0  0
 31 32  1  0  0  0  0
 31 33  1  0  0  0  0
 31 34  1  0  0  0  0
 29 30  1  0  0  0  0
 29 31  1  0  0  0  0
M  CHG  1  23   1
M  END
$$$$
default_name
  -OEChem-01062215323D

 34 33  0     1  0  0  0  0  0999 V2000
   -3.8899   -3.6747    1.6490 H   0  0  0  0  0  0  0  0  0  0  0  0
   -3.9109   -2.6717    1.2250 C   0  0  0  0  0  0  0  0  0  0  0  0
   -4.6009   -2.0517    1.7950 H   0  0  0  0  0  0  0  0  0  0  0  0
   -4.2309   -2.7237    0.1860 H   0  0  0  0  0  0  0  0  0  0  0  0
   -2.5229   -2.0787    1.2980 C   0  0  0  0  0  0  0  0  0  0  0  0
   -1.5999   -2.7227    1.7810 O   0  0  0  0  0  0  0  0  0  0  0  0
   -2.3659   -0.8447    0.8120 N   0  0  0  0  0  0  0  0  0  0  0  0
   -3.1749   -0.3807    0.4220 H   0  0  0  0  0  0  0  0  0  0  0  0
   -1.0919   -0.1077    0.8170 C   0  0  1  0  0  0  0  0  0  0  0  0
   -0.6820   -0.1254   -0.1946 H   0  0  0  0  0  0  0  0  0  0  0  0
   -1.3733    1.3537    1.2138 C   0  0  0  0  0  0  0  0  0  0  0  0
   -1.9435    1.3576    2.1441 H   0  0  0  0  0  0  0  0  0  0  0  0
   -0.4257    1.8654    1.3936 H   0  0  0  0  0  0  0  0  0  0  0  0
   -2.1728    2.1269    0.1540 C   0  0  0  0  0  0  0  0  0  0  0  0
   -1.6282    2.1246   -0.7911 H   0  0  0  0  0  0  0  0  0  0  0  0
   -3.1402    1.6421    0.0091 H   0  0  0  0  0  0  0  0  0  0  0  0
   -2.3939    3.5776    0.6042 C   0  0  0  0  0  0  0  0  0  0  0  0
   -2.9263    3.5762    1.5583 H   0  0  0  0  0  0  0  0  0  0  0  0
   -1.4239    4.0604    0.7386 H   0  0  0  0  0  0  0  0  0  0  0  0
   -3.2133    4.3440   -0.4416 C   0  0  0  0  0  0  0  0  0  0  0  0
   -2.6674    4.3273   -1.3905 H   0  0  0  0  0  0  0  0  0  0  0  0
   -4.1623    3.8204   -0.5916 H   0  0  0  0  0  0  0  0  0  0  0  0
   -3.4626    5.7456   -0.0197 N   0  3  0  0  0  0  0  0  0  0  0  0
   -2.5880    6.2385    0.1105 H   0  0  0  0  0  0  0  0  0  0  0  0
   -4.0042    6.2371   -0.7198 H   0  0  0  0  0  0  0  0  0  0  0  0
   -3.9754    5.7665    0.8540 H   0  0  0  0  0  0  0  0  0  0  0  0
   -0.0921   -0.7742    1.7647 C   0  0  0  0  0  0  0  0  0  0  0  0
    0.2253   -1.9442    1.5860 O   0  0  0  0  0  0  0  0  0  0  0  0
    0.3689   -0.0389    2.7818 N   0  0  0  0  0  0  0  0  0  0  0  0
    0.0798    0.9238    2.8349 H   0  0  0  0  0  0  0  0  0  0  0  0
    1.3302   -0.5236    3.7740 C   0  0  0  0  0  0  0  0  0  0  0  0
    2.2697   -0.7827    3.2811 H   0  0  0  0  0  0  0  0  0  0  0  0
    1.5235    0.2442    4.5240 H   0  0  0  0  0  0  0  0  0  0  0  0
    0.9416   -1.4180    4.2657 H   0  0  0  0  0  0  0  0  0  0  0  0
  5  6  2  0  0  0  0
  5  7  1  0  0  0  0
  2  3  1  0  0  0  0
  2  4  1  0  0  0  0
  2  5  1  0  0  0  0
  1  2  1  0  0  0  0
 27 28  2  0  0  0  0
 27 29  1  0  0  0  0
 23 24  1  0  0  0  0
 23 25  1  0  0  0  0
 23 26  1  0  0  0  0
 20 21  1  0  0  0  0
 20 22  1  0  0  0  0
 20 23  1  0  0  0  0
 17 18  1  0  0  0  0
 17 19  1  0  0  0  0
 17 20  1  0  0  0  0
 14 15  1  0  0  0  0
 14 16  1  0  0  0  0
 14 17  1  0  0  0  0
 11 12  1  0  0  0  0
 11 13  1  0  0  0  0
 11 14  1  0  0  0  0
  9 10  1  0  0  0  0
  9 11  1  0  0  0  0
  9 27  1  0  0  0  0
  7  8  1  0  0  0  0
  7  9  1  0  0  0  0
 31 32  1  0  0  0  0
 31 33  1  0  0  0  0
 31 34  1  0  0  0  0
 29 30  1  0  0  0  0
 29 31  1  0  0  0  0
M  CHG  1  23   1
M  END
$$$$
default_name
  -OEChem-01062215323D

 34 33  0     1  0  0  0  0  0999 V2000
   -3.8899   -3.6747    1.6490 H   0  0  0  0  0  0  0  0  0  0  0  0
   -3.9109   -2.6717    1.2250 C   0  0  0  0  0  0  0  0  0  0  0  0
   -4.6009   -2.0517    1.7950 H   0  0  0  0  0  0  0  0  0  0  0  0
   -4.2309   -2.7237    0.1860 H   0  0  0  0  0  0  0  0  0  0  0  0
   -2.5229   -2.0787    1.2980 C   0  0  0  0  0  0  0  0  0  0  0  0
   -1.5999   -2.7227    1.7810 O   0  0  0  0  0  0  0  0  0  0  0  0
   -2.3659   -0.8447    0.8120 N   0  0  0  0  0  0  0  0  0  0  0  0
   -3.1749   -0.3807    0.4220 H   0  0  0  0  0  0  0  0  0  0  0  0
   -1.0919   -0.1077    0.8170 C   0  0  1  0  0  0  0  0  0  0  0  0
   -0.6820   -0.1254   -0.1946 H   0  0  0  0  0  0  0  0  0  0  0  0
   -1.3733    1.3537    1.2138 C   0  0  0  0  0  0  0  0  0  0  0  0
   -1.9435    1.3576    2.1441 H   0  0  0  0  0  0  0  0  0  0  0  0
   -0.4257    1.8654    1.3936 H   0  0  0  0  0  0  0  0  0  0  0  0
   -2.1728    2.1269    0.1540 C   0  0  0  0  0  0  0  0  0  0  0  0
   -1.6282    2.1246   -0.7911 H   0  0  0  0  0  0  0  0  0  0  0  0
   -3.1402    1.6421    0.0091 H   0  0  0  0  0  0  0  0  0  0  0  0
   -2.3939    3.5776    0.6042 C   0  0  0  0  0  0  0  0  0  0  0  0
   -2.9263    3.5762    1.5583 H   0  0  0  0  0  0  0  0  0  0  0  0
   -1.4239    4.0604    0.7386 H   0  0  0  0  0  0  0  0  0  0  0  0
   -3.2133    4.3440   -0.4416 C   0  0  0  0  0  0  0  0  0  0  0  0
   -2.6674    4.3273   -1.3905 H   0  0  0  0  0  0  0  0  0  0  0  0
   -4.1623    3.8204   -0.5916 H   0  0  0  0  0  0  0  0  0  0  0  0
   -3.4626    5.7456   -0.0197 N   0  3  0  0  0  0  0  0  0  0  0  0
   -2.5880    6.2385    0.1105 H   0  0  0  0  0  0  0  0  0  0  0  0
   -4.0042    6.2371   -0.7198 H   0  0  0  0  0  0  0  0  0  0  0  0
   -3.9754    5.7665    0.8540 H   0  0  0  0  0  0  0  0  0  0  0  0
   -0.0921   -0.7742    1.7647 C   0  0  0  0  0  0  0  0  0  0  0  0
    0.4357   -1.8322    1.4428 O   0  0  0  0  0  0  0  0  0  0  0  0
    0.1342   -0.1712    2.9363 N   0  0  0  0  0  0  0  0  0  0  0  0
   -0.3180    0.7120    3.1057 H   0  0  0  0  0  0  0  0  0  0  0  0
    1.0611   -0.6745    3.9518 C   0  0  0  0  0  0  0  0  0  0  0  0
    2.0750   -0.6972    3.5467 H   0  0  0  0  0  0  0  0  0  0  0  0
    1.0458   -0.0325    4.8332 H   0  0  0  0  0  0  0  0  0  0  0  0
    0.7834   -1.6905    4.2410 H   0  0  0  0  0  0  0  0  0  0  0  0
  5  6  2  0  0  0  0
  5  7  1  0  0  0  0
  2  3  1  0  0  0  0
  2  4  1  0  0  0  0
  2  5  1  0  0  0  0
  1  2  1  0  0  0  0
 27 28  2  0  0  0  0
 27 29  1  0  0  0  0
 23 24  1  0  0  0  0
 23 25  1  0  0  0  0
 23 26  1  0  0  0  0
 20 21  1  0  0  0  0
 20 22  1  0  0  0  0
 20 23  1  0  0  0  0
 17 18  1  0  0  0  0
 17 19  1  0  0  0  0
 17 20  1  0  0  0  0
 14 15  1  0  0  0  0
 14 16  1  0  0  0  0
 14 17  1  0  0  0  0
 11 12  1  0  0  0  0
 11 13  1  0  0  0  0
 11 14  1  0  0  0  0
  9 10  1  0  0  0  0
  9 11  1  0  0  0  0
  9 27  1  0  0  0  0
  7  8  1  0  0  0  0
  7  9  1  0  0  0  0
 31 32  1  0  0  0  0
 31 33  1  0  0  0  0
 31 34  1  0  0  0  0
 29 30  1  0  0  0  0
 29 31  1  0  0  0  0
M  CHG  1  23   1
M  END
$$$$
default_name
  -OEChem-01062215323D

 34 33  0     1  0  0  0  0  0999 V2000
   -3.8899   -3.6747    1.6490 H   0  0  0  0  0  0  0  0  0  0  0  0
   -3.9109   -2.6717    1.2250 C   0  0  0  0  0  0  0  0  0  0  0  0
   -4.6009   -2.0517    1.7950 H   0  0  0  0  0  0  0  0  0  0  0  0
   -4.2309   -2.7237    0.1860 H   0  0  0  0  0  0  0  0  0  0  0  0
   -2.5229   -2.0787    1.2980 C   0  0  0  0  0  0  0  0  0  0  0  0
   -1.5999   -2.7227    1.7810 O   0  0  0  0  0  0  0  0  0  0  0  0
   -2.3659   -0.8447    0.8120 N   0  0  0  0  0  0  0  0  0  0  0  0
   -3.1749   -0.3807    0.4220 H   0  0  0  0  0  0  0  0  0  0  0  0
   -1.0919   -0.1077    0.8170 C   0  0  1  0  0  0  0  0  0  0  0  0
   -0.6820   -0.1254   -0.1946 H   0  0  0  0  0  0  0  0  0  0  0  0
   -1.3733    1.3537    1.2138 C   0  0  0  0  0  0  0  0  0  0  0  0
   -1.9435    1.3576    2.1441 H   0  0  0  0  0  0  0  0  0  0  0  0
   -0.4257    1.8654    1.3936 H   0  0  0  0  0  0  0  0  0  0  0  0
   -2.1728    2.1269    0.1540 C   0  0  0  0  0  0  0  0  0  0  0  0
   -1.6282    2.1246   -0.7911 H   0  0  0  0  0  0  0  0  0  0  0  0
   -3.1402    1.6421    0.0091 H   0  0  0  0  0  0  0  0  0  0  0  0
   -2.3939    3.5776    0.6042 C   0  0  0  0  0  0  0  0  0  0  0  0
   -2.9263    3.5762    1.5583 H   0  0  0  0  0  0  0  0  0  0  0  0
   -1.4239    4.0604    0.7386 H   0  0  0  0  0  0  0  0  0  0  0  0
   -3.2133    4.3440   -0.4416 C   0  0  0  0  0  0  0  0  0  0  0  0
   -2.6674    4.3273   -1.3905 H   0  0  0  0  0  0  0  0  0  0  0  0
   -4.1623    3.8204   -0.5916 H   0  0  0  0  0  0  0  0  0  0  0  0
   -3.4626    5.7456   -0.0197 N   0  3  0  0  0  0  0  0  0  0  0  0
   -2.5880    6.2385    0.1105 H   0  0  0  0  0  0  0  0  0  0  0  0
   -4.0042    6.2371   -0.7198 H   0  0  0  0  0  0  0  0  0  0  0  0
   -3.9754    5.7665    0.8540 H   0  0  0  0  0  0  0  0  0  0  0  0
   -0.0921   -0.7742    1.7647 C   0  0  0  0  0  0  0  0  0  0  0  0
    0.6370   -1.6661    1.3472 O   0  0  0  0  0  0  0  0  0  0  0  0
   -0.0886   -0.3626    3.0368 N   0  0  0  0  0  0  0  0  0  0  0  0
   -0.6989    0.3979    3.2866 H   0  0  0  0  0  0  0  0  0  0  0  0
    0.8052   -0.8935    4.0677 C   0  0  0  0  0  0  0  0  0  0  0  0
    1.8433   -0.6907    3.7957 H   0  0  0  0  0  0  0  0  0  0  0  0
    0.5939   -0.4287    5.0313 H   0  0  0  0  0  0  0  0  0  0  0  0
    0.6770   -1.9748    4.1532 H   0  0  0  0  0  0  0  0  0  0  0  0
  5  6  2  0  0  0  0
  5  7  1  0  0  0  0
  2  3  1  0  0  0  0
  2  4  1  0  0  0  0
  2  5  1  0  0  0  0
  1  2  1  0  0  0  0
 27 28  2  0  0  0  0
 27 29  1  0  0  0  0
 23 24  1  0  0  0  0
 23 25  1  0  0  0  0
 23 26  1  0  0  0  0
 20 21  1  0  0  0  0
 20 22  1  0  0  0  0
 20 23  1  0  0  0  0
 17 18  1  0  0  0  0
 17 19  1  0  0  0  0
 17 20  1  0  0  0  0
 14 15  1  0  0  0  0
 14 16  1  0  0  0  0
 14 17  1  0  0  0  0
 11 12  1  0  0  0  0
 11 13  1  0  0  0  0
 11 14  1  0  0  0  0
  9 10  1  0  0  0  0
  9 11  1  0  0  0  0
  9 27  1  0  0  0  0
  7  8  1  0  0  0  0
  7  9  1  0  0  0  0
 31 32  1  0  0  0  0
 31 33  1  0  0  0  0
 31 34  1  0  0  0  0
 29 30  1  0  0  0  0
 29 31  1  0  0  0  0
M  CHG  1  23   1
M  END
$$$$
default_name
  -OEChem-01062215323D

 34 33  0     1  0  0  0  0  0999 V2000
   -3.8899   -3.6747    1.6490 H   0  0  0  0  0  0  0  0  0  0  0  0
   -3.9109   -2.6717    1.2250 C   0  0  0  0  0  0  0  0  0  0  0  0
   -4.6009   -2.0517    1.7950 H   0  0  0  0  0  0  0  0  0  0  0  0
   -4.2309   -2.7237    0.1860 H   0  0  0  0  0  0  0  0  0  0  0  0
   -2.5229   -2.0787    1.2980 C   0  0  0  0  0  0  0  0  0  0  0  0
   -1.5999   -2.7227    1.7810 O   0  0  0  0  0  0  0  0  0  0  0  0
   -2.3659   -0.8447    0.8120 N   0  0  0  0  0  0  0  0  0  0  0  0
   -3.1749   -0.3807    0.4220 H   0  0  0  0  0  0  0  0  0  0  0  0
   -1.0919   -0.1077    0.8170 C   0  0  1  0  0  0  0  0  0  0  0  0
   -0.6820   -0.1254   -0.1946 H   0  0  0  0  0  0  0  0  0  0  0  0
   -1.3733    1.3537    1.2138 C   0  0  0  0  0  0  0  0  0  0  0  0
   -1.9435    1.3576    2.1441 H   0  0  0  0  0  0  0  0  0  0  0  0
   -0.4257    1.8654    1.3936 H   0  0  0  0  0  0  0  0  0  0  0  0
   -2.1728    2.1269    0.1540 C   0  0  0  0  0  0  0  0  0  0  0  0
   -1.6282    2.1246   -0.7911 H   0  0  0  0  0  0  0  0  0  0  0  0
   -3.1402    1.6421    0.0091 H   0  0  0  0  0  0  0  0  0  0  0  0
   -2.3939    3.5776    0.6042 C   0  0  0  0  0  0  0  0  0  0  0  0
   -2.9263    3.5762    1.5583 H   0  0  0  0  0  0  0  0  0  0  0  0
   -1.4239    4.0604    0.7386 H   0  0  0  0  0  0  0  0  0  0  0  0
   -3.2133    4.3440   -0.4416 C   0  0  0  0  0  0  0  0  0  0  0  0
   -2.6674    4.3273   -1.3905 H   0  0  0  0  0  0  0  0  0  0  0  0
   -4.1623    3.8204   -0.5916 H   0  0  0  0  0  0  0  0  0  0  0  0
   -3.4626    5.7456   -0.0197 N   0  3  0  0  0  0  0  0  0  0  0  0
   -2.5880    6.2385    0.1105 H   0  0  0  0  0  0  0  0  0  0  0  0
   -4.0042    6.2371   -0.7198 H   0  0  0  0  0  0  0  0  0  0  0  0
   -3.9754    5.7665    0.8540 H   0  0  0  0  0  0  0  0  0  0  0  0
   -0.0921   -0.7742    1.7647 C   0  0  0  0  0  0  0  0  0  0  0  0
    0.8157   -1.4573    1.3056 O   0  0  0  0  0  0  0  0  0  0  0  0
   -0.2845   -0.6002    3.0763 N   0  0  0  0  0  0  0  0  0  0  0  0
   -1.0368    0.0028    3.3653 H   0  0  0  0  0  0  0  0  0  0  0  0
    0.5801   -1.1657    4.1137 C   0  0  0  0  0  0  0  0  0  0  0  0
    1.5903   -0.7636    4.0112 H   0  0  0  0  0  0  0  0  0  0  0  0
    0.1986   -0.9173    5.1048 H   0  0  0  0  0  0  0  0  0  0  0  0
    0.6297   -2.2516    4.0084 H   0  0  0  0  0  0  0  0  0  0  0  0
  5  6  2  0  0  0  0
  5  7  1  0  0  0  0
  2  3  1  0  0  0  0
  2  4  1  0  0  0  0
  2  5  1  0  0  0  0
  1  2  1  0  0  0  0
 27 28  2  0  0  0  0
 27 29  1  0  0  0  0
 23 24  1  0  0  0  0
 23 25  1  0  0  0  0
 23 26  1  0  0  0  0
 20 21  1  0  0  0  0
 20 22  1  0  0  0  0
 20 23  1  0  0  0  0
 17 18  1  0  0  0  0
 17 19  1  0  0  0  0
 17 20  1  0  0  0  0
 14 15  1  0  0  0  0
 14 16  1  0  0  0  0
 14 17  1  0  0  0  0
 11 12  1  0  0  0  0
 11 13  1  0  0  0  0
 11 14  1  0  0  0  0
  9 10  1  0  0  0  0
  9 11  1  0  0  0  0
  9 27  1  0  0  0  0
  7  8  1  0  0  0  0
  7  9  1  0  0  0  0
 31 32  1  0  0  0  0
 31 33  1  0  0  0  0
 31 34  1  0  0  0  0
 29 30  1  0  0  0  0
 29 31  1  0  0  0  0
M  CHG  1  23   1
M  END
$$$$
default_name
  -OEChem-01062215323D

 34 33  0     1  0  0  0  0  0999 V2000
   -3.8899   -3.6747    1.6490 H   0  0  0  0  0  0  0  0  0  0  0  0
   -3.9109   -2.6717    1.2250 C   0  0  0  0  0  0  0  0  0  0  0  0
   -4.6009   -2.0517    1.7950 H   0  0  0  0  0  0  0  0  0  0  0  0
   -4.2309   -2.7237    0.1860 H   0  0  0  0  0  0  0  0  0  0  0  0
   -2.5229   -2.0787    1.2980 C   0  0  0  0  0  0  0  0  0  0  0  0
   -1.5999   -2.7227    1.7810 O   0  0  0  0  0  0  0  0  0  0  0  0
   -2.3659   -0.8447    0.8120 N   0  0  0  0  0  0  0  0  0  0  0  0
   -3.1749   -0.3807    0.4220 H   0  0  0  0  0  0  0  0  0  0  0  0
   -1.0919   -0.1077    0.8170 C   0  0  1  0  0  0  0  0  0  0  0  0
   -0.6820   -0.1254   -0.1946 H   0  0  0  0  0  0  0  0  0  0  0  0
   -1.3733    1.3537    1.2138 C   0  0  0  0  0  0  0  0  0  0  0  0
   -1.9435    1.3576    2.1441 H   0  0  0  0  0  0  0  0  0  0  0  0
   -0.4257    1.8654    1.3936 H   0  0  0  0  0  0  0  0  0  0  0  0
   -2.1728    2.1269    0.1540 C   0  0  0  0  0  0  0  0  0  0  0  0
   -1.6282    2.1246   -0.7911 H   0  0  0  0  0  0  0  0  0  0  0  0
   -3.1402    1.6421    0.0091 H   0  0  0  0  0  0  0  0  0  0  0  0
   -2.3939    3.5776    0.6042 C   0  0  0  0  0  0  0  0  0  0  0  0
   -2.9263    3.5762    1.5583 H   0  0  0  0  0  0  0  0  0  0  0  0
   -1.4239    4.0604    0.7386 H   0  0  0  0  0  0  0  0  0  0  0  0
   -3.2133    4.3440   -0.4416 C   0  0  0  0  0  0  0  0  0  0  0  0
   -2.6674    4.3273   -1.3905 H   0  0  0  0  0  0  0  0  0  0  0  0
   -4.1623    3.8204   -0.5916 H   0  0  0  0  0  0  0  0  0  0  0  0
   -3.4626    5.7456   -0.0197 N   0  3  0  0  0  0  0  0  0  0  0  0
   -2.5880    6.2385    0.1105 H   0  0  0  0  0  0  0  0  0  0  0  0
   -4.0042    6.2371   -0.7198 H   0  0  0  0  0  0  0  0  0  0  0  0
   -3.9754    5.7665    0.8540 H   0  0  0  0  0  0  0  0  0  0  0  0
   -0.0921   -0.7742    1.7647 C   0  0  0  0  0  0  0  0  0  0  0  0
    0.9595   -1.2199    1.3208 O   0  0  0  0  0  0  0  0  0  0  0  0
   -0.4401   -0.8678    3.0523 N   0  0  0  0  0  0  0  0  0  0  0  0
   -1.3088   -0.4463    3.3364 H   0  0  0  0  0  0  0  0  0  0  0  0
    0.4011   -1.4724    4.0868 C   0  0  0  0  0  0  0  0  0  0  0  0
    1.3334   -0.9111    4.1786 H   0  0  0  0  0  0  0  0  0  0  0  0
   -0.1132   -1.4650    5.0485 H   0  0  0  0  0  0  0  0  0  0  0  0
    0.6448   -2.5022    3.8164 H   0  0  0  0  0  0  0  0  0  0  0  0
  5  6  2  0  0  0  0
  5  7  1  0  0  0  0
  2  3  1  0  0  0  0
  2  4  1  0  0  0  0
  2  5  1  0  0  0  0
  1  2  1  0  0  0  0
 27 28  2  0  0  0  0
 27 29  1  0  0  0  0
 23 24  1  0  0  0  0
 23 25  1  0  0  0  0
 23 26  1  0  0  0  0
 20 21  1  0  0  0  0
 20 22  1  0  0  0  0
 20 23  1  0  0  0  0
 17 18  1  0  0  0  0
 17 19  1  0  0  0  0
 17 20  1  0  0  0  0
 14 15  1  0  0  0  0
 14 16  1  0  0  0  0
 14 17  1  0  0  0  0
 11 12  1  0  0  0  0
 11 13  1  0  0  0  0
 11 14  1  0  0  0  0
  9 10  1  0  0  0  0
  9 11  1  0  0  0  0
  9 27  1  0  0  0  0
  7  8  1  0  0  0  0
  7  9  1  0  0  0  0
 31 32  1  0  0  0  0
 31 33  1  0  0  0  0
 31 34  1  0  0  0  0
 29 30  1  0  0  0  0
 29 31  1  0  0  0  0
M  CHG  1  23   1
M  END
$$$$
default_name
  -OEChem-01062215323D

 34 33  0     1  0  0  0  0  0999 V2000
   -3.8899   -3.6747    1.6490 H   0  0  0  0  0  0  0  0  0  0  0  0
   -3.9109   -2.6717    1.2250 C   0  0  0  0  0  0  0  0  0  0  0  0
   -4.6009   -2.0517    1.7950 H   0  0  0  0  0  0  0  0  0  0  0  0
   -4.2309   -2.7237    0.1860 H   0  0  0  0  0  0  0  0  0  0  0  0
   -2.5229   -2.0787    1.2980 C   0  0  0  0  0  0  0  0  0  0  0  0
   -1.5999   -2.7227    1.7810 O   0  0  0  0  0  0  0  0  0  0  0  0
   -2.3659   -0.8447    0.8120 N   0  0  0  0  0  0  0  0  0  0  0  0
   -3.1749   -0.3807    0.4220 H   0  0  0  0  0  0  0  0  0  0  0  0
   -1.0919   -0.1077    0.8170 C   0  0  1  0  0  0  0  0  0  0  0  0
   -0.6820   -0.1254   -0.1946 H   0  0  0  0  0  0  0  0  0  0  0  0
   -1.3733    1.3537    1.2138 C   0  0  0  0  0  0  0  0  0  0  0  0
   -1.9435    1.3576    2.1441 H   0  0  0  0  0  0  0  0  0  0  0  0
   -0.4257    1.8654    1.3936 H   0  0  0  0  0  0  0  0  0  0  0  0
   -2.1728    2.1269    0.1540 C   0  0  0  0  0  0  0  0  0  0  0  0
   -1.6282    2.1246   -0.7911 H   0  0  0  0  0  0  0  0  0  0  0  0
   -3.1402    1.6421    0.0091 H   0  0  0  0  0  0  0  0  0  0  0  0
   -2.3939    3.5776    0.6042 C   0  0  0  0  0  0  0  0  0  0  0  0
   -2.9263    3.5762    1.5583 H   0  0  0  0  0  0  0  0  0  0  0  0
   -1.4239    4.0604    0.7386 H   0  0  0  0  0  0  0  0  0  0  0  0
   -3.2133    4.3440   -0.4416 C   0  0  0  0  0  0  0  0  0  0  0  0
   -2.6674    4.3273   -1.3905 H   0  0  0  0  0  0  0  0  0  0  0  0
   -4.1623    3.8204   -0.5916 H   0  0  0  0  0  0  0  0  0  0  0  0
   -3.4626    5.7456   -0.0197 N   0  3  0  0  0  0  0  0  0  0  0  0
   -2.5880    6.2385    0.1105 H   0  0  0  0  0  0  0  0  0  0  0  0
   -4.0042    6.2371   -0.7198 H   0  0  0  0  0  0  0  0  0  0  0  0
   -3.9754    5.7665    0.8540 H   0  0  0  0  0  0  0  0  0  0  0  0
   -0.0921   -0.7742    1.7647 C   0  0  0  0  0  0  0  0  0  0  0  0
    1.0586   -0.9701    1.3919 O   0  0  0  0  0  0  0  0  0  0  0  0
   -0.5448   -1.1472    2.9662 N   0  0  0  0  0  0  0  0  0  0  0  0
   -1.4963   -0.9187    3.2019 H   0  0  0  0  0  0  0  0  0  0  0  0
    0.2804   -1.7929    3.9888 C   0  0  0  0  0  0  0  0  0  0  0  0
    1.0900   -1.1230    4.2863 H   0  0  0  0  0  0  0  0  0  0  0  0
   -0.3203   -2.0346    4.8664 H   0  0  0  0  0  0  0  0  0  0  0  0
    0.7211   -2.7092    3.5902 H   0  0  0  0  0  0  0  0  0  0  0  0
  5  6  2  0  0  0  0
  5  7  1  0  0  0  0
  2  3  1  0  0  0  0
  2  4  1  0  0  0  0
  2  5  1  0  0  0  0
  1  2  1  0  0  0  0
 27 28  2  0  0  0  0
 27 29  1  0  0  0  0
 23 24  1  0  0  0  0
 23 25  1  0  0  0  0
 23 26  1  0  0  0  0
 20 21  1  0  0  0  0
 20 22  1  0  0  0  0
 20 23  1  0  0  0  0
 17 18  1  0  0  0  0
 17 19  1  0  0  0  0
 17 20  1  0  0  0  0
 14 15  1  0  0  0  0
 14 16  1  0  0  0  0
 14 17  1  0  0  0  0
 11 12  1  0  0  0  0
 11 13  1  0  0  0  0
 11 14  1  0  0  0  0
  9 10  1  0  0  0  0
  9 11  1  0  0  0  0
  9 27  1  0  0  0  0
  7  8  1  0  0  0  0
  7  9  1  0  0  0  0
 31 32  1  0  0  0  0
 31 33  1  0  0  0  0
 31 34  1  0  0  0  0
 29 30  1  0  0  0  0
 29 31  1  0  0  0  0
M  CHG  1  23   1
M  END
$$$$
default_name
  -OEChem-01062215323D

 34 33  0     1  0  0  0  0  0999 V2000
   -3.8899   -3.6747    1.6490 H   0  0  0  0  0  0  0  0  0  0  0  0
   -3.9109   -2.6717    1.2250 C   0  0  0  0  0  0  0  0  0  0  0  0
   -4.6009   -2.0517    1.7950 H   0  0  0  0  0  0  0  0  0  0  0  0
   -4.2309   -2.7237    0.1860 H   0  0  0  0  0  0  0  0  0  0  0  0
   -2.5229   -2.0787    1.2980 C   0  0  0  0  0  0  0  0  0  0  0  0
   -1.5999   -2.7227    1.7810 O   0  0  0  0  0  0  0  0  0  0  0  0
   -2.3659   -0.8447    0.8120 N   0  0  0  0  0  0  0  0  0  0  0  0
   -3.1749   -0.3807    0.4220 H   0  0  0  0  0  0  0  0  0  0  0  0
   -1.0919   -0.1077    0.8170 C   0  0  1  0  0  0  0  0  0  0  0  0
   -0.6820   -0.1254   -0.1946 H   0  0  0  0  0  0  0  0  0  0  0  0
   -1.3733    1.3537    1.2138 C   0  0  0  0  0  0  0  0  0  0  0  0
   -1.9435    1.3576    2.1441 H   0  0  0  0  0  0  0  0  0  0  0  0
   -0.4257    1.8654    1.3936 H   0  0  0  0  0  0  0  0  0  0  0  0
   -2.1728    2.1269    0.1540 C   0  0  0  0  0  0  0  0  0  0  0  0
   -1.6282    2.1246   -0.7911 H   0  0  0  0  0  0  0  0  0  0  0  0
   -3.1402    1.6421    0.0091 H   0  0  0  0  0  0  0  0  0  0  0  0
   -2.3939    3.5776    0.6042 C   0  0  0  0  0  0  0  0  0  0  0  0
   -2.9263    3.5762    1.5583 H   0  0  0  0  0  0  0  0  0  0  0  0
   -1.4239    4.0604    0.7386 H   0  0  0  0  0  0  0  0  0  0  0  0
   -3.2133    4.3440   -0.4416 C   0  0  0  0  0  0  0  0  0  0  0  0
   -2.6674    4.3273   -1.3905 H   0  0  0  0  0  0  0  0  0  0  0  0
   -4.1623    3.8204   -0.5916 H   0  0  0  0  0  0  0  0  0  0  0  0
   -3.4626    5.7456   -0.0197 N   0  3  0  0  0  0  0  0  0  0  0  0
   -2.5880    6.2385    0.1105 H   0  0  0  0  0  0  0  0  0  0  0  0
   -4.0042    6.2371   -0.7198 H   0  0  0  0  0  0  0  0  0  0  0  0
   -3.9754    5.7665    0.8540 H   0  0  0  0  0  0  0  0  0  0  0  0
   -0.0921   -0.7742    1.7647 C   0  0  0  0  0  0  0  0  0  0  0  0
    1.1063   -0.7249    1.5140 O   0  0  0  0  0  0  0  0  0  0  0  0
   -0.5914   -1.4193    2.8241 N   0  0  0  0  0  0  0  0  0  0  0  0
   -1.5865   -1.3824    2.9709 H   0  0  0  0  0  0  0  0  0  0  0  0
    0.2262   -2.1051    3.8263 C   0  0  0  0  0  0  0  0  0  0  0  0
    0.8767   -1.3849    4.3272 H   0  0  0  0  0  0  0  0  0  0  0  0
   -0.4085   -2.5871    4.5708 H   0  0  0  0  0  0  0  0  0  0  0  0
    0.8535   -2.8588    3.3453 H   0  0  0  0  0  0  0  0  0  0  0  0
  5  6  2  0  0  0  0
  5  7  1  0  0  0  0
  2  3  1  0  0  0  0
  2  4  1  0  0  0  0
  2  5  1  0  0  0  0
  1  2  1  0  0  0  0
 27 28  2  0  0  0  0
 27 29  1  0  0  0  0
 23 24  1  0  0  0  0
 23 25  1  0  0  0  0
 23 26  1  0  0  0  0
 20 21  1  0  0  0  0
 20 22  1  0  0  0  0
 20 23  1  0  0  0  0
 17 18  1  0  0  0  0
 17 19  1  0  0  0  0
 17 20  1  0  0  0  0
 14 15  1  0  0  0  0
 14 16  1  0  0  0  0
 14 17  1  0  0  0  0
 11 12  1  0  0  0  0
 11 13  1  0  0  0  0
 11 14  1  0  0  0  0
  9 10  1  0  0  0  0
  9 11  1  0  0  0  0
  9 27  1  0  0  0  0
  7  8  1  0  0  0  0
  7  9  1  0  0  0  0
 31 32  1  0  0  0  0
 31 33  1  0  0  0  0
 31 34  1  0  0  0  0
 29 30  1  0  0  0  0
 29 31  1  0  0  0  0
M  CHG  1  23   1
M  END
$$$$
default_name
  -OEChem-01062215323D

 34 33  0     1  0  0  0  0  0999 V2000
   -3.8899   -3.6747    1.6490 H   0  0  0  0  0  0  0  0  0  0  0  0
   -3.9109   -2.6717    1.2250 C   0  0  0  0  0  0  0  0  0  0  0  0
   -4.6009   -2.0517    1.7950 H   0  0  0  0  0  0  0  0  0  0  0  0
   -4.2309   -2.7237    0.1860 H   0  0  0  0  0  0  0  0  0  0  0  0
   -2.5229   -2.0787    1.2980 C   0  0  0  0  0  0  0  0  0  0  0  0
   -1.5999   -2.7227    1.7810 O   0  0  0  0  0  0  0  0  0  0  0  0
   -2.3659   -0.8447    0.8120 N   0  0  0  0  0  0  0  0  0  0  0  0
   -3.1749   -0.3807    0.4220 H   0  0  0  0  0  0  0  0  0  0  0  0
   -1.0919   -0.1077    0.8170 C   0  0  1  0  0  0  0  0  0  0  0  0
   -0.6820   -0.1254   -0.1946 H   0  0  0  0  0  0  0  0  0  0  0  0
   -1.3733    1.3537    1.2138 C   0  0  0  0  0  0  0  0  0  0  0  0
   -1.9435    1.3576    2.1441 H   0  0  0  0  0  0  0  0  0  0  0  0
   -0.4257    1.8654    1.3936 H   0  0  0  0  0  0  0  0  0  0  0  0
   -2.1728    2.1269    0.1540 C   0  0  0  0  0  0  0  0  0  0  0  0
   -1.6282    2.1246   -0.7911 H   0  0  0  0  0  0  0  0  0  0  0  0
   -3.1402    1.6421    0.0091 H   0  0  0  0  0  0  0  0  0  0  0  0
   -2.3939    3.5776    0.6042 C   0  0  0  0  0  0  0  0  0  0  0  0
   -2.9263    3.5762    1.5583 H   0  0  0  0  0  0  0  0  0  0  0  0
   -1.4239    4.0604    0.7386 H   0  0  0  0  0  0  0  0  0  0  0  0
   -3.2133    4.3440   -0.4416 C   0  0  0  0  0  0  0  0  0  0  0  0
   -2.6674    4.3273   -1.3905 H   0  0  0  0  0  0  0  0  0  0  0  0
   -4.1623    3.8204   -0.5916 H   0  0  0  0  0  0  0  0  0  0  0  0
   -3.4626    5.7456   -0.0197 N   0  3  0  0  0  0  0  0  0  0  0  0
   -2.5880    6.2385    0.1105 H   0  0  0  0  0  0  0  0  0  0  0  0
   -4.0042    6.2371   -0.7198 H   0  0  0  0  0  0  0  0  0  0  0  0
   -3.9754    5.7665    0.8540 H   0  0  0  0  0  0  0  0  0  0  0  0
   -0.0921   -0.7742    1.7647 C   0  0  0  0  0  0  0  0  0  0  0  0
    1.0993   -0.5011    1.6788 O   0  0  0  0  0  0  0  0  0  0  0  0
   -0.5768   -1.6655    2.6355 N   0  0  0  0  0  0  0  0  0  0  0  0
   -1.5733   -1.8057    2.6593 H   0  0  0  0  0  0  0  0  0  0  0  0
    0.2423   -2.3880    3.6105 C   0  0  0  0  0  0  0  0  0  0  0  0
    0.7081   -1.6790    4.2983 H   0  0  0  0  0  0  0  0  0  0  0  0
   -0.3718   -3.0850    4.1820 H   0  0  0  0  0  0  0  0  0  0  0  0
    1.0330   -2.9406    3.0984 H   0  0  0  0  0  0  0  0  0  0  0  0
  5  6  2  0  0  0  0
  5  7  1  0  0  0  0
  2  3  1  0  0  0  0
  2  4  1  0  0  0  0
  2  5  1  0  0  0  0
  1  2  1  0  0  0  0
 27 28  2  0  0  0  0
 27 29  1  0  0  0  0
 23 24  1  0  0  0  0
 23 25  1  0  0  0  0
 23 26  1  0  0  0  0
 20 21  1  0  0  0  0
 20 22  1  0  0  0  0
 20 23  1  0  0  0  0
 17 18  1  0  0  0  0
 17 19  1  0  0  0  0
 17 20  1  0  0  0  0
 14 15  1  0  0  0  0
 14 16  1  0  0  0  0
 14 17  1  0  0  0  0
 11 12  1  0  0  0  0
 11 13  1  0  0  0  0
 11 14  1  0  0  0  0
  9 10  1  0  0  0  0
  9 11  1  0  0  0  0
  9 27  1  0  0  0  0
  7  8  1  0  0  0  0
  7  9  1  0  0  0  0
 31 32  1  0  0  0  0
 31 33  1  0  0  0  0
 31 34  1  0  0  0  0
 29 30  1  0  0  0  0
 29 31  1  0  0  0  0
M  CHG  1  23   1
M  END
$$$$
default_name
  -OEChem-01062215323D

 34 33  0     1  0  0  0  0  0999 V2000
   -3.8899   -3.6747    1.6490 H   0  0  0  0  0  0  0  0  0  0  0  0
   -3.9109   -2.6717    1.2250 C   0  0  0  0  0  0  0  0  0  0  0  0
   -4.6009   -2.0517    1.7950 H   0  0  0  0  0  0  0  0  0  0  0  0
   -4.2309   -2.7237    0.1860 H   0  0  0  0  0  0  0  0  0  0  0  0
   -2.5229   -2.0787    1.2980 C   0  0  0  0  0  0  0  0  0  0  0  0
   -1.5999   -2.7227    1.7810 O   0  0  0  0  0  0  0  0  0  0  0  0
   -2.3659   -0.8447    0.8120 N   0  0  0  0  0  0  0  0  0  0  0  0
   -3.1749   -0.3807    0.4220 H   0  0  0  0  0  0  0  0  0  0  0  0
   -1.0919   -0.1077    0.8170 C   0  0  1  0  0  0  0  0  0  0  0  0
   -0.6820   -0.1254   -0.1946 H   0  0  0  0  0  0  0  0  0  0  0  0
   -1.3733    1.3537    1.2138 C   0  0  0  0  0  0  0  0  0  0  0  0
   -1.9435    1.3576    2.1441 H   0  0  0  0  0  0  0  0  0  0  0  0
   -0.4257    1.8654    1.3936 H   0  0  0  0  0  0  0  0  0  0  0  0
   -2.1728    2.1269    0.1540 C   0  0  0  0  0  0  0  0  0  0  0  0
   -1.6282    2.1246   -0.7911 H   0  0  0  0  0  0  0  0  0  0  0  0
   -3.1402    1.6421    0.0091 H   0  0  0  0  0  0  0  0  0  0  0  0
   -2.3939    3.5776    0.6042 C   0  0  0  0  0  0  0  0  0  0  0  0
   -2.9263    3.5762    1.5583 H   0  0  0  0  0  0  0  0  0  0  0  0
   -1.4239    4.0604    0.7386 H   0  0  0  0  0  0  0  0  0  0  0  0
   -3.2133    4.3440   -0.4416 C   0  0  0  0  0  0  0  0  0  0  0  0
   -2.6674    4.3273   -1.3905 H   0  0  0  0  0  0  0  0  0  0  0  0
   -4.1623    3.8204   -0.5916 H   0  0  0  0  0  0  0  0  0  0  0  0
   -3.4626    5.7456   -0.0197 N   0  3  0  0  0  0  0  0  0  0  0  0
   -2.5880    6.2385    0.1105 H   0  0  0  0  0  0  0  0  0  0  0  0
   -4.0042    6.2371   -0.7198 H   0  0  0  0  0  0  0  0  0  0  0  0
   -3.9754    5.7665    0.8540 H   0  0  0  0  0  0  0  0  0  0  0  0
   -0.0921   -0.7742    1.7647 C   0  0  0  0  0  0  0  0  0  0  0  0
    1.0381   -0.3139    1.8750 O   0  0  0  0  0  0  0  0  0  0  0  0
   -0.5020   -1.8691    2.4134 N   0  0  0  0  0  0  0  0  0  0  0  0
   -1.4575   -2.1597    2.2882 H   0  0  0  0  0  0  0  0  0  0  0  0
    0.3274   -2.6222    3.3560 C   0  0  0  0  0  0  0  0  0  0  0  0
    0.5956   -1.9852    4.2016 H   0  0  0  0  0  0  0  0  0  0  0  0
   -0.2127   -3.4942    3.7263 H   0  0  0  0  0  0  0  0  0  0  0  0
    1.2473   -2.9492    2.8663 H   0  0  0  0  0  0  0  0  0  0  0  0
  5  6  2  0  0  0  0
  5  7  1  0  0  0  0
  2  3  1  0  0  0  0
  2  4  1  0  0  0  0
  2  5  1  0  0  0  0
  1  2  1  0  0  0  0
 27 28  2  0  0  0  0
 27 29  1  0  0  0  0
 23 24  1  0  0  0  0
 23 25  1  0  0  0  0
 23 26  1  0  0  0  0
 20 21  1  0  0  0  0
 20 22  1  0  0  0  0
 20 23  1  0  0  0  0
 17 18  1  0  0  0  0
 17 19  1  0  0  0  0
 17 20  1  0  0  0  0
 14 15  1  0  0  0  0
 14 16  1  0  0  0  0
 14 17  1  0  0  0  0
 11 12  1  0  0  0  0
 11 13  1  0  0  0  0
 11 14  1  0  0  0  0
  9 10  1  0  0  0  0
  9 11  1  0  0  0  0
  9 27  1  0  0  0  0
  7  8  1  0  0  0  0
  7  9  1  0  0  0  0
 31 32  1  0  0  0  0
 31 33  1  0  0  0  0
 31 34  1  0  0  0  0
 29 30  1  0  0  0  0
 29 31  1  0  0  0  0
M  CHG  1  23   1
M  END
$$$$
default_name
  -OEChem-01062215323D

 34 33  0     1  0  0  0  0  0999 V2000
   -3.8899   -3.6747    1.6490 H   0  0  0  0  0  0  0  0  0  0  0  0
   -3.9109   -2.6717    1.2250 C   0  0  0  0  0  0  0  0  0  0  0  0
   -4.6009   -2.0517    1.7950 H   0  0  0  0  0  0  0  0  0  0  0  0
   -4.2309   -2.7237    0.1860 H   0  0  0  0  0  0  0  0  0  0  0  0
   -2.5229   -2.0787    1.2980 C   0  0  0  0  0  0  0  0  0  0  0  0
   -1.5999   -2.7227    1.7810 O   0  0  0  0  0  0  0  0  0  0  0  0
   -2.3659   -0.8447    0.8120 N   0  0  0  0  0  0  0  0  0  0  0  0
   -3.1749   -0.3807    0.4220 H   0  0  0  0  0  0  0  0  0  0  0  0
   -1.0919   -0.1077    0.8170 C   0  0  1  0  0  0  0  0  0  0  0  0
   -0.6820   -0.1254   -0.1946 H   0  0  0  0  0  0  0  0  0  0  0  0
   -1.3733    1.3537    1.2138 C   0  0  0  0  0  0  0  0  0  0  0  0
   -1.9435    1.3576    2.1441 H   0  0  0  0  0  0  0  0  0  0  0  0
   -0.4257    1.8654    1.3936 H   0  0  0  0  0  0  0  0  0  0  0  0
   -2.1728    2.1269    0.1540 C   0  0  0  0  0  0  0  0  0  0  0  0
   -1.6282    2.1246   -0.7911 H   0  0  0  0  0  0  0  0  0  0  0  0
   -3.1402    1.6421    0.0091 H   0  0  0  0  0  0  0  0  0  0  0  0
   -2.3939    3.5776    0.6042 C   0  0  0  0  0  0  0  0  0  0  0  0
   -2.9263    3.5762    1.5583 H   0  0  0  0  0  0  0  0  0  0  0  0
   -1.4239    4.0604    0.7386 H   0  0  0  0  0  0  0  0  0  0  0  0
   -3.2133    4.3440   -0.4416 C   0  0  0  0  0  0  0  0  0  0  0  0
   -2.6674    4.3273   -1.3905 H   0  0  0  0  0  0  0  0  0  0  0  0
   -4.1623    3.8204   -0.5916 H   0  0  0  0  0  0  0  0  0  0  0  0
   -3.4626    5.7456   -0.0197 N   0  3  0  0  0  0  0  0  0  0  0  0
   -2.5880    6.2385    0.1105 H   0  0  0  0  0  0  0  0  0  0  0  0
   -4.0042    6.2371   -0.7198 H   0  0  0  0  0  0  0  0  0  0  0  0
   -3.9754    5.7665    0.8540 H   0  0  0  0  0  0  0  0  0  0  0  0
   -0.0921   -0.7742    1.7647 C   0  0  0  0  0  0  0  0  0  0  0  0
    0.9269   -0.1761    2.0893 O   0  0  0  0  0  0  0  0  0  0  0  0
   -0.3721   -2.0163    2.1728 N   0  0  0  0  0  0  0  0  0  0  0  0
   -1.2472   -2.4204    1.8829 H   0  0  0  0  0  0  0  0  0  0  0  0
    0.4759   -2.7917    3.0802 C   0  0  0  0  0  0  0  0  0  0  0  0
    0.5469   -2.2826    4.0438 H   0  0  0  0  0  0  0  0  0  0  0  0
    0.0579   -3.7870    3.2350 H   0  0  0  0  0  0  0  0  0  0  0  0
    1.4818   -2.8838    2.6649 H   0  0  0  0  0  0  0  0  0  0  0  0
  5  6  2  0  0  0  0
  5  7  1  0  0  0  0
  2  3  1  0  0  0  0
  2  4  1  0  0  0  0
  2  5  1  0  0  0  0
  1  2  1  0  0  0  0
 27 28  2  0  0  0  0
 27 29  1  0  0  0  0
 23 24  1  0  0  0  0
 23 25  1  0  0  0  0
 23 26  1  0  0  0  0
 20 21  1  0  0  0  0
 20 22  1  0  0  0  0
 20 23  1  0  0  0  0
 17 18  1  0  0  0  0
 17 19  1  0  0  0  0
 17 20  1  0  0  0  0
 14 15  1  0  0  0  0
 14 16  1  0  0  0  0
 14 17  1  0  0  0  0
 11 12  1  0  0  0  0
 11 13  1  0  0  0  0
 11 14  1  0  0  0  0
  9 10  1  0  0  0  0
  9 11  1  0  0  0  0
  9 27  1  0  0  0  0
  7  8  1  0  0  0  0
  7  9  1  0  0  0  0
 31 32  1  0  0  0  0
 31 33  1  0  0  0  0
 31 34  1  0  0  0  0
 29 30  1  0  0  0  0
 29 31  1  0  0  0  0
M  CHG  1  23   1
M  END
$$$$
default_name
  -OEChem-01062215323D

 34 33  0     1  0  0  0  0  0999 V2000
   -3.8899   -3.6747    1.6490 H   0  0  0  0  0  0  0  0  0  0  0  0
   -3.9109   -2.6717    1.2250 C   0  0  0  0  0  0  0  0  0  0  0  0
   -4.6009   -2.0517    1.7950 H   0  0  0  0  0  0  0  0  0  0  0  0
   -4.2309   -2.7237    0.1860 H   0  0  0  0  0  0  0  0  0  0  0  0
   -2.5229   -2.0787    1.2980 C   0  0  0  0  0  0  0  0  0  0  0  0
   -1.5999   -2.7227    1.7810 O   0  0  0  0  0  0  0  0  0  0  0  0
   -2.3659   -0.8447    0.8120 N   0  0  0  0  0  0  0  0  0  0  0  0
   -3.1749   -0.3807    0.4220 H   0  0  0  0  0  0  0  0  0  0  0  0
   -1.0919   -0.1077    0.8170 C   0  0  1  0  0  0  0  0  0  0  0  0
   -0.6820   -0.1254   -0.1946 H   0  0  0  0  0  0  0  0  0  0  0  0
   -1.3733    1.3537    1.2138 C   0  0  0  0  0  0  0  0  0  0  0  0
   -1.9435    1.3576    2.1441 H   0  0  0  0  0  0  0  0  0  0  0  0
   -0.4257    1.8654    1.3936 H   0  0  0  0  0  0  0  0  0  0  0  0
   -2.1728    2.1269    0.1540 C   0  0  0  0  0  0  0  0  0  0  0  0
   -1.6282    2.1246   -0.7911 H   0  0  0  0  0  0  0  0  0  0  0  0
   -3.1402    1.6421    0.0091 H   0  0  0  0  0  0  0  0  0  0  0  0
   -2.3939    3.5776    0.6042 C   0  0  0  0  0  0  0  0  0  0  0  0
   -2.9263    3.5762    1.5583 H   0  0  0  0  0  0  0  0  0  0  0  0
   -1.4239    4.0604    0.7386 H   0  0  0  0  0  0  0  0  0  0  0  0
   -3.2133    4.3440   -0.4416 C   0  0  0  0  0  0  0  0  0  0  0  0
   -2.6674    4.3273   -1.3905 H   0  0  0  0  0  0  0  0  0  0  0  0
   -4.1623    3.8204   -0.5916 H   0  0  0  0  0  0  0  0  0  0  0  0
   -3.4626    5.7456   -0.0197 N   0  3  0  0  0  0  0  0  0  0  0  0
   -2.5880    6.2385    0.1105 H   0  0  0  0  0  0  0  0  0  0  0  0
   -4.0042    6.2371   -0.7198 H   0  0  0  0  0  0  0  0  0  0  0  0
   -3.9754    5.7665    0.8540 H   0  0  0  0  0  0  0  0  0  0  0  0
   -0.0921   -0.7742    1.7647 C   0  0  0  0  0  0  0  0  0  0  0  0
    0.7732   -0.0970    2.3070 O   0  0  0  0  0  0  0  0  0  0  0  0
   -0.1959   -2.0969    1.9302 N   0  0  0  0  0  0  0  0  0  0  0  0
   -0.9565   -2.5700    1.4711 H   0  0  0  0  0  0  0  0  0  0  0  0
    0.6776   -2.8849    2.8018 C   0  0  0  0  0  0  0  0  0  0  0  0
    0.5653   -2.5511    3.8355 H   0  0  0  0  0  0  0  0  0  0  0  0
    0.4216   -3.9433    2.7413 H   0  0  0  0  0  0  0  0  0  0  0  0
    1.7206   -2.7490    2.5078 H   0  0  0  0  0  0  0  0  0  0  0  0
  5  6  2  0  0  0  0
  5  7  1  0  0  0  0
  2  3  1  0  0  0  0
  2  4  1  0  0  0  0
  2  5  1  0  0  0  0
  1  2  1  0  0  0  0
 27 28  2  0  0  0  0
 27 29  1  0  0  0  0
 23 24  1  0  0  0  0
 23 25  1  0  0  0  0
 23 26  1  0  0  0  0
 20 21  1  0  0  0  0
 20 22  1  0  0  0  0
 20 23  1  0  0  0  0
 17 18  1  0  0  0  0
 17 19  1  0  0  0  0
 17 20  1  0  0  0  0
 14 15  1  0  0  0  0
 14 16  1  0  0  0  0
 14 17  1  0  0  0  0
 11 12  1  0  0  0  0
 11 13  1  0  0  0  0
 11 14  1  0  0  0  0
  9 10  1  0  0  0  0
  9 11  1  0  0  0  0
  9 27  1  0  0  0  0
  7  8  1  0  0  0  0
  7  9  1  0  0  0  0
 31 32  1  0  0  0  0
 31 33  1  0  0  0  0
 31 34  1  0  0  0  0
 29 30  1  0  0  0  0
 29 31  1  0  0  0  0
M  CHG  1  23   1
M  END
$$$$
default_name
  -OEChem-01062215323D

 34 33  0     1  0  0  0  0  0999 V2000
   -3.8899   -3.6747    1.6490 H   0  0  0  0  0  0  0  0  0  0  0  0
   -3.9109   -2.6717    1.2250 C   0  0  0  0  0  0  0  0  0  0  0  0
   -4.6009   -2.0517    1.7950 H   0  0  0  0  0  0  0  0  0  0  0  0
   -4.2309   -2.7237    0.1860 H   0  0  0  0  0  0  0  0  0  0  0  0
   -2.5229   -2.0787    1.2980 C   0  0  0  0  0  0  0  0  0  0  0  0
   -1.5999   -2.7227    1.7810 O   0  0  0  0  0  0  0  0  0  0  0  0
   -2.3659   -0.8447    0.8120 N   0  0  0  0  0  0  0  0  0  0  0  0
   -3.1749   -0.3807    0.4220 H   0  0  0  0  0  0  0  0  0  0  0  0
   -1.0919   -0.1077    0.8170 C   0  0  1  0  0  0  0  0  0  0  0  0
   -0.6820   -0.1254   -0.1946 H   0  0  0  0  0  0  0  0  0  0  0  0
   -1.3733    1.3537    1.2138 C   0  0  0  0  0  0  0  0  0  0  0  0
   -1.9435    1.3576    2.1441 H   0  0  0  0  0  0  0  0  0  0  0  0
   -0.4257    1.8654    1.3936 H   0  0  0  0  0  0  0  0  0  0  0  0
   -2.1728    2.1269    0.1540 C   0  0  0  0  0  0  0  0  0  0  0  0
   -1.6282    2.1246   -0.7911 H   0  0  0  0  0  0  0  0  0  0  0  0
   -3.1402    1.6421    0.0091 H   0  0  0  0  0  0  0  0  0  0  0  0
   -2.3939    3.5776    0.6042 C   0  0  0  0  0  0  0  0  0  0  0  0
   -2.9263    3.5762    1.5583 H   0  0  0  0  0  0  0  0  0  0  0  0
   -1.4239    4.0604    0.7386 H   0  0  0  0  0  0  0  0  0  0  0  0
   -3.2133    4.3440   -0.4416 C   0  0  0  0  0  0  0  0  0  0  0  0
   -2.6674    4.3273   -1.3905 H   0  0  0  0  0  0  0  0  0  0  0  0
   -4.1623    3.8204   -0.5916 H   0  0  0  0  0  0  0  0  0  0  0  0
   -3.4626    5.7456   -0.0197 N   0  3  0  0  0  0  0  0  0  0  0  0
   -2.5880    6.2385    0.1105 H   0  0  0  0  0  0  0  0  0  0  0  0
   -4.0042    6.2371   -0.7198 H   0  0  0  0  0  0  0  0  0  0  0  0
   -3.9754    5.7665    0.8540 H   0  0  0  0  0  0  0  0  0  0  0  0
   -0.0921   -0.7742    1.7647 C   0  0  0  0  0  0  0  0  0  0  0  0
    0.5876   -0.0821    2.5134 O   0  0  0  0  0  0  0  0  0  0  0  0
    0.0146   -2.1055    1.7021 N   0  0  0  0  0  0  0  0  0  0  0  0
   -0.6053   -2.5982    1.0808 H   0  0  0  0  0  0  0  0  0  0  0  0
    0.9187   -2.8956    2.5399 C   0  0  0  0  0  0  0  0  0  0  0  0
    0.6496   -2.7722    3.5911 H   0  0  0  0  0  0  0  0  0  0  0  0
    0.8536   -3.9526    2.2791 H   0  0  0  0  0  0  0  0  0  0  0  0
    1.9474   -2.5540    2.4057 H   0  0  0  0  0  0  0  0  0  0  0  0
  5  6  2  0  0  0  0
  5  7  1  0  0  0  0
  2  3  1  0  0  0  0
  2  4  1  0  0  0  0
  2  5  1  0  0  0  0
  1  2  1  0  0  0  0
 27 28  2  0  0  0  0
 27 29  1  0  0  0  0
 23 24  1  0  0  0  0
 23 25  1  0  0  0  0
 23 26  1  0  0  0  0
 20 21  1  0  0  0  0
 20 22  1  0  0  0  0
 20 23  1  0  0  0  0
 17 18  1  0  0  0  0
 17 19  1  0  0  0  0
 17 20  1  0  0  0  0
 14 15  1  0  0  0  0
 14 16  1  0  0  0  0
 14 17  1  0  0  0  0
 11 12  1  0  0  0  0
 11 13  1  0  0  0  0
 11 14  1  0  0  0  0
  9 10  1  0  0  0  0
  9 11  1  0  0  0  0
  9 27  1  0  0  0  0
  7  8  1  0  0  0  0
  7  9  1  0  0  0  0
 31 32  1  0  0  0  0
 31 33  1  0  0  0  0
 31 34  1  0  0  0  0
 29 30  1  0  0  0  0
 29 31  1  0  0  0  0
M  CHG  1  23   1
M  END
$$$$
default_name
  -OEChem-01062215323D

 34 33  0     1  0  0  0  0  0999 V2000
   -3.8899   -3.6747    1.6490 H   0  0  0  0  0  0  0  0  0  0  0  0
   -3.9109   -2.6717    1.2250 C   0  0  0  0  0  0  0  0  0  0  0  0
   -4.6009   -2.0517    1.7950 H   0  0  0  0  0  0  0  0  0  0  0  0
   -4.2309   -2.7237    0.1860 H   0  0  0  0  0  0  0  0  0  0  0  0
   -2.5229   -2.0787    1.2980 C   0  0  0  0  0  0  0  0  0  0  0  0
   -1.5999   -2.7227    1.7810 O   0  0  0  0  0  0  0  0  0  0  0  0
   -2.3659   -0.8447    0.8120 N   0  0  0  0  0  0  0  0  0  0  0  0
   -3.1749   -0.3807    0.4220 H   0  0  0  0  0  0  0  0  0  0  0  0
   -1.0919   -0.1077    0.8170 C   0  0  1  0  0  0  0  0  0  0  0  0
   -0.6820   -0.1254   -0.1946 H   0  0  0  0  0  0  0  0  0  0  0  0
   -1.3733    1.3537    1.2138 C   0  0  0  0  0  0  0  0  0  0  0  0
   -1.9435    1.3576    2.1441 H   0  0  0  0  0  0  0  0  0  0  0  0
   -0.4257    1.8654    1.3936 H   0  0  0  0  0  0  0  0  0  0  0  0
   -2.1728    2.1269    0.1540 C   0  0  0  0  0  0  0  0  0  0  0  0
   -1.6282    2.1246   -0.7911 H   0  0  0  0  0  0  0  0  0  0  0  0
   -3.1402    1.6421    0.0091 H   0  0  0  0  0  0  0  0  0  0  0  0
   -2.3939    3.5776    0.6042 C   0  0  0  0  0  0  0  0  0  0  0  0
   -2.9263    3.5762    1.5583 H   0  0  0  0  0  0  0  0  0  0  0  0
   -1.4239    4.0604    0.7386 H   0  0  0  0  0  0  0  0  0  0  0  0
   -3.2133    4.3440   -0.4416 C   0  0  0  0  0  0  0  0  0  0  0  0
   -2.6674    4.3273   -1.3905 H   0  0  0  0  0  0  0  0  0  0  0  0
   -4.1623    3.8204   -0.5916 H   0  0  0  0  0  0  0  0  0  0  0  0
   -3.4626    5.7456   -0.0197 N   0  3  0  0  0  0  0  0  0  0  0  0
   -2.5880    6.2385    0.1105 H   0  0  0  0  0  0  0  0  0  0  0  0
   -4.0042    6.2371   -0.7198 H   0  0  0  0  0  0  0  0  0  0  0  0
   -3.9754    5.7665    0.8540 H   0  0  0  0  0  0  0  0  0  0  0  0
   -0.0921   -0.7742    1.7647 C   0  0  0  0  0  0  0  0  0  0  0  0
    0.3826   -0.1323    2.6943 O   0  0  0  0  0  0  0  0  0  0  0  0
    0.2450   -2.0416    1.5041 N   0  0  0  0  0  0  0  0  0  0  0  0
   -0.2176   -2.5032    0.7386 H   0  0  0  0  0  0  0  0  0  0  0  0
    1.1828   -2.8231    2.3123 C   0  0  0  0  0  0  0  0  0  0  0  0
    0.7940   -2.9310    3.3271 H   0  0  0  0  0  0  0  0  0  0  0  0
    1.3245   -3.8141    1.8797 H   0  0  0  0  0  0  0  0  0  0  0  0
    2.1466   -2.3120    2.3657 H   0  0  0  0  0  0  0  0  0  0  0  0
  5  6  2  0  0  0  0
  5  7  1  0  0  0  0
  2  3  1  0  0  0  0
  2  4  1  0  0  0  0
  2  5  1  0  0  0  0
  1  2  1  0  0  0  0
 27 28  2  0  0  0  0
 27 29  1  0  0  0  0
 23 24  1  0  0  0  0
 23 25  1  0  0  0  0
 23 26  1  0  0  0  0
 20 21  1  0  0  0  0
 20 22  1  0  0  0  0
 20 23  1  0  0  0  0
 17 18  1  0  0  0  0
 17 19  1  0  0  0  0
 17 20  1  0  0  0  0
 14 15  1  0  0  0  0
 14 16  1  0  0  0  0
 14 17  1  0  0  0  0
 11 12  1  0  0  0  0
 11 13  1  0  0  0  0
 11 14  1  0  0  0  0
  9 10  1  0  0  0  0
  9 11  1  0  0  0  0
  9 27  1  0  0  0  0
  7  8  1  0  0  0  0
  7  9  1  0  0  0  0
 31 32  1  0  0  0  0
 31 33  1  0  0  0  0
 31 34  1  0  0  0  0
 29 30  1  0  0  0  0
 29 31  1  0  0  0  0
M  CHG  1  23   1
M  END
$$$$
default_name
  -OEChem-01062215323D

 34 33  0     1  0  0  0  0  0999 V2000
   -3.8899   -3.6747    1.6490 H   0  0  0  0  0  0  0  0  0  0  0  0
   -3.9109   -2.6717    1.2250 C   0  0  0  0  0  0  0  0  0  0  0  0
   -4.6009   -2.0517    1.7950 H   0  0  0  0  0  0  0  0  0  0  0  0
   -4.2309   -2.7237    0.1860 H   0  0  0  0  0  0  0  0  0  0  0  0
   -2.5229   -2.0787    1.2980 C   0  0  0  0  0  0  0  0  0  0  0  0
   -1.5999   -2.7227    1.7810 O   0  0  0  0  0  0  0  0  0  0  0  0
   -2.3659   -0.8447    0.8120 N   0  0  0  0  0  0  0  0  0  0  0  0
   -3.1749   -0.3807    0.4220 H   0  0  0  0  0  0  0  0  0  0  0  0
   -1.0919   -0.1077    0.8170 C   0  0  1  0  0  0  0  0  0  0  0  0
   -0.6820   -0.1254   -0.1946 H   0  0  0  0  0  0  0  0  0  0  0  0
   -1.3733    1.3537    1.2138 C   0  0  0  0  0  0  0  0  0  0  0  0
   -1.9435    1.3576    2.1441 H   0  0  0  0  0  0  0  0  0  0  0  0
   -0.4257    1.8654    1.3936 H   0  0  0  0  0  0  0  0  0  0  0  0
   -2.1728    2.1269    0.1540 C   0  0  0  0  0  0  0  0  0  0  0  0
   -1.6282    2.1246   -0.7911 H   0  0  0  0  0  0  0  0  0  0  0  0
   -3.1402    1.6421    0.0091 H   0  0  0  0  0  0  0  0  0  0  0  0
   -2.3939    3.5776    0.6042 C   0  0  0  0  0  0  0  0  0  0  0  0
   -2.9263    3.5762    1.5583 H   0  0  0  0  0  0  0  0  0  0  0  0
   -1.4239    4.0604    0.7386 H   0  0  0  0  0  0  0  0  0  0  0  0
   -3.2133    4.3440   -0.4416 C   0  0  0  0  0  0  0  0  0  0  0  0
   -2.6674    4.3273   -1.3905 H   0  0  0  0  0  0  0  0  0  0  0  0
   -4.1623    3.8204   -0.5916 H   0  0  0  0  0  0  0  0  0  0  0  0
   -3.4626    5.7456   -0.0197 N   0  3  0  0  0  0  0  0  0  0  0  0
   -2.5880    6.2385    0.1105 H   0  0  0  0  0  0  0  0  0  0  0  0
   -4.0042    6.2371   -0.7198 H   0  0  0  0  0  0  0  0  0  0  0  0
   -3.9754    5.7665    0.8540 H   0  0  0  0  0  0  0  0  0  0  0  0
   -0.0921   -0.7742    1.7647 C   0  0  0  0  0  0  0  0  0  0  0  0
    0.1722   -0.2443    2.8375 O   0  0  0  0  0  0  0  0  0  0  0  0
    0.4796   -1.9093    1.3496 N   0  0  0  0  0  0  0  0  0  0  0  0
    0.1802   -2.2914    0.4678 H   0  0  0  0  0  0  0  0  0  0  0  0
    1.4520   -2.6721    2.1344 C   0  0  0  0  0  0  0  0  0  0  0  0
    0.9887   -3.0165    3.0615 H   0  0  0  0  0  0  0  0  0  0  0  0
    1.8022   -3.5373    1.5704 H   0  0  0  0  0  0  0  0  0  0  0  0
    2.3048   -2.0396    2.3904 H   0  0  0  0  0  0  0  0  0  0  0  0
  5  6  2  0  0  0  0
  5  7  1  0  0  0  0
  2  3  1  0  0  0  0
  2  4  1  0  0  0  0
  2  5  1  0  0  0  0
  1  2  1  0  0  0  0
 27 28  2  0  0  0  0
 27 29  1  0  0  0  0
 23 24  1  0  0  0  0
 23 25  1  0  0  0  0
 23 26  1  0  0  0  0
 20 21  1  0  0  0  0
 20 22  1  0  0  0  0
 20 23  1  0  0  0  0
 17 18  1  0  0  0  0
 17 19  1  0  0  0  0
 17 20  1  0  0  0  0
 14 15  1  0  0  0  0
 14 16  1  0  0  0  0
 14 17  1  0  0  0  0
 11 12  1  0  0  0  0
 11 13  1  0  0  0  0
 11 14  1  0  0  0  0
  9 10  1  0  0  0  0
  9 11  1  0  0  0  0
  9 27  1  0  0  0  0
  7  8  1  0  0  0  0
  7  9  1  0  0  0  0
 31 32  1  0  0  0  0
 31 33  1  0  0  0  0
 31 34  1  0  0  0  0
 29 30  1  0  0  0  0
 29 31  1  0  0  0  0
M  CHG  1  23   1
M  END
$$$$
default_name
  -OEChem-01062215323D

 34 33  0     1  0  0  0  0  0999 V2000
   -3.8899   -3.6747    1.6490 H   0  0  0  0  0  0  0  0  0  0  0  0
   -3.9109   -2.6717    1.2250 C   0  0  0  0  0  0  0  0  0  0  0  0
   -4.6009   -2.0517    1.7950 H   0  0  0  0  0  0  0  0  0  0  0  0
   -4.2309   -2.7237    0.1860 H   0  0  0  0  0  0  0  0  0  0  0  0
   -2.5229   -2.0787    1.2980 C   0  0  0  0  0  0  0  0  0  0  0  0
   -1.5999   -2.7227    1.7810 O   0  0  0  0  0  0  0  0  0  0  0  0
   -2.3659   -0.8447    0.8120 N   0  0  0  0  0  0  0  0  0  0  0  0
   -3.1749   -0.3807    0.4220 H   0  0  0  0  0  0  0  0  0  0  0  0
   -1.0919   -0.1077    0.8170 C   0  0  1  0  0  0  0  0  0  0  0  0
   -0.6820   -0.1254   -0.1946 H   0  0  0  0  0  0  0  0  0  0  0  0
   -1.3733    1.3537    1.2138 C   0  0  0  0  0  0  0  0  0  0  0  0
   -1.9435    1.3576    2.1441 H   0  0  0  0  0  0  0  0  0  0  0  0
   -0.4257    1.8654    1.3936 H   0  0  0  0  0  0  0  0  0  0  0  0
   -2.1728    2.1269    0.1540 C   0  0  0  0  0  0  0  0  0  0  0  0
   -1.6282    2.1246   -0.7911 H   0  0  0  0  0  0  0  0  0  0  0  0
   -3.1402    1.6421    0.0091 H   0  0  0  0  0  0  0  0  0  0  0  0
   -2.3939    3.5776    0.6042 C   0  0  0  0  0  0  0  0  0  0  0  0
   -2.9263    3.5762    1.5583 H   0  0  0  0  0  0  0  0  0  0  0  0
   -1.4239    4.0604    0.7386 H   0  0  0  0  0  0  0  0  0  0  0  0
   -3.2133    4.3440   -0.4416 C   0  0  0  0  0  0  0  0  0  0  0  0
   -2.6674    4.3273   -1.3905 H   0  0  0  0  0  0  0  0  0  0  0  0
   -4.1623    3.8204   -0.5916 H   0  0  0  0  0  0  0  0  0  0  0  0
   -3.4626    5.7456   -0.0197 N   0  3  0  0  0  0  0  0  0  0  0  0
   -2.5880    6.2385    0.1105 H   0  0  0  0  0  0  0  0  0  0  0  0
   -4.0042    6.2371   -0.7198 H   0  0  0  0  0  0  0  0  0  0  0  0
   -3.9754    5.7665    0.8540 H   0  0  0  0  0  0  0  0  0  0  0  0
   -0.0921   -0.7742    1.7647 C   0  0  0  0  0  0  0  0  0  0  0  0
   -0.0291   -0.4104    2.9331 O   0  0  0  0  0  0  0  0  0  0  0  0
    0.7024   -1.7179    1.2491 N   0  0  0  0  0  0  0  0  0  0  0  0
    0.5611   -1.9773    0.2869 H   0  0  0  0  0  0  0  0  0  0  0  0
    1.7079   -2.4531    2.0186 C   0  0  0  0  0  0  0  0  0  0  0  0
    1.2204   -3.0230    2.8125 H   0  0  0  0  0  0  0  0  0  0  0  0
    2.2541   -3.1412    1.3723 H   0  0  0  0  0  0  0  0  0  0  0  0
    2.4112   -1.7553    2.4781 H   0  0  0  0  0  0  0  0  0  0  0  0
  5  6  2  0  0  0  0
  5  7  1  0  0  0  0
  2  3  1  0  0  0  0
  2  4  1  0  0  0  0
  2  5  1  0  0  0  0
  1  2  1  0  0  0  0
 27 28  2  0  0  0  0
 27 29  1  0  0  0  0
 23 24  1  0  0  0  0
 23 25  1  0  0  0  0
 23 26  1  0  0  0  0
 20 21  1  0  0  0  0
 20 22  1  0  0  0  0
 20 23  1  0  0  0  0
 17 18  1  0  0  0  0
 17 19  1  0  0  0  0
 17 20  1  0  0  0  0
 14 15  1  0  0  0  0
 14 16  1  0  0  0  0
 14 17  1  0  0  0  0
 11 12  1  0  0  0  0
 11 13  1  0  0  0  0
 11 14  1  0  0  0  0
  9 10  1  0  0  0  0
  9 11  1  0  0  0  0
  9 27  1  0  0  0  0
  7  8  1  0  0  0  0
  7  9  1  0  0  0  0
 31 32  1  0  0  0  0
 31 33  1  0  0  0  0
 31 34  1  0  0  0  0
 29 30  1  0  0  0  0
 29 31  1  0  0  0  0
M  CHG  1  23   1
M  END
$$$$
default_name
  -OEChem-01062215323D

 34 33  0     1  0  0  0  0  0999 V2000
   -3.8899   -3.6747    1.6490 H   0  0  0  0  0  0  0  0  0  0  0  0
   -3.9109   -2.6717    1.2250 C   0  0  0  0  0  0  0  0  0  0  0  0
   -4.6009   -2.0517    1.7950 H   0  0  0  0  0  0  0  0  0  0  0  0
   -4.2309   -2.7237    0.1860 H   0  0  0  0  0  0  0  0  0  0  0  0
   -2.5229   -2.0787    1.2980 C   0  0  0  0  0  0  0  0  0  0  0  0
   -1.5999   -2.7227    1.7810 O   0  0  0  0  0  0  0  0  0  0  0  0
   -2.3659   -0.8447    0.8120 N   0  0  0  0  0  0  0  0  0  0  0  0
   -3.1749   -0.3807    0.4220 H   0  0  0  0  0  0  0  0  0  0  0  0
   -1.0919   -0.1077    0.8170 C   0  0  1  0  0  0  0  0  0  0  0  0
   -0.6820   -0.1254   -0.1946 H   0  0  0  0  0  0  0  0  0  0  0  0
   -1.3733    1.3537    1.2138 C   0  0  0  0  0  0  0  0  0  0  0  0
   -1.9435    1.3576    2.1441 H   0  0  0  0  0  0  0  0  0  0  0  0
   -0.4257    1.8654    1.3936 H   0  0  0  0  0  0  0  0  0  0  0  0
   -2.1728    2.1269    0.1540 C   0  0  0  0  0  0  0  0  0  0  0  0
   -1.6282    2.1246   -0.7911 H   0  0  0  0  0  0  0  0  0  0  0  0
   -3.1402    1.6421    0.0091 H   0  0  0  0  0  0  0  0  0  0  0  0
   -2.3939    3.5776    0.6042 C   0  0  0  0  0  0  0  0  0  0  0  0
   -2.9263    3.5762    1.5583 H   0  0  0  0  0  0  0  0  0  0  0  0
   -1.4239    4.0604    0.7386 H   0  0  0  0  0  0  0  0  0  0  0  0
   -3.2133    4.3440   -0.4416 C   0  0  0  0  0  0  0  0  0  0  0  0
   -2.6674    4.3273   -1.3905 H   0  0  0  0  0  0  0  0  0  0  0  0
   -4.1623    3.8204   -0.5916 H   0  0  0  0  0  0  0  0  0  0  0  0
   -3.4626    5.7456   -0.0197 N   0  3  0  0  0  0  0  0  0  0  0  0
   -2.5880    6.2385    0.1105 H   0  0  0  0  0  0  0  0  0  0  0  0
   -4.0042    6.2371   -0.7198 H   0  0  0  0  0  0  0  0  0  0  0  0
   -3.9754    5.7665    0.8540 H   0  0  0  0  0  0  0  0  0  0  0  0
   -0.0921   -0.7742    1.7647 C   0  0  0  0  0  0  0  0  0  0  0  0
   -0.2078   -0.6193    2.9747 O   0  0  0  0  0  0  0  0  0  0  0  0
    0.8983   -1.4803    1.2096 N   0  0  0  0  0  0  0  0  0  0  0  0
    0.8991   -1.5823    0.2082 H   0  0  0  0  0  0  0  0  0  0  0  0
    1.9330   -2.1810    1.9725 C   0  0  0  0  0  0  0  0  0  0  0  0
    1.4734   -2.9501    2.5969 H   0  0  0  0  0  0  0  0  0  0  0  0
    2.6494   -2.6526    1.2989 H   0  0  0  0  0  0  0  0  0  0  0  0
    2.4585   -1.4784    2.6230 H   0  0  0  0  0  0  0  0  0  0  0  0
  5  6  2  0  0  0  0
  5  7  1  0  0  0  0
  2  3  1  0  0  0  0
  2  4  1  0  0  0  0
  2  5  1  0  0  0  0
  1  2  1  0  0  0  0
 27 28  2  0  0  0  0
 27 29  1  0  0  0  0
 23 24  1  0  0  0  0
 23 25  1  0  0  0  0
 23 26  1  0  0  0  0
 20 21  1  0  0  0  0
 20 22  1  0  0  0  0
 20 23  1  0  0  0  0
 17 18  1  0  0  0  0
 17 19  1  0  0  0  0
 17 20  1  0  0  0  0
 14 15  1  0  0  0  0
 14 16  1  0  0  0  0
 14 17  1  0  0  0  0
 11 12  1  0  0  0  0
 11 13  1  0  0  0  0
 11 14  1  0  0  0  0
  9 10  1  0  0  0  0
  9 11  1  0  0  0  0
  9 27  1  0  0  0  0
  7  8  1  0  0  0  0
  7  9  1  0  0  0  0
 31 32  1  0  0  0  0
 31 33  1  0  0  0  0
 31 34  1  0  0  0  0
 29 30  1  0  0  0  0
 29 31  1  0  0  0  0
M  CHG  1  23   1
M  END
$$$$
default_name
  -OEChem-01062215323D

 34 33  0     1  0  0  0  0  0999 V2000
   -3.8899   -3.6747    1.6490 H   0  0  0  0  0  0  0  0  0  0  0  0
   -3.9109   -2.6717    1.2250 C   0  0  0  0  0  0  0  0  0  0  0  0
   -4.6009   -2.0517    1.7950 H   0  0  0  0  0  0  0  0  0  0  0  0
   -4.2309   -2.7237    0.1860 H   0  0  0  0  0  0  0  0  0  0  0  0
   -2.5229   -2.0787    1.2980 C   0  0  0  0  0  0  0  0  0  0  0  0
   -1.5999   -2.7227    1.7810 O   0  0  0  0  0  0  0  0  0  0  0  0
   -2.3659   -0.8447    0.8120 N   0  0  0  0  0  0  0  0  0  0  0  0
   -3.1749   -0.3807    0.4220 H   0  0  0  0  0  0  0  0  0  0  0  0
   -1.0919   -0.1077    0.8170 C   0  0  1  0  0  0  0  0  0  0  0  0
   -0.6820   -0.1254   -0.1946 H   0  0  0  0  0  0  0  0  0  0  0  0
   -1.3733    1.3537    1.2138 C   0  0  0  0  0  0  0  0  0  0  0  0
   -1.9435    1.3576    2.1441 H   0  0  0  0  0  0  0  0  0  0  0  0
   -0.4257    1.8654    1.3936 H   0  0  0  0  0  0  0  0  0  0  0  0
   -2.1728    2.1269    0.1540 C   0  0  0  0  0  0  0  0  0  0  0  0
   -1.6282    2.1246   -0.7911 H   0  0  0  0  0  0  0  0  0  0  0  0
   -3.1402    1.6421    0.0091 H   0  0  0  0  0  0  0  0  0  0  0  0
   -2.3939    3.5776    0.6042 C   0  0  0  0  0  0  0  0  0  0  0  0
   -2.9263    3.5762    1.5583 H   0  0  0  0  0  0  0  0  0  0  0  0
   -1.4239    4.0604    0.7386 H   0  0  0  0  0  0  0  0  0  0  0  0
   -3.2133    4.3440   -0.4416 C   0  0  0  0  0  0  0  0  0  0  0  0
   -2.6674    4.3273   -1.3905 H   0  0  0  0  0  0  0  0  0  0  0  0
   -4.1623    3.8204   -0.5916 H   0  0  0  0  0  0  0  0  0  0  0  0
   -3.4626    5.7456   -0.0197 N   0  3  0  0  0  0  0  0  0  0  0  0
   -2.5880    6.2385    0.1105 H   0  0  0  0  0  0  0  0  0  0  0  0
   -4.0042    6.2371   -0.7198 H   0  0  0  0  0  0  0  0  0  0  0  0
   -3.9754    5.7665    0.8540 H   0  0  0  0  0  0  0  0  0  0  0  0
   -0.0921   -0.7742    1.7647 C   0  0  0  0  0  0  0  0  0  0  0  0
   -0.3516   -0.8567    2.9594 O   0  0  0  0  0  0  0  0  0  0  0  0
    1.0539   -1.2127    1.2336 N   0  0  0  0  0  0  0  0  0  0  0  0
    1.1711   -1.1332    0.2371 H   0  0  0  0  0  0  0  0  0  0  0  0
    2.1120   -1.8742    1.9994 C   0  0  0  0  0  0  0  0  0  0  0  0
    1.7303   -2.8026    2.4296 H   0  0  0  0  0  0  0  0  0  0  0  0
    2.9612   -2.1048    1.3552 H   0  0  0  0  0  0  0  0  0  0  0  0
    2.4434   -1.2279    2.8150 H   0  0  0  0  0  0  0  0  0  0  0  0
  5  6  2  0  0  0  0
  5  7  1  0  0  0  0
  2  3  1  0  0  0  0
  2  4  1  0  0  0  0
  2  5  1  0  0  0  0
  1  2  1  0  0  0  0
 27 28  2  0  0  0  0
 27 29  1  0  0  0  0
 23 24  1  0  0  0  0
 23 25  1  0  0  0  0
 23 26  1  0  0  0  0
 20 21  1  0  0  0  0
 20 22  1  0  0  0  0
 20 23  1  0  0  0  0
 17 18  1  0  0  0  0
 17 19  1  0  0  0  0
 17 20  1  0  0  0  0
 14 15  1  0  0  0  0
 14 16  1  0  0  0  0
 14 17  1  0  0  0  0
 11 12  1  0  0  0  0
 11 13  1  0  0  0  0
 11 14  1  0  0  0  0
  9 10  1  0  0  0  0
  9 11  1  0  0  0  0
  9 27  1  0  0  0  0
  7  8  1  0  0  0  0
  7  9  1  0  0  0  0
 31 32  1  0  0  0  0
 31 33  1  0  0  0  0
 31 34  1  0  0  0  0
 29 30  1  0  0  0  0
 29 31  1  0  0  0  0
M  CHG  1  23   1
M  END
$$$$
default_name
  -OEChem-01062215323D

 34 33  0     1  0  0  0  0  0999 V2000
   -3.8899   -3.6747    1.6490 H   0  0  0  0  0  0  0  0  0  0  0  0
   -3.9109   -2.6717    1.2250 C   0  0  0  0  0  0  0  0  0  0  0  0
   -4.6009   -2.0517    1.7950 H   0  0  0  0  0  0  0  0  0  0  0  0
   -4.2309   -2.7237    0.1860 H   0  0  0  0  0  0  0  0  0  0  0  0
   -2.5229   -2.0787    1.2980 C   0  0  0  0  0  0  0  0  0  0  0  0
   -1.5999   -2.7227    1.7810 O   0  0  0  0  0  0  0  0  0  0  0  0
   -2.3659   -0.8447    0.8120 N   0  0  0  0  0  0  0  0  0  0  0  0
   -3.1749   -0.3807    0.4220 H   0  0  0  0  0  0  0  0  0  0  0  0
   -1.0919   -0.1077    0.8170 C   0  0  1  0  0  0  0  0  0  0  0  0
   -0.6820   -0.1254   -0.1946 H   0  0  0  0  0  0  0  0  0  0  0  0
   -1.3733    1.3537    1.2138 C   0  0  0  0  0  0  0  0  0  0  0  0
   -1.9435    1.3576    2.1441 H   0  0  0  0  0  0  0  0  0  0  0  0
   -0.4257    1.8654    1.3936 H   0  0  0  0  0  0  0  0  0  0  0  0
   -2.1728    2.1269    0.1540 C   0  0  0  0  0  0  0  0  0  0  0  0
   -1.6282    2.1246   -0.7911 H   0  0  0  0  0  0  0  0  0  0  0  0
   -3.1402    1.6421    0.0091 H   0  0  0  0  0  0  0  0  0  0  0  0
   -2.3939    3.5776    0.6042 C   0  0  0  0  0  0  0  0  0  0  0  0
   -2.9263    3.5762    1.5583 H   0  0  0  0  0  0  0  0  0  0  0  0
   -1.4239    4.0604    0.7386 H   0  0  0  0  0  0  0  0  0  0  0  0
   -3.2133    4.3440   -0.4416 C   0  0  0  0  0  0  0  0  0  0  0  0
   -2.6674    4.3273   -1.3905 H   0  0  0  0  0  0  0  0  0  0  0  0
   -4.1623    3.8204   -0.5916 H   0  0  0  0  0  0  0  0  0  0  0  0
   -3.4626    5.7456   -0.0197 N   0  3  0  0  0  0  0  0  0  0  0  0
   -2.5880    6.2385    0.1105 H   0  0  0  0  0  0  0  0  0  0  0  0
   -4.0042    6.2371   -0.7198 H   0  0  0  0  0  0  0  0  0  0  0  0
   -3.9754    5.7665    0.8540 H   0  0  0  0  0  0  0  0  0  0  0  0
   -0.0921   -0.7742    1.7647 C   0  0  0  0  0  0  0  0  0  0  0  0
   -0.4507   -1.1065    2.8883 O   0  0  0  0  0  0  0  0  0  0  0  0
    1.1586   -0.9333    1.3197 N   0  0  0  0  0  0  0  0  0  0  0  0
    1.3585   -0.6607    0.3716 H   0  0  0  0  0  0  0  0  0  0  0  0
    2.2327   -1.5538    2.0974 C   0  0  0  0  0  0  0  0  0  0  0  0
    1.9737   -2.5907    2.3218 H   0  0  0  0  0  0  0  0  0  0  0  0
    3.1682   -1.5353    1.5373 H   0  0  0  0  0  0  0  0  0  0  0  0
    2.3671   -1.0208    3.0412 H   0  0  0  0  0  0  0  0  0  0  0  0
  5  6  2  0  0  0  0
  5  7  1  0  0  0  0
  2  3  1  0  0  0  0
  2  4  1  0  0  0  0
  2  5  1  0  0  0  0
  1  2  1  0  0  0  0
 27 28  2  0  0  0  0
 27 29  1  0  0  0  0
 23 24  1  0  0  0  0
 23 25  1  0  0  0  0
 23 26  1  0  0  0  0
 20 21  1  0  0  0  0
 20 22  1  0  0  0  0
 20 23  1  0  0  0  0
 17 18  1  0  0  0  0
 17 19  1  0  0  0  0
 17 20  1  0  0  0  0
 14 15  1  0  0  0  0
 14 16  1  0  0  0  0
 14 17  1  0  0  0  0
 11 12  1  0  0  0  0
 11 13  1  0  0  0  0
 11 14  1  0  0  0  0
  9 10  1  0  0  0  0
  9 11  1  0  0  0  0
  9 27  1  0  0  0  0
  7  8  1  0  0  0  0
  7  9  1  0  0  0  0
 31 32  1  0  0  0  0
 31 33  1  0  0  0  0
 31 34  1  0  0  0  0
 29 30  1  0  0  0  0
 29 31  1  0  0  0  0
M  CHG  1  23   1
M  END
$$$$
default_name
  -OEChem-01062215323D

 34 33  0     1  0  0  0  0  0999 V2000
   -3.8899   -3.6747    1.6490 H   0  0  0  0  0  0  0  0  0  0  0  0
   -3.9109   -2.6717    1.2250 C   0  0  0  0  0  0  0  0  0  0  0  0
   -4.6009   -2.0517    1.7950 H   0  0  0  0  0  0  0  0  0  0  0  0
   -4.2309   -2.7237    0.1860 H   0  0  0  0  0  0  0  0  0  0  0  0
   -2.5229   -2.0787    1.2980 C   0  0  0  0  0  0  0  0  0  0  0  0
   -1.5999   -2.7227    1.7810 O   0  0  0  0  0  0  0  0  0  0  0  0
   -2.3659   -0.8447    0.8120 N   0  0  0  0  0  0  0  0  0  0  0  0
   -3.1749   -0.3807    0.4220 H   0  0  0  0  0  0  0  0  0  0  0  0
   -1.0919   -0.1077    0.8170 C   0  0  1  0  0  0  0  0  0  0  0  0
   -0.6820   -0.1254   -0.1946 H   0  0  0  0  0  0  0  0  0  0  0  0
   -1.3733    1.3537    1.2138 C   0  0  0  0  0  0  0  0  0  0  0  0
   -1.9435    1.3576    2.1441 H   0  0  0  0  0  0  0  0  0  0  0  0
   -0.4257    1.8654    1.3936 H   0  0  0  0  0  0  0  0  0  0  0  0
   -2.1728    2.1269    0.1540 C   0  0  0  0  0  0  0  0  0  0  0  0
   -1.6282    2.1246   -0.7911 H   0  0  0  0  0  0  0  0  0  0  0  0
   -3.1402    1.6421    0.0091 H   0  0  0  0  0  0  0  0  0  0  0  0
   -2.3939    3.5776    0.6042 C   0  0  0  0  0  0  0  0  0  0  0  0
   -2.9263    3.5762    1.5583 H   0  0  0  0  0  0  0  0  0  0  0  0
   -1.4239    4.0604    0.7386 H   0  0  0  0  0  0  0  0  0  0  0  0
   -3.2133    4.3440   -0.4416 C   0  0  0  0  0  0  0  0  0  0  0  0
   -2.6674    4.3273   -1.3905 H   0  0  0  0  0  0  0  0  0  0  0  0
   -4.1623    3.8204   -0.5916 H   0  0  0  0  0  0  0  0  0  0  0  0
   -3.4626    5.7456   -0.0197 N   0  3  0  0  0  0  0  0  0  0  0  0
   -2.5880    6.2385    0.1105 H   0  0  0  0  0  0  0  0  0  0  0  0
   -4.0042    6.2371   -0.7198 H   0  0  0  0  0  0  0  0  0  0  0  0
   -3.9754    5.7665    0.8540 H   0  0  0  0  0  0  0  0  0  0  0  0
   -0.0921   -0.7742    1.7647 C   0  0  0  0  0  0  0  0  0  0  0  0
   -0.4984   -1.3516    2.7662 O   0  0  0  0  0  0  0  0  0  0  0  0
    1.2052   -0.6612    1.4618 N   0  0  0  0  0  0  0  0  0  0  0  0
    1.4487   -0.1970    0.6025 H   0  0  0  0  0  0  0  0  0  0  0  0
    2.2869   -1.2415    2.2599 C   0  0  0  0  0  0  0  0  0  0  0  0
    2.1870   -2.3288    2.2810 H   0  0  0  0  0  0  0  0  0  0  0  0
    3.2564   -0.9828    1.8328 H   0  0  0  0  0  0  0  0  0  0  0  0
    2.2347   -0.8712    3.2861 H   0  0  0  0  0  0  0  0  0  0  0  0
  5  6  2  0  0  0  0
  5  7  1  0  0  0  0
  2  3  1  0  0  0  0
  2  4  1  0  0  0  0
  2  5  1  0  0  0  0
  1  2  1  0  0  0  0
 27 28  2  0  0  0  0
 27 29  1  0  0  0  0
 23 24  1  0  0  0  0
 23 25  1  0  0  0  0
 23 26  1  0  0  0  0
 20 21  1  0  0  0  0
 20 22  1  0  0  0  0
 20 23  1  0  0  0  0
 17 18  1  0  0  0  0
 17 19  1  0  0  0  0
 17 20  1  0  0  0  0
 14 15  1  0  0  0  0
 14 16  1  0  0  0  0
 14 17  1  0  0  0  0
 11 12  1  0  0  0  0
 11 13  1  0  0  0  0
 11 14  1  0  0  0  0
  9 10  1  0  0  0  0
  9 11  1  0  0  0  0
  9 27  1  0  0  0  0
  7  8  1  0  0  0  0
  7  9  1  0  0  0  0
 31 32  1  0  0  0  0
 31 33  1  0  0  0  0
 31 34  1  0  0  0  0
 29 30  1  0  0  0  0
 29 31  1  0  0  0  0
M  CHG  1  23   1
M  END
$$$$
default_name
  -OEChem-01062215323D

 34 33  0     1  0  0  0  0  0999 V2000
   -3.8899   -3.6747    1.6490 H   0  0  0  0  0  0  0  0  0  0  0  0
   -3.9109   -2.6717    1.2250 C   0  0  0  0  0  0  0  0  0  0  0  0
   -4.6009   -2.0517    1.7950 H   0  0  0  0  0  0  0  0  0  0  0  0
   -4.2309   -2.7237    0.1860 H   0  0  0  0  0  0  0  0  0  0  0  0
   -2.5229   -2.0787    1.2980 C   0  0  0  0  0  0  0  0  0  0  0  0
   -1.5999   -2.7227    1.7810 O   0  0  0  0  0  0  0  0  0  0  0  0
   -2.3659   -0.8447    0.8120 N   0  0  0  0  0  0  0  0  0  0  0  0
   -3.1749   -0.3807    0.4220 H   0  0  0  0  0  0  0  0  0  0  0  0
   -1.0919   -0.1077    0.8170 C   0  0  1  0  0  0  0  0  0  0  0  0
   -0.6820   -0.1254   -0.1946 H   0  0  0  0  0  0  0  0  0  0  0  0
   -1.3733    1.3537    1.2138 C   0  0  0  0  0  0  0  0  0  0  0  0
   -1.9435    1.3576    2.1441 H   0  0  0  0  0  0  0  0  0  0  0  0
   -0.4257    1.8654    1.3936 H   0  0  0  0  0  0  0  0  0  0  0  0
   -2.1728    2.1269    0.1540 C   0  0  0  0  0  0  0  0  0  0  0  0
   -1.6282    2.1246   -0.7911 H   0  0  0  0  0  0  0  0  0  0  0  0
   -3.1402    1.6421    0.0091 H   0  0  0  0  0  0  0  0  0  0  0  0
   -2.3939    3.5776    0.6042 C   0  0  0  0  0  0  0  0  0  0  0  0
   -2.9263    3.5762    1.5583 H   0  0  0  0  0  0  0  0  0  0  0  0
   -1.4239    4.0604    0.7386 H   0  0  0  0  0  0  0  0  0  0  0  0
   -3.2133    4.3440   -0.4416 C   0  0  0  0  0  0  0  0  0  0  0  0
   -2.6674    4.3273   -1.3905 H   0  0  0  0  0  0  0  0  0  0  0  0
   -4.1623    3.8204   -0.5916 H   0  0  0  0  0  0  0  0  0  0  0  0
   -3.4626    5.7456   -0.0197 N   0  3  0  0  0  0  0  0  0  0  0  0
   -2.5880    6.2385    0.1105 H   0  0  0  0  0  0  0  0  0  0  0  0
   -4.0042    6.2371   -0.7198 H   0  0  0  0  0  0  0  0  0  0  0  0
   -3.9754    5.7665    0.8540 H   0  0  0  0  0  0  0  0  0  0  0  0
   -0.0921   -0.7742    1.7647 C   0  0  0  0  0  0  0  0  0  0  0  0
   -0.4914   -1.5754    2.6015 O   0  0  0  0  0  0  0  0  0  0  0  0
    1.1907   -0.4150    1.6504 N   0  0  0  0  0  0  0  0  0  0  0  0
    1.4355    0.2262    0.9142 H   0  0  0  0  0  0  0  0  0  0  0  0
    2.2708   -0.9586    2.4757 C   0  0  0  0  0  0  0  0  0  0  0  0
    2.3557   -2.0347    2.3099 H   0  0  0  0  0  0  0  0  0  0  0  0
    3.2197   -0.4849    2.2217 H   0  0  0  0  0  0  0  0  0  0  0  0
    2.0552   -0.7894    3.5330 H   0  0  0  0  0  0  0  0  0  0  0  0
  5  6  2  0  0  0  0
  5  7  1  0  0  0  0
  2  3  1  0  0  0  0
  2  4  1  0  0  0  0
  2  5  1  0  0  0  0
  1  2  1  0  0  0  0
 27 28  2  0  0  0  0
 27 29  1  0  0  0  0
 23 24  1  0  0  0  0
 23 25  1  0  0  0  0
 23 26  1  0  0  0  0
 20 21  1  0  0  0  0
 20 22  1  0  0  0  0
 20 23  1  0  0  0  0
 17 18  1  0  0  0  0
 17 19  1  0  0  0  0
 17 20  1  0  0  0  0
 14 15  1  0  0  0  0
 14 16  1  0  0  0  0
 14 17  1  0  0  0  0
 11 12  1  0  0  0  0
 11 13  1  0  0  0  0
 11 14  1  0  0  0  0
  9 10  1  0  0  0  0
  9 11  1  0  0  0  0
  9 27  1  0  0  0  0
  7  8  1  0  0  0  0
  7  9  1  0  0  0  0
 31 32  1  0  0  0  0
 31 33  1  0  0  0  0
 31 34  1  0  0  0  0
 29 30  1  0  0  0  0
 29 31  1  0  0  0  0
M  CHG  1  23   1
M  END
$$$$
default_name
  -OEChem-01062215323D

 34 33  0     1  0  0  0  0  0999 V2000
   -3.8899   -3.6747    1.6490 H   0  0  0  0  0  0  0  0  0  0  0  0
   -3.9109   -2.6717    1.2250 C   0  0  0  0  0  0  0  0  0  0  0  0
   -4.6009   -2.0517    1.7950 H   0  0  0  0  0  0  0  0  0  0  0  0
   -4.2309   -2.7237    0.1860 H   0  0  0  0  0  0  0  0  0  0  0  0
   -2.5229   -2.0787    1.2980 C   0  0  0  0  0  0  0  0  0  0  0  0
   -1.5999   -2.7227    1.7810 O   0  0  0  0  0  0  0  0  0  0  0  0
   -2.3659   -0.8447    0.8120 N   0  0  0  0  0  0  0  0  0  0  0  0
   -3.1749   -0.3807    0.4220 H   0  0  0  0  0  0  0  0  0  0  0  0
   -1.0919   -0.1077    0.8170 C   0  0  1  0  0  0  0  0  0  0  0  0
   -0.8170    0.1080   -0.2171 H   0  0  0  0  0  0  0  0  0  0  0  0
   -1.2991    1.2231    1.5642 C   0  0  0  0  0  0  0  0  0  0  0  0
   -1.7438    1.0097    2.5375 H   0  0  0  0  0  0  0  0  0  0  0  0
   -0.3292    1.6963    1.7298 H   0  0  0  0  0  0  0  0  0  0  0  0
   -2.2185    2.2014    0.8173 C   0  0  0  0  0  0  0  0  0  0  0  0
   -1.8012    2.4194   -0.1667 H   0  0  0  0  0  0  0  0  0  0  0  0
   -3.2032    1.7463    0.6940 H   0  0  0  0  0  0  0  0  0  0  0  0
   -2.3591    3.5108    1.6059 C   0  0  0  0  0  0  0  0  0  0  0  0
   -2.7633    3.2874    2.5961 H   0  0  0  0  0  0  0  0  0  0  0  0
   -1.3733    3.9664    1.7183 H   0  0  0  0  0  0  0  0  0  0  0  0
   -3.2966    4.4791    0.8736 C   0  0  0  0  0  0  0  0  0  0  0  0
   -2.8787    4.6839   -0.1174 H   0  0  0  0  0  0  0  0  0  0  0  0
   -4.2642    3.9876    0.7342 H   0  0  0  0  0  0  0  0  0  0  0  0
   -3.4695    5.7465    1.6274 N   0  3  0  0  0  0  0  0  0  0  0  0
   -2.5787    6.2113    1.7505 H   0  0  0  0  0  0  0  0  0  0  0  0
   -4.0905    6.3737    1.1315 H   0  0  0  0  0  0  0  0  0  0  0  0
   -3.8644    5.5632    2.5425 H   0  0  0  0  0  0  0  0  0  0  0  0
    0.0130   -0.9538    1.4536 C   0  0  0  0  0  0  0  0  0  0  0  0
   -0.2529   -2.0657    1.8946 O   0  0  0  0  0  0  0  0  0  0  0  0
    1.2325   -0.4106    1.5274 N   0  0  0  0  0  0  0  0  0  0  0  0
    1.3695    0.4956    1.1112 H   0  0  0  0  0  0  0  0  0  0  0  0
    2.3973   -1.0860    2.1024 C   0  0  0  0  0  0  0  0  0  0  0  0
    2.6214   -1.9875    1.5282 H   0  0  0  0  0  0  0  0  0  0  0  0
    3.2669   -0.4282    2.0833 H   0  0  0  0  0  0  0  0  0  0  0  0
    2.1889   -1.3781    3.1339 H   0  0  0  0  0  0  0  0  0  0  0  0
  5  6  2  0  0  0  0
  5  7  1  0  0  0  0
  2  3  1  0  0  0  0
  2  4  1  0  0  0  0
  2  5  1  0  0  0  0
  1  2  1  0  0  0  0
 27 28  2  0  0  0  0
 27 29  1  0  0  0  0
 23 24  1  0  0  0  0
 23 25  1  0  0  0  0
 23 26  1  0  0  0  0
 20 21  1  0  0  0  0
 20 22  1  0  0  0  0
 20 23  1  0  0  0  0
 17 18  1  0  0  0  0
 17 19  1  0  0  0  0
 17 20  1  0  0  0  0
 14 15  1  0  0  0  0
 14 16  1  0  0  0  0
 14 17  1  0  0  0  0
 11 12  1  0  0  0  0
 11 13  1  0  0  0  0
 11 14  1  0  0  0  0
  9 10  1  0  0  0  0
  9 11  1  0  0  0  0
  9 27  1  0  0  0  0
  7  8  1  0  0  0  0
  7  9  1  0  0  0  0
 31 32  1  0  0  0  0
 31 33  1  0  0  0  0
 31 34  1  0  0  0  0
 29 30  1  0  0  0  0
 29 31  1  0  0  0  0
M  CHG  1  23   1
M  END
$$$$
default_name
  -OEChem-01062215323D

 34 33  0     1  0  0  0  0  0999 V2000
   -3.8899   -3.6747    1.6490 H   0  0  0  0  0  0  0  0  0  0  0  0
   -3.9109   -2.6717    1.2250 C   0  0  0  0  0  0  0  0  0  0  0  0
   -4.6009   -2.0517    1.7950 H   0  0  0  0  0  0  0  0  0  0  0  0
   -4.2309   -2.7237    0.1860 H   0  0  0  0  0  0  0  0  0  0  0  0
   -2.5229   -2.0787    1.2980 C   0  0  0  0  0  0  0  0  0  0  0  0
   -1.5999   -2.7227    1.7810 O   0  0  0  0  0  0  0  0  0  0  0  0
   -2.3659   -0.8447    0.8120 N   0  0  0  0  0  0  0  0  0  0  0  0
   -3.1749   -0.3807    0.4220 H   0  0  0  0  0  0  0  0  0  0  0  0
   -1.0919   -0.1077    0.8170 C   0  0  1  0  0  0  0  0  0  0  0  0
   -0.8170    0.1080   -0.2171 H   0  0  0  0  0  0  0  0  0  0  0  0
   -1.2991    1.2231    1.5642 C   0  0  0  0  0  0  0  0  0  0  0  0
   -1.7438    1.0097    2.5375 H   0  0  0  0  0  0  0  0  0  0  0  0
   -0.3292    1.6963    1.7298 H   0  0  0  0  0  0  0  0  0  0  0  0
   -2.2185    2.2014    0.8173 C   0  0  0  0  0  0  0  0  0  0  0  0
   -1.8012    2.4194   -0.1667 H   0  0  0  0  0  0  0  0  0  0  0  0
   -3.2032    1.7463    0.6940 H   0  0  0  0  0  0  0  0  0  0  0  0
   -2.3591    3.5108    1.6059 C   0  0  0  0  0  0  0  0  0  0  0  0
   -2.7633    3.2874    2.5961 H   0  0  0  0  0  0  0  0  0  0  0  0
   -1.3733    3.9664    1.7183 H   0  0  0  0  0  0  0  0  0  0  0  0
   -3.2966    4.4791    0.8736 C   0  0  0  0  0  0  0  0  0  0  0  0
   -2.8787    4.6839   -0.1174 H   0  0  0  0  0  0  0  0  0  0  0  0
   -4.2642    3.9876    0.7342 H   0  0  0  0  0  0  0  0  0  0  0  0
   -3.4695    5.7465    1.6274 N   0  3  0  0  0  0  0  0  0  0  0  0
   -2.5787    6.2113    1.7505 H   0  0  0  0  0  0  0  0  0  0  0  0
   -4.0905    6.3737    1.1315 H   0  0  0  0  0  0  0  0  0  0  0  0
   -3.8644    5.5632    2.5425 H   0  0  0  0  0  0  0  0  0  0  0  0
    0.0130   -0.9538    1.4536 C   0  0  0  0  0  0  0  0  0  0  0  0
   -0.1723   -2.1503    1.6423 O   0  0  0  0  0  0  0  0  0  0  0  0
    1.1369   -0.3231    1.8096 N   0  0  0  0  0  0  0  0  0  0  0  0
    1.2171    0.6555    1.5883 H   0  0  0  0  0  0  0  0  0  0  0  0
    2.2882   -0.9849    2.4260 C   0  0  0  0  0  0  0  0  0  0  0  0
    2.6943   -1.7322    1.7410 H   0  0  0  0  0  0  0  0  0  0  0  0
    3.0664   -0.2571    2.6586 H   0  0  0  0  0  0  0  0  0  0  0  0
    1.9816   -1.4906    3.3443 H   0  0  0  0  0  0  0  0  0  0  0  0
  5  6  2  0  0  0  0
  5  7  1  0  0  0  0
  2  3  1  0  0  0  0
  2  4  1  0  0  0  0
  2  5  1  0  0  0  0
  1  2  1  0  0  0  0
 27 28  2  0  0  0  0
 27 29  1  0  0  0  0
 23 24  1  0  0  0  0
 23 25  1  0  0  0  0
 23 26  1  0  0  0  0
 20 21  1  0  0  0  0
 20 22  1  0  0  0  0
 20 23  1  0  0  0  0
 17 18  1  0  0  0  0
 17 19  1  0  0  0  0
 17 20  1  0  0  0  0
 14 15  1  0  0  0  0
 14 16  1  0  0  0  0
 14 17  1  0  0  0  0
 11 12  1  0  0  0  0
 11 13  1  0  0  0  0
 11 14  1  0  0  0  0
  9 10  1  0  0  0  0
  9 11  1  0  0  0  0
  9 27  1  0  0  0  0
  7  8  1  0  0  0  0
  7  9  1  0  0  0  0
 31 32  1  0  0  0  0
 31 33  1  0  0  0  0
 31 34  1  0  0  0  0
 29 30  1  0  0  0  0
 29 31  1  0  0  0  0
M  CHG  1  23   1
M  END
$$$$
default_name
  -OEChem-01062215323D

 34 33  0     1  0  0  0  0  0999 V2000
   -3.8899   -3.6747    1.6490 H   0  0  0  0  0  0  0  0  0  0  0  0
   -3.9109   -2.6717    1.2250 C   0  0  0  0  0  0  0  0  0  0  0  0
   -4.6009   -2.0517    1.7950 H   0  0  0  0  0  0  0  0  0  0  0  0
   -4.2309   -2.7237    0.1860 H   0  0  0  0  0  0  0  0  0  0  0  0
   -2.5229   -2.0787    1.2980 C   0  0  0  0  0  0  0  0  0  0  0  0
   -1.5999   -2.7227    1.7810 O   0  0  0  0  0  0  0  0  0  0  0  0
   -2.3659   -0.8447    0.8120 N   0  0  0  0  0  0  0  0  0  0  0  0
   -3.1749   -0.3807    0.4220 H   0  0  0  0  0  0  0  0  0  0  0  0
   -1.0919   -0.1077    0.8170 C   0  0  1  0  0  0  0  0  0  0  0  0
   -0.8170    0.1080   -0.2171 H   0  0  0  0  0  0  0  0  0  0  0  0
   -1.2991    1.2231    1.5642 C   0  0  0  0  0  0  0  0  0  0  0  0
   -1.7438    1.0097    2.5375 H   0  0  0  0  0  0  0  0  0  0  0  0
   -0.3292    1.6963    1.7298 H   0  0  0  0  0  0  0  0  0  0  0  0
   -2.2185    2.2014    0.8173 C   0  0  0  0  0  0  0  0  0  0  0  0
   -1.8012    2.4194   -0.1667 H   0  0  0  0  0  0  0  0  0  0  0  0
   -3.2032    1.7463    0.6940 H   0  0  0  0  0  0  0  0  0  0  0  0
   -2.3591    3.5108    1.6059 C   0  0  0  0  0  0  0  0  0  0  0  0
   -2.7633    3.2874    2.5961 H   0  0  0  0  0  0  0  0  0  0  0  0
   -1.3733    3.9664    1.7183 H   0  0  0  0  0  0  0  0  0  0  0  0
   -3.2966    4.4791    0.8736 C   0  0  0  0  0  0  0  0  0  0  0  0
   -2.8787    4.6839   -0.1174 H   0  0  0  0  0  0  0  0  0  0  0  0
   -4.2642    3.9876    0.7342 H   0  0  0  0  0  0  0  0  0  0  0  0
   -3.4695    5.7465    1.6274 N   0  3  0  0  0  0  0  0  0  0  0  0
   -2.5787    6.2113    1.7505 H   0  0  0  0  0  0  0  0  0  0  0  0
   -4.0905    6.3737    1.1315 H   0  0  0  0  0  0  0  0  0  0  0  0
   -3.8644    5.5632    2.5425 H   0  0  0  0  0  0  0  0  0  0  0  0
    0.0130   -0.9538    1.4536 C   0  0  0  0  0  0  0  0  0  0  0  0
   -0.0493   -2.1762    1.3944 O   0  0  0  0  0  0  0  0  0  0  0  0
    0.9948   -0.3016    2.0848 N   0  0  0  0  0  0  0  0  0  0  0  0
    0.9844    0.7045    2.0572 H   0  0  0  0  0  0  0  0  0  0  0  0
    2.1256   -0.9595    2.7419 C   0  0  0  0  0  0  0  0  0  0  0  0
    2.7068   -1.5175    2.0046 H   0  0  0  0  0  0  0  0  0  0  0  0
    2.7720   -0.2211    3.2176 H   0  0  0  0  0  0  0  0  0  0  0  0
    1.7633   -1.6608    3.4967 H   0  0  0  0  0  0  0  0  0  0  0  0
  5  6  2  0  0  0  0
  5  7  1  0  0  0  0
  2  3  1  0  0  0  0
  2  4  1  0  0  0  0
  2  5  1  0  0  0  0
  1  2  1  0  0  0  0
 27 28  2  0  0  0  0
 27 29  1  0  0  0  0
 23 24  1  0  0  0  0
 23 25  1  0  0  0  0
 23 26  1  0  0  0  0
 20 21  1  0  0  0  0
 20 22  1  0  0  0  0
 20 23  1  0  0  0  0
 17 18  1  0  0  0  0
 17 19  1  0  0  0  0
 17 20  1  0  0  0  0
 14 15  1  0  0  0  0
 14 16  1  0  0  0  0
 14 17  1  0  0  0  0
 11 12  1  0  0  0  0
 11 13  1  0  0  0  0
 11 14  1  0  0  0  0
  9 10  1  0  0  0  0
  9 11  1  0  0  0  0
  9 27  1  0  0  0  0
  7  8  1  0  0  0  0
  7  9  1  0  0  0  0
 31 32  1  0  0  0  0
 31 33  1  0  0  0  0
 31 34  1  0  0  0  0
 29 30  1  0  0  0  0
 29 31  1  0  0  0  0
M  CHG  1  23   1
M  END
$$$$
default_name
  -OEChem-01062215323D

 34 33  0     1  0  0  0  0  0999 V2000
   -3.8899   -3.6747    1.6490 H   0  0  0  0  0  0  0  0  0  0  0  0
   -3.9109   -2.6717    1.2250 C   0  0  0  0  0  0  0  0  0  0  0  0
   -4.6009   -2.0517    1.7950 H   0  0  0  0  0  0  0  0  0  0  0  0
   -4.2309   -2.7237    0.1860 H   0  0  0  0  0  0  0  0  0  0  0  0
   -2.5229   -2.0787    1.2980 C   0  0  0  0  0  0  0  0  0  0  0  0
   -1.5999   -2.7227    1.7810 O   0  0  0  0  0  0  0  0  0  0  0  0
   -2.3659   -0.8447    0.8120 N   0  0  0  0  0  0  0  0  0  0  0  0
   -3.1749   -0.3807    0.4220 H   0  0  0  0  0  0  0  0  0  0  0  0
   -1.0919   -0.1077    0.8170 C   0  0  1  0  0  0  0  0  0  0  0  0
   -0.8170    0.1080   -0.2171 H   0  0  0  0  0  0  0  0  0  0  0  0
   -1.2991    1.2231    1.5642 C   0  0  0  0  0  0  0  0  0  0  0  0
   -1.7438    1.0097    2.5375 H   0  0  0  0  0  0  0  0  0  0  0  0
   -0.3292    1.6963    1.7298 H   0  0  0  0  0  0  0  0  0  0  0  0
   -2.2185    2.2014    0.8173 C   0  0  0  0  0  0  0  0  0  0  0  0
   -1.8012    2.4194   -0.1667 H   0  0  0  0  0  0  0  0  0  0  0  0
   -3.2032    1.7463    0.6940 H   0  0  0  0  0  0  0  0  0  0  0  0
   -2.3591    3.5108    1.6059 C   0  0  0  0  0  0  0  0  0  0  0  0
   -2.7633    3.2874    2.5961 H   0  0  0  0  0  0  0  0  0  0  0  0
   -1.3733    3.9664    1.7183 H   0  0  0  0  0  0  0  0  0  0  0  0
   -3.2966    4.4791    0.8736 C   0  0  0  0  0  0  0  0  0  0  0  0
   -2.8787    4.6839   -0.1174 H   0  0  0  0  0  0  0  0  0  0  0  0
   -4.2642    3.9876    0.7342 H   0  0  0  0  0  0  0  0  0  0  0  0
   -3.4695    5.7465    1.6274 N   0  3  0  0  0  0  0  0  0  0  0  0
   -2.5787    6.2113    1.7505 H   0  0  0  0  0  0  0  0  0  0  0  0
   -4.0905    6.3737    1.1315 H   0  0  0  0  0  0  0  0  0  0  0  0
   -3.8644    5.5632    2.5425 H   0  0  0  0  0  0  0  0  0  0  0  0
    0.0130   -0.9538    1.4536 C   0  0  0  0  0  0  0  0  0  0  0  0
    0.1078   -2.1416    1.1677 O   0  0  0  0  0  0  0  0  0  0  0  0
    0.8158   -0.3476    2.3343 N   0  0  0  0  0  0  0  0  0  0  0  0
    0.6872    0.6391    2.4861 H   0  0  0  0  0  0  0  0  0  0  0  0
    1.9207   -1.0115    3.0285 C   0  0  0  0  0  0  0  0  0  0  0  0
    2.6580   -1.3581    2.3012 H   0  0  0  0  0  0  0  0  0  0  0  0
    2.4038   -0.3223    3.7221 H   0  0  0  0  0  0  0  0  0  0  0  0
    1.5491   -1.8773    3.5810 H   0  0  0  0  0  0  0  0  0  0  0  0
  5  6  2  0  0  0  0
  5  7  1  0  0  0  0
  2  3  1  0  0  0  0
  2  4  1  0  0  0  0
  2  5  1  0  0  0  0
  1  2  1  0  0  0  0
 27 28  2  0  0  0  0
 27 29  1  0  0  0  0
 23 24  1  0  0  0  0
 23 25  1  0  0  0  0
 23 26  1  0  0  0  0
 20 21  1  0  0  0  0
 20 22  1  0  0  0  0
 20 23  1  0  0  0  0
 17 18  1  0  0  0  0
 17 19  1  0  0  0  0
 17 20  1  0  0  0  0
 14 15  1  0  0  0  0
 14 16  1  0  0  0  0
 14 17  1  0  0  0  0
 11 12  1  0  0  0  0
 11 13  1  0  0  0  0
 11 14  1  0  0  0  0
  9 10  1  0  0  0  0
  9 11  1  0  0  0  0
  9 27  1  0  0  0  0
  7  8  1  0  0  0  0
  7  9  1  0  0  0  0
 31 32  1  0  0  0  0
 31 33  1  0  0  0  0
 31 34  1  0  0  0  0
 29 30  1  0  0  0  0
 29 31  1  0  0  0  0
M  CHG  1  23   1
M  END
$$$$
default_name
  -OEChem-01062215323D

 34 33  0     1  0  0  0  0  0999 V2000
   -3.8899   -3.6747    1.6490 H   0  0  0  0  0  0  0  0  0  0  0  0
   -3.9109   -2.6717    1.2250 C   0  0  0  0  0  0  0  0  0  0  0  0
   -4.6009   -2.0517    1.7950 H   0  0  0  0  0  0  0  0  0  0  0  0
   -4.2309   -2.7237    0.1860 H   0  0  0  0  0  0  0  0  0  0  0  0
   -2.5229   -2.0787    1.2980 C   0  0  0  0  0  0  0  0  0  0  0  0
   -1.5999   -2.7227    1.7810 O   0  0  0  0  0  0  0  0  0  0  0  0
   -2.3659   -0.8447    0.8120 N   0  0  0  0  0  0  0  0  0  0  0  0
   -3.1749   -0.3807    0.4220 H   0  0  0  0  0  0  0  0  0  0  0  0
   -1.0919   -0.1077    0.8170 C   0  0  1  0  0  0  0  0  0  0  0  0
   -0.8170    0.1080   -0.2171 H   0  0  0  0  0  0  0  0  0  0  0  0
   -1.2991    1.2231    1.5642 C   0  0  0  0  0  0  0  0  0  0  0  0
   -1.7438    1.0097    2.5375 H   0  0  0  0  0  0  0  0  0  0  0  0
   -0.3292    1.6963    1.7298 H   0  0  0  0  0  0  0  0  0  0  0  0
   -2.2185    2.2014    0.8173 C   0  0  0  0  0  0  0  0  0  0  0  0
   -1.8012    2.4194   -0.1667 H   0  0  0  0  0  0  0  0  0  0  0  0
   -3.2032    1.7463    0.6940 H   0  0  0  0  0  0  0  0  0  0  0  0
   -2.3591    3.5108    1.6059 C   0  0  0  0  0  0  0  0  0  0  0  0
   -2.7633    3.2874    2.5961 H   0  0  0  0  0  0  0  0  0  0  0  0
   -1.3733    3.9664    1.7183 H   0  0  0  0  0  0  0  0  0  0  0  0
   -3.2966    4.4791    0.8736 C   0  0  0  0  0  0  0  0  0  0  0  0
   -2.8787    4.6839   -0.1174 H   0  0  0  0  0  0  0  0  0  0  0  0
   -4.2642    3.9876    0.7342 H   0  0  0  0  0  0  0  0  0  0  0  0
   -3.4695    5.7465    1.6274 N   0  3  0  0  0  0  0  0  0  0  0  0
   -2.5787    6.2113    1.7505 H   0  0  0  0  0  0  0  0  0  0  0  0
   -4.0905    6.3737    1.1315 H   0  0  0  0  0  0  0  0  0  0  0  0
   -3.8644    5.5632    2.5425 H   0  0  0  0  0  0  0  0  0  0  0  0
    0.0130   -0.9538    1.4536 C   0  0  0  0  0  0  0  0  0  0  0  0
    0.2883   -2.0489    0.9776 O   0  0  0  0  0  0  0  0  0  0  0  0
    0.6122   -0.4579    2.5411 N   0  0  0  0  0  0  0  0  0  0  0  0
    0.3459    0.4638    2.8455 H   0  0  0  0  0  0  0  0  0  0  0  0
    1.6873   -1.1373    3.2663 C   0  0  0  0  0  0  0  0  0  0  0  0
    2.5512   -1.2648    2.6105 H   0  0  0  0  0  0  0  0  0  0  0  0
    1.9868   -0.5541    4.1378 H   0  0  0  0  0  0  0  0  0  0  0  0
    1.3533   -2.1252    3.5912 H   0  0  0  0  0  0  0  0  0  0  0  0
  5  6  2  0  0  0  0
  5  7  1  0  0  0  0
  2  3  1  0  0  0  0
  2  4  1  0  0  0  0
  2  5  1  0  0  0  0
  1  2  1  0  0  0  0
 27 28  2  0  0  0  0
 27 29  1  0  0  0  0
 23 24  1  0  0  0  0
 23 25  1  0  0  0  0
 23 26  1  0  0  0  0
 20 21  1  0  0  0  0
 20 22  1  0  0  0  0
 20 23  1  0  0  0  0
 17 18  1  0  0  0  0
 17 19  1  0  0  0  0
 17 20  1  0  0  0  0
 14 15  1  0  0  0  0
 14 16  1  0  0  0  0
 14 17  1  0  0  0  0
 11 12  1  0  0  0  0
 11 13  1  0  0  0  0
 11 14  1  0  0  0  0
  9 10  1  0  0  0  0
  9 11  1  0  0  0  0
  9 27  1  0  0  0  0
  7  8  1  0  0  0  0
  7  9  1  0  0  0  0
 31 32  1  0  0  0  0
 31 33  1  0  0  0  0
 31 34  1  0  0  0  0
 29 30  1  0  0  0  0
 29 31  1  0  0  0  0
M  CHG  1  23   1
M  END
$$$$
default_name
  -OEChem-01062215323D

 34 33  0     1  0  0  0  0  0999 V2000
   -3.8899   -3.6747    1.6490 H   0  0  0  0  0  0  0  0  0  0  0  0
   -3.9109   -2.6717    1.2250 C   0  0  0  0  0  0  0  0  0  0  0  0
   -4.6009   -2.0517    1.7950 H   0  0  0  0  0  0  0  0  0  0  0  0
   -4.2309   -2.7237    0.1860 H   0  0  0  0  0  0  0  0  0  0  0  0
   -2.5229   -2.0787    1.2980 C   0  0  0  0  0  0  0  0  0  0  0  0
   -1.5999   -2.7227    1.7810 O   0  0  0  0  0  0  0  0  0  0  0  0
   -2.3659   -0.8447    0.8120 N   0  0  0  0  0  0  0  0  0  0  0  0
   -3.1749   -0.3807    0.4220 H   0  0  0  0  0  0  0  0  0  0  0  0
   -1.0919   -0.1077    0.8170 C   0  0  1  0  0  0  0  0  0  0  0  0
   -0.8170    0.1080   -0.2171 H   0  0  0  0  0  0  0  0  0  0  0  0
   -1.2991    1.2231    1.5642 C   0  0  0  0  0  0  0  0  0  0  0  0
   -1.7438    1.0097    2.5375 H   0  0  0  0  0  0  0  0  0  0  0  0
   -0.3292    1.6963    1.7298 H   0  0  0  0  0  0  0  0  0  0  0  0
   -2.2185    2.2014    0.8173 C   0  0  0  0  0  0  0  0  0  0  0  0
   -1.8012    2.4194   -0.1667 H   0  0  0  0  0  0  0  0  0  0  0  0
   -3.2032    1.7463    0.6940 H   0  0  0  0  0  0  0  0  0  0  0  0
   -2.3591    3.5108    1.6059 C   0  0  0  0  0  0  0  0  0  0  0  0
   -2.7633    3.2874    2.5961 H   0  0  0  0  0  0  0  0  0  0  0  0
   -1.3733    3.9664    1.7183 H   0  0  0  0  0  0  0  0  0  0  0  0
   -3.2966    4.4791    0.8736 C   0  0  0  0  0  0  0  0  0  0  0  0
   -2.8787    4.6839   -0.1174 H   0  0  0  0  0  0  0  0  0  0  0  0
   -4.2642    3.9876    0.7342 H   0  0  0  0  0  0  0  0  0  0  0  0
   -3.4695    5.7465    1.6274 N   0  3  0  0  0  0  0  0  0  0  0  0
   -2.5787    6.2113    1.7505 H   0  0  0  0  0  0  0  0  0  0  0  0
   -4.0905    6.3737    1.1315 H   0  0  0  0  0  0  0  0  0  0  0  0
   -3.8644    5.5632    2.5425 H   0  0  0  0  0  0  0  0  0  0  0  0
    0.0130   -0.9538    1.4536 C   0  0  0  0  0  0  0  0  0  0  0  0
    0.4798   -1.9045    0.8372 O   0  0  0  0  0  0  0  0  0  0  0  0
    0.3978   -0.6250    2.6911 N   0  0  0  0  0  0  0  0  0  0  0  0
   -0.0164    0.1905    3.1112 H   0  0  0  0  0  0  0  0  0  0  0  0
    1.4414   -1.3285    3.4391 C   0  0  0  0  0  0  0  0  0  0  0  0
    2.3938   -1.2440    2.9114 H   0  0  0  0  0  0  0  0  0  0  0  0
    1.5495   -0.9005    4.4364 H   0  0  0  0  0  0  0  0  0  0  0  0
    1.1895   -2.3876    3.5268 H   0  0  0  0  0  0  0  0  0  0  0  0
  5  6  2  0  0  0  0
  5  7  1  0  0  0  0
  2  3  1  0  0  0  0
  2  4  1  0  0  0  0
  2  5  1  0  0  0  0
  1  2  1  0  0  0  0
 27 28  2  0  0  0  0
 27 29  1  0  0  0  0
 23 24  1  0  0  0  0
 23 25  1  0  0  0  0
 23 26  1  0  0  0  0
 20 21  1  0  0  0  0
 20 22  1  0  0  0  0
 20 23  1  0  0  0  0
 17 18  1  0  0  0  0
 17 19  1  0  0  0  0
 17 20  1  0  0  0  0
 14 15  1  0  0  0  0
 14 16  1  0  0  0  0
 14 17  1  0  0  0  0
 11 12  1  0  0  0  0
 11 13  1  0  0  0  0
 11 14  1  0  0  0  0
  9 10  1  0  0  0  0
  9 11  1  0  0  0  0
  9 27  1  0  0  0  0
  7  8  1  0  0  0  0
  7  9  1  0  0  0  0
 31 32  1  0  0  0  0
 31 33  1  0  0  0  0
 31 34  1  0  0  0  0
 29 30  1  0  0  0  0
 29 31  1  0  0  0  0
M  CHG  1  23   1
M  END
$$$$
default_name
  -OEChem-01062215323D

 34 33  0     1  0  0  0  0  0999 V2000
   -3.8899   -3.6747    1.6490 H   0  0  0  0  0  0  0  0  0  0  0  0
   -3.9109   -2.6717    1.2250 C   0  0  0  0  0  0  0  0  0  0  0  0
   -4.6009   -2.0517    1.7950 H   0  0  0  0  0  0  0  0  0  0  0  0
   -4.2309   -2.7237    0.1860 H   0  0  0  0  0  0  0  0  0  0  0  0
   -2.5229   -2.0787    1.2980 C   0  0  0  0  0  0  0  0  0  0  0  0
   -1.5999   -2.7227    1.7810 O   0  0  0  0  0  0  0  0  0  0  0  0
   -2.3659   -0.8447    0.8120 N   0  0  0  0  0  0  0  0  0  0  0  0
   -3.1749   -0.3807    0.4220 H   0  0  0  0  0  0  0  0  0  0  0  0
   -1.0919   -0.1077    0.8170 C   0  0  1  0  0  0  0  0  0  0  0  0
   -0.8170    0.1080   -0.2171 H   0  0  0  0  0  0  0  0  0  0  0  0
   -1.2991    1.2231    1.5642 C   0  0  0  0  0  0  0  0  0  0  0  0
   -1.7438    1.0097    2.5375 H   0  0  0  0  0  0  0  0  0  0  0  0
   -0.3292    1.6963    1.7298 H   0  0  0  0  0  0  0  0  0  0  0  0
   -2.2185    2.2014    0.8173 C   0  0  0  0  0  0  0  0  0  0  0  0
   -1.8012    2.4194   -0.1667 H   0  0  0  0  0  0  0  0  0  0  0  0
   -3.2032    1.7463    0.6940 H   0  0  0  0  0  0  0  0  0  0  0  0
   -2.3591    3.5108    1.6059 C   0  0  0  0  0  0  0  0  0  0  0  0
   -2.7633    3.2874    2.5961 H   0  0  0  0  0  0  0  0  0  0  0  0
   -1.3733    3.9664    1.7183 H   0  0  0  0  0  0  0  0  0  0  0  0
   -3.2966    4.4791    0.8736 C   0  0  0  0  0  0  0  0  0  0  0  0
   -2.8787    4.6839   -0.1174 H   0  0  0  0  0  0  0  0  0  0  0  0
   -4.2642    3.9876    0.7342 H   0  0  0  0  0  0  0  0  0  0  0  0
   -3.4695    5.7465    1.6274 N   0  3  0  0  0  0  0  0  0  0  0  0
   -2.5787    6.2113    1.7505 H   0  0  0  0  0  0  0  0  0  0  0  0
   -4.0905    6.3737    1.1315 H   0  0  0  0  0  0  0  0  0  0  0  0
   -3.8644    5.5632    2.5425 H   0  0  0  0  0  0  0  0  0  0  0  0
    0.0130   -0.9538    1.4536 C   0  0  0  0  0  0  0  0  0  0  0  0
    0.6694   -1.7181    0.7560 O   0  0  0  0  0  0  0  0  0  0  0  0
    0.1872   -0.8376    2.7741 N   0  0  0  0  0  0  0  0  0  0  0  0
   -0.3749   -0.1620    3.2648 H   0  0  0  0  0  0  0  0  0  0  0  0
    1.1997   -1.5718    3.5351 C   0  0  0  0  0  0  0  0  0  0  0  0
    2.1965   -1.2970    3.1835 H   0  0  0  0  0  0  0  0  0  0  0  0
    1.1217   -1.3380    4.5975 H   0  0  0  0  0  0  0  0  0  0  0  0
    1.0687   -2.6467    3.3921 H   0  0  0  0  0  0  0  0  0  0  0  0
  5  6  2  0  0  0  0
  5  7  1  0  0  0  0
  2  3  1  0  0  0  0
  2  4  1  0  0  0  0
  2  5  1  0  0  0  0
  1  2  1  0  0  0  0
 27 28  2  0  0  0  0
 27 29  1  0  0  0  0
 23 24  1  0  0  0  0
 23 25  1  0  0  0  0
 23 26  1  0  0  0  0
 20 21  1  0  0  0  0
 20 22  1  0  0  0  0
 20 23  1  0  0  0  0
 17 18  1  0  0  0  0
 17 19  1  0  0  0  0
 17 20  1  0  0  0  0
 14 15  1  0  0  0  0
 14 16  1  0  0  0  0
 14 17  1  0  0  0  0
 11 12  1  0  0  0  0
 11 13  1  0  0  0  0
 11 14  1  0  0  0  0
  9 10  1  0  0  0  0
  9 11  1  0  0  0  0
  9 27  1  0  0  0  0
  7  8  1  0  0  0  0
  7  9  1  0  0  0  0
 31 32  1  0  0  0  0
 31 33  1  0  0  0  0
 31 34  1  0  0  0  0
 29 30  1  0  0  0  0
 29 31  1  0  0  0  0
M  CHG  1  23   1
M  END
$$$$
default_name
  -OEChem-01062215323D

 34 33  0     1  0  0  0  0  0999 V2000
   -3.8899   -3.6747    1.6490 H   0  0  0  0  0  0  0  0  0  0  0  0
   -3.9109   -2.6717    1.2250 C   0  0  0  0  0  0  0  0  0  0  0  0
   -4.6009   -2.0517    1.7950 H   0  0  0  0  0  0  0  0  0  0  0  0
   -4.2309   -2.7237    0.1860 H   0  0  0  0  0  0  0  0  0  0  0  0
   -2.5229   -2.0787    1.2980 C   0  0  0  0  0  0  0  0  0  0  0  0
   -1.5999   -2.7227    1.7810 O   0  0  0  0  0  0  0  0  0  0  0  0
   -2.3659   -0.8447    0.8120 N   0  0  0  0  0  0  0  0  0  0  0  0
   -3.1749   -0.3807    0.4220 H   0  0  0  0  0  0  0  0  0  0  0  0
   -1.0919   -0.1077    0.8170 C   0  0  1  0  0  0  0  0  0  0  0  0
   -0.8170    0.1080   -0.2171 H   0  0  0  0  0  0  0  0  0  0  0  0
   -1.2991    1.2231    1.5642 C   0  0  0  0  0  0  0  0  0  0  0  0
   -1.7438    1.0097    2.5375 H   0  0  0  0  0  0  0  0  0  0  0  0
   -0.3292    1.6963    1.7298 H   0  0  0  0  0  0  0  0  0  0  0  0
   -2.2185    2.2014    0.8173 C   0  0  0  0  0  0  0  0  0  0  0  0
   -1.8012    2.4194   -0.1667 H   0  0  0  0  0  0  0  0  0  0  0  0
   -3.2032    1.7463    0.6940 H   0  0  0  0  0  0  0  0  0  0  0  0
   -2.3591    3.5108    1.6059 C   0  0  0  0  0  0  0  0  0  0  0  0
   -2.7633    3.2874    2.5961 H   0  0  0  0  0  0  0  0  0  0  0  0
   -1.3733    3.9664    1.7183 H   0  0  0  0  0  0  0  0  0  0  0  0
   -3.2966    4.4791    0.8736 C   0  0  0  0  0  0  0  0  0  0  0  0
   -2.8787    4.6839   -0.1174 H   0  0  0  0  0  0  0  0  0  0  0  0
   -4.2642    3.9876    0.7342 H   0  0  0  0  0  0  0  0  0  0  0  0
   -3.4695    5.7465    1.6274 N   0  3  0  0  0  0  0  0  0  0  0  0
   -2.5787    6.2113    1.7505 H   0  0  0  0  0  0  0  0  0  0  0  0
   -4.0905    6.3737    1.1315 H   0  0  0  0  0  0  0  0  0  0  0  0
   -3.8644    5.5632    2.5425 H   0  0  0  0  0  0  0  0  0  0  0  0
    0.0130   -0.9538    1.4536 C   0  0  0  0  0  0  0  0  0  0  0  0
    0.8440   -1.5024    0.7394 O   0  0  0  0  0  0  0  0  0  0  0  0
   -0.0052   -1.0811    2.7844 N   0  0  0  0  0  0  0  0  0  0  0  0
   -0.7053   -0.5699    3.2961 H   0  0  0  0  0  0  0  0  0  0  0  0
    0.9787   -1.8509    3.5478 C   0  0  0  0  0  0  0  0  0  0  0  0
    1.9726   -1.4203    3.4081 H   0  0  0  0  0  0  0  0  0  0  0  0
    0.7324   -1.8368    4.6101 H   0  0  0  0  0  0  0  0  0  0  0  0
    0.9992   -2.8848    3.1963 H   0  0  0  0  0  0  0  0  0  0  0  0
  5  6  2  0  0  0  0
  5  7  1  0  0  0  0
  2  3  1  0  0  0  0
  2  4  1  0  0  0  0
  2  5  1  0  0  0  0
  1  2  1  0  0  0  0
 27 28  2  0  0  0  0
 27 29  1  0  0  0  0
 23 24  1  0  0  0  0
 23 25  1  0  0  0  0
 23 26  1  0  0  0  0
 20 21  1  0  0  0  0
 20 22  1  0  0  0  0
 20 23  1  0  0  0  0
 17 18  1  0  0  0  0
 17 19  1  0  0  0  0
 17 20  1  0  0  0  0
 14 15  1  0  0  0  0
 14 16  1  0  0  0  0
 14 17  1  0  0  0  0
 11 12  1  0  0  0  0
 11 13  1  0  0  0  0
 11 14  1  0  0  0  0
  9 10  1  0  0  0  0
  9 11  1  0  0  0  0
  9 27  1  0  0  0  0
  7  8  1  0  0  0  0
  7  9  1  0  0  0  0
 31 32  1  0  0  0  0
 31 33  1  0  0  0  0
 31 34  1  0  0  0  0
 29 30  1  0  0  0  0
 29 31  1  0  0  0  0
M  CHG  1  23   1
M  END
$$$$
default_name
  -OEChem-01062215323D

 34 33  0     1  0  0  0  0  0999 V2000
   -3.8899   -3.6747    1.6490 H   0  0  0  0  0  0  0  0  0  0  0  0
   -3.9109   -2.6717    1.2250 C   0  0  0  0  0  0  0  0  0  0  0  0
   -4.6009   -2.0517    1.7950 H   0  0  0  0  0  0  0  0  0  0  0  0
   -4.2309   -2.7237    0.1860 H   0  0  0  0  0  0  0  0  0  0  0  0
   -2.5229   -2.0787    1.2980 C   0  0  0  0  0  0  0  0  0  0  0  0
   -1.5999   -2.7227    1.7810 O   0  0  0  0  0  0  0  0  0  0  0  0
   -2.3659   -0.8447    0.8120 N   0  0  0  0  0  0  0  0  0  0  0  0
   -3.1749   -0.3807    0.4220 H   0  0  0  0  0  0  0  0  0  0  0  0
   -1.0919   -0.1077    0.8170 C   0  0  1  0  0  0  0  0  0  0  0  0
   -0.8170    0.1080   -0.2171 H   0  0  0  0  0  0  0  0  0  0  0  0
   -1.2991    1.2231    1.5642 C   0  0  0  0  0  0  0  0  0  0  0  0
   -1.7438    1.0097    2.5375 H   0  0  0  0  0  0  0  0  0  0  0  0
   -0.3292    1.6963    1.7298 H   0  0  0  0  0  0  0  0  0  0  0  0
   -2.2185    2.2014    0.8173 C   0  0  0  0  0  0  0  0  0  0  0  0
   -1.8012    2.4194   -0.1667 H   0  0  0  0  0  0  0  0  0  0  0  0
   -3.2032    1.7463    0.6940 H   0  0  0  0  0  0  0  0  0  0  0  0
   -2.3591    3.5108    1.6059 C   0  0  0  0  0  0  0  0  0  0  0  0
   -2.7633    3.2874    2.5961 H   0  0  0  0  0  0  0  0  0  0  0  0
   -1.3733    3.9664    1.7183 H   0  0  0  0  0  0  0  0  0  0  0  0
   -3.2966    4.4791    0.8736 C   0  0  0  0  0  0  0  0  0  0  0  0
   -2.8787    4.6839   -0.1174 H   0  0  0  0  0  0  0  0  0  0  0  0
   -4.2642    3.9876    0.7342 H   0  0  0  0  0  0  0  0  0  0  0  0
   -3.4695    5.7465    1.6274 N   0  3  0  0  0  0  0  0  0  0  0  0
   -2.5787    6.2113    1.7505 H   0  0  0  0  0  0  0  0  0  0  0  0
   -4.0905    6.3737    1.1315 H   0  0  0  0  0  0  0  0  0  0  0  0
   -3.8644    5.5632    2.5425 H   0  0  0  0  0  0  0  0  0  0  0  0
    0.0130   -0.9538    1.4536 C   0  0  0  0  0  0  0  0  0  0  0  0
    0.9919   -1.2722    0.7888 O   0  0  0  0  0  0  0  0  0  0  0  0
   -0.1663   -1.3389    2.7214 N   0  0  0  0  0  0  0  0  0  0  0  0
   -0.9849   -1.0053    3.2027 H   0  0  0  0  0  0  0  0  0  0  0  0
    0.7935   -2.1466    3.4762 C   0  0  0  0  0  0  0  0  0  0  0  0
    1.7375   -1.6055    3.5699 H   0  0  0  0  0  0  0  0  0  0  0  0
    0.4084   -2.3628    4.4734 H   0  0  0  0  0  0  0  0  0  0  0  0
    0.9857   -3.0856    2.9527 H   0  0  0  0  0  0  0  0  0  0  0  0
  5  6  2  0  0  0  0
  5  7  1  0  0  0  0
  2  3  1  0  0  0  0
  2  4  1  0  0  0  0
  2  5  1  0  0  0  0
  1  2  1  0  0  0  0
 27 28  2  0  0  0  0
 27 29  1  0  0  0  0
 23 24  1  0  0  0  0
 23 25  1  0  0  0  0
 23 26  1  0  0  0  0
 20 21  1  0  0  0  0
 20 22  1  0  0  0  0
 20 23  1  0  0  0  0
 17 18  1  0  0  0  0
 17 19  1  0  0  0  0
 17 20  1  0  0  0  0
 14 15  1  0  0  0  0
 14 16  1  0  0  0  0
 14 17  1  0  0  0  0
 11 12  1  0  0  0  0
 11 13  1  0  0  0  0
 11 14  1  0  0  0  0
  9 10  1  0  0  0  0
  9 11  1  0  0  0  0
  9 27  1  0  0  0  0
  7  8  1  0  0  0  0
  7  9  1  0  0  0  0
 31 32  1  0  0  0  0
 31 33  1  0  0  0  0
 31 34  1  0  0  0  0
 29 30  1  0  0  0  0
 29 31  1  0  0  0  0
M  CHG  1  23   1
M  END
$$$$
default_name
  -OEChem-01062215323D

 34 33  0     1  0  0  0  0  0999 V2000
   -3.8899   -3.6747    1.6490 H   0  0  0  0  0  0  0  0  0  0  0  0
   -3.9109   -2.6717    1.2250 C   0  0  0  0  0  0  0  0  0  0  0  0
   -4.6009   -2.0517    1.7950 H   0  0  0  0  0  0  0  0  0  0  0  0
   -4.2309   -2.7237    0.1860 H   0  0  0  0  0  0  0  0  0  0  0  0
   -2.5229   -2.0787    1.2980 C   0  0  0  0  0  0  0  0  0  0  0  0
   -1.5999   -2.7227    1.7810 O   0  0  0  0  0  0  0  0  0  0  0  0
   -2.3659   -0.8447    0.8120 N   0  0  0  0  0  0  0  0  0  0  0  0
   -3.1749   -0.3807    0.4220 H   0  0  0  0  0  0  0  0  0  0  0  0
   -1.0919   -0.1077    0.8170 C   0  0  1  0  0  0  0  0  0  0  0  0
   -0.8170    0.1080   -0.2171 H   0  0  0  0  0  0  0  0  0  0  0  0
   -1.2991    1.2231    1.5642 C   0  0  0  0  0  0  0  0  0  0  0  0
   -1.7438    1.0097    2.5375 H   0  0  0  0  0  0  0  0  0  0  0  0
   -0.3292    1.6963    1.7298 H   0  0  0  0  0  0  0  0  0  0  0  0
   -2.2185    2.2014    0.8173 C   0  0  0  0  0  0  0  0  0  0  0  0
   -1.8012    2.4194   -0.1667 H   0  0  0  0  0  0  0  0  0  0  0  0
   -3.2032    1.7463    0.6940 H   0  0  0  0  0  0  0  0  0  0  0  0
   -2.3591    3.5108    1.6059 C   0  0  0  0  0  0  0  0  0  0  0  0
   -2.7633    3.2874    2.5961 H   0  0  0  0  0  0  0  0  0  0  0  0
   -1.3733    3.9664    1.7183 H   0  0  0  0  0  0  0  0  0  0  0  0
   -3.2966    4.4791    0.8736 C   0  0  0  0  0  0  0  0  0  0  0  0
   -2.8787    4.6839   -0.1174 H   0  0  0  0  0  0  0  0  0  0  0  0
   -4.2642    3.9876    0.7342 H   0  0  0  0  0  0  0  0  0  0  0  0
   -3.4695    5.7465    1.6274 N   0  3  0  0  0  0  0  0  0  0  0  0
   -2.5787    6.2113    1.7505 H   0  0  0  0  0  0  0  0  0  0  0  0
   -4.0905    6.3737    1.1315 H   0  0  0  0  0  0  0  0  0  0  0  0
   -3.8644    5.5632    2.5425 H   0  0  0  0  0  0  0  0  0  0  0  0
    0.0130   -0.9538    1.4536 C   0  0  0  0  0  0  0  0  0  0  0  0
    1.1029   -1.0432    0.9006 O   0  0  0  0  0  0  0  0  0  0  0  0
   -0.2851   -1.5935    2.5892 N   0  0  0  0  0  0  0  0  0  0  0  0
   -1.1948   -1.4385    2.9912 H   0  0  0  0  0  0  0  0  0  0  0  0
    0.6567   -2.4388    3.3254 C   0  0  0  0  0  0  0  0  0  0  0  0
    1.5072   -1.8400    3.6581 H   0  0  0  0  0  0  0  0  0  0  0  0
    0.1716   -2.8803    4.1967 H   0  0  0  0  0  0  0  0  0  0  0  0
    1.0292   -3.2356    2.6779 H   0  0  0  0  0  0  0  0  0  0  0  0
  5  6  2  0  0  0  0
  5  7  1  0  0  0  0
  2  3  1  0  0  0  0
  2  4  1  0  0  0  0
  2  5  1  0  0  0  0
  1  2  1  0  0  0  0
 27 28  2  0  0  0  0
 27 29  1  0  0  0  0
 23 24  1  0  0  0  0
 23 25  1  0  0  0  0
 23 26  1  0  0  0  0
 20 21  1  0  0  0  0
 20 22  1  0  0  0  0
 20 23  1  0  0  0  0
 17 18  1  0  0  0  0
 17 19  1  0  0  0  0
 17 20  1  0  0  0  0
 14 15  1  0  0  0  0
 14 16  1  0  0  0  0
 14 17  1  0  0  0  0
 11 12  1  0  0  0  0
 11 13  1  0  0  0  0
 11 14  1  0  0  0  0
  9 10  1  0  0  0  0
  9 11  1  0  0  0  0
  9 27  1  0  0  0  0
  7  8  1  0  0  0  0
  7  9  1  0  0  0  0
 31 32  1  0  0  0  0
 31 33  1  0  0  0  0
 31 34  1  0  0  0  0
 29 30  1  0  0  0  0
 29 31  1  0  0  0  0
M  CHG  1  23   1
M  END
$$$$
default_name
  -OEChem-01062215323D

 34 33  0     1  0  0  0  0  0999 V2000
   -3.8899   -3.6747    1.6490 H   0  0  0  0  0  0  0  0  0  0  0  0
   -3.9109   -2.6717    1.2250 C   0  0  0  0  0  0  0  0  0  0  0  0
   -4.6009   -2.0517    1.7950 H   0  0  0  0  0  0  0  0  0  0  0  0
   -4.2309   -2.7237    0.1860 H   0  0  0  0  0  0  0  0  0  0  0  0
   -2.5229   -2.0787    1.2980 C   0  0  0  0  0  0  0  0  0  0  0  0
   -1.5999   -2.7227    1.7810 O   0  0  0  0  0  0  0  0  0  0  0  0
   -2.3659   -0.8447    0.8120 N   0  0  0  0  0  0  0  0  0  0  0  0
   -3.1749   -0.3807    0.4220 H   0  0  0  0  0  0  0  0  0  0  0  0
   -1.0919   -0.1077    0.8170 C   0  0  1  0  0  0  0  0  0  0  0  0
   -0.8170    0.1080   -0.2171 H   0  0  0  0  0  0  0  0  0  0  0  0
   -1.2991    1.2231    1.5642 C   0  0  0  0  0  0  0  0  0  0  0  0
   -1.7438    1.0097    2.5375 H   0  0  0  0  0  0  0  0  0  0  0  0
   -0.3292    1.6963    1.7298 H   0  0  0  0  0  0  0  0  0  0  0  0
   -2.2185    2.2014    0.8173 C   0  0  0  0  0  0  0  0  0  0  0  0
   -1.8012    2.4194   -0.1667 H   0  0  0  0  0  0  0  0  0  0  0  0
   -3.2032    1.7463    0.6940 H   0  0  0  0  0  0  0  0  0  0  0  0
   -2.3591    3.5108    1.6059 C   0  0  0  0  0  0  0  0  0  0  0  0
   -2.7633    3.2874    2.5961 H   0  0  0  0  0  0  0  0  0  0  0  0
   -1.3733    3.9664    1.7183 H   0  0  0  0  0  0  0  0  0  0  0  0
   -3.2966    4.4791    0.8736 C   0  0  0  0  0  0  0  0  0  0  0  0
   -2.8787    4.6839   -0.1174 H   0  0  0  0  0  0  0  0  0  0  0  0
   -4.2642    3.9876    0.7342 H   0  0  0  0  0  0  0  0  0  0  0  0
   -3.4695    5.7465    1.6274 N   0  3  0  0  0  0  0  0  0  0  0  0
   -2.5787    6.2113    1.7505 H   0  0  0  0  0  0  0  0  0  0  0  0
   -4.0905    6.3737    1.1315 H   0  0  0  0  0  0  0  0  0  0  0  0
   -3.8644    5.5632    2.5425 H   0  0  0  0  0  0  0  0  0  0  0  0
    0.0130   -0.9538    1.4536 C   0  0  0  0  0  0  0  0  0  0  0  0
    1.1694   -0.8309    1.0673 O   0  0  0  0  0  0  0  0  0  0  0  0
   -0.3536   -1.8275    2.3970 N   0  0  0  0  0  0  0  0  0  0  0  0
   -1.3206   -1.8400    2.6759 H   0  0  0  0  0  0  0  0  0  0  0  0
    0.5775   -2.7075    3.1055 C   0  0  0  0  0  0  0  0  0  0  0  0
    1.2974   -2.1077    3.6664 H   0  0  0  0  0  0  0  0  0  0  0  0
    0.0381   -3.3539    3.7988 H   0  0  0  0  0  0  0  0  0  0  0  0
    1.1266   -3.3244    2.3907 H   0  0  0  0  0  0  0  0  0  0  0  0
  5  6  2  0  0  0  0
  5  7  1  0  0  0  0
  2  3  1  0  0  0  0
  2  4  1  0  0  0  0
  2  5  1  0  0  0  0
  1  2  1  0  0  0  0
 27 28  2  0  0  0  0
 27 29  1  0  0  0  0
 23 24  1  0  0  0  0
 23 25  1  0  0  0  0
 23 26  1  0  0  0  0
 20 21  1  0  0  0  0
 20 22  1  0  0  0  0
 20 23  1  0  0  0  0
 17 18  1  0  0  0  0
 17 19  1  0  0  0  0
 17 20  1  0  0  0  0
 14 15  1  0  0  0  0
 14 16  1  0  0  0  0
 14 17  1  0  0  0  0
 11 12  1  0  0  0  0
 11 13  1  0  0  0  0
 11 14  1  0  0  0  0
  9 10  1  0  0  0  0
  9 11  1  0  0  0  0
  9 27  1  0  0  0  0
  7  8  1  0  0  0  0
  7  9  1  0  0  0  0
 31 32  1  0  0  0  0
 31 33  1  0  0  0  0
 31 34  1  0  0  0  0
 29 30  1  0  0  0  0
 29 31  1  0  0  0  0
M  CHG  1  23   1
M  END
$$$$
default_name
  -OEChem-01062215323D

 34 33  0     1  0  0  0  0  0999 V2000
   -3.8899   -3.6747    1.6490 H   0  0  0  0  0  0  0  0  0  0  0  0
   -3.9109   -2.6717    1.2250 C   0  0  0  0  0  0  0  0  0  0  0  0
   -4.6009   -2.0517    1.7950 H   0  0  0  0  0  0  0  0  0  0  0  0
   -4.2309   -2.7237    0.1860 H   0  0  0  0  0  0  0  0  0  0  0  0
   -2.5229   -2.0787    1.2980 C   0  0  0  0  0  0  0  0  0  0  0  0
   -1.5999   -2.7227    1.7810 O   0  0  0  0  0  0  0  0  0  0  0  0
   -2.3659   -0.8447    0.8120 N   0  0  0  0  0  0  0  0  0  0  0  0
   -3.1749   -0.3807    0.4220 H   0  0  0  0  0  0  0  0  0  0  0  0
   -1.0919   -0.1077    0.8170 C   0  0  1  0  0  0  0  0  0  0  0  0
   -0.8170    0.1080   -0.2171 H   0  0  0  0  0  0  0  0  0  0  0  0
   -1.2991    1.2231    1.5642 C   0  0  0  0  0  0  0  0  0  0  0  0
   -1.7438    1.0097    2.5375 H   0  0  0  0  0  0  0  0  0  0  0  0
   -0.3292    1.6963    1.7298 H   0  0  0  0  0  0  0  0  0  0  0  0
   -2.2185    2.2014    0.8173 C   0  0  0  0  0  0  0  0  0  0  0  0
   -1.8012    2.4194   -0.1667 H   0  0  0  0  0  0  0  0  0  0  0  0
   -3.2032    1.7463    0.6940 H   0  0  0  0  0  0  0  0  0  0  0  0
   -2.3591    3.5108    1.6059 C   0  0  0  0  0  0  0  0  0  0  0  0
   -2.7633    3.2874    2.5961 H   0  0  0  0  0  0  0  0  0  0  0  0
   -1.3733    3.9664    1.7183 H   0  0  0  0  0  0  0  0  0  0  0  0
   -3.2966    4.4791    0.8736 C   0  0  0  0  0  0  0  0  0  0  0  0
   -2.8787    4.6839   -0.1174 H   0  0  0  0  0  0  0  0  0  0  0  0
   -4.2642    3.9876    0.7342 H   0  0  0  0  0  0  0  0  0  0  0  0
   -3.4695    5.7465    1.6274 N   0  3  0  0  0  0  0  0  0  0  0  0
   -2.5787    6.2113    1.7505 H   0  0  0  0  0  0  0  0  0  0  0  0
   -4.0905    6.3737    1.1315 H   0  0  0  0  0  0  0  0  0  0  0  0
   -3.8644    5.5632    2.5425 H   0  0  0  0  0  0  0  0  0  0  0  0
    0.0130   -0.9538    1.4536 C   0  0  0  0  0  0  0  0  0  0  0  0
    1.1869   -0.6498    1.2775 O   0  0  0  0  0  0  0  0  0  0  0  0
   -0.3670   -2.0250    2.1578 N   0  0  0  0  0  0  0  0  0  0  0  0
   -1.3538   -2.1825    2.2784 H   0  0  0  0  0  0  0  0  0  0  0  0
    0.5615   -2.9346    2.8315 C   0  0  0  0  0  0  0  0  0  0  0  0
    1.1224   -2.3904    3.5944 H   0  0  0  0  0  0  0  0  0  0  0  0
    0.0172   -3.7514    3.3069 H   0  0  0  0  0  0  0  0  0  0  0  0
    1.2714   -3.3460    2.1107 H   0  0  0  0  0  0  0  0  0  0  0  0
  5  6  2  0  0  0  0
  5  7  1  0  0  0  0
  2  3  1  0  0  0  0
  2  4  1  0  0  0  0
  2  5  1  0  0  0  0
  1  2  1  0  0  0  0
 27 28  2  0  0  0  0
 27 29  1  0  0  0  0
 23 24  1  0  0  0  0
 23 25  1  0  0  0  0
 23 26  1  0  0  0  0
 20 21  1  0  0  0  0
 20 22  1  0  0  0  0
 20 23  1  0  0  0  0
 17 18  1  0  0  0  0
 17 19  1  0  0  0  0
 17 20  1  0  0  0  0
 14 15  1  0  0  0  0
 14 16  1  0  0  0  0
 14 17  1  0  0  0  0
 11 12  1  0  0  0  0
 11 13  1  0  0  0  0
 11 14  1  0  0  0  0
  9 10  1  0  0  0  0
  9 11  1  0  0  0  0
  9 27  1  0  0  0  0
  7  8  1  0  0  0  0
  7  9  1  0  0  0  0
 31 32  1  0  0  0  0
 31 33  1  0  0  0  0
 31 34  1  0  0  0  0
 29 30  1  0  0  0  0
 29 31  1  0  0  0  0
M  CHG  1  23   1
M  END
$$$$
default_name
  -OEChem-01062215323D

 34 33  0     1  0  0  0  0  0999 V2000
   -3.8899   -3.6747    1.6490 H   0  0  0  0  0  0  0  0  0  0  0  0
   -3.9109   -2.6717    1.2250 C   0  0  0  0  0  0  0  0  0  0  0  0
   -4.6009   -2.0517    1.7950 H   0  0  0  0  0  0  0  0  0  0  0  0
   -4.2309   -2.7237    0.1860 H   0  0  0  0  0  0  0  0  0  0  0  0
   -2.5229   -2.0787    1.2980 C   0  0  0  0  0  0  0  0  0  0  0  0
   -1.5999   -2.7227    1.7810 O   0  0  0  0  0  0  0  0  0  0  0  0
   -2.3659   -0.8447    0.8120 N   0  0  0  0  0  0  0  0  0  0  0  0
   -3.1749   -0.3807    0.4220 H   0  0  0  0  0  0  0  0  0  0  0  0
   -1.0919   -0.1077    0.8170 C   0  0  1  0  0  0  0  0  0  0  0  0
   -0.8170    0.1080   -0.2171 H   0  0  0  0  0  0  0  0  0  0  0  0
   -1.2991    1.2231    1.5642 C   0  0  0  0  0  0  0  0  0  0  0  0
   -1.7438    1.0097    2.5375 H   0  0  0  0  0  0  0  0  0  0  0  0
   -0.3292    1.6963    1.7298 H   0  0  0  0  0  0  0  0  0  0  0  0
   -2.2185    2.2014    0.8173 C   0  0  0  0  0  0  0  0  0  0  0  0
   -1.8012    2.4194   -0.1667 H   0  0  0  0  0  0  0  0  0  0  0  0
   -3.2032    1.7463    0.6940 H   0  0  0  0  0  0  0  0  0  0  0  0
   -2.3591    3.5108    1.6059 C   0  0  0  0  0  0  0  0  0  0  0  0
   -2.7633    3.2874    2.5961 H   0  0  0  0  0  0  0  0  0  0  0  0
   -1.3733    3.9664    1.7183 H   0  0  0  0  0  0  0  0  0  0  0  0
   -3.2966    4.4791    0.8736 C   0  0  0  0  0  0  0  0  0  0  0  0
   -2.8787    4.6839   -0.1174 H   0  0  0  0  0  0  0  0  0  0  0  0
   -4.2642    3.9876    0.7342 H   0  0  0  0  0  0  0  0  0  0  0  0
   -3.4695    5.7465    1.6274 N   0  3  0  0  0  0  0  0  0  0  0  0
   -2.5787    6.2113    1.7505 H   0  0  0  0  0  0  0  0  0  0  0  0
   -4.0905    6.3737    1.1315 H   0  0  0  0  0  0  0  0  0  0  0  0
   -3.8644    5.5632    2.5425 H   0  0  0  0  0  0  0  0  0  0  0  0
    0.0130   -0.9538    1.4536 C   0  0  0  0  0  0  0  0  0  0  0  0
    1.1543   -0.5123    1.5169 O   0  0  0  0  0  0  0  0  0  0  0  0
   -0.3245   -2.1725    1.8879 N   0  0  0  0  0  0  0  0  0  0  0  0
   -1.2921   -2.4426    1.8256 H   0  0  0  0  0  0  0  0  0  0  0  0
    0.6097   -3.1044    2.5222 C   0  0  0  0  0  0  0  0  0  0  0  0
    0.9941   -2.6689    3.4470 H   0  0  0  0  0  0  0  0  0  0  0  0
    0.1101   -4.0456    2.7545 H   0  0  0  0  0  0  0  0  0  0  0  0
    1.4537   -3.2990    1.8568 H   0  0  0  0  0  0  0  0  0  0  0  0
  5  6  2  0  0  0  0
  5  7  1  0  0  0  0
  2  3  1  0  0  0  0
  2  4  1  0  0  0  0
  2  5  1  0  0  0  0
  1  2  1  0  0  0  0
 27 28  2  0  0  0  0
 27 29  1  0  0  0  0
 23 24  1  0  0  0  0
 23 25  1  0  0  0  0
 23 26  1  0  0  0  0
 20 21  1  0  0  0  0
 20 22  1  0  0  0  0
 20 23  1  0  0  0  0
 17 18  1  0  0  0  0
 17 19  1  0  0  0  0
 17 20  1  0  0  0  0
 14 15  1  0  0  0  0
 14 16  1  0  0  0  0
 14 17  1  0  0  0  0
 11 12  1  0  0  0  0
 11 13  1  0  0  0  0
 11 14  1  0  0  0  0
  9 10  1  0  0  0  0
  9 11  1  0  0  0  0
  9 27  1  0  0  0  0
  7  8  1  0  0  0  0
  7  9  1  0  0  0  0
 31 32  1  0  0  0  0
 31 33  1  0  0  0  0
 31 34  1  0  0  0  0
 29 30  1  0  0  0  0
 29 31  1  0  0  0  0
M  CHG  1  23   1
M  END
$$$$
default_name
  -OEChem-01062215323D

 34 33  0     1  0  0  0  0  0999 V2000
   -3.8899   -3.6747    1.6490 H   0  0  0  0  0  0  0  0  0  0  0  0
   -3.9109   -2.6717    1.2250 C   0  0  0  0  0  0  0  0  0  0  0  0
   -4.6009   -2.0517    1.7950 H   0  0  0  0  0  0  0  0  0  0  0  0
   -4.2309   -2.7237    0.1860 H   0  0  0  0  0  0  0  0  0  0  0  0
   -2.5229   -2.0787    1.2980 C   0  0  0  0  0  0  0  0  0  0  0  0
   -1.5999   -2.7227    1.7810 O   0  0  0  0  0  0  0  0  0  0  0  0
   -2.3659   -0.8447    0.8120 N   0  0  0  0  0  0  0  0  0  0  0  0
   -3.1749   -0.3807    0.4220 H   0  0  0  0  0  0  0  0  0  0  0  0
   -1.0919   -0.1077    0.8170 C   0  0  1  0  0  0  0  0  0  0  0  0
   -0.8170    0.1080   -0.2171 H   0  0  0  0  0  0  0  0  0  0  0  0
   -1.2991    1.2231    1.5642 C   0  0  0  0  0  0  0  0  0  0  0  0
   -1.7438    1.0097    2.5375 H   0  0  0  0  0  0  0  0  0  0  0  0
   -0.3292    1.6963    1.7298 H   0  0  0  0  0  0  0  0  0  0  0  0
   -2.2185    2.2014    0.8173 C   0  0  0  0  0  0  0  0  0  0  0  0
   -1.8012    2.4194   -0.1667 H   0  0  0  0  0  0  0  0  0  0  0  0
   -3.2032    1.7463    0.6940 H   0  0  0  0  0  0  0  0  0  0  0  0
   -2.3591    3.5108    1.6059 C   0  0  0  0  0  0  0  0  0  0  0  0
   -2.7633    3.2874    2.5961 H   0  0  0  0  0  0  0  0  0  0  0  0
   -1.3733    3.9664    1.7183 H   0  0  0  0  0  0  0  0  0  0  0  0
   -3.2966    4.4791    0.8736 C   0  0  0  0  0  0  0  0  0  0  0  0
   -2.8787    4.6839   -0.1174 H   0  0  0  0  0  0  0  0  0  0  0  0
   -4.2642    3.9876    0.7342 H   0  0  0  0  0  0  0  0  0  0  0  0
   -3.4695    5.7465    1.6274 N   0  3  0  0  0  0  0  0  0  0  0  0
   -2.5787    6.2113    1.7505 H   0  0  0  0  0  0  0  0  0  0  0  0
   -4.0905    6.3737    1.1315 H   0  0  0  0  0  0  0  0  0  0  0  0
   -3.8644    5.5632    2.5425 H   0  0  0  0  0  0  0  0  0  0  0  0
    0.0130   -0.9538    1.4536 C   0  0  0  0  0  0  0  0  0  0  0  0
    1.0737   -0.4277    1.7692 O   0  0  0  0  0  0  0  0  0  0  0  0
   -0.2289   -2.2600    1.6057 N   0  0  0  0  0  0  0  0  0  0  0  0
   -1.1397   -2.6026    1.3485 H   0  0  0  0  0  0  0  0  0  0  0  0
    0.7188   -3.2055    2.1986 C   0  0  0  0  0  0  0  0  0  0  0  0
    0.9212   -2.9242    3.2342 H   0  0  0  0  0  0  0  0  0  0  0  0
    0.3106   -4.2166    2.1792 H   0  0  0  0  0  0  0  0  0  0  0  0
    1.6610   -3.1865    1.6465 H   0  0  0  0  0  0  0  0  0  0  0  0
  5  6  2  0  0  0  0
  5  7  1  0  0  0  0
  2  3  1  0  0  0  0
  2  4  1  0  0  0  0
  2  5  1  0  0  0  0
  1  2  1  0  0  0  0
 27 28  2  0  0  0  0
 27 29  1  0  0  0  0
 23 24  1  0  0  0  0
 23 25  1  0  0  0  0
 23 26  1  0  0  0  0
 20 21  1  0  0  0  0
 20 22  1  0  0  0  0
 20 23  1  0  0  0  0
 17 18  1  0  0  0  0
 17 19  1  0  0  0  0
 17 20  1  0  0  0  0
 14 15  1  0  0  0  0
 14 16  1  0  0  0  0
 14 17  1  0  0  0  0
 11 12  1  0  0  0  0
 11 13  1  0  0  0  0
 11 14  1  0  0  0  0
  9 10  1  0  0  0  0
  9 11  1  0  0  0  0
  9 27  1  0  0  0  0
  7  8  1  0  0  0  0
  7  9  1  0  0  0  0
 31 32  1  0  0  0  0
 31 33  1  0  0  0  0
 31 34  1  0  0  0  0
 29 30  1  0  0  0  0
 29 31  1  0  0  0  0
M  CHG  1  23   1
M  END
$$$$
default_name
  -OEChem-01062215323D

 34 33  0     1  0  0  0  0  0999 V2000
   -3.8899   -3.6747    1.6490 H   0  0  0  0  0  0  0  0  0  0  0  0
   -3.9109   -2.6717    1.2250 C   0  0  0  0  0  0  0  0  0  0  0  0
   -4.6009   -2.0517    1.7950 H   0  0  0  0  0  0  0  0  0  0  0  0
   -4.2309   -2.7237    0.1860 H   0  0  0  0  0  0  0  0  0  0  0  0
   -2.5229   -2.0787    1.2980 C   0  0  0  0  0  0  0  0  0  0  0  0
   -1.5999   -2.7227    1.7810 O   0  0  0  0  0  0  0  0  0  0  0  0
   -2.3659   -0.8447    0.8120 N   0  0  0  0  0  0  0  0  0  0  0  0
   -3.1749   -0.3807    0.4220 H   0  0  0  0  0  0  0  0  0  0  0  0
   -1.0919   -0.1077    0.8170 C   0  0  1  0  0  0  0  0  0  0  0  0
   -0.8170    0.1080   -0.2171 H   0  0  0  0  0  0  0  0  0  0  0  0
   -1.2991    1.2231    1.5642 C   0  0  0  0  0  0  0  0  0  0  0  0
   -1.7438    1.0097    2.5375 H   0  0  0  0  0  0  0  0  0  0  0  0
   -0.3292    1.6963    1.7298 H   0  0  0  0  0  0  0  0  0  0  0  0
   -2.2185    2.2014    0.8173 C   0  0  0  0  0  0  0  0  0  0  0  0
   -1.8012    2.4194   -0.1667 H   0  0  0  0  0  0  0  0  0  0  0  0
   -3.2032    1.7463    0.6940 H   0  0  0  0  0  0  0  0  0  0  0  0
   -2.3591    3.5108    1.6059 C   0  0  0  0  0  0  0  0  0  0  0  0
   -2.7633    3.2874    2.5961 H   0  0  0  0  0  0  0  0  0  0  0  0
   -1.3733    3.9664    1.7183 H   0  0  0  0  0  0  0  0  0  0  0  0
   -3.2966    4.4791    0.8736 C   0  0  0  0  0  0  0  0  0  0  0  0
   -2.8787    4.6839   -0.1174 H   0  0  0  0  0  0  0  0  0  0  0  0
   -4.2642    3.9876    0.7342 H   0  0  0  0  0  0  0  0  0  0  0  0
   -3.4695    5.7465    1.6274 N   0  3  0  0  0  0  0  0  0  0  0  0
   -2.5787    6.2113    1.7505 H   0  0  0  0  0  0  0  0  0  0  0  0
   -4.0905    6.3737    1.1315 H   0  0  0  0  0  0  0  0  0  0  0  0
   -3.8644    5.5632    2.5425 H   0  0  0  0  0  0  0  0  0  0  0  0
    0.0130   -0.9538    1.4536 C   0  0  0  0  0  0  0  0  0  0  0  0
    0.9507   -0.4019    2.0171 O   0  0  0  0  0  0  0  0  0  0  0  0
   -0.0868   -2.2815    1.3305 N   0  0  0  0  0  0  0  0  0  0  0  0
   -0.9070   -2.6515    0.8795 H   0  0  0  0  0  0  0  0  0  0  0  0
    0.8813   -3.2309    1.8827 C   0  0  0  0  0  0  0  0  0  0  0  0
    0.9087   -3.1388    2.9705 H   0  0  0  0  0  0  0  0  0  0  0  0
    0.6050   -4.2527    1.6202 H   0  0  0  0  0  0  0  0  0  0  0  0
    1.8792   -3.0163    1.4940 H   0  0  0  0  0  0  0  0  0  0  0  0
  5  6  2  0  0  0  0
  5  7  1  0  0  0  0
  2  3  1  0  0  0  0
  2  4  1  0  0  0  0
  2  5  1  0  0  0  0
  1  2  1  0  0  0  0
 27 28  2  0  0  0  0
 27 29  1  0  0  0  0
 23 24  1  0  0  0  0
 23 25  1  0  0  0  0
 23 26  1  0  0  0  0
 20 21  1  0  0  0  0
 20 22  1  0  0  0  0
 20 23  1  0  0  0  0
 17 18  1  0  0  0  0
 17 19  1  0  0  0  0
 17 20  1  0  0  0  0
 14 15  1  0  0  0  0
 14 16  1  0  0  0  0
 14 17  1  0  0  0  0
 11 12  1  0  0  0  0
 11 13  1  0  0  0  0
 11 14  1  0  0  0  0
  9 10  1  0  0  0  0
  9 11  1  0  0  0  0
  9 27  1  0  0  0  0
  7  8  1  0  0  0  0
  7  9  1  0  0  0  0
 31 32  1  0  0  0  0
 31 33  1  0  0  0  0
 31 34  1  0  0  0  0
 29 30  1  0  0  0  0
 29 31  1  0  0  0  0
M  CHG  1  23   1
M  END
$$$$
default_name
  -OEChem-01062215323D

 34 33  0     1  0  0  0  0  0999 V2000
   -3.8899   -3.6747    1.6490 H   0  0  0  0  0  0  0  0  0  0  0  0
   -3.9109   -2.6717    1.2250 C   0  0  0  0  0  0  0  0  0  0  0  0
   -4.6009   -2.0517    1.7950 H   0  0  0  0  0  0  0  0  0  0  0  0
   -4.2309   -2.7237    0.1860 H   0  0  0  0  0  0  0  0  0  0  0  0
   -2.5229   -2.0787    1.2980 C   0  0  0  0  0  0  0  0  0  0  0  0
   -1.5999   -2.7227    1.7810 O   0  0  0  0  0  0  0  0  0  0  0  0
   -2.3659   -0.8447    0.8120 N   0  0  0  0  0  0  0  0  0  0  0  0
   -3.1749   -0.3807    0.4220 H   0  0  0  0  0  0  0  0  0  0  0  0
   -1.0919   -0.1077    0.8170 C   0  0  1  0  0  0  0  0  0  0  0  0
   -0.8170    0.1080   -0.2171 H   0  0  0  0  0  0  0  0  0  0  0  0
   -1.2991    1.2231    1.5642 C   0  0  0  0  0  0  0  0  0  0  0  0
   -1.7438    1.0097    2.5375 H   0  0  0  0  0  0  0  0  0  0  0  0
   -0.3292    1.6963    1.7298 H   0  0  0  0  0  0  0  0  0  0  0  0
   -2.2185    2.2014    0.8173 C   0  0  0  0  0  0  0  0  0  0  0  0
   -1.8012    2.4194   -0.1667 H   0  0  0  0  0  0  0  0  0  0  0  0
   -3.2032    1.7463    0.6940 H   0  0  0  0  0  0  0  0  0  0  0  0
   -2.3591    3.5108    1.6059 C   0  0  0  0  0  0  0  0  0  0  0  0
   -2.7633    3.2874    2.5961 H   0  0  0  0  0  0  0  0  0  0  0  0
   -1.3733    3.9664    1.7183 H   0  0  0  0  0  0  0  0  0  0  0  0
   -3.2966    4.4791    0.8736 C   0  0  0  0  0  0  0  0  0  0  0  0
   -2.8787    4.6839   -0.1174 H   0  0  0  0  0  0  0  0  0  0  0  0
   -4.2642    3.9876    0.7342 H   0  0  0  0  0  0  0  0  0  0  0  0
   -3.4695    5.7465    1.6274 N   0  3  0  0  0  0  0  0  0  0  0  0
   -2.5787    6.2113    1.7505 H   0  0  0  0  0  0  0  0  0  0  0  0
   -4.0905    6.3737    1.1315 H   0  0  0  0  0  0  0  0  0  0  0  0
   -3.8644    5.5632    2.5425 H   0  0  0  0  0  0  0  0  0  0  0  0
    0.0130   -0.9538    1.4536 C   0  0  0  0  0  0  0  0  0  0  0  0
    0.7936   -0.4364    2.2438 O   0  0  0  0  0  0  0  0  0  0  0  0
    0.0922   -2.2355    1.0810 N   0  0  0  0  0  0  0  0  0  0  0  0
   -0.6099   -2.5861    0.4507 H   0  0  0  0  0  0  0  0  0  0  0  0
    1.0863   -3.1789    1.5960 C   0  0  0  0  0  0  0  0  0  0  0  0
    0.9575   -3.2983    2.6739 H   0  0  0  0  0  0  0  0  0  0  0  0
    0.9732   -4.1514    1.1157 H   0  0  0  0  0  0  0  0  0  0  0  0
    2.0935   -2.7998    1.4098 H   0  0  0  0  0  0  0  0  0  0  0  0
  5  6  2  0  0  0  0
  5  7  1  0  0  0  0
  2  3  1  0  0  0  0
  2  4  1  0  0  0  0
  2  5  1  0  0  0  0
  1  2  1  0  0  0  0
 27 28  2  0  0  0  0
 27 29  1  0  0  0  0
 23 24  1  0  0  0  0
 23 25  1  0  0  0  0
 23 26  1  0  0  0  0
 20 21  1  0  0  0  0
 20 22  1  0  0  0  0
 20 23  1  0  0  0  0
 17 18  1  0  0  0  0
 17 19  1  0  0  0  0
 17 20  1  0  0  0  0
 14 15  1  0  0  0  0
 14 16  1  0  0  0  0
 14 17  1  0  0  0  0
 11 12  1  0  0  0  0
 11 13  1  0  0  0  0
 11 14  1  0  0  0  0
  9 10  1  0  0  0  0
  9 11  1  0  0  0  0
  9 27  1  0  0  0  0
  7  8  1  0  0  0  0
  7  9  1  0  0  0  0
 31 32  1  0  0  0  0
 31 33  1  0  0  0  0
 31 34  1  0  0  0  0
 29 30  1  0  0  0  0
 29 31  1  0  0  0  0
M  CHG  1  23   1
M  END
$$$$
default_name
  -OEChem-01062215323D

 34 33  0     1  0  0  0  0  0999 V2000
   -3.8899   -3.6747    1.6490 H   0  0  0  0  0  0  0  0  0  0  0  0
   -3.9109   -2.6717    1.2250 C   0  0  0  0  0  0  0  0  0  0  0  0
   -4.6009   -2.0517    1.7950 H   0  0  0  0  0  0  0  0  0  0  0  0
   -4.2309   -2.7237    0.1860 H   0  0  0  0  0  0  0  0  0  0  0  0
   -2.5229   -2.0787    1.2980 C   0  0  0  0  0  0  0  0  0  0  0  0
   -1.5999   -2.7227    1.7810 O   0  0  0  0  0  0  0  0  0  0  0  0
   -2.3659   -0.8447    0.8120 N   0  0  0  0  0  0  0  0  0  0  0  0
   -3.1749   -0.3807    0.4220 H   0  0  0  0  0  0  0  0  0  0  0  0
   -1.0919   -0.1077    0.8170 C   0  0  1  0  0  0  0  0  0  0  0  0
   -0.8170    0.1080   -0.2171 H   0  0  0  0  0  0  0  0  0  0  0  0
   -1.2991    1.2231    1.5642 C   0  0  0  0  0  0  0  0  0  0  0  0
   -1.7438    1.0097    2.5375 H   0  0  0  0  0  0  0  0  0  0  0  0
   -0.3292    1.6963    1.7298 H   0  0  0  0  0  0  0  0  0  0  0  0
   -2.2185    2.2014    0.8173 C   0  0  0  0  0  0  0  0  0  0  0  0
   -1.8012    2.4194   -0.1667 H   0  0  0  0  0  0  0  0  0  0  0  0
   -3.2032    1.7463    0.6940 H   0  0  0  0  0  0  0  0  0  0  0  0
   -2.3591    3.5108    1.6059 C   0  0  0  0  0  0  0  0  0  0  0  0
   -2.7633    3.2874    2.5961 H   0  0  0  0  0  0  0  0  0  0  0  0
   -1.3733    3.9664    1.7183 H   0  0  0  0  0  0  0  0  0  0  0  0
   -3.2966    4.4791    0.8736 C   0  0  0  0  0  0  0  0  0  0  0  0
   -2.8787    4.6839   -0.1174 H   0  0  0  0  0  0  0  0  0  0  0  0
   -4.2642    3.9876    0.7342 H   0  0  0  0  0  0  0  0  0  0  0  0
   -3.4695    5.7465    1.6274 N   0  3  0  0  0  0  0  0  0  0  0  0
   -2.5787    6.2113    1.7505 H   0  0  0  0  0  0  0  0  0  0  0  0
   -4.0905    6.3737    1.1315 H   0  0  0  0  0  0  0  0  0  0  0  0
   -3.8644    5.5632    2.5425 H   0  0  0  0  0  0  0  0  0  0  0  0
    0.0130   -0.9538    1.4536 C   0  0  0  0  0  0  0  0  0  0  0  0
    0.6131   -0.5291    2.4339 O   0  0  0  0  0  0  0  0  0  0  0  0
    0.2958   -2.1252    0.8742 N   0  0  0  0  0  0  0  0  0  0  0  0
   -0.2685   -2.4108    0.0912 H   0  0  0  0  0  0  0  0  0  0  0  0
    1.3196   -3.0530    1.3582 C   0  0  0  0  0  0  0  0  0  0  0  0
    1.0642   -3.3916    2.3647 H   0  0  0  0  0  0  0  0  0  0  0  0
    1.3902   -3.9197    0.7000 H   0  0  0  0  0  0  0  0  0  0  0  0
    2.2892   -2.5519    1.3995 H   0  0  0  0  0  0  0  0  0  0  0  0
  5  6  2  0  0  0  0
  5  7  1  0  0  0  0
  2  3  1  0  0  0  0
  2  4  1  0  0  0  0
  2  5  1  0  0  0  0
  1  2  1  0  0  0  0
 27 28  2  0  0  0  0
 27 29  1  0  0  0  0
 23 24  1  0  0  0  0
 23 25  1  0  0  0  0
 23 26  1  0  0  0  0
 20 21  1  0  0  0  0
 20 22  1  0  0  0  0
 20 23  1  0  0  0  0
 17 18  1  0  0  0  0
 17 19  1  0  0  0  0
 17 20  1  0  0  0  0
 14 15  1  0  0  0  0
 14 16  1  0  0  0  0
 14 17  1  0  0  0  0
 11 12  1  0  0  0  0
 11 13  1  0  0  0  0
 11 14  1  0  0  0  0
  9 10  1  0  0  0  0
  9 11  1  0  0  0  0
  9 27  1  0  0  0  0
  7  8  1  0  0  0  0
  7  9  1  0  0  0  0
 31 32  1  0  0  0  0
 31 33  1  0  0  0  0
 31 34  1  0  0  0  0
 29 30  1  0  0  0  0
 29 31  1  0  0  0  0
M  CHG  1  23   1
M  END
$$$$
default_name
  -OEChem-01062215323D

 34 33  0     1  0  0  0  0  0999 V2000
   -3.8899   -3.6747    1.6490 H   0  0  0  0  0  0  0  0  0  0  0  0
   -3.9109   -2.6717    1.2250 C   0  0  0  0  0  0  0  0  0  0  0  0
   -4.6009   -2.0517    1.7950 H   0  0  0  0  0  0  0  0  0  0  0  0
   -4.2309   -2.7237    0.1860 H   0  0  0  0  0  0  0  0  0  0  0  0
   -2.5229   -2.0787    1.2980 C   0  0  0  0  0  0  0  0  0  0  0  0
   -1.5999   -2.7227    1.7810 O   0  0  0  0  0  0  0  0  0  0  0  0
   -2.3659   -0.8447    0.8120 N   0  0  0  0  0  0  0  0  0  0  0  0
   -3.1749   -0.3807    0.4220 H   0  0  0  0  0  0  0  0  0  0  0  0
   -1.0919   -0.1077    0.8170 C   0  0  1  0  0  0  0  0  0  0  0  0
   -0.8170    0.1080   -0.2171 H   0  0  0  0  0  0  0  0  0  0  0  0
   -1.2991    1.2231    1.5642 C   0  0  0  0  0  0  0  0  0  0  0  0
   -1.7438    1.0097    2.5375 H   0  0  0  0  0  0  0  0  0  0  0  0
   -0.3292    1.6963    1.7298 H   0  0  0  0  0  0  0  0  0  0  0  0
   -2.2185    2.2014    0.8173 C   0  0  0  0  0  0  0  0  0  0  0  0
   -1.8012    2.4194   -0.1667 H   0  0  0  0  0  0  0  0  0  0  0  0
   -3.2032    1.7463    0.6940 H   0  0  0  0  0  0  0  0  0  0  0  0
   -2.3591    3.5108    1.6059 C   0  0  0  0  0  0  0  0  0  0  0  0
   -2.7633    3.2874    2.5961 H   0  0  0  0  0  0  0  0  0  0  0  0
   -1.3733    3.9664    1.7183 H   0  0  0  0  0  0  0  0  0  0  0  0
   -3.2966    4.4791    0.8736 C   0  0  0  0  0  0  0  0  0  0  0  0
   -2.8787    4.6839   -0.1174 H   0  0  0  0  0  0  0  0  0  0  0  0
   -4.2642    3.9876    0.7342 H   0  0  0  0  0  0  0  0  0  0  0  0
   -3.4695    5.7465    1.6274 N   0  3  0  0  0  0  0  0  0  0  0  0
   -2.5787    6.2113    1.7505 H   0  0  0  0  0  0  0  0  0  0  0  0
   -4.0905    6.3737    1.1315 H   0  0  0  0  0  0  0  0  0  0  0  0
   -3.8644    5.5632    2.5425 H   0  0  0  0  0  0  0  0  0  0  0  0
    0.0130   -0.9538    1.4536 C   0  0  0  0  0  0  0  0  0  0  0  0
    0.4216   -0.6736    2.5743 O   0  0  0  0  0  0  0  0  0  0  0  0
    0.5102   -1.9580    0.7242 N   0  0  0  0  0  0  0  0  0  0  0  0
    0.0938   -2.1376   -0.1744 H   0  0  0  0  0  0  0  0  0  0  0  0
    1.5655   -2.8619    1.1855 C   0  0  0  0  0  0  0  0  0  0  0  0
    1.2217   -3.4124    2.0637 H   0  0  0  0  0  0  0  0  0  0  0  0
    1.8275   -3.5733    0.4014 H   0  0  0  0  0  0  0  0  0  0  0  0
    2.4531   -2.2895    1.4640 H   0  0  0  0  0  0  0  0  0  0  0  0
  5  6  2  0  0  0  0
  5  7  1  0  0  0  0
  2  3  1  0  0  0  0
  2  4  1  0  0  0  0
  2  5  1  0  0  0  0
  1  2  1  0  0  0  0
 27 28  2  0  0  0  0
 27 29  1  0  0  0  0
 23 24  1  0  0  0  0
 23 25  1  0  0  0  0
 23 26  1  0  0  0  0
 20 21  1  0  0  0  0
 20 22  1  0  0  0  0
 20 23  1  0  0  0  0
 17 18  1  0  0  0  0
 17 19  1  0  0  0  0
 17 20  1  0  0  0  0
 14 15  1  0  0  0  0
 14 16  1  0  0  0  0
 14 17  1  0  0  0  0
 11 12  1  0  0  0  0
 11 13  1  0  0  0  0
 11 14  1  0  0  0  0
  9 10  1  0  0  0  0
  9 11  1  0  0  0  0
  9 27  1  0  0  0  0
  7  8  1  0  0  0  0
  7  9  1  0  0  0  0
 31 32  1  0  0  0  0
 31 33  1  0  0  0  0
 31 34  1  0  0  0  0
 29 30  1  0  0  0  0
 29 31  1  0  0  0  0
M  CHG  1  23   1
M  END
$$$$
default_name
  -OEChem-01062215323D

 34 33  0     1  0  0  0  0  0999 V2000
   -3.8899   -3.6747    1.6490 H   0  0  0  0  0  0  0  0  0  0  0  0
   -3.9109   -2.6717    1.2250 C   0  0  0  0  0  0  0  0  0  0  0  0
   -4.6009   -2.0517    1.7950 H   0  0  0  0  0  0  0  0  0  0  0  0
   -4.2309   -2.7237    0.1860 H   0  0  0  0  0  0  0  0  0  0  0  0
   -2.5229   -2.0787    1.2980 C   0  0  0  0  0  0  0  0  0  0  0  0
   -1.5999   -2.7227    1.7810 O   0  0  0  0  0  0  0  0  0  0  0  0
   -2.3659   -0.8447    0.8120 N   0  0  0  0  0  0  0  0  0  0  0  0
   -3.1749   -0.3807    0.4220 H   0  0  0  0  0  0  0  0  0  0  0  0
   -1.0919   -0.1077    0.8170 C   0  0  1  0  0  0  0  0  0  0  0  0
   -0.8170    0.1080   -0.2171 H   0  0  0  0  0  0  0  0  0  0  0  0
   -1.2991    1.2231    1.5642 C   0  0  0  0  0  0  0  0  0  0  0  0
   -1.7438    1.0097    2.5375 H   0  0  0  0  0  0  0  0  0  0  0  0
   -0.3292    1.6963    1.7298 H   0  0  0  0  0  0  0  0  0  0  0  0
   -2.2185    2.2014    0.8173 C   0  0  0  0  0  0  0  0  0  0  0  0
   -1.8012    2.4194   -0.1667 H   0  0  0  0  0  0  0  0  0  0  0  0
   -3.2032    1.7463    0.6940 H   0  0  0  0  0  0  0  0  0  0  0  0
   -2.3591    3.5108    1.6059 C   0  0  0  0  0  0  0  0  0  0  0  0
   -2.7633    3.2874    2.5961 H   0  0  0  0  0  0  0  0  0  0  0  0
   -1.3733    3.9664    1.7183 H   0  0  0  0  0  0  0  0  0  0  0  0
   -3.2966    4.4791    0.8736 C   0  0  0  0  0  0  0  0  0  0  0  0
   -2.8787    4.6839   -0.1174 H   0  0  0  0  0  0  0  0  0  0  0  0
   -4.2642    3.9876    0.7342 H   0  0  0  0  0  0  0  0  0  0  0  0
   -3.4695    5.7465    1.6274 N   0  3  0  0  0  0  0  0  0  0  0  0
   -2.5787    6.2113    1.7505 H   0  0  0  0  0  0  0  0  0  0  0  0
   -4.0905    6.3737    1.1315 H   0  0  0  0  0  0  0  0  0  0  0  0
   -3.8644    5.5632    2.5425 H   0  0  0  0  0  0  0  0  0  0  0  0
    0.0130   -0.9538    1.4536 C   0  0  0  0  0  0  0  0  0  0  0  0
    0.2320   -0.8600    2.6555 O   0  0  0  0  0  0  0  0  0  0  0  0
    0.7208   -1.7455    0.6412 N   0  0  0  0  0  0  0  0  0  0  0  0
    0.4523   -1.7850   -0.3281 H   0  0  0  0  0  0  0  0  0  0  0  0
    1.8072   -2.6185    1.0895 C   0  0  0  0  0  0  0  0  0  0  0  0
    1.4190   -3.3594    1.7917 H   0  0  0  0  0  0  0  0  0  0  0  0
    2.2554   -3.1357    0.2403 H   0  0  0  0  0  0  0  0  0  0  0  0
    2.5738   -2.0304    1.5987 H   0  0  0  0  0  0  0  0  0  0  0  0
  5  6  2  0  0  0  0
  5  7  1  0  0  0  0
  2  3  1  0  0  0  0
  2  4  1  0  0  0  0
  2  5  1  0  0  0  0
  1  2  1  0  0  0  0
 27 28  2  0  0  0  0
 27 29  1  0  0  0  0
 23 24  1  0  0  0  0
 23 25  1  0  0  0  0
 23 26  1  0  0  0  0
 20 21  1  0  0  0  0
 20 22  1  0  0  0  0
 20 23  1  0  0  0  0
 17 18  1  0  0  0  0
 17 19  1  0  0  0  0
 17 20  1  0  0  0  0
 14 15  1  0  0  0  0
 14 16  1  0  0  0  0
 14 17  1  0  0  0  0
 11 12  1  0  0  0  0
 11 13  1  0  0  0  0
 11 14  1  0  0  0  0
  9 10  1  0  0  0  0
  9 11  1  0  0  0  0
  9 27  1  0  0  0  0
  7  8  1  0  0  0  0
  7  9  1  0  0  0  0
 31 32  1  0  0  0  0
 31 33  1  0  0  0  0
 31 34  1  0  0  0  0
 29 30  1  0  0  0  0
 29 31  1  0  0  0  0
M  CHG  1  23   1
M  END
$$$$
default_name
  -OEChem-01062215323D

 34 33  0     1  0  0  0  0  0999 V2000
   -3.8899   -3.6747    1.6490 H   0  0  0  0  0  0  0  0  0  0  0  0
   -3.9109   -2.6717    1.2250 C   0  0  0  0  0  0  0  0  0  0  0  0
   -4.6009   -2.0517    1.7950 H   0  0  0  0  0  0  0  0  0  0  0  0
   -4.2309   -2.7237    0.1860 H   0  0  0  0  0  0  0  0  0  0  0  0
   -2.5229   -2.0787    1.2980 C   0  0  0  0  0  0  0  0  0  0  0  0
   -1.5999   -2.7227    1.7810 O   0  0  0  0  0  0  0  0  0  0  0  0
   -2.3659   -0.8447    0.8120 N   0  0  0  0  0  0  0  0  0  0  0  0
   -3.1749   -0.3807    0.4220 H   0  0  0  0  0  0  0  0  0  0  0  0
   -1.0919   -0.1077    0.8170 C   0  0  1  0  0  0  0  0  0  0  0  0
   -0.8170    0.1080   -0.2171 H   0  0  0  0  0  0  0  0  0  0  0  0
   -1.2991    1.2231    1.5642 C   0  0  0  0  0  0  0  0  0  0  0  0
   -1.7438    1.0097    2.5375 H   0  0  0  0  0  0  0  0  0  0  0  0
   -0.3292    1.6963    1.7298 H   0  0  0  0  0  0  0  0  0  0  0  0
   -2.2185    2.2014    0.8173 C   0  0  0  0  0  0  0  0  0  0  0  0
   -1.8012    2.4194   -0.1667 H   0  0  0  0  0  0  0  0  0  0  0  0
   -3.2032    1.7463    0.6940 H   0  0  0  0  0  0  0  0  0  0  0  0
   -2.3591    3.5108    1.6059 C   0  0  0  0  0  0  0  0  0  0  0  0
   -2.7633    3.2874    2.5961 H   0  0  0  0  0  0  0  0  0  0  0  0
   -1.3733    3.9664    1.7183 H   0  0  0  0  0  0  0  0  0  0  0  0
   -3.2966    4.4791    0.8736 C   0  0  0  0  0  0  0  0  0  0  0  0
   -2.8787    4.6839   -0.1174 H   0  0  0  0  0  0  0  0  0  0  0  0
   -4.2642    3.9876    0.7342 H   0  0  0  0  0  0  0  0  0  0  0  0
   -3.4695    5.7465    1.6274 N   0  3  0  0  0  0  0  0  0  0  0  0
   -2.5787    6.2113    1.7505 H   0  0  0  0  0  0  0  0  0  0  0  0
   -4.0905    6.3737    1.1315 H   0  0  0  0  0  0  0  0  0  0  0  0
   -3.8644    5.5632    2.5425 H   0  0  0  0  0  0  0  0  0  0  0  0
    0.0130   -0.9538    1.4536 C   0  0  0  0  0  0  0  0  0  0  0  0
    0.0574   -1.0756    2.6721 O   0  0  0  0  0  0  0  0  0  0  0  0
    0.9132   -1.5020    0.6309 N   0  0  0  0  0  0  0  0  0  0  0  0
    0.7826   -1.3771   -0.3593 H   0  0  0  0  0  0  0  0  0  0  0  0
    2.0282   -2.3395    1.0768 C   0  0  0  0  0  0  0  0  0  0  0  0
    1.6428   -3.2360    1.5671 H   0  0  0  0  0  0  0  0  0  0  0  0
    2.6446   -2.6370    0.2277 H   0  0  0  0  0  0  0  0  0  0  0  0
    2.6433   -1.7923    1.7945 H   0  0  0  0  0  0  0  0  0  0  0  0
  5  6  2  0  0  0  0
  5  7  1  0  0  0  0
  2  3  1  0  0  0  0
  2  4  1  0  0  0  0
  2  5  1  0  0  0  0
  1  2  1  0  0  0  0
 27 28  2  0  0  0  0
 27 29  1  0  0  0  0
 23 24  1  0  0  0  0
 23 25  1  0  0  0  0
 23 26  1  0  0  0  0
 20 21  1  0  0  0  0
 20 22  1  0  0  0  0
 20 23  1  0  0  0  0
 17 18  1  0  0  0  0
 17 19  1  0  0  0  0
 17 20  1  0  0  0  0
 14 15  1  0  0  0  0
 14 16  1  0  0  0  0
 14 17  1  0  0  0  0
 11 12  1  0  0  0  0
 11 13  1  0  0  0  0
 11 14  1  0  0  0  0
  9 10  1  0  0  0  0
  9 11  1  0  0  0  0
  9 27  1  0  0  0  0
  7  8  1  0  0  0  0
  7  9  1  0  0  0  0
 31 32  1  0  0  0  0
 31 33  1  0  0  0  0
 31 34  1  0  0  0  0
 29 30  1  0  0  0  0
 29 31  1  0  0  0  0
M  CHG  1  23   1
M  END
$$$$
default_name
  -OEChem-01062215323D

 34 33  0     1  0  0  0  0  0999 V2000
   -3.8899   -3.6747    1.6490 H   0  0  0  0  0  0  0  0  0  0  0  0
   -3.9109   -2.6717    1.2250 C   0  0  0  0  0  0  0  0  0  0  0  0
   -4.6009   -2.0517    1.7950 H   0  0  0  0  0  0  0  0  0  0  0  0
   -4.2309   -2.7237    0.1860 H   0  0  0  0  0  0  0  0  0  0  0  0
   -2.5229   -2.0787    1.2980 C   0  0  0  0  0  0  0  0  0  0  0  0
   -1.5999   -2.7227    1.7810 O   0  0  0  0  0  0  0  0  0  0  0  0
   -2.3659   -0.8447    0.8120 N   0  0  0  0  0  0  0  0  0  0  0  0
   -3.1749   -0.3807    0.4220 H   0  0  0  0  0  0  0  0  0  0  0  0
   -1.0919   -0.1077    0.8170 C   0  0  1  0  0  0  0  0  0  0  0  0
   -0.8170    0.1080   -0.2171 H   0  0  0  0  0  0  0  0  0  0  0  0
   -1.2991    1.2231    1.5642 C   0  0  0  0  0  0  0  0  0  0  0  0
   -1.7438    1.0097    2.5375 H   0  0  0  0  0  0  0  0  0  0  0  0
   -0.3292    1.6963    1.7298 H   0  0  0  0  0  0  0  0  0  0  0  0
   -2.2185    2.2014    0.8173 C   0  0  0  0  0  0  0  0  0  0  0  0
   -1.8012    2.4194   -0.1667 H   0  0  0  0  0  0  0  0  0  0  0  0
   -3.2032    1.7463    0.6940 H   0  0  0  0  0  0  0  0  0  0  0  0
   -2.3591    3.5108    1.6059 C   0  0  0  0  0  0  0  0  0  0  0  0
   -2.7633    3.2874    2.5961 H   0  0  0  0  0  0  0  0  0  0  0  0
   -1.3733    3.9664    1.7183 H   0  0  0  0  0  0  0  0  0  0  0  0
   -3.2966    4.4791    0.8736 C   0  0  0  0  0  0  0  0  0  0  0  0
   -2.8787    4.6839   -0.1174 H   0  0  0  0  0  0  0  0  0  0  0  0
   -4.2642    3.9876    0.7342 H   0  0  0  0  0  0  0  0  0  0  0  0
   -3.4695    5.7465    1.6274 N   0  3  0  0  0  0  0  0  0  0  0  0
   -2.5787    6.2113    1.7505 H   0  0  0  0  0  0  0  0  0  0  0  0
   -4.0905    6.3737    1.1315 H   0  0  0  0  0  0  0  0  0  0  0  0
   -3.8644    5.5632    2.5425 H   0  0  0  0  0  0  0  0  0  0  0  0
    0.0130   -0.9538    1.4536 C   0  0  0  0  0  0  0  0  0  0  0  0
   -0.0905   -1.3058    2.6227 O   0  0  0  0  0  0  0  0  0  0  0  0
    1.0743   -1.2442    0.6939 N   0  0  0  0  0  0  0  0  0  0  0  0
    1.0623   -0.9417   -0.2660 H   0  0  0  0  0  0  0  0  0  0  0  0
    2.2134   -2.0438    1.1483 C   0  0  0  0  0  0  0  0  0  0  0  0
    1.8779   -3.0508    1.4052 H   0  0  0  0  0  0  0  0  0  0  0  0
    2.9686   -2.1110    0.3644 H   0  0  0  0  0  0  0  0  0  0  0  0
    2.6568   -1.5915    2.0381 H   0  0  0  0  0  0  0  0  0  0  0  0
  5  6  2  0  0  0  0
  5  7  1  0  0  0  0
  2  3  1  0  0  0  0
  2  4  1  0  0  0  0
  2  5  1  0  0  0  0
  1  2  1  0  0  0  0
 27 28  2  0  0  0  0
 27 29  1  0  0  0  0
 23 24  1  0  0  0  0
 23 25  1  0  0  0  0
 23 26  1  0  0  0  0
 20 21  1  0  0  0  0
 20 22  1  0  0  0  0
 20 23  1  0  0  0  0
 17 18  1  0  0  0  0
 17 19  1  0  0  0  0
 17 20  1  0  0  0  0
 14 15  1  0  0  0  0
 14 16  1  0  0  0  0
 14 17  1  0  0  0  0
 11 12  1  0  0  0  0
 11 13  1  0  0  0  0
 11 14  1  0  0  0  0
  9 10  1  0  0  0  0
  9 11  1  0  0  0  0
  9 27  1  0  0  0  0
  7  8  1  0  0  0  0
  7  9  1  0  0  0  0
 31 32  1  0  0  0  0
 31 33  1  0  0  0  0
 31 34  1  0  0  0  0
 29 30  1  0  0  0  0
 29 31  1  0  0  0  0
M  CHG  1  23   1
M  END
$$$$
default_name
  -OEChem-01062215323D

 34 33  0     1  0  0  0  0  0999 V2000
   -3.8899   -3.6747    1.6490 H   0  0  0  0  0  0  0  0  0  0  0  0
   -3.9109   -2.6717    1.2250 C   0  0  0  0  0  0  0  0  0  0  0  0
   -4.6009   -2.0517    1.7950 H   0  0  0  0  0  0  0  0  0  0  0  0
   -4.2309   -2.7237    0.1860 H   0  0  0  0  0  0  0  0  0  0  0  0
   -2.5229   -2.0787    1.2980 C   0  0  0  0  0  0  0  0  0  0  0  0
   -1.5999   -2.7227    1.7810 O   0  0  0  0  0  0  0  0  0  0  0  0
   -2.3659   -0.8447    0.8120 N   0  0  0  0  0  0  0  0  0  0  0  0
   -3.1749   -0.3807    0.4220 H   0  0  0  0  0  0  0  0  0  0  0  0
   -1.0919   -0.1077    0.8170 C   0  0  1  0  0  0  0  0  0  0  0  0
   -0.8170    0.1080   -0.2171 H   0  0  0  0  0  0  0  0  0  0  0  0
   -1.2991    1.2231    1.5642 C   0  0  0  0  0  0  0  0  0  0  0  0
   -1.7438    1.0097    2.5375 H   0  0  0  0  0  0  0  0  0  0  0  0
   -0.3292    1.6963    1.7298 H   0  0  0  0  0  0  0  0  0  0  0  0
   -2.2185    2.2014    0.8173 C   0  0  0  0  0  0  0  0  0  0  0  0
   -1.8012    2.4194   -0.1667 H   0  0  0  0  0  0  0  0  0  0  0  0
   -3.2032    1.7463    0.6940 H   0  0  0  0  0  0  0  0  0  0  0  0
   -2.3591    3.5108    1.6059 C   0  0  0  0  0  0  0  0  0  0  0  0
   -2.7633    3.2874    2.5961 H   0  0  0  0  0  0  0  0  0  0  0  0
   -1.3733    3.9664    1.7183 H   0  0  0  0  0  0  0  0  0  0  0  0
   -3.2966    4.4791    0.8736 C   0  0  0  0  0  0  0  0  0  0  0  0
   -2.8787    4.6839   -0.1174 H   0  0  0  0  0  0  0  0  0  0  0  0
   -4.2642    3.9876    0.7342 H   0  0  0  0  0  0  0  0  0  0  0  0
   -3.4695    5.7465    1.6274 N   0  3  0  0  0  0  0  0  0  0  0  0
   -2.5787    6.2113    1.7505 H   0  0  0  0  0  0  0  0  0  0  0  0
   -4.0905    6.3737    1.1315 H   0  0  0  0  0  0  0  0  0  0  0  0
   -3.8644    5.5632    2.5425 H   0  0  0  0  0  0  0  0  0  0  0  0
    0.0130   -0.9538    1.4536 C   0  0  0  0  0  0  0  0  0  0  0  0
   -0.2014   -1.5349    2.5109 O   0  0  0  0  0  0  0  0  0  0  0  0
    1.1931   -0.9896    0.8261 N   0  0  0  0  0  0  0  0  0  0  0  0
    1.2722   -0.5085   -0.0545 H   0  0  0  0  0  0  0  0  0  0  0  0
    2.3503   -1.7516    1.2992 C   0  0  0  0  0  0  0  0  0  0  0  0
    2.1082   -2.8164    1.3171 H   0  0  0  0  0  0  0  0  0  0  0  0
    3.2054   -1.5935    0.6411 H   0  0  0  0  0  0  0  0  0  0  0  0
    2.6134   -1.4415    2.3128 H   0  0  0  0  0  0  0  0  0  0  0  0
  5  6  2  0  0  0  0
  5  7  1  0  0  0  0
  2  3  1  0  0  0  0
  2  4  1  0  0  0  0
  2  5  1  0  0  0  0
  1  2  1  0  0  0  0
 27 28  2  0  0  0  0
 27 29  1  0  0  0  0
 23 24  1  0  0  0  0
 23 25  1  0  0  0  0
 23 26  1  0  0  0  0
 20 21  1  0  0  0  0
 20 22  1  0  0  0  0
 20 23  1  0  0  0  0
 17 18  1  0  0  0  0
 17 19  1  0  0  0  0
 17 20  1  0  0  0  0
 14 15  1  0  0  0  0
 14 16  1  0  0  0  0
 14 17  1  0  0  0  0
 11 12  1  0  0  0  0
 11 13  1  0  0  0  0
 11 14  1  0  0  0  0
  9 10  1  0  0  0  0
  9 11  1  0  0  0  0
  9 27  1  0  0  0  0
  7  8  1  0  0  0  0
  7  9  1  0  0  0  0
 31 32  1  0  0  0  0
 31 33  1  0  0  0  0
 31 34  1  0  0  0  0
 29 30  1  0  0  0  0
 29 31  1  0  0  0  0
M  CHG  1  23   1
M  END
$$$$
default_name
  -OEChem-01062215323D

 34 33  0     1  0  0  0  0  0999 V2000
   -3.8899   -3.6747    1.6490 H   0  0  0  0  0  0  0  0  0  0  0  0
   -3.9109   -2.6717    1.2250 C   0  0  0  0  0  0  0  0  0  0  0  0
   -4.6009   -2.0517    1.7950 H   0  0  0  0  0  0  0  0  0  0  0  0
   -4.2309   -2.7237    0.1860 H   0  0  0  0  0  0  0  0  0  0  0  0
   -2.5229   -2.0787    1.2980 C   0  0  0  0  0  0  0  0  0  0  0  0
   -1.5999   -2.7227    1.7810 O   0  0  0  0  0  0  0  0  0  0  0  0
   -2.3659   -0.8447    0.8120 N   0  0  0  0  0  0  0  0  0  0  0  0
   -3.1749   -0.3807    0.4220 H   0  0  0  0  0  0  0  0  0  0  0  0
   -1.0919   -0.1077    0.8170 C   0  0  1  0  0  0  0  0  0  0  0  0
   -0.8170    0.1080   -0.2171 H   0  0  0  0  0  0  0  0  0  0  0  0
   -1.2991    1.2231    1.5642 C   0  0  0  0  0  0  0  0  0  0  0  0
   -1.7438    1.0097    2.5375 H   0  0  0  0  0  0  0  0  0  0  0  0
   -0.3292    1.6963    1.7298 H   0  0  0  0  0  0  0  0  0  0  0  0
   -2.2185    2.2014    0.8173 C   0  0  0  0  0  0  0  0  0  0  0  0
   -1.8012    2.4194   -0.1667 H   0  0  0  0  0  0  0  0  0  0  0  0
   -3.2032    1.7463    0.6940 H   0  0  0  0  0  0  0  0  0  0  0  0
   -2.3591    3.5108    1.6059 C   0  0  0  0  0  0  0  0  0  0  0  0
   -2.7633    3.2874    2.5961 H   0  0  0  0  0  0  0  0  0  0  0  0
   -1.3733    3.9664    1.7183 H   0  0  0  0  0  0  0  0  0  0  0  0
   -3.2966    4.4791    0.8736 C   0  0  0  0  0  0  0  0  0  0  0  0
   -2.8787    4.6839   -0.1174 H   0  0  0  0  0  0  0  0  0  0  0  0
   -4.2642    3.9876    0.7342 H   0  0  0  0  0  0  0  0  0  0  0  0
   -3.4695    5.7465    1.6274 N   0  3  0  0  0  0  0  0  0  0  0  0
   -2.5787    6.2113    1.7505 H   0  0  0  0  0  0  0  0  0  0  0  0
   -4.0905    6.3737    1.1315 H   0  0  0  0  0  0  0  0  0  0  0  0
   -3.8644    5.5632    2.5425 H   0  0  0  0  0  0  0  0  0  0  0  0
    0.0130   -0.9538    1.4536 C   0  0  0  0  0  0  0  0  0  0  0  0
   -0.2680   -1.7472    2.3442 O   0  0  0  0  0  0  0  0  0  0  0  0
    1.2616   -0.7556    1.0183 N   0  0  0  0  0  0  0  0  0  0  0  0
    1.3980   -0.1070    0.2608 H   0  0  0  0  0  0  0  0  0  0  0  0
    2.4294   -1.4828    1.5191 C   0  0  0  0  0  0  0  0  0  0  0  0
    2.3180   -2.5487    1.3088 H   0  0  0  0  0  0  0  0  0  0  0  0
    3.3389   -1.1199    1.0390 H   0  0  0  0  0  0  0  0  0  0  0  0
    2.5159   -1.3527    2.6000 H   0  0  0  0  0  0  0  0  0  0  0  0
  5  6  2  0  0  0  0
  5  7  1  0  0  0  0
  2  3  1  0  0  0  0
  2  4  1  0  0  0  0
  2  5  1  0  0  0  0
  1  2  1  0  0  0  0
 27 28  2  0  0  0  0
 27 29  1  0  0  0  0
 23 24  1  0  0  0  0
 23 25  1  0  0  0  0
 23 26  1  0  0  0  0
 20 21  1  0  0  0  0
 20 22  1  0  0  0  0
 20 23  1  0  0  0  0
 17 18  1  0  0  0  0
 17 19  1  0  0  0  0
 17 20  1  0  0  0  0
 14 15  1  0  0  0  0
 14 16  1  0  0  0  0
 14 17  1  0  0  0  0
 11 12  1  0  0  0  0
 11 13  1  0  0  0  0
 11 14  1  0  0  0  0
  9 10  1  0  0  0  0
  9 11  1  0  0  0  0
  9 27  1  0  0  0  0
  7  8  1  0  0  0  0
  7  9  1  0  0  0  0
 31 32  1  0  0  0  0
 31 33  1  0  0  0  0
 31 34  1  0  0  0  0
 29 30  1  0  0  0  0
 29 31  1  0  0  0  0
M  CHG  1  23   1
M  END
$$$$
default_name
  -OEChem-01062215323D

 34 33  0     1  0  0  0  0  0999 V2000
   -3.8899   -3.6747    1.6490 H   0  0  0  0  0  0  0  0  0  0  0  0
   -3.9109   -2.6717    1.2250 C   0  0  0  0  0  0  0  0  0  0  0  0
   -4.6009   -2.0517    1.7950 H   0  0  0  0  0  0  0  0  0  0  0  0
   -4.2309   -2.7237    0.1860 H   0  0  0  0  0  0  0  0  0  0  0  0
   -2.5229   -2.0787    1.2980 C   0  0  0  0  0  0  0  0  0  0  0  0
   -1.5999   -2.7227    1.7810 O   0  0  0  0  0  0  0  0  0  0  0  0
   -2.3659   -0.8447    0.8120 N   0  0  0  0  0  0  0  0  0  0  0  0
   -3.1749   -0.3807    0.4220 H   0  0  0  0  0  0  0  0  0  0  0  0
   -1.0919   -0.1077    0.8170 C   0  0  1  0  0  0  0  0  0  0  0  0
   -0.8170    0.1080   -0.2171 H   0  0  0  0  0  0  0  0  0  0  0  0
   -1.2991    1.2231    1.5642 C   0  0  0  0  0  0  0  0  0  0  0  0
   -1.7438    1.0097    2.5375 H   0  0  0  0  0  0  0  0  0  0  0  0
   -0.3292    1.6963    1.7298 H   0  0  0  0  0  0  0  0  0  0  0  0
   -2.2185    2.2014    0.8173 C   0  0  0  0  0  0  0  0  0  0  0  0
   -1.8012    2.4194   -0.1667 H   0  0  0  0  0  0  0  0  0  0  0  0
   -3.2032    1.7463    0.6940 H   0  0  0  0  0  0  0  0  0  0  0  0
   -2.3591    3.5108    1.6059 C   0  0  0  0  0  0  0  0  0  0  0  0
   -2.7633    3.2874    2.5961 H   0  0  0  0  0  0  0  0  0  0  0  0
   -1.3733    3.9664    1.7183 H   0  0  0  0  0  0  0  0  0  0  0  0
   -3.2966    4.4791    0.8736 C   0  0  0  0  0  0  0  0  0  0  0  0
   -2.8787    4.6839   -0.1174 H   0  0  0  0  0  0  0  0  0  0  0  0
   -4.2642    3.9876    0.7342 H   0  0  0  0  0  0  0  0  0  0  0  0
   -3.4695    5.7465    1.6274 N   0  3  0  0  0  0  0  0  0  0  0  0
   -2.5787    6.2113    1.7505 H   0  0  0  0  0  0  0  0  0  0  0  0
   -4.0905    6.3737    1.1315 H   0  0  0  0  0  0  0  0  0  0  0  0
   -3.8644    5.5632    2.5425 H   0  0  0  0  0  0  0  0  0  0  0  0
    0.0130   -0.9538    1.4536 C   0  0  0  0  0  0  0  0  0  0  0  0
   -0.2855   -1.9282    2.1340 O   0  0  0  0  0  0  0  0  0  0  0  0
    1.2750   -0.5581    1.2575 N   0  0  0  0  0  0  0  0  0  0  0  0
    1.4312    0.2355    0.6584 H   0  0  0  0  0  0  0  0  0  0  0  0
    2.4454   -1.2558    1.7930 C   0  0  0  0  0  0  0  0  0  0  0  0
    2.4931   -2.2660    1.3807 H   0  0  0  0  0  0  0  0  0  0  0  0
    3.3598   -0.7224    1.5309 H   0  0  0  0  0  0  0  0  0  0  0  0
    2.3711   -1.3311    2.8801 H   0  0  0  0  0  0  0  0  0  0  0  0
  5  6  2  0  0  0  0
  5  7  1  0  0  0  0
  2  3  1  0  0  0  0
  2  4  1  0  0  0  0
  2  5  1  0  0  0  0
  1  2  1  0  0  0  0
 27 28  2  0  0  0  0
 27 29  1  0  0  0  0
 23 24  1  0  0  0  0
 23 25  1  0  0  0  0
 23 26  1  0  0  0  0
 20 21  1  0  0  0  0
 20 22  1  0  0  0  0
 20 23  1  0  0  0  0
 17 18  1  0  0  0  0
 17 19  1  0  0  0  0
 17 20  1  0  0  0  0
 14 15  1  0  0  0  0
 14 16  1  0  0  0  0
 14 17  1  0  0  0  0
 11 12  1  0  0  0  0
 11 13  1  0  0  0  0
 11 14  1  0  0  0  0
  9 10  1  0  0  0  0
  9 11  1  0  0  0  0
  9 27  1  0  0  0  0
  7  8  1  0  0  0  0
  7  9  1  0  0  0  0
 31 32  1  0  0  0  0
 31 33  1  0  0  0  0
 31 34  1  0  0  0  0
 29 30  1  0  0  0  0
 29 31  1  0  0  0  0
M  CHG  1  23   1
M  END
$$$$
default_name
  -OEChem-01062215323D

 34 33  0     1  0  0  0  0  0999 V2000
   -3.8899   -3.6747    1.6490 H   0  0  0  0  0  0  0  0  0  0  0  0
   -3.9109   -2.6717    1.2250 C   0  0  0  0  0  0  0  0  0  0  0  0
   -4.6009   -2.0517    1.7950 H   0  0  0  0  0  0  0  0  0  0  0  0
   -4.2309   -2.7237    0.1860 H   0  0  0  0  0  0  0  0  0  0  0  0
   -2.5229   -2.0787    1.2980 C   0  0  0  0  0  0  0  0  0  0  0  0
   -1.5999   -2.7227    1.7810 O   0  0  0  0  0  0  0  0  0  0  0  0
   -2.3659   -0.8447    0.8120 N   0  0  0  0  0  0  0  0  0  0  0  0
   -3.1749   -0.3807    0.4220 H   0  0  0  0  0  0  0  0  0  0  0  0
   -1.0919   -0.1077    0.8170 C   0  0  1  0  0  0  0  0  0  0  0  0
   -0.9505    0.3384   -0.1692 H   0  0  0  0  0  0  0  0  0  0  0  0
   -1.1819    1.0185    1.8638 C   0  0  0  0  0  0  0  0  0  0  0  0
   -1.4995    0.5856    2.8137 H   0  0  0  0  0  0  0  0  0  0  0  0
   -0.1923    1.4577    2.0042 H   0  0  0  0  0  0  0  0  0  0  0  0
   -2.1768    2.1248    1.4807 C   0  0  0  0  0  0  0  0  0  0  0  0
   -1.8876    2.5641    0.5250 H   0  0  0  0  0  0  0  0  0  0  0  0
   -3.1754    1.6935    1.3871 H   0  0  0  0  0  0  0  0  0  0  0  0
   -2.1957    3.2219    2.5540 C   0  0  0  0  0  0  0  0  0  0  0  0
   -2.4711    2.7761    3.5127 H   0  0  0  0  0  0  0  0  0  0  0  0
   -1.1974    3.6561    2.6370 H   0  0  0  0  0  0  0  0  0  0  0  0
   -3.2067    4.3148    2.1850 C   0  0  0  0  0  0  0  0  0  0  0  0
   -2.9181    4.7429    1.2195 H   0  0  0  0  0  0  0  0  0  0  0  0
   -4.1909    3.8519    2.0656 H   0  0  0  0  0  0  0  0  0  0  0  0
   -3.2628    5.3783    3.2196 N   0  3  0  0  0  0  0  0  0  0  0  0
   -2.3571    5.8176    3.3272 H   0  0  0  0  0  0  0  0  0  0  0  0
   -3.9340    6.0909    2.9615 H   0  0  0  0  0  0  0  0  0  0  0  0
   -3.5381    4.9885    4.1135 H   0  0  0  0  0  0  0  0  0  0  0  0
    0.0744   -1.0575    1.0992 C   0  0  0  0  0  0  0  0  0  0  0  0
   -0.1475   -2.2440    1.3105 O   0  0  0  0  0  0  0  0  0  0  0  0
    1.3005   -0.5256    1.1343 N   0  0  0  0  0  0  0  0  0  0  0  0
    1.3950    0.4528    0.9176 H   0  0  0  0  0  0  0  0  0  0  0  0
    2.5206   -1.2943    1.3875 C   0  0  0  0  0  0  0  0  0  0  0  0
    2.6558   -2.0407    0.6018 H   0  0  0  0  0  0  0  0  0  0  0  0
    3.3895   -0.6354    1.4039 H   0  0  0  0  0  0  0  0  0  0  0  0
    2.4437   -1.8133    2.3454 H   0  0  0  0  0  0  0  0  0  0  0  0
  5  6  2  0  0  0  0
  5  7  1  0  0  0  0
  2  3  1  0  0  0  0
  2  4  1  0  0  0  0
  2  5  1  0  0  0  0
  1  2  1  0  0  0  0
 27 28  2  0  0  0  0
 27 29  1  0  0  0  0
 23 24  1  0  0  0  0
 23 25  1  0  0  0  0
 23 26  1  0  0  0  0
 20 21  1  0  0  0  0
 20 22  1  0  0  0  0
 20 23  1  0  0  0  0
 17 18  1  0  0  0  0
 17 19  1  0  0  0  0
 17 20  1  0  0  0  0
 14 15  1  0  0  0  0
 14 16  1  0  0  0  0
 14 17  1  0  0  0  0
 11 12  1  0  0  0  0
 11 13  1  0  0  0  0
 11 14  1  0  0  0  0
  9 10  1  0  0  0  0
  9 11  1  0  0  0  0
  9 27  1  0  0  0  0
  7  8  1  0  0  0  0
  7  9  1  0  0  0  0
 31 32  1  0  0  0  0
 31 33  1  0  0  0  0
 31 34  1  0  0  0  0
 29 30  1  0  0  0  0
 29 31  1  0  0  0  0
M  CHG  1  23   1
M  END
$$$$
default_name
  -OEChem-01062215323D

 34 33  0     1  0  0  0  0  0999 V2000
   -3.8899   -3.6747    1.6490 H   0  0  0  0  0  0  0  0  0  0  0  0
   -3.9109   -2.6717    1.2250 C   0  0  0  0  0  0  0  0  0  0  0  0
   -4.6009   -2.0517    1.7950 H   0  0  0  0  0  0  0  0  0  0  0  0
   -4.2309   -2.7237    0.1860 H   0  0  0  0  0  0  0  0  0  0  0  0
   -2.5229   -2.0787    1.2980 C   0  0  0  0  0  0  0  0  0  0  0  0
   -1.5999   -2.7227    1.7810 O   0  0  0  0  0  0  0  0  0  0  0  0
   -2.3659   -0.8447    0.8120 N   0  0  0  0  0  0  0  0  0  0  0  0
   -3.1749   -0.3807    0.4220 H   0  0  0  0  0  0  0  0  0  0  0  0
   -1.0919   -0.1077    0.8170 C   0  0  1  0  0  0  0  0  0  0  0  0
   -0.9505    0.3384   -0.1692 H   0  0  0  0  0  0  0  0  0  0  0  0
   -1.1819    1.0185    1.8638 C   0  0  0  0  0  0  0  0  0  0  0  0
   -1.4995    0.5856    2.8137 H   0  0  0  0  0  0  0  0  0  0  0  0
   -0.1923    1.4577    2.0042 H   0  0  0  0  0  0  0  0  0  0  0  0
   -2.1768    2.1248    1.4807 C   0  0  0  0  0  0  0  0  0  0  0  0
   -1.8876    2.5641    0.5250 H   0  0  0  0  0  0  0  0  0  0  0  0
   -3.1754    1.6935    1.3871 H   0  0  0  0  0  0  0  0  0  0  0  0
   -2.1957    3.2219    2.5540 C   0  0  0  0  0  0  0  0  0  0  0  0
   -2.4711    2.7761    3.5127 H   0  0  0  0  0  0  0  0  0  0  0  0
   -1.1974    3.6561    2.6370 H   0  0  0  0  0  0  0  0  0  0  0  0
   -3.2067    4.3148    2.1850 C   0  0  0  0  0  0  0  0  0  0  0  0
   -2.9181    4.7429    1.2195 H   0  0  0  0  0  0  0  0  0  0  0  0
   -4.1909    3.8519    2.0656 H   0  0  0  0  0  0  0  0  0  0  0  0
   -3.2628    5.3783    3.2196 N   0  3  0  0  0  0  0  0  0  0  0  0
   -2.3571    5.8176    3.3272 H   0  0  0  0  0  0  0  0  0  0  0  0
   -3.9340    6.0909    2.9615 H   0  0  0  0  0  0  0  0  0  0  0  0
   -3.5381    4.9885    4.1135 H   0  0  0  0  0  0  0  0  0  0  0  0
    0.0744   -1.0575    1.0992 C   0  0  0  0  0  0  0  0  0  0  0  0
   -0.1015   -2.2686    1.0374 O   0  0  0  0  0  0  0  0  0  0  0  0
    1.2436   -0.5050    1.4388 N   0  0  0  0  0  0  0  0  0  0  0  0
    1.3080    0.4994    1.4340 H   0  0  0  0  0  0  0  0  0  0  0  0
    2.4558   -1.2700    1.7369 C   0  0  0  0  0  0  0  0  0  0  0  0
    2.7592   -1.8384    0.8551 H   0  0  0  0  0  0  0  0  0  0  0  0
    3.2677   -0.6007    2.0239 H   0  0  0  0  0  0  0  0  0  0  0  0
    2.2639   -1.9732    2.5502 H   0  0  0  0  0  0  0  0  0  0  0  0
  5  6  2  0  0  0  0
  5  7  1  0  0  0  0
  2  3  1  0  0  0  0
  2  4  1  0  0  0  0
  2  5  1  0  0  0  0
  1  2  1  0  0  0  0
 27 28  2  0  0  0  0
 27 29  1  0  0  0  0
 23 24  1  0  0  0  0
 23 25  1  0  0  0  0
 23 26  1  0  0  0  0
 20 21  1  0  0  0  0
 20 22  1  0  0  0  0
 20 23  1  0  0  0  0
 17 18  1  0  0  0  0
 17 19  1  0  0  0  0
 17 20  1  0  0  0  0
 14 15  1  0  0  0  0
 14 16  1  0  0  0  0
 14 17  1  0  0  0  0
 11 12  1  0  0  0  0
 11 13  1  0  0  0  0
 11 14  1  0  0  0  0
  9 10  1  0  0  0  0
  9 11  1  0  0  0  0
  9 27  1  0  0  0  0
  7  8  1  0  0  0  0
  7  9  1  0  0  0  0
 31 32  1  0  0  0  0
 31 33  1  0  0  0  0
 31 34  1  0  0  0  0
 29 30  1  0  0  0  0
 29 31  1  0  0  0  0
M  CHG  1  23   1
M  END
$$$$
default_name
  -OEChem-01062215323D

 34 33  0     1  0  0  0  0  0999 V2000
   -3.8899   -3.6747    1.6490 H   0  0  0  0  0  0  0  0  0  0  0  0
   -3.9109   -2.6717    1.2250 C   0  0  0  0  0  0  0  0  0  0  0  0
   -4.6009   -2.0517    1.7950 H   0  0  0  0  0  0  0  0  0  0  0  0
   -4.2309   -2.7237    0.1860 H   0  0  0  0  0  0  0  0  0  0  0  0
   -2.5229   -2.0787    1.2980 C   0  0  0  0  0  0  0  0  0  0  0  0
   -1.5999   -2.7227    1.7810 O   0  0  0  0  0  0  0  0  0  0  0  0
   -2.3659   -0.8447    0.8120 N   0  0  0  0  0  0  0  0  0  0  0  0
   -3.1749   -0.3807    0.4220 H   0  0  0  0  0  0  0  0  0  0  0  0
   -1.0919   -0.1077    0.8170 C   0  0  1  0  0  0  0  0  0  0  0  0
   -0.9505    0.3384   -0.1692 H   0  0  0  0  0  0  0  0  0  0  0  0
   -1.1819    1.0185    1.8638 C   0  0  0  0  0  0  0  0  0  0  0  0
   -1.4995    0.5856    2.8137 H   0  0  0  0  0  0  0  0  0  0  0  0
   -0.1923    1.4577    2.0042 H   0  0  0  0  0  0  0  0  0  0  0  0
   -2.1768    2.1248    1.4807 C   0  0  0  0  0  0  0  0  0  0  0  0
   -1.8876    2.5641    0.5250 H   0  0  0  0  0  0  0  0  0  0  0  0
   -3.1754    1.6935    1.3871 H   0  0  0  0  0  0  0  0  0  0  0  0
   -2.1957    3.2219    2.5540 C   0  0  0  0  0  0  0  0  0  0  0  0
   -2.4711    2.7761    3.5127 H   0  0  0  0  0  0  0  0  0  0  0  0
   -1.1974    3.6561    2.6370 H   0  0  0  0  0  0  0  0  0  0  0  0
   -3.2067    4.3148    2.1850 C   0  0  0  0  0  0  0  0  0  0  0  0
   -2.9181    4.7429    1.2195 H   0  0  0  0  0  0  0  0  0  0  0  0
   -4.1909    3.8519    2.0656 H   0  0  0  0  0  0  0  0  0  0  0  0
   -3.2628    5.3783    3.2196 N   0  3  0  0  0  0  0  0  0  0  0  0
   -2.3571    5.8176    3.3272 H   0  0  0  0  0  0  0  0  0  0  0  0
   -3.9340    6.0909    2.9615 H   0  0  0  0  0  0  0  0  0  0  0  0
   -3.5381    4.9885    4.1135 H   0  0  0  0  0  0  0  0  0  0  0  0
    0.0744   -1.0575    1.0992 C   0  0  0  0  0  0  0  0  0  0  0  0
   -0.0120   -2.2364    0.7762 O   0  0  0  0  0  0  0  0  0  0  0  0
    1.1387   -0.5480    1.7279 N   0  0  0  0  0  0  0  0  0  0  0  0
    1.1388    0.4385    1.9281 H   0  0  0  0  0  0  0  0  0  0  0  0
    2.3360   -1.3185    2.0688 C   0  0  0  0  0  0  0  0  0  0  0  0
    2.8088   -1.6881    1.1563 H   0  0  0  0  0  0  0  0  0  0  0  0
    3.0488   -0.6954    2.6100 H   0  0  0  0  0  0  0  0  0  0  0  0
    2.0649   -2.1767    2.6876 H   0  0  0  0  0  0  0  0  0  0  0  0
  5  6  2  0  0  0  0
  5  7  1  0  0  0  0
  2  3  1  0  0  0  0
  2  4  1  0  0  0  0
  2  5  1  0  0  0  0
  1  2  1  0  0  0  0
 27 28  2  0  0  0  0
 27 29  1  0  0  0  0
 23 24  1  0  0  0  0
 23 25  1  0  0  0  0
 23 26  1  0  0  0  0
 20 21  1  0  0  0  0
 20 22  1  0  0  0  0
 20 23  1  0  0  0  0
 17 18  1  0  0  0  0
 17 19  1  0  0  0  0
 17 20  1  0  0  0  0
 14 15  1  0  0  0  0
 14 16  1  0  0  0  0
 14 17  1  0  0  0  0
 11 12  1  0  0  0  0
 11 13  1  0  0  0  0
 11 14  1  0  0  0  0
  9 10  1  0  0  0  0
  9 11  1  0  0  0  0
  9 27  1  0  0  0  0
  7  8  1  0  0  0  0
  7  9  1  0  0  0  0
 31 32  1  0  0  0  0
 31 33  1  0  0  0  0
 31 34  1  0  0  0  0
 29 30  1  0  0  0  0
 29 31  1  0  0  0  0
M  CHG  1  23   1
M  END
$$$$
default_name
  -OEChem-01062215323D

 34 33  0     1  0  0  0  0  0999 V2000
   -3.8899   -3.6747    1.6490 H   0  0  0  0  0  0  0  0  0  0  0  0
   -3.9109   -2.6717    1.2250 C   0  0  0  0  0  0  0  0  0  0  0  0
   -4.6009   -2.0517    1.7950 H   0  0  0  0  0  0  0  0  0  0  0  0
   -4.2309   -2.7237    0.1860 H   0  0  0  0  0  0  0  0  0  0  0  0
   -2.5229   -2.0787    1.2980 C   0  0  0  0  0  0  0  0  0  0  0  0
   -1.5999   -2.7227    1.7810 O   0  0  0  0  0  0  0  0  0  0  0  0
   -2.3659   -0.8447    0.8120 N   0  0  0  0  0  0  0  0  0  0  0  0
   -3.1749   -0.3807    0.4220 H   0  0  0  0  0  0  0  0  0  0  0  0
   -1.0919   -0.1077    0.8170 C   0  0  1  0  0  0  0  0  0  0  0  0
   -0.9505    0.3384   -0.1692 H   0  0  0  0  0  0  0  0  0  0  0  0
   -1.1819    1.0185    1.8638 C   0  0  0  0  0  0  0  0  0  0  0  0
   -1.4995    0.5856    2.8137 H   0  0  0  0  0  0  0  0  0  0  0  0
   -0.1923    1.4577    2.0042 H   0  0  0  0  0  0  0  0  0  0  0  0
   -2.1768    2.1248    1.4807 C   0  0  0  0  0  0  0  0  0  0  0  0
   -1.8876    2.5641    0.5250 H   0  0  0  0  0  0  0  0  0  0  0  0
   -3.1754    1.6935    1.3871 H   0  0  0  0  0  0  0  0  0  0  0  0
   -2.1957    3.2219    2.5540 C   0  0  0  0  0  0  0  0  0  0  0  0
   -2.4711    2.7761    3.5127 H   0  0  0  0  0  0  0  0  0  0  0  0
   -1.1974    3.6561    2.6370 H   0  0  0  0  0  0  0  0  0  0  0  0
   -3.2067    4.3148    2.1850 C   0  0  0  0  0  0  0  0  0  0  0  0
   -2.9181    4.7429    1.2195 H   0  0  0  0  0  0  0  0  0  0  0  0
   -4.1909    3.8519    2.0656 H   0  0  0  0  0  0  0  0  0  0  0  0
   -3.2628    5.3783    3.2196 N   0  3  0  0  0  0  0  0  0  0  0  0
   -2.3571    5.8176    3.3272 H   0  0  0  0  0  0  0  0  0  0  0  0
   -3.9340    6.0909    2.9615 H   0  0  0  0  0  0  0  0  0  0  0  0
   -3.5381    4.9885    4.1135 H   0  0  0  0  0  0  0  0  0  0  0  0
    0.0744   -1.0575    1.0992 C   0  0  0  0  0  0  0  0  0  0  0  0
    0.1148   -2.1495    0.5446 O   0  0  0  0  0  0  0  0  0  0  0  0
    0.9930   -0.6515    1.9818 N   0  0  0  0  0  0  0  0  0  0  0  0
    0.8989    0.2740    2.3661 H   0  0  0  0  0  0  0  0  0  0  0  0
    2.1692   -1.4366    2.3605 C   0  0  0  0  0  0  0  0  0  0  0  0
    2.8011   -1.5999    1.4848 H   0  0  0  0  0  0  0  0  0  0  0  0
    2.7477   -0.9128    3.1223 H   0  0  0  0  0  0  0  0  0  0  0  0
    1.8604   -2.4098    2.7482 H   0  0  0  0  0  0  0  0  0  0  0  0
  5  6  2  0  0  0  0
  5  7  1  0  0  0  0
  2  3  1  0  0  0  0
  2  4  1  0  0  0  0
  2  5  1  0  0  0  0
  1  2  1  0  0  0  0
 27 28  2  0  0  0  0
 27 29  1  0  0  0  0
 23 24  1  0  0  0  0
 23 25  1  0  0  0  0
 23 26  1  0  0  0  0
 20 21  1  0  0  0  0
 20 22  1  0  0  0  0
 20 23  1  0  0  0  0
 17 18  1  0  0  0  0
 17 19  1  0  0  0  0
 17 20  1  0  0  0  0
 14 15  1  0  0  0  0
 14 16  1  0  0  0  0
 14 17  1  0  0  0  0
 11 12  1  0  0  0  0
 11 13  1  0  0  0  0
 11 14  1  0  0  0  0
  9 10  1  0  0  0  0
  9 11  1  0  0  0  0
  9 27  1  0  0  0  0
  7  8  1  0  0  0  0
  7  9  1  0  0  0  0
 31 32  1  0  0  0  0
 31 33  1  0  0  0  0
 31 34  1  0  0  0  0
 29 30  1  0  0  0  0
 29 31  1  0  0  0  0
M  CHG  1  23   1
M  END
$$$$
default_name
  -OEChem-01062215323D

 34 33  0     1  0  0  0  0  0999 V2000
   -3.8899   -3.6747    1.6490 H   0  0  0  0  0  0  0  0  0  0  0  0
   -3.9109   -2.6717    1.2250 C   0  0  0  0  0  0  0  0  0  0  0  0
   -4.6009   -2.0517    1.7950 H   0  0  0  0  0  0  0  0  0  0  0  0
   -4.2309   -2.7237    0.1860 H   0  0  0  0  0  0  0  0  0  0  0  0
   -2.5229   -2.0787    1.2980 C   0  0  0  0  0  0  0  0  0  0  0  0
   -1.5999   -2.7227    1.7810 O   0  0  0  0  0  0  0  0  0  0  0  0
   -2.3659   -0.8447    0.8120 N   0  0  0  0  0  0  0  0  0  0  0  0
   -3.1749   -0.3807    0.4220 H   0  0  0  0  0  0  0  0  0  0  0  0
   -1.0919   -0.1077    0.8170 C   0  0  1  0  0  0  0  0  0  0  0  0
   -0.9505    0.3384   -0.1692 H   0  0  0  0  0  0  0  0  0  0  0  0
   -1.1819    1.0185    1.8638 C   0  0  0  0  0  0  0  0  0  0  0  0
   -1.4995    0.5856    2.8137 H   0  0  0  0  0  0  0  0  0  0  0  0
   -0.1923    1.4577    2.0042 H   0  0  0  0  0  0  0  0  0  0  0  0
   -2.1768    2.1248    1.4807 C   0  0  0  0  0  0  0  0  0  0  0  0
   -1.8876    2.5641    0.5250 H   0  0  0  0  0  0  0  0  0  0  0  0
   -3.1754    1.6935    1.3871 H   0  0  0  0  0  0  0  0  0  0  0  0
   -2.1957    3.2219    2.5540 C   0  0  0  0  0  0  0  0  0  0  0  0
   -2.4711    2.7761    3.5127 H   0  0  0  0  0  0  0  0  0  0  0  0
   -1.1974    3.6561    2.6370 H   0  0  0  0  0  0  0  0  0  0  0  0
   -3.2067    4.3148    2.1850 C   0  0  0  0  0  0  0  0  0  0  0  0
   -2.9181    4.7429    1.2195 H   0  0  0  0  0  0  0  0  0  0  0  0
   -4.1909    3.8519    2.0656 H   0  0  0  0  0  0  0  0  0  0  0  0
   -3.2628    5.3783    3.2196 N   0  3  0  0  0  0  0  0  0  0  0  0
   -2.3571    5.8176    3.3272 H   0  0  0  0  0  0  0  0  0  0  0  0
   -3.9340    6.0909    2.9615 H   0  0  0  0  0  0  0  0  0  0  0  0
   -3.5381    4.9885    4.1135 H   0  0  0  0  0  0  0  0  0  0  0  0
    0.0744   -1.0575    1.0992 C   0  0  0  0  0  0  0  0  0  0  0  0
    0.2704   -2.0138    0.3584 O   0  0  0  0  0  0  0  0  0  0  0  0
    0.8164   -0.8085    2.1832 N   0  0  0  0  0  0  0  0  0  0  0  0
    0.6046    0.0174    2.7183 H   0  0  0  0  0  0  0  0  0  0  0  0
    1.9669   -1.6162    2.5922 C   0  0  0  0  0  0  0  0  0  0  0  0
    2.7366   -1.5800    1.8183 H   0  0  0  0  0  0  0  0  0  0  0  0
    2.3850   -1.2383    3.5259 H   0  0  0  0  0  0  0  0  0  0  0  0
    1.6642   -2.6568    2.7279 H   0  0  0  0  0  0  0  0  0  0  0  0
  5  6  2  0  0  0  0
  5  7  1  0  0  0  0
  2  3  1  0  0  0  0
  2  4  1  0  0  0  0
  2  5  1  0  0  0  0
  1  2  1  0  0  0  0
 27 28  2  0  0  0  0
 27 29  1  0  0  0  0
 23 24  1  0  0  0  0
 23 25  1  0  0  0  0
 23 26  1  0  0  0  0
 20 21  1  0  0  0  0
 20 22  1  0  0  0  0
 20 23  1  0  0  0  0
 17 18  1  0  0  0  0
 17 19  1  0  0  0  0
 17 20  1  0  0  0  0
 14 15  1  0  0  0  0
 14 16  1  0  0  0  0
 14 17  1  0  0  0  0
 11 12  1  0  0  0  0
 11 13  1  0  0  0  0
 11 14  1  0  0  0  0
  9 10  1  0  0  0  0
  9 11  1  0  0  0  0
  9 27  1  0  0  0  0
  7  8  1  0  0  0  0
  7  9  1  0  0  0  0
 31 32  1  0  0  0  0
 31 33  1  0  0  0  0
 31 34  1  0  0  0  0
 29 30  1  0  0  0  0
 29 31  1  0  0  0  0
M  CHG  1  23   1
M  END
$$$$
default_name
  -OEChem-01062215323D

 34 33  0     1  0  0  0  0  0999 V2000
   -3.8899   -3.6747    1.6490 H   0  0  0  0  0  0  0  0  0  0  0  0
   -3.9109   -2.6717    1.2250 C   0  0  0  0  0  0  0  0  0  0  0  0
   -4.6009   -2.0517    1.7950 H   0  0  0  0  0  0  0  0  0  0  0  0
   -4.2309   -2.7237    0.1860 H   0  0  0  0  0  0  0  0  0  0  0  0
   -2.5229   -2.0787    1.2980 C   0  0  0  0  0  0  0  0  0  0  0  0
   -1.5999   -2.7227    1.7810 O   0  0  0  0  0  0  0  0  0  0  0  0
   -2.3659   -0.8447    0.8120 N   0  0  0  0  0  0  0  0  0  0  0  0
   -3.1749   -0.3807    0.4220 H   0  0  0  0  0  0  0  0  0  0  0  0
   -1.0919   -0.1077    0.8170 C   0  0  1  0  0  0  0  0  0  0  0  0
   -0.9505    0.3384   -0.1692 H   0  0  0  0  0  0  0  0  0  0  0  0
   -1.1819    1.0185    1.8638 C   0  0  0  0  0  0  0  0  0  0  0  0
   -1.4995    0.5856    2.8137 H   0  0  0  0  0  0  0  0  0  0  0  0
   -0.1923    1.4577    2.0042 H   0  0  0  0  0  0  0  0  0  0  0  0
   -2.1768    2.1248    1.4807 C   0  0  0  0  0  0  0  0  0  0  0  0
   -1.8876    2.5641    0.5250 H   0  0  0  0  0  0  0  0  0  0  0  0
   -3.1754    1.6935    1.3871 H   0  0  0  0  0  0  0  0  0  0  0  0
   -2.1957    3.2219    2.5540 C   0  0  0  0  0  0  0  0  0  0  0  0
   -2.4711    2.7761    3.5127 H   0  0  0  0  0  0  0  0  0  0  0  0
   -1.1974    3.6561    2.6370 H   0  0  0  0  0  0  0  0  0  0  0  0
   -3.2067    4.3148    2.1850 C   0  0  0  0  0  0  0  0  0  0  0  0
   -2.9181    4.7429    1.2195 H   0  0  0  0  0  0  0  0  0  0  0  0
   -4.1909    3.8519    2.0656 H   0  0  0  0  0  0  0  0  0  0  0  0
   -3.2628    5.3783    3.2196 N   0  3  0  0  0  0  0  0  0  0  0  0
   -2.3571    5.8176    3.3272 H   0  0  0  0  0  0  0  0  0  0  0  0
   -3.9340    6.0909    2.9615 H   0  0  0  0  0  0  0  0  0  0  0  0
   -3.5381    4.9885    4.1135 H   0  0  0  0  0  0  0  0  0  0  0  0
    0.0744   -1.0575    1.0992 C   0  0  0  0  0  0  0  0  0  0  0  0
    0.4441   -1.8385    0.2303 O   0  0  0  0  0  0  0  0  0  0  0  0
    0.6209   -1.0083    2.3184 N   0  0  0  0  0  0  0  0  0  0  0  0
    0.2761   -0.3141    2.9605 H   0  0  0  0  0  0  0  0  0  0  0  0
    1.7429   -1.8449    2.7481 C   0  0  0  0  0  0  0  0  0  0  0  0
    2.6199   -1.6295    2.1340 H   0  0  0  0  0  0  0  0  0  0  0  0
    1.9854   -1.6496    3.7933 H   0  0  0  0  0  0  0  0  0  0  0  0
    1.4898   -2.9006    2.6281 H   0  0  0  0  0  0  0  0  0  0  0  0
  5  6  2  0  0  0  0
  5  7  1  0  0  0  0
  2  3  1  0  0  0  0
  2  4  1  0  0  0  0
  2  5  1  0  0  0  0
  1  2  1  0  0  0  0
 27 28  2  0  0  0  0
 27 29  1  0  0  0  0
 23 24  1  0  0  0  0
 23 25  1  0  0  0  0
 23 26  1  0  0  0  0
 20 21  1  0  0  0  0
 20 22  1  0  0  0  0
 20 23  1  0  0  0  0
 17 18  1  0  0  0  0
 17 19  1  0  0  0  0
 17 20  1  0  0  0  0
 14 15  1  0  0  0  0
 14 16  1  0  0  0  0
 14 17  1  0  0  0  0
 11 12  1  0  0  0  0
 11 13  1  0  0  0  0
 11 14  1  0  0  0  0
  9 10  1  0  0  0  0
  9 11  1  0  0  0  0
  9 27  1  0  0  0  0
  7  8  1  0  0  0  0
  7  9  1  0  0  0  0
 31 32  1  0  0  0  0
 31 33  1  0  0  0  0
 31 34  1  0  0  0  0
 29 30  1  0  0  0  0
 29 31  1  0  0  0  0
M  CHG  1  23   1
M  END
$$$$
default_name
  -OEChem-01062215323D

 34 33  0     1  0  0  0  0  0999 V2000
   -3.8899   -3.6747    1.6490 H   0  0  0  0  0  0  0  0  0  0  0  0
   -3.9109   -2.6717    1.2250 C   0  0  0  0  0  0  0  0  0  0  0  0
   -4.6009   -2.0517    1.7950 H   0  0  0  0  0  0  0  0  0  0  0  0
   -4.2309   -2.7237    0.1860 H   0  0  0  0  0  0  0  0  0  0  0  0
   -2.5229   -2.0787    1.2980 C   0  0  0  0  0  0  0  0  0  0  0  0
   -1.5999   -2.7227    1.7810 O   0  0  0  0  0  0  0  0  0  0  0  0
   -2.3659   -0.8447    0.8120 N   0  0  0  0  0  0  0  0  0  0  0  0
   -3.1749   -0.3807    0.4220 H   0  0  0  0  0  0  0  0  0  0  0  0
   -1.0919   -0.1077    0.8170 C   0  0  1  0  0  0  0  0  0  0  0  0
   -0.9505    0.3384   -0.1692 H   0  0  0  0  0  0  0  0  0  0  0  0
   -1.1819    1.0185    1.8638 C   0  0  0  0  0  0  0  0  0  0  0  0
   -1.4995    0.5856    2.8137 H   0  0  0  0  0  0  0  0  0  0  0  0
   -0.1923    1.4577    2.0042 H   0  0  0  0  0  0  0  0  0  0  0  0
   -2.1768    2.1248    1.4807 C   0  0  0  0  0  0  0  0  0  0  0  0
   -1.8876    2.5641    0.5250 H   0  0  0  0  0  0  0  0  0  0  0  0
   -3.1754    1.6935    1.3871 H   0  0  0  0  0  0  0  0  0  0  0  0
   -2.1957    3.2219    2.5540 C   0  0  0  0  0  0  0  0  0  0  0  0
   -2.4711    2.7761    3.5127 H   0  0  0  0  0  0  0  0  0  0  0  0
   -1.1974    3.6561    2.6370 H   0  0  0  0  0  0  0  0  0  0  0  0
   -3.2067    4.3148    2.1850 C   0  0  0  0  0  0  0  0  0  0  0  0
   -2.9181    4.7429    1.2195 H   0  0  0  0  0  0  0  0  0  0  0  0
   -4.1909    3.8519    2.0656 H   0  0  0  0  0  0  0  0  0  0  0  0
   -3.2628    5.3783    3.2196 N   0  3  0  0  0  0  0  0  0  0  0  0
   -2.3571    5.8176    3.3272 H   0  0  0  0  0  0  0  0  0  0  0  0
   -3.9340    6.0909    2.9615 H   0  0  0  0  0  0  0  0  0  0  0  0
   -3.5381    4.9885    4.1135 H   0  0  0  0  0  0  0  0  0  0  0  0
    0.0744   -1.0575    1.0992 C   0  0  0  0  0  0  0  0  0  0  0  0
    0.6241   -1.6357    0.1691 O   0  0  0  0  0  0  0  0  0  0  0  0
    0.4200   -1.2373    2.3782 N   0  0  0  0  0  0  0  0  0  0  0  0
   -0.0643   -0.6977    3.0764 H   0  0  0  0  0  0  0  0  0  0  0  0
    1.5123   -2.1074    2.8176 C   0  0  0  0  0  0  0  0  0  0  0  0
    2.4588   -1.7452    2.4105 H   0  0  0  0  0  0  0  0  0  0  0  0
    1.5760   -2.1187    3.9063 H   0  0  0  0  0  0  0  0  0  0  0  0
    1.3490   -3.1248    2.4556 H   0  0  0  0  0  0  0  0  0  0  0  0
  5  6  2  0  0  0  0
  5  7  1  0  0  0  0
  2  3  1  0  0  0  0
  2  4  1  0  0  0  0
  2  5  1  0  0  0  0
  1  2  1  0  0  0  0
 27 28  2  0  0  0  0
 27 29  1  0  0  0  0
 23 24  1  0  0  0  0
 23 25  1  0  0  0  0
 23 26  1  0  0  0  0
 20 21  1  0  0  0  0
 20 22  1  0  0  0  0
 20 23  1  0  0  0  0
 17 18  1  0  0  0  0
 17 19  1  0  0  0  0
 17 20  1  0  0  0  0
 14 15  1  0  0  0  0
 14 16  1  0  0  0  0
 14 17  1  0  0  0  0
 11 12  1  0  0  0  0
 11 13  1  0  0  0  0
 11 14  1  0  0  0  0
  9 10  1  0  0  0  0
  9 11  1  0  0  0  0
  9 27  1  0  0  0  0
  7  8  1  0  0  0  0
  7  9  1  0  0  0  0
 31 32  1  0  0  0  0
 31 33  1  0  0  0  0
 31 34  1  0  0  0  0
 29 30  1  0  0  0  0
 29 31  1  0  0  0  0
M  CHG  1  23   1
M  END
$$$$
default_name
  -OEChem-01062215323D

 34 33  0     1  0  0  0  0  0999 V2000
   -3.8899   -3.6747    1.6490 H   0  0  0  0  0  0  0  0  0  0  0  0
   -3.9109   -2.6717    1.2250 C   0  0  0  0  0  0  0  0  0  0  0  0
   -4.6009   -2.0517    1.7950 H   0  0  0  0  0  0  0  0  0  0  0  0
   -4.2309   -2.7237    0.1860 H   0  0  0  0  0  0  0  0  0  0  0  0
   -2.5229   -2.0787    1.2980 C   0  0  0  0  0  0  0  0  0  0  0  0
   -1.5999   -2.7227    1.7810 O   0  0  0  0  0  0  0  0  0  0  0  0
   -2.3659   -0.8447    0.8120 N   0  0  0  0  0  0  0  0  0  0  0  0
   -3.1749   -0.3807    0.4220 H   0  0  0  0  0  0  0  0  0  0  0  0
   -1.0919   -0.1077    0.8170 C   0  0  1  0  0  0  0  0  0  0  0  0
   -0.9505    0.3384   -0.1692 H   0  0  0  0  0  0  0  0  0  0  0  0
   -1.1819    1.0185    1.8638 C   0  0  0  0  0  0  0  0  0  0  0  0
   -1.4995    0.5856    2.8137 H   0  0  0  0  0  0  0  0  0  0  0  0
   -0.1923    1.4577    2.0042 H   0  0  0  0  0  0  0  0  0  0  0  0
   -2.1768    2.1248    1.4807 C   0  0  0  0  0  0  0  0  0  0  0  0
   -1.8876    2.5641    0.5250 H   0  0  0  0  0  0  0  0  0  0  0  0
   -3.1754    1.6935    1.3871 H   0  0  0  0  0  0  0  0  0  0  0  0
   -2.1957    3.2219    2.5540 C   0  0  0  0  0  0  0  0  0  0  0  0
   -2.4711    2.7761    3.5127 H   0  0  0  0  0  0  0  0  0  0  0  0
   -1.1974    3.6561    2.6370 H   0  0  0  0  0  0  0  0  0  0  0  0
   -3.2067    4.3148    2.1850 C   0  0  0  0  0  0  0  0  0  0  0  0
   -2.9181    4.7429    1.2195 H   0  0  0  0  0  0  0  0  0  0  0  0
   -4.1909    3.8519    2.0656 H   0  0  0  0  0  0  0  0  0  0  0  0
   -3.2628    5.3783    3.2196 N   0  3  0  0  0  0  0  0  0  0  0  0
   -2.3571    5.8176    3.3272 H   0  0  0  0  0  0  0  0  0  0  0  0
   -3.9340    6.0909    2.9615 H   0  0  0  0  0  0  0  0  0  0  0  0
   -3.5381    4.9885    4.1135 H   0  0  0  0  0  0  0  0  0  0  0  0
    0.0744   -1.0575    1.0992 C   0  0  0  0  0  0  0  0  0  0  0  0
    0.7981   -1.4191    0.1788 O   0  0  0  0  0  0  0  0  0  0  0  0
    0.2272   -1.4799    2.3585 N   0  0  0  0  0  0  0  0  0  0  0  0
   -0.3934   -1.1073    3.0579 H   0  0  0  0  0  0  0  0  0  0  0  0
    1.2910   -2.3856    2.7960 C   0  0  0  0  0  0  0  0  0  0  0  0
    2.2643   -1.9192    2.6288 H   0  0  0  0  0  0  0  0  0  0  0  0
    1.1848   -2.6137    3.8571 H   0  0  0  0  0  0  0  0  0  0  0  0
    1.2513   -3.3140    2.2221 H   0  0  0  0  0  0  0  0  0  0  0  0
  5  6  2  0  0  0  0
  5  7  1  0  0  0  0
  2  3  1  0  0  0  0
  2  4  1  0  0  0  0
  2  5  1  0  0  0  0
  1  2  1  0  0  0  0
 27 28  2  0  0  0  0
 27 29  1  0  0  0  0
 23 24  1  0  0  0  0
 23 25  1  0  0  0  0
 23 26  1  0  0  0  0
 20 21  1  0  0  0  0
 20 22  1  0  0  0  0
 20 23  1  0  0  0  0
 17 18  1  0  0  0  0
 17 19  1  0  0  0  0
 17 20  1  0  0  0  0
 14 15  1  0  0  0  0
 14 16  1  0  0  0  0
 14 17  1  0  0  0  0
 11 12  1  0  0  0  0
 11 13  1  0  0  0  0
 11 14  1  0  0  0  0
  9 10  1  0  0  0  0
  9 11  1  0  0  0  0
  9 27  1  0  0  0  0
  7  8  1  0  0  0  0
  7  9  1  0  0  0  0
 31 32  1  0  0  0  0
 31 33  1  0  0  0  0
 31 34  1  0  0  0  0
 29 30  1  0  0  0  0
 29 31  1  0  0  0  0
M  CHG  1  23   1
M  END
$$$$
default_name
  -OEChem-01062215323D

 34 33  0     1  0  0  0  0  0999 V2000
   -3.8899   -3.6747    1.6490 H   0  0  0  0  0  0  0  0  0  0  0  0
   -3.9109   -2.6717    1.2250 C   0  0  0  0  0  0  0  0  0  0  0  0
   -4.6009   -2.0517    1.7950 H   0  0  0  0  0  0  0  0  0  0  0  0
   -4.2309   -2.7237    0.1860 H   0  0  0  0  0  0  0  0  0  0  0  0
   -2.5229   -2.0787    1.2980 C   0  0  0  0  0  0  0  0  0  0  0  0
   -1.5999   -2.7227    1.7810 O   0  0  0  0  0  0  0  0  0  0  0  0
   -2.3659   -0.8447    0.8120 N   0  0  0  0  0  0  0  0  0  0  0  0
   -3.1749   -0.3807    0.4220 H   0  0  0  0  0  0  0  0  0  0  0  0
   -1.0919   -0.1077    0.8170 C   0  0  1  0  0  0  0  0  0  0  0  0
   -0.9505    0.3384   -0.1692 H   0  0  0  0  0  0  0  0  0  0  0  0
   -1.1819    1.0185    1.8638 C   0  0  0  0  0  0  0  0  0  0  0  0
   -1.4995    0.5856    2.8137 H   0  0  0  0  0  0  0  0  0  0  0  0
   -0.1923    1.4577    2.0042 H   0  0  0  0  0  0  0  0  0  0  0  0
   -2.1768    2.1248    1.4807 C   0  0  0  0  0  0  0  0  0  0  0  0
   -1.8876    2.5641    0.5250 H   0  0  0  0  0  0  0  0  0  0  0  0
   -3.1754    1.6935    1.3871 H   0  0  0  0  0  0  0  0  0  0  0  0
   -2.1957    3.2219    2.5540 C   0  0  0  0  0  0  0  0  0  0  0  0
   -2.4711    2.7761    3.5127 H   0  0  0  0  0  0  0  0  0  0  0  0
   -1.1974    3.6561    2.6370 H   0  0  0  0  0  0  0  0  0  0  0  0
   -3.2067    4.3148    2.1850 C   0  0  0  0  0  0  0  0  0  0  0  0
   -2.9181    4.7429    1.2195 H   0  0  0  0  0  0  0  0  0  0  0  0
   -4.1909    3.8519    2.0656 H   0  0  0  0  0  0  0  0  0  0  0  0
   -3.2628    5.3783    3.2196 N   0  3  0  0  0  0  0  0  0  0  0  0
   -2.3571    5.8176    3.3272 H   0  0  0  0  0  0  0  0  0  0  0  0
   -3.9340    6.0909    2.9615 H   0  0  0  0  0  0  0  0  0  0  0  0
   -3.5381    4.9885    4.1135 H   0  0  0  0  0  0  0  0  0  0  0  0
    0.0744   -1.0575    1.0992 C   0  0  0  0  0  0  0  0  0  0  0  0
    0.9543   -1.2036    0.2589 O   0  0  0  0  0  0  0  0  0  0  0  0
    0.0557   -1.7195    2.2607 N   0  0  0  0  0  0  0  0  0  0  0  0
   -0.6888   -1.5150    2.9065 H   0  0  0  0  0  0  0  0  0  0  0  0
    1.0940   -2.6606    2.6846 C   0  0  0  0  0  0  0  0  0  0  0  0
    2.0496   -2.1396    2.7741 H   0  0  0  0  0  0  0  0  0  0  0  0
    0.8385   -3.1007    3.6492 H   0  0  0  0  0  0  0  0  0  0  0  0
    1.2036   -3.4554    1.9435 H   0  0  0  0  0  0  0  0  0  0  0  0
  5  6  2  0  0  0  0
  5  7  1  0  0  0  0
  2  3  1  0  0  0  0
  2  4  1  0  0  0  0
  2  5  1  0  0  0  0
  1  2  1  0  0  0  0
 27 28  2  0  0  0  0
 27 29  1  0  0  0  0
 23 24  1  0  0  0  0
 23 25  1  0  0  0  0
 23 26  1  0  0  0  0
 20 21  1  0  0  0  0
 20 22  1  0  0  0  0
 20 23  1  0  0  0  0
 17 18  1  0  0  0  0
 17 19  1  0  0  0  0
 17 20  1  0  0  0  0
 14 15  1  0  0  0  0
 14 16  1  0  0  0  0
 14 17  1  0  0  0  0
 11 12  1  0  0  0  0
 11 13  1  0  0  0  0
 11 14  1  0  0  0  0
  9 10  1  0  0  0  0
  9 11  1  0  0  0  0
  9 27  1  0  0  0  0
  7  8  1  0  0  0  0
  7  9  1  0  0  0  0
 31 32  1  0  0  0  0
 31 33  1  0  0  0  0
 31 34  1  0  0  0  0
 29 30  1  0  0  0  0
 29 31  1  0  0  0  0
M  CHG  1  23   1
M  END
$$$$
default_name
  -OEChem-01062215323D

 34 33  0     1  0  0  0  0  0999 V2000
   -3.8899   -3.6747    1.6490 H   0  0  0  0  0  0  0  0  0  0  0  0
   -3.9109   -2.6717    1.2250 C   0  0  0  0  0  0  0  0  0  0  0  0
   -4.6009   -2.0517    1.7950 H   0  0  0  0  0  0  0  0  0  0  0  0
   -4.2309   -2.7237    0.1860 H   0  0  0  0  0  0  0  0  0  0  0  0
   -2.5229   -2.0787    1.2980 C   0  0  0  0  0  0  0  0  0  0  0  0
   -1.5999   -2.7227    1.7810 O   0  0  0  0  0  0  0  0  0  0  0  0
   -2.3659   -0.8447    0.8120 N   0  0  0  0  0  0  0  0  0  0  0  0
   -3.1749   -0.3807    0.4220 H   0  0  0  0  0  0  0  0  0  0  0  0
   -1.0919   -0.1077    0.8170 C   0  0  1  0  0  0  0  0  0  0  0  0
   -0.9505    0.3384   -0.1692 H   0  0  0  0  0  0  0  0  0  0  0  0
   -1.1819    1.0185    1.8638 C   0  0  0  0  0  0  0  0  0  0  0  0
   -1.4995    0.5856    2.8137 H   0  0  0  0  0  0  0  0  0  0  0  0
   -0.1923    1.4577    2.0042 H   0  0  0  0  0  0  0  0  0  0  0  0
   -2.1768    2.1248    1.4807 C   0  0  0  0  0  0  0  0  0  0  0  0
   -1.8876    2.5641    0.5250 H   0  0  0  0  0  0  0  0  0  0  0  0
   -3.1754    1.6935    1.3871 H   0  0  0  0  0  0  0  0  0  0  0  0
   -2.1957    3.2219    2.5540 C   0  0  0  0  0  0  0  0  0  0  0  0
   -2.4711    2.7761    3.5127 H   0  0  0  0  0  0  0  0  0  0  0  0
   -1.1974    3.6561    2.6370 H   0  0  0  0  0  0  0  0  0  0  0  0
   -3.2067    4.3148    2.1850 C   0  0  0  0  0  0  0  0  0  0  0  0
   -2.9181    4.7429    1.2195 H   0  0  0  0  0  0  0  0  0  0  0  0
   -4.1909    3.8519    2.0656 H   0  0  0  0  0  0  0  0  0  0  0  0
   -3.2628    5.3783    3.2196 N   0  3  0  0  0  0  0  0  0  0  0  0
   -2.3571    5.8176    3.3272 H   0  0  0  0  0  0  0  0  0  0  0  0
   -3.9340    6.0909    2.9615 H   0  0  0  0  0  0  0  0  0  0  0  0
   -3.5381    4.9885    4.1135 H   0  0  0  0  0  0  0  0  0  0  0  0
    0.0744   -1.0575    1.0992 C   0  0  0  0  0  0  0  0  0  0  0  0
    1.0820   -1.0037    0.4039 O   0  0  0  0  0  0  0  0  0  0  0  0
   -0.0828   -1.9398    2.0914 N   0  0  0  0  0  0  0  0  0  0  0  0
   -0.9304   -1.8931    2.6323 H   0  0  0  0  0  0  0  0  0  0  0  0
    0.9347   -2.9137    2.4911 C   0  0  0  0  0  0  0  0  0  0  0  0
    1.8295   -2.3914    2.8365 H   0  0  0  0  0  0  0  0  0  0  0  0
    0.5606   -3.5467    3.2966 H   0  0  0  0  0  0  0  0  0  0  0  0
    1.2090   -3.5393    1.6389 H   0  0  0  0  0  0  0  0  0  0  0  0
  5  6  2  0  0  0  0
  5  7  1  0  0  0  0
  2  3  1  0  0  0  0
  2  4  1  0  0  0  0
  2  5  1  0  0  0  0
  1  2  1  0  0  0  0
 27 28  2  0  0  0  0
 27 29  1  0  0  0  0
 23 24  1  0  0  0  0
 23 25  1  0  0  0  0
 23 26  1  0  0  0  0
 20 21  1  0  0  0  0
 20 22  1  0  0  0  0
 20 23  1  0  0  0  0
 17 18  1  0  0  0  0
 17 19  1  0  0  0  0
 17 20  1  0  0  0  0
 14 15  1  0  0  0  0
 14 16  1  0  0  0  0
 14 17  1  0  0  0  0
 11 12  1  0  0  0  0
 11 13  1  0  0  0  0
 11 14  1  0  0  0  0
  9 10  1  0  0  0  0
  9 11  1  0  0  0  0
  9 27  1  0  0  0  0
  7  8  1  0  0  0  0
  7  9  1  0  0  0  0
 31 32  1  0  0  0  0
 31 33  1  0  0  0  0
 31 34  1  0  0  0  0
 29 30  1  0  0  0  0
 29 31  1  0  0  0  0
M  CHG  1  23   1
M  END
$$$$
default_name
  -OEChem-01062215323D

 34 33  0     1  0  0  0  0  0999 V2000
   -3.8899   -3.6747    1.6490 H   0  0  0  0  0  0  0  0  0  0  0  0
   -3.9109   -2.6717    1.2250 C   0  0  0  0  0  0  0  0  0  0  0  0
   -4.6009   -2.0517    1.7950 H   0  0  0  0  0  0  0  0  0  0  0  0
   -4.2309   -2.7237    0.1860 H   0  0  0  0  0  0  0  0  0  0  0  0
   -2.5229   -2.0787    1.2980 C   0  0  0  0  0  0  0  0  0  0  0  0
   -1.5999   -2.7227    1.7810 O   0  0  0  0  0  0  0  0  0  0  0  0
   -2.3659   -0.8447    0.8120 N   0  0  0  0  0  0  0  0  0  0  0  0
   -3.1749   -0.3807    0.4220 H   0  0  0  0  0  0  0  0  0  0  0  0
   -1.0919   -0.1077    0.8170 C   0  0  1  0  0  0  0  0  0  0  0  0
   -0.9505    0.3384   -0.1692 H   0  0  0  0  0  0  0  0  0  0  0  0
   -1.1819    1.0185    1.8638 C   0  0  0  0  0  0  0  0  0  0  0  0
   -1.4995    0.5856    2.8137 H   0  0  0  0  0  0  0  0  0  0  0  0
   -0.1923    1.4577    2.0042 H   0  0  0  0  0  0  0  0  0  0  0  0
   -2.1768    2.1248    1.4807 C   0  0  0  0  0  0  0  0  0  0  0  0
   -1.8876    2.5641    0.5250 H   0  0  0  0  0  0  0  0  0  0  0  0
   -3.1754    1.6935    1.3871 H   0  0  0  0  0  0  0  0  0  0  0  0
   -2.1957    3.2219    2.5540 C   0  0  0  0  0  0  0  0  0  0  0  0
   -2.4711    2.7761    3.5127 H   0  0  0  0  0  0  0  0  0  0  0  0
   -1.1974    3.6561    2.6370 H   0  0  0  0  0  0  0  0  0  0  0  0
   -3.2067    4.3148    2.1850 C   0  0  0  0  0  0  0  0  0  0  0  0
   -2.9181    4.7429    1.2195 H   0  0  0  0  0  0  0  0  0  0  0  0
   -4.1909    3.8519    2.0656 H   0  0  0  0  0  0  0  0  0  0  0  0
   -3.2628    5.3783    3.2196 N   0  3  0  0  0  0  0  0  0  0  0  0
   -2.3571    5.8176    3.3272 H   0  0  0  0  0  0  0  0  0  0  0  0
   -3.9340    6.0909    2.9615 H   0  0  0  0  0  0  0  0  0  0  0  0
   -3.5381    4.9885    4.1135 H   0  0  0  0  0  0  0  0  0  0  0  0
    0.0744   -1.0575    1.0992 C   0  0  0  0  0  0  0  0  0  0  0  0
    1.1725   -0.8331    0.6039 O   0  0  0  0  0  0  0  0  0  0  0  0
   -0.1789   -2.1259    1.8621 N   0  0  0  0  0  0  0  0  0  0  0  0
   -1.1016   -2.2157    2.2540 H   0  0  0  0  0  0  0  0  0  0  0  0
    0.8240   -3.1276    2.2287 C   0  0  0  0  0  0  0  0  0  0  0  0
    1.6188   -2.6574    2.8117 H   0  0  0  0  0  0  0  0  0  0  0  0
    0.3701   -3.9212    2.8234 H   0  0  0  0  0  0  0  0  0  0  0  0
    1.2671   -3.5600    1.3290 H   0  0  0  0  0  0  0  0  0  0  0  0
  5  6  2  0  0  0  0
  5  7  1  0  0  0  0
  2  3  1  0  0  0  0
  2  4  1  0  0  0  0
  2  5  1  0  0  0  0
  1  2  1  0  0  0  0
 27 28  2  0  0  0  0
 27 29  1  0  0  0  0
 23 24  1  0  0  0  0
 23 25  1  0  0  0  0
 23 26  1  0  0  0  0
 20 21  1  0  0  0  0
 20 22  1  0  0  0  0
 20 23  1  0  0  0  0
 17 18  1  0  0  0  0
 17 19  1  0  0  0  0
 17 20  1  0  0  0  0
 14 15  1  0  0  0  0
 14 16  1  0  0  0  0
 14 17  1  0  0  0  0
 11 12  1  0  0  0  0
 11 13  1  0  0  0  0
 11 14  1  0  0  0  0
  9 10  1  0  0  0  0
  9 11  1  0  0  0  0
  9 27  1  0  0  0  0
  7  8  1  0  0  0  0
  7  9  1  0  0  0  0
 31 32  1  0  0  0  0
 31 33  1  0  0  0  0
 31 34  1  0  0  0  0
 29 30  1  0  0  0  0
 29 31  1  0  0  0  0
M  CHG  1  23   1
M  END
$$$$
default_name
  -OEChem-01062215323D

 34 33  0     1  0  0  0  0  0999 V2000
   -3.8899   -3.6747    1.6490 H   0  0  0  0  0  0  0  0  0  0  0  0
   -3.9109   -2.6717    1.2250 C   0  0  0  0  0  0  0  0  0  0  0  0
   -4.6009   -2.0517    1.7950 H   0  0  0  0  0  0  0  0  0  0  0  0
   -4.2309   -2.7237    0.1860 H   0  0  0  0  0  0  0  0  0  0  0  0
   -2.5229   -2.0787    1.2980 C   0  0  0  0  0  0  0  0  0  0  0  0
   -1.5999   -2.7227    1.7810 O   0  0  0  0  0  0  0  0  0  0  0  0
   -2.3659   -0.8447    0.8120 N   0  0  0  0  0  0  0  0  0  0  0  0
   -3.1749   -0.3807    0.4220 H   0  0  0  0  0  0  0  0  0  0  0  0
   -1.0919   -0.1077    0.8170 C   0  0  1  0  0  0  0  0  0  0  0  0
   -0.9505    0.3384   -0.1692 H   0  0  0  0  0  0  0  0  0  0  0  0
   -1.1819    1.0185    1.8638 C   0  0  0  0  0  0  0  0  0  0  0  0
   -1.4995    0.5856    2.8137 H   0  0  0  0  0  0  0  0  0  0  0  0
   -0.1923    1.4577    2.0042 H   0  0  0  0  0  0  0  0  0  0  0  0
   -2.1768    2.1248    1.4807 C   0  0  0  0  0  0  0  0  0  0  0  0
   -1.8876    2.5641    0.5250 H   0  0  0  0  0  0  0  0  0  0  0  0
   -3.1754    1.6935    1.3871 H   0  0  0  0  0  0  0  0  0  0  0  0
   -2.1957    3.2219    2.5540 C   0  0  0  0  0  0  0  0  0  0  0  0
   -2.4711    2.7761    3.5127 H   0  0  0  0  0  0  0  0  0  0  0  0
   -1.1974    3.6561    2.6370 H   0  0  0  0  0  0  0  0  0  0  0  0
   -3.2067    4.3148    2.1850 C   0  0  0  0  0  0  0  0  0  0  0  0
   -2.9181    4.7429    1.2195 H   0  0  0  0  0  0  0  0  0  0  0  0
   -4.1909    3.8519    2.0656 H   0  0  0  0  0  0  0  0  0  0  0  0
   -3.2628    5.3783    3.2196 N   0  3  0  0  0  0  0  0  0  0  0  0
   -2.3571    5.8176    3.3272 H   0  0  0  0  0  0  0  0  0  0  0  0
   -3.9340    6.0909    2.9615 H   0  0  0  0  0  0  0  0  0  0  0  0
   -3.5381    4.9885    4.1135 H   0  0  0  0  0  0  0  0  0  0  0  0
    0.0744   -1.0575    1.0992 C   0  0  0  0  0  0  0  0  0  0  0  0
    1.2197   -0.7035    0.8452 O   0  0  0  0  0  0  0  0  0  0  0  0
   -0.2259   -2.2650    1.5886 N   0  0  0  0  0  0  0  0  0  0  0  0
   -1.1908   -2.4609    1.7975 H   0  0  0  0  0  0  0  0  0  0  0  0
    0.7694   -3.2878    1.9153 C   0  0  0  0  0  0  0  0  0  0  0  0
    1.4320   -2.9196    2.7015 H   0  0  0  0  0  0  0  0  0  0  0  0
    0.2800   -4.1986    2.2619 H   0  0  0  0  0  0  0  0  0  0  0  0
    1.3740   -3.5161    1.0349 H   0  0  0  0  0  0  0  0  0  0  0  0
  5  6  2  0  0  0  0
  5  7  1  0  0  0  0
  2  3  1  0  0  0  0
  2  4  1  0  0  0  0
  2  5  1  0  0  0  0
  1  2  1  0  0  0  0
 27 28  2  0  0  0  0
 27 29  1  0  0  0  0
 23 24  1  0  0  0  0
 23 25  1  0  0  0  0
 23 26  1  0  0  0  0
 20 21  1  0  0  0  0
 20 22  1  0  0  0  0
 20 23  1  0  0  0  0
 17 18  1  0  0  0  0
 17 19  1  0  0  0  0
 17 20  1  0  0  0  0
 14 15  1  0  0  0  0
 14 16  1  0  0  0  0
 14 17  1  0  0  0  0
 11 12  1  0  0  0  0
 11 13  1  0  0  0  0
 11 14  1  0  0  0  0
  9 10  1  0  0  0  0
  9 11  1  0  0  0  0
  9 27  1  0  0  0  0
  7  8  1  0  0  0  0
  7  9  1  0  0  0  0
 31 32  1  0  0  0  0
 31 33  1  0  0  0  0
 31 34  1  0  0  0  0
 29 30  1  0  0  0  0
 29 31  1  0  0  0  0
M  CHG  1  23   1
M  END
$$$$
default_name
  -OEChem-01062215323D

 34 33  0     1  0  0  0  0  0999 V2000
   -3.8899   -3.6747    1.6490 H   0  0  0  0  0  0  0  0  0  0  0  0
   -3.9109   -2.6717    1.2250 C   0  0  0  0  0  0  0  0  0  0  0  0
   -4.6009   -2.0517    1.7950 H   0  0  0  0  0  0  0  0  0  0  0  0
   -4.2309   -2.7237    0.1860 H   0  0  0  0  0  0  0  0  0  0  0  0
   -2.5229   -2.0787    1.2980 C   0  0  0  0  0  0  0  0  0  0  0  0
   -1.5999   -2.7227    1.7810 O   0  0  0  0  0  0  0  0  0  0  0  0
   -2.3659   -0.8447    0.8120 N   0  0  0  0  0  0  0  0  0  0  0  0
   -3.1749   -0.3807    0.4220 H   0  0  0  0  0  0  0  0  0  0  0  0
   -1.0919   -0.1077    0.8170 C   0  0  1  0  0  0  0  0  0  0  0  0
   -0.9505    0.3384   -0.1692 H   0  0  0  0  0  0  0  0  0  0  0  0
   -1.1819    1.0185    1.8638 C   0  0  0  0  0  0  0  0  0  0  0  0
   -1.4995    0.5856    2.8137 H   0  0  0  0  0  0  0  0  0  0  0  0
   -0.1923    1.4577    2.0042 H   0  0  0  0  0  0  0  0  0  0  0  0
   -2.1768    2.1248    1.4807 C   0  0  0  0  0  0  0  0  0  0  0  0
   -1.8876    2.5641    0.5250 H   0  0  0  0  0  0  0  0  0  0  0  0
   -3.1754    1.6935    1.3871 H   0  0  0  0  0  0  0  0  0  0  0  0
   -2.1957    3.2219    2.5540 C   0  0  0  0  0  0  0  0  0  0  0  0
   -2.4711    2.7761    3.5127 H   0  0  0  0  0  0  0  0  0  0  0  0
   -1.1974    3.6561    2.6370 H   0  0  0  0  0  0  0  0  0  0  0  0
   -3.2067    4.3148    2.1850 C   0  0  0  0  0  0  0  0  0  0  0  0
   -2.9181    4.7429    1.2195 H   0  0  0  0  0  0  0  0  0  0  0  0
   -4.1909    3.8519    2.0656 H   0  0  0  0  0  0  0  0  0  0  0  0
   -3.2628    5.3783    3.2196 N   0  3  0  0  0  0  0  0  0  0  0  0
   -2.3571    5.8176    3.3272 H   0  0  0  0  0  0  0  0  0  0  0  0
   -3.9340    6.0909    2.9615 H   0  0  0  0  0  0  0  0  0  0  0  0
   -3.5381    4.9885    4.1135 H   0  0  0  0  0  0  0  0  0  0  0  0
    0.0744   -1.0575    1.0992 C   0  0  0  0  0  0  0  0  0  0  0  0
    1.2203   -0.6236    1.1115 O   0  0  0  0  0  0  0  0  0  0  0  0
   -0.2208   -2.3476    1.2893 N   0  0  0  0  0  0  0  0  0  0  0  0
   -1.1920   -2.6120    1.2939 H   0  0  0  0  0  0  0  0  0  0  0  0
    0.7747   -3.3832    1.5722 C   0  0  0  0  0  0  0  0  0  0  0  0
    1.2818   -3.1599    2.5133 H   0  0  0  0  0  0  0  0  0  0  0  0
    0.2964   -4.3602    1.6503 H   0  0  0  0  0  0  0  0  0  0  0  0
    1.5225   -3.4106    0.7766 H   0  0  0  0  0  0  0  0  0  0  0  0
  5  6  2  0  0  0  0
  5  7  1  0  0  0  0
  2  3  1  0  0  0  0
  2  4  1  0  0  0  0
  2  5  1  0  0  0  0
  1  2  1  0  0  0  0
 27 28  2  0  0  0  0
 27 29  1  0  0  0  0
 23 24  1  0  0  0  0
 23 25  1  0  0  0  0
 23 26  1  0  0  0  0
 20 21  1  0  0  0  0
 20 22  1  0  0  0  0
 20 23  1  0  0  0  0
 17 18  1  0  0  0  0
 17 19  1  0  0  0  0
 17 20  1  0  0  0  0
 14 15  1  0  0  0  0
 14 16  1  0  0  0  0
 14 17  1  0  0  0  0
 11 12  1  0  0  0  0
 11 13  1  0  0  0  0
 11 14  1  0  0  0  0
  9 10  1  0  0  0  0
  9 11  1  0  0  0  0
  9 27  1  0  0  0  0
  7  8  1  0  0  0  0
  7  9  1  0  0  0  0
 31 32  1  0  0  0  0
 31 33  1  0  0  0  0
 31 34  1  0  0  0  0
 29 30  1  0  0  0  0
 29 31  1  0  0  0  0
M  CHG  1  23   1
M  END
$$$$
default_name
  -OEChem-01062215323D

 34 33  0     1  0  0  0  0  0999 V2000
   -3.8899   -3.6747    1.6490 H   0  0  0  0  0  0  0  0  0  0  0  0
   -3.9109   -2.6717    1.2250 C   0  0  0  0  0  0  0  0  0  0  0  0
   -4.6009   -2.0517    1.7950 H   0  0  0  0  0  0  0  0  0  0  0  0
   -4.2309   -2.7237    0.1860 H   0  0  0  0  0  0  0  0  0  0  0  0
   -2.5229   -2.0787    1.2980 C   0  0  0  0  0  0  0  0  0  0  0  0
   -1.5999   -2.7227    1.7810 O   0  0  0  0  0  0  0  0  0  0  0  0
   -2.3659   -0.8447    0.8120 N   0  0  0  0  0  0  0  0  0  0  0  0
   -3.1749   -0.3807    0.4220 H   0  0  0  0  0  0  0  0  0  0  0  0
   -1.0919   -0.1077    0.8170 C   0  0  1  0  0  0  0  0  0  0  0  0
   -0.9505    0.3384   -0.1692 H   0  0  0  0  0  0  0  0  0  0  0  0
   -1.1819    1.0185    1.8638 C   0  0  0  0  0  0  0  0  0  0  0  0
   -1.4995    0.5856    2.8137 H   0  0  0  0  0  0  0  0  0  0  0  0
   -0.1923    1.4577    2.0042 H   0  0  0  0  0  0  0  0  0  0  0  0
   -2.1768    2.1248    1.4807 C   0  0  0  0  0  0  0  0  0  0  0  0
   -1.8876    2.5641    0.5250 H   0  0  0  0  0  0  0  0  0  0  0  0
   -3.1754    1.6935    1.3871 H   0  0  0  0  0  0  0  0  0  0  0  0
   -2.1957    3.2219    2.5540 C   0  0  0  0  0  0  0  0  0  0  0  0
   -2.4711    2.7761    3.5127 H   0  0  0  0  0  0  0  0  0  0  0  0
   -1.1974    3.6561    2.6370 H   0  0  0  0  0  0  0  0  0  0  0  0
   -3.2067    4.3148    2.1850 C   0  0  0  0  0  0  0  0  0  0  0  0
   -2.9181    4.7429    1.2195 H   0  0  0  0  0  0  0  0  0  0  0  0
   -4.1909    3.8519    2.0656 H   0  0  0  0  0  0  0  0  0  0  0  0
   -3.2628    5.3783    3.2196 N   0  3  0  0  0  0  0  0  0  0  0  0
   -2.3571    5.8176    3.3272 H   0  0  0  0  0  0  0  0  0  0  0  0
   -3.9340    6.0909    2.9615 H   0  0  0  0  0  0  0  0  0  0  0  0
   -3.5381    4.9885    4.1135 H   0  0  0  0  0  0  0  0  0  0  0  0
    0.0744   -1.0575    1.0992 C   0  0  0  0  0  0  0  0  0  0  0  0
    1.1743   -0.5989    1.3845 O   0  0  0  0  0  0  0  0  0  0  0  0
   -0.1639   -2.3682    0.9848 N   0  0  0  0  0  0  0  0  0  0  0  0
   -1.1050   -2.6586    0.7775 H   0  0  0  0  0  0  0  0  0  0  0  0
    0.8395   -3.4075    1.2228 C   0  0  0  0  0  0  0  0  0  0  0  0
    1.1784   -3.3622    2.2600 H   0  0  0  0  0  0  0  0  0  0  0  0
    0.4182   -4.3949    1.0304 H   0  0  0  0  0  0  0  0  0  0  0  0
    1.7023   -3.2507    0.5718 H   0  0  0  0  0  0  0  0  0  0  0  0
  5  6  2  0  0  0  0
  5  7  1  0  0  0  0
  2  3  1  0  0  0  0
  2  4  1  0  0  0  0
  2  5  1  0  0  0  0
  1  2  1  0  0  0  0
 27 28  2  0  0  0  0
 27 29  1  0  0  0  0
 23 24  1  0  0  0  0
 23 25  1  0  0  0  0
 23 26  1  0  0  0  0
 20 21  1  0  0  0  0
 20 22  1  0  0  0  0
 20 23  1  0  0  0  0
 17 18  1  0  0  0  0
 17 19  1  0  0  0  0
 17 20  1  0  0  0  0
 14 15  1  0  0  0  0
 14 16  1  0  0  0  0
 14 17  1  0  0  0  0
 11 12  1  0  0  0  0
 11 13  1  0  0  0  0
 11 14  1  0  0  0  0
  9 10  1  0  0  0  0
  9 11  1  0  0  0  0
  9 27  1  0  0  0  0
  7  8  1  0  0  0  0
  7  9  1  0  0  0  0
 31 32  1  0  0  0  0
 31 33  1  0  0  0  0
 31 34  1  0  0  0  0
 29 30  1  0  0  0  0
 29 31  1  0  0  0  0
M  CHG  1  23   1
M  END
$$$$
default_name
  -OEChem-01062215323D

 34 33  0     1  0  0  0  0  0999 V2000
   -3.8899   -3.6747    1.6490 H   0  0  0  0  0  0  0  0  0  0  0  0
   -3.9109   -2.6717    1.2250 C   0  0  0  0  0  0  0  0  0  0  0  0
   -4.6009   -2.0517    1.7950 H   0  0  0  0  0  0  0  0  0  0  0  0
   -4.2309   -2.7237    0.1860 H   0  0  0  0  0  0  0  0  0  0  0  0
   -2.5229   -2.0787    1.2980 C   0  0  0  0  0  0  0  0  0  0  0  0
   -1.5999   -2.7227    1.7810 O   0  0  0  0  0  0  0  0  0  0  0  0
   -2.3659   -0.8447    0.8120 N   0  0  0  0  0  0  0  0  0  0  0  0
   -3.1749   -0.3807    0.4220 H   0  0  0  0  0  0  0  0  0  0  0  0
   -1.0919   -0.1077    0.8170 C   0  0  1  0  0  0  0  0  0  0  0  0
   -0.9505    0.3384   -0.1692 H   0  0  0  0  0  0  0  0  0  0  0  0
   -1.1819    1.0185    1.8638 C   0  0  0  0  0  0  0  0  0  0  0  0
   -1.4995    0.5856    2.8137 H   0  0  0  0  0  0  0  0  0  0  0  0
   -0.1923    1.4577    2.0042 H   0  0  0  0  0  0  0  0  0  0  0  0
   -2.1768    2.1248    1.4807 C   0  0  0  0  0  0  0  0  0  0  0  0
   -1.8876    2.5641    0.5250 H   0  0  0  0  0  0  0  0  0  0  0  0
   -3.1754    1.6935    1.3871 H   0  0  0  0  0  0  0  0  0  0  0  0
   -2.1957    3.2219    2.5540 C   0  0  0  0  0  0  0  0  0  0  0  0
   -2.4711    2.7761    3.5127 H   0  0  0  0  0  0  0  0  0  0  0  0
   -1.1974    3.6561    2.6370 H   0  0  0  0  0  0  0  0  0  0  0  0
   -3.2067    4.3148    2.1850 C   0  0  0  0  0  0  0  0  0  0  0  0
   -2.9181    4.7429    1.2195 H   0  0  0  0  0  0  0  0  0  0  0  0
   -4.1909    3.8519    2.0656 H   0  0  0  0  0  0  0  0  0  0  0  0
   -3.2628    5.3783    3.2196 N   0  3  0  0  0  0  0  0  0  0  0  0
   -2.3571    5.8176    3.3272 H   0  0  0  0  0  0  0  0  0  0  0  0
   -3.9340    6.0909    2.9615 H   0  0  0  0  0  0  0  0  0  0  0  0
   -3.5381    4.9885    4.1135 H   0  0  0  0  0  0  0  0  0  0  0  0
    0.0744   -1.0575    1.0992 C   0  0  0  0  0  0  0  0  0  0  0  0
    1.0848   -0.6312    1.6458 O   0  0  0  0  0  0  0  0  0  0  0  0
   -0.0590   -2.3252    0.6957 N   0  0  0  0  0  0  0  0  0  0  0  0
   -0.9358   -2.5977    0.2834 H   0  0  0  0  0  0  0  0  0  0  0  0
    0.9593   -3.3590    0.8909 C   0  0  0  0  0  0  0  0  0  0  0  0
    1.1288   -3.5125    1.9588 H   0  0  0  0  0  0  0  0  0  0  0  0
    0.6371   -4.3003    0.4442 H   0  0  0  0  0  0  0  0  0  0  0  0
    1.9012   -3.0472    0.4344 H   0  0  0  0  0  0  0  0  0  0  0  0
  5  6  2  0  0  0  0
  5  7  1  0  0  0  0
  2  3  1  0  0  0  0
  2  4  1  0  0  0  0
  2  5  1  0  0  0  0
  1  2  1  0  0  0  0
 27 28  2  0  0  0  0
 27 29  1  0  0  0  0
 23 24  1  0  0  0  0
 23 25  1  0  0  0  0
 23 26  1  0  0  0  0
 20 21  1  0  0  0  0
 20 22  1  0  0  0  0
 20 23  1  0  0  0  0
 17 18  1  0  0  0  0
 17 19  1  0  0  0  0
 17 20  1  0  0  0  0
 14 15  1  0  0  0  0
 14 16  1  0  0  0  0
 14 17  1  0  0  0  0
 11 12  1  0  0  0  0
 11 13  1  0  0  0  0
 11 14  1  0  0  0  0
  9 10  1  0  0  0  0
  9 11  1  0  0  0  0
  9 27  1  0  0  0  0
  7  8  1  0  0  0  0
  7  9  1  0  0  0  0
 31 32  1  0  0  0  0
 31 33  1  0  0  0  0
 31 34  1  0  0  0  0
 29 30  1  0  0  0  0
 29 31  1  0  0  0  0
M  CHG  1  23   1
M  END
$$$$
default_name
  -OEChem-01062215323D

 34 33  0     1  0  0  0  0  0999 V2000
   -3.8899   -3.6747    1.6490 H   0  0  0  0  0  0  0  0  0  0  0  0
   -3.9109   -2.6717    1.2250 C   0  0  0  0  0  0  0  0  0  0  0  0
   -4.6009   -2.0517    1.7950 H   0  0  0  0  0  0  0  0  0  0  0  0
   -4.2309   -2.7237    0.1860 H   0  0  0  0  0  0  0  0  0  0  0  0
   -2.5229   -2.0787    1.2980 C   0  0  0  0  0  0  0  0  0  0  0  0
   -1.5999   -2.7227    1.7810 O   0  0  0  0  0  0  0  0  0  0  0  0
   -2.3659   -0.8447    0.8120 N   0  0  0  0  0  0  0  0  0  0  0  0
   -3.1749   -0.3807    0.4220 H   0  0  0  0  0  0  0  0  0  0  0  0
   -1.0919   -0.1077    0.8170 C   0  0  1  0  0  0  0  0  0  0  0  0
   -0.9505    0.3384   -0.1692 H   0  0  0  0  0  0  0  0  0  0  0  0
   -1.1819    1.0185    1.8638 C   0  0  0  0  0  0  0  0  0  0  0  0
   -1.4995    0.5856    2.8137 H   0  0  0  0  0  0  0  0  0  0  0  0
   -0.1923    1.4577    2.0042 H   0  0  0  0  0  0  0  0  0  0  0  0
   -2.1768    2.1248    1.4807 C   0  0  0  0  0  0  0  0  0  0  0  0
   -1.8876    2.5641    0.5250 H   0  0  0  0  0  0  0  0  0  0  0  0
   -3.1754    1.6935    1.3871 H   0  0  0  0  0  0  0  0  0  0  0  0
   -2.1957    3.2219    2.5540 C   0  0  0  0  0  0  0  0  0  0  0  0
   -2.4711    2.7761    3.5127 H   0  0  0  0  0  0  0  0  0  0  0  0
   -1.1974    3.6561    2.6370 H   0  0  0  0  0  0  0  0  0  0  0  0
   -3.2067    4.3148    2.1850 C   0  0  0  0  0  0  0  0  0  0  0  0
   -2.9181    4.7429    1.2195 H   0  0  0  0  0  0  0  0  0  0  0  0
   -4.1909    3.8519    2.0656 H   0  0  0  0  0  0  0  0  0  0  0  0
   -3.2628    5.3783    3.2196 N   0  3  0  0  0  0  0  0  0  0  0  0
   -2.3571    5.8176    3.3272 H   0  0  0  0  0  0  0  0  0  0  0  0
   -3.9340    6.0909    2.9615 H   0  0  0  0  0  0  0  0  0  0  0  0
   -3.5381    4.9885    4.1135 H   0  0  0  0  0  0  0  0  0  0  0  0
    0.0744   -1.0575    1.0992 C   0  0  0  0  0  0  0  0  0  0  0  0
    0.9580   -0.7181    1.8774 O   0  0  0  0  0  0  0  0  0  0  0  0
    0.0868   -2.2218    0.4418 N   0  0  0  0  0  0  0  0  0  0  0  0
   -0.6959   -2.4332   -0.1547 H   0  0  0  0  0  0  0  0  0  0  0  0
    1.1260   -3.2409    0.5992 C   0  0  0  0  0  0  0  0  0  0  0  0
    1.1365   -3.6006    1.6303 H   0  0  0  0  0  0  0  0  0  0  0  0
    0.9382   -4.0828   -0.0681 H   0  0  0  0  0  0  0  0  0  0  0  0
    2.1058   -2.8140    0.3738 H   0  0  0  0  0  0  0  0  0  0  0  0
  5  6  2  0  0  0  0
  5  7  1  0  0  0  0
  2  3  1  0  0  0  0
  2  4  1  0  0  0  0
  2  5  1  0  0  0  0
  1  2  1  0  0  0  0
 27 28  2  0  0  0  0
 27 29  1  0  0  0  0
 23 24  1  0  0  0  0
 23 25  1  0  0  0  0
 23 26  1  0  0  0  0
 20 21  1  0  0  0  0
 20 22  1  0  0  0  0
 20 23  1  0  0  0  0
 17 18  1  0  0  0  0
 17 19  1  0  0  0  0
 17 20  1  0  0  0  0
 14 15  1  0  0  0  0
 14 16  1  0  0  0  0
 14 17  1  0  0  0  0
 11 12  1  0  0  0  0
 11 13  1  0  0  0  0
 11 14  1  0  0  0  0
  9 10  1  0  0  0  0
  9 11  1  0  0  0  0
  9 27  1  0  0  0  0
  7  8  1  0  0  0  0
  7  9  1  0  0  0  0
 31 32  1  0  0  0  0
 31 33  1  0  0  0  0
 31 34  1  0  0  0  0
 29 30  1  0  0  0  0
 29 31  1  0  0  0  0
M  CHG  1  23   1
M  END
$$$$
default_name
  -OEChem-01062215323D

 34 33  0     1  0  0  0  0  0999 V2000
   -3.8899   -3.6747    1.6490 H   0  0  0  0  0  0  0  0  0  0  0  0
   -3.9109   -2.6717    1.2250 C   0  0  0  0  0  0  0  0  0  0  0  0
   -4.6009   -2.0517    1.7950 H   0  0  0  0  0  0  0  0  0  0  0  0
   -4.2309   -2.7237    0.1860 H   0  0  0  0  0  0  0  0  0  0  0  0
   -2.5229   -2.0787    1.2980 C   0  0  0  0  0  0  0  0  0  0  0  0
   -1.5999   -2.7227    1.7810 O   0  0  0  0  0  0  0  0  0  0  0  0
   -2.3659   -0.8447    0.8120 N   0  0  0  0  0  0  0  0  0  0  0  0
   -3.1749   -0.3807    0.4220 H   0  0  0  0  0  0  0  0  0  0  0  0
   -1.0919   -0.1077    0.8170 C   0  0  1  0  0  0  0  0  0  0  0  0
   -0.9505    0.3384   -0.1692 H   0  0  0  0  0  0  0  0  0  0  0  0
   -1.1819    1.0185    1.8638 C   0  0  0  0  0  0  0  0  0  0  0  0
   -1.4995    0.5856    2.8137 H   0  0  0  0  0  0  0  0  0  0  0  0
   -0.1923    1.4577    2.0042 H   0  0  0  0  0  0  0  0  0  0  0  0
   -2.1768    2.1248    1.4807 C   0  0  0  0  0  0  0  0  0  0  0  0
   -1.8876    2.5641    0.5250 H   0  0  0  0  0  0  0  0  0  0  0  0
   -3.1754    1.6935    1.3871 H   0  0  0  0  0  0  0  0  0  0  0  0
   -2.1957    3.2219    2.5540 C   0  0  0  0  0  0  0  0  0  0  0  0
   -2.4711    2.7761    3.5127 H   0  0  0  0  0  0  0  0  0  0  0  0
   -1.1974    3.6561    2.6370 H   0  0  0  0  0  0  0  0  0  0  0  0
   -3.2067    4.3148    2.1850 C   0  0  0  0  0  0  0  0  0  0  0  0
   -2.9181    4.7429    1.2195 H   0  0  0  0  0  0  0  0  0  0  0  0
   -4.1909    3.8519    2.0656 H   0  0  0  0  0  0  0  0  0  0  0  0
   -3.2628    5.3783    3.2196 N   0  3  0  0  0  0  0  0  0  0  0  0
   -2.3571    5.8176    3.3272 H   0  0  0  0  0  0  0  0  0  0  0  0
   -3.9340    6.0909    2.9615 H   0  0  0  0  0  0  0  0  0  0  0  0
   -3.5381    4.9885    4.1135 H   0  0  0  0  0  0  0  0  0  0  0  0
    0.0744   -1.0575    1.0992 C   0  0  0  0  0  0  0  0  0  0  0  0
    0.8024   -0.8538    2.0635 O   0  0  0  0  0  0  0  0  0  0  0  0
    0.2634   -2.0648    0.2404 N   0  0  0  0  0  0  0  0  0  0  0  0
   -0.4017   -2.1766   -0.5068 H   0  0  0  0  0  0  0  0  0  0  0  0
    1.3283   -3.0613    0.3675 C   0  0  0  0  0  0  0  0  0  0  0  0
    1.2009   -3.6206    1.2968 H   0  0  0  0  0  0  0  0  0  0  0  0
    1.3009   -3.7573   -0.4717 H   0  0  0  0  0  0  0  0  0  0  0  0
    2.3019   -2.5671    0.3941 H   0  0  0  0  0  0  0  0  0  0  0  0
  5  6  2  0  0  0  0
  5  7  1  0  0  0  0
  2  3  1  0  0  0  0
  2  4  1  0  0  0  0
  2  5  1  0  0  0  0
  1  2  1  0  0  0  0
 27 28  2  0  0  0  0
 27 29  1  0  0  0  0
 23 24  1  0  0  0  0
 23 25  1  0  0  0  0
 23 26  1  0  0  0  0
 20 21  1  0  0  0  0
 20 22  1  0  0  0  0
 20 23  1  0  0  0  0
 17 18  1  0  0  0  0
 17 19  1  0  0  0  0
 17 20  1  0  0  0  0
 14 15  1  0  0  0  0
 14 16  1  0  0  0  0
 14 17  1  0  0  0  0
 11 12  1  0  0  0  0
 11 13  1  0  0  0  0
 11 14  1  0  0  0  0
  9 10  1  0  0  0  0
  9 11  1  0  0  0  0
  9 27  1  0  0  0  0
  7  8  1  0  0  0  0
  7  9  1  0  0  0  0
 31 32  1  0  0  0  0
 31 33  1  0  0  0  0
 31 34  1  0  0  0  0
 29 30  1  0  0  0  0
 29 31  1  0  0  0  0
M  CHG  1  23   1
M  END
$$$$
default_name
  -OEChem-01062215323D

 34 33  0     1  0  0  0  0  0999 V2000
   -3.8899   -3.6747    1.6490 H   0  0  0  0  0  0  0  0  0  0  0  0
   -3.9109   -2.6717    1.2250 C   0  0  0  0  0  0  0  0  0  0  0  0
   -4.6009   -2.0517    1.7950 H   0  0  0  0  0  0  0  0  0  0  0  0
   -4.2309   -2.7237    0.1860 H   0  0  0  0  0  0  0  0  0  0  0  0
   -2.5229   -2.0787    1.2980 C   0  0  0  0  0  0  0  0  0  0  0  0
   -1.5999   -2.7227    1.7810 O   0  0  0  0  0  0  0  0  0  0  0  0
   -2.3659   -0.8447    0.8120 N   0  0  0  0  0  0  0  0  0  0  0  0
   -3.1749   -0.3807    0.4220 H   0  0  0  0  0  0  0  0  0  0  0  0
   -1.0919   -0.1077    0.8170 C   0  0  1  0  0  0  0  0  0  0  0  0
   -0.9505    0.3384   -0.1692 H   0  0  0  0  0  0  0  0  0  0  0  0
   -1.1819    1.0185    1.8638 C   0  0  0  0  0  0  0  0  0  0  0  0
   -1.4995    0.5856    2.8137 H   0  0  0  0  0  0  0  0  0  0  0  0
   -0.1923    1.4577    2.0042 H   0  0  0  0  0  0  0  0  0  0  0  0
   -2.1768    2.1248    1.4807 C   0  0  0  0  0  0  0  0  0  0  0  0
   -1.8876    2.5641    0.5250 H   0  0  0  0  0  0  0  0  0  0  0  0
   -3.1754    1.6935    1.3871 H   0  0  0  0  0  0  0  0  0  0  0  0
   -2.1957    3.2219    2.5540 C   0  0  0  0  0  0  0  0  0  0  0  0
   -2.4711    2.7761    3.5127 H   0  0  0  0  0  0  0  0  0  0  0  0
   -1.1974    3.6561    2.6370 H   0  0  0  0  0  0  0  0  0  0  0  0
   -3.2067    4.3148    2.1850 C   0  0  0  0  0  0  0  0  0  0  0  0
   -2.9181    4.7429    1.2195 H   0  0  0  0  0  0  0  0  0  0  0  0
   -4.1909    3.8519    2.0656 H   0  0  0  0  0  0  0  0  0  0  0  0
   -3.2628    5.3783    3.2196 N   0  3  0  0  0  0  0  0  0  0  0  0
   -2.3571    5.8176    3.3272 H   0  0  0  0  0  0  0  0  0  0  0  0
   -3.9340    6.0909    2.9615 H   0  0  0  0  0  0  0  0  0  0  0  0
   -3.5381    4.9885    4.1135 H   0  0  0  0  0  0  0  0  0  0  0  0
    0.0744   -1.0575    1.0992 C   0  0  0  0  0  0  0  0  0  0  0  0
    0.6287   -1.0291    2.1916 O   0  0  0  0  0  0  0  0  0  0  0  0
    0.4588   -1.8649    0.1052 N   0  0  0  0  0  0  0  0  0  0  0  0
   -0.0732   -1.8451   -0.7491 H   0  0  0  0  0  0  0  0  0  0  0  0
    1.5524   -2.8325    0.2116 C   0  0  0  0  0  0  0  0  0  0  0  0
    1.3177   -3.5711    0.9811 H   0  0  0  0  0  0  0  0  0  0  0  0
    1.7005   -3.3460   -0.7391 H   0  0  0  0  0  0  0  0  0  0  0  0
    2.4764   -2.3233    0.4939 H   0  0  0  0  0  0  0  0  0  0  0  0
  5  6  2  0  0  0  0
  5  7  1  0  0  0  0
  2  3  1  0  0  0  0
  2  4  1  0  0  0  0
  2  5  1  0  0  0  0
  1  2  1  0  0  0  0
 27 28  2  0  0  0  0
 27 29  1  0  0  0  0
 23 24  1  0  0  0  0
 23 25  1  0  0  0  0
 23 26  1  0  0  0  0
 20 21  1  0  0  0  0
 20 22  1  0  0  0  0
 20 23  1  0  0  0  0
 17 18  1  0  0  0  0
 17 19  1  0  0  0  0
 17 20  1  0  0  0  0
 14 15  1  0  0  0  0
 14 16  1  0  0  0  0
 14 17  1  0  0  0  0
 11 12  1  0  0  0  0
 11 13  1  0  0  0  0
 11 14  1  0  0  0  0
  9 10  1  0  0  0  0
  9 11  1  0  0  0  0
  9 27  1  0  0  0  0
  7  8  1  0  0  0  0
  7  9  1  0  0  0  0
 31 32  1  0  0  0  0
 31 33  1  0  0  0  0
 31 34  1  0  0  0  0
 29 30  1  0  0  0  0
 29 31  1  0  0  0  0
M  CHG  1  23   1
M  END
$$$$
default_name
  -OEChem-01062215323D

 34 33  0     1  0  0  0  0  0999 V2000
   -3.8899   -3.6747    1.6490 H   0  0  0  0  0  0  0  0  0  0  0  0
   -3.9109   -2.6717    1.2250 C   0  0  0  0  0  0  0  0  0  0  0  0
   -4.6009   -2.0517    1.7950 H   0  0  0  0  0  0  0  0  0  0  0  0
   -4.2309   -2.7237    0.1860 H   0  0  0  0  0  0  0  0  0  0  0  0
   -2.5229   -2.0787    1.2980 C   0  0  0  0  0  0  0  0  0  0  0  0
   -1.5999   -2.7227    1.7810 O   0  0  0  0  0  0  0  0  0  0  0  0
   -2.3659   -0.8447    0.8120 N   0  0  0  0  0  0  0  0  0  0  0  0
   -3.1749   -0.3807    0.4220 H   0  0  0  0  0  0  0  0  0  0  0  0
   -1.0919   -0.1077    0.8170 C   0  0  1  0  0  0  0  0  0  0  0  0
   -0.9505    0.3384   -0.1692 H   0  0  0  0  0  0  0  0  0  0  0  0
   -1.1819    1.0185    1.8638 C   0  0  0  0  0  0  0  0  0  0  0  0
   -1.4995    0.5856    2.8137 H   0  0  0  0  0  0  0  0  0  0  0  0
   -0.1923    1.4577    2.0042 H   0  0  0  0  0  0  0  0  0  0  0  0
   -2.1768    2.1248    1.4807 C   0  0  0  0  0  0  0  0  0  0  0  0
   -1.8876    2.5641    0.5250 H   0  0  0  0  0  0  0  0  0  0  0  0
   -3.1754    1.6935    1.3871 H   0  0  0  0  0  0  0  0  0  0  0  0
   -2.1957    3.2219    2.5540 C   0  0  0  0  0  0  0  0  0  0  0  0
   -2.4711    2.7761    3.5127 H   0  0  0  0  0  0  0  0  0  0  0  0
   -1.1974    3.6561    2.6370 H   0  0  0  0  0  0  0  0  0  0  0  0
   -3.2067    4.3148    2.1850 C   0  0  0  0  0  0  0  0  0  0  0  0
   -2.9181    4.7429    1.2195 H   0  0  0  0  0  0  0  0  0  0  0  0
   -4.1909    3.8519    2.0656 H   0  0  0  0  0  0  0  0  0  0  0  0
   -3.2628    5.3783    3.2196 N   0  3  0  0  0  0  0  0  0  0  0  0
   -2.3571    5.8176    3.3272 H   0  0  0  0  0  0  0  0  0  0  0  0
   -3.9340    6.0909    2.9615 H   0  0  0  0  0  0  0  0  0  0  0  0
   -3.5381    4.9885    4.1135 H   0  0  0  0  0  0  0  0  0  0  0  0
    0.0744   -1.0575    1.0992 C   0  0  0  0  0  0  0  0  0  0  0  0
    0.4487   -1.2319    2.2529 O   0  0  0  0  0  0  0  0  0  0  0  0
    0.6598   -1.6359    0.0454 N   0  0  0  0  0  0  0  0  0  0  0  0
    0.2673   -1.4615   -0.8649 H   0  0  0  0  0  0  0  0  0  0  0  0
    1.7829   -2.5701    0.1421 C   0  0  0  0  0  0  0  0  0  0  0  0
    1.4788   -3.4554    0.7047 H   0  0  0  0  0  0  0  0  0  0  0  0
    2.1099   -2.8769   -0.8521 H   0  0  0  0  0  0  0  0  0  0  0  0
    2.6172   -2.0991    0.6665 H   0  0  0  0  0  0  0  0  0  0  0  0
  5  6  2  0  0  0  0
  5  7  1  0  0  0  0
  2  3  1  0  0  0  0
  2  4  1  0  0  0  0
  2  5  1  0  0  0  0
  1  2  1  0  0  0  0
 27 28  2  0  0  0  0
 27 29  1  0  0  0  0
 23 24  1  0  0  0  0
 23 25  1  0  0  0  0
 23 26  1  0  0  0  0
 20 21  1  0  0  0  0
 20 22  1  0  0  0  0
 20 23  1  0  0  0  0
 17 18  1  0  0  0  0
 17 19  1  0  0  0  0
 17 20  1  0  0  0  0
 14 15  1  0  0  0  0
 14 16  1  0  0  0  0
 14 17  1  0  0  0  0
 11 12  1  0  0  0  0
 11 13  1  0  0  0  0
 11 14  1  0  0  0  0
  9 10  1  0  0  0  0
  9 11  1  0  0  0  0
  9 27  1  0  0  0  0
  7  8  1  0  0  0  0
  7  9  1  0  0  0  0
 31 32  1  0  0  0  0
 31 33  1  0  0  0  0
 31 34  1  0  0  0  0
 29 30  1  0  0  0  0
 29 31  1  0  0  0  0
M  CHG  1  23   1
M  END
$$$$
default_name
  -OEChem-01062215323D

 34 33  0     1  0  0  0  0  0999 V2000
   -3.8899   -3.6747    1.6490 H   0  0  0  0  0  0  0  0  0  0  0  0
   -3.9109   -2.6717    1.2250 C   0  0  0  0  0  0  0  0  0  0  0  0
   -4.6009   -2.0517    1.7950 H   0  0  0  0  0  0  0  0  0  0  0  0
   -4.2309   -2.7237    0.1860 H   0  0  0  0  0  0  0  0  0  0  0  0
   -2.5229   -2.0787    1.2980 C   0  0  0  0  0  0  0  0  0  0  0  0
   -1.5999   -2.7227    1.7810 O   0  0  0  0  0  0  0  0  0  0  0  0
   -2.3659   -0.8447    0.8120 N   0  0  0  0  0  0  0  0  0  0  0  0
   -3.1749   -0.3807    0.4220 H   0  0  0  0  0  0  0  0  0  0  0  0
   -1.0919   -0.1077    0.8170 C   0  0  1  0  0  0  0  0  0  0  0  0
   -0.9505    0.3384   -0.1692 H   0  0  0  0  0  0  0  0  0  0  0  0
   -1.1819    1.0185    1.8638 C   0  0  0  0  0  0  0  0  0  0  0  0
   -1.4995    0.5856    2.8137 H   0  0  0  0  0  0  0  0  0  0  0  0
   -0.1923    1.4577    2.0042 H   0  0  0  0  0  0  0  0  0  0  0  0
   -2.1768    2.1248    1.4807 C   0  0  0  0  0  0  0  0  0  0  0  0
   -1.8876    2.5641    0.5250 H   0  0  0  0  0  0  0  0  0  0  0  0
   -3.1754    1.6935    1.3871 H   0  0  0  0  0  0  0  0  0  0  0  0
   -2.1957    3.2219    2.5540 C   0  0  0  0  0  0  0  0  0  0  0  0
   -2.4711    2.7761    3.5127 H   0  0  0  0  0  0  0  0  0  0  0  0
   -1.1974    3.6561    2.6370 H   0  0  0  0  0  0  0  0  0  0  0  0
   -3.2067    4.3148    2.1850 C   0  0  0  0  0  0  0  0  0  0  0  0
   -2.9181    4.7429    1.2195 H   0  0  0  0  0  0  0  0  0  0  0  0
   -4.1909    3.8519    2.0656 H   0  0  0  0  0  0  0  0  0  0  0  0
   -3.2628    5.3783    3.2196 N   0  3  0  0  0  0  0  0  0  0  0  0
   -2.3571    5.8176    3.3272 H   0  0  0  0  0  0  0  0  0  0  0  0
   -3.9340    6.0909    2.9615 H   0  0  0  0  0  0  0  0  0  0  0  0
   -3.5381    4.9885    4.1135 H   0  0  0  0  0  0  0  0  0  0  0  0
    0.0744   -1.0575    1.0992 C   0  0  0  0  0  0  0  0  0  0  0  0
    0.2747   -1.4484    2.2431 O   0  0  0  0  0  0  0  0  0  0  0  0
    0.8525   -1.3934    0.0651 N   0  0  0  0  0  0  0  0  0  0  0  0
    0.5964   -1.0519   -0.8465 H   0  0  0  0  0  0  0  0  0  0  0  0
    2.0042   -2.2919    0.1638 C   0  0  0  0  0  0  0  0  0  0  0  0
    1.6733   -3.2814    0.4864 H   0  0  0  0  0  0  0  0  0  0  0  0
    2.5011   -2.3820   -0.8029 H   0  0  0  0  0  0  0  0  0  0  0  0
    2.7148   -1.9098    0.9000 H   0  0  0  0  0  0  0  0  0  0  0  0
  5  6  2  0  0  0  0
  5  7  1  0  0  0  0
  2  3  1  0  0  0  0
  2  4  1  0  0  0  0
  2  5  1  0  0  0  0
  1  2  1  0  0  0  0
 27 28  2  0  0  0  0
 27 29  1  0  0  0  0
 23 24  1  0  0  0  0
 23 25  1  0  0  0  0
 23 26  1  0  0  0  0
 20 21  1  0  0  0  0
 20 22  1  0  0  0  0
 20 23  1  0  0  0  0
 17 18  1  0  0  0  0
 17 19  1  0  0  0  0
 17 20  1  0  0  0  0
 14 15  1  0  0  0  0
 14 16  1  0  0  0  0
 14 17  1  0  0  0  0
 11 12  1  0  0  0  0
 11 13  1  0  0  0  0
 11 14  1  0  0  0  0
  9 10  1  0  0  0  0
  9 11  1  0  0  0  0
  9 27  1  0  0  0  0
  7  8  1  0  0  0  0
  7  9  1  0  0  0  0
 31 32  1  0  0  0  0
 31 33  1  0  0  0  0
 31 34  1  0  0  0  0
 29 30  1  0  0  0  0
 29 31  1  0  0  0  0
M  CHG  1  23   1
M  END
$$$$
default_name
  -OEChem-01062215323D

 34 33  0     1  0  0  0  0  0999 V2000
   -3.8899   -3.6747    1.6490 H   0  0  0  0  0  0  0  0  0  0  0  0
   -3.9109   -2.6717    1.2250 C   0  0  0  0  0  0  0  0  0  0  0  0
   -4.6009   -2.0517    1.7950 H   0  0  0  0  0  0  0  0  0  0  0  0
   -4.2309   -2.7237    0.1860 H   0  0  0  0  0  0  0  0  0  0  0  0
   -2.5229   -2.0787    1.2980 C   0  0  0  0  0  0  0  0  0  0  0  0
   -1.5999   -2.7227    1.7810 O   0  0  0  0  0  0  0  0  0  0  0  0
   -2.3659   -0.8447    0.8120 N   0  0  0  0  0  0  0  0  0  0  0  0
   -3.1749   -0.3807    0.4220 H   0  0  0  0  0  0  0  0  0  0  0  0
   -1.0919   -0.1077    0.8170 C   0  0  1  0  0  0  0  0  0  0  0  0
   -0.9505    0.3384   -0.1692 H   0  0  0  0  0  0  0  0  0  0  0  0
   -1.1819    1.0185    1.8638 C   0  0  0  0  0  0  0  0  0  0  0  0
   -1.4995    0.5856    2.8137 H   0  0  0  0  0  0  0  0  0  0  0  0
   -0.1923    1.4577    2.0042 H   0  0  0  0  0  0  0  0  0  0  0  0
   -2.1768    2.1248    1.4807 C   0  0  0  0  0  0  0  0  0  0  0  0
   -1.8876    2.5641    0.5250 H   0  0  0  0  0  0  0  0  0  0  0  0
   -3.1754    1.6935    1.3871 H   0  0  0  0  0  0  0  0  0  0  0  0
   -2.1957    3.2219    2.5540 C   0  0  0  0  0  0  0  0  0  0  0  0
   -2.4711    2.7761    3.5127 H   0  0  0  0  0  0  0  0  0  0  0  0
   -1.1974    3.6561    2.6370 H   0  0  0  0  0  0  0  0  0  0  0  0
   -3.2067    4.3148    2.1850 C   0  0  0  0  0  0  0  0  0  0  0  0
   -2.9181    4.7429    1.2195 H   0  0  0  0  0  0  0  0  0  0  0  0
   -4.1909    3.8519    2.0656 H   0  0  0  0  0  0  0  0  0  0  0  0
   -3.2628    5.3783    3.2196 N   0  3  0  0  0  0  0  0  0  0  0  0
   -2.3571    5.8176    3.3272 H   0  0  0  0  0  0  0  0  0  0  0  0
   -3.9340    6.0909    2.9615 H   0  0  0  0  0  0  0  0  0  0  0  0
   -3.5381    4.9885    4.1135 H   0  0  0  0  0  0  0  0  0  0  0  0
    0.0744   -1.0575    1.0992 C   0  0  0  0  0  0  0  0  0  0  0  0
    0.1185   -1.6640    2.1630 O   0  0  0  0  0  0  0  0  0  0  0  0
    1.0240   -1.1537    0.1629 N   0  0  0  0  0  0  0  0  0  0  0  0
    0.8918   -0.6442   -0.6950 H   0  0  0  0  0  0  0  0  0  0  0  0
    2.2013   -2.0169    0.2751 C   0  0  0  0  0  0  0  0  0  0  0  0
    1.8880   -3.0610    0.3411 H   0  0  0  0  0  0  0  0  0  0  0  0
    2.8474   -1.8949   -0.5949 H   0  0  0  0  0  0  0  0  0  0  0  0
    2.7626   -1.7684    1.1785 H   0  0  0  0  0  0  0  0  0  0  0  0
  5  6  2  0  0  0  0
  5  7  1  0  0  0  0
  2  3  1  0  0  0  0
  2  4  1  0  0  0  0
  2  5  1  0  0  0  0
  1  2  1  0  0  0  0
 27 28  2  0  0  0  0
 27 29  1  0  0  0  0
 23 24  1  0  0  0  0
 23 25  1  0  0  0  0
 23 26  1  0  0  0  0
 20 21  1  0  0  0  0
 20 22  1  0  0  0  0
 20 23  1  0  0  0  0
 17 18  1  0  0  0  0
 17 19  1  0  0  0  0
 17 20  1  0  0  0  0
 14 15  1  0  0  0  0
 14 16  1  0  0  0  0
 14 17  1  0  0  0  0
 11 12  1  0  0  0  0
 11 13  1  0  0  0  0
 11 14  1  0  0  0  0
  9 10  1  0  0  0  0
  9 11  1  0  0  0  0
  9 27  1  0  0  0  0
  7  8  1  0  0  0  0
  7  9  1  0  0  0  0
 31 32  1  0  0  0  0
 31 33  1  0  0  0  0
 31 34  1  0  0  0  0
 29 30  1  0  0  0  0
 29 31  1  0  0  0  0
M  CHG  1  23   1
M  END
$$$$
default_name
  -OEChem-01062215323D

 34 33  0     1  0  0  0  0  0999 V2000
   -3.8899   -3.6747    1.6490 H   0  0  0  0  0  0  0  0  0  0  0  0
   -3.9109   -2.6717    1.2250 C   0  0  0  0  0  0  0  0  0  0  0  0
   -4.6009   -2.0517    1.7950 H   0  0  0  0  0  0  0  0  0  0  0  0
   -4.2309   -2.7237    0.1860 H   0  0  0  0  0  0  0  0  0  0  0  0
   -2.5229   -2.0787    1.2980 C   0  0  0  0  0  0  0  0  0  0  0  0
   -1.5999   -2.7227    1.7810 O   0  0  0  0  0  0  0  0  0  0  0  0
   -2.3659   -0.8447    0.8120 N   0  0  0  0  0  0  0  0  0  0  0  0
   -3.1749   -0.3807    0.4220 H   0  0  0  0  0  0  0  0  0  0  0  0
   -1.0919   -0.1077    0.8170 C   0  0  1  0  0  0  0  0  0  0  0  0
   -0.9505    0.3384   -0.1692 H   0  0  0  0  0  0  0  0  0  0  0  0
   -1.1819    1.0185    1.8638 C   0  0  0  0  0  0  0  0  0  0  0  0
   -1.4995    0.5856    2.8137 H   0  0  0  0  0  0  0  0  0  0  0  0
   -0.1923    1.4577    2.0042 H   0  0  0  0  0  0  0  0  0  0  0  0
   -2.1768    2.1248    1.4807 C   0  0  0  0  0  0  0  0  0  0  0  0
   -1.8876    2.5641    0.5250 H   0  0  0  0  0  0  0  0  0  0  0  0
   -3.1754    1.6935    1.3871 H   0  0  0  0  0  0  0  0  0  0  0  0
   -2.1957    3.2219    2.5540 C   0  0  0  0  0  0  0  0  0  0  0  0
   -2.4711    2.7761    3.5127 H   0  0  0  0  0  0  0  0  0  0  0  0
   -1.1974    3.6561    2.6370 H   0  0  0  0  0  0  0  0  0  0  0  0
   -3.2067    4.3148    2.1850 C   0  0  0  0  0  0  0  0  0  0  0  0
   -2.9181    4.7429    1.2195 H   0  0  0  0  0  0  0  0  0  0  0  0
   -4.1909    3.8519    2.0656 H   0  0  0  0  0  0  0  0  0  0  0  0
   -3.2628    5.3783    3.2196 N   0  3  0  0  0  0  0  0  0  0  0  0
   -2.3571    5.8176    3.3272 H   0  0  0  0  0  0  0  0  0  0  0  0
   -3.9340    6.0909    2.9615 H   0  0  0  0  0  0  0  0  0  0  0  0
   -3.5381    4.9885    4.1135 H   0  0  0  0  0  0  0  0  0  0  0  0
    0.0744   -1.0575    1.0992 C   0  0  0  0  0  0  0  0  0  0  0  0
   -0.0092   -1.8639    2.0180 O   0  0  0  0  0  0  0  0  0  0  0  0
    1.1625   -0.9334    0.3322 N   0  0  0  0  0  0  0  0  0  0  0  0
    1.1334   -0.2661   -0.4208 H   0  0  0  0  0  0  0  0  0  0  0  0
    2.3606   -1.7638    0.4686 C   0  0  0  0  0  0  0  0  0  0  0  0
    2.1081   -2.8092    0.2787 H   0  0  0  0  0  0  0  0  0  0  0  0
    3.1253   -1.4489   -0.2423 H   0  0  0  0  0  0  0  0  0  0  0  0
    2.7572   -1.6845    1.4831 H   0  0  0  0  0  0  0  0  0  0  0  0
  5  6  2  0  0  0  0
  5  7  1  0  0  0  0
  2  3  1  0  0  0  0
  2  4  1  0  0  0  0
  2  5  1  0  0  0  0
  1  2  1  0  0  0  0
 27 28  2  0  0  0  0
 27 29  1  0  0  0  0
 23 24  1  0  0  0  0
 23 25  1  0  0  0  0
 23 26  1  0  0  0  0
 20 21  1  0  0  0  0
 20 22  1  0  0  0  0
 20 23  1  0  0  0  0
 17 18  1  0  0  0  0
 17 19  1  0  0  0  0
 17 20  1  0  0  0  0
 14 15  1  0  0  0  0
 14 16  1  0  0  0  0
 14 17  1  0  0  0  0
 11 12  1  0  0  0  0
 11 13  1  0  0  0  0
 11 14  1  0  0  0  0
  9 10  1  0  0  0  0
  9 11  1  0  0  0  0
  9 27  1  0  0  0  0
  7  8  1  0  0  0  0
  7  9  1  0  0  0  0
 31 32  1  0  0  0  0
 31 33  1  0  0  0  0
 31 34  1  0  0  0  0
 29 30  1  0  0  0  0
 29 31  1  0  0  0  0
M  CHG  1  23   1
M  END
$$$$
default_name
  -OEChem-01062215323D

 34 33  0     1  0  0  0  0  0999 V2000
   -3.8899   -3.6747    1.6490 H   0  0  0  0  0  0  0  0  0  0  0  0
   -3.9109   -2.6717    1.2250 C   0  0  0  0  0  0  0  0  0  0  0  0
   -4.6009   -2.0517    1.7950 H   0  0  0  0  0  0  0  0  0  0  0  0
   -4.2309   -2.7237    0.1860 H   0  0  0  0  0  0  0  0  0  0  0  0
   -2.5229   -2.0787    1.2980 C   0  0  0  0  0  0  0  0  0  0  0  0
   -1.5999   -2.7227    1.7810 O   0  0  0  0  0  0  0  0  0  0  0  0
   -2.3659   -0.8447    0.8120 N   0  0  0  0  0  0  0  0  0  0  0  0
   -3.1749   -0.3807    0.4220 H   0  0  0  0  0  0  0  0  0  0  0  0
   -1.0919   -0.1077    0.8170 C   0  0  1  0  0  0  0  0  0  0  0  0
   -0.9505    0.3384   -0.1692 H   0  0  0  0  0  0  0  0  0  0  0  0
   -1.1819    1.0185    1.8638 C   0  0  0  0  0  0  0  0  0  0  0  0
   -1.4995    0.5856    2.8137 H   0  0  0  0  0  0  0  0  0  0  0  0
   -0.1923    1.4577    2.0042 H   0  0  0  0  0  0  0  0  0  0  0  0
   -2.1768    2.1248    1.4807 C   0  0  0  0  0  0  0  0  0  0  0  0
   -1.8876    2.5641    0.5250 H   0  0  0  0  0  0  0  0  0  0  0  0
   -3.1754    1.6935    1.3871 H   0  0  0  0  0  0  0  0  0  0  0  0
   -2.1957    3.2219    2.5540 C   0  0  0  0  0  0  0  0  0  0  0  0
   -2.4711    2.7761    3.5127 H   0  0  0  0  0  0  0  0  0  0  0  0
   -1.1974    3.6561    2.6370 H   0  0  0  0  0  0  0  0  0  0  0  0
   -3.2067    4.3148    2.1850 C   0  0  0  0  0  0  0  0  0  0  0  0
   -2.9181    4.7429    1.2195 H   0  0  0  0  0  0  0  0  0  0  0  0
   -4.1909    3.8519    2.0656 H   0  0  0  0  0  0  0  0  0  0  0  0
   -3.2628    5.3783    3.2196 N   0  3  0  0  0  0  0  0  0  0  0  0
   -2.3571    5.8176    3.3272 H   0  0  0  0  0  0  0  0  0  0  0  0
   -3.9340    6.0909    2.9615 H   0  0  0  0  0  0  0  0  0  0  0  0
   -3.5381    4.9885    4.1135 H   0  0  0  0  0  0  0  0  0  0  0  0
    0.0744   -1.0575    1.0992 C   0  0  0  0  0  0  0  0  0  0  0  0
   -0.0997   -2.0345    1.8181 O   0  0  0  0  0  0  0  0  0  0  0  0
    1.2586   -0.7473    0.5615 N   0  0  0  0  0  0  0  0  0  0  0  0
    1.3046    0.0565   -0.0425 H   0  0  0  0  0  0  0  0  0  0  0  0
    2.4713   -1.5499    0.7310 C   0  0  0  0  0  0  0  0  0  0  0  0
    2.3188   -2.5432    0.3034 H   0  0  0  0  0  0  0  0  0  0  0  0
    3.3158   -1.0745    0.2308 H   0  0  0  0  0  0  0  0  0  0  0  0
    2.6991   -1.6638    1.7931 H   0  0  0  0  0  0  0  0  0  0  0  0
  5  6  2  0  0  0  0
  5  7  1  0  0  0  0
  2  3  1  0  0  0  0
  2  4  1  0  0  0  0
  2  5  1  0  0  0  0
  1  2  1  0  0  0  0
 27 28  2  0  0  0  0
 27 29  1  0  0  0  0
 23 24  1  0  0  0  0
 23 25  1  0  0  0  0
 23 26  1  0  0  0  0
 20 21  1  0  0  0  0
 20 22  1  0  0  0  0
 20 23  1  0  0  0  0
 17 18  1  0  0  0  0
 17 19  1  0  0  0  0
 17 20  1  0  0  0  0
 14 15  1  0  0  0  0
 14 16  1  0  0  0  0
 14 17  1  0  0  0  0
 11 12  1  0  0  0  0
 11 13  1  0  0  0  0
 11 14  1  0  0  0  0
  9 10  1  0  0  0  0
  9 11  1  0  0  0  0
  9 27  1  0  0  0  0
  7  8  1  0  0  0  0
  7  9  1  0  0  0  0
 31 32  1  0  0  0  0
 31 33  1  0  0  0  0
 31 34  1  0  0  0  0
 29 30  1  0  0  0  0
 29 31  1  0  0  0  0
M  CHG  1  23   1
M  END
$$$$
default_name
  -OEChem-01062215323D

 34 33  0     1  0  0  0  0  0999 V2000
   -3.8899   -3.6747    1.6490 H   0  0  0  0  0  0  0  0  0  0  0  0
   -3.9109   -2.6717    1.2250 C   0  0  0  0  0  0  0  0  0  0  0  0
   -4.6009   -2.0517    1.7950 H   0  0  0  0  0  0  0  0  0  0  0  0
   -4.2309   -2.7237    0.1860 H   0  0  0  0  0  0  0  0  0  0  0  0
   -2.5229   -2.0787    1.2980 C   0  0  0  0  0  0  0  0  0  0  0  0
   -1.5999   -2.7227    1.7810 O   0  0  0  0  0  0  0  0  0  0  0  0
   -2.3659   -0.8447    0.8120 N   0  0  0  0  0  0  0  0  0  0  0  0
   -3.1749   -0.3807    0.4220 H   0  0  0  0  0  0  0  0  0  0  0  0
   -1.0919   -0.1077    0.8170 C   0  0  1  0  0  0  0  0  0  0  0  0
   -0.9505    0.3384   -0.1692 H   0  0  0  0  0  0  0  0  0  0  0  0
   -1.1819    1.0185    1.8638 C   0  0  0  0  0  0  0  0  0  0  0  0
   -1.4995    0.5856    2.8137 H   0  0  0  0  0  0  0  0  0  0  0  0
   -0.1923    1.4577    2.0042 H   0  0  0  0  0  0  0  0  0  0  0  0
   -2.1768    2.1248    1.4807 C   0  0  0  0  0  0  0  0  0  0  0  0
   -1.8876    2.5641    0.5250 H   0  0  0  0  0  0  0  0  0  0  0  0
   -3.1754    1.6935    1.3871 H   0  0  0  0  0  0  0  0  0  0  0  0
   -2.1957    3.2219    2.5540 C   0  0  0  0  0  0  0  0  0  0  0  0
   -2.4711    2.7761    3.5127 H   0  0  0  0  0  0  0  0  0  0  0  0
   -1.1974    3.6561    2.6370 H   0  0  0  0  0  0  0  0  0  0  0  0
   -3.2067    4.3148    2.1850 C   0  0  0  0  0  0  0  0  0  0  0  0
   -2.9181    4.7429    1.2195 H   0  0  0  0  0  0  0  0  0  0  0  0
   -4.1909    3.8519    2.0656 H   0  0  0  0  0  0  0  0  0  0  0  0
   -3.2628    5.3783    3.2196 N   0  3  0  0  0  0  0  0  0  0  0  0
   -2.3571    5.8176    3.3272 H   0  0  0  0  0  0  0  0  0  0  0  0
   -3.9340    6.0909    2.9615 H   0  0  0  0  0  0  0  0  0  0  0  0
   -3.5381    4.9885    4.1135 H   0  0  0  0  0  0  0  0  0  0  0  0
    0.0744   -1.0575    1.0992 C   0  0  0  0  0  0  0  0  0  0  0  0
   -0.1469   -2.1641    1.5767 O   0  0  0  0  0  0  0  0  0  0  0  0
    1.3056   -0.6082    0.8351 N   0  0  0  0  0  0  0  0  0  0  0  0
    1.3938    0.3017    0.4139 H   0  0  0  0  0  0  0  0  0  0  0  0
    2.5258   -1.3897    1.0444 C   0  0  0  0  0  0  0  0  0  0  0  0
    2.5056   -2.2810    0.4136 H   0  0  0  0  0  0  0  0  0  0  0  0
    3.4059   -0.7970    0.7923 H   0  0  0  0  0  0  0  0  0  0  0  0
    2.5921   -1.7077    2.0872 H   0  0  0  0  0  0  0  0  0  0  0  0
  5  6  2  0  0  0  0
  5  7  1  0  0  0  0
  2  3  1  0  0  0  0
  2  4  1  0  0  0  0
  2  5  1  0  0  0  0
  1  2  1  0  0  0  0
 27 28  2  0  0  0  0
 27 29  1  0  0  0  0
 23 24  1  0  0  0  0
 23 25  1  0  0  0  0
 23 26  1  0  0  0  0
 20 21  1  0  0  0  0
 20 22  1  0  0  0  0
 20 23  1  0  0  0  0
 17 18  1  0  0  0  0
 17 19  1  0  0  0  0
 17 20  1  0  0  0  0
 14 15  1  0  0  0  0
 14 16  1  0  0  0  0
 14 17  1  0  0  0  0
 11 12  1  0  0  0  0
 11 13  1  0  0  0  0
 11 14  1  0  0  0  0
  9 10  1  0  0  0  0
  9 11  1  0  0  0  0
  9 27  1  0  0  0  0
  7  8  1  0  0  0  0
  7  9  1  0  0  0  0
 31 32  1  0  0  0  0
 31 33  1  0  0  0  0
 31 34  1  0  0  0  0
 29 30  1  0  0  0  0
 29 31  1  0  0  0  0
M  CHG  1  23   1
M  END
$$$$
default_name
  -OEChem-01062215323D

 34 33  0     1  0  0  0  0  0999 V2000
   -3.8899   -3.6747    1.6490 H   0  0  0  0  0  0  0  0  0  0  0  0
   -3.9109   -2.6717    1.2250 C   0  0  0  0  0  0  0  0  0  0  0  0
   -4.6009   -2.0517    1.7950 H   0  0  0  0  0  0  0  0  0  0  0  0
   -4.2309   -2.7237    0.1860 H   0  0  0  0  0  0  0  0  0  0  0  0
   -2.5229   -2.0787    1.2980 C   0  0  0  0  0  0  0  0  0  0  0  0
   -1.5999   -2.7227    1.7810 O   0  0  0  0  0  0  0  0  0  0  0  0
   -2.3659   -0.8447    0.8120 N   0  0  0  0  0  0  0  0  0  0  0  0
   -3.1749   -0.3807    0.4220 H   0  0  0  0  0  0  0  0  0  0  0  0
   -1.0919   -0.1077    0.8170 C   0  0  1  0  0  0  0  0  0  0  0  0
   -1.0734    0.5501   -0.0539 H   0  0  0  0  0  0  0  0  0  0  0  0
   -1.0297    0.7539    2.0922 C   0  0  0  0  0  0  0  0  0  0  0  0
   -1.2274    0.1143    2.9538 H   0  0  0  0  0  0  0  0  0  0  0  0
   -0.0242    1.1659    2.1980 H   0  0  0  0  0  0  0  0  0  0  0  0
   -2.0504    1.9022    2.0988 C   0  0  0  0  0  0  0  0  0  0  0  0
   -1.8816    2.5488    1.2367 H   0  0  0  0  0  0  0  0  0  0  0  0
   -3.0586    1.4872    2.0411 H   0  0  0  0  0  0  0  0  0  0  0  0
   -1.9148    2.7306    3.3839 C   0  0  0  0  0  0  0  0  0  0  0  0
   -2.0696    2.0771    4.2457 H   0  0  0  0  0  0  0  0  0  0  0  0
   -0.9082    3.1507    3.4321 H   0  0  0  0  0  0  0  0  0  0  0  0
   -2.9498    3.8624    3.4033 C   0  0  0  0  0  0  0  0  0  0  0  0
   -2.7829    4.5003    2.5293 H   0  0  0  0  0  0  0  0  0  0  0  0
   -3.9475    3.4227    3.3117 H   0  0  0  0  0  0  0  0  0  0  0  0
   -2.8564    4.6661    4.6482 N   0  3  0  0  0  0  0  0  0  0  0  0
   -1.9384    5.0843    4.7333 H   0  0  0  0  0  0  0  0  0  0  0  0
   -3.5455    5.4078    4.6456 H   0  0  0  0  0  0  0  0  0  0  0  0
   -3.0189    4.0818    5.4600 H   0  0  0  0  0  0  0  0  0  0  0  0
    0.0878   -1.0782    0.7257 C   0  0  0  0  0  0  0  0  0  0  0  0
   -0.1212   -2.2852    0.6926 O   0  0  0  0  0  0  0  0  0  0  0  0
    1.3154   -0.5485    0.7200 N   0  0  0  0  0  0  0  0  0  0  0  0
    1.3946    0.4549    0.7177 H   0  0  0  0  0  0  0  0  0  0  0  0
    2.5472   -1.3352    0.6343 C   0  0  0  0  0  0  0  0  0  0  0  0
    2.5690   -1.8845   -0.3093 H   0  0  0  0  0  0  0  0  0  0  0  0
    3.4200   -0.6833    0.6853 H   0  0  0  0  0  0  0  0  0  0  0  0
    2.5881   -2.0567    1.4533 H   0  0  0  0  0  0  0  0  0  0  0  0
  5  6  2  0  0  0  0
  5  7  1  0  0  0  0
  2  3  1  0  0  0  0
  2  4  1  0  0  0  0
  2  5  1  0  0  0  0
  1  2  1  0  0  0  0
 27 28  2  0  0  0  0
 27 29  1  0  0  0  0
 23 24  1  0  0  0  0
 23 25  1  0  0  0  0
 23 26  1  0  0  0  0
 20 21  1  0  0  0  0
 20 22  1  0  0  0  0
 20 23  1  0  0  0  0
 17 18  1  0  0  0  0
 17 19  1  0  0  0  0
 17 20  1  0  0  0  0
 14 15  1  0  0  0  0
 14 16  1  0  0  0  0
 14 17  1  0  0  0  0
 11 12  1  0  0  0  0
 11 13  1  0  0  0  0
 11 14  1  0  0  0  0
  9 10  1  0  0  0  0
  9 11  1  0  0  0  0
  9 27  1  0  0  0  0
  7  8  1  0  0  0  0
  7  9  1  0  0  0  0
 31 32  1  0  0  0  0
 31 33  1  0  0  0  0
 31 34  1  0  0  0  0
 29 30  1  0  0  0  0
 29 31  1  0  0  0  0
M  CHG  1  23   1
M  END
$$$$
default_name
  -OEChem-01062215323D

 34 33  0     1  0  0  0  0  0999 V2000
   -3.8899   -3.6747    1.6490 H   0  0  0  0  0  0  0  0  0  0  0  0
   -3.9109   -2.6717    1.2250 C   0  0  0  0  0  0  0  0  0  0  0  0
   -4.6009   -2.0517    1.7950 H   0  0  0  0  0  0  0  0  0  0  0  0
   -4.2309   -2.7237    0.1860 H   0  0  0  0  0  0  0  0  0  0  0  0
   -2.5229   -2.0787    1.2980 C   0  0  0  0  0  0  0  0  0  0  0  0
   -1.5999   -2.7227    1.7810 O   0  0  0  0  0  0  0  0  0  0  0  0
   -2.3659   -0.8447    0.8120 N   0  0  0  0  0  0  0  0  0  0  0  0
   -3.1749   -0.3807    0.4220 H   0  0  0  0  0  0  0  0  0  0  0  0
   -1.0919   -0.1077    0.8170 C   0  0  1  0  0  0  0  0  0  0  0  0
   -1.0734    0.5501   -0.0539 H   0  0  0  0  0  0  0  0  0  0  0  0
   -1.0297    0.7539    2.0922 C   0  0  0  0  0  0  0  0  0  0  0  0
   -1.2274    0.1143    2.9538 H   0  0  0  0  0  0  0  0  0  0  0  0
   -0.0242    1.1659    2.1980 H   0  0  0  0  0  0  0  0  0  0  0  0
   -2.0504    1.9022    2.0988 C   0  0  0  0  0  0  0  0  0  0  0  0
   -1.8816    2.5488    1.2367 H   0  0  0  0  0  0  0  0  0  0  0  0
   -3.0586    1.4872    2.0411 H   0  0  0  0  0  0  0  0  0  0  0  0
   -1.9148    2.7306    3.3839 C   0  0  0  0  0  0  0  0  0  0  0  0
   -2.0696    2.0771    4.2457 H   0  0  0  0  0  0  0  0  0  0  0  0
   -0.9082    3.1507    3.4321 H   0  0  0  0  0  0  0  0  0  0  0  0
   -2.9498    3.8624    3.4033 C   0  0  0  0  0  0  0  0  0  0  0  0
   -2.7829    4.5003    2.5293 H   0  0  0  0  0  0  0  0  0  0  0  0
   -3.9475    3.4227    3.3117 H   0  0  0  0  0  0  0  0  0  0  0  0
   -2.8564    4.6661    4.6482 N   0  3  0  0  0  0  0  0  0  0  0  0
   -1.9384    5.0843    4.7333 H   0  0  0  0  0  0  0  0  0  0  0  0
   -3.5455    5.4078    4.6456 H   0  0  0  0  0  0  0  0  0  0  0  0
   -3.0189    4.0818    5.4600 H   0  0  0  0  0  0  0  0  0  0  0  0
    0.0878   -1.0782    0.7257 C   0  0  0  0  0  0  0  0  0  0  0  0
   -0.1114   -2.2473    0.4174 O   0  0  0  0  0  0  0  0  0  0  0  0
    1.2988   -0.5976    1.0262 N   0  0  0  0  0  0  0  0  0  0  0  0
    1.3759    0.3833    1.2383 H   0  0  0  0  0  0  0  0  0  0  0  0
    2.5287   -1.3908    0.9857 C   0  0  0  0  0  0  0  0  0  0  0  0
    2.7072   -1.7425   -0.0327 H   0  0  0  0  0  0  0  0  0  0  0  0
    3.3801   -0.7902    1.3077 H   0  0  0  0  0  0  0  0  0  0  0  0
    2.4341   -2.2613    1.6386 H   0  0  0  0  0  0  0  0  0  0  0  0
  5  6  2  0  0  0  0
  5  7  1  0  0  0  0
  2  3  1  0  0  0  0
  2  4  1  0  0  0  0
  2  5  1  0  0  0  0
  1  2  1  0  0  0  0
 27 28  2  0  0  0  0
 27 29  1  0  0  0  0
 23 24  1  0  0  0  0
 23 25  1  0  0  0  0
 23 26  1  0  0  0  0
 20 21  1  0  0  0  0
 20 22  1  0  0  0  0
 20 23  1  0  0  0  0
 17 18  1  0  0  0  0
 17 19  1  0  0  0  0
 17 20  1  0  0  0  0
 14 15  1  0  0  0  0
 14 16  1  0  0  0  0
 14 17  1  0  0  0  0
 11 12  1  0  0  0  0
 11 13  1  0  0  0  0
 11 14  1  0  0  0  0
  9 10  1  0  0  0  0
  9 11  1  0  0  0  0
  9 27  1  0  0  0  0
  7  8  1  0  0  0  0
  7  9  1  0  0  0  0
 31 32  1  0  0  0  0
 31 33  1  0  0  0  0
 31 34  1  0  0  0  0
 29 30  1  0  0  0  0
 29 31  1  0  0  0  0
M  CHG  1  23   1
M  END
$$$$
default_name
  -OEChem-01062215323D

 34 33  0     1  0  0  0  0  0999 V2000
   -3.8899   -3.6747    1.6490 H   0  0  0  0  0  0  0  0  0  0  0  0
   -3.9109   -2.6717    1.2250 C   0  0  0  0  0  0  0  0  0  0  0  0
   -4.6009   -2.0517    1.7950 H   0  0  0  0  0  0  0  0  0  0  0  0
   -4.2309   -2.7237    0.1860 H   0  0  0  0  0  0  0  0  0  0  0  0
   -2.5229   -2.0787    1.2980 C   0  0  0  0  0  0  0  0  0  0  0  0
   -1.5999   -2.7227    1.7810 O   0  0  0  0  0  0  0  0  0  0  0  0
   -2.3659   -0.8447    0.8120 N   0  0  0  0  0  0  0  0  0  0  0  0
   -3.1749   -0.3807    0.4220 H   0  0  0  0  0  0  0  0  0  0  0  0
   -1.0919   -0.1077    0.8170 C   0  0  1  0  0  0  0  0  0  0  0  0
   -1.0734    0.5501   -0.0539 H   0  0  0  0  0  0  0  0  0  0  0  0
   -1.0297    0.7539    2.0922 C   0  0  0  0  0  0  0  0  0  0  0  0
   -1.2274    0.1143    2.9538 H   0  0  0  0  0  0  0  0  0  0  0  0
   -0.0242    1.1659    2.1980 H   0  0  0  0  0  0  0  0  0  0  0  0
   -2.0504    1.9022    2.0988 C   0  0  0  0  0  0  0  0  0  0  0  0
   -1.8816    2.5488    1.2367 H   0  0  0  0  0  0  0  0  0  0  0  0
   -3.0586    1.4872    2.0411 H   0  0  0  0  0  0  0  0  0  0  0  0
   -1.9148    2.7306    3.3839 C   0  0  0  0  0  0  0  0  0  0  0  0
   -2.0696    2.0771    4.2457 H   0  0  0  0  0  0  0  0  0  0  0  0
   -0.9082    3.1507    3.4321 H   0  0  0  0  0  0  0  0  0  0  0  0
   -2.9498    3.8624    3.4033 C   0  0  0  0  0  0  0  0  0  0  0  0
   -2.7829    4.5003    2.5293 H   0  0  0  0  0  0  0  0  0  0  0  0
   -3.9475    3.4227    3.3117 H   0  0  0  0  0  0  0  0  0  0  0  0
   -2.8564    4.6661    4.6482 N   0  3  0  0  0  0  0  0  0  0  0  0
   -1.9384    5.0843    4.7333 H   0  0  0  0  0  0  0  0  0  0  0  0
   -3.5455    5.4078    4.6456 H   0  0  0  0  0  0  0  0  0  0  0  0
   -3.0189    4.0818    5.4600 H   0  0  0  0  0  0  0  0  0  0  0  0
    0.0878   -1.0782    0.7257 C   0  0  0  0  0  0  0  0  0  0  0  0
   -0.0561   -2.1560    0.1607 O   0  0  0  0  0  0  0  0  0  0  0  0
    1.2316   -0.7058    1.3093 N   0  0  0  0  0  0  0  0  0  0  0  0
    1.2714    0.2106    1.7238 H   0  0  0  0  0  0  0  0  0  0  0  0
    2.4522   -1.5143    1.3109 C   0  0  0  0  0  0  0  0  0  0  0  0
    2.7975   -1.6627    0.2854 H   0  0  0  0  0  0  0  0  0  0  0  0
    3.2378   -1.0172    1.8810 H   0  0  0  0  0  0  0  0  0  0  0  0
    2.2518   -2.4934    1.7514 H   0  0  0  0  0  0  0  0  0  0  0  0
  5  6  2  0  0  0  0
  5  7  1  0  0  0  0
  2  3  1  0  0  0  0
  2  4  1  0  0  0  0
  2  5  1  0  0  0  0
  1  2  1  0  0  0  0
 27 28  2  0  0  0  0
 27 29  1  0  0  0  0
 23 24  1  0  0  0  0
 23 25  1  0  0  0  0
 23 26  1  0  0  0  0
 20 21  1  0  0  0  0
 20 22  1  0  0  0  0
 20 23  1  0  0  0  0
 17 18  1  0  0  0  0
 17 19  1  0  0  0  0
 17 20  1  0  0  0  0
 14 15  1  0  0  0  0
 14 16  1  0  0  0  0
 14 17  1  0  0  0  0
 11 12  1  0  0  0  0
 11 13  1  0  0  0  0
 11 14  1  0  0  0  0
  9 10  1  0  0  0  0
  9 11  1  0  0  0  0
  9 27  1  0  0  0  0
  7  8  1  0  0  0  0
  7  9  1  0  0  0  0
 31 32  1  0  0  0  0
 31 33  1  0  0  0  0
 31 34  1  0  0  0  0
 29 30  1  0  0  0  0
 29 31  1  0  0  0  0
M  CHG  1  23   1
M  END
$$$$
default_name
  -OEChem-01062215323D

 34 33  0     1  0  0  0  0  0999 V2000
   -3.8899   -3.6747    1.6490 H   0  0  0  0  0  0  0  0  0  0  0  0
   -3.9109   -2.6717    1.2250 C   0  0  0  0  0  0  0  0  0  0  0  0
   -4.6009   -2.0517    1.7950 H   0  0  0  0  0  0  0  0  0  0  0  0
   -4.2309   -2.7237    0.1860 H   0  0  0  0  0  0  0  0  0  0  0  0
   -2.5229   -2.0787    1.2980 C   0  0  0  0  0  0  0  0  0  0  0  0
   -1.5999   -2.7227    1.7810 O   0  0  0  0  0  0  0  0  0  0  0  0
   -2.3659   -0.8447    0.8120 N   0  0  0  0  0  0  0  0  0  0  0  0
   -3.1749   -0.3807    0.4220 H   0  0  0  0  0  0  0  0  0  0  0  0
   -1.0919   -0.1077    0.8170 C   0  0  1  0  0  0  0  0  0  0  0  0
   -1.0734    0.5501   -0.0539 H   0  0  0  0  0  0  0  0  0  0  0  0
   -1.0297    0.7539    2.0922 C   0  0  0  0  0  0  0  0  0  0  0  0
   -1.2274    0.1143    2.9538 H   0  0  0  0  0  0  0  0  0  0  0  0
   -0.0242    1.1659    2.1980 H   0  0  0  0  0  0  0  0  0  0  0  0
   -2.0504    1.9022    2.0988 C   0  0  0  0  0  0  0  0  0  0  0  0
   -1.8816    2.5488    1.2367 H   0  0  0  0  0  0  0  0  0  0  0  0
   -3.0586    1.4872    2.0411 H   0  0  0  0  0  0  0  0  0  0  0  0
   -1.9148    2.7306    3.3839 C   0  0  0  0  0  0  0  0  0  0  0  0
   -2.0696    2.0771    4.2457 H   0  0  0  0  0  0  0  0  0  0  0  0
   -0.9082    3.1507    3.4321 H   0  0  0  0  0  0  0  0  0  0  0  0
   -2.9498    3.8624    3.4033 C   0  0  0  0  0  0  0  0  0  0  0  0
   -2.7829    4.5003    2.5293 H   0  0  0  0  0  0  0  0  0  0  0  0
   -3.9475    3.4227    3.3117 H   0  0  0  0  0  0  0  0  0  0  0  0
   -2.8564    4.6661    4.6482 N   0  3  0  0  0  0  0  0  0  0  0  0
   -1.9384    5.0843    4.7333 H   0  0  0  0  0  0  0  0  0  0  0  0
   -3.5455    5.4078    4.6456 H   0  0  0  0  0  0  0  0  0  0  0  0
   -3.0189    4.0818    5.4600 H   0  0  0  0  0  0  0  0  0  0  0  0
    0.0878   -1.0782    0.7257 C   0  0  0  0  0  0  0  0  0  0  0  0
    0.0408   -2.0174   -0.0599 O   0  0  0  0  0  0  0  0  0  0  0  0
    1.1187   -0.8658    1.5502 N   0  0  0  0  0  0  0  0  0  0  0  0
    1.0881   -0.0515    2.1411 H   0  0  0  0  0  0  0  0  0  0  0  0
    2.3231   -1.6974    1.5878 C   0  0  0  0  0  0  0  0  0  0  0  0
    2.8337   -1.6505    0.6235 H   0  0  0  0  0  0  0  0  0  0  0  0
    3.0028   -1.3485    2.3661 H   0  0  0  0  0  0  0  0  0  0  0  0
    2.0537   -2.7374    1.7842 H   0  0  0  0  0  0  0  0  0  0  0  0
  5  6  2  0  0  0  0
  5  7  1  0  0  0  0
  2  3  1  0  0  0  0
  2  4  1  0  0  0  0
  2  5  1  0  0  0  0
  1  2  1  0  0  0  0
 27 28  2  0  0  0  0
 27 29  1  0  0  0  0
 23 24  1  0  0  0  0
 23 25  1  0  0  0  0
 23 26  1  0  0  0  0
 20 21  1  0  0  0  0
 20 22  1  0  0  0  0
 20 23  1  0  0  0  0
 17 18  1  0  0  0  0
 17 19  1  0  0  0  0
 17 20  1  0  0  0  0
 14 15  1  0  0  0  0
 14 16  1  0  0  0  0
 14 17  1  0  0  0  0
 11 12  1  0  0  0  0
 11 13  1  0  0  0  0
 11 14  1  0  0  0  0
  9 10  1  0  0  0  0
  9 11  1  0  0  0  0
  9 27  1  0  0  0  0
  7  8  1  0  0  0  0
  7  9  1  0  0  0  0
 31 32  1  0  0  0  0
 31 33  1  0  0  0  0
 31 34  1  0  0  0  0
 29 30  1  0  0  0  0
 29 31  1  0  0  0  0
M  CHG  1  23   1
M  END
$$$$
default_name
  -OEChem-01062215323D

 34 33  0     1  0  0  0  0  0999 V2000
   -3.8899   -3.6747    1.6490 H   0  0  0  0  0  0  0  0  0  0  0  0
   -3.9109   -2.6717    1.2250 C   0  0  0  0  0  0  0  0  0  0  0  0
   -4.6009   -2.0517    1.7950 H   0  0  0  0  0  0  0  0  0  0  0  0
   -4.2309   -2.7237    0.1860 H   0  0  0  0  0  0  0  0  0  0  0  0
   -2.5229   -2.0787    1.2980 C   0  0  0  0  0  0  0  0  0  0  0  0
   -1.5999   -2.7227    1.7810 O   0  0  0  0  0  0  0  0  0  0  0  0
   -2.3659   -0.8447    0.8120 N   0  0  0  0  0  0  0  0  0  0  0  0
   -3.1749   -0.3807    0.4220 H   0  0  0  0  0  0  0  0  0  0  0  0
   -1.0919   -0.1077    0.8170 C   0  0  1  0  0  0  0  0  0  0  0  0
   -1.0734    0.5501   -0.0539 H   0  0  0  0  0  0  0  0  0  0  0  0
   -1.0297    0.7539    2.0922 C   0  0  0  0  0  0  0  0  0  0  0  0
   -1.2274    0.1143    2.9538 H   0  0  0  0  0  0  0  0  0  0  0  0
   -0.0242    1.1659    2.1980 H   0  0  0  0  0  0  0  0  0  0  0  0
   -2.0504    1.9022    2.0988 C   0  0  0  0  0  0  0  0  0  0  0  0
   -1.8816    2.5488    1.2367 H   0  0  0  0  0  0  0  0  0  0  0  0
   -3.0586    1.4872    2.0411 H   0  0  0  0  0  0  0  0  0  0  0  0
   -1.9148    2.7306    3.3839 C   0  0  0  0  0  0  0  0  0  0  0  0
   -2.0696    2.0771    4.2457 H   0  0  0  0  0  0  0  0  0  0  0  0
   -0.9082    3.1507    3.4321 H   0  0  0  0  0  0  0  0  0  0  0  0
   -2.9498    3.8624    3.4033 C   0  0  0  0  0  0  0  0  0  0  0  0
   -2.7829    4.5003    2.5293 H   0  0  0  0  0  0  0  0  0  0  0  0
   -3.9475    3.4227    3.3117 H   0  0  0  0  0  0  0  0  0  0  0  0
   -2.8564    4.6661    4.6482 N   0  3  0  0  0  0  0  0  0  0  0  0
   -1.9384    5.0843    4.7333 H   0  0  0  0  0  0  0  0  0  0  0  0
   -3.5455    5.4078    4.6456 H   0  0  0  0  0  0  0  0  0  0  0  0
   -3.0189    4.0818    5.4600 H   0  0  0  0  0  0  0  0  0  0  0  0
    0.0878   -1.0782    0.7257 C   0  0  0  0  0  0  0  0  0  0  0  0
    0.1728   -1.8411   -0.2295 O   0  0  0  0  0  0  0  0  0  0  0  0
    0.9675   -1.0667    1.7325 N   0  0  0  0  0  0  0  0  0  0  0  0
    0.8385   -0.3851    2.4618 H   0  0  0  0  0  0  0  0  0  0  0  0
    2.1501   -1.9274    1.7976 C   0  0  0  0  0  0  0  0  0  0  0  0
    2.8133   -1.7067    0.9585 H   0  0  0  0  0  0  0  0  0  0  0  0
    2.6910   -1.7618    2.7300 H   0  0  0  0  0  0  0  0  0  0  0  0
    1.8531   -2.9766    1.7347 H   0  0  0  0  0  0  0  0  0  0  0  0
  5  6  2  0  0  0  0
  5  7  1  0  0  0  0
  2  3  1  0  0  0  0
  2  4  1  0  0  0  0
  2  5  1  0  0  0  0
  1  2  1  0  0  0  0
 27 28  2  0  0  0  0
 27 29  1  0  0  0  0
 23 24  1  0  0  0  0
 23 25  1  0  0  0  0
 23 26  1  0  0  0  0
 20 21  1  0  0  0  0
 20 22  1  0  0  0  0
 20 23  1  0  0  0  0
 17 18  1  0  0  0  0
 17 19  1  0  0  0  0
 17 20  1  0  0  0  0
 14 15  1  0  0  0  0
 14 16  1  0  0  0  0
 14 17  1  0  0  0  0
 11 12  1  0  0  0  0
 11 13  1  0  0  0  0
 11 14  1  0  0  0  0
  9 10  1  0  0  0  0
  9 11  1  0  0  0  0
  9 27  1  0  0  0  0
  7  8  1  0  0  0  0
  7  9  1  0  0  0  0
 31 32  1  0  0  0  0
 31 33  1  0  0  0  0
 31 34  1  0  0  0  0
 29 30  1  0  0  0  0
 29 31  1  0  0  0  0
M  CHG  1  23   1
M  END
$$$$
default_name
  -OEChem-01062215323D

 34 33  0     1  0  0  0  0  0999 V2000
   -3.8899   -3.6747    1.6490 H   0  0  0  0  0  0  0  0  0  0  0  0
   -3.9109   -2.6717    1.2250 C   0  0  0  0  0  0  0  0  0  0  0  0
   -4.6009   -2.0517    1.7950 H   0  0  0  0  0  0  0  0  0  0  0  0
   -4.2309   -2.7237    0.1860 H   0  0  0  0  0  0  0  0  0  0  0  0
   -2.5229   -2.0787    1.2980 C   0  0  0  0  0  0  0  0  0  0  0  0
   -1.5999   -2.7227    1.7810 O   0  0  0  0  0  0  0  0  0  0  0  0
   -2.3659   -0.8447    0.8120 N   0  0  0  0  0  0  0  0  0  0  0  0
   -3.1749   -0.3807    0.4220 H   0  0  0  0  0  0  0  0  0  0  0  0
   -1.0919   -0.1077    0.8170 C   0  0  1  0  0  0  0  0  0  0  0  0
   -1.0734    0.5501   -0.0539 H   0  0  0  0  0  0  0  0  0  0  0  0
   -1.0297    0.7539    2.0922 C   0  0  0  0  0  0  0  0  0  0  0  0
   -1.2274    0.1143    2.9538 H   0  0  0  0  0  0  0  0  0  0  0  0
   -0.0242    1.1659    2.1980 H   0  0  0  0  0  0  0  0  0  0  0  0
   -2.0504    1.9022    2.0988 C   0  0  0  0  0  0  0  0  0  0  0  0
   -1.8816    2.5488    1.2367 H   0  0  0  0  0  0  0  0  0  0  0  0
   -3.0586    1.4872    2.0411 H   0  0  0  0  0  0  0  0  0  0  0  0
   -1.9148    2.7306    3.3839 C   0  0  0  0  0  0  0  0  0  0  0  0
   -2.0696    2.0771    4.2457 H   0  0  0  0  0  0  0  0  0  0  0  0
   -0.9082    3.1507    3.4321 H   0  0  0  0  0  0  0  0  0  0  0  0
   -2.9498    3.8624    3.4033 C   0  0  0  0  0  0  0  0  0  0  0  0
   -2.7829    4.5003    2.5293 H   0  0  0  0  0  0  0  0  0  0  0  0
   -3.9475    3.4227    3.3117 H   0  0  0  0  0  0  0  0  0  0  0  0
   -2.8564    4.6661    4.6482 N   0  3  0  0  0  0  0  0  0  0  0  0
   -1.9384    5.0843    4.7333 H   0  0  0  0  0  0  0  0  0  0  0  0
   -3.5455    5.4078    4.6456 H   0  0  0  0  0  0  0  0  0  0  0  0
   -3.0189    4.0818    5.4600 H   0  0  0  0  0  0  0  0  0  0  0  0
    0.0878   -1.0782    0.7257 C   0  0  0  0  0  0  0  0  0  0  0  0
    0.3308   -1.6389   -0.3365 O   0  0  0  0  0  0  0  0  0  0  0  0
    0.7885   -1.2948    1.8436 N   0  0  0  0  0  0  0  0  0  0  0  0
    0.5396   -0.7675    2.6641 H   0  0  0  0  0  0  0  0  0  0  0  0
    1.9450   -2.1888    1.9259 C   0  0  0  0  0  0  0  0  0  0  0  0
    2.7379   -1.8276    1.2674 H   0  0  0  0  0  0  0  0  0  0  0  0
    2.3237   -2.2287    2.9479 H   0  0  0  0  0  0  0  0  0  0  0  0
    1.6638   -3.1946    1.6062 H   0  0  0  0  0  0  0  0  0  0  0  0
  5  6  2  0  0  0  0
  5  7  1  0  0  0  0
  2  3  1  0  0  0  0
  2  4  1  0  0  0  0
  2  5  1  0  0  0  0
  1  2  1  0  0  0  0
 27 28  2  0  0  0  0
 27 29  1  0  0  0  0
 23 24  1  0  0  0  0
 23 25  1  0  0  0  0
 23 26  1  0  0  0  0
 20 21  1  0  0  0  0
 20 22  1  0  0  0  0
 20 23  1  0  0  0  0
 17 18  1  0  0  0  0
 17 19  1  0  0  0  0
 17 20  1  0  0  0  0
 14 15  1  0  0  0  0
 14 16  1  0  0  0  0
 14 17  1  0  0  0  0
 11 12  1  0  0  0  0
 11 13  1  0  0  0  0
 11 14  1  0  0  0  0
  9 10  1  0  0  0  0
  9 11  1  0  0  0  0
  9 27  1  0  0  0  0
  7  8  1  0  0  0  0
  7  9  1  0  0  0  0
 31 32  1  0  0  0  0
 31 33  1  0  0  0  0
 31 34  1  0  0  0  0
 29 30  1  0  0  0  0
 29 31  1  0  0  0  0
M  CHG  1  23   1
M  END
$$$$
default_name
  -OEChem-01062215323D

 34 33  0     1  0  0  0  0  0999 V2000
   -3.8899   -3.6747    1.6490 H   0  0  0  0  0  0  0  0  0  0  0  0
   -3.9109   -2.6717    1.2250 C   0  0  0  0  0  0  0  0  0  0  0  0
   -4.6009   -2.0517    1.7950 H   0  0  0  0  0  0  0  0  0  0  0  0
   -4.2309   -2.7237    0.1860 H   0  0  0  0  0  0  0  0  0  0  0  0
   -2.5229   -2.0787    1.2980 C   0  0  0  0  0  0  0  0  0  0  0  0
   -1.5999   -2.7227    1.7810 O   0  0  0  0  0  0  0  0  0  0  0  0
   -2.3659   -0.8447    0.8120 N   0  0  0  0  0  0  0  0  0  0  0  0
   -3.1749   -0.3807    0.4220 H   0  0  0  0  0  0  0  0  0  0  0  0
   -1.0919   -0.1077    0.8170 C   0  0  1  0  0  0  0  0  0  0  0  0
   -1.0734    0.5501   -0.0539 H   0  0  0  0  0  0  0  0  0  0  0  0
   -1.0297    0.7539    2.0922 C   0  0  0  0  0  0  0  0  0  0  0  0
   -1.2274    0.1143    2.9538 H   0  0  0  0  0  0  0  0  0  0  0  0
   -0.0242    1.1659    2.1980 H   0  0  0  0  0  0  0  0  0  0  0  0
   -2.0504    1.9022    2.0988 C   0  0  0  0  0  0  0  0  0  0  0  0
   -1.8816    2.5488    1.2367 H   0  0  0  0  0  0  0  0  0  0  0  0
   -3.0586    1.4872    2.0411 H   0  0  0  0  0  0  0  0  0  0  0  0
   -1.9148    2.7306    3.3839 C   0  0  0  0  0  0  0  0  0  0  0  0
   -2.0696    2.0771    4.2457 H   0  0  0  0  0  0  0  0  0  0  0  0
   -0.9082    3.1507    3.4321 H   0  0  0  0  0  0  0  0  0  0  0  0
   -2.9498    3.8624    3.4033 C   0  0  0  0  0  0  0  0  0  0  0  0
   -2.7829    4.5003    2.5293 H   0  0  0  0  0  0  0  0  0  0  0  0
   -3.9475    3.4227    3.3117 H   0  0  0  0  0  0  0  0  0  0  0  0
   -2.8564    4.6661    4.6482 N   0  3  0  0  0  0  0  0  0  0  0  0
   -1.9384    5.0843    4.7333 H   0  0  0  0  0  0  0  0  0  0  0  0
   -3.5455    5.4078    4.6456 H   0  0  0  0  0  0  0  0  0  0  0  0
   -3.0189    4.0818    5.4600 H   0  0  0  0  0  0  0  0  0  0  0  0
    0.0878   -1.0782    0.7257 C   0  0  0  0  0  0  0  0  0  0  0  0
    0.5041   -1.4247   -0.3735 O   0  0  0  0  0  0  0  0  0  0  0  0
    0.5939   -1.5344    1.8761 N   0  0  0  0  0  0  0  0  0  0  0  0
    0.2118   -1.1726    2.7341 H   0  0  0  0  0  0  0  0  0  0  0  0
    1.7218   -2.4637    1.9641 C   0  0  0  0  0  0  0  0  0  0  0  0
    2.6124   -2.0047    1.5294 H   0  0  0  0  0  0  0  0  0  0  0  0
    1.9259   -2.7176    3.0049 H   0  0  0  0  0  0  0  0  0  0  0  0
    1.4987   -3.3766    1.4076 H   0  0  0  0  0  0  0  0  0  0  0  0
  5  6  2  0  0  0  0
  5  7  1  0  0  0  0
  2  3  1  0  0  0  0
  2  4  1  0  0  0  0
  2  5  1  0  0  0  0
  1  2  1  0  0  0  0
 27 28  2  0  0  0  0
 27 29  1  0  0  0  0
 23 24  1  0  0  0  0
 23 25  1  0  0  0  0
 23 26  1  0  0  0  0
 20 21  1  0  0  0  0
 20 22  1  0  0  0  0
 20 23  1  0  0  0  0
 17 18  1  0  0  0  0
 17 19  1  0  0  0  0
 17 20  1  0  0  0  0
 14 15  1  0  0  0  0
 14 16  1  0  0  0  0
 14 17  1  0  0  0  0
 11 12  1  0  0  0  0
 11 13  1  0  0  0  0
 11 14  1  0  0  0  0
  9 10  1  0  0  0  0
  9 11  1  0  0  0  0
  9 27  1  0  0  0  0
  7  8  1  0  0  0  0
  7  9  1  0  0  0  0
 31 32  1  0  0  0  0
 31 33  1  0  0  0  0
 31 34  1  0  0  0  0
 29 30  1  0  0  0  0
 29 31  1  0  0  0  0
M  CHG  1  23   1
M  END
$$$$
default_name
  -OEChem-01062215323D

 34 33  0     1  0  0  0  0  0999 V2000
   -3.8899   -3.6747    1.6490 H   0  0  0  0  0  0  0  0  0  0  0  0
   -3.9109   -2.6717    1.2250 C   0  0  0  0  0  0  0  0  0  0  0  0
   -4.6009   -2.0517    1.7950 H   0  0  0  0  0  0  0  0  0  0  0  0
   -4.2309   -2.7237    0.1860 H   0  0  0  0  0  0  0  0  0  0  0  0
   -2.5229   -2.0787    1.2980 C   0  0  0  0  0  0  0  0  0  0  0  0
   -1.5999   -2.7227    1.7810 O   0  0  0  0  0  0  0  0  0  0  0  0
   -2.3659   -0.8447    0.8120 N   0  0  0  0  0  0  0  0  0  0  0  0
   -3.1749   -0.3807    0.4220 H   0  0  0  0  0  0  0  0  0  0  0  0
   -1.0919   -0.1077    0.8170 C   0  0  1  0  0  0  0  0  0  0  0  0
   -1.0734    0.5501   -0.0539 H   0  0  0  0  0  0  0  0  0  0  0  0
   -1.0297    0.7539    2.0922 C   0  0  0  0  0  0  0  0  0  0  0  0
   -1.2274    0.1143    2.9538 H   0  0  0  0  0  0  0  0  0  0  0  0
   -0.0242    1.1659    2.1980 H   0  0  0  0  0  0  0  0  0  0  0  0
   -2.0504    1.9022    2.0988 C   0  0  0  0  0  0  0  0  0  0  0  0
   -1.8816    2.5488    1.2367 H   0  0  0  0  0  0  0  0  0  0  0  0
   -3.0586    1.4872    2.0411 H   0  0  0  0  0  0  0  0  0  0  0  0
   -1.9148    2.7306    3.3839 C   0  0  0  0  0  0  0  0  0  0  0  0
   -2.0696    2.0771    4.2457 H   0  0  0  0  0  0  0  0  0  0  0  0
   -0.9082    3.1507    3.4321 H   0  0  0  0  0  0  0  0  0  0  0  0
   -2.9498    3.8624    3.4033 C   0  0  0  0  0  0  0  0  0  0  0  0
   -2.7829    4.5003    2.5293 H   0  0  0  0  0  0  0  0  0  0  0  0
   -3.9475    3.4227    3.3117 H   0  0  0  0  0  0  0  0  0  0  0  0
   -2.8564    4.6661    4.6482 N   0  3  0  0  0  0  0  0  0  0  0  0
   -1.9384    5.0843    4.7333 H   0  0  0  0  0  0  0  0  0  0  0  0
   -3.5455    5.4078    4.6456 H   0  0  0  0  0  0  0  0  0  0  0  0
   -3.0189    4.0818    5.4600 H   0  0  0  0  0  0  0  0  0  0  0  0
    0.0878   -1.0782    0.7257 C   0  0  0  0  0  0  0  0  0  0  0  0
    0.6809   -1.2132   -0.3381 O   0  0  0  0  0  0  0  0  0  0  0  0
    0.3968   -1.7694    1.8277 N   0  0  0  0  0  0  0  0  0  0  0  0
   -0.1226   -1.5728    2.6671 H   0  0  0  0  0  0  0  0  0  0  0  0
    1.4957   -2.7334    1.9095 C   0  0  0  0  0  0  0  0  0  0  0  0
    2.4454   -2.2262    1.7265 H   0  0  0  0  0  0  0  0  0  0  0  0
    1.5249   -3.1950    2.8971 H   0  0  0  0  0  0  0  0  0  0  0  0
    1.3690   -3.5102    1.1522 H   0  0  0  0  0  0  0  0  0  0  0  0
  5  6  2  0  0  0  0
  5  7  1  0  0  0  0
  2  3  1  0  0  0  0
  2  4  1  0  0  0  0
  2  5  1  0  0  0  0
  1  2  1  0  0  0  0
 27 28  2  0  0  0  0
 27 29  1  0  0  0  0
 23 24  1  0  0  0  0
 23 25  1  0  0  0  0
 23 26  1  0  0  0  0
 20 21  1  0  0  0  0
 20 22  1  0  0  0  0
 20 23  1  0  0  0  0
 17 18  1  0  0  0  0
 17 19  1  0  0  0  0
 17 20  1  0  0  0  0
 14 15  1  0  0  0  0
 14 16  1  0  0  0  0
 14 17  1  0  0  0  0
 11 12  1  0  0  0  0
 11 13  1  0  0  0  0
 11 14  1  0  0  0  0
  9 10  1  0  0  0  0
  9 11  1  0  0  0  0
  9 27  1  0  0  0  0
  7  8  1  0  0  0  0
  7  9  1  0  0  0  0
 31 32  1  0  0  0  0
 31 33  1  0  0  0  0
 31 34  1  0  0  0  0
 29 30  1  0  0  0  0
 29 31  1  0  0  0  0
M  CHG  1  23   1
M  END
$$$$
default_name
  -OEChem-01062215323D

 34 33  0     1  0  0  0  0  0999 V2000
   -3.8899   -3.6747    1.6490 H   0  0  0  0  0  0  0  0  0  0  0  0
   -3.9109   -2.6717    1.2250 C   0  0  0  0  0  0  0  0  0  0  0  0
   -4.6009   -2.0517    1.7950 H   0  0  0  0  0  0  0  0  0  0  0  0
   -4.2309   -2.7237    0.1860 H   0  0  0  0  0  0  0  0  0  0  0  0
   -2.5229   -2.0787    1.2980 C   0  0  0  0  0  0  0  0  0  0  0  0
   -1.5999   -2.7227    1.7810 O   0  0  0  0  0  0  0  0  0  0  0  0
   -2.3659   -0.8447    0.8120 N   0  0  0  0  0  0  0  0  0  0  0  0
   -3.1749   -0.3807    0.4220 H   0  0  0  0  0  0  0  0  0  0  0  0
   -1.0919   -0.1077    0.8170 C   0  0  1  0  0  0  0  0  0  0  0  0
   -1.0734    0.5501   -0.0539 H   0  0  0  0  0  0  0  0  0  0  0  0
   -1.0297    0.7539    2.0922 C   0  0  0  0  0  0  0  0  0  0  0  0
   -1.2274    0.1143    2.9538 H   0  0  0  0  0  0  0  0  0  0  0  0
   -0.0242    1.1659    2.1980 H   0  0  0  0  0  0  0  0  0  0  0  0
   -2.0504    1.9022    2.0988 C   0  0  0  0  0  0  0  0  0  0  0  0
   -1.8816    2.5488    1.2367 H   0  0  0  0  0  0  0  0  0  0  0  0
   -3.0586    1.4872    2.0411 H   0  0  0  0  0  0  0  0  0  0  0  0
   -1.9148    2.7306    3.3839 C   0  0  0  0  0  0  0  0  0  0  0  0
   -2.0696    2.0771    4.2457 H   0  0  0  0  0  0  0  0  0  0  0  0
   -0.9082    3.1507    3.4321 H   0  0  0  0  0  0  0  0  0  0  0  0
   -2.9498    3.8624    3.4033 C   0  0  0  0  0  0  0  0  0  0  0  0
   -2.7829    4.5003    2.5293 H   0  0  0  0  0  0  0  0  0  0  0  0
   -3.9475    3.4227    3.3117 H   0  0  0  0  0  0  0  0  0  0  0  0
   -2.8564    4.6661    4.6482 N   0  3  0  0  0  0  0  0  0  0  0  0
   -1.9384    5.0843    4.7333 H   0  0  0  0  0  0  0  0  0  0  0  0
   -3.5455    5.4078    4.6456 H   0  0  0  0  0  0  0  0  0  0  0  0
   -3.0189    4.0818    5.4600 H   0  0  0  0  0  0  0  0  0  0  0  0
    0.0878   -1.0782    0.7257 C   0  0  0  0  0  0  0  0  0  0  0  0
    0.8492   -1.0186   -0.2326 O   0  0  0  0  0  0  0  0  0  0  0  0
    0.2107   -1.9837    1.7017 N   0  0  0  0  0  0  0  0  0  0  0  0
   -0.4408   -1.9408    2.4677 H   0  0  0  0  0  0  0  0  0  0  0  0
    1.2821   -2.9795    1.7658 C   0  0  0  0  0  0  0  0  0  0  0  0
    2.2484   -2.4769    1.8452 H   0  0  0  0  0  0  0  0  0  0  0  0
    1.1478   -3.6284    2.6320 H   0  0  0  0  0  0  0  0  0  0  0  0
    1.2836   -3.5864    0.8577 H   0  0  0  0  0  0  0  0  0  0  0  0
  5  6  2  0  0  0  0
  5  7  1  0  0  0  0
  2  3  1  0  0  0  0
  2  4  1  0  0  0  0
  2  5  1  0  0  0  0
  1  2  1  0  0  0  0
 27 28  2  0  0  0  0
 27 29  1  0  0  0  0
 23 24  1  0  0  0  0
 23 25  1  0  0  0  0
 23 26  1  0  0  0  0
 20 21  1  0  0  0  0
 20 22  1  0  0  0  0
 20 23  1  0  0  0  0
 17 18  1  0  0  0  0
 17 19  1  0  0  0  0
 17 20  1  0  0  0  0
 14 15  1  0  0  0  0
 14 16  1  0  0  0  0
 14 17  1  0  0  0  0
 11 12  1  0  0  0  0
 11 13  1  0  0  0  0
 11 14  1  0  0  0  0
  9 10  1  0  0  0  0
  9 11  1  0  0  0  0
  9 27  1  0  0  0  0
  7  8  1  0  0  0  0
  7  9  1  0  0  0  0
 31 32  1  0  0  0  0
 31 33  1  0  0  0  0
 31 34  1  0  0  0  0
 29 30  1  0  0  0  0
 29 31  1  0  0  0  0
M  CHG  1  23   1
M  END
$$$$
default_name
  -OEChem-01062215323D

 34 33  0     1  0  0  0  0  0999 V2000
   -3.8899   -3.6747    1.6490 H   0  0  0  0  0  0  0  0  0  0  0  0
   -3.9109   -2.6717    1.2250 C   0  0  0  0  0  0  0  0  0  0  0  0
   -4.6009   -2.0517    1.7950 H   0  0  0  0  0  0  0  0  0  0  0  0
   -4.2309   -2.7237    0.1860 H   0  0  0  0  0  0  0  0  0  0  0  0
   -2.5229   -2.0787    1.2980 C   0  0  0  0  0  0  0  0  0  0  0  0
   -1.5999   -2.7227    1.7810 O   0  0  0  0  0  0  0  0  0  0  0  0
   -2.3659   -0.8447    0.8120 N   0  0  0  0  0  0  0  0  0  0  0  0
   -3.1749   -0.3807    0.4220 H   0  0  0  0  0  0  0  0  0  0  0  0
   -1.0919   -0.1077    0.8170 C   0  0  1  0  0  0  0  0  0  0  0  0
   -1.0734    0.5501   -0.0539 H   0  0  0  0  0  0  0  0  0  0  0  0
   -1.0297    0.7539    2.0922 C   0  0  0  0  0  0  0  0  0  0  0  0
   -1.2274    0.1143    2.9538 H   0  0  0  0  0  0  0  0  0  0  0  0
   -0.0242    1.1659    2.1980 H   0  0  0  0  0  0  0  0  0  0  0  0
   -2.0504    1.9022    2.0988 C   0  0  0  0  0  0  0  0  0  0  0  0
   -1.8816    2.5488    1.2367 H   0  0  0  0  0  0  0  0  0  0  0  0
   -3.0586    1.4872    2.0411 H   0  0  0  0  0  0  0  0  0  0  0  0
   -1.9148    2.7306    3.3839 C   0  0  0  0  0  0  0  0  0  0  0  0
   -2.0696    2.0771    4.2457 H   0  0  0  0  0  0  0  0  0  0  0  0
   -0.9082    3.1507    3.4321 H   0  0  0  0  0  0  0  0  0  0  0  0
   -2.9498    3.8624    3.4033 C   0  0  0  0  0  0  0  0  0  0  0  0
   -2.7829    4.5003    2.5293 H   0  0  0  0  0  0  0  0  0  0  0  0
   -3.9475    3.4227    3.3117 H   0  0  0  0  0  0  0  0  0  0  0  0
   -2.8564    4.6661    4.6482 N   0  3  0  0  0  0  0  0  0  0  0  0
   -1.9384    5.0843    4.7333 H   0  0  0  0  0  0  0  0  0  0  0  0
   -3.5455    5.4078    4.6456 H   0  0  0  0  0  0  0  0  0  0  0  0
   -3.0189    4.0818    5.4600 H   0  0  0  0  0  0  0  0  0  0  0  0
    0.0878   -1.0782    0.7257 C   0  0  0  0  0  0  0  0  0  0  0  0
    0.9974   -0.8543   -0.0643 O   0  0  0  0  0  0  0  0  0  0  0  0
    0.0484   -2.1627    1.5067 N   0  0  0  0  0  0  0  0  0  0  0  0
   -0.7211   -2.2516    2.1494 H   0  0  0  0  0  0  0  0  0  0  0  0
    1.0956   -3.1853    1.5428 C   0  0  0  0  0  0  0  0  0  0  0  0
    2.0347   -2.7397    1.8776 H   0  0  0  0  0  0  0  0  0  0  0  0
    0.8203   -3.9884    2.2274 H   0  0  0  0  0  0  0  0  0  0  0  0
    1.2483   -3.5998    0.5439 H   0  0  0  0  0  0  0  0  0  0  0  0
  5  6  2  0  0  0  0
  5  7  1  0  0  0  0
  2  3  1  0  0  0  0
  2  4  1  0  0  0  0
  2  5  1  0  0  0  0
  1  2  1  0  0  0  0
 27 28  2  0  0  0  0
 27 29  1  0  0  0  0
 23 24  1  0  0  0  0
 23 25  1  0  0  0  0
 23 26  1  0  0  0  0
 20 21  1  0  0  0  0
 20 22  1  0  0  0  0
 20 23  1  0  0  0  0
 17 18  1  0  0  0  0
 17 19  1  0  0  0  0
 17 20  1  0  0  0  0
 14 15  1  0  0  0  0
 14 16  1  0  0  0  0
 14 17  1  0  0  0  0
 11 12  1  0  0  0  0
 11 13  1  0  0  0  0
 11 14  1  0  0  0  0
  9 10  1  0  0  0  0
  9 11  1  0  0  0  0
  9 27  1  0  0  0  0
  7  8  1  0  0  0  0
  7  9  1  0  0  0  0
 31 32  1  0  0  0  0
 31 33  1  0  0  0  0
 31 34  1  0  0  0  0
 29 30  1  0  0  0  0
 29 31  1  0  0  0  0
M  CHG  1  23   1
M  END
$$$$
default_name
  -OEChem-01062215323D

 34 33  0     1  0  0  0  0  0999 V2000
   -3.8899   -3.6747    1.6490 H   0  0  0  0  0  0  0  0  0  0  0  0
   -3.9109   -2.6717    1.2250 C   0  0  0  0  0  0  0  0  0  0  0  0
   -4.6009   -2.0517    1.7950 H   0  0  0  0  0  0  0  0  0  0  0  0
   -4.2309   -2.7237    0.1860 H   0  0  0  0  0  0  0  0  0  0  0  0
   -2.5229   -2.0787    1.2980 C   0  0  0  0  0  0  0  0  0  0  0  0
   -1.5999   -2.7227    1.7810 O   0  0  0  0  0  0  0  0  0  0  0  0
   -2.3659   -0.8447    0.8120 N   0  0  0  0  0  0  0  0  0  0  0  0
   -3.1749   -0.3807    0.4220 H   0  0  0  0  0  0  0  0  0  0  0  0
   -1.0919   -0.1077    0.8170 C   0  0  1  0  0  0  0  0  0  0  0  0
   -1.0734    0.5501   -0.0539 H   0  0  0  0  0  0  0  0  0  0  0  0
   -1.0297    0.7539    2.0922 C   0  0  0  0  0  0  0  0  0  0  0  0
   -1.2274    0.1143    2.9538 H   0  0  0  0  0  0  0  0  0  0  0  0
   -0.0242    1.1659    2.1980 H   0  0  0  0  0  0  0  0  0  0  0  0
   -2.0504    1.9022    2.0988 C   0  0  0  0  0  0  0  0  0  0  0  0
   -1.8816    2.5488    1.2367 H   0  0  0  0  0  0  0  0  0  0  0  0
   -3.0586    1.4872    2.0411 H   0  0  0  0  0  0  0  0  0  0  0  0
   -1.9148    2.7306    3.3839 C   0  0  0  0  0  0  0  0  0  0  0  0
   -2.0696    2.0771    4.2457 H   0  0  0  0  0  0  0  0  0  0  0  0
   -0.9082    3.1507    3.4321 H   0  0  0  0  0  0  0  0  0  0  0  0
   -2.9498    3.8624    3.4033 C   0  0  0  0  0  0  0  0  0  0  0  0
   -2.7829    4.5003    2.5293 H   0  0  0  0  0  0  0  0  0  0  0  0
   -3.9475    3.4227    3.3117 H   0  0  0  0  0  0  0  0  0  0  0  0
   -2.8564    4.6661    4.6482 N   0  3  0  0  0  0  0  0  0  0  0  0
   -1.9384    5.0843    4.7333 H   0  0  0  0  0  0  0  0  0  0  0  0
   -3.5455    5.4078    4.6456 H   0  0  0  0  0  0  0  0  0  0  0  0
   -3.0189    4.0818    5.4600 H   0  0  0  0  0  0  0  0  0  0  0  0
    0.0878   -1.0782    0.7257 C   0  0  0  0  0  0  0  0  0  0  0  0
    1.1154   -0.7314    0.1553 O   0  0  0  0  0  0  0  0  0  0  0  0
   -0.0791   -2.2942    1.2560 N   0  0  0  0  0  0  0  0  0  0  0  0
   -0.9444   -2.4839    1.7339 H   0  0  0  0  0  0  0  0  0  0  0  0
    0.9488   -3.3367    1.2558 C   0  0  0  0  0  0  0  0  0  0  0  0
    1.8190   -2.9967    1.8213 H   0  0  0  0  0  0  0  0  0  0  0  0
    0.5649   -4.2503    1.7112 H   0  0  0  0  0  0  0  0  0  0  0  0
    1.2654   -3.5497    0.2324 H   0  0  0  0  0  0  0  0  0  0  0  0
  5  6  2  0  0  0  0
  5  7  1  0  0  0  0
  2  3  1  0  0  0  0
  2  4  1  0  0  0  0
  2  5  1  0  0  0  0
  1  2  1  0  0  0  0
 27 28  2  0  0  0  0
 27 29  1  0  0  0  0
 23 24  1  0  0  0  0
 23 25  1  0  0  0  0
 23 26  1  0  0  0  0
 20 21  1  0  0  0  0
 20 22  1  0  0  0  0
 20 23  1  0  0  0  0
 17 18  1  0  0  0  0
 17 19  1  0  0  0  0
 17 20  1  0  0  0  0
 14 15  1  0  0  0  0
 14 16  1  0  0  0  0
 14 17  1  0  0  0  0
 11 12  1  0  0  0  0
 11 13  1  0  0  0  0
 11 14  1  0  0  0  0
  9 10  1  0  0  0  0
  9 11  1  0  0  0  0
  9 27  1  0  0  0  0
  7  8  1  0  0  0  0
  7  9  1  0  0  0  0
 31 32  1  0  0  0  0
 31 33  1  0  0  0  0
 31 34  1  0  0  0  0
 29 30  1  0  0  0  0
 29 31  1  0  0  0  0
M  CHG  1  23   1
M  END
$$$$
default_name
  -OEChem-01062215323D

 34 33  0     1  0  0  0  0  0999 V2000
   -3.8899   -3.6747    1.6490 H   0  0  0  0  0  0  0  0  0  0  0  0
   -3.9109   -2.6717    1.2250 C   0  0  0  0  0  0  0  0  0  0  0  0
   -4.6009   -2.0517    1.7950 H   0  0  0  0  0  0  0  0  0  0  0  0
   -4.2309   -2.7237    0.1860 H   0  0  0  0  0  0  0  0  0  0  0  0
   -2.5229   -2.0787    1.2980 C   0  0  0  0  0  0  0  0  0  0  0  0
   -1.5999   -2.7227    1.7810 O   0  0  0  0  0  0  0  0  0  0  0  0
   -2.3659   -0.8447    0.8120 N   0  0  0  0  0  0  0  0  0  0  0  0
   -3.1749   -0.3807    0.4220 H   0  0  0  0  0  0  0  0  0  0  0  0
   -1.0919   -0.1077    0.8170 C   0  0  1  0  0  0  0  0  0  0  0  0
   -1.0734    0.5501   -0.0539 H   0  0  0  0  0  0  0  0  0  0  0  0
   -1.0297    0.7539    2.0922 C   0  0  0  0  0  0  0  0  0  0  0  0
   -1.2274    0.1143    2.9538 H   0  0  0  0  0  0  0  0  0  0  0  0
   -0.0242    1.1659    2.1980 H   0  0  0  0  0  0  0  0  0  0  0  0
   -2.0504    1.9022    2.0988 C   0  0  0  0  0  0  0  0  0  0  0  0
   -1.8816    2.5488    1.2367 H   0  0  0  0  0  0  0  0  0  0  0  0
   -3.0586    1.4872    2.0411 H   0  0  0  0  0  0  0  0  0  0  0  0
   -1.9148    2.7306    3.3839 C   0  0  0  0  0  0  0  0  0  0  0  0
   -2.0696    2.0771    4.2457 H   0  0  0  0  0  0  0  0  0  0  0  0
   -0.9082    3.1507    3.4321 H   0  0  0  0  0  0  0  0  0  0  0  0
   -2.9498    3.8624    3.4033 C   0  0  0  0  0  0  0  0  0  0  0  0
   -2.7829    4.5003    2.5293 H   0  0  0  0  0  0  0  0  0  0  0  0
   -3.9475    3.4227    3.3117 H   0  0  0  0  0  0  0  0  0  0  0  0
   -2.8564    4.6661    4.6482 N   0  3  0  0  0  0  0  0  0  0  0  0
   -1.9384    5.0843    4.7333 H   0  0  0  0  0  0  0  0  0  0  0  0
   -3.5455    5.4078    4.6456 H   0  0  0  0  0  0  0  0  0  0  0  0
   -3.0189    4.0818    5.4600 H   0  0  0  0  0  0  0  0  0  0  0  0
    0.0878   -1.0782    0.7257 C   0  0  0  0  0  0  0  0  0  0  0  0
    1.1953   -0.6584    0.4114 O   0  0  0  0  0  0  0  0  0  0  0  0
   -0.1632   -2.3692    0.9667 N   0  0  0  0  0  0  0  0  0  0  0  0
   -1.0955   -2.6220    1.2496 H   0  0  0  0  0  0  0  0  0  0  0  0
    0.8518   -3.4234    0.9242 C   0  0  0  0  0  0  0  0  0  0  0  0
    1.6158   -3.2304    1.6803 H   0  0  0  0  0  0  0  0  0  0  0  0
    0.3989   -4.3964    1.1183 H   0  0  0  0  0  0  0  0  0  0  0  0
    1.3339   -3.4393   -0.0557 H   0  0  0  0  0  0  0  0  0  0  0  0
  5  6  2  0  0  0  0
  5  7  1  0  0  0  0
  2  3  1  0  0  0  0
  2  4  1  0  0  0  0
  2  5  1  0  0  0  0
  1  2  1  0  0  0  0
 27 28  2  0  0  0  0
 27 29  1  0  0  0  0
 23 24  1  0  0  0  0
 23 25  1  0  0  0  0
 23 26  1  0  0  0  0
 20 21  1  0  0  0  0
 20 22  1  0  0  0  0
 20 23  1  0  0  0  0
 17 18  1  0  0  0  0
 17 19  1  0  0  0  0
 17 20  1  0  0  0  0
 14 15  1  0  0  0  0
 14 16  1  0  0  0  0
 14 17  1  0  0  0  0
 11 12  1  0  0  0  0
 11 13  1  0  0  0  0
 11 14  1  0  0  0  0
  9 10  1  0  0  0  0
  9 11  1  0  0  0  0
  9 27  1  0  0  0  0
  7  8  1  0  0  0  0
  7  9  1  0  0  0  0
 31 32  1  0  0  0  0
 31 33  1  0  0  0  0
 31 34  1  0  0  0  0
 29 30  1  0  0  0  0
 29 31  1  0  0  0  0
M  CHG  1  23   1
M  END
$$$$
default_name
  -OEChem-01062215323D

 34 33  0     1  0  0  0  0  0999 V2000
   -3.8899   -3.6747    1.6490 H   0  0  0  0  0  0  0  0  0  0  0  0
   -3.9109   -2.6717    1.2250 C   0  0  0  0  0  0  0  0  0  0  0  0
   -4.6009   -2.0517    1.7950 H   0  0  0  0  0  0  0  0  0  0  0  0
   -4.2309   -2.7237    0.1860 H   0  0  0  0  0  0  0  0  0  0  0  0
   -2.5229   -2.0787    1.2980 C   0  0  0  0  0  0  0  0  0  0  0  0
   -1.5999   -2.7227    1.7810 O   0  0  0  0  0  0  0  0  0  0  0  0
   -2.3659   -0.8447    0.8120 N   0  0  0  0  0  0  0  0  0  0  0  0
   -3.1749   -0.3807    0.4220 H   0  0  0  0  0  0  0  0  0  0  0  0
   -1.0919   -0.1077    0.8170 C   0  0  1  0  0  0  0  0  0  0  0  0
   -1.0734    0.5501   -0.0539 H   0  0  0  0  0  0  0  0  0  0  0  0
   -1.0297    0.7539    2.0922 C   0  0  0  0  0  0  0  0  0  0  0  0
   -1.2274    0.1143    2.9538 H   0  0  0  0  0  0  0  0  0  0  0  0
   -0.0242    1.1659    2.1980 H   0  0  0  0  0  0  0  0  0  0  0  0
   -2.0504    1.9022    2.0988 C   0  0  0  0  0  0  0  0  0  0  0  0
   -1.8816    2.5488    1.2367 H   0  0  0  0  0  0  0  0  0  0  0  0
   -3.0586    1.4872    2.0411 H   0  0  0  0  0  0  0  0  0  0  0  0
   -1.9148    2.7306    3.3839 C   0  0  0  0  0  0  0  0  0  0  0  0
   -2.0696    2.0771    4.2457 H   0  0  0  0  0  0  0  0  0  0  0  0
   -0.9082    3.1507    3.4321 H   0  0  0  0  0  0  0  0  0  0  0  0
   -2.9498    3.8624    3.4033 C   0  0  0  0  0  0  0  0  0  0  0  0
   -2.7829    4.5003    2.5293 H   0  0  0  0  0  0  0  0  0  0  0  0
   -3.9475    3.4227    3.3117 H   0  0  0  0  0  0  0  0  0  0  0  0
   -2.8564    4.6661    4.6482 N   0  3  0  0  0  0  0  0  0  0  0  0
   -1.9384    5.0843    4.7333 H   0  0  0  0  0  0  0  0  0  0  0  0
   -3.5455    5.4078    4.6456 H   0  0  0  0  0  0  0  0  0  0  0  0
   -3.0189    4.0818    5.4600 H   0  0  0  0  0  0  0  0  0  0  0  0
    0.0878   -1.0782    0.7257 C   0  0  0  0  0  0  0  0  0  0  0  0
    1.2316   -0.6402    0.6864 O   0  0  0  0  0  0  0  0  0  0  0  0
   -0.1981   -2.3826    0.6585 N   0  0  0  0  0  0  0  0  0  0  0  0
   -1.1641   -2.6565    0.7294 H   0  0  0  0  0  0  0  0  0  0  0  0
    0.8112   -3.4395    0.5707 C   0  0  0  0  0  0  0  0  0  0  0  0
    1.4391   -3.4248    1.4642 H   0  0  0  0  0  0  0  0  0  0  0  0
    0.3336   -4.4166    0.4892 H   0  0  0  0  0  0  0  0  0  0  0  0
    1.4490   -3.2763   -0.3007 H   0  0  0  0  0  0  0  0  0  0  0  0
  5  6  2  0  0  0  0
  5  7  1  0  0  0  0
  2  3  1  0  0  0  0
  2  4  1  0  0  0  0
  2  5  1  0  0  0  0
  1  2  1  0  0  0  0
 27 28  2  0  0  0  0
 27 29  1  0  0  0  0
 23 24  1  0  0  0  0
 23 25  1  0  0  0  0
 23 26  1  0  0  0  0
 20 21  1  0  0  0  0
 20 22  1  0  0  0  0
 20 23  1  0  0  0  0
 17 18  1  0  0  0  0
 17 19  1  0  0  0  0
 17 20  1  0  0  0  0
 14 15  1  0  0  0  0
 14 16  1  0  0  0  0
 14 17  1  0  0  0  0
 11 12  1  0  0  0  0
 11 13  1  0  0  0  0
 11 14  1  0  0  0  0
  9 10  1  0  0  0  0
  9 11  1  0  0  0  0
  9 27  1  0  0  0  0
  7  8  1  0  0  0  0
  7  9  1  0  0  0  0
 31 32  1  0  0  0  0
 31 33  1  0  0  0  0
 31 34  1  0  0  0  0
 29 30  1  0  0  0  0
 29 31  1  0  0  0  0
M  CHG  1  23   1
M  END
$$$$
default_name
  -OEChem-01062215323D

 34 33  0     1  0  0  0  0  0999 V2000
   -3.8899   -3.6747    1.6490 H   0  0  0  0  0  0  0  0  0  0  0  0
   -3.9109   -2.6717    1.2250 C   0  0  0  0  0  0  0  0  0  0  0  0
   -4.6009   -2.0517    1.7950 H   0  0  0  0  0  0  0  0  0  0  0  0
   -4.2309   -2.7237    0.1860 H   0  0  0  0  0  0  0  0  0  0  0  0
   -2.5229   -2.0787    1.2980 C   0  0  0  0  0  0  0  0  0  0  0  0
   -1.5999   -2.7227    1.7810 O   0  0  0  0  0  0  0  0  0  0  0  0
   -2.3659   -0.8447    0.8120 N   0  0  0  0  0  0  0  0  0  0  0  0
   -3.1749   -0.3807    0.4220 H   0  0  0  0  0  0  0  0  0  0  0  0
   -1.0919   -0.1077    0.8170 C   0  0  1  0  0  0  0  0  0  0  0  0
   -1.0734    0.5501   -0.0539 H   0  0  0  0  0  0  0  0  0  0  0  0
   -1.0297    0.7539    2.0922 C   0  0  0  0  0  0  0  0  0  0  0  0
   -1.2274    0.1143    2.9538 H   0  0  0  0  0  0  0  0  0  0  0  0
   -0.0242    1.1659    2.1980 H   0  0  0  0  0  0  0  0  0  0  0  0
   -2.0504    1.9022    2.0988 C   0  0  0  0  0  0  0  0  0  0  0  0
   -1.8816    2.5488    1.2367 H   0  0  0  0  0  0  0  0  0  0  0  0
   -3.0586    1.4872    2.0411 H   0  0  0  0  0  0  0  0  0  0  0  0
   -1.9148    2.7306    3.3839 C   0  0  0  0  0  0  0  0  0  0  0  0
   -2.0696    2.0771    4.2457 H   0  0  0  0  0  0  0  0  0  0  0  0
   -0.9082    3.1507    3.4321 H   0  0  0  0  0  0  0  0  0  0  0  0
   -2.9498    3.8624    3.4033 C   0  0  0  0  0  0  0  0  0  0  0  0
   -2.7829    4.5003    2.5293 H   0  0  0  0  0  0  0  0  0  0  0  0
   -3.9475    3.4227    3.3117 H   0  0  0  0  0  0  0  0  0  0  0  0
   -2.8564    4.6661    4.6482 N   0  3  0  0  0  0  0  0  0  0  0  0
   -1.9384    5.0843    4.7333 H   0  0  0  0  0  0  0  0  0  0  0  0
   -3.5455    5.4078    4.6456 H   0  0  0  0  0  0  0  0  0  0  0  0
   -3.0189    4.0818    5.4600 H   0  0  0  0  0  0  0  0  0  0  0  0
    0.0878   -1.0782    0.7257 C   0  0  0  0  0  0  0  0  0  0  0  0
    1.2217   -0.6781    0.9617 O   0  0  0  0  0  0  0  0  0  0  0  0
   -0.1814   -2.3335    0.3523 N   0  0  0  0  0  0  0  0  0  0  0  0
   -1.1455   -2.5849    0.2089 H   0  0  0  0  0  0  0  0  0  0  0  0
    0.8298   -3.3839    0.2194 C   0  0  0  0  0  0  0  0  0  0  0  0
    1.3009   -3.5668    1.1875 H   0  0  0  0  0  0  0  0  0  0  0  0
    0.3734   -4.3096   -0.1332 H   0  0  0  0  0  0  0  0  0  0  0  0
    1.6030   -3.0718   -0.4860 H   0  0  0  0  0  0  0  0  0  0  0  0
  5  6  2  0  0  0  0
  5  7  1  0  0  0  0
  2  3  1  0  0  0  0
  2  4  1  0  0  0  0
  2  5  1  0  0  0  0
  1  2  1  0  0  0  0
 27 28  2  0  0  0  0
 27 29  1  0  0  0  0
 23 24  1  0  0  0  0
 23 25  1  0  0  0  0
 23 26  1  0  0  0  0
 20 21  1  0  0  0  0
 20 22  1  0  0  0  0
 20 23  1  0  0  0  0
 17 18  1  0  0  0  0
 17 19  1  0  0  0  0
 17 20  1  0  0  0  0
 14 15  1  0  0  0  0
 14 16  1  0  0  0  0
 14 17  1  0  0  0  0
 11 12  1  0  0  0  0
 11 13  1  0  0  0  0
 11 14  1  0  0  0  0
  9 10  1  0  0  0  0
  9 11  1  0  0  0  0
  9 27  1  0  0  0  0
  7  8  1  0  0  0  0
  7  9  1  0  0  0  0
 31 32  1  0  0  0  0
 31 33  1  0  0  0  0
 31 34  1  0  0  0  0
 29 30  1  0  0  0  0
 29 31  1  0  0  0  0
M  CHG  1  23   1
M  END
$$$$
default_name
  -OEChem-01062215323D

 34 33  0     1  0  0  0  0  0999 V2000
   -3.8899   -3.6747    1.6490 H   0  0  0  0  0  0  0  0  0  0  0  0
   -3.9109   -2.6717    1.2250 C   0  0  0  0  0  0  0  0  0  0  0  0
   -4.6009   -2.0517    1.7950 H   0  0  0  0  0  0  0  0  0  0  0  0
   -4.2309   -2.7237    0.1860 H   0  0  0  0  0  0  0  0  0  0  0  0
   -2.5229   -2.0787    1.2980 C   0  0  0  0  0  0  0  0  0  0  0  0
   -1.5999   -2.7227    1.7810 O   0  0  0  0  0  0  0  0  0  0  0  0
   -2.3659   -0.8447    0.8120 N   0  0  0  0  0  0  0  0  0  0  0  0
   -3.1749   -0.3807    0.4220 H   0  0  0  0  0  0  0  0  0  0  0  0
   -1.0919   -0.1077    0.8170 C   0  0  1  0  0  0  0  0  0  0  0  0
   -1.0734    0.5501   -0.0539 H   0  0  0  0  0  0  0  0  0  0  0  0
   -1.0297    0.7539    2.0922 C   0  0  0  0  0  0  0  0  0  0  0  0
   -1.2274    0.1143    2.9538 H   0  0  0  0  0  0  0  0  0  0  0  0
   -0.0242    1.1659    2.1980 H   0  0  0  0  0  0  0  0  0  0  0  0
   -2.0504    1.9022    2.0988 C   0  0  0  0  0  0  0  0  0  0  0  0
   -1.8816    2.5488    1.2367 H   0  0  0  0  0  0  0  0  0  0  0  0
   -3.0586    1.4872    2.0411 H   0  0  0  0  0  0  0  0  0  0  0  0
   -1.9148    2.7306    3.3839 C   0  0  0  0  0  0  0  0  0  0  0  0
   -2.0696    2.0771    4.2457 H   0  0  0  0  0  0  0  0  0  0  0  0
   -0.9082    3.1507    3.4321 H   0  0  0  0  0  0  0  0  0  0  0  0
   -2.9498    3.8624    3.4033 C   0  0  0  0  0  0  0  0  0  0  0  0
   -2.7829    4.5003    2.5293 H   0  0  0  0  0  0  0  0  0  0  0  0
   -3.9475    3.4227    3.3117 H   0  0  0  0  0  0  0  0  0  0  0  0
   -2.8564    4.6661    4.6482 N   0  3  0  0  0  0  0  0  0  0  0  0
   -1.9384    5.0843    4.7333 H   0  0  0  0  0  0  0  0  0  0  0  0
   -3.5455    5.4078    4.6456 H   0  0  0  0  0  0  0  0  0  0  0  0
   -3.0189    4.0818    5.4600 H   0  0  0  0  0  0  0  0  0  0  0  0
    0.0878   -1.0782    0.7257 C   0  0  0  0  0  0  0  0  0  0  0  0
    1.1664   -0.7694    1.2183 O   0  0  0  0  0  0  0  0  0  0  0  0
   -0.1143   -2.2253    0.0692 N   0  0  0  0  0  0  0  0  0  0  0  0
   -1.0409   -2.4122   -0.2766 H   0  0  0  0  0  0  0  0  0  0  0  0
    0.9062   -3.2604   -0.1058 C   0  0  0  0  0  0  0  0  0  0  0  0
    1.2107   -3.6466    0.8694 H   0  0  0  0  0  0  0  0  0  0  0  0
    0.5158   -4.0827   -0.7065 H   0  0  0  0  0  0  0  0  0  0  0  0
    1.7852   -2.8396   -0.5989 H   0  0  0  0  0  0  0  0  0  0  0  0
  5  6  2  0  0  0  0
  5  7  1  0  0  0  0
  2  3  1  0  0  0  0
  2  4  1  0  0  0  0
  2  5  1  0  0  0  0
  1  2  1  0  0  0  0
 27 28  2  0  0  0  0
 27 29  1  0  0  0  0
 23 24  1  0  0  0  0
 23 25  1  0  0  0  0
 23 26  1  0  0  0  0
 20 21  1  0  0  0  0
 20 22  1  0  0  0  0
 20 23  1  0  0  0  0
 17 18  1  0  0  0  0
 17 19  1  0  0  0  0
 17 20  1  0  0  0  0
 14 15  1  0  0  0  0
 14 16  1  0  0  0  0
 14 17  1  0  0  0  0
 11 12  1  0  0  0  0
 11 13  1  0  0  0  0
 11 14  1  0  0  0  0
  9 10  1  0  0  0  0
  9 11  1  0  0  0  0
  9 27  1  0  0  0  0
  7  8  1  0  0  0  0
  7  9  1  0  0  0  0
 31 32  1  0  0  0  0
 31 33  1  0  0  0  0
 31 34  1  0  0  0  0
 29 30  1  0  0  0  0
 29 31  1  0  0  0  0
M  CHG  1  23   1
M  END
$$$$
default_name
  -OEChem-01062215323D

 34 33  0     1  0  0  0  0  0999 V2000
   -3.8899   -3.6747    1.6490 H   0  0  0  0  0  0  0  0  0  0  0  0
   -3.9109   -2.6717    1.2250 C   0  0  0  0  0  0  0  0  0  0  0  0
   -4.6009   -2.0517    1.7950 H   0  0  0  0  0  0  0  0  0  0  0  0
   -4.2309   -2.7237    0.1860 H   0  0  0  0  0  0  0  0  0  0  0  0
   -2.5229   -2.0787    1.2980 C   0  0  0  0  0  0  0  0  0  0  0  0
   -1.5999   -2.7227    1.7810 O   0  0  0  0  0  0  0  0  0  0  0  0
   -2.3659   -0.8447    0.8120 N   0  0  0  0  0  0  0  0  0  0  0  0
   -3.1749   -0.3807    0.4220 H   0  0  0  0  0  0  0  0  0  0  0  0
   -1.0919   -0.1077    0.8170 C   0  0  1  0  0  0  0  0  0  0  0  0
   -1.0734    0.5501   -0.0539 H   0  0  0  0  0  0  0  0  0  0  0  0
   -1.0297    0.7539    2.0922 C   0  0  0  0  0  0  0  0  0  0  0  0
   -1.2274    0.1143    2.9538 H   0  0  0  0  0  0  0  0  0  0  0  0
   -0.0242    1.1659    2.1980 H   0  0  0  0  0  0  0  0  0  0  0  0
   -2.0504    1.9022    2.0988 C   0  0  0  0  0  0  0  0  0  0  0  0
   -1.8816    2.5488    1.2367 H   0  0  0  0  0  0  0  0  0  0  0  0
   -3.0586    1.4872    2.0411 H   0  0  0  0  0  0  0  0  0  0  0  0
   -1.9148    2.7306    3.3839 C   0  0  0  0  0  0  0  0  0  0  0  0
   -2.0696    2.0771    4.2457 H   0  0  0  0  0  0  0  0  0  0  0  0
   -0.9082    3.1507    3.4321 H   0  0  0  0  0  0  0  0  0  0  0  0
   -2.9498    3.8624    3.4033 C   0  0  0  0  0  0  0  0  0  0  0  0
   -2.7829    4.5003    2.5293 H   0  0  0  0  0  0  0  0  0  0  0  0
   -3.9475    3.4227    3.3117 H   0  0  0  0  0  0  0  0  0  0  0  0
   -2.8564    4.6661    4.6482 N   0  3  0  0  0  0  0  0  0  0  0  0
   -1.9384    5.0843    4.7333 H   0  0  0  0  0  0  0  0  0  0  0  0
   -3.5455    5.4078    4.6456 H   0  0  0  0  0  0  0  0  0  0  0  0
   -3.0189    4.0818    5.4600 H   0  0  0  0  0  0  0  0  0  0  0  0
    0.0878   -1.0782    0.7257 C   0  0  0  0  0  0  0  0  0  0  0  0
    1.0695   -0.9080    1.4390 O   0  0  0  0  0  0  0  0  0  0  0  0
   -0.0013   -2.0653   -0.1718 N   0  0  0  0  0  0  0  0  0  0  0  0
   -0.8576   -2.1501   -0.6940 H   0  0  0  0  0  0  0  0  0  0  0  0
    1.0353   -3.0774   -0.3827 C   0  0  0  0  0  0  0  0  0  0  0  0
    1.1745   -3.6588    0.5313 H   0  0  0  0  0  0  0  0  0  0  0  0
    0.7508   -3.7513   -1.1916 H   0  0  0  0  0  0  0  0  0  0  0  0
    1.9834   -2.5956   -0.6317 H   0  0  0  0  0  0  0  0  0  0  0  0
  5  6  2  0  0  0  0
  5  7  1  0  0  0  0
  2  3  1  0  0  0  0
  2  4  1  0  0  0  0
  2  5  1  0  0  0  0
  1  2  1  0  0  0  0
 27 28  2  0  0  0  0
 27 29  1  0  0  0  0
 23 24  1  0  0  0  0
 23 25  1  0  0  0  0
 23 26  1  0  0  0  0
 20 21  1  0  0  0  0
 20 22  1  0  0  0  0
 20 23  1  0  0  0  0
 17 18  1  0  0  0  0
 17 19  1  0  0  0  0
 17 20  1  0  0  0  0
 14 15  1  0  0  0  0
 14 16  1  0  0  0  0
 14 17  1  0  0  0  0
 11 12  1  0  0  0  0
 11 13  1  0  0  0  0
 11 14  1  0  0  0  0
  9 10  1  0  0  0  0
  9 11  1  0  0  0  0
  9 27  1  0  0  0  0
  7  8  1  0  0  0  0
  7  9  1  0  0  0  0
 31 32  1  0  0  0  0
 31 33  1  0  0  0  0
 31 34  1  0  0  0  0
 29 30  1  0  0  0  0
 29 31  1  0  0  0  0
M  CHG  1  23   1
M  END
$$$$
default_name
  -OEChem-01062215323D

 34 33  0     1  0  0  0  0  0999 V2000
   -3.8899   -3.6747    1.6490 H   0  0  0  0  0  0  0  0  0  0  0  0
   -3.9109   -2.6717    1.2250 C   0  0  0  0  0  0  0  0  0  0  0  0
   -4.6009   -2.0517    1.7950 H   0  0  0  0  0  0  0  0  0  0  0  0
   -4.2309   -2.7237    0.1860 H   0  0  0  0  0  0  0  0  0  0  0  0
   -2.5229   -2.0787    1.2980 C   0  0  0  0  0  0  0  0  0  0  0  0
   -1.5999   -2.7227    1.7810 O   0  0  0  0  0  0  0  0  0  0  0  0
   -2.3659   -0.8447    0.8120 N   0  0  0  0  0  0  0  0  0  0  0  0
   -3.1749   -0.3807    0.4220 H   0  0  0  0  0  0  0  0  0  0  0  0
   -1.0919   -0.1077    0.8170 C   0  0  1  0  0  0  0  0  0  0  0  0
   -1.0734    0.5501   -0.0539 H   0  0  0  0  0  0  0  0  0  0  0  0
   -1.0297    0.7539    2.0922 C   0  0  0  0  0  0  0  0  0  0  0  0
   -1.2274    0.1143    2.9538 H   0  0  0  0  0  0  0  0  0  0  0  0
   -0.0242    1.1659    2.1980 H   0  0  0  0  0  0  0  0  0  0  0  0
   -2.0504    1.9022    2.0988 C   0  0  0  0  0  0  0  0  0  0  0  0
   -1.8816    2.5488    1.2367 H   0  0  0  0  0  0  0  0  0  0  0  0
   -3.0586    1.4872    2.0411 H   0  0  0  0  0  0  0  0  0  0  0  0
   -1.9148    2.7306    3.3839 C   0  0  0  0  0  0  0  0  0  0  0  0
   -2.0696    2.0771    4.2457 H   0  0  0  0  0  0  0  0  0  0  0  0
   -0.9082    3.1507    3.4321 H   0  0  0  0  0  0  0  0  0  0  0  0
   -2.9498    3.8624    3.4033 C   0  0  0  0  0  0  0  0  0  0  0  0
   -2.7829    4.5003    2.5293 H   0  0  0  0  0  0  0  0  0  0  0  0
   -3.9475    3.4227    3.3117 H   0  0  0  0  0  0  0  0  0  0  0  0
   -2.8564    4.6661    4.6482 N   0  3  0  0  0  0  0  0  0  0  0  0
   -1.9384    5.0843    4.7333 H   0  0  0  0  0  0  0  0  0  0  0  0
   -3.5455    5.4078    4.6456 H   0  0  0  0  0  0  0  0  0  0  0  0
   -3.0189    4.0818    5.4600 H   0  0  0  0  0  0  0  0  0  0  0  0
    0.0878   -1.0782    0.7257 C   0  0  0  0  0  0  0  0  0  0  0  0
    0.9376   -1.0843    1.6085 O   0  0  0  0  0  0  0  0  0  0  0  0
    0.1498   -1.8644   -0.3540 N   0  0  0  0  0  0  0  0  0  0  0  0
   -0.6080   -1.8165   -1.0147 H   0  0  0  0  0  0  0  0  0  0  0  0
    1.2083   -2.8474   -0.5925 C   0  0  0  0  0  0  0  0  0  0  0  0
    1.1948   -3.6025    0.1963 H   0  0  0  0  0  0  0  0  0  0  0  0
    1.0626   -3.3381   -1.5555 H   0  0  0  0  0  0  0  0  0  0  0  0
    2.1839   -2.3565   -0.5821 H   0  0  0  0  0  0  0  0  0  0  0  0
  5  6  2  0  0  0  0
  5  7  1  0  0  0  0
  2  3  1  0  0  0  0
  2  4  1  0  0  0  0
  2  5  1  0  0  0  0
  1  2  1  0  0  0  0
 27 28  2  0  0  0  0
 27 29  1  0  0  0  0
 23 24  1  0  0  0  0
 23 25  1  0  0  0  0
 23 26  1  0  0  0  0
 20 21  1  0  0  0  0
 20 22  1  0  0  0  0
 20 23  1  0  0  0  0
 17 18  1  0  0  0  0
 17 19  1  0  0  0  0
 17 20  1  0  0  0  0
 14 15  1  0  0  0  0
 14 16  1  0  0  0  0
 14 17  1  0  0  0  0
 11 12  1  0  0  0  0
 11 13  1  0  0  0  0
 11 14  1  0  0  0  0
  9 10  1  0  0  0  0
  9 11  1  0  0  0  0
  9 27  1  0  0  0  0
  7  8  1  0  0  0  0
  7  9  1  0  0  0  0
 31 32  1  0  0  0  0
 31 33  1  0  0  0  0
 31 34  1  0  0  0  0
 29 30  1  0  0  0  0
 29 31  1  0  0  0  0
M  CHG  1  23   1
M  END
$$$$
default_name
  -OEChem-01062215323D

 34 33  0     1  0  0  0  0  0999 V2000
   -3.8899   -3.6747    1.6490 H   0  0  0  0  0  0  0  0  0  0  0  0
   -3.9109   -2.6717    1.2250 C   0  0  0  0  0  0  0  0  0  0  0  0
   -4.6009   -2.0517    1.7950 H   0  0  0  0  0  0  0  0  0  0  0  0
   -4.2309   -2.7237    0.1860 H   0  0  0  0  0  0  0  0  0  0  0  0
   -2.5229   -2.0787    1.2980 C   0  0  0  0  0  0  0  0  0  0  0  0
   -1.5999   -2.7227    1.7810 O   0  0  0  0  0  0  0  0  0  0  0  0
   -2.3659   -0.8447    0.8120 N   0  0  0  0  0  0  0  0  0  0  0  0
   -3.1749   -0.3807    0.4220 H   0  0  0  0  0  0  0  0  0  0  0  0
   -1.0919   -0.1077    0.8170 C   0  0  1  0  0  0  0  0  0  0  0  0
   -1.0734    0.5501   -0.0539 H   0  0  0  0  0  0  0  0  0  0  0  0
   -1.0297    0.7539    2.0922 C   0  0  0  0  0  0  0  0  0  0  0  0
   -1.2274    0.1143    2.9538 H   0  0  0  0  0  0  0  0  0  0  0  0
   -0.0242    1.1659    2.1980 H   0  0  0  0  0  0  0  0  0  0  0  0
   -2.0504    1.9022    2.0988 C   0  0  0  0  0  0  0  0  0  0  0  0
   -1.8816    2.5488    1.2367 H   0  0  0  0  0  0  0  0  0  0  0  0
   -3.0586    1.4872    2.0411 H   0  0  0  0  0  0  0  0  0  0  0  0
   -1.9148    2.7306    3.3839 C   0  0  0  0  0  0  0  0  0  0  0  0
   -2.0696    2.0771    4.2457 H   0  0  0  0  0  0  0  0  0  0  0  0
   -0.9082    3.1507    3.4321 H   0  0  0  0  0  0  0  0  0  0  0  0
   -2.9498    3.8624    3.4033 C   0  0  0  0  0  0  0  0  0  0  0  0
   -2.7829    4.5003    2.5293 H   0  0  0  0  0  0  0  0  0  0  0  0
   -3.9475    3.4227    3.3117 H   0  0  0  0  0  0  0  0  0  0  0  0
   -2.8564    4.6661    4.6482 N   0  3  0  0  0  0  0  0  0  0  0  0
   -1.9384    5.0843    4.7333 H   0  0  0  0  0  0  0  0  0  0  0  0
   -3.5455    5.4078    4.6456 H   0  0  0  0  0  0  0  0  0  0  0  0
   -3.0189    4.0818    5.4600 H   0  0  0  0  0  0  0  0  0  0  0  0
    0.0878   -1.0782    0.7257 C   0  0  0  0  0  0  0  0  0  0  0  0
    0.7795   -1.2865    1.7155 O   0  0  0  0  0  0  0  0  0  0  0  0
    0.3288   -1.6364   -0.4651 N   0  0  0  0  0  0  0  0  0  0  0  0
   -0.3091   -1.4341   -1.2170 H   0  0  0  0  0  0  0  0  0  0  0  0
    1.4134   -2.5860   -0.7209 C   0  0  0  0  0  0  0  0  0  0  0  0
    1.2703   -3.4817   -0.1126 H   0  0  0  0  0  0  0  0  0  0  0  0
    1.4299   -2.8711   -1.7734 H   0  0  0  0  0  0  0  0  0  0  0  0
    2.3732   -2.1385   -0.4537 H   0  0  0  0  0  0  0  0  0  0  0  0
  5  6  2  0  0  0  0
  5  7  1  0  0  0  0
  2  3  1  0  0  0  0
  2  4  1  0  0  0  0
  2  5  1  0  0  0  0
  1  2  1  0  0  0  0
 27 28  2  0  0  0  0
 27 29  1  0  0  0  0
 23 24  1  0  0  0  0
 23 25  1  0  0  0  0
 23 26  1  0  0  0  0
 20 21  1  0  0  0  0
 20 22  1  0  0  0  0
 20 23  1  0  0  0  0
 17 18  1  0  0  0  0
 17 19  1  0  0  0  0
 17 20  1  0  0  0  0
 14 15  1  0  0  0  0
 14 16  1  0  0  0  0
 14 17  1  0  0  0  0
 11 12  1  0  0  0  0
 11 13  1  0  0  0  0
 11 14  1  0  0  0  0
  9 10  1  0  0  0  0
  9 11  1  0  0  0  0
  9 27  1  0  0  0  0
  7  8  1  0  0  0  0
  7  9  1  0  0  0  0
 31 32  1  0  0  0  0
 31 33  1  0  0  0  0
 31 34  1  0  0  0  0
 29 30  1  0  0  0  0
 29 31  1  0  0  0  0
M  CHG  1  23   1
M  END
$$$$
default_name
  -OEChem-01062215323D

 34 33  0     1  0  0  0  0  0999 V2000
   -3.8899   -3.6747    1.6490 H   0  0  0  0  0  0  0  0  0  0  0  0
   -3.9109   -2.6717    1.2250 C   0  0  0  0  0  0  0  0  0  0  0  0
   -4.6009   -2.0517    1.7950 H   0  0  0  0  0  0  0  0  0  0  0  0
   -4.2309   -2.7237    0.1860 H   0  0  0  0  0  0  0  0  0  0  0  0
   -2.5229   -2.0787    1.2980 C   0  0  0  0  0  0  0  0  0  0  0  0
   -1.5999   -2.7227    1.7810 O   0  0  0  0  0  0  0  0  0  0  0  0
   -2.3659   -0.8447    0.8120 N   0  0  0  0  0  0  0  0  0  0  0  0
   -3.1749   -0.3807    0.4220 H   0  0  0  0  0  0  0  0  0  0  0  0
   -1.0919   -0.1077    0.8170 C   0  0  1  0  0  0  0  0  0  0  0  0
   -1.0734    0.5501   -0.0539 H   0  0  0  0  0  0  0  0  0  0  0  0
   -1.0297    0.7539    2.0922 C   0  0  0  0  0  0  0  0  0  0  0  0
   -1.2274    0.1143    2.9538 H   0  0  0  0  0  0  0  0  0  0  0  0
   -0.0242    1.1659    2.1980 H   0  0  0  0  0  0  0  0  0  0  0  0
   -2.0504    1.9022    2.0988 C   0  0  0  0  0  0  0  0  0  0  0  0
   -1.8816    2.5488    1.2367 H   0  0  0  0  0  0  0  0  0  0  0  0
   -3.0586    1.4872    2.0411 H   0  0  0  0  0  0  0  0  0  0  0  0
   -1.9148    2.7306    3.3839 C   0  0  0  0  0  0  0  0  0  0  0  0
   -2.0696    2.0771    4.2457 H   0  0  0  0  0  0  0  0  0  0  0  0
   -0.9082    3.1507    3.4321 H   0  0  0  0  0  0  0  0  0  0  0  0
   -2.9498    3.8624    3.4033 C   0  0  0  0  0  0  0  0  0  0  0  0
   -2.7829    4.5003    2.5293 H   0  0  0  0  0  0  0  0  0  0  0  0
   -3.9475    3.4227    3.3117 H   0  0  0  0  0  0  0  0  0  0  0  0
   -2.8564    4.6661    4.6482 N   0  3  0  0  0  0  0  0  0  0  0  0
   -1.9384    5.0843    4.7333 H   0  0  0  0  0  0  0  0  0  0  0  0
   -3.5455    5.4078    4.6456 H   0  0  0  0  0  0  0  0  0  0  0  0
   -3.0189    4.0818    5.4600 H   0  0  0  0  0  0  0  0  0  0  0  0
    0.0878   -1.0782    0.7257 C   0  0  0  0  0  0  0  0  0  0  0  0
    0.6062   -1.5007    1.7525 O   0  0  0  0  0  0  0  0  0  0  0  0
    0.5235   -1.3967   -0.4976 N   0  0  0  0  0  0  0  0  0  0  0  0
    0.0187   -1.0290   -1.2870 H   0  0  0  0  0  0  0  0  0  0  0  0
    1.6366   -2.3111   -0.7590 C   0  0  0  0  0  0  0  0  0  0  0  0
    1.3958   -3.3045   -0.3746 H   0  0  0  0  0  0  0  0  0  0  0  0
    1.8276   -2.3823   -1.8304 H   0  0  0  0  0  0  0  0  0  0  0  0
    2.5383   -1.9565   -0.2550 H   0  0  0  0  0  0  0  0  0  0  0  0
  5  6  2  0  0  0  0
  5  7  1  0  0  0  0
  2  3  1  0  0  0  0
  2  4  1  0  0  0  0
  2  5  1  0  0  0  0
  1  2  1  0  0  0  0
 27 28  2  0  0  0  0
 27 29  1  0  0  0  0
 23 24  1  0  0  0  0
 23 25  1  0  0  0  0
 23 26  1  0  0  0  0
 20 21  1  0  0  0  0
 20 22  1  0  0  0  0
 20 23  1  0  0  0  0
 17 18  1  0  0  0  0
 17 19  1  0  0  0  0
 17 20  1  0  0  0  0
 14 15  1  0  0  0  0
 14 16  1  0  0  0  0
 14 17  1  0  0  0  0
 11 12  1  0  0  0  0
 11 13  1  0  0  0  0
 11 14  1  0  0  0  0
  9 10  1  0  0  0  0
  9 11  1  0  0  0  0
  9 27  1  0  0  0  0
  7  8  1  0  0  0  0
  7  9  1  0  0  0  0
 31 32  1  0  0  0  0
 31 33  1  0  0  0  0
 31 34  1  0  0  0  0
 29 30  1  0  0  0  0
 29 31  1  0  0  0  0
M  CHG  1  23   1
M  END
$$$$
default_name
  -OEChem-01062215323D

 34 33  0     1  0  0  0  0  0999 V2000
   -3.8899   -3.6747    1.6490 H   0  0  0  0  0  0  0  0  0  0  0  0
   -3.9109   -2.6717    1.2250 C   0  0  0  0  0  0  0  0  0  0  0  0
   -4.6009   -2.0517    1.7950 H   0  0  0  0  0  0  0  0  0  0  0  0
   -4.2309   -2.7237    0.1860 H   0  0  0  0  0  0  0  0  0  0  0  0
   -2.5229   -2.0787    1.2980 C   0  0  0  0  0  0  0  0  0  0  0  0
   -1.5999   -2.7227    1.7810 O   0  0  0  0  0  0  0  0  0  0  0  0
   -2.3659   -0.8447    0.8120 N   0  0  0  0  0  0  0  0  0  0  0  0
   -3.1749   -0.3807    0.4220 H   0  0  0  0  0  0  0  0  0  0  0  0
   -1.0919   -0.1077    0.8170 C   0  0  1  0  0  0  0  0  0  0  0  0
   -1.0734    0.5501   -0.0539 H   0  0  0  0  0  0  0  0  0  0  0  0
   -1.0297    0.7539    2.0922 C   0  0  0  0  0  0  0  0  0  0  0  0
   -1.2274    0.1143    2.9538 H   0  0  0  0  0  0  0  0  0  0  0  0
   -0.0242    1.1659    2.1980 H   0  0  0  0  0  0  0  0  0  0  0  0
   -2.0504    1.9022    2.0988 C   0  0  0  0  0  0  0  0  0  0  0  0
   -1.8816    2.5488    1.2367 H   0  0  0  0  0  0  0  0  0  0  0  0
   -3.0586    1.4872    2.0411 H   0  0  0  0  0  0  0  0  0  0  0  0
   -1.9148    2.7306    3.3839 C   0  0  0  0  0  0  0  0  0  0  0  0
   -2.0696    2.0771    4.2457 H   0  0  0  0  0  0  0  0  0  0  0  0
   -0.9082    3.1507    3.4321 H   0  0  0  0  0  0  0  0  0  0  0  0
   -2.9498    3.8624    3.4033 C   0  0  0  0  0  0  0  0  0  0  0  0
   -2.7829    4.5003    2.5293 H   0  0  0  0  0  0  0  0  0  0  0  0
   -3.9475    3.4227    3.3117 H   0  0  0  0  0  0  0  0  0  0  0  0
   -2.8564    4.6661    4.6482 N   0  3  0  0  0  0  0  0  0  0  0  0
   -1.9384    5.0843    4.7333 H   0  0  0  0  0  0  0  0  0  0  0  0
   -3.5455    5.4078    4.6456 H   0  0  0  0  0  0  0  0  0  0  0  0
   -3.0189    4.0818    5.4600 H   0  0  0  0  0  0  0  0  0  0  0  0
    0.0878   -1.0782    0.7257 C   0  0  0  0  0  0  0  0  0  0  0  0
    0.4294   -1.7122    1.7171 O   0  0  0  0  0  0  0  0  0  0  0  0
    0.7206   -1.1617   -0.4492 N   0  0  0  0  0  0  0  0  0  0  0  0
    0.3531   -0.6288   -1.2200 H   0  0  0  0  0  0  0  0  0  0  0  0
    1.8627   -2.0414   -0.7044 C   0  0  0  0  0  0  0  0  0  0  0  0
    1.5627   -3.0830   -0.5717 H   0  0  0  0  0  0  0  0  0  0  0  0
    2.2287   -1.9049   -1.7226 H   0  0  0  0  0  0  0  0  0  0  0  0
    2.6680   -1.8228    0.0003 H   0  0  0  0  0  0  0  0  0  0  0  0
  5  6  2  0  0  0  0
  5  7  1  0  0  0  0
  2  3  1  0  0  0  0
  2  4  1  0  0  0  0
  2  5  1  0  0  0  0
  1  2  1  0  0  0  0
 27 28  2  0  0  0  0
 27 29  1  0  0  0  0
 23 24  1  0  0  0  0
 23 25  1  0  0  0  0
 23 26  1  0  0  0  0
 20 21  1  0  0  0  0
 20 22  1  0  0  0  0
 20 23  1  0  0  0  0
 17 18  1  0  0  0  0
 17 19  1  0  0  0  0
 17 20  1  0  0  0  0
 14 15  1  0  0  0  0
 14 16  1  0  0  0  0
 14 17  1  0  0  0  0
 11 12  1  0  0  0  0
 11 13  1  0  0  0  0
 11 14  1  0  0  0  0
  9 10  1  0  0  0  0
  9 11  1  0  0  0  0
  9 27  1  0  0  0  0
  7  8  1  0  0  0  0
  7  9  1  0  0  0  0
 31 32  1  0  0  0  0
 31 33  1  0  0  0  0
 31 34  1  0  0  0  0
 29 30  1  0  0  0  0
 29 31  1  0  0  0  0
M  CHG  1  23   1
M  END
$$$$
default_name
  -OEChem-01062215323D

 34 33  0     1  0  0  0  0  0999 V2000
   -3.8899   -3.6747    1.6490 H   0  0  0  0  0  0  0  0  0  0  0  0
   -3.9109   -2.6717    1.2250 C   0  0  0  0  0  0  0  0  0  0  0  0
   -4.6009   -2.0517    1.7950 H   0  0  0  0  0  0  0  0  0  0  0  0
   -4.2309   -2.7237    0.1860 H   0  0  0  0  0  0  0  0  0  0  0  0
   -2.5229   -2.0787    1.2980 C   0  0  0  0  0  0  0  0  0  0  0  0
   -1.5999   -2.7227    1.7810 O   0  0  0  0  0  0  0  0  0  0  0  0
   -2.3659   -0.8447    0.8120 N   0  0  0  0  0  0  0  0  0  0  0  0
   -3.1749   -0.3807    0.4220 H   0  0  0  0  0  0  0  0  0  0  0  0
   -1.0919   -0.1077    0.8170 C   0  0  1  0  0  0  0  0  0  0  0  0
   -1.0734    0.5501   -0.0539 H   0  0  0  0  0  0  0  0  0  0  0  0
   -1.0297    0.7539    2.0922 C   0  0  0  0  0  0  0  0  0  0  0  0
   -1.2274    0.1143    2.9538 H   0  0  0  0  0  0  0  0  0  0  0  0
   -0.0242    1.1659    2.1980 H   0  0  0  0  0  0  0  0  0  0  0  0
   -2.0504    1.9022    2.0988 C   0  0  0  0  0  0  0  0  0  0  0  0
   -1.8816    2.5488    1.2367 H   0  0  0  0  0  0  0  0  0  0  0  0
   -3.0586    1.4872    2.0411 H   0  0  0  0  0  0  0  0  0  0  0  0
   -1.9148    2.7306    3.3839 C   0  0  0  0  0  0  0  0  0  0  0  0
   -2.0696    2.0771    4.2457 H   0  0  0  0  0  0  0  0  0  0  0  0
   -0.9082    3.1507    3.4321 H   0  0  0  0  0  0  0  0  0  0  0  0
   -2.9498    3.8624    3.4033 C   0  0  0  0  0  0  0  0  0  0  0  0
   -2.7829    4.5003    2.5293 H   0  0  0  0  0  0  0  0  0  0  0  0
   -3.9475    3.4227    3.3117 H   0  0  0  0  0  0  0  0  0  0  0  0
   -2.8564    4.6661    4.6482 N   0  3  0  0  0  0  0  0  0  0  0  0
   -1.9384    5.0843    4.7333 H   0  0  0  0  0  0  0  0  0  0  0  0
   -3.5455    5.4078    4.6456 H   0  0  0  0  0  0  0  0  0  0  0  0
   -3.0189    4.0818    5.4600 H   0  0  0  0  0  0  0  0  0  0  0  0
    0.0878   -1.0782    0.7257 C   0  0  0  0  0  0  0  0  0  0  0  0
    0.2612   -1.9068    1.6116 O   0  0  0  0  0  0  0  0  0  0  0  0
    0.9066   -0.9474   -0.3232 N   0  0  0  0  0  0  0  0  0  0  0  0
    0.6713   -0.2608   -1.0206 H   0  0  0  0  0  0  0  0  0  0  0  0
    2.0763   -1.7952   -0.5607 C   0  0  0  0  0  0  0  0  0  0  0  0
    1.7598   -2.8324   -0.6904 H   0  0  0  0  0  0  0  0  0  0  0  0
    2.6058   -1.4714   -1.4575 H   0  0  0  0  0  0  0  0  0  0  0  0
    2.7535   -1.7467    0.2949 H   0  0  0  0  0  0  0  0  0  0  0  0
  5  6  2  0  0  0  0
  5  7  1  0  0  0  0
  2  3  1  0  0  0  0
  2  4  1  0  0  0  0
  2  5  1  0  0  0  0
  1  2  1  0  0  0  0
 27 28  2  0  0  0  0
 27 29  1  0  0  0  0
 23 24  1  0  0  0  0
 23 25  1  0  0  0  0
 23 26  1  0  0  0  0
 20 21  1  0  0  0  0
 20 22  1  0  0  0  0
 20 23  1  0  0  0  0
 17 18  1  0  0  0  0
 17 19  1  0  0  0  0
 17 20  1  0  0  0  0
 14 15  1  0  0  0  0
 14 16  1  0  0  0  0
 14 17  1  0  0  0  0
 11 12  1  0  0  0  0
 11 13  1  0  0  0  0
 11 14  1  0  0  0  0
  9 10  1  0  0  0  0
  9 11  1  0  0  0  0
  9 27  1  0  0  0  0
  7  8  1  0  0  0  0
  7  9  1  0  0  0  0
 31 32  1  0  0  0  0
 31 33  1  0  0  0  0
 31 34  1  0  0  0  0
 29 30  1  0  0  0  0
 29 31  1  0  0  0  0
M  CHG  1  23   1
M  END
$$$$
default_name
  -OEChem-01062215323D

 34 33  0     1  0  0  0  0  0999 V2000
   -3.8899   -3.6747    1.6490 H   0  0  0  0  0  0  0  0  0  0  0  0
   -3.9109   -2.6717    1.2250 C   0  0  0  0  0  0  0  0  0  0  0  0
   -4.6009   -2.0517    1.7950 H   0  0  0  0  0  0  0  0  0  0  0  0
   -4.2309   -2.7237    0.1860 H   0  0  0  0  0  0  0  0  0  0  0  0
   -2.5229   -2.0787    1.2980 C   0  0  0  0  0  0  0  0  0  0  0  0
   -1.5999   -2.7227    1.7810 O   0  0  0  0  0  0  0  0  0  0  0  0
   -2.3659   -0.8447    0.8120 N   0  0  0  0  0  0  0  0  0  0  0  0
   -3.1749   -0.3807    0.4220 H   0  0  0  0  0  0  0  0  0  0  0  0
   -1.0919   -0.1077    0.8170 C   0  0  1  0  0  0  0  0  0  0  0  0
   -1.0734    0.5501   -0.0539 H   0  0  0  0  0  0  0  0  0  0  0  0
   -1.0297    0.7539    2.0922 C   0  0  0  0  0  0  0  0  0  0  0  0
   -1.2274    0.1143    2.9538 H   0  0  0  0  0  0  0  0  0  0  0  0
   -0.0242    1.1659    2.1980 H   0  0  0  0  0  0  0  0  0  0  0  0
   -2.0504    1.9022    2.0988 C   0  0  0  0  0  0  0  0  0  0  0  0
   -1.8816    2.5488    1.2367 H   0  0  0  0  0  0  0  0  0  0  0  0
   -3.0586    1.4872    2.0411 H   0  0  0  0  0  0  0  0  0  0  0  0
   -1.9148    2.7306    3.3839 C   0  0  0  0  0  0  0  0  0  0  0  0
   -2.0696    2.0771    4.2457 H   0  0  0  0  0  0  0  0  0  0  0  0
   -0.9082    3.1507    3.4321 H   0  0  0  0  0  0  0  0  0  0  0  0
   -2.9498    3.8624    3.4033 C   0  0  0  0  0  0  0  0  0  0  0  0
   -2.7829    4.5003    2.5293 H   0  0  0  0  0  0  0  0  0  0  0  0
   -3.9475    3.4227    3.3117 H   0  0  0  0  0  0  0  0  0  0  0  0
   -2.8564    4.6661    4.6482 N   0  3  0  0  0  0  0  0  0  0  0  0
   -1.9384    5.0843    4.7333 H   0  0  0  0  0  0  0  0  0  0  0  0
   -3.5455    5.4078    4.6456 H   0  0  0  0  0  0  0  0  0  0  0  0
   -3.0189    4.0818    5.4600 H   0  0  0  0  0  0  0  0  0  0  0  0
    0.0878   -1.0782    0.7257 C   0  0  0  0  0  0  0  0  0  0  0  0
    0.1130   -2.0711    1.4434 O   0  0  0  0  0  0  0  0  0  0  0  0
    1.0689   -0.7684   -0.1282 N   0  0  0  0  0  0  0  0  0  0  0  0
    0.9516    0.0500   -0.7023 H   0  0  0  0  0  0  0  0  0  0  0  0
    2.2629   -1.5895   -0.3377 C   0  0  0  0  0  0  0  0  0  0  0  0
    1.9734   -2.5696   -0.7228 H   0  0  0  0  0  0  0  0  0  0  0  0
    2.9332   -1.1114   -1.0529 H   0  0  0  0  0  0  0  0  0  0  0  0
    2.7888   -1.7332    0.6086 H   0  0  0  0  0  0  0  0  0  0  0  0
  5  6  2  0  0  0  0
  5  7  1  0  0  0  0
  2  3  1  0  0  0  0
  2  4  1  0  0  0  0
  2  5  1  0  0  0  0
  1  2  1  0  0  0  0
 27 28  2  0  0  0  0
 27 29  1  0  0  0  0
 23 24  1  0  0  0  0
 23 25  1  0  0  0  0
 23 26  1  0  0  0  0
 20 21  1  0  0  0  0
 20 22  1  0  0  0  0
 20 23  1  0  0  0  0
 17 18  1  0  0  0  0
 17 19  1  0  0  0  0
 17 20  1  0  0  0  0
 14 15  1  0  0  0  0
 14 16  1  0  0  0  0
 14 17  1  0  0  0  0
 11 12  1  0  0  0  0
 11 13  1  0  0  0  0
 11 14  1  0  0  0  0
  9 10  1  0  0  0  0
  9 11  1  0  0  0  0
  9 27  1  0  0  0  0
  7  8  1  0  0  0  0
  7  9  1  0  0  0  0
 31 32  1  0  0  0  0
 31 33  1  0  0  0  0
 31 34  1  0  0  0  0
 29 30  1  0  0  0  0
 29 31  1  0  0  0  0
M  CHG  1  23   1
M  END
$$$$
default_name
  -OEChem-01062215323D

 34 33  0     1  0  0  0  0  0999 V2000
   -3.8899   -3.6747    1.6490 H   0  0  0  0  0  0  0  0  0  0  0  0
   -3.9109   -2.6717    1.2250 C   0  0  0  0  0  0  0  0  0  0  0  0
   -4.6009   -2.0517    1.7950 H   0  0  0  0  0  0  0  0  0  0  0  0
   -4.2309   -2.7237    0.1860 H   0  0  0  0  0  0  0  0  0  0  0  0
   -2.5229   -2.0787    1.2980 C   0  0  0  0  0  0  0  0  0  0  0  0
   -1.5999   -2.7227    1.7810 O   0  0  0  0  0  0  0  0  0  0  0  0
   -2.3659   -0.8447    0.8120 N   0  0  0  0  0  0  0  0  0  0  0  0
   -3.1749   -0.3807    0.4220 H   0  0  0  0  0  0  0  0  0  0  0  0
   -1.0919   -0.1077    0.8170 C   0  0  1  0  0  0  0  0  0  0  0  0
   -1.0734    0.5501   -0.0539 H   0  0  0  0  0  0  0  0  0  0  0  0
   -1.0297    0.7539    2.0922 C   0  0  0  0  0  0  0  0  0  0  0  0
   -1.2274    0.1143    2.9538 H   0  0  0  0  0  0  0  0  0  0  0  0
   -0.0242    1.1659    2.1980 H   0  0  0  0  0  0  0  0  0  0  0  0
   -2.0504    1.9022    2.0988 C   0  0  0  0  0  0  0  0  0  0  0  0
   -1.8816    2.5488    1.2367 H   0  0  0  0  0  0  0  0  0  0  0  0
   -3.0586    1.4872    2.0411 H   0  0  0  0  0  0  0  0  0  0  0  0
   -1.9148    2.7306    3.3839 C   0  0  0  0  0  0  0  0  0  0  0  0
   -2.0696    2.0771    4.2457 H   0  0  0  0  0  0  0  0  0  0  0  0
   -0.9082    3.1507    3.4321 H   0  0  0  0  0  0  0  0  0  0  0  0
   -2.9498    3.8624    3.4033 C   0  0  0  0  0  0  0  0  0  0  0  0
   -2.7829    4.5003    2.5293 H   0  0  0  0  0  0  0  0  0  0  0  0
   -3.9475    3.4227    3.3117 H   0  0  0  0  0  0  0  0  0  0  0  0
   -2.8564    4.6661    4.6482 N   0  3  0  0  0  0  0  0  0  0  0  0
   -1.9384    5.0843    4.7333 H   0  0  0  0  0  0  0  0  0  0  0  0
   -3.5455    5.4078    4.6456 H   0  0  0  0  0  0  0  0  0  0  0  0
   -3.0189    4.0818    5.4600 H   0  0  0  0  0  0  0  0  0  0  0  0
    0.0878   -1.0782    0.7257 C   0  0  0  0  0  0  0  0  0  0  0  0
   -0.0051   -2.1940    1.2237 O   0  0  0  0  0  0  0  0  0  0  0  0
    1.1965   -0.6370    0.1225 N   0  0  0  0  0  0  0  0  0  0  0  0
    1.1749    0.2824   -0.2868 H   0  0  0  0  0  0  0  0  0  0  0  0
    2.4096   -1.4380   -0.0507 C   0  0  0  0  0  0  0  0  0  0  0  0
    2.1892   -2.3126   -0.6665 H   0  0  0  0  0  0  0  0  0  0  0  0
    3.1886   -0.8495   -0.5367 H   0  0  0  0  0  0  0  0  0  0  0  0
    2.7717   -1.7834    0.9202 H   0  0  0  0  0  0  0  0  0  0  0  0
  5  6  2  0  0  0  0
  5  7  1  0  0  0  0
  2  3  1  0  0  0  0
  2  4  1  0  0  0  0
  2  5  1  0  0  0  0
  1  2  1  0  0  0  0
 27 28  2  0  0  0  0
 27 29  1  0  0  0  0
 23 24  1  0  0  0  0
 23 25  1  0  0  0  0
 23 26  1  0  0  0  0
 20 21  1  0  0  0  0
 20 22  1  0  0  0  0
 20 23  1  0  0  0  0
 17 18  1  0  0  0  0
 17 19  1  0  0  0  0
 17 20  1  0  0  0  0
 14 15  1  0  0  0  0
 14 16  1  0  0  0  0
 14 17  1  0  0  0  0
 11 12  1  0  0  0  0
 11 13  1  0  0  0  0
 11 14  1  0  0  0  0
  9 10  1  0  0  0  0
  9 11  1  0  0  0  0
  9 27  1  0  0  0  0
  7  8  1  0  0  0  0
  7  9  1  0  0  0  0
 31 32  1  0  0  0  0
 31 33  1  0  0  0  0
 31 34  1  0  0  0  0
 29 30  1  0  0  0  0
 29 31  1  0  0  0  0
M  CHG  1  23   1
M  END
$$$$
default_name
  -OEChem-01062215323D

 34 33  0     1  0  0  0  0  0999 V2000
   -3.8899   -3.6747    1.6490 H   0  0  0  0  0  0  0  0  0  0  0  0
   -3.9109   -2.6717    1.2250 C   0  0  0  0  0  0  0  0  0  0  0  0
   -4.6009   -2.0517    1.7950 H   0  0  0  0  0  0  0  0  0  0  0  0
   -4.2309   -2.7237    0.1860 H   0  0  0  0  0  0  0  0  0  0  0  0
   -2.5229   -2.0787    1.2980 C   0  0  0  0  0  0  0  0  0  0  0  0
   -1.5999   -2.7227    1.7810 O   0  0  0  0  0  0  0  0  0  0  0  0
   -2.3659   -0.8447    0.8120 N   0  0  0  0  0  0  0  0  0  0  0  0
   -3.1749   -0.3807    0.4220 H   0  0  0  0  0  0  0  0  0  0  0  0
   -1.0919   -0.1077    0.8170 C   0  0  1  0  0  0  0  0  0  0  0  0
   -1.0734    0.5501   -0.0539 H   0  0  0  0  0  0  0  0  0  0  0  0
   -1.0297    0.7539    2.0922 C   0  0  0  0  0  0  0  0  0  0  0  0
   -1.2274    0.1143    2.9538 H   0  0  0  0  0  0  0  0  0  0  0  0
   -0.0242    1.1659    2.1980 H   0  0  0  0  0  0  0  0  0  0  0  0
   -2.0504    1.9022    2.0988 C   0  0  0  0  0  0  0  0  0  0  0  0
   -1.8816    2.5488    1.2367 H   0  0  0  0  0  0  0  0  0  0  0  0
   -3.0586    1.4872    2.0411 H   0  0  0  0  0  0  0  0  0  0  0  0
   -1.9148    2.7306    3.3839 C   0  0  0  0  0  0  0  0  0  0  0  0
   -2.0696    2.0771    4.2457 H   0  0  0  0  0  0  0  0  0  0  0  0
   -0.9082    3.1507    3.4321 H   0  0  0  0  0  0  0  0  0  0  0  0
   -2.9498    3.8624    3.4033 C   0  0  0  0  0  0  0  0  0  0  0  0
   -2.7829    4.5003    2.5293 H   0  0  0  0  0  0  0  0  0  0  0  0
   -3.9475    3.4227    3.3117 H   0  0  0  0  0  0  0  0  0  0  0  0
   -2.8564    4.6661    4.6482 N   0  3  0  0  0  0  0  0  0  0  0  0
   -1.9384    5.0843    4.7333 H   0  0  0  0  0  0  0  0  0  0  0  0
   -3.5455    5.4078    4.6456 H   0  0  0  0  0  0  0  0  0  0  0  0
   -3.0189    4.0818    5.4600 H   0  0  0  0  0  0  0  0  0  0  0  0
    0.0878   -1.0782    0.7257 C   0  0  0  0  0  0  0  0  0  0  0  0
   -0.0850   -2.2670    0.9676 O   0  0  0  0  0  0  0  0  0  0  0  0
    1.2806   -0.5620    0.4118 N   0  0  0  0  0  0  0  0  0  0  0  0
    1.3260    0.4205    0.1975 H   0  0  0  0  0  0  0  0  0  0  0  0
    2.5066   -1.3513    0.2809 C   0  0  0  0  0  0  0  0  0  0  0  0
    2.3923   -2.0789   -0.5255 H   0  0  0  0  0  0  0  0  0  0  0  0
    3.3547   -0.7035    0.0562 H   0  0  0  0  0  0  0  0  0  0  0  0
    2.7032   -1.8937    1.2083 H   0  0  0  0  0  0  0  0  0  0  0  0
  5  6  2  0  0  0  0
  5  7  1  0  0  0  0
  2  3  1  0  0  0  0
  2  4  1  0  0  0  0
  2  5  1  0  0  0  0
  1  2  1  0  0  0  0
 27 28  2  0  0  0  0
 27 29  1  0  0  0  0
 23 24  1  0  0  0  0
 23 25  1  0  0  0  0
 23 26  1  0  0  0  0
 20 21  1  0  0  0  0
 20 22  1  0  0  0  0
 20 23  1  0  0  0  0
 17 18  1  0  0  0  0
 17 19  1  0  0  0  0
 17 20  1  0  0  0  0
 14 15  1  0  0  0  0
 14 16  1  0  0  0  0
 14 17  1  0  0  0  0
 11 12  1  0  0  0  0
 11 13  1  0  0  0  0
 11 14  1  0  0  0  0
  9 10  1  0  0  0  0
  9 11  1  0  0  0  0
  9 27  1  0  0  0  0
  7  8  1  0  0  0  0
  7  9  1  0  0  0  0
 31 32  1  0  0  0  0
 31 33  1  0  0  0  0
 31 34  1  0  0  0  0
 29 30  1  0  0  0  0
 29 31  1  0  0  0  0
M  CHG  1  23   1
M  END
$$$$
default_name
  -OEChem-01062215323D

 34 33  0     1  0  0  0  0  0999 V2000
   -3.8899   -3.6747    1.6490 H   0  0  0  0  0  0  0  0  0  0  0  0
   -3.9109   -2.6717    1.2250 C   0  0  0  0  0  0  0  0  0  0  0  0
   -4.6009   -2.0517    1.7950 H   0  0  0  0  0  0  0  0  0  0  0  0
   -4.2309   -2.7237    0.1860 H   0  0  0  0  0  0  0  0  0  0  0  0
   -2.5229   -2.0787    1.2980 C   0  0  0  0  0  0  0  0  0  0  0  0
   -1.5999   -2.7227    1.7810 O   0  0  0  0  0  0  0  0  0  0  0  0
   -2.3659   -0.8447    0.8120 N   0  0  0  0  0  0  0  0  0  0  0  0
   -3.1749   -0.3807    0.4220 H   0  0  0  0  0  0  0  0  0  0  0  0
   -1.0919   -0.1077    0.8170 C   0  0  1  0  0  0  0  0  0  0  0  0
   -1.1773    0.7286    0.1207 H   0  0  0  0  0  0  0  0  0  0  0  0
   -0.8529    0.4473    2.2338 C   0  0  0  0  0  0  0  0  0  0  0  0
   -0.9460   -0.3721    2.9483 H   0  0  0  0  0  0  0  0  0  0  0  0
    0.1635    0.8408    2.2981 H   0  0  0  0  0  0  0  0  0  0  0  0
   -1.8481    1.5488    2.6296 C   0  0  0  0  0  0  0  0  0  0  0  0
   -1.7835    2.3746    1.9200 H   0  0  0  0  0  0  0  0  0  0  0  0
   -2.8609    1.1416    2.6115 H   0  0  0  0  0  0  0  0  0  0  0  0
   -1.5354    2.0703    4.0390 C   0  0  0  0  0  0  0  0  0  0  0  0
   -1.5862    1.2381    4.7451 H   0  0  0  0  0  0  0  0  0  0  0  0
   -0.5253    2.4847    4.0493 H   0  0  0  0  0  0  0  0  0  0  0  0
   -2.5433    3.1527    4.4454 C   0  0  0  0  0  0  0  0  0  0  0  0
   -2.4823    3.9727    3.7225 H   0  0  0  0  0  0  0  0  0  0  0  0
   -3.5505    2.7291    4.3876 H   0  0  0  0  0  0  0  0  0  0  0  0
   -2.2781    3.6586    5.8159 N   0  3  0  0  0  0  0  0  0  0  0  0
   -1.3511    4.0614    5.8730 H   0  0  0  0  0  0  0  0  0  0  0  0
   -2.9514    4.3711    6.0688 H   0  0  0  0  0  0  0  0  0  0  0  0
   -2.3420    2.9048    6.4901 H   0  0  0  0  0  0  0  0  0  0  0  0
    0.0524   -1.0146    0.3585 C   0  0  0  0  0  0  0  0  0  0  0  0
   -0.1759   -2.1866    0.0832 O   0  0  0  0  0  0  0  0  0  0  0  0
    1.2762   -0.4779    0.3128 N   0  0  0  0  0  0  0  0  0  0  0  0
    1.3682    0.5017    0.5251 H   0  0  0  0  0  0  0  0  0  0  0  0
    2.4754   -1.2060   -0.1058 C   0  0  0  0  0  0  0  0  0  0  0  0
    2.3670   -1.5296   -1.1432 H   0  0  0  0  0  0  0  0  0  0  0  0
    3.3564   -0.5685   -0.0235 H   0  0  0  0  0  0  0  0  0  0  0  0
    2.6121   -2.0919    0.5183 H   0  0  0  0  0  0  0  0  0  0  0  0
  5  6  2  0  0  0  0
  5  7  1  0  0  0  0
  2  3  1  0  0  0  0
  2  4  1  0  0  0  0
  2  5  1  0  0  0  0
  1  2  1  0  0  0  0
 27 28  2  0  0  0  0
 27 29  1  0  0  0  0
 23 24  1  0  0  0  0
 23 25  1  0  0  0  0
 23 26  1  0  0  0  0
 20 21  1  0  0  0  0
 20 22  1  0  0  0  0
 20 23  1  0  0  0  0
 17 18  1  0  0  0  0
 17 19  1  0  0  0  0
 17 20  1  0  0  0  0
 14 15  1  0  0  0  0
 14 16  1  0  0  0  0
 14 17  1  0  0  0  0
 11 12  1  0  0  0  0
 11 13  1  0  0  0  0
 11 14  1  0  0  0  0
  9 10  1  0  0  0  0
  9 11  1  0  0  0  0
  9 27  1  0  0  0  0
  7  8  1  0  0  0  0
  7  9  1  0  0  0  0
 31 32  1  0  0  0  0
 31 33  1  0  0  0  0
 31 34  1  0  0  0  0
 29 30  1  0  0  0  0
 29 31  1  0  0  0  0
M  CHG  1  23   1
M  END
$$$$
default_name
  -OEChem-01062215323D

 34 33  0     1  0  0  0  0  0999 V2000
   -3.8899   -3.6747    1.6490 H   0  0  0  0  0  0  0  0  0  0  0  0
   -3.9109   -2.6717    1.2250 C   0  0  0  0  0  0  0  0  0  0  0  0
   -4.6009   -2.0517    1.7950 H   0  0  0  0  0  0  0  0  0  0  0  0
   -4.2309   -2.7237    0.1860 H   0  0  0  0  0  0  0  0  0  0  0  0
   -2.5229   -2.0787    1.2980 C   0  0  0  0  0  0  0  0  0  0  0  0
   -1.5999   -2.7227    1.7810 O   0  0  0  0  0  0  0  0  0  0  0  0
   -2.3659   -0.8447    0.8120 N   0  0  0  0  0  0  0  0  0  0  0  0
   -3.1749   -0.3807    0.4220 H   0  0  0  0  0  0  0  0  0  0  0  0
   -1.0919   -0.1077    0.8170 C   0  0  1  0  0  0  0  0  0  0  0  0
   -1.1773    0.7286    0.1207 H   0  0  0  0  0  0  0  0  0  0  0  0
   -0.8529    0.4473    2.2338 C   0  0  0  0  0  0  0  0  0  0  0  0
   -0.9460   -0.3721    2.9483 H   0  0  0  0  0  0  0  0  0  0  0  0
    0.1635    0.8408    2.2981 H   0  0  0  0  0  0  0  0  0  0  0  0
   -1.8481    1.5488    2.6296 C   0  0  0  0  0  0  0  0  0  0  0  0
   -1.7835    2.3746    1.9200 H   0  0  0  0  0  0  0  0  0  0  0  0
   -2.8609    1.1416    2.6115 H   0  0  0  0  0  0  0  0  0  0  0  0
   -1.5354    2.0703    4.0390 C   0  0  0  0  0  0  0  0  0  0  0  0
   -1.5862    1.2381    4.7451 H   0  0  0  0  0  0  0  0  0  0  0  0
   -0.5253    2.4847    4.0493 H   0  0  0  0  0  0  0  0  0  0  0  0
   -2.5433    3.1527    4.4454 C   0  0  0  0  0  0  0  0  0  0  0  0
   -2.4823    3.9727    3.7225 H   0  0  0  0  0  0  0  0  0  0  0  0
   -3.5505    2.7291    4.3876 H   0  0  0  0  0  0  0  0  0  0  0  0
   -2.2781    3.6586    5.8159 N   0  3  0  0  0  0  0  0  0  0  0  0
   -1.3511    4.0614    5.8730 H   0  0  0  0  0  0  0  0  0  0  0  0
   -2.9514    4.3711    6.0688 H   0  0  0  0  0  0  0  0  0  0  0  0
   -2.3420    2.9048    6.4901 H   0  0  0  0  0  0  0  0  0  0  0  0
    0.0524   -1.0146    0.3585 C   0  0  0  0  0  0  0  0  0  0  0  0
   -0.2013   -2.0879   -0.1755 O   0  0  0  0  0  0  0  0  0  0  0  0
    1.2987   -0.5945    0.5996 N   0  0  0  0  0  0  0  0  0  0  0  0
    1.4163    0.3150    1.0143 H   0  0  0  0  0  0  0  0  0  0  0  0
    2.5018   -1.3392    0.2235 C   0  0  0  0  0  0  0  0  0  0  0  0
    2.5418   -1.4510   -0.8621 H   0  0  0  0  0  0  0  0  0  0  0  0
    3.3961   -0.8128    0.5589 H   0  0  0  0  0  0  0  0  0  0  0  0
    2.4806   -2.3351    0.6714 H   0  0  0  0  0  0  0  0  0  0  0  0
  5  6  2  0  0  0  0
  5  7  1  0  0  0  0
  2  3  1  0  0  0  0
  2  4  1  0  0  0  0
  2  5  1  0  0  0  0
  1  2  1  0  0  0  0
 27 28  2  0  0  0  0
 27 29  1  0  0  0  0
 23 24  1  0  0  0  0
 23 25  1  0  0  0  0
 23 26  1  0  0  0  0
 20 21  1  0  0  0  0
 20 22  1  0  0  0  0
 20 23  1  0  0  0  0
 17 18  1  0  0  0  0
 17 19  1  0  0  0  0
 17 20  1  0  0  0  0
 14 15  1  0  0  0  0
 14 16  1  0  0  0  0
 14 17  1  0  0  0  0
 11 12  1  0  0  0  0
 11 13  1  0  0  0  0
 11 14  1  0  0  0  0
  9 10  1  0  0  0  0
  9 11  1  0  0  0  0
  9 27  1  0  0  0  0
  7  8  1  0  0  0  0
  7  9  1  0  0  0  0
 31 32  1  0  0  0  0
 31 33  1  0  0  0  0
 31 34  1  0  0  0  0
 29 30  1  0  0  0  0
 29 31  1  0  0  0  0
M  CHG  1  23   1
M  END
$$$$
default_name
  -OEChem-01062215323D

 34 33  0     1  0  0  0  0  0999 V2000
   -3.8899   -3.6747    1.6490 H   0  0  0  0  0  0  0  0  0  0  0  0
   -3.9109   -2.6717    1.2250 C   0  0  0  0  0  0  0  0  0  0  0  0
   -4.6009   -2.0517    1.7950 H   0  0  0  0  0  0  0  0  0  0  0  0
   -4.2309   -2.7237    0.1860 H   0  0  0  0  0  0  0  0  0  0  0  0
   -2.5229   -2.0787    1.2980 C   0  0  0  0  0  0  0  0  0  0  0  0
   -1.5999   -2.7227    1.7810 O   0  0  0  0  0  0  0  0  0  0  0  0
   -2.3659   -0.8447    0.8120 N   0  0  0  0  0  0  0  0  0  0  0  0
   -3.1749   -0.3807    0.4220 H   0  0  0  0  0  0  0  0  0  0  0  0
   -1.0919   -0.1077    0.8170 C   0  0  1  0  0  0  0  0  0  0  0  0
   -1.1773    0.7286    0.1207 H   0  0  0  0  0  0  0  0  0  0  0  0
   -0.8529    0.4473    2.2338 C   0  0  0  0  0  0  0  0  0  0  0  0
   -0.9460   -0.3721    2.9483 H   0  0  0  0  0  0  0  0  0  0  0  0
    0.1635    0.8408    2.2981 H   0  0  0  0  0  0  0  0  0  0  0  0
   -1.8481    1.5488    2.6296 C   0  0  0  0  0  0  0  0  0  0  0  0
   -1.7835    2.3746    1.9200 H   0  0  0  0  0  0  0  0  0  0  0  0
   -2.8609    1.1416    2.6115 H   0  0  0  0  0  0  0  0  0  0  0  0
   -1.5354    2.0703    4.0390 C   0  0  0  0  0  0  0  0  0  0  0  0
   -1.5862    1.2381    4.7451 H   0  0  0  0  0  0  0  0  0  0  0  0
   -0.5253    2.4847    4.0493 H   0  0  0  0  0  0  0  0  0  0  0  0
   -2.5433    3.1527    4.4454 C   0  0  0  0  0  0  0  0  0  0  0  0
   -2.4823    3.9727    3.7225 H   0  0  0  0  0  0  0  0  0  0  0  0
   -3.5505    2.7291    4.3876 H   0  0  0  0  0  0  0  0  0  0  0  0
   -2.2781    3.6586    5.8159 N   0  3  0  0  0  0  0  0  0  0  0  0
   -1.3511    4.0614    5.8730 H   0  0  0  0  0  0  0  0  0  0  0  0
   -2.9514    4.3711    6.0688 H   0  0  0  0  0  0  0  0  0  0  0  0
   -2.3420    2.9048    6.4901 H   0  0  0  0  0  0  0  0  0  0  0  0
    0.0524   -1.0146    0.3585 C   0  0  0  0  0  0  0  0  0  0  0  0
   -0.1785   -1.9405   -0.4101 O   0  0  0  0  0  0  0  0  0  0  0  0
    1.2673   -0.7645    0.8576 N   0  0  0  0  0  0  0  0  0  0  0  0
    1.3733    0.0363    1.4581 H   0  0  0  0  0  0  0  0  0  0  0  0
    2.4665   -1.5336    0.5198 C   0  0  0  0  0  0  0  0  0  0  0  0
    2.6737   -1.4431   -0.5486 H   0  0  0  0  0  0  0  0  0  0  0  0
    3.3262   -1.1645    1.0802 H   0  0  0  0  0  0  0  0  0  0  0  0
    2.3113   -2.5895    0.7520 H   0  0  0  0  0  0  0  0  0  0  0  0
  5  6  2  0  0  0  0
  5  7  1  0  0  0  0
  2  3  1  0  0  0  0
  2  4  1  0  0  0  0
  2  5  1  0  0  0  0
  1  2  1  0  0  0  0
 27 28  2  0  0  0  0
 27 29  1  0  0  0  0
 23 24  1  0  0  0  0
 23 25  1  0  0  0  0
 23 26  1  0  0  0  0
 20 21  1  0  0  0  0
 20 22  1  0  0  0  0
 20 23  1  0  0  0  0
 17 18  1  0  0  0  0
 17 19  1  0  0  0  0
 17 20  1  0  0  0  0
 14 15  1  0  0  0  0
 14 16  1  0  0  0  0
 14 17  1  0  0  0  0
 11 12  1  0  0  0  0
 11 13  1  0  0  0  0
 11 14  1  0  0  0  0
  9 10  1  0  0  0  0
  9 11  1  0  0  0  0
  9 27  1  0  0  0  0
  7  8  1  0  0  0  0
  7  9  1  0  0  0  0
 31 32  1  0  0  0  0
 31 33  1  0  0  0  0
 31 34  1  0  0  0  0
 29 30  1  0  0  0  0
 29 31  1  0  0  0  0
M  CHG  1  23   1
M  END
$$$$
default_name
  -OEChem-01062215323D

 34 33  0     1  0  0  0  0  0999 V2000
   -3.8899   -3.6747    1.6490 H   0  0  0  0  0  0  0  0  0  0  0  0
   -3.9109   -2.6717    1.2250 C   0  0  0  0  0  0  0  0  0  0  0  0
   -4.6009   -2.0517    1.7950 H   0  0  0  0  0  0  0  0  0  0  0  0
   -4.2309   -2.7237    0.1860 H   0  0  0  0  0  0  0  0  0  0  0  0
   -2.5229   -2.0787    1.2980 C   0  0  0  0  0  0  0  0  0  0  0  0
   -1.5999   -2.7227    1.7810 O   0  0  0  0  0  0  0  0  0  0  0  0
   -2.3659   -0.8447    0.8120 N   0  0  0  0  0  0  0  0  0  0  0  0
   -3.1749   -0.3807    0.4220 H   0  0  0  0  0  0  0  0  0  0  0  0
   -1.0919   -0.1077    0.8170 C   0  0  1  0  0  0  0  0  0  0  0  0
   -1.1773    0.7286    0.1207 H   0  0  0  0  0  0  0  0  0  0  0  0
   -0.8529    0.4473    2.2338 C   0  0  0  0  0  0  0  0  0  0  0  0
   -0.9460   -0.3721    2.9483 H   0  0  0  0  0  0  0  0  0  0  0  0
    0.1635    0.8408    2.2981 H   0  0  0  0  0  0  0  0  0  0  0  0
   -1.8481    1.5488    2.6296 C   0  0  0  0  0  0  0  0  0  0  0  0
   -1.7835    2.3746    1.9200 H   0  0  0  0  0  0  0  0  0  0  0  0
   -2.8609    1.1416    2.6115 H   0  0  0  0  0  0  0  0  0  0  0  0
   -1.5354    2.0703    4.0390 C   0  0  0  0  0  0  0  0  0  0  0  0
   -1.5862    1.2381    4.7451 H   0  0  0  0  0  0  0  0  0  0  0  0
   -0.5253    2.4847    4.0493 H   0  0  0  0  0  0  0  0  0  0  0  0
   -2.5433    3.1527    4.4454 C   0  0  0  0  0  0  0  0  0  0  0  0
   -2.4823    3.9727    3.7225 H   0  0  0  0  0  0  0  0  0  0  0  0
   -3.5505    2.7291    4.3876 H   0  0  0  0  0  0  0  0  0  0  0  0
   -2.2781    3.6586    5.8159 N   0  3  0  0  0  0  0  0  0  0  0  0
   -1.3511    4.0614    5.8730 H   0  0  0  0  0  0  0  0  0  0  0  0
   -2.9514    4.3711    6.0688 H   0  0  0  0  0  0  0  0  0  0  0  0
   -2.3420    2.9048    6.4901 H   0  0  0  0  0  0  0  0  0  0  0  0
    0.0524   -1.0146    0.3585 C   0  0  0  0  0  0  0  0  0  0  0  0
   -0.1091   -1.7546   -0.6047 O   0  0  0  0  0  0  0  0  0  0  0  0
    1.1844   -0.9761    1.0691 N   0  0  0  0  0  0  0  0  0  0  0  0
    1.2420   -0.3154    1.8262 H   0  0  0  0  0  0  0  0  0  0  0  0
    2.3718   -1.7760    0.7631 C   0  0  0  0  0  0  0  0  0  0  0  0
    2.7536   -1.5064   -0.2240 H   0  0  0  0  0  0  0  0  0  0  0  0
    3.1515   -1.5997    1.5050 H   0  0  0  0  0  0  0  0  0  0  0  0
    2.1157   -2.8377    0.7546 H   0  0  0  0  0  0  0  0  0  0  0  0
  5  6  2  0  0  0  0
  5  7  1  0  0  0  0
  2  3  1  0  0  0  0
  2  4  1  0  0  0  0
  2  5  1  0  0  0  0
  1  2  1  0  0  0  0
 27 28  2  0  0  0  0
 27 29  1  0  0  0  0
 23 24  1  0  0  0  0
 23 25  1  0  0  0  0
 23 26  1  0  0  0  0
 20 21  1  0  0  0  0
 20 22  1  0  0  0  0
 20 23  1  0  0  0  0
 17 18  1  0  0  0  0
 17 19  1  0  0  0  0
 17 20  1  0  0  0  0
 14 15  1  0  0  0  0
 14 16  1  0  0  0  0
 14 17  1  0  0  0  0
 11 12  1  0  0  0  0
 11 13  1  0  0  0  0
 11 14  1  0  0  0  0
  9 10  1  0  0  0  0
  9 11  1  0  0  0  0
  9 27  1  0  0  0  0
  7  8  1  0  0  0  0
  7  9  1  0  0  0  0
 31 32  1  0  0  0  0
 31 33  1  0  0  0  0
 31 34  1  0  0  0  0
 29 30  1  0  0  0  0
 29 31  1  0  0  0  0
M  CHG  1  23   1
M  END
$$$$
default_name
  -OEChem-01062215323D

 34 33  0     1  0  0  0  0  0999 V2000
   -3.8899   -3.6747    1.6490 H   0  0  0  0  0  0  0  0  0  0  0  0
   -3.9109   -2.6717    1.2250 C   0  0  0  0  0  0  0  0  0  0  0  0
   -4.6009   -2.0517    1.7950 H   0  0  0  0  0  0  0  0  0  0  0  0
   -4.2309   -2.7237    0.1860 H   0  0  0  0  0  0  0  0  0  0  0  0
   -2.5229   -2.0787    1.2980 C   0  0  0  0  0  0  0  0  0  0  0  0
   -1.5999   -2.7227    1.7810 O   0  0  0  0  0  0  0  0  0  0  0  0
   -2.3659   -0.8447    0.8120 N   0  0  0  0  0  0  0  0  0  0  0  0
   -3.1749   -0.3807    0.4220 H   0  0  0  0  0  0  0  0  0  0  0  0
   -1.0919   -0.1077    0.8170 C   0  0  1  0  0  0  0  0  0  0  0  0
   -1.1773    0.7286    0.1207 H   0  0  0  0  0  0  0  0  0  0  0  0
   -0.8529    0.4473    2.2338 C   0  0  0  0  0  0  0  0  0  0  0  0
   -0.9460   -0.3721    2.9483 H   0  0  0  0  0  0  0  0  0  0  0  0
    0.1635    0.8408    2.2981 H   0  0  0  0  0  0  0  0  0  0  0  0
   -1.8481    1.5488    2.6296 C   0  0  0  0  0  0  0  0  0  0  0  0
   -1.7835    2.3746    1.9200 H   0  0  0  0  0  0  0  0  0  0  0  0
   -2.8609    1.1416    2.6115 H   0  0  0  0  0  0  0  0  0  0  0  0
   -1.5354    2.0703    4.0390 C   0  0  0  0  0  0  0  0  0  0  0  0
   -1.5862    1.2381    4.7451 H   0  0  0  0  0  0  0  0  0  0  0  0
   -0.5253    2.4847    4.0493 H   0  0  0  0  0  0  0  0  0  0  0  0
   -2.5433    3.1527    4.4454 C   0  0  0  0  0  0  0  0  0  0  0  0
   -2.4823    3.9727    3.7225 H   0  0  0  0  0  0  0  0  0  0  0  0
   -3.5505    2.7291    4.3876 H   0  0  0  0  0  0  0  0  0  0  0  0
   -2.2781    3.6586    5.8159 N   0  3  0  0  0  0  0  0  0  0  0  0
   -1.3511    4.0614    5.8730 H   0  0  0  0  0  0  0  0  0  0  0  0
   -2.9514    4.3711    6.0688 H   0  0  0  0  0  0  0  0  0  0  0  0
   -2.3420    2.9048    6.4901 H   0  0  0  0  0  0  0  0  0  0  0  0
    0.0524   -1.0146    0.3585 C   0  0  0  0  0  0  0  0  0  0  0  0
    0.0022   -1.5426   -0.7461 O   0  0  0  0  0  0  0  0  0  0  0  0
    1.0554   -1.2150    1.2197 N   0  0  0  0  0  0  0  0  0  0  0  0
    1.0315   -0.7162    2.0936 H   0  0  0  0  0  0  0  0  0  0  0  0
    2.2243   -2.0498    0.9366 C   0  0  0  0  0  0  0  0  0  0  0  0
    2.7761   -1.6365    0.0896 H   0  0  0  0  0  0  0  0  0  0  0  0
    2.8838   -2.0888    1.8043 H   0  0  0  0  0  0  0  0  0  0  0  0
    1.9071   -3.0628    0.6792 H   0  0  0  0  0  0  0  0  0  0  0  0
  5  6  2  0  0  0  0
  5  7  1  0  0  0  0
  2  3  1  0  0  0  0
  2  4  1  0  0  0  0
  2  5  1  0  0  0  0
  1  2  1  0  0  0  0
 27 28  2  0  0  0  0
 27 29  1  0  0  0  0
 23 24  1  0  0  0  0
 23 25  1  0  0  0  0
 23 26  1  0  0  0  0
 20 21  1  0  0  0  0
 20 22  1  0  0  0  0
 20 23  1  0  0  0  0
 17 18  1  0  0  0  0
 17 19  1  0  0  0  0
 17 20  1  0  0  0  0
 14 15  1  0  0  0  0
 14 16  1  0  0  0  0
 14 17  1  0  0  0  0
 11 12  1  0  0  0  0
 11 13  1  0  0  0  0
 11 14  1  0  0  0  0
  9 10  1  0  0  0  0
  9 11  1  0  0  0  0
  9 27  1  0  0  0  0
  7  8  1  0  0  0  0
  7  9  1  0  0  0  0
 31 32  1  0  0  0  0
 31 33  1  0  0  0  0
 31 34  1  0  0  0  0
 29 30  1  0  0  0  0
 29 31  1  0  0  0  0
M  CHG  1  23   1
M  END
$$$$
default_name
  -OEChem-01062215323D

 34 33  0     1  0  0  0  0  0999 V2000
   -3.8899   -3.6747    1.6490 H   0  0  0  0  0  0  0  0  0  0  0  0
   -3.9109   -2.6717    1.2250 C   0  0  0  0  0  0  0  0  0  0  0  0
   -4.6009   -2.0517    1.7950 H   0  0  0  0  0  0  0  0  0  0  0  0
   -4.2309   -2.7237    0.1860 H   0  0  0  0  0  0  0  0  0  0  0  0
   -2.5229   -2.0787    1.2980 C   0  0  0  0  0  0  0  0  0  0  0  0
   -1.5999   -2.7227    1.7810 O   0  0  0  0  0  0  0  0  0  0  0  0
   -2.3659   -0.8447    0.8120 N   0  0  0  0  0  0  0  0  0  0  0  0
   -3.1749   -0.3807    0.4220 H   0  0  0  0  0  0  0  0  0  0  0  0
   -1.0919   -0.1077    0.8170 C   0  0  1  0  0  0  0  0  0  0  0  0
   -1.1773    0.7286    0.1207 H   0  0  0  0  0  0  0  0  0  0  0  0
   -0.8529    0.4473    2.2338 C   0  0  0  0  0  0  0  0  0  0  0  0
   -0.9460   -0.3721    2.9483 H   0  0  0  0  0  0  0  0  0  0  0  0
    0.1635    0.8408    2.2981 H   0  0  0  0  0  0  0  0  0  0  0  0
   -1.8481    1.5488    2.6296 C   0  0  0  0  0  0  0  0  0  0  0  0
   -1.7835    2.3746    1.9200 H   0  0  0  0  0  0  0  0  0  0  0  0
   -2.8609    1.1416    2.6115 H   0  0  0  0  0  0  0  0  0  0  0  0
   -1.5354    2.0703    4.0390 C   0  0  0  0  0  0  0  0  0  0  0  0
   -1.5862    1.2381    4.7451 H   0  0  0  0  0  0  0  0  0  0  0  0
   -0.5253    2.4847    4.0493 H   0  0  0  0  0  0  0  0  0  0  0  0
   -2.5433    3.1527    4.4454 C   0  0  0  0  0  0  0  0  0  0  0  0
   -2.4823    3.9727    3.7225 H   0  0  0  0  0  0  0  0  0  0  0  0
   -3.5505    2.7291    4.3876 H   0  0  0  0  0  0  0  0  0  0  0  0
   -2.2781    3.6586    5.8159 N   0  3  0  0  0  0  0  0  0  0  0  0
   -1.3511    4.0614    5.8730 H   0  0  0  0  0  0  0  0  0  0  0  0
   -2.9514    4.3711    6.0688 H   0  0  0  0  0  0  0  0  0  0  0  0
   -2.3420    2.9048    6.4901 H   0  0  0  0  0  0  0  0  0  0  0  0
    0.0524   -1.0146    0.3585 C   0  0  0  0  0  0  0  0  0  0  0  0
    0.1478   -1.3192   -0.8245 O   0  0  0  0  0  0  0  0  0  0  0  0
    0.8891   -1.4650    1.2991 N   0  0  0  0  0  0  0  0  0  0  0  0
    0.7561   -1.1388    2.2420 H   0  0  0  0  0  0  0  0  0  0  0  0
    2.0340   -2.3365    1.0285 C   0  0  0  0  0  0  0  0  0  0  0  0
    2.7397   -1.8246    0.3707 H   0  0  0  0  0  0  0  0  0  0  0  0
    2.5414   -2.5984    1.9577 H   0  0  0  0  0  0  0  0  0  0  0  0
    1.6998   -3.2494    0.5307 H   0  0  0  0  0  0  0  0  0  0  0  0
  5  6  2  0  0  0  0
  5  7  1  0  0  0  0
  2  3  1  0  0  0  0
  2  4  1  0  0  0  0
  2  5  1  0  0  0  0
  1  2  1  0  0  0  0
 27 28  2  0  0  0  0
 27 29  1  0  0  0  0
 23 24  1  0  0  0  0
 23 25  1  0  0  0  0
 23 26  1  0  0  0  0
 20 21  1  0  0  0  0
 20 22  1  0  0  0  0
 20 23  1  0  0  0  0
 17 18  1  0  0  0  0
 17 19  1  0  0  0  0
 17 20  1  0  0  0  0
 14 15  1  0  0  0  0
 14 16  1  0  0  0  0
 14 17  1  0  0  0  0
 11 12  1  0  0  0  0
 11 13  1  0  0  0  0
 11 14  1  0  0  0  0
  9 10  1  0  0  0  0
  9 11  1  0  0  0  0
  9 27  1  0  0  0  0
  7  8  1  0  0  0  0
  7  9  1  0  0  0  0
 31 32  1  0  0  0  0
 31 33  1  0  0  0  0
 31 34  1  0  0  0  0
 29 30  1  0  0  0  0
 29 31  1  0  0  0  0
M  CHG  1  23   1
M  END
$$$$
default_name
  -OEChem-01062215323D

 34 33  0     1  0  0  0  0  0999 V2000
   -3.8899   -3.6747    1.6490 H   0  0  0  0  0  0  0  0  0  0  0  0
   -3.9109   -2.6717    1.2250 C   0  0  0  0  0  0  0  0  0  0  0  0
   -4.6009   -2.0517    1.7950 H   0  0  0  0  0  0  0  0  0  0  0  0
   -4.2309   -2.7237    0.1860 H   0  0  0  0  0  0  0  0  0  0  0  0
   -2.5229   -2.0787    1.2980 C   0  0  0  0  0  0  0  0  0  0  0  0
   -1.5999   -2.7227    1.7810 O   0  0  0  0  0  0  0  0  0  0  0  0
   -2.3659   -0.8447    0.8120 N   0  0  0  0  0  0  0  0  0  0  0  0
   -3.1749   -0.3807    0.4220 H   0  0  0  0  0  0  0  0  0  0  0  0
   -1.0919   -0.1077    0.8170 C   0  0  1  0  0  0  0  0  0  0  0  0
   -1.1773    0.7286    0.1207 H   0  0  0  0  0  0  0  0  0  0  0  0
   -0.8529    0.4473    2.2338 C   0  0  0  0  0  0  0  0  0  0  0  0
   -0.9460   -0.3721    2.9483 H   0  0  0  0  0  0  0  0  0  0  0  0
    0.1635    0.8408    2.2981 H   0  0  0  0  0  0  0  0  0  0  0  0
   -1.8481    1.5488    2.6296 C   0  0  0  0  0  0  0  0  0  0  0  0
   -1.7835    2.3746    1.9200 H   0  0  0  0  0  0  0  0  0  0  0  0
   -2.8609    1.1416    2.6115 H   0  0  0  0  0  0  0  0  0  0  0  0
   -1.5354    2.0703    4.0390 C   0  0  0  0  0  0  0  0  0  0  0  0
   -1.5862    1.2381    4.7451 H   0  0  0  0  0  0  0  0  0  0  0  0
   -0.5253    2.4847    4.0493 H   0  0  0  0  0  0  0  0  0  0  0  0
   -2.5433    3.1527    4.4454 C   0  0  0  0  0  0  0  0  0  0  0  0
   -2.4823    3.9727    3.7225 H   0  0  0  0  0  0  0  0  0  0  0  0
   -3.5505    2.7291    4.3876 H   0  0  0  0  0  0  0  0  0  0  0  0
   -2.2781    3.6586    5.8159 N   0  3  0  0  0  0  0  0  0  0  0  0
   -1.3511    4.0614    5.8730 H   0  0  0  0  0  0  0  0  0  0  0  0
   -2.9514    4.3711    6.0688 H   0  0  0  0  0  0  0  0  0  0  0  0
   -2.3420    2.9048    6.4901 H   0  0  0  0  0  0  0  0  0  0  0  0
    0.0524   -1.0146    0.3585 C   0  0  0  0  0  0  0  0  0  0  0  0
    0.3178   -1.0995   -0.8347 O   0  0  0  0  0  0  0  0  0  0  0  0
    0.6970   -1.7089    1.3020 N   0  0  0  0  0  0  0  0  0  0  0  0
    0.4345   -1.5544    2.2613 H   0  0  0  0  0  0  0  0  0  0  0  0
    1.8138   -2.6164    1.0327 C   0  0  0  0  0  0  0  0  0  0  0  0
    2.6468   -2.0579    0.6003 H   0  0  0  0  0  0  0  0  0  0  0  0
    2.1477   -3.0937    1.9547 H   0  0  0  0  0  0  0  0  0  0  0  0
    1.5078   -3.3849    0.3194 H   0  0  0  0  0  0  0  0  0  0  0  0
  5  6  2  0  0  0  0
  5  7  1  0  0  0  0
  2  3  1  0  0  0  0
  2  4  1  0  0  0  0
  2  5  1  0  0  0  0
  1  2  1  0  0  0  0
 27 28  2  0  0  0  0
 27 29  1  0  0  0  0
 23 24  1  0  0  0  0
 23 25  1  0  0  0  0
 23 26  1  0  0  0  0
 20 21  1  0  0  0  0
 20 22  1  0  0  0  0
 20 23  1  0  0  0  0
 17 18  1  0  0  0  0
 17 19  1  0  0  0  0
 17 20  1  0  0  0  0
 14 15  1  0  0  0  0
 14 16  1  0  0  0  0
 14 17  1  0  0  0  0
 11 12  1  0  0  0  0
 11 13  1  0  0  0  0
 11 14  1  0  0  0  0
  9 10  1  0  0  0  0
  9 11  1  0  0  0  0
  9 27  1  0  0  0  0
  7  8  1  0  0  0  0
  7  9  1  0  0  0  0
 31 32  1  0  0  0  0
 31 33  1  0  0  0  0
 31 34  1  0  0  0  0
 29 30  1  0  0  0  0
 29 31  1  0  0  0  0
M  CHG  1  23   1
M  END
$$$$
default_name
  -OEChem-01062215323D

 34 33  0     1  0  0  0  0  0999 V2000
   -3.8899   -3.6747    1.6490 H   0  0  0  0  0  0  0  0  0  0  0  0
   -3.9109   -2.6717    1.2250 C   0  0  0  0  0  0  0  0  0  0  0  0
   -4.6009   -2.0517    1.7950 H   0  0  0  0  0  0  0  0  0  0  0  0
   -4.2309   -2.7237    0.1860 H   0  0  0  0  0  0  0  0  0  0  0  0
   -2.5229   -2.0787    1.2980 C   0  0  0  0  0  0  0  0  0  0  0  0
   -1.5999   -2.7227    1.7810 O   0  0  0  0  0  0  0  0  0  0  0  0
   -2.3659   -0.8447    0.8120 N   0  0  0  0  0  0  0  0  0  0  0  0
   -3.1749   -0.3807    0.4220 H   0  0  0  0  0  0  0  0  0  0  0  0
   -1.0919   -0.1077    0.8170 C   0  0  1  0  0  0  0  0  0  0  0  0
   -1.1773    0.7286    0.1207 H   0  0  0  0  0  0  0  0  0  0  0  0
   -0.8529    0.4473    2.2338 C   0  0  0  0  0  0  0  0  0  0  0  0
   -0.9460   -0.3721    2.9483 H   0  0  0  0  0  0  0  0  0  0  0  0
    0.1635    0.8408    2.2981 H   0  0  0  0  0  0  0  0  0  0  0  0
   -1.8481    1.5488    2.6296 C   0  0  0  0  0  0  0  0  0  0  0  0
   -1.7835    2.3746    1.9200 H   0  0  0  0  0  0  0  0  0  0  0  0
   -2.8609    1.1416    2.6115 H   0  0  0  0  0  0  0  0  0  0  0  0
   -1.5354    2.0703    4.0390 C   0  0  0  0  0  0  0  0  0  0  0  0
   -1.5862    1.2381    4.7451 H   0  0  0  0  0  0  0  0  0  0  0  0
   -0.5253    2.4847    4.0493 H   0  0  0  0  0  0  0  0  0  0  0  0
   -2.5433    3.1527    4.4454 C   0  0  0  0  0  0  0  0  0  0  0  0
   -2.4823    3.9727    3.7225 H   0  0  0  0  0  0  0  0  0  0  0  0
   -3.5505    2.7291    4.3876 H   0  0  0  0  0  0  0  0  0  0  0  0
   -2.2781    3.6586    5.8159 N   0  3  0  0  0  0  0  0  0  0  0  0
   -1.3511    4.0614    5.8730 H   0  0  0  0  0  0  0  0  0  0  0  0
   -2.9514    4.3711    6.0688 H   0  0  0  0  0  0  0  0  0  0  0  0
   -2.3420    2.9048    6.4901 H   0  0  0  0  0  0  0  0  0  0  0  0
    0.0524   -1.0146    0.3585 C   0  0  0  0  0  0  0  0  0  0  0  0
    0.5006   -0.8985   -0.7760 O   0  0  0  0  0  0  0  0  0  0  0  0
    0.4921   -1.9301    1.2281 N   0  0  0  0  0  0  0  0  0  0  0  0
    0.0887   -1.9346    2.1503 H   0  0  0  0  0  0  0  0  0  0  0  0
    1.5788   -2.8706    0.9488 C   0  0  0  0  0  0  0  0  0  0  0  0
    2.5037   -2.3205    0.7626 H   0  0  0  0  0  0  0  0  0  0  0  0
    1.7294   -3.5411    1.7955 H   0  0  0  0  0  0  0  0  0  0  0  0
    1.3442   -3.4599    0.0596 H   0  0  0  0  0  0  0  0  0  0  0  0
  5  6  2  0  0  0  0
  5  7  1  0  0  0  0
  2  3  1  0  0  0  0
  2  4  1  0  0  0  0
  2  5  1  0  0  0  0
  1  2  1  0  0  0  0
 27 28  2  0  0  0  0
 27 29  1  0  0  0  0
 23 24  1  0  0  0  0
 23 25  1  0  0  0  0
 23 26  1  0  0  0  0
 20 21  1  0  0  0  0
 20 22  1  0  0  0  0
 20 23  1  0  0  0  0
 17 18  1  0  0  0  0
 17 19  1  0  0  0  0
 17 20  1  0  0  0  0
 14 15  1  0  0  0  0
 14 16  1  0  0  0  0
 14 17  1  0  0  0  0
 11 12  1  0  0  0  0
 11 13  1  0  0  0  0
 11 14  1  0  0  0  0
  9 10  1  0  0  0  0
  9 11  1  0  0  0  0
  9 27  1  0  0  0  0
  7  8  1  0  0  0  0
  7  9  1  0  0  0  0
 31 32  1  0  0  0  0
 31 33  1  0  0  0  0
 31 34  1  0  0  0  0
 29 30  1  0  0  0  0
 29 31  1  0  0  0  0
M  CHG  1  23   1
M  END
$$$$
default_name
  -OEChem-01062215323D

 34 33  0     1  0  0  0  0  0999 V2000
   -3.8899   -3.6747    1.6490 H   0  0  0  0  0  0  0  0  0  0  0  0
   -3.9109   -2.6717    1.2250 C   0  0  0  0  0  0  0  0  0  0  0  0
   -4.6009   -2.0517    1.7950 H   0  0  0  0  0  0  0  0  0  0  0  0
   -4.2309   -2.7237    0.1860 H   0  0  0  0  0  0  0  0  0  0  0  0
   -2.5229   -2.0787    1.2980 C   0  0  0  0  0  0  0  0  0  0  0  0
   -1.5999   -2.7227    1.7810 O   0  0  0  0  0  0  0  0  0  0  0  0
   -2.3659   -0.8447    0.8120 N   0  0  0  0  0  0  0  0  0  0  0  0
   -3.1749   -0.3807    0.4220 H   0  0  0  0  0  0  0  0  0  0  0  0
   -1.0919   -0.1077    0.8170 C   0  0  1  0  0  0  0  0  0  0  0  0
   -1.1773    0.7286    0.1207 H   0  0  0  0  0  0  0  0  0  0  0  0
   -0.8529    0.4473    2.2338 C   0  0  0  0  0  0  0  0  0  0  0  0
   -0.9460   -0.3721    2.9483 H   0  0  0  0  0  0  0  0  0  0  0  0
    0.1635    0.8408    2.2981 H   0  0  0  0  0  0  0  0  0  0  0  0
   -1.8481    1.5488    2.6296 C   0  0  0  0  0  0  0  0  0  0  0  0
   -1.7835    2.3746    1.9200 H   0  0  0  0  0  0  0  0  0  0  0  0
   -2.8609    1.1416    2.6115 H   0  0  0  0  0  0  0  0  0  0  0  0
   -1.5354    2.0703    4.0390 C   0  0  0  0  0  0  0  0  0  0  0  0
   -1.5862    1.2381    4.7451 H   0  0  0  0  0  0  0  0  0  0  0  0
   -0.5253    2.4847    4.0493 H   0  0  0  0  0  0  0  0  0  0  0  0
   -2.5433    3.1527    4.4454 C   0  0  0  0  0  0  0  0  0  0  0  0
   -2.4823    3.9727    3.7225 H   0  0  0  0  0  0  0  0  0  0  0  0
   -3.5505    2.7291    4.3876 H   0  0  0  0  0  0  0  0  0  0  0  0
   -2.2781    3.6586    5.8159 N   0  3  0  0  0  0  0  0  0  0  0  0
   -1.3511    4.0614    5.8730 H   0  0  0  0  0  0  0  0  0  0  0  0
   -2.9514    4.3711    6.0688 H   0  0  0  0  0  0  0  0  0  0  0  0
   -2.3420    2.9048    6.4901 H   0  0  0  0  0  0  0  0  0  0  0  0
    0.0524   -1.0146    0.3585 C   0  0  0  0  0  0  0  0  0  0  0  0
    0.6838   -0.7299   -0.6523 O   0  0  0  0  0  0  0  0  0  0  0  0
    0.2883   -2.1136    1.0825 N   0  0  0  0  0  0  0  0  0  0  0  0
   -0.2578   -2.2535    1.9163 H   0  0  0  0  0  0  0  0  0  0  0  0
    1.3450   -3.0816    0.7825 C   0  0  0  0  0  0  0  0  0  0  0  0
    2.3203   -2.5944    0.8467 H   0  0  0  0  0  0  0  0  0  0  0  0
    1.3151   -3.9100    1.4911 H   0  0  0  0  0  0  0  0  0  0  0  0
    1.2203   -3.4695   -0.2309 H   0  0  0  0  0  0  0  0  0  0  0  0
  5  6  2  0  0  0  0
  5  7  1  0  0  0  0
  2  3  1  0  0  0  0
  2  4  1  0  0  0  0
  2  5  1  0  0  0  0
  1  2  1  0  0  0  0
 27 28  2  0  0  0  0
 27 29  1  0  0  0  0
 23 24  1  0  0  0  0
 23 25  1  0  0  0  0
 23 26  1  0  0  0  0
 20 21  1  0  0  0  0
 20 22  1  0  0  0  0
 20 23  1  0  0  0  0
 17 18  1  0  0  0  0
 17 19  1  0  0  0  0
 17 20  1  0  0  0  0
 14 15  1  0  0  0  0
 14 16  1  0  0  0  0
 14 17  1  0  0  0  0
 11 12  1  0  0  0  0
 11 13  1  0  0  0  0
 11 14  1  0  0  0  0
  9 10  1  0  0  0  0
  9 11  1  0  0  0  0
  9 27  1  0  0  0  0
  7  8  1  0  0  0  0
  7  9  1  0  0  0  0
 31 32  1  0  0  0  0
 31 33  1  0  0  0  0
 31 34  1  0  0  0  0
 29 30  1  0  0  0  0
 29 31  1  0  0  0  0
M  CHG  1  23   1
M  END
$$$$
default_name
  -OEChem-01062215323D

 34 33  0     1  0  0  0  0  0999 V2000
   -3.8899   -3.6747    1.6490 H   0  0  0  0  0  0  0  0  0  0  0  0
   -3.9109   -2.6717    1.2250 C   0  0  0  0  0  0  0  0  0  0  0  0
   -4.6009   -2.0517    1.7950 H   0  0  0  0  0  0  0  0  0  0  0  0
   -4.2309   -2.7237    0.1860 H   0  0  0  0  0  0  0  0  0  0  0  0
   -2.5229   -2.0787    1.2980 C   0  0  0  0  0  0  0  0  0  0  0  0
   -1.5999   -2.7227    1.7810 O   0  0  0  0  0  0  0  0  0  0  0  0
   -2.3659   -0.8447    0.8120 N   0  0  0  0  0  0  0  0  0  0  0  0
   -3.1749   -0.3807    0.4220 H   0  0  0  0  0  0  0  0  0  0  0  0
   -1.0919   -0.1077    0.8170 C   0  0  1  0  0  0  0  0  0  0  0  0
   -1.1773    0.7286    0.1207 H   0  0  0  0  0  0  0  0  0  0  0  0
   -0.8529    0.4473    2.2338 C   0  0  0  0  0  0  0  0  0  0  0  0
   -0.9460   -0.3721    2.9483 H   0  0  0  0  0  0  0  0  0  0  0  0
    0.1635    0.8408    2.2981 H   0  0  0  0  0  0  0  0  0  0  0  0
   -1.8481    1.5488    2.6296 C   0  0  0  0  0  0  0  0  0  0  0  0
   -1.7835    2.3746    1.9200 H   0  0  0  0  0  0  0  0  0  0  0  0
   -2.8609    1.1416    2.6115 H   0  0  0  0  0  0  0  0  0  0  0  0
   -1.5354    2.0703    4.0390 C   0  0  0  0  0  0  0  0  0  0  0  0
   -1.5862    1.2381    4.7451 H   0  0  0  0  0  0  0  0  0  0  0  0
   -0.5253    2.4847    4.0493 H   0  0  0  0  0  0  0  0  0  0  0  0
   -2.5433    3.1527    4.4454 C   0  0  0  0  0  0  0  0  0  0  0  0
   -2.4823    3.9727    3.7225 H   0  0  0  0  0  0  0  0  0  0  0  0
   -3.5505    2.7291    4.3876 H   0  0  0  0  0  0  0  0  0  0  0  0
   -2.2781    3.6586    5.8159 N   0  3  0  0  0  0  0  0  0  0  0  0
   -1.3511    4.0614    5.8730 H   0  0  0  0  0  0  0  0  0  0  0  0
   -2.9514    4.3711    6.0688 H   0  0  0  0  0  0  0  0  0  0  0  0
   -2.3420    2.9048    6.4901 H   0  0  0  0  0  0  0  0  0  0  0  0
    0.0524   -1.0146    0.3585 C   0  0  0  0  0  0  0  0  0  0  0  0
    0.8548   -0.6051   -0.4722 O   0  0  0  0  0  0  0  0  0  0  0  0
    0.0996   -2.2469    0.8750 N   0  0  0  0  0  0  0  0  0  0  0  0
   -0.5813   -2.4895    1.5755 H   0  0  0  0  0  0  0  0  0  0  0  0
    1.1283   -3.2351    0.5451 C   0  0  0  0  0  0  0  0  0  0  0  0
    2.1090   -2.8611    0.8467 H   0  0  0  0  0  0  0  0  0  0  0  0
    0.9330   -4.1753    1.0621 H   0  0  0  0  0  0  0  0  0  0  0  0
    1.1444   -3.4129   -0.5324 H   0  0  0  0  0  0  0  0  0  0  0  0
  5  6  2  0  0  0  0
  5  7  1  0  0  0  0
  2  3  1  0  0  0  0
  2  4  1  0  0  0  0
  2  5  1  0  0  0  0
  1  2  1  0  0  0  0
 27 28  2  0  0  0  0
 27 29  1  0  0  0  0
 23 24  1  0  0  0  0
 23 25  1  0  0  0  0
 23 26  1  0  0  0  0
 20 21  1  0  0  0  0
 20 22  1  0  0  0  0
 20 23  1  0  0  0  0
 17 18  1  0  0  0  0
 17 19  1  0  0  0  0
 17 20  1  0  0  0  0
 14 15  1  0  0  0  0
 14 16  1  0  0  0  0
 14 17  1  0  0  0  0
 11 12  1  0  0  0  0
 11 13  1  0  0  0  0
 11 14  1  0  0  0  0
  9 10  1  0  0  0  0
  9 11  1  0  0  0  0
  9 27  1  0  0  0  0
  7  8  1  0  0  0  0
  7  9  1  0  0  0  0
 31 32  1  0  0  0  0
 31 33  1  0  0  0  0
 31 34  1  0  0  0  0
 29 30  1  0  0  0  0
 29 31  1  0  0  0  0
M  CHG  1  23   1
M  END
$$$$
default_name
  -OEChem-01062215323D

 34 33  0     1  0  0  0  0  0999 V2000
   -3.8899   -3.6747    1.6490 H   0  0  0  0  0  0  0  0  0  0  0  0
   -3.9109   -2.6717    1.2250 C   0  0  0  0  0  0  0  0  0  0  0  0
   -4.6009   -2.0517    1.7950 H   0  0  0  0  0  0  0  0  0  0  0  0
   -4.2309   -2.7237    0.1860 H   0  0  0  0  0  0  0  0  0  0  0  0
   -2.5229   -2.0787    1.2980 C   0  0  0  0  0  0  0  0  0  0  0  0
   -1.5999   -2.7227    1.7810 O   0  0  0  0  0  0  0  0  0  0  0  0
   -2.3659   -0.8447    0.8120 N   0  0  0  0  0  0  0  0  0  0  0  0
   -3.1749   -0.3807    0.4220 H   0  0  0  0  0  0  0  0  0  0  0  0
   -1.0919   -0.1077    0.8170 C   0  0  1  0  0  0  0  0  0  0  0  0
   -1.1773    0.7286    0.1207 H   0  0  0  0  0  0  0  0  0  0  0  0
   -0.8529    0.4473    2.2338 C   0  0  0  0  0  0  0  0  0  0  0  0
   -0.9460   -0.3721    2.9483 H   0  0  0  0  0  0  0  0  0  0  0  0
    0.1635    0.8408    2.2981 H   0  0  0  0  0  0  0  0  0  0  0  0
   -1.8481    1.5488    2.6296 C   0  0  0  0  0  0  0  0  0  0  0  0
   -1.7835    2.3746    1.9200 H   0  0  0  0  0  0  0  0  0  0  0  0
   -2.8609    1.1416    2.6115 H   0  0  0  0  0  0  0  0  0  0  0  0
   -1.5354    2.0703    4.0390 C   0  0  0  0  0  0  0  0  0  0  0  0
   -1.5862    1.2381    4.7451 H   0  0  0  0  0  0  0  0  0  0  0  0
   -0.5253    2.4847    4.0493 H   0  0  0  0  0  0  0  0  0  0  0  0
   -2.5433    3.1527    4.4454 C   0  0  0  0  0  0  0  0  0  0  0  0
   -2.4823    3.9727    3.7225 H   0  0  0  0  0  0  0  0  0  0  0  0
   -3.5505    2.7291    4.3876 H   0  0  0  0  0  0  0  0  0  0  0  0
   -2.2781    3.6586    5.8159 N   0  3  0  0  0  0  0  0  0  0  0  0
   -1.3511    4.0614    5.8730 H   0  0  0  0  0  0  0  0  0  0  0  0
   -2.9514    4.3711    6.0688 H   0  0  0  0  0  0  0  0  0  0  0  0
   -2.3420    2.9048    6.4901 H   0  0  0  0  0  0  0  0  0  0  0  0
    0.0524   -1.0146    0.3585 C   0  0  0  0  0  0  0  0  0  0  0  0
    1.0021   -0.5328   -0.2477 O   0  0  0  0  0  0  0  0  0  0  0  0
   -0.0612   -2.3209    0.6199 N   0  0  0  0  0  0  0  0  0  0  0  0
   -0.8598   -2.6263    1.1511 H   0  0  0  0  0  0  0  0  0  0  0  0
    0.9434   -3.3206    0.2530 C   0  0  0  0  0  0  0  0  0  0  0  0
    1.8842   -3.1023    0.7628 H   0  0  0  0  0  0  0  0  0  0  0  0
    0.6092   -4.3189    0.5378 H   0  0  0  0  0  0  0  0  0  0  0  0
    1.1216   -3.2940   -0.8243 H   0  0  0  0  0  0  0  0  0  0  0  0
  5  6  2  0  0  0  0
  5  7  1  0  0  0  0
  2  3  1  0  0  0  0
  2  4  1  0  0  0  0
  2  5  1  0  0  0  0
  1  2  1  0  0  0  0
 27 28  2  0  0  0  0
 27 29  1  0  0  0  0
 23 24  1  0  0  0  0
 23 25  1  0  0  0  0
 23 26  1  0  0  0  0
 20 21  1  0  0  0  0
 20 22  1  0  0  0  0
 20 23  1  0  0  0  0
 17 18  1  0  0  0  0
 17 19  1  0  0  0  0
 17 20  1  0  0  0  0
 14 15  1  0  0  0  0
 14 16  1  0  0  0  0
 14 17  1  0  0  0  0
 11 12  1  0  0  0  0
 11 13  1  0  0  0  0
 11 14  1  0  0  0  0
  9 10  1  0  0  0  0
  9 11  1  0  0  0  0
  9 27  1  0  0  0  0
  7  8  1  0  0  0  0
  7  9  1  0  0  0  0
 31 32  1  0  0  0  0
 31 33  1  0  0  0  0
 31 34  1  0  0  0  0
 29 30  1  0  0  0  0
 29 31  1  0  0  0  0
M  CHG  1  23   1
M  END
$$$$
default_name
  -OEChem-01062215323D

 34 33  0     1  0  0  0  0  0999 V2000
   -3.8899   -3.6747    1.6490 H   0  0  0  0  0  0  0  0  0  0  0  0
   -3.9109   -2.6717    1.2250 C   0  0  0  0  0  0  0  0  0  0  0  0
   -4.6009   -2.0517    1.7950 H   0  0  0  0  0  0  0  0  0  0  0  0
   -4.2309   -2.7237    0.1860 H   0  0  0  0  0  0  0  0  0  0  0  0
   -2.5229   -2.0787    1.2980 C   0  0  0  0  0  0  0  0  0  0  0  0
   -1.5999   -2.7227    1.7810 O   0  0  0  0  0  0  0  0  0  0  0  0
   -2.3659   -0.8447    0.8120 N   0  0  0  0  0  0  0  0  0  0  0  0
   -3.1749   -0.3807    0.4220 H   0  0  0  0  0  0  0  0  0  0  0  0
   -1.0919   -0.1077    0.8170 C   0  0  1  0  0  0  0  0  0  0  0  0
   -1.1773    0.7286    0.1207 H   0  0  0  0  0  0  0  0  0  0  0  0
   -0.8529    0.4473    2.2338 C   0  0  0  0  0  0  0  0  0  0  0  0
   -0.9460   -0.3721    2.9483 H   0  0  0  0  0  0  0  0  0  0  0  0
    0.1635    0.8408    2.2981 H   0  0  0  0  0  0  0  0  0  0  0  0
   -1.8481    1.5488    2.6296 C   0  0  0  0  0  0  0  0  0  0  0  0
   -1.7835    2.3746    1.9200 H   0  0  0  0  0  0  0  0  0  0  0  0
   -2.8609    1.1416    2.6115 H   0  0  0  0  0  0  0  0  0  0  0  0
   -1.5354    2.0703    4.0390 C   0  0  0  0  0  0  0  0  0  0  0  0
   -1.5862    1.2381    4.7451 H   0  0  0  0  0  0  0  0  0  0  0  0
   -0.5253    2.4847    4.0493 H   0  0  0  0  0  0  0  0  0  0  0  0
   -2.5433    3.1527    4.4454 C   0  0  0  0  0  0  0  0  0  0  0  0
   -2.4823    3.9727    3.7225 H   0  0  0  0  0  0  0  0  0  0  0  0
   -3.5505    2.7291    4.3876 H   0  0  0  0  0  0  0  0  0  0  0  0
   -2.2781    3.6586    5.8159 N   0  3  0  0  0  0  0  0  0  0  0  0
   -1.3511    4.0614    5.8730 H   0  0  0  0  0  0  0  0  0  0  0  0
   -2.9514    4.3711    6.0688 H   0  0  0  0  0  0  0  0  0  0  0  0
   -2.3420    2.9048    6.4901 H   0  0  0  0  0  0  0  0  0  0  0  0
    0.0524   -1.0146    0.3585 C   0  0  0  0  0  0  0  0  0  0  0  0
    1.1155   -0.5177    0.0056 O   0  0  0  0  0  0  0  0  0  0  0  0
   -0.1831   -2.3305    0.3345 N   0  0  0  0  0  0  0  0  0  0  0  0
   -1.0743   -2.6548    0.6719 H   0  0  0  0  0  0  0  0  0  0  0  0
    0.8030   -3.3324   -0.0742 C   0  0  0  0  0  0  0  0  0  0  0  0
    1.6613   -3.3016    0.6005 H   0  0  0  0  0  0  0  0  0  0  0  0
    0.3657   -4.3310   -0.0461 H   0  0  0  0  0  0  0  0  0  0  0  0
    1.1537   -3.1209   -1.0867 H   0  0  0  0  0  0  0  0  0  0  0  0
  5  6  2  0  0  0  0
  5  7  1  0  0  0  0
  2  3  1  0  0  0  0
  2  4  1  0  0  0  0
  2  5  1  0  0  0  0
  1  2  1  0  0  0  0
 27 28  2  0  0  0  0
 27 29  1  0  0  0  0
 23 24  1  0  0  0  0
 23 25  1  0  0  0  0
 23 26  1  0  0  0  0
 20 21  1  0  0  0  0
 20 22  1  0  0  0  0
 20 23  1  0  0  0  0
 17 18  1  0  0  0  0
 17 19  1  0  0  0  0
 17 20  1  0  0  0  0
 14 15  1  0  0  0  0
 14 16  1  0  0  0  0
 14 17  1  0  0  0  0
 11 12  1  0  0  0  0
 11 13  1  0  0  0  0
 11 14  1  0  0  0  0
  9 10  1  0  0  0  0
  9 11  1  0  0  0  0
  9 27  1  0  0  0  0
  7  8  1  0  0  0  0
  7  9  1  0  0  0  0
 31 32  1  0  0  0  0
 31 33  1  0  0  0  0
 31 34  1  0  0  0  0
 29 30  1  0  0  0  0
 29 31  1  0  0  0  0
M  CHG  1  23   1
M  END
$$$$
default_name
  -OEChem-01062215323D

 34 33  0     1  0  0  0  0  0999 V2000
   -3.8899   -3.6747    1.6490 H   0  0  0  0  0  0  0  0  0  0  0  0
   -3.9109   -2.6717    1.2250 C   0  0  0  0  0  0  0  0  0  0  0  0
   -4.6009   -2.0517    1.7950 H   0  0  0  0  0  0  0  0  0  0  0  0
   -4.2309   -2.7237    0.1860 H   0  0  0  0  0  0  0  0  0  0  0  0
   -2.5229   -2.0787    1.2980 C   0  0  0  0  0  0  0  0  0  0  0  0
   -1.5999   -2.7227    1.7810 O   0  0  0  0  0  0  0  0  0  0  0  0
   -2.3659   -0.8447    0.8120 N   0  0  0  0  0  0  0  0  0  0  0  0
   -3.1749   -0.3807    0.4220 H   0  0  0  0  0  0  0  0  0  0  0  0
   -1.0919   -0.1077    0.8170 C   0  0  1  0  0  0  0  0  0  0  0  0
   -1.1773    0.7286    0.1207 H   0  0  0  0  0  0  0  0  0  0  0  0
   -0.8529    0.4473    2.2338 C   0  0  0  0  0  0  0  0  0  0  0  0
   -0.9460   -0.3721    2.9483 H   0  0  0  0  0  0  0  0  0  0  0  0
    0.1635    0.8408    2.2981 H   0  0  0  0  0  0  0  0  0  0  0  0
   -1.8481    1.5488    2.6296 C   0  0  0  0  0  0  0  0  0  0  0  0
   -1.7835    2.3746    1.9200 H   0  0  0  0  0  0  0  0  0  0  0  0
   -2.8609    1.1416    2.6115 H   0  0  0  0  0  0  0  0  0  0  0  0
   -1.5354    2.0703    4.0390 C   0  0  0  0  0  0  0  0  0  0  0  0
   -1.5862    1.2381    4.7451 H   0  0  0  0  0  0  0  0  0  0  0  0
   -0.5253    2.4847    4.0493 H   0  0  0  0  0  0  0  0  0  0  0  0
   -2.5433    3.1527    4.4454 C   0  0  0  0  0  0  0  0  0  0  0  0
   -2.4823    3.9727    3.7225 H   0  0  0  0  0  0  0  0  0  0  0  0
   -3.5505    2.7291    4.3876 H   0  0  0  0  0  0  0  0  0  0  0  0
   -2.2781    3.6586    5.8159 N   0  3  0  0  0  0  0  0  0  0  0  0
   -1.3511    4.0614    5.8730 H   0  0  0  0  0  0  0  0  0  0  0  0
   -2.9514    4.3711    6.0688 H   0  0  0  0  0  0  0  0  0  0  0  0
   -2.3420    2.9048    6.4901 H   0  0  0  0  0  0  0  0  0  0  0  0
    0.0524   -1.0146    0.3585 C   0  0  0  0  0  0  0  0  0  0  0  0
    1.1874   -0.5610    0.2706 O   0  0  0  0  0  0  0  0  0  0  0  0
   -0.2579   -2.2750    0.0383 N   0  0  0  0  0  0  0  0  0  0  0  0
   -1.2102   -2.5729    0.1706 H   0  0  0  0  0  0  0  0  0  0  0  0
    0.7167   -3.2695   -0.4140 C   0  0  0  0  0  0  0  0  0  0  0  0
    1.4554   -3.4455    0.3710 H   0  0  0  0  0  0  0  0  0  0  0  0
    0.2190   -4.2109   -0.6498 H   0  0  0  0  0  0  0  0  0  0  0  0
    1.2383   -2.9053   -1.3018 H   0  0  0  0  0  0  0  0  0  0  0  0
  5  6  2  0  0  0  0
  5  7  1  0  0  0  0
  2  3  1  0  0  0  0
  2  4  1  0  0  0  0
  2  5  1  0  0  0  0
  1  2  1  0  0  0  0
 27 28  2  0  0  0  0
 27 29  1  0  0  0  0
 23 24  1  0  0  0  0
 23 25  1  0  0  0  0
 23 26  1  0  0  0  0
 20 21  1  0  0  0  0
 20 22  1  0  0  0  0
 20 23  1  0  0  0  0
 17 18  1  0  0  0  0
 17 19  1  0  0  0  0
 17 20  1  0  0  0  0
 14 15  1  0  0  0  0
 14 16  1  0  0  0  0
 14 17  1  0  0  0  0
 11 12  1  0  0  0  0
 11 13  1  0  0  0  0
 11 14  1  0  0  0  0
  9 10  1  0  0  0  0
  9 11  1  0  0  0  0
  9 27  1  0  0  0  0
  7  8  1  0  0  0  0
  7  9  1  0  0  0  0
 31 32  1  0  0  0  0
 31 33  1  0  0  0  0
 31 34  1  0  0  0  0
 29 30  1  0  0  0  0
 29 31  1  0  0  0  0
M  CHG  1  23   1
M  END
$$$$
default_name
  -OEChem-01062215323D

 34 33  0     1  0  0  0  0  0999 V2000
   -3.8899   -3.6747    1.6490 H   0  0  0  0  0  0  0  0  0  0  0  0
   -3.9109   -2.6717    1.2250 C   0  0  0  0  0  0  0  0  0  0  0  0
   -4.6009   -2.0517    1.7950 H   0  0  0  0  0  0  0  0  0  0  0  0
   -4.2309   -2.7237    0.1860 H   0  0  0  0  0  0  0  0  0  0  0  0
   -2.5229   -2.0787    1.2980 C   0  0  0  0  0  0  0  0  0  0  0  0
   -1.5999   -2.7227    1.7810 O   0  0  0  0  0  0  0  0  0  0  0  0
   -2.3659   -0.8447    0.8120 N   0  0  0  0  0  0  0  0  0  0  0  0
   -3.1749   -0.3807    0.4220 H   0  0  0  0  0  0  0  0  0  0  0  0
   -1.0919   -0.1077    0.8170 C   0  0  1  0  0  0  0  0  0  0  0  0
   -1.1773    0.7286    0.1207 H   0  0  0  0  0  0  0  0  0  0  0  0
   -0.8529    0.4473    2.2338 C   0  0  0  0  0  0  0  0  0  0  0  0
   -0.9460   -0.3721    2.9483 H   0  0  0  0  0  0  0  0  0  0  0  0
    0.1635    0.8408    2.2981 H   0  0  0  0  0  0  0  0  0  0  0  0
   -1.8481    1.5488    2.6296 C   0  0  0  0  0  0  0  0  0  0  0  0
   -1.7835    2.3746    1.9200 H   0  0  0  0  0  0  0  0  0  0  0  0
   -2.8609    1.1416    2.6115 H   0  0  0  0  0  0  0  0  0  0  0  0
   -1.5354    2.0703    4.0390 C   0  0  0  0  0  0  0  0  0  0  0  0
   -1.5862    1.2381    4.7451 H   0  0  0  0  0  0  0  0  0  0  0  0
   -0.5253    2.4847    4.0493 H   0  0  0  0  0  0  0  0  0  0  0  0
   -2.5433    3.1527    4.4454 C   0  0  0  0  0  0  0  0  0  0  0  0
   -2.4823    3.9727    3.7225 H   0  0  0  0  0  0  0  0  0  0  0  0
   -3.5505    2.7291    4.3876 H   0  0  0  0  0  0  0  0  0  0  0  0
   -2.2781    3.6586    5.8159 N   0  3  0  0  0  0  0  0  0  0  0  0
   -1.3511    4.0614    5.8730 H   0  0  0  0  0  0  0  0  0  0  0  0
   -2.9514    4.3711    6.0688 H   0  0  0  0  0  0  0  0  0  0  0  0
   -2.3420    2.9048    6.4901 H   0  0  0  0  0  0  0  0  0  0  0  0
    0.0524   -1.0146    0.3585 C   0  0  0  0  0  0  0  0  0  0  0  0
    1.2128   -0.6597    0.5293 O   0  0  0  0  0  0  0  0  0  0  0  0
   -0.2804   -2.1584   -0.2485 N   0  0  0  0  0  0  0  0  0  0  0  0
   -1.2583   -2.3863   -0.3186 H   0  0  0  0  0  0  0  0  0  0  0  0
    0.6903   -3.1364   -0.7433 C   0  0  0  0  0  0  0  0  0  0  0  0
    1.2805   -3.5240    0.0899 H   0  0  0  0  0  0  0  0  0  0  0  0
    0.1793   -3.9666   -1.2322 H   0  0  0  0  0  0  0  0  0  0  0  0
    1.3698   -2.6621   -1.4548 H   0  0  0  0  0  0  0  0  0  0  0  0
  5  6  2  0  0  0  0
  5  7  1  0  0  0  0
  2  3  1  0  0  0  0
  2  4  1  0  0  0  0
  2  5  1  0  0  0  0
  1  2  1  0  0  0  0
 27 28  2  0  0  0  0
 27 29  1  0  0  0  0
 23 24  1  0  0  0  0
 23 25  1  0  0  0  0
 23 26  1  0  0  0  0
 20 21  1  0  0  0  0
 20 22  1  0  0  0  0
 20 23  1  0  0  0  0
 17 18  1  0  0  0  0
 17 19  1  0  0  0  0
 17 20  1  0  0  0  0
 14 15  1  0  0  0  0
 14 16  1  0  0  0  0
 14 17  1  0  0  0  0
 11 12  1  0  0  0  0
 11 13  1  0  0  0  0
 11 14  1  0  0  0  0
  9 10  1  0  0  0  0
  9 11  1  0  0  0  0
  9 27  1  0  0  0  0
  7  8  1  0  0  0  0
  7  9  1  0  0  0  0
 31 32  1  0  0  0  0
 31 33  1  0  0  0  0
 31 34  1  0  0  0  0
 29 30  1  0  0  0  0
 29 31  1  0  0  0  0
M  CHG  1  23   1
M  END
$$$$
default_name
  -OEChem-01062215323D

 34 33  0     1  0  0  0  0  0999 V2000
   -3.8899   -3.6747    1.6490 H   0  0  0  0  0  0  0  0  0  0  0  0
   -3.9109   -2.6717    1.2250 C   0  0  0  0  0  0  0  0  0  0  0  0
   -4.6009   -2.0517    1.7950 H   0  0  0  0  0  0  0  0  0  0  0  0
   -4.2309   -2.7237    0.1860 H   0  0  0  0  0  0  0  0  0  0  0  0
   -2.5229   -2.0787    1.2980 C   0  0  0  0  0  0  0  0  0  0  0  0
   -1.5999   -2.7227    1.7810 O   0  0  0  0  0  0  0  0  0  0  0  0
   -2.3659   -0.8447    0.8120 N   0  0  0  0  0  0  0  0  0  0  0  0
   -3.1749   -0.3807    0.4220 H   0  0  0  0  0  0  0  0  0  0  0  0
   -1.0919   -0.1077    0.8170 C   0  0  1  0  0  0  0  0  0  0  0  0
   -1.1773    0.7286    0.1207 H   0  0  0  0  0  0  0  0  0  0  0  0
   -0.8529    0.4473    2.2338 C   0  0  0  0  0  0  0  0  0  0  0  0
   -0.9460   -0.3721    2.9483 H   0  0  0  0  0  0  0  0  0  0  0  0
    0.1635    0.8408    2.2981 H   0  0  0  0  0  0  0  0  0  0  0  0
   -1.8481    1.5488    2.6296 C   0  0  0  0  0  0  0  0  0  0  0  0
   -1.7835    2.3746    1.9200 H   0  0  0  0  0  0  0  0  0  0  0  0
   -2.8609    1.1416    2.6115 H   0  0  0  0  0  0  0  0  0  0  0  0
   -1.5354    2.0703    4.0390 C   0  0  0  0  0  0  0  0  0  0  0  0
   -1.5862    1.2381    4.7451 H   0  0  0  0  0  0  0  0  0  0  0  0
   -0.5253    2.4847    4.0493 H   0  0  0  0  0  0  0  0  0  0  0  0
   -2.5433    3.1527    4.4454 C   0  0  0  0  0  0  0  0  0  0  0  0
   -2.4823    3.9727    3.7225 H   0  0  0  0  0  0  0  0  0  0  0  0
   -3.5505    2.7291    4.3876 H   0  0  0  0  0  0  0  0  0  0  0  0
   -2.2781    3.6586    5.8159 N   0  3  0  0  0  0  0  0  0  0  0  0
   -1.3511    4.0614    5.8730 H   0  0  0  0  0  0  0  0  0  0  0  0
   -2.9514    4.3711    6.0688 H   0  0  0  0  0  0  0  0  0  0  0  0
   -2.3420    2.9048    6.4901 H   0  0  0  0  0  0  0  0  0  0  0  0
    0.0524   -1.0146    0.3585 C   0  0  0  0  0  0  0  0  0  0  0  0
    1.1900   -0.8070    0.7639 O   0  0  0  0  0  0  0  0  0  0  0  0
   -0.2491   -1.9885   -0.5065 N   0  0  0  0  0  0  0  0  0  0  0  0
   -1.2152   -2.1076   -0.7624 H   0  0  0  0  0  0  0  0  0  0  0  0
    0.7257   -2.9420   -1.0396 C   0  0  0  0  0  0  0  0  0  0  0  0
    1.1486   -3.5319   -0.2236 H   0  0  0  0  0  0  0  0  0  0  0  0
    0.2492   -3.6148   -1.7535 H   0  0  0  0  0  0  0  0  0  0  0  0
    1.5390   -2.4077   -1.5354 H   0  0  0  0  0  0  0  0  0  0  0  0
  5  6  2  0  0  0  0
  5  7  1  0  0  0  0
  2  3  1  0  0  0  0
  2  4  1  0  0  0  0
  2  5  1  0  0  0  0
  1  2  1  0  0  0  0
 27 28  2  0  0  0  0
 27 29  1  0  0  0  0
 23 24  1  0  0  0  0
 23 25  1  0  0  0  0
 23 26  1  0  0  0  0
 20 21  1  0  0  0  0
 20 22  1  0  0  0  0
 20 23  1  0  0  0  0
 17 18  1  0  0  0  0
 17 19  1  0  0  0  0
 17 20  1  0  0  0  0
 14 15  1  0  0  0  0
 14 16  1  0  0  0  0
 14 17  1  0  0  0  0
 11 12  1  0  0  0  0
 11 13  1  0  0  0  0
 11 14  1  0  0  0  0
  9 10  1  0  0  0  0
  9 11  1  0  0  0  0
  9 27  1  0  0  0  0
  7  8  1  0  0  0  0
  7  9  1  0  0  0  0
 31 32  1  0  0  0  0
 31 33  1  0  0  0  0
 31 34  1  0  0  0  0
 29 30  1  0  0  0  0
 29 31  1  0  0  0  0
M  CHG  1  23   1
M  END
$$$$
default_name
  -OEChem-01062215323D

 34 33  0     1  0  0  0  0  0999 V2000
   -3.8899   -3.6747    1.6490 H   0  0  0  0  0  0  0  0  0  0  0  0
   -3.9109   -2.6717    1.2250 C   0  0  0  0  0  0  0  0  0  0  0  0
   -4.6009   -2.0517    1.7950 H   0  0  0  0  0  0  0  0  0  0  0  0
   -4.2309   -2.7237    0.1860 H   0  0  0  0  0  0  0  0  0  0  0  0
   -2.5229   -2.0787    1.2980 C   0  0  0  0  0  0  0  0  0  0  0  0
   -1.5999   -2.7227    1.7810 O   0  0  0  0  0  0  0  0  0  0  0  0
   -2.3659   -0.8447    0.8120 N   0  0  0  0  0  0  0  0  0  0  0  0
   -3.1749   -0.3807    0.4220 H   0  0  0  0  0  0  0  0  0  0  0  0
   -1.0919   -0.1077    0.8170 C   0  0  1  0  0  0  0  0  0  0  0  0
   -1.1773    0.7286    0.1207 H   0  0  0  0  0  0  0  0  0  0  0  0
   -0.8529    0.4473    2.2338 C   0  0  0  0  0  0  0  0  0  0  0  0
   -0.9460   -0.3721    2.9483 H   0  0  0  0  0  0  0  0  0  0  0  0
    0.1635    0.8408    2.2981 H   0  0  0  0  0  0  0  0  0  0  0  0
   -1.8481    1.5488    2.6296 C   0  0  0  0  0  0  0  0  0  0  0  0
   -1.7835    2.3746    1.9200 H   0  0  0  0  0  0  0  0  0  0  0  0
   -2.8609    1.1416    2.6115 H   0  0  0  0  0  0  0  0  0  0  0  0
   -1.5354    2.0703    4.0390 C   0  0  0  0  0  0  0  0  0  0  0  0
   -1.5862    1.2381    4.7451 H   0  0  0  0  0  0  0  0  0  0  0  0
   -0.5253    2.4847    4.0493 H   0  0  0  0  0  0  0  0  0  0  0  0
   -2.5433    3.1527    4.4454 C   0  0  0  0  0  0  0  0  0  0  0  0
   -2.4823    3.9727    3.7225 H   0  0  0  0  0  0  0  0  0  0  0  0
   -3.5505    2.7291    4.3876 H   0  0  0  0  0  0  0  0  0  0  0  0
   -2.2781    3.6586    5.8159 N   0  3  0  0  0  0  0  0  0  0  0  0
   -1.3511    4.0614    5.8730 H   0  0  0  0  0  0  0  0  0  0  0  0
   -2.9514    4.3711    6.0688 H   0  0  0  0  0  0  0  0  0  0  0  0
   -2.3420    2.9048    6.4901 H   0  0  0  0  0  0  0  0  0  0  0  0
    0.0524   -1.0146    0.3585 C   0  0  0  0  0  0  0  0  0  0  0  0
    1.1206   -0.9930    0.9585 O   0  0  0  0  0  0  0  0  0  0  0  0
   -0.1661   -1.7768   -0.7180 N   0  0  0  0  0  0  0  0  0  0  0  0
   -1.0840   -1.7558   -1.1305 H   0  0  0  0  0  0  0  0  0  0  0  0
    0.8203   -2.6996   -1.2828 C   0  0  0  0  0  0  0  0  0  0  0  0
    1.0687   -3.4686   -0.5483 H   0  0  0  0  0  0  0  0  0  0  0  0
    0.4239   -3.1796   -2.1783 H   0  0  0  0  0  0  0  0  0  0  0  0
    1.7347   -2.1595   -1.5381 H   0  0  0  0  0  0  0  0  0  0  0  0
  5  6  2  0  0  0  0
  5  7  1  0  0  0  0
  2  3  1  0  0  0  0
  2  4  1  0  0  0  0
  2  5  1  0  0  0  0
  1  2  1  0  0  0  0
 27 28  2  0  0  0  0
 27 29  1  0  0  0  0
 23 24  1  0  0  0  0
 23 25  1  0  0  0  0
 23 26  1  0  0  0  0
 20 21  1  0  0  0  0
 20 22  1  0  0  0  0
 20 23  1  0  0  0  0
 17 18  1  0  0  0  0
 17 19  1  0  0  0  0
 17 20  1  0  0  0  0
 14 15  1  0  0  0  0
 14 16  1  0  0  0  0
 14 17  1  0  0  0  0
 11 12  1  0  0  0  0
 11 13  1  0  0  0  0
 11 14  1  0  0  0  0
  9 10  1  0  0  0  0
  9 11  1  0  0  0  0
  9 27  1  0  0  0  0
  7  8  1  0  0  0  0
  7  9  1  0  0  0  0
 31 32  1  0  0  0  0
 31 33  1  0  0  0  0
 31 34  1  0  0  0  0
 29 30  1  0  0  0  0
 29 31  1  0  0  0  0
M  CHG  1  23   1
M  END
$$$$
default_name
  -OEChem-01062215323D

 34 33  0     1  0  0  0  0  0999 V2000
   -3.8899   -3.6747    1.6490 H   0  0  0  0  0  0  0  0  0  0  0  0
   -3.9109   -2.6717    1.2250 C   0  0  0  0  0  0  0  0  0  0  0  0
   -4.6009   -2.0517    1.7950 H   0  0  0  0  0  0  0  0  0  0  0  0
   -4.2309   -2.7237    0.1860 H   0  0  0  0  0  0  0  0  0  0  0  0
   -2.5229   -2.0787    1.2980 C   0  0  0  0  0  0  0  0  0  0  0  0
   -1.5999   -2.7227    1.7810 O   0  0  0  0  0  0  0  0  0  0  0  0
   -2.3659   -0.8447    0.8120 N   0  0  0  0  0  0  0  0  0  0  0  0
   -3.1749   -0.3807    0.4220 H   0  0  0  0  0  0  0  0  0  0  0  0
   -1.0919   -0.1077    0.8170 C   0  0  1  0  0  0  0  0  0  0  0  0
   -1.1773    0.7286    0.1207 H   0  0  0  0  0  0  0  0  0  0  0  0
   -0.8529    0.4473    2.2338 C   0  0  0  0  0  0  0  0  0  0  0  0
   -0.9460   -0.3721    2.9483 H   0  0  0  0  0  0  0  0  0  0  0  0
    0.1635    0.8408    2.2981 H   0  0  0  0  0  0  0  0  0  0  0  0
   -1.8481    1.5488    2.6296 C   0  0  0  0  0  0  0  0  0  0  0  0
   -1.7835    2.3746    1.9200 H   0  0  0  0  0  0  0  0  0  0  0  0
   -2.8609    1.1416    2.6115 H   0  0  0  0  0  0  0  0  0  0  0  0
   -1.5354    2.0703    4.0390 C   0  0  0  0  0  0  0  0  0  0  0  0
   -1.5862    1.2381    4.7451 H   0  0  0  0  0  0  0  0  0  0  0  0
   -0.5253    2.4847    4.0493 H   0  0  0  0  0  0  0  0  0  0  0  0
   -2.5433    3.1527    4.4454 C   0  0  0  0  0  0  0  0  0  0  0  0
   -2.4823    3.9727    3.7225 H   0  0  0  0  0  0  0  0  0  0  0  0
   -3.5505    2.7291    4.3876 H   0  0  0  0  0  0  0  0  0  0  0  0
   -2.2781    3.6586    5.8159 N   0  3  0  0  0  0  0  0  0  0  0  0
   -1.3511    4.0614    5.8730 H   0  0  0  0  0  0  0  0  0  0  0  0
   -2.9514    4.3711    6.0688 H   0  0  0  0  0  0  0  0  0  0  0  0
   -2.3420    2.9048    6.4901 H   0  0  0  0  0  0  0  0  0  0  0  0
    0.0524   -1.0146    0.3585 C   0  0  0  0  0  0  0  0  0  0  0  0
    1.0093   -1.2049    1.0999 O   0  0  0  0  0  0  0  0  0  0  0  0
   -0.0371   -1.5379   -0.8686 N   0  0  0  0  0  0  0  0  0  0  0  0
   -0.8734   -1.3550   -1.3979 H   0  0  0  0  0  0  0  0  0  0  0  0
    0.9678   -2.4258   -1.4563 C   0  0  0  0  0  0  0  0  0  0  0  0
    1.0462   -3.3385   -0.8618 H   0  0  0  0  0  0  0  0  0  0  0  0
    0.6916   -2.6905   -2.4776 H   0  0  0  0  0  0  0  0  0  0  0  0
    1.9432   -1.9345   -1.4626 H   0  0  0  0  0  0  0  0  0  0  0  0
  5  6  2  0  0  0  0
  5  7  1  0  0  0  0
  2  3  1  0  0  0  0
  2  4  1  0  0  0  0
  2  5  1  0  0  0  0
  1  2  1  0  0  0  0
 27 28  2  0  0  0  0
 27 29  1  0  0  0  0
 23 24  1  0  0  0  0
 23 25  1  0  0  0  0
 23 26  1  0  0  0  0
 20 21  1  0  0  0  0
 20 22  1  0  0  0  0
 20 23  1  0  0  0  0
 17 18  1  0  0  0  0
 17 19  1  0  0  0  0
 17 20  1  0  0  0  0
 14 15  1  0  0  0  0
 14 16  1  0  0  0  0
 14 17  1  0  0  0  0
 11 12  1  0  0  0  0
 11 13  1  0  0  0  0
 11 14  1  0  0  0  0
  9 10  1  0  0  0  0
  9 11  1  0  0  0  0
  9 27  1  0  0  0  0
  7  8  1  0  0  0  0
  7  9  1  0  0  0  0
 31 32  1  0  0  0  0
 31 33  1  0  0  0  0
 31 34  1  0  0  0  0
 29 30  1  0  0  0  0
 29 31  1  0  0  0  0
M  CHG  1  23   1
M  END
$$$$
default_name
  -OEChem-01062215323D

 34 33  0     1  0  0  0  0  0999 V2000
   -3.8899   -3.6747    1.6490 H   0  0  0  0  0  0  0  0  0  0  0  0
   -3.9109   -2.6717    1.2250 C   0  0  0  0  0  0  0  0  0  0  0  0
   -4.6009   -2.0517    1.7950 H   0  0  0  0  0  0  0  0  0  0  0  0
   -4.2309   -2.7237    0.1860 H   0  0  0  0  0  0  0  0  0  0  0  0
   -2.5229   -2.0787    1.2980 C   0  0  0  0  0  0  0  0  0  0  0  0
   -1.5999   -2.7227    1.7810 O   0  0  0  0  0  0  0  0  0  0  0  0
   -2.3659   -0.8447    0.8120 N   0  0  0  0  0  0  0  0  0  0  0  0
   -3.1749   -0.3807    0.4220 H   0  0  0  0  0  0  0  0  0  0  0  0
   -1.0919   -0.1077    0.8170 C   0  0  1  0  0  0  0  0  0  0  0  0
   -1.1773    0.7286    0.1207 H   0  0  0  0  0  0  0  0  0  0  0  0
   -0.8529    0.4473    2.2338 C   0  0  0  0  0  0  0  0  0  0  0  0
   -0.9460   -0.3721    2.9483 H   0  0  0  0  0  0  0  0  0  0  0  0
    0.1635    0.8408    2.2981 H   0  0  0  0  0  0  0  0  0  0  0  0
   -1.8481    1.5488    2.6296 C   0  0  0  0  0  0  0  0  0  0  0  0
   -1.7835    2.3746    1.9200 H   0  0  0  0  0  0  0  0  0  0  0  0
   -2.8609    1.1416    2.6115 H   0  0  0  0  0  0  0  0  0  0  0  0
   -1.5354    2.0703    4.0390 C   0  0  0  0  0  0  0  0  0  0  0  0
   -1.5862    1.2381    4.7451 H   0  0  0  0  0  0  0  0  0  0  0  0
   -0.5253    2.4847    4.0493 H   0  0  0  0  0  0  0  0  0  0  0  0
   -2.5433    3.1527    4.4454 C   0  0  0  0  0  0  0  0  0  0  0  0
   -2.4823    3.9727    3.7225 H   0  0  0  0  0  0  0  0  0  0  0  0
   -3.5505    2.7291    4.3876 H   0  0  0  0  0  0  0  0  0  0  0  0
   -2.2781    3.6586    5.8159 N   0  3  0  0  0  0  0  0  0  0  0  0
   -1.3511    4.0614    5.8730 H   0  0  0  0  0  0  0  0  0  0  0  0
   -2.9514    4.3711    6.0688 H   0  0  0  0  0  0  0  0  0  0  0  0
   -2.3420    2.9048    6.4901 H   0  0  0  0  0  0  0  0  0  0  0  0
    0.0524   -1.0146    0.3585 C   0  0  0  0  0  0  0  0  0  0  0  0
    0.8637   -1.4284    1.1784 O   0  0  0  0  0  0  0  0  0  0  0  0
    0.1292   -1.2880   -0.9480 N   0  0  0  0  0  0  0  0  0  0  0  0
   -0.5980   -0.9324   -1.5463 H   0  0  0  0  0  0  0  0  0  0  0  0
    1.1581   -2.1391   -1.5483 C   0  0  0  0  0  0  0  0  0  0  0  0
    1.0827   -3.1504   -1.1430 H   0  0  0  0  0  0  0  0  0  0  0  0
    1.0340   -2.1809   -2.6310 H   0  0  0  0  0  0  0  0  0  0  0  0
    2.1506   -1.7478   -1.3142 H   0  0  0  0  0  0  0  0  0  0  0  0
  5  6  2  0  0  0  0
  5  7  1  0  0  0  0
  2  3  1  0  0  0  0
  2  4  1  0  0  0  0
  2  5  1  0  0  0  0
  1  2  1  0  0  0  0
 27 28  2  0  0  0  0
 27 29  1  0  0  0  0
 23 24  1  0  0  0  0
 23 25  1  0  0  0  0
 23 26  1  0  0  0  0
 20 21  1  0  0  0  0
 20 22  1  0  0  0  0
 20 23  1  0  0  0  0
 17 18  1  0  0  0  0
 17 19  1  0  0  0  0
 17 20  1  0  0  0  0
 14 15  1  0  0  0  0
 14 16  1  0  0  0  0
 14 17  1  0  0  0  0
 11 12  1  0  0  0  0
 11 13  1  0  0  0  0
 11 14  1  0  0  0  0
  9 10  1  0  0  0  0
  9 11  1  0  0  0  0
  9 27  1  0  0  0  0
  7  8  1  0  0  0  0
  7  9  1  0  0  0  0
 31 32  1  0  0  0  0
 31 33  1  0  0  0  0
 31 34  1  0  0  0  0
 29 30  1  0  0  0  0
 29 31  1  0  0  0  0
M  CHG  1  23   1
M  END
$$$$
default_name
  -OEChem-01062215323D

 34 33  0     1  0  0  0  0  0999 V2000
   -3.8899   -3.6747    1.6490 H   0  0  0  0  0  0  0  0  0  0  0  0
   -3.9109   -2.6717    1.2250 C   0  0  0  0  0  0  0  0  0  0  0  0
   -4.6009   -2.0517    1.7950 H   0  0  0  0  0  0  0  0  0  0  0  0
   -4.2309   -2.7237    0.1860 H   0  0  0  0  0  0  0  0  0  0  0  0
   -2.5229   -2.0787    1.2980 C   0  0  0  0  0  0  0  0  0  0  0  0
   -1.5999   -2.7227    1.7810 O   0  0  0  0  0  0  0  0  0  0  0  0
   -2.3659   -0.8447    0.8120 N   0  0  0  0  0  0  0  0  0  0  0  0
   -3.1749   -0.3807    0.4220 H   0  0  0  0  0  0  0  0  0  0  0  0
   -1.0919   -0.1077    0.8170 C   0  0  1  0  0  0  0  0  0  0  0  0
   -1.1773    0.7286    0.1207 H   0  0  0  0  0  0  0  0  0  0  0  0
   -0.8529    0.4473    2.2338 C   0  0  0  0  0  0  0  0  0  0  0  0
   -0.9460   -0.3721    2.9483 H   0  0  0  0  0  0  0  0  0  0  0  0
    0.1635    0.8408    2.2981 H   0  0  0  0  0  0  0  0  0  0  0  0
   -1.8481    1.5488    2.6296 C   0  0  0  0  0  0  0  0  0  0  0  0
   -1.7835    2.3746    1.9200 H   0  0  0  0  0  0  0  0  0  0  0  0
   -2.8609    1.1416    2.6115 H   0  0  0  0  0  0  0  0  0  0  0  0
   -1.5354    2.0703    4.0390 C   0  0  0  0  0  0  0  0  0  0  0  0
   -1.5862    1.2381    4.7451 H   0  0  0  0  0  0  0  0  0  0  0  0
   -0.5253    2.4847    4.0493 H   0  0  0  0  0  0  0  0  0  0  0  0
   -2.5433    3.1527    4.4454 C   0  0  0  0  0  0  0  0  0  0  0  0
   -2.4823    3.9727    3.7225 H   0  0  0  0  0  0  0  0  0  0  0  0
   -3.5505    2.7291    4.3876 H   0  0  0  0  0  0  0  0  0  0  0  0
   -2.2781    3.6586    5.8159 N   0  3  0  0  0  0  0  0  0  0  0  0
   -1.3511    4.0614    5.8730 H   0  0  0  0  0  0  0  0  0  0  0  0
   -2.9514    4.3711    6.0688 H   0  0  0  0  0  0  0  0  0  0  0  0
   -2.3420    2.9048    6.4901 H   0  0  0  0  0  0  0  0  0  0  0  0
    0.0524   -1.0146    0.3585 C   0  0  0  0  0  0  0  0  0  0  0  0
    0.6937   -1.6481    1.1886 O   0  0  0  0  0  0  0  0  0  0  0  0
    0.3213   -1.0441   -0.9509 N   0  0  0  0  0  0  0  0  0  0  0  0
   -0.2765   -0.5169   -1.5656 H   0  0  0  0  0  0  0  0  0  0  0  0
    1.3783   -1.8592   -1.5524 C   0  0  0  0  0  0  0  0  0  0  0  0
    1.1756   -2.9171   -1.3725 H   0  0  0  0  0  0  0  0  0  0  0  0
    1.4277   -1.6856   -2.6280 H   0  0  0  0  0  0  0  0  0  0  0  0
    2.3426   -1.6124   -1.1029 H   0  0  0  0  0  0  0  0  0  0  0  0
  5  6  2  0  0  0  0
  5  7  1  0  0  0  0
  2  3  1  0  0  0  0
  2  4  1  0  0  0  0
  2  5  1  0  0  0  0
  1  2  1  0  0  0  0
 27 28  2  0  0  0  0
 27 29  1  0  0  0  0
 23 24  1  0  0  0  0
 23 25  1  0  0  0  0
 23 26  1  0  0  0  0
 20 21  1  0  0  0  0
 20 22  1  0  0  0  0
 20 23  1  0  0  0  0
 17 18  1  0  0  0  0
 17 19  1  0  0  0  0
 17 20  1  0  0  0  0
 14 15  1  0  0  0  0
 14 16  1  0  0  0  0
 14 17  1  0  0  0  0
 11 12  1  0  0  0  0
 11 13  1  0  0  0  0
 11 14  1  0  0  0  0
  9 10  1  0  0  0  0
  9 11  1  0  0  0  0
  9 27  1  0  0  0  0
  7  8  1  0  0  0  0
  7  9  1  0  0  0  0
 31 32  1  0  0  0  0
 31 33  1  0  0  0  0
 31 34  1  0  0  0  0
 29 30  1  0  0  0  0
 29 31  1  0  0  0  0
M  CHG  1  23   1
M  END
$$$$
default_name
  -OEChem-01062215323D

 34 33  0     1  0  0  0  0  0999 V2000
   -3.8899   -3.6747    1.6490 H   0  0  0  0  0  0  0  0  0  0  0  0
   -3.9109   -2.6717    1.2250 C   0  0  0  0  0  0  0  0  0  0  0  0
   -4.6009   -2.0517    1.7950 H   0  0  0  0  0  0  0  0  0  0  0  0
   -4.2309   -2.7237    0.1860 H   0  0  0  0  0  0  0  0  0  0  0  0
   -2.5229   -2.0787    1.2980 C   0  0  0  0  0  0  0  0  0  0  0  0
   -1.5999   -2.7227    1.7810 O   0  0  0  0  0  0  0  0  0  0  0  0
   -2.3659   -0.8447    0.8120 N   0  0  0  0  0  0  0  0  0  0  0  0
   -3.1749   -0.3807    0.4220 H   0  0  0  0  0  0  0  0  0  0  0  0
   -1.0919   -0.1077    0.8170 C   0  0  1  0  0  0  0  0  0  0  0  0
   -1.1773    0.7286    0.1207 H   0  0  0  0  0  0  0  0  0  0  0  0
   -0.8529    0.4473    2.2338 C   0  0  0  0  0  0  0  0  0  0  0  0
   -0.9460   -0.3721    2.9483 H   0  0  0  0  0  0  0  0  0  0  0  0
    0.1635    0.8408    2.2981 H   0  0  0  0  0  0  0  0  0  0  0  0
   -1.8481    1.5488    2.6296 C   0  0  0  0  0  0  0  0  0  0  0  0
   -1.7835    2.3746    1.9200 H   0  0  0  0  0  0  0  0  0  0  0  0
   -2.8609    1.1416    2.6115 H   0  0  0  0  0  0  0  0  0  0  0  0
   -1.5354    2.0703    4.0390 C   0  0  0  0  0  0  0  0  0  0  0  0
   -1.5862    1.2381    4.7451 H   0  0  0  0  0  0  0  0  0  0  0  0
   -0.5253    2.4847    4.0493 H   0  0  0  0  0  0  0  0  0  0  0  0
   -2.5433    3.1527    4.4454 C   0  0  0  0  0  0  0  0  0  0  0  0
   -2.4823    3.9727    3.7225 H   0  0  0  0  0  0  0  0  0  0  0  0
   -3.5505    2.7291    4.3876 H   0  0  0  0  0  0  0  0  0  0  0  0
   -2.2781    3.6586    5.8159 N   0  3  0  0  0  0  0  0  0  0  0  0
   -1.3511    4.0614    5.8730 H   0  0  0  0  0  0  0  0  0  0  0  0
   -2.9514    4.3711    6.0688 H   0  0  0  0  0  0  0  0  0  0  0  0
   -2.3420    2.9048    6.4901 H   0  0  0  0  0  0  0  0  0  0  0  0
    0.0524   -1.0146    0.3585 C   0  0  0  0  0  0  0  0  0  0  0  0
    0.5109   -1.8491    1.1298 O   0  0  0  0  0  0  0  0  0  0  0  0
    0.5262   -0.8228   -0.8770 N   0  0  0  0  0  0  0  0  0  0  0  0
    0.0693   -0.1367   -1.4545 H   0  0  0  0  0  0  0  0  0  0  0  0
    1.6133   -1.6050   -1.4685 C   0  0  0  0  0  0  0  0  0  0  0  0
    1.3186   -2.6545   -1.5349 H   0  0  0  0  0  0  0  0  0  0  0  0
    1.8460   -1.2382   -2.4688 H   0  0  0  0  0  0  0  0  0  0  0  0
    2.5062   -1.5373   -0.8431 H   0  0  0  0  0  0  0  0  0  0  0  0
  5  6  2  0  0  0  0
  5  7  1  0  0  0  0
  2  3  1  0  0  0  0
  2  4  1  0  0  0  0
  2  5  1  0  0  0  0
  1  2  1  0  0  0  0
 27 28  2  0  0  0  0
 27 29  1  0  0  0  0
 23 24  1  0  0  0  0
 23 25  1  0  0  0  0
 23 26  1  0  0  0  0
 20 21  1  0  0  0  0
 20 22  1  0  0  0  0
 20 23  1  0  0  0  0
 17 18  1  0  0  0  0
 17 19  1  0  0  0  0
 17 20  1  0  0  0  0
 14 15  1  0  0  0  0
 14 16  1  0  0  0  0
 14 17  1  0  0  0  0
 11 12  1  0  0  0  0
 11 13  1  0  0  0  0
 11 14  1  0  0  0  0
  9 10  1  0  0  0  0
  9 11  1  0  0  0  0
  9 27  1  0  0  0  0
  7  8  1  0  0  0  0
  7  9  1  0  0  0  0
 31 32  1  0  0  0  0
 31 33  1  0  0  0  0
 31 34  1  0  0  0  0
 29 30  1  0  0  0  0
 29 31  1  0  0  0  0
M  CHG  1  23   1
M  END
$$$$
default_name
  -OEChem-01062215323D

 34 33  0     1  0  0  0  0  0999 V2000
   -3.8899   -3.6747    1.6490 H   0  0  0  0  0  0  0  0  0  0  0  0
   -3.9109   -2.6717    1.2250 C   0  0  0  0  0  0  0  0  0  0  0  0
   -4.6009   -2.0517    1.7950 H   0  0  0  0  0  0  0  0  0  0  0  0
   -4.2309   -2.7237    0.1860 H   0  0  0  0  0  0  0  0  0  0  0  0
   -2.5229   -2.0787    1.2980 C   0  0  0  0  0  0  0  0  0  0  0  0
   -1.5999   -2.7227    1.7810 O   0  0  0  0  0  0  0  0  0  0  0  0
   -2.3659   -0.8447    0.8120 N   0  0  0  0  0  0  0  0  0  0  0  0
   -3.1749   -0.3807    0.4220 H   0  0  0  0  0  0  0  0  0  0  0  0
   -1.0919   -0.1077    0.8170 C   0  0  1  0  0  0  0  0  0  0  0  0
   -1.1773    0.7286    0.1207 H   0  0  0  0  0  0  0  0  0  0  0  0
   -0.8529    0.4473    2.2338 C   0  0  0  0  0  0  0  0  0  0  0  0
   -0.9460   -0.3721    2.9483 H   0  0  0  0  0  0  0  0  0  0  0  0
    0.1635    0.8408    2.2981 H   0  0  0  0  0  0  0  0  0  0  0  0
   -1.8481    1.5488    2.6296 C   0  0  0  0  0  0  0  0  0  0  0  0
   -1.7835    2.3746    1.9200 H   0  0  0  0  0  0  0  0  0  0  0  0
   -2.8609    1.1416    2.6115 H   0  0  0  0  0  0  0  0  0  0  0  0
   -1.5354    2.0703    4.0390 C   0  0  0  0  0  0  0  0  0  0  0  0
   -1.5862    1.2381    4.7451 H   0  0  0  0  0  0  0  0  0  0  0  0
   -0.5253    2.4847    4.0493 H   0  0  0  0  0  0  0  0  0  0  0  0
   -2.5433    3.1527    4.4454 C   0  0  0  0  0  0  0  0  0  0  0  0
   -2.4823    3.9727    3.7225 H   0  0  0  0  0  0  0  0  0  0  0  0
   -3.5505    2.7291    4.3876 H   0  0  0  0  0  0  0  0  0  0  0  0
   -2.2781    3.6586    5.8159 N   0  3  0  0  0  0  0  0  0  0  0  0
   -1.3511    4.0614    5.8730 H   0  0  0  0  0  0  0  0  0  0  0  0
   -2.9514    4.3711    6.0688 H   0  0  0  0  0  0  0  0  0  0  0  0
   -2.3420    2.9048    6.4901 H   0  0  0  0  0  0  0  0  0  0  0  0
    0.0524   -1.0146    0.3585 C   0  0  0  0  0  0  0  0  0  0  0  0
    0.3277   -2.0177    1.0062 O   0  0  0  0  0  0  0  0  0  0  0  0
    0.7300   -0.6393   -0.7313 N   0  0  0  0  0  0  0  0  0  0  0  0
    0.4158    0.1823   -1.2206 H   0  0  0  0  0  0  0  0  0  0  0  0
    1.8471   -1.3940   -1.3022 C   0  0  0  0  0  0  0  0  0  0  0  0
    1.5020   -2.3806   -1.6189 H   0  0  0  0  0  0  0  0  0  0  0  0
    2.2603   -0.8693   -2.1644 H   0  0  0  0  0  0  0  0  0  0  0  0
    2.6301   -1.5277   -0.5526 H   0  0  0  0  0  0  0  0  0  0  0  0
  5  6  2  0  0  0  0
  5  7  1  0  0  0  0
  2  3  1  0  0  0  0
  2  4  1  0  0  0  0
  2  5  1  0  0  0  0
  1  2  1  0  0  0  0
 27 28  2  0  0  0  0
 27 29  1  0  0  0  0
 23 24  1  0  0  0  0
 23 25  1  0  0  0  0
 23 26  1  0  0  0  0
 20 21  1  0  0  0  0
 20 22  1  0  0  0  0
 20 23  1  0  0  0  0
 17 18  1  0  0  0  0
 17 19  1  0  0  0  0
 17 20  1  0  0  0  0
 14 15  1  0  0  0  0
 14 16  1  0  0  0  0
 14 17  1  0  0  0  0
 11 12  1  0  0  0  0
 11 13  1  0  0  0  0
 11 14  1  0  0  0  0
  9 10  1  0  0  0  0
  9 11  1  0  0  0  0
  9 27  1  0  0  0  0
  7  8  1  0  0  0  0
  7  9  1  0  0  0  0
 31 32  1  0  0  0  0
 31 33  1  0  0  0  0
 31 34  1  0  0  0  0
 29 30  1  0  0  0  0
 29 31  1  0  0  0  0
M  CHG  1  23   1
M  END
$$$$
default_name
  -OEChem-01062215323D

 34 33  0     1  0  0  0  0  0999 V2000
   -3.8899   -3.6747    1.6490 H   0  0  0  0  0  0  0  0  0  0  0  0
   -3.9109   -2.6717    1.2250 C   0  0  0  0  0  0  0  0  0  0  0  0
   -4.6009   -2.0517    1.7950 H   0  0  0  0  0  0  0  0  0  0  0  0
   -4.2309   -2.7237    0.1860 H   0  0  0  0  0  0  0  0  0  0  0  0
   -2.5229   -2.0787    1.2980 C   0  0  0  0  0  0  0  0  0  0  0  0
   -1.5999   -2.7227    1.7810 O   0  0  0  0  0  0  0  0  0  0  0  0
   -2.3659   -0.8447    0.8120 N   0  0  0  0  0  0  0  0  0  0  0  0
   -3.1749   -0.3807    0.4220 H   0  0  0  0  0  0  0  0  0  0  0  0
   -1.0919   -0.1077    0.8170 C   0  0  1  0  0  0  0  0  0  0  0  0
   -1.1773    0.7286    0.1207 H   0  0  0  0  0  0  0  0  0  0  0  0
   -0.8529    0.4473    2.2338 C   0  0  0  0  0  0  0  0  0  0  0  0
   -0.9460   -0.3721    2.9483 H   0  0  0  0  0  0  0  0  0  0  0  0
    0.1635    0.8408    2.2981 H   0  0  0  0  0  0  0  0  0  0  0  0
   -1.8481    1.5488    2.6296 C   0  0  0  0  0  0  0  0  0  0  0  0
   -1.7835    2.3746    1.9200 H   0  0  0  0  0  0  0  0  0  0  0  0
   -2.8609    1.1416    2.6115 H   0  0  0  0  0  0  0  0  0  0  0  0
   -1.5354    2.0703    4.0390 C   0  0  0  0  0  0  0  0  0  0  0  0
   -1.5862    1.2381    4.7451 H   0  0  0  0  0  0  0  0  0  0  0  0
   -0.5253    2.4847    4.0493 H   0  0  0  0  0  0  0  0  0  0  0  0
   -2.5433    3.1527    4.4454 C   0  0  0  0  0  0  0  0  0  0  0  0
   -2.4823    3.9727    3.7225 H   0  0  0  0  0  0  0  0  0  0  0  0
   -3.5505    2.7291    4.3876 H   0  0  0  0  0  0  0  0  0  0  0  0
   -2.2781    3.6586    5.8159 N   0  3  0  0  0  0  0  0  0  0  0  0
   -1.3511    4.0614    5.8730 H   0  0  0  0  0  0  0  0  0  0  0  0
   -2.9514    4.3711    6.0688 H   0  0  0  0  0  0  0  0  0  0  0  0
   -2.3420    2.9048    6.4901 H   0  0  0  0  0  0  0  0  0  0  0  0
    0.0524   -1.0146    0.3585 C   0  0  0  0  0  0  0  0  0  0  0  0
    0.1567   -2.1424    0.8260 O   0  0  0  0  0  0  0  0  0  0  0  0
    0.9187   -0.5061   -0.5239 N   0  0  0  0  0  0  0  0  0  0  0  0
    0.7393    0.4182   -0.8798 H   0  0  0  0  0  0  0  0  0  0  0  0
    2.0639   -1.2405   -1.0649 C   0  0  0  0  0  0  0  0  0  0  0  0
    1.7133   -2.1139   -1.6190 H   0  0  0  0  0  0  0  0  0  0  0  0
    2.6424   -0.6040   -1.7354 H   0  0  0  0  0  0  0  0  0  0  0  0
    2.7060   -1.5844   -0.2511 H   0  0  0  0  0  0  0  0  0  0  0  0
  5  6  2  0  0  0  0
  5  7  1  0  0  0  0
  2  3  1  0  0  0  0
  2  4  1  0  0  0  0
  2  5  1  0  0  0  0
  1  2  1  0  0  0  0
 27 28  2  0  0  0  0
 27 29  1  0  0  0  0
 23 24  1  0  0  0  0
 23 25  1  0  0  0  0
 23 26  1  0  0  0  0
 20 21  1  0  0  0  0
 20 22  1  0  0  0  0
 20 23  1  0  0  0  0
 17 18  1  0  0  0  0
 17 19  1  0  0  0  0
 17 20  1  0  0  0  0
 14 15  1  0  0  0  0
 14 16  1  0  0  0  0
 14 17  1  0  0  0  0
 11 12  1  0  0  0  0
 11 13  1  0  0  0  0
 11 14  1  0  0  0  0
  9 10  1  0  0  0  0
  9 11  1  0  0  0  0
  9 27  1  0  0  0  0
  7  8  1  0  0  0  0
  7  9  1  0  0  0  0
 31 32  1  0  0  0  0
 31 33  1  0  0  0  0
 31 34  1  0  0  0  0
 29 30  1  0  0  0  0
 29 31  1  0  0  0  0
M  CHG  1  23   1
M  END
$$$$
default_name
  -OEChem-01062215323D

 34 33  0     1  0  0  0  0  0999 V2000
   -3.8899   -3.6747    1.6490 H   0  0  0  0  0  0  0  0  0  0  0  0
   -3.9109   -2.6717    1.2250 C   0  0  0  0  0  0  0  0  0  0  0  0
   -4.6009   -2.0517    1.7950 H   0  0  0  0  0  0  0  0  0  0  0  0
   -4.2309   -2.7237    0.1860 H   0  0  0  0  0  0  0  0  0  0  0  0
   -2.5229   -2.0787    1.2980 C   0  0  0  0  0  0  0  0  0  0  0  0
   -1.5999   -2.7227    1.7810 O   0  0  0  0  0  0  0  0  0  0  0  0
   -2.3659   -0.8447    0.8120 N   0  0  0  0  0  0  0  0  0  0  0  0
   -3.1749   -0.3807    0.4220 H   0  0  0  0  0  0  0  0  0  0  0  0
   -1.0919   -0.1077    0.8170 C   0  0  1  0  0  0  0  0  0  0  0  0
   -1.1773    0.7286    0.1207 H   0  0  0  0  0  0  0  0  0  0  0  0
   -0.8529    0.4473    2.2338 C   0  0  0  0  0  0  0  0  0  0  0  0
   -0.9460   -0.3721    2.9483 H   0  0  0  0  0  0  0  0  0  0  0  0
    0.1635    0.8408    2.2981 H   0  0  0  0  0  0  0  0  0  0  0  0
   -1.8481    1.5488    2.6296 C   0  0  0  0  0  0  0  0  0  0  0  0
   -1.7835    2.3746    1.9200 H   0  0  0  0  0  0  0  0  0  0  0  0
   -2.8609    1.1416    2.6115 H   0  0  0  0  0  0  0  0  0  0  0  0
   -1.5354    2.0703    4.0390 C   0  0  0  0  0  0  0  0  0  0  0  0
   -1.5862    1.2381    4.7451 H   0  0  0  0  0  0  0  0  0  0  0  0
   -0.5253    2.4847    4.0493 H   0  0  0  0  0  0  0  0  0  0  0  0
   -2.5433    3.1527    4.4454 C   0  0  0  0  0  0  0  0  0  0  0  0
   -2.4823    3.9727    3.7225 H   0  0  0  0  0  0  0  0  0  0  0  0
   -3.5505    2.7291    4.3876 H   0  0  0  0  0  0  0  0  0  0  0  0
   -2.2781    3.6586    5.8159 N   0  3  0  0  0  0  0  0  0  0  0  0
   -1.3511    4.0614    5.8730 H   0  0  0  0  0  0  0  0  0  0  0  0
   -2.9514    4.3711    6.0688 H   0  0  0  0  0  0  0  0  0  0  0  0
   -2.3420    2.9048    6.4901 H   0  0  0  0  0  0  0  0  0  0  0  0
    0.0524   -1.0146    0.3585 C   0  0  0  0  0  0  0  0  0  0  0  0
    0.0094   -2.2148    0.6016 O   0  0  0  0  0  0  0  0  0  0  0  0
    1.0795   -0.4321   -0.2688 N   0  0  0  0  0  0  0  0  0  0  0  0
    1.0178    0.5551   -0.4553 H   0  0  0  0  0  0  0  0  0  0  0  0
    2.2487   -1.1550   -0.7727 C   0  0  0  0  0  0  0  0  0  0  0  0
    1.9381   -1.8727   -1.5350 H   0  0  0  0  0  0  0  0  0  0  0  0
    2.9662   -0.4604   -1.2111 H   0  0  0  0  0  0  0  0  0  0  0  0
    2.7288   -1.7033    0.0408 H   0  0  0  0  0  0  0  0  0  0  0  0
  5  6  2  0  0  0  0
  5  7  1  0  0  0  0
  2  3  1  0  0  0  0
  2  4  1  0  0  0  0
  2  5  1  0  0  0  0
  1  2  1  0  0  0  0
 27 28  2  0  0  0  0
 27 29  1  0  0  0  0
 23 24  1  0  0  0  0
 23 25  1  0  0  0  0
 23 26  1  0  0  0  0
 20 21  1  0  0  0  0
 20 22  1  0  0  0  0
 20 23  1  0  0  0  0
 17 18  1  0  0  0  0
 17 19  1  0  0  0  0
 17 20  1  0  0  0  0
 14 15  1  0  0  0  0
 14 16  1  0  0  0  0
 14 17  1  0  0  0  0
 11 12  1  0  0  0  0
 11 13  1  0  0  0  0
 11 14  1  0  0  0  0
  9 10  1  0  0  0  0
  9 11  1  0  0  0  0
  9 27  1  0  0  0  0
  7  8  1  0  0  0  0
  7  9  1  0  0  0  0
 31 32  1  0  0  0  0
 31 33  1  0  0  0  0
 31 34  1  0  0  0  0
 29 30  1  0  0  0  0
 29 31  1  0  0  0  0
M  CHG  1  23   1
M  END
$$$$
default_name
  -OEChem-01062215323D

 34 33  0     1  0  0  0  0  0999 V2000
   -3.8899   -3.6747    1.6490 H   0  0  0  0  0  0  0  0  0  0  0  0
   -3.9109   -2.6717    1.2250 C   0  0  0  0  0  0  0  0  0  0  0  0
   -4.6009   -2.0517    1.7950 H   0  0  0  0  0  0  0  0  0  0  0  0
   -4.2309   -2.7237    0.1860 H   0  0  0  0  0  0  0  0  0  0  0  0
   -2.5229   -2.0787    1.2980 C   0  0  0  0  0  0  0  0  0  0  0  0
   -1.5999   -2.7227    1.7810 O   0  0  0  0  0  0  0  0  0  0  0  0
   -2.3659   -0.8447    0.8120 N   0  0  0  0  0  0  0  0  0  0  0  0
   -3.1749   -0.3807    0.4220 H   0  0  0  0  0  0  0  0  0  0  0  0
   -1.0919   -0.1077    0.8170 C   0  0  1  0  0  0  0  0  0  0  0  0
   -1.1773    0.7286    0.1207 H   0  0  0  0  0  0  0  0  0  0  0  0
   -0.8529    0.4473    2.2338 C   0  0  0  0  0  0  0  0  0  0  0  0
   -0.9460   -0.3721    2.9483 H   0  0  0  0  0  0  0  0  0  0  0  0
    0.1635    0.8408    2.2981 H   0  0  0  0  0  0  0  0  0  0  0  0
   -1.8481    1.5488    2.6296 C   0  0  0  0  0  0  0  0  0  0  0  0
   -1.7835    2.3746    1.9200 H   0  0  0  0  0  0  0  0  0  0  0  0
   -2.8609    1.1416    2.6115 H   0  0  0  0  0  0  0  0  0  0  0  0
   -1.5354    2.0703    4.0390 C   0  0  0  0  0  0  0  0  0  0  0  0
   -1.5862    1.2381    4.7451 H   0  0  0  0  0  0  0  0  0  0  0  0
   -0.5253    2.4847    4.0493 H   0  0  0  0  0  0  0  0  0  0  0  0
   -2.5433    3.1527    4.4454 C   0  0  0  0  0  0  0  0  0  0  0  0
   -2.4823    3.9727    3.7225 H   0  0  0  0  0  0  0  0  0  0  0  0
   -3.5505    2.7291    4.3876 H   0  0  0  0  0  0  0  0  0  0  0  0
   -2.2781    3.6586    5.8159 N   0  3  0  0  0  0  0  0  0  0  0  0
   -1.3511    4.0614    5.8730 H   0  0  0  0  0  0  0  0  0  0  0  0
   -2.9514    4.3711    6.0688 H   0  0  0  0  0  0  0  0  0  0  0  0
   -2.3420    2.9048    6.4901 H   0  0  0  0  0  0  0  0  0  0  0  0
    0.0524   -1.0146    0.3585 C   0  0  0  0  0  0  0  0  0  0  0  0
   -0.1040   -2.2298    0.3482 O   0  0  0  0  0  0  0  0  0  0  0  0
    1.2014   -0.4225    0.0166 N   0  0  0  0  0  0  0  0  0  0  0  0
    1.2323    0.5835    0.0239 H   0  0  0  0  0  0  0  0  0  0  0  0
    2.3891   -1.1432   -0.4456 C   0  0  0  0  0  0  0  0  0  0  0  0
    2.1611   -1.6734   -1.3727 H   0  0  0  0  0  0  0  0  0  0  0  0
    3.2097   -0.4483   -0.6272 H   0  0  0  0  0  0  0  0  0  0  0  0
    2.6967   -1.8764    0.3032 H   0  0  0  0  0  0  0  0  0  0  0  0
  5  6  2  0  0  0  0
  5  7  1  0  0  0  0
  2  3  1  0  0  0  0
  2  4  1  0  0  0  0
  2  5  1  0  0  0  0
  1  2  1  0  0  0  0
 27 28  2  0  0  0  0
 27 29  1  0  0  0  0
 23 24  1  0  0  0  0
 23 25  1  0  0  0  0
 23 26  1  0  0  0  0
 20 21  1  0  0  0  0
 20 22  1  0  0  0  0
 20 23  1  0  0  0  0
 17 18  1  0  0  0  0
 17 19  1  0  0  0  0
 17 20  1  0  0  0  0
 14 15  1  0  0  0  0
 14 16  1  0  0  0  0
 14 17  1  0  0  0  0
 11 12  1  0  0  0  0
 11 13  1  0  0  0  0
 11 14  1  0  0  0  0
  9 10  1  0  0  0  0
  9 11  1  0  0  0  0
  9 27  1  0  0  0  0
  7  8  1  0  0  0  0
  7  9  1  0  0  0  0
 31 32  1  0  0  0  0
 31 33  1  0  0  0  0
 31 34  1  0  0  0  0
 29 30  1  0  0  0  0
 29 31  1  0  0  0  0
M  CHG  1  23   1
M  END
$$$$
default_name
  -OEChem-01062215323D

 34 33  0     1  0  0  0  0  0999 V2000
   -3.8899   -3.6747    1.6490 H   0  0  0  0  0  0  0  0  0  0  0  0
   -3.9109   -2.6717    1.2250 C   0  0  0  0  0  0  0  0  0  0  0  0
   -4.6009   -2.0517    1.7950 H   0  0  0  0  0  0  0  0  0  0  0  0
   -4.2309   -2.7237    0.1860 H   0  0  0  0  0  0  0  0  0  0  0  0
   -2.5229   -2.0787    1.2980 C   0  0  0  0  0  0  0  0  0  0  0  0
   -1.5999   -2.7227    1.7810 O   0  0  0  0  0  0  0  0  0  0  0  0
   -2.3659   -0.8447    0.8120 N   0  0  0  0  0  0  0  0  0  0  0  0
   -3.1749   -0.3807    0.4220 H   0  0  0  0  0  0  0  0  0  0  0  0
   -1.0919   -0.1077    0.8170 C   0  0  1  0  0  0  0  0  0  0  0  0
   -1.2553    0.8619    0.3429 H   0  0  0  0  0  0  0  0  0  0  0  0
   -0.6635    0.1195    2.2789 C   0  0  0  0  0  0  0  0  0  0  0  0
   -0.6745   -0.8404    2.7975 H   0  0  0  0  0  0  0  0  0  0  0  0
    0.3580    0.5045    2.2976 H   0  0  0  0  0  0  0  0  0  0  0  0
   -1.5835    1.0886    3.0370 C   0  0  0  0  0  0  0  0  0  0  0  0
   -1.6000    2.0534    2.5282 H   0  0  0  0  0  0  0  0  0  0  0  0
   -2.5957    0.6801    3.0594 H   0  0  0  0  0  0  0  0  0  0  0  0
   -1.0834    1.2861    4.4747 C   0  0  0  0  0  0  0  0  0  0  0  0
   -1.0538    0.3162    4.9768 H   0  0  0  0  0  0  0  0  0  0  0  0
   -0.0749    1.7034    4.4467 H   0  0  0  0  0  0  0  0  0  0  0  0
   -2.0150    2.2341    5.2404 C   0  0  0  0  0  0  0  0  0  0  0  0
   -2.0369    3.1960    4.7179 H   0  0  0  0  0  0  0  0  0  0  0  0
   -3.0270    1.8185    5.2200 H   0  0  0  0  0  0  0  0  0  0  0  0
   -1.5673    2.4242    6.6432 N   0  3  0  0  0  0  0  0  0  0  0  0
   -0.6352    2.8185    6.6685 H   0  0  0  0  0  0  0  0  0  0  0  0
   -2.1921    3.0514    7.1343 H   0  0  0  0  0  0  0  0  0  0  0  0
   -1.5537    1.5377    7.1338 H   0  0  0  0  0  0  0  0  0  0  0  0
   -0.0294   -0.8708    0.0227 C   0  0  0  0  0  0  0  0  0  0  0  0
   -0.3077   -1.9548   -0.4763 O   0  0  0  0  0  0  0  0  0  0  0  0
    1.1854   -0.3185   -0.0597 N   0  0  0  0  0  0  0  0  0  0  0  0
    1.3178    0.5900    0.3530 H   0  0  0  0  0  0  0  0  0  0  0  0
    2.3100   -0.9155   -0.7824 C   0  0  0  0  0  0  0  0  0  0  0  0
    2.0634   -1.0001   -1.8430 H   0  0  0  0  0  0  0  0  0  0  0  0
    3.2029   -0.2989   -0.6742 H   0  0  0  0  0  0  0  0  0  0  0  0
    2.5141   -1.9164   -0.3958 H   0  0  0  0  0  0  0  0  0  0  0  0
  5  6  2  0  0  0  0
  5  7  1  0  0  0  0
  2  3  1  0  0  0  0
  2  4  1  0  0  0  0
  2  5  1  0  0  0  0
  1  2  1  0  0  0  0
 27 28  2  0  0  0  0
 27 29  1  0  0  0  0
 23 24  1  0  0  0  0
 23 25  1  0  0  0  0
 23 26  1  0  0  0  0
 20 21  1  0  0  0  0
 20 22  1  0  0  0  0
 20 23  1  0  0  0  0
 17 18  1  0  0  0  0
 17 19  1  0  0  0  0
 17 20  1  0  0  0  0
 14 15  1  0  0  0  0
 14 16  1  0  0  0  0
 14 17  1  0  0  0  0
 11 12  1  0  0  0  0
 11 13  1  0  0  0  0
 11 14  1  0  0  0  0
  9 10  1  0  0  0  0
  9 11  1  0  0  0  0
  9 27  1  0  0  0  0
  7  8  1  0  0  0  0
  7  9  1  0  0  0  0
 31 32  1  0  0  0  0
 31 33  1  0  0  0  0
 31 34  1  0  0  0  0
 29 30  1  0  0  0  0
 29 31  1  0  0  0  0
M  CHG  1  23   1
M  END
$$$$
default_name
  -OEChem-01062215323D

 34 33  0     1  0  0  0  0  0999 V2000
   -3.8899   -3.6747    1.6490 H   0  0  0  0  0  0  0  0  0  0  0  0
   -3.9109   -2.6717    1.2250 C   0  0  0  0  0  0  0  0  0  0  0  0
   -4.6009   -2.0517    1.7950 H   0  0  0  0  0  0  0  0  0  0  0  0
   -4.2309   -2.7237    0.1860 H   0  0  0  0  0  0  0  0  0  0  0  0
   -2.5229   -2.0787    1.2980 C   0  0  0  0  0  0  0  0  0  0  0  0
   -1.5999   -2.7227    1.7810 O   0  0  0  0  0  0  0  0  0  0  0  0
   -2.3659   -0.8447    0.8120 N   0  0  0  0  0  0  0  0  0  0  0  0
   -3.1749   -0.3807    0.4220 H   0  0  0  0  0  0  0  0  0  0  0  0
   -1.0919   -0.1077    0.8170 C   0  0  1  0  0  0  0  0  0  0  0  0
   -1.2553    0.8619    0.3429 H   0  0  0  0  0  0  0  0  0  0  0  0
   -0.6635    0.1195    2.2789 C   0  0  0  0  0  0  0  0  0  0  0  0
   -0.6745   -0.8404    2.7975 H   0  0  0  0  0  0  0  0  0  0  0  0
    0.3580    0.5045    2.2976 H   0  0  0  0  0  0  0  0  0  0  0  0
   -1.5835    1.0886    3.0370 C   0  0  0  0  0  0  0  0  0  0  0  0
   -1.6000    2.0534    2.5282 H   0  0  0  0  0  0  0  0  0  0  0  0
   -2.5957    0.6801    3.0594 H   0  0  0  0  0  0  0  0  0  0  0  0
   -1.0834    1.2861    4.4747 C   0  0  0  0  0  0  0  0  0  0  0  0
   -1.0538    0.3162    4.9768 H   0  0  0  0  0  0  0  0  0  0  0  0
   -0.0749    1.7034    4.4467 H   0  0  0  0  0  0  0  0  0  0  0  0
   -2.0150    2.2341    5.2404 C   0  0  0  0  0  0  0  0  0  0  0  0
   -2.0369    3.1960    4.7179 H   0  0  0  0  0  0  0  0  0  0  0  0
   -3.0270    1.8185    5.2200 H   0  0  0  0  0  0  0  0  0  0  0  0
   -1.5673    2.4242    6.6432 N   0  3  0  0  0  0  0  0  0  0  0  0
   -0.6352    2.8185    6.6685 H   0  0  0  0  0  0  0  0  0  0  0  0
   -2.1921    3.0514    7.1343 H   0  0  0  0  0  0  0  0  0  0  0  0
   -1.5537    1.5377    7.1338 H   0  0  0  0  0  0  0  0  0  0  0  0
   -0.0294   -0.8708    0.0227 C   0  0  0  0  0  0  0  0  0  0  0  0
   -0.3651   -1.8011   -0.7007 O   0  0  0  0  0  0  0  0  0  0  0  0
    1.2433   -0.4960    0.1884 N   0  0  0  0  0  0  0  0  0  0  0  0
    1.4264    0.2993    0.7775 H   0  0  0  0  0  0  0  0  0  0  0  0
    2.3770   -1.1186   -0.4976 C   0  0  0  0  0  0  0  0  0  0  0  0
    2.2744   -0.9838   -1.5765 H   0  0  0  0  0  0  0  0  0  0  0  0
    3.3145   -0.6667   -0.1715 H   0  0  0  0  0  0  0  0  0  0  0  0
    2.4003   -2.1897   -0.2855 H   0  0  0  0  0  0  0  0  0  0  0  0
  5  6  2  0  0  0  0
  5  7  1  0  0  0  0
  2  3  1  0  0  0  0
  2  4  1  0  0  0  0
  2  5  1  0  0  0  0
  1  2  1  0  0  0  0
 27 28  2  0  0  0  0
 27 29  1  0  0  0  0
 23 24  1  0  0  0  0
 23 25  1  0  0  0  0
 23 26  1  0  0  0  0
 20 21  1  0  0  0  0
 20 22  1  0  0  0  0
 20 23  1  0  0  0  0
 17 18  1  0  0  0  0
 17 19  1  0  0  0  0
 17 20  1  0  0  0  0
 14 15  1  0  0  0  0
 14 16  1  0  0  0  0
 14 17  1  0  0  0  0
 11 12  1  0  0  0  0
 11 13  1  0  0  0  0
 11 14  1  0  0  0  0
  9 10  1  0  0  0  0
  9 11  1  0  0  0  0
  9 27  1  0  0  0  0
  7  8  1  0  0  0  0
  7  9  1  0  0  0  0
 31 32  1  0  0  0  0
 31 33  1  0  0  0  0
 31 34  1  0  0  0  0
 29 30  1  0  0  0  0
 29 31  1  0  0  0  0
M  CHG  1  23   1
M  END
$$$$
default_name
  -OEChem-01062215323D

 34 33  0     1  0  0  0  0  0999 V2000
   -3.8899   -3.6747    1.6490 H   0  0  0  0  0  0  0  0  0  0  0  0
   -3.9109   -2.6717    1.2250 C   0  0  0  0  0  0  0  0  0  0  0  0
   -4.6009   -2.0517    1.7950 H   0  0  0  0  0  0  0  0  0  0  0  0
   -4.2309   -2.7237    0.1860 H   0  0  0  0  0  0  0  0  0  0  0  0
   -2.5229   -2.0787    1.2980 C   0  0  0  0  0  0  0  0  0  0  0  0
   -1.5999   -2.7227    1.7810 O   0  0  0  0  0  0  0  0  0  0  0  0
   -2.3659   -0.8447    0.8120 N   0  0  0  0  0  0  0  0  0  0  0  0
   -3.1749   -0.3807    0.4220 H   0  0  0  0  0  0  0  0  0  0  0  0
   -1.0919   -0.1077    0.8170 C   0  0  1  0  0  0  0  0  0  0  0  0
   -1.2553    0.8619    0.3429 H   0  0  0  0  0  0  0  0  0  0  0  0
   -0.6635    0.1195    2.2789 C   0  0  0  0  0  0  0  0  0  0  0  0
   -0.6745   -0.8404    2.7975 H   0  0  0  0  0  0  0  0  0  0  0  0
    0.3580    0.5045    2.2976 H   0  0  0  0  0  0  0  0  0  0  0  0
   -1.5835    1.0886    3.0370 C   0  0  0  0  0  0  0  0  0  0  0  0
   -1.6000    2.0534    2.5282 H   0  0  0  0  0  0  0  0  0  0  0  0
   -2.5957    0.6801    3.0594 H   0  0  0  0  0  0  0  0  0  0  0  0
   -1.0834    1.2861    4.4747 C   0  0  0  0  0  0  0  0  0  0  0  0
   -1.0538    0.3162    4.9768 H   0  0  0  0  0  0  0  0  0  0  0  0
   -0.0749    1.7034    4.4467 H   0  0  0  0  0  0  0  0  0  0  0  0
   -2.0150    2.2341    5.2404 C   0  0  0  0  0  0  0  0  0  0  0  0
   -2.0369    3.1960    4.7179 H   0  0  0  0  0  0  0  0  0  0  0  0
   -3.0270    1.8185    5.2200 H   0  0  0  0  0  0  0  0  0  0  0  0
   -1.5673    2.4242    6.6432 N   0  3  0  0  0  0  0  0  0  0  0  0
   -0.6352    2.8185    6.6685 H   0  0  0  0  0  0  0  0  0  0  0  0
   -2.1921    3.0514    7.1343 H   0  0  0  0  0  0  0  0  0  0  0  0
   -1.5537    1.5377    7.1338 H   0  0  0  0  0  0  0  0  0  0  0  0
   -0.0294   -0.8708    0.0227 C   0  0  0  0  0  0  0  0  0  0  0  0
   -0.3709   -1.6046   -0.8973 O   0  0  0  0  0  0  0  0  0  0  0  0
    1.2433   -0.7199    0.4035 N   0  0  0  0  0  0  0  0  0  0  0  0
    1.4374   -0.0724    1.1493 H   0  0  0  0  0  0  0  0  0  0  0  0
    2.3777   -1.3750   -0.2504 C   0  0  0  0  0  0  0  0  0  0  0  0
    2.4459   -1.0442   -1.2890 H   0  0  0  0  0  0  0  0  0  0  0  0
    3.3079   -1.1273    0.2623 H   0  0  0  0  0  0  0  0  0  0  0  0
    2.2394   -2.4583   -0.2427 H   0  0  0  0  0  0  0  0  0  0  0  0
  5  6  2  0  0  0  0
  5  7  1  0  0  0  0
  2  3  1  0  0  0  0
  2  4  1  0  0  0  0
  2  5  1  0  0  0  0
  1  2  1  0  0  0  0
 27 28  2  0  0  0  0
 27 29  1  0  0  0  0
 23 24  1  0  0  0  0
 23 25  1  0  0  0  0
 23 26  1  0  0  0  0
 20 21  1  0  0  0  0
 20 22  1  0  0  0  0
 20 23  1  0  0  0  0
 17 18  1  0  0  0  0
 17 19  1  0  0  0  0
 17 20  1  0  0  0  0
 14 15  1  0  0  0  0
 14 16  1  0  0  0  0
 14 17  1  0  0  0  0
 11 12  1  0  0  0  0
 11 13  1  0  0  0  0
 11 14  1  0  0  0  0
  9 10  1  0  0  0  0
  9 11  1  0  0  0  0
  9 27  1  0  0  0  0
  7  8  1  0  0  0  0
  7  9  1  0  0  0  0
 31 32  1  0  0  0  0
 31 33  1  0  0  0  0
 31 34  1  0  0  0  0
 29 30  1  0  0  0  0
 29 31  1  0  0  0  0
M  CHG  1  23   1
M  END
$$$$
default_name
  -OEChem-01062215323D

 34 33  0     1  0  0  0  0  0999 V2000
   -3.8899   -3.6747    1.6490 H   0  0  0  0  0  0  0  0  0  0  0  0
   -3.9109   -2.6717    1.2250 C   0  0  0  0  0  0  0  0  0  0  0  0
   -4.6009   -2.0517    1.7950 H   0  0  0  0  0  0  0  0  0  0  0  0
   -4.2309   -2.7237    0.1860 H   0  0  0  0  0  0  0  0  0  0  0  0
   -2.5229   -2.0787    1.2980 C   0  0  0  0  0  0  0  0  0  0  0  0
   -1.5999   -2.7227    1.7810 O   0  0  0  0  0  0  0  0  0  0  0  0
   -2.3659   -0.8447    0.8120 N   0  0  0  0  0  0  0  0  0  0  0  0
   -3.1749   -0.3807    0.4220 H   0  0  0  0  0  0  0  0  0  0  0  0
   -1.0919   -0.1077    0.8170 C   0  0  1  0  0  0  0  0  0  0  0  0
   -1.2553    0.8619    0.3429 H   0  0  0  0  0  0  0  0  0  0  0  0
   -0.6635    0.1195    2.2789 C   0  0  0  0  0  0  0  0  0  0  0  0
   -0.6745   -0.8404    2.7975 H   0  0  0  0  0  0  0  0  0  0  0  0
    0.3580    0.5045    2.2976 H   0  0  0  0  0  0  0  0  0  0  0  0
   -1.5835    1.0886    3.0370 C   0  0  0  0  0  0  0  0  0  0  0  0
   -1.6000    2.0534    2.5282 H   0  0  0  0  0  0  0  0  0  0  0  0
   -2.5957    0.6801    3.0594 H   0  0  0  0  0  0  0  0  0  0  0  0
   -1.0834    1.2861    4.4747 C   0  0  0  0  0  0  0  0  0  0  0  0
   -1.0538    0.3162    4.9768 H   0  0  0  0  0  0  0  0  0  0  0  0
   -0.0749    1.7034    4.4467 H   0  0  0  0  0  0  0  0  0  0  0  0
   -2.0150    2.2341    5.2404 C   0  0  0  0  0  0  0  0  0  0  0  0
   -2.0369    3.1960    4.7179 H   0  0  0  0  0  0  0  0  0  0  0  0
   -3.0270    1.8185    5.2200 H   0  0  0  0  0  0  0  0  0  0  0  0
   -1.5673    2.4242    6.6432 N   0  3  0  0  0  0  0  0  0  0  0  0
   -0.6352    2.8185    6.6685 H   0  0  0  0  0  0  0  0  0  0  0  0
   -2.1921    3.0514    7.1343 H   0  0  0  0  0  0  0  0  0  0  0  0
   -1.5537    1.5377    7.1338 H   0  0  0  0  0  0  0  0  0  0  0  0
   -0.0294   -0.8708    0.0227 C   0  0  0  0  0  0  0  0  0  0  0  0
   -0.3248   -1.3787   -1.0526 O   0  0  0  0  0  0  0  0  0  0  0  0
    1.1855   -0.9748    0.5711 N   0  0  0  0  0  0  0  0  0  0  0  0
    1.3501   -0.4996    1.4431 H   0  0  0  0  0  0  0  0  0  0  0  0
    2.3121   -1.6671   -0.0575 C   0  0  0  0  0  0  0  0  0  0  0  0
    2.5663   -1.1773   -0.9999 H   0  0  0  0  0  0  0  0  0  0  0  0
    3.1837   -1.6493    0.5977 H   0  0  0  0  0  0  0  0  0  0  0  0
    2.0423   -2.7038   -0.2704 H   0  0  0  0  0  0  0  0  0  0  0  0
  5  6  2  0  0  0  0
  5  7  1  0  0  0  0
  2  3  1  0  0  0  0
  2  4  1  0  0  0  0
  2  5  1  0  0  0  0
  1  2  1  0  0  0  0
 27 28  2  0  0  0  0
 27 29  1  0  0  0  0
 23 24  1  0  0  0  0
 23 25  1  0  0  0  0
 23 26  1  0  0  0  0
 20 21  1  0  0  0  0
 20 22  1  0  0  0  0
 20 23  1  0  0  0  0
 17 18  1  0  0  0  0
 17 19  1  0  0  0  0
 17 20  1  0  0  0  0
 14 15  1  0  0  0  0
 14 16  1  0  0  0  0
 14 17  1  0  0  0  0
 11 12  1  0  0  0  0
 11 13  1  0  0  0  0
 11 14  1  0  0  0  0
  9 10  1  0  0  0  0
  9 11  1  0  0  0  0
  9 27  1  0  0  0  0
  7  8  1  0  0  0  0
  7  9  1  0  0  0  0
 31 32  1  0  0  0  0
 31 33  1  0  0  0  0
 31 34  1  0  0  0  0
 29 30  1  0  0  0  0
 29 31  1  0  0  0  0
M  CHG  1  23   1
M  END
$$$$
default_name
  -OEChem-01062215323D

 34 33  0     1  0  0  0  0  0999 V2000
   -3.8899   -3.6747    1.6490 H   0  0  0  0  0  0  0  0  0  0  0  0
   -3.9109   -2.6717    1.2250 C   0  0  0  0  0  0  0  0  0  0  0  0
   -4.6009   -2.0517    1.7950 H   0  0  0  0  0  0  0  0  0  0  0  0
   -4.2309   -2.7237    0.1860 H   0  0  0  0  0  0  0  0  0  0  0  0
   -2.5229   -2.0787    1.2980 C   0  0  0  0  0  0  0  0  0  0  0  0
   -1.5999   -2.7227    1.7810 O   0  0  0  0  0  0  0  0  0  0  0  0
   -2.3659   -0.8447    0.8120 N   0  0  0  0  0  0  0  0  0  0  0  0
   -3.1749   -0.3807    0.4220 H   0  0  0  0  0  0  0  0  0  0  0  0
   -1.0919   -0.1077    0.8170 C   0  0  1  0  0  0  0  0  0  0  0  0
   -1.2553    0.8619    0.3429 H   0  0  0  0  0  0  0  0  0  0  0  0
   -0.6635    0.1195    2.2789 C   0  0  0  0  0  0  0  0  0  0  0  0
   -0.6745   -0.8404    2.7975 H   0  0  0  0  0  0  0  0  0  0  0  0
    0.3580    0.5045    2.2976 H   0  0  0  0  0  0  0  0  0  0  0  0
   -1.5835    1.0886    3.0370 C   0  0  0  0  0  0  0  0  0  0  0  0
   -1.6000    2.0534    2.5282 H   0  0  0  0  0  0  0  0  0  0  0  0
   -2.5957    0.6801    3.0594 H   0  0  0  0  0  0  0  0  0  0  0  0
   -1.0834    1.2861    4.4747 C   0  0  0  0  0  0  0  0  0  0  0  0
   -1.0538    0.3162    4.9768 H   0  0  0  0  0  0  0  0  0  0  0  0
   -0.0749    1.7034    4.4467 H   0  0  0  0  0  0  0  0  0  0  0  0
   -2.0150    2.2341    5.2404 C   0  0  0  0  0  0  0  0  0  0  0  0
   -2.0369    3.1960    4.7179 H   0  0  0  0  0  0  0  0  0  0  0  0
   -3.0270    1.8185    5.2200 H   0  0  0  0  0  0  0  0  0  0  0  0
   -1.5673    2.4242    6.6432 N   0  3  0  0  0  0  0  0  0  0  0  0
   -0.6352    2.8185    6.6685 H   0  0  0  0  0  0  0  0  0  0  0  0
   -2.1921    3.0514    7.1343 H   0  0  0  0  0  0  0  0  0  0  0  0
   -1.5537    1.5377    7.1338 H   0  0  0  0  0  0  0  0  0  0  0  0
   -0.0294   -0.8708    0.0227 C   0  0  0  0  0  0  0  0  0  0  0  0
   -0.2298   -1.1388   -1.1561 O   0  0  0  0  0  0  0  0  0  0  0  0
    1.0739   -1.2434    0.6797 N   0  0  0  0  0  0  0  0  0  0  0  0
    1.1705   -0.9534    1.6388 H   0  0  0  0  0  0  0  0  0  0  0  0
    2.1845   -1.9751    0.0678 C   0  0  0  0  0  0  0  0  0  0  0  0
    2.6275   -1.3740   -0.7291 H   0  0  0  0  0  0  0  0  0  0  0  0
    2.9504   -2.1972    0.8118 H   0  0  0  0  0  0  0  0  0  0  0  0
    1.8226   -2.9095   -0.3667 H   0  0  0  0  0  0  0  0  0  0  0  0
  5  6  2  0  0  0  0
  5  7  1  0  0  0  0
  2  3  1  0  0  0  0
  2  4  1  0  0  0  0
  2  5  1  0  0  0  0
  1  2  1  0  0  0  0
 27 28  2  0  0  0  0
 27 29  1  0  0  0  0
 23 24  1  0  0  0  0
 23 25  1  0  0  0  0
 23 26  1  0  0  0  0
 20 21  1  0  0  0  0
 20 22  1  0  0  0  0
 20 23  1  0  0  0  0
 17 18  1  0  0  0  0
 17 19  1  0  0  0  0
 17 20  1  0  0  0  0
 14 15  1  0  0  0  0
 14 16  1  0  0  0  0
 14 17  1  0  0  0  0
 11 12  1  0  0  0  0
 11 13  1  0  0  0  0
 11 14  1  0  0  0  0
  9 10  1  0  0  0  0
  9 11  1  0  0  0  0
  9 27  1  0  0  0  0
  7  8  1  0  0  0  0
  7  9  1  0  0  0  0
 31 32  1  0  0  0  0
 31 33  1  0  0  0  0
 31 34  1  0  0  0  0
 29 30  1  0  0  0  0
 29 31  1  0  0  0  0
M  CHG  1  23   1
M  END
$$$$
default_name
  -OEChem-01062215323D

 34 33  0     1  0  0  0  0  0999 V2000
   -3.8899   -3.6747    1.6490 H   0  0  0  0  0  0  0  0  0  0  0  0
   -3.9109   -2.6717    1.2250 C   0  0  0  0  0  0  0  0  0  0  0  0
   -4.6009   -2.0517    1.7950 H   0  0  0  0  0  0  0  0  0  0  0  0
   -4.2309   -2.7237    0.1860 H   0  0  0  0  0  0  0  0  0  0  0  0
   -2.5229   -2.0787    1.2980 C   0  0  0  0  0  0  0  0  0  0  0  0
   -1.5999   -2.7227    1.7810 O   0  0  0  0  0  0  0  0  0  0  0  0
   -2.3659   -0.8447    0.8120 N   0  0  0  0  0  0  0  0  0  0  0  0
   -3.1749   -0.3807    0.4220 H   0  0  0  0  0  0  0  0  0  0  0  0
   -1.0919   -0.1077    0.8170 C   0  0  1  0  0  0  0  0  0  0  0  0
   -1.2553    0.8619    0.3429 H   0  0  0  0  0  0  0  0  0  0  0  0
   -0.6635    0.1195    2.2789 C   0  0  0  0  0  0  0  0  0  0  0  0
   -0.6745   -0.8404    2.7975 H   0  0  0  0  0  0  0  0  0  0  0  0
    0.3580    0.5045    2.2976 H   0  0  0  0  0  0  0  0  0  0  0  0
   -1.5835    1.0886    3.0370 C   0  0  0  0  0  0  0  0  0  0  0  0
   -1.6000    2.0534    2.5282 H   0  0  0  0  0  0  0  0  0  0  0  0
   -2.5957    0.6801    3.0594 H   0  0  0  0  0  0  0  0  0  0  0  0
   -1.0834    1.2861    4.4747 C   0  0  0  0  0  0  0  0  0  0  0  0
   -1.0538    0.3162    4.9768 H   0  0  0  0  0  0  0  0  0  0  0  0
   -0.0749    1.7034    4.4467 H   0  0  0  0  0  0  0  0  0  0  0  0
   -2.0150    2.2341    5.2404 C   0  0  0  0  0  0  0  0  0  0  0  0
   -2.0369    3.1960    4.7179 H   0  0  0  0  0  0  0  0  0  0  0  0
   -3.0270    1.8185    5.2200 H   0  0  0  0  0  0  0  0  0  0  0  0
   -1.5673    2.4242    6.6432 N   0  3  0  0  0  0  0  0  0  0  0  0
   -0.6352    2.8185    6.6685 H   0  0  0  0  0  0  0  0  0  0  0  0
   -2.1921    3.0514    7.1343 H   0  0  0  0  0  0  0  0  0  0  0  0
   -1.5537    1.5377    7.1338 H   0  0  0  0  0  0  0  0  0  0  0  0
   -0.0294   -0.8708    0.0227 C   0  0  0  0  0  0  0  0  0  0  0  0
   -0.0925   -0.9012   -1.2006 O   0  0  0  0  0  0  0  0  0  0  0  0
    0.9159   -1.5073    0.7220 N   0  0  0  0  0  0  0  0  0  0  0  0
    0.9108   -1.4028    1.7231 H   0  0  0  0  0  0  0  0  0  0  0  0
    2.0038   -2.2781    0.1171 C   0  0  0  0  0  0  0  0  0  0  0  0
    2.6252   -1.6209   -0.4950 H   0  0  0  0  0  0  0  0  0  0  0  0
    2.6237   -2.7334    0.8901 H   0  0  0  0  0  0  0  0  0  0  0  0
    1.5952   -3.0614   -0.5251 H   0  0  0  0  0  0  0  0  0  0  0  0
  5  6  2  0  0  0  0
  5  7  1  0  0  0  0
  2  3  1  0  0  0  0
  2  4  1  0  0  0  0
  2  5  1  0  0  0  0
  1  2  1  0  0  0  0
 27 28  2  0  0  0  0
 27 29  1  0  0  0  0
 23 24  1  0  0  0  0
 23 25  1  0  0  0  0
 23 26  1  0  0  0  0
 20 21  1  0  0  0  0
 20 22  1  0  0  0  0
 20 23  1  0  0  0  0
 17 18  1  0  0  0  0
 17 19  1  0  0  0  0
 17 20  1  0  0  0  0
 14 15  1  0  0  0  0
 14 16  1  0  0  0  0
 14 17  1  0  0  0  0
 11 12  1  0  0  0  0
 11 13  1  0  0  0  0
 11 14  1  0  0  0  0
  9 10  1  0  0  0  0
  9 11  1  0  0  0  0
  9 27  1  0  0  0  0
  7  8  1  0  0  0  0
  7  9  1  0  0  0  0
 31 32  1  0  0  0  0
 31 33  1  0  0  0  0
 31 34  1  0  0  0  0
 29 30  1  0  0  0  0
 29 31  1  0  0  0  0
M  CHG  1  23   1
M  END
$$$$
default_name
  -OEChem-01062215323D

 34 33  0     1  0  0  0  0  0999 V2000
   -3.8899   -3.6747    1.6490 H   0  0  0  0  0  0  0  0  0  0  0  0
   -3.9109   -2.6717    1.2250 C   0  0  0  0  0  0  0  0  0  0  0  0
   -4.6009   -2.0517    1.7950 H   0  0  0  0  0  0  0  0  0  0  0  0
   -4.2309   -2.7237    0.1860 H   0  0  0  0  0  0  0  0  0  0  0  0
   -2.5229   -2.0787    1.2980 C   0  0  0  0  0  0  0  0  0  0  0  0
   -1.5999   -2.7227    1.7810 O   0  0  0  0  0  0  0  0  0  0  0  0
   -2.3659   -0.8447    0.8120 N   0  0  0  0  0  0  0  0  0  0  0  0
   -3.1749   -0.3807    0.4220 H   0  0  0  0  0  0  0  0  0  0  0  0
   -1.0919   -0.1077    0.8170 C   0  0  1  0  0  0  0  0  0  0  0  0
   -1.2553    0.8619    0.3429 H   0  0  0  0  0  0  0  0  0  0  0  0
   -0.6635    0.1195    2.2789 C   0  0  0  0  0  0  0  0  0  0  0  0
   -0.6745   -0.8404    2.7975 H   0  0  0  0  0  0  0  0  0  0  0  0
    0.3580    0.5045    2.2976 H   0  0  0  0  0  0  0  0  0  0  0  0
   -1.5835    1.0886    3.0370 C   0  0  0  0  0  0  0  0  0  0  0  0
   -1.6000    2.0534    2.5282 H   0  0  0  0  0  0  0  0  0  0  0  0
   -2.5957    0.6801    3.0594 H   0  0  0  0  0  0  0  0  0  0  0  0
   -1.0834    1.2861    4.4747 C   0  0  0  0  0  0  0  0  0  0  0  0
   -1.0538    0.3162    4.9768 H   0  0  0  0  0  0  0  0  0  0  0  0
   -0.0749    1.7034    4.4467 H   0  0  0  0  0  0  0  0  0  0  0  0
   -2.0150    2.2341    5.2404 C   0  0  0  0  0  0  0  0  0  0  0  0
   -2.0369    3.1960    4.7179 H   0  0  0  0  0  0  0  0  0  0  0  0
   -3.0270    1.8185    5.2200 H   0  0  0  0  0  0  0  0  0  0  0  0
   -1.5673    2.4242    6.6432 N   0  3  0  0  0  0  0  0  0  0  0  0
   -0.6352    2.8185    6.6685 H   0  0  0  0  0  0  0  0  0  0  0  0
   -2.1921    3.0514    7.1343 H   0  0  0  0  0  0  0  0  0  0  0  0
   -1.5537    1.5377    7.1338 H   0  0  0  0  0  0  0  0  0  0  0  0
   -0.0294   -0.8708    0.0227 C   0  0  0  0  0  0  0  0  0  0  0  0
    0.0778   -0.6822   -1.1833 O   0  0  0  0  0  0  0  0  0  0  0  0
    0.7224   -1.7486    0.6950 N   0  0  0  0  0  0  0  0  0  0  0  0
    0.5887   -1.8171    1.6903 H   0  0  0  0  0  0  0  0  0  0  0  0
    1.7821   -2.5552    0.0869 C   0  0  0  0  0  0  0  0  0  0  0  0
    2.5596   -1.9011   -0.3135 H   0  0  0  0  0  0  0  0  0  0  0  0
    2.2261   -3.2216    0.8272 H   0  0  0  0  0  0  0  0  0  0  0  0
    1.3755   -3.1491   -0.7347 H   0  0  0  0  0  0  0  0  0  0  0  0
  5  6  2  0  0  0  0
  5  7  1  0  0  0  0
  2  3  1  0  0  0  0
  2  4  1  0  0  0  0
  2  5  1  0  0  0  0
  1  2  1  0  0  0  0
 27 28  2  0  0  0  0
 27 29  1  0  0  0  0
 23 24  1  0  0  0  0
 23 25  1  0  0  0  0
 23 26  1  0  0  0  0
 20 21  1  0  0  0  0
 20 22  1  0  0  0  0
 20 23  1  0  0  0  0
 17 18  1  0  0  0  0
 17 19  1  0  0  0  0
 17 20  1  0  0  0  0
 14 15  1  0  0  0  0
 14 16  1  0  0  0  0
 14 17  1  0  0  0  0
 11 12  1  0  0  0  0
 11 13  1  0  0  0  0
 11 14  1  0  0  0  0
  9 10  1  0  0  0  0
  9 11  1  0  0  0  0
  9 27  1  0  0  0  0
  7  8  1  0  0  0  0
  7  9  1  0  0  0  0
 31 32  1  0  0  0  0
 31 33  1  0  0  0  0
 31 34  1  0  0  0  0
 29 30  1  0  0  0  0
 29 31  1  0  0  0  0
M  CHG  1  23   1
M  END
$$$$
default_name
  -OEChem-01062215323D

 34 33  0     1  0  0  0  0  0999 V2000
   -3.8899   -3.6747    1.6490 H   0  0  0  0  0  0  0  0  0  0  0  0
   -3.9109   -2.6717    1.2250 C   0  0  0  0  0  0  0  0  0  0  0  0
   -4.6009   -2.0517    1.7950 H   0  0  0  0  0  0  0  0  0  0  0  0
   -4.2309   -2.7237    0.1860 H   0  0  0  0  0  0  0  0  0  0  0  0
   -2.5229   -2.0787    1.2980 C   0  0  0  0  0  0  0  0  0  0  0  0
   -1.5999   -2.7227    1.7810 O   0  0  0  0  0  0  0  0  0  0  0  0
   -2.3659   -0.8447    0.8120 N   0  0  0  0  0  0  0  0  0  0  0  0
   -3.1749   -0.3807    0.4220 H   0  0  0  0  0  0  0  0  0  0  0  0
   -1.0919   -0.1077    0.8170 C   0  0  1  0  0  0  0  0  0  0  0  0
   -1.2553    0.8619    0.3429 H   0  0  0  0  0  0  0  0  0  0  0  0
   -0.6635    0.1195    2.2789 C   0  0  0  0  0  0  0  0  0  0  0  0
   -0.6745   -0.8404    2.7975 H   0  0  0  0  0  0  0  0  0  0  0  0
    0.3580    0.5045    2.2976 H   0  0  0  0  0  0  0  0  0  0  0  0
   -1.5835    1.0886    3.0370 C   0  0  0  0  0  0  0  0  0  0  0  0
   -1.6000    2.0534    2.5282 H   0  0  0  0  0  0  0  0  0  0  0  0
   -2.5957    0.6801    3.0594 H   0  0  0  0  0  0  0  0  0  0  0  0
   -1.0834    1.2861    4.4747 C   0  0  0  0  0  0  0  0  0  0  0  0
   -1.0538    0.3162    4.9768 H   0  0  0  0  0  0  0  0  0  0  0  0
   -0.0749    1.7034    4.4467 H   0  0  0  0  0  0  0  0  0  0  0  0
   -2.0150    2.2341    5.2404 C   0  0  0  0  0  0  0  0  0  0  0  0
   -2.0369    3.1960    4.7179 H   0  0  0  0  0  0  0  0  0  0  0  0
   -3.0270    1.8185    5.2200 H   0  0  0  0  0  0  0  0  0  0  0  0
   -1.5673    2.4242    6.6432 N   0  3  0  0  0  0  0  0  0  0  0  0
   -0.6352    2.8185    6.6685 H   0  0  0  0  0  0  0  0  0  0  0  0
   -2.1921    3.0514    7.1343 H   0  0  0  0  0  0  0  0  0  0  0  0
   -1.5537    1.5377    7.1338 H   0  0  0  0  0  0  0  0  0  0  0  0
   -0.0294   -0.8708    0.0227 C   0  0  0  0  0  0  0  0  0  0  0  0
    0.2694   -0.4966   -1.1052 O   0  0  0  0  0  0  0  0  0  0  0  0
    0.5066   -1.9509    0.6006 N   0  0  0  0  0  0  0  0  0  0  0  0
    0.2262   -2.1681    1.5425 H   0  0  0  0  0  0  0  0  0  0  0  0
    1.5347   -2.7878   -0.0207 C   0  0  0  0  0  0  0  0  0  0  0  0
    2.4352   -2.1956   -0.1970 H   0  0  0  0  0  0  0  0  0  0  0  0
    1.7846   -3.6285    0.6274 H   0  0  0  0  0  0  0  0  0  0  0  0
    1.1786   -3.1666   -0.9812 H   0  0  0  0  0  0  0  0  0  0  0  0
  5  6  2  0  0  0  0
  5  7  1  0  0  0  0
  2  3  1  0  0  0  0
  2  4  1  0  0  0  0
  2  5  1  0  0  0  0
  1  2  1  0  0  0  0
 27 28  2  0  0  0  0
 27 29  1  0  0  0  0
 23 24  1  0  0  0  0
 23 25  1  0  0  0  0
 23 26  1  0  0  0  0
 20 21  1  0  0  0  0
 20 22  1  0  0  0  0
 20 23  1  0  0  0  0
 17 18  1  0  0  0  0
 17 19  1  0  0  0  0
 17 20  1  0  0  0  0
 14 15  1  0  0  0  0
 14 16  1  0  0  0  0
 14 17  1  0  0  0  0
 11 12  1  0  0  0  0
 11 13  1  0  0  0  0
 11 14  1  0  0  0  0
  9 10  1  0  0  0  0
  9 11  1  0  0  0  0
  9 27  1  0  0  0  0
  7  8  1  0  0  0  0
  7  9  1  0  0  0  0
 31 32  1  0  0  0  0
 31 33  1  0  0  0  0
 31 34  1  0  0  0  0
 29 30  1  0  0  0  0
 29 31  1  0  0  0  0
M  CHG  1  23   1
M  END
$$$$
default_name
  -OEChem-01062215323D

 34 33  0     1  0  0  0  0  0999 V2000
   -3.8899   -3.6747    1.6490 H   0  0  0  0  0  0  0  0  0  0  0  0
   -3.9109   -2.6717    1.2250 C   0  0  0  0  0  0  0  0  0  0  0  0
   -4.6009   -2.0517    1.7950 H   0  0  0  0  0  0  0  0  0  0  0  0
   -4.2309   -2.7237    0.1860 H   0  0  0  0  0  0  0  0  0  0  0  0
   -2.5229   -2.0787    1.2980 C   0  0  0  0  0  0  0  0  0  0  0  0
   -1.5999   -2.7227    1.7810 O   0  0  0  0  0  0  0  0  0  0  0  0
   -2.3659   -0.8447    0.8120 N   0  0  0  0  0  0  0  0  0  0  0  0
   -3.1749   -0.3807    0.4220 H   0  0  0  0  0  0  0  0  0  0  0  0
   -1.0919   -0.1077    0.8170 C   0  0  1  0  0  0  0  0  0  0  0  0
   -1.2553    0.8619    0.3429 H   0  0  0  0  0  0  0  0  0  0  0  0
   -0.6635    0.1195    2.2789 C   0  0  0  0  0  0  0  0  0  0  0  0
   -0.6745   -0.8404    2.7975 H   0  0  0  0  0  0  0  0  0  0  0  0
    0.3580    0.5045    2.2976 H   0  0  0  0  0  0  0  0  0  0  0  0
   -1.5835    1.0886    3.0370 C   0  0  0  0  0  0  0  0  0  0  0  0
   -1.6000    2.0534    2.5282 H   0  0  0  0  0  0  0  0  0  0  0  0
   -2.5957    0.6801    3.0594 H   0  0  0  0  0  0  0  0  0  0  0  0
   -1.0834    1.2861    4.4747 C   0  0  0  0  0  0  0  0  0  0  0  0
   -1.0538    0.3162    4.9768 H   0  0  0  0  0  0  0  0  0  0  0  0
   -0.0749    1.7034    4.4467 H   0  0  0  0  0  0  0  0  0  0  0  0
   -2.0150    2.2341    5.2404 C   0  0  0  0  0  0  0  0  0  0  0  0
   -2.0369    3.1960    4.7179 H   0  0  0  0  0  0  0  0  0  0  0  0
   -3.0270    1.8185    5.2200 H   0  0  0  0  0  0  0  0  0  0  0  0
   -1.5673    2.4242    6.6432 N   0  3  0  0  0  0  0  0  0  0  0  0
   -0.6352    2.8185    6.6685 H   0  0  0  0  0  0  0  0  0  0  0  0
   -2.1921    3.0514    7.1343 H   0  0  0  0  0  0  0  0  0  0  0  0
   -1.5537    1.5377    7.1338 H   0  0  0  0  0  0  0  0  0  0  0  0
   -0.0294   -0.8708    0.0227 C   0  0  0  0  0  0  0  0  0  0  0  0
    0.4694   -0.3571   -0.9717 O   0  0  0  0  0  0  0  0  0  0  0  0
    0.2831   -2.1003    0.4452 N   0  0  0  0  0  0  0  0  0  0  0  0
   -0.1521   -2.4319    1.2900 H   0  0  0  0  0  0  0  0  0  0  0  0
    1.2784   -2.9598   -0.1984 C   0  0  0  0  0  0  0  0  0  0  0  0
    2.2605   -2.4842   -0.1535 H   0  0  0  0  0  0  0  0  0  0  0  0
    1.3292   -3.9263    0.3044 H   0  0  0  0  0  0  0  0  0  0  0  0
    1.0179   -3.1128   -1.2479 H   0  0  0  0  0  0  0  0  0  0  0  0
  5  6  2  0  0  0  0
  5  7  1  0  0  0  0
  2  3  1  0  0  0  0
  2  4  1  0  0  0  0
  2  5  1  0  0  0  0
  1  2  1  0  0  0  0
 27 28  2  0  0  0  0
 27 29  1  0  0  0  0
 23 24  1  0  0  0  0
 23 25  1  0  0  0  0
 23 26  1  0  0  0  0
 20 21  1  0  0  0  0
 20 22  1  0  0  0  0
 20 23  1  0  0  0  0
 17 18  1  0  0  0  0
 17 19  1  0  0  0  0
 17 20  1  0  0  0  0
 14 15  1  0  0  0  0
 14 16  1  0  0  0  0
 14 17  1  0  0  0  0
 11 12  1  0  0  0  0
 11 13  1  0  0  0  0
 11 14  1  0  0  0  0
  9 10  1  0  0  0  0
  9 11  1  0  0  0  0
  9 27  1  0  0  0  0
  7  8  1  0  0  0  0
  7  9  1  0  0  0  0
 31 32  1  0  0  0  0
 31 33  1  0  0  0  0
 31 34  1  0  0  0  0
 29 30  1  0  0  0  0
 29 31  1  0  0  0  0
M  CHG  1  23   1
M  END
$$$$
default_name
  -OEChem-01062215323D

 34 33  0     1  0  0  0  0  0999 V2000
   -3.8899   -3.6747    1.6490 H   0  0  0  0  0  0  0  0  0  0  0  0
   -3.9109   -2.6717    1.2250 C   0  0  0  0  0  0  0  0  0  0  0  0
   -4.6009   -2.0517    1.7950 H   0  0  0  0  0  0  0  0  0  0  0  0
   -4.2309   -2.7237    0.1860 H   0  0  0  0  0  0  0  0  0  0  0  0
   -2.5229   -2.0787    1.2980 C   0  0  0  0  0  0  0  0  0  0  0  0
   -1.5999   -2.7227    1.7810 O   0  0  0  0  0  0  0  0  0  0  0  0
   -2.3659   -0.8447    0.8120 N   0  0  0  0  0  0  0  0  0  0  0  0
   -3.1749   -0.3807    0.4220 H   0  0  0  0  0  0  0  0  0  0  0  0
   -1.0919   -0.1077    0.8170 C   0  0  1  0  0  0  0  0  0  0  0  0
   -1.2553    0.8619    0.3429 H   0  0  0  0  0  0  0  0  0  0  0  0
   -0.6635    0.1195    2.2789 C   0  0  0  0  0  0  0  0  0  0  0  0
   -0.6745   -0.8404    2.7975 H   0  0  0  0  0  0  0  0  0  0  0  0
    0.3580    0.5045    2.2976 H   0  0  0  0  0  0  0  0  0  0  0  0
   -1.5835    1.0886    3.0370 C   0  0  0  0  0  0  0  0  0  0  0  0
   -1.6000    2.0534    2.5282 H   0  0  0  0  0  0  0  0  0  0  0  0
   -2.5957    0.6801    3.0594 H   0  0  0  0  0  0  0  0  0  0  0  0
   -1.0834    1.2861    4.4747 C   0  0  0  0  0  0  0  0  0  0  0  0
   -1.0538    0.3162    4.9768 H   0  0  0  0  0  0  0  0  0  0  0  0
   -0.0749    1.7034    4.4467 H   0  0  0  0  0  0  0  0  0  0  0  0
   -2.0150    2.2341    5.2404 C   0  0  0  0  0  0  0  0  0  0  0  0
   -2.0369    3.1960    4.7179 H   0  0  0  0  0  0  0  0  0  0  0  0
   -3.0270    1.8185    5.2200 H   0  0  0  0  0  0  0  0  0  0  0  0
   -1.5673    2.4242    6.6432 N   0  3  0  0  0  0  0  0  0  0  0  0
   -0.6352    2.8185    6.6685 H   0  0  0  0  0  0  0  0  0  0  0  0
   -2.1921    3.0514    7.1343 H   0  0  0  0  0  0  0  0  0  0  0  0
   -1.5537    1.5377    7.1338 H   0  0  0  0  0  0  0  0  0  0  0  0
   -0.0294   -0.8708    0.0227 C   0  0  0  0  0  0  0  0  0  0  0  0
    0.6641   -0.2732   -0.7918 O   0  0  0  0  0  0  0  0  0  0  0  0
    0.0672   -2.1866    0.2394 N   0  0  0  0  0  0  0  0  0  0  0  0
   -0.5203   -2.5906    0.9498 H   0  0  0  0  0  0  0  0  0  0  0  0
    1.0306   -3.0596   -0.4339 C   0  0  0  0  0  0  0  0  0  0  0  0
    2.0473   -2.7474   -0.1858 H   0  0  0  0  0  0  0  0  0  0  0  0
    0.8910   -4.0947   -0.1200 H   0  0  0  0  0  0  0  0  0  0  0  0
    0.9043   -2.9913   -1.5166 H   0  0  0  0  0  0  0  0  0  0  0  0
  5  6  2  0  0  0  0
  5  7  1  0  0  0  0
  2  3  1  0  0  0  0
  2  4  1  0  0  0  0
  2  5  1  0  0  0  0
  1  2  1  0  0  0  0
 27 28  2  0  0  0  0
 27 29  1  0  0  0  0
 23 24  1  0  0  0  0
 23 25  1  0  0  0  0
 23 26  1  0  0  0  0
 20 21  1  0  0  0  0
 20 22  1  0  0  0  0
 20 23  1  0  0  0  0
 17 18  1  0  0  0  0
 17 19  1  0  0  0  0
 17 20  1  0  0  0  0
 14 15  1  0  0  0  0
 14 16  1  0  0  0  0
 14 17  1  0  0  0  0
 11 12  1  0  0  0  0
 11 13  1  0  0  0  0
 11 14  1  0  0  0  0
  9 10  1  0  0  0  0
  9 11  1  0  0  0  0
  9 27  1  0  0  0  0
  7  8  1  0  0  0  0
  7  9  1  0  0  0  0
 31 32  1  0  0  0  0
 31 33  1  0  0  0  0
 31 34  1  0  0  0  0
 29 30  1  0  0  0  0
 29 31  1  0  0  0  0
M  CHG  1  23   1
M  END
$$$$
default_name
  -OEChem-01062215323D

 34 33  0     1  0  0  0  0  0999 V2000
   -3.8899   -3.6747    1.6490 H   0  0  0  0  0  0  0  0  0  0  0  0
   -3.9109   -2.6717    1.2250 C   0  0  0  0  0  0  0  0  0  0  0  0
   -4.6009   -2.0517    1.7950 H   0  0  0  0  0  0  0  0  0  0  0  0
   -4.2309   -2.7237    0.1860 H   0  0  0  0  0  0  0  0  0  0  0  0
   -2.5229   -2.0787    1.2980 C   0  0  0  0  0  0  0  0  0  0  0  0
   -1.5999   -2.7227    1.7810 O   0  0  0  0  0  0  0  0  0  0  0  0
   -2.3659   -0.8447    0.8120 N   0  0  0  0  0  0  0  0  0  0  0  0
   -3.1749   -0.3807    0.4220 H   0  0  0  0  0  0  0  0  0  0  0  0
   -1.0919   -0.1077    0.8170 C   0  0  1  0  0  0  0  0  0  0  0  0
   -1.2553    0.8619    0.3429 H   0  0  0  0  0  0  0  0  0  0  0  0
   -0.6635    0.1195    2.2789 C   0  0  0  0  0  0  0  0  0  0  0  0
   -0.6745   -0.8404    2.7975 H   0  0  0  0  0  0  0  0  0  0  0  0
    0.3580    0.5045    2.2976 H   0  0  0  0  0  0  0  0  0  0  0  0
   -1.5835    1.0886    3.0370 C   0  0  0  0  0  0  0  0  0  0  0  0
   -1.6000    2.0534    2.5282 H   0  0  0  0  0  0  0  0  0  0  0  0
   -2.5957    0.6801    3.0594 H   0  0  0  0  0  0  0  0  0  0  0  0
   -1.0834    1.2861    4.4747 C   0  0  0  0  0  0  0  0  0  0  0  0
   -1.0538    0.3162    4.9768 H   0  0  0  0  0  0  0  0  0  0  0  0
   -0.0749    1.7034    4.4467 H   0  0  0  0  0  0  0  0  0  0  0  0
   -2.0150    2.2341    5.2404 C   0  0  0  0  0  0  0  0  0  0  0  0
   -2.0369    3.1960    4.7179 H   0  0  0  0  0  0  0  0  0  0  0  0
   -3.0270    1.8185    5.2200 H   0  0  0  0  0  0  0  0  0  0  0  0
   -1.5673    2.4242    6.6432 N   0  3  0  0  0  0  0  0  0  0  0  0
   -0.6352    2.8185    6.6685 H   0  0  0  0  0  0  0  0  0  0  0  0
   -2.1921    3.0514    7.1343 H   0  0  0  0  0  0  0  0  0  0  0  0
   -1.5537    1.5377    7.1338 H   0  0  0  0  0  0  0  0  0  0  0  0
   -0.0294   -0.8708    0.0227 C   0  0  0  0  0  0  0  0  0  0  0  0
    0.8402   -0.2507   -0.5779 O   0  0  0  0  0  0  0  0  0  0  0  0
   -0.1263   -2.2041   -0.0028 N   0  0  0  0  0  0  0  0  0  0  0  0
   -0.8534   -2.6332    0.5452 H   0  0  0  0  0  0  0  0  0  0  0  0
    0.8082   -3.0804   -0.7114 C   0  0  0  0  0  0  0  0  0  0  0  0
    1.8102   -2.9672   -0.2919 H   0  0  0  0  0  0  0  0  0  0  0  0
    0.5000   -4.1222   -0.6167 H   0  0  0  0  0  0  0  0  0  0  0  0
    0.8456   -2.8104   -1.7690 H   0  0  0  0  0  0  0  0  0  0  0  0
  5  6  2  0  0  0  0
  5  7  1  0  0  0  0
  2  3  1  0  0  0  0
  2  4  1  0  0  0  0
  2  5  1  0  0  0  0
  1  2  1  0  0  0  0
 27 28  2  0  0  0  0
 27 29  1  0  0  0  0
 23 24  1  0  0  0  0
 23 25  1  0  0  0  0
 23 26  1  0  0  0  0
 20 21  1  0  0  0  0
 20 22  1  0  0  0  0
 20 23  1  0  0  0  0
 17 18  1  0  0  0  0
 17 19  1  0  0  0  0
 17 20  1  0  0  0  0
 14 15  1  0  0  0  0
 14 16  1  0  0  0  0
 14 17  1  0  0  0  0
 11 12  1  0  0  0  0
 11 13  1  0  0  0  0
 11 14  1  0  0  0  0
  9 10  1  0  0  0  0
  9 11  1  0  0  0  0
  9 27  1  0  0  0  0
  7  8  1  0  0  0  0
  7  9  1  0  0  0  0
 31 32  1  0  0  0  0
 31 33  1  0  0  0  0
 31 34  1  0  0  0  0
 29 30  1  0  0  0  0
 29 31  1  0  0  0  0
M  CHG  1  23   1
M  END
$$$$
default_name
  -OEChem-01062215323D

 34 33  0     1  0  0  0  0  0999 V2000
   -3.8899   -3.6747    1.6490 H   0  0  0  0  0  0  0  0  0  0  0  0
   -3.9109   -2.6717    1.2250 C   0  0  0  0  0  0  0  0  0  0  0  0
   -4.6009   -2.0517    1.7950 H   0  0  0  0  0  0  0  0  0  0  0  0
   -4.2309   -2.7237    0.1860 H   0  0  0  0  0  0  0  0  0  0  0  0
   -2.5229   -2.0787    1.2980 C   0  0  0  0  0  0  0  0  0  0  0  0
   -1.5999   -2.7227    1.7810 O   0  0  0  0  0  0  0  0  0  0  0  0
   -2.3659   -0.8447    0.8120 N   0  0  0  0  0  0  0  0  0  0  0  0
   -3.1749   -0.3807    0.4220 H   0  0  0  0  0  0  0  0  0  0  0  0
   -1.0919   -0.1077    0.8170 C   0  0  1  0  0  0  0  0  0  0  0  0
   -1.2553    0.8619    0.3429 H   0  0  0  0  0  0  0  0  0  0  0  0
   -0.6635    0.1195    2.2789 C   0  0  0  0  0  0  0  0  0  0  0  0
   -0.6745   -0.8404    2.7975 H   0  0  0  0  0  0  0  0  0  0  0  0
    0.3580    0.5045    2.2976 H   0  0  0  0  0  0  0  0  0  0  0  0
   -1.5835    1.0886    3.0370 C   0  0  0  0  0  0  0  0  0  0  0  0
   -1.6000    2.0534    2.5282 H   0  0  0  0  0  0  0  0  0  0  0  0
   -2.5957    0.6801    3.0594 H   0  0  0  0  0  0  0  0  0  0  0  0
   -1.0834    1.2861    4.4747 C   0  0  0  0  0  0  0  0  0  0  0  0
   -1.0538    0.3162    4.9768 H   0  0  0  0  0  0  0  0  0  0  0  0
   -0.0749    1.7034    4.4467 H   0  0  0  0  0  0  0  0  0  0  0  0
   -2.0150    2.2341    5.2404 C   0  0  0  0  0  0  0  0  0  0  0  0
   -2.0369    3.1960    4.7179 H   0  0  0  0  0  0  0  0  0  0  0  0
   -3.0270    1.8185    5.2200 H   0  0  0  0  0  0  0  0  0  0  0  0
   -1.5673    2.4242    6.6432 N   0  3  0  0  0  0  0  0  0  0  0  0
   -0.6352    2.8185    6.6685 H   0  0  0  0  0  0  0  0  0  0  0  0
   -2.1921    3.0514    7.1343 H   0  0  0  0  0  0  0  0  0  0  0  0
   -1.5537    1.5377    7.1338 H   0  0  0  0  0  0  0  0  0  0  0  0
   -0.0294   -0.8708    0.0227 C   0  0  0  0  0  0  0  0  0  0  0  0
    0.9857   -0.2910   -0.3445 O   0  0  0  0  0  0  0  0  0  0  0  0
   -0.2844   -2.1514   -0.2648 N   0  0  0  0  0  0  0  0  0  0  0  0
   -1.1286   -2.5570    0.1038 H   0  0  0  0  0  0  0  0  0  0  0  0
    0.6265   -3.0208   -1.0118 C   0  0  0  0  0  0  0  0  0  0  0  0
    1.5653   -3.1285   -0.4644 H   0  0  0  0  0  0  0  0  0  0  0  0
    0.1826   -4.0071   -1.1519 H   0  0  0  0  0  0  0  0  0  0  0  0
    0.8457   -2.5824   -1.9879 H   0  0  0  0  0  0  0  0  0  0  0  0
  5  6  2  0  0  0  0
  5  7  1  0  0  0  0
  2  3  1  0  0  0  0
  2  4  1  0  0  0  0
  2  5  1  0  0  0  0
  1  2  1  0  0  0  0
 27 28  2  0  0  0  0
 27 29  1  0  0  0  0
 23 24  1  0  0  0  0
 23 25  1  0  0  0  0
 23 26  1  0  0  0  0
 20 21  1  0  0  0  0
 20 22  1  0  0  0  0
 20 23  1  0  0  0  0
 17 18  1  0  0  0  0
 17 19  1  0  0  0  0
 17 20  1  0  0  0  0
 14 15  1  0  0  0  0
 14 16  1  0  0  0  0
 14 17  1  0  0  0  0
 11 12  1  0  0  0  0
 11 13  1  0  0  0  0
 11 14  1  0  0  0  0
  9 10  1  0  0  0  0
  9 11  1  0  0  0  0
  9 27  1  0  0  0  0
  7  8  1  0  0  0  0
  7  9  1  0  0  0  0
 31 32  1  0  0  0  0
 31 33  1  0  0  0  0
 31 34  1  0  0  0  0
 29 30  1  0  0  0  0
 29 31  1  0  0  0  0
M  CHG  1  23   1
M  END
$$$$
default_name
  -OEChem-01062215323D

 34 33  0     1  0  0  0  0  0999 V2000
   -3.8899   -3.6747    1.6490 H   0  0  0  0  0  0  0  0  0  0  0  0
   -3.9109   -2.6717    1.2250 C   0  0  0  0  0  0  0  0  0  0  0  0
   -4.6009   -2.0517    1.7950 H   0  0  0  0  0  0  0  0  0  0  0  0
   -4.2309   -2.7237    0.1860 H   0  0  0  0  0  0  0  0  0  0  0  0
   -2.5229   -2.0787    1.2980 C   0  0  0  0  0  0  0  0  0  0  0  0
   -1.5999   -2.7227    1.7810 O   0  0  0  0  0  0  0  0  0  0  0  0
   -2.3659   -0.8447    0.8120 N   0  0  0  0  0  0  0  0  0  0  0  0
   -3.1749   -0.3807    0.4220 H   0  0  0  0  0  0  0  0  0  0  0  0
   -1.0919   -0.1077    0.8170 C   0  0  1  0  0  0  0  0  0  0  0  0
   -1.2553    0.8619    0.3429 H   0  0  0  0  0  0  0  0  0  0  0  0
   -0.6635    0.1195    2.2789 C   0  0  0  0  0  0  0  0  0  0  0  0
   -0.6745   -0.8404    2.7975 H   0  0  0  0  0  0  0  0  0  0  0  0
    0.3580    0.5045    2.2976 H   0  0  0  0  0  0  0  0  0  0  0  0
   -1.5835    1.0886    3.0370 C   0  0  0  0  0  0  0  0  0  0  0  0
   -1.6000    2.0534    2.5282 H   0  0  0  0  0  0  0  0  0  0  0  0
   -2.5957    0.6801    3.0594 H   0  0  0  0  0  0  0  0  0  0  0  0
   -1.0834    1.2861    4.4747 C   0  0  0  0  0  0  0  0  0  0  0  0
   -1.0538    0.3162    4.9768 H   0  0  0  0  0  0  0  0  0  0  0  0
   -0.0749    1.7034    4.4467 H   0  0  0  0  0  0  0  0  0  0  0  0
   -2.0150    2.2341    5.2404 C   0  0  0  0  0  0  0  0  0  0  0  0
   -2.0369    3.1960    4.7179 H   0  0  0  0  0  0  0  0  0  0  0  0
   -3.0270    1.8185    5.2200 H   0  0  0  0  0  0  0  0  0  0  0  0
   -1.5673    2.4242    6.6432 N   0  3  0  0  0  0  0  0  0  0  0  0
   -0.6352    2.8185    6.6685 H   0  0  0  0  0  0  0  0  0  0  0  0
   -2.1921    3.0514    7.1343 H   0  0  0  0  0  0  0  0  0  0  0  0
   -1.5537    1.5377    7.1338 H   0  0  0  0  0  0  0  0  0  0  0  0
   -0.0294   -0.8708    0.0227 C   0  0  0  0  0  0  0  0  0  0  0  0
    1.0907   -0.3914   -0.1075 O   0  0  0  0  0  0  0  0  0  0  0  0
   -0.3961   -2.0323   -0.5288 N   0  0  0  0  0  0  0  0  0  0  0  0
   -1.3273   -2.3671   -0.3445 H   0  0  0  0  0  0  0  0  0  0  0  0
    0.4977   -2.8848   -1.3148 C   0  0  0  0  0  0  0  0  0  0  0  0
    1.3294   -3.2205   -0.6916 H   0  0  0  0  0  0  0  0  0  0  0  0
   -0.0394   -3.7571   -1.6891 H   0  0  0  0  0  0  0  0  0  0  0  0
    0.9048   -2.3229   -2.1583 H   0  0  0  0  0  0  0  0  0  0  0  0
  5  6  2  0  0  0  0
  5  7  1  0  0  0  0
  2  3  1  0  0  0  0
  2  4  1  0  0  0  0
  2  5  1  0  0  0  0
  1  2  1  0  0  0  0
 27 28  2  0  0  0  0
 27 29  1  0  0  0  0
 23 24  1  0  0  0  0
 23 25  1  0  0  0  0
 23 26  1  0  0  0  0
 20 21  1  0  0  0  0
 20 22  1  0  0  0  0
 20 23  1  0  0  0  0
 17 18  1  0  0  0  0
 17 19  1  0  0  0  0
 17 20  1  0  0  0  0
 14 15  1  0  0  0  0
 14 16  1  0  0  0  0
 14 17  1  0  0  0  0
 11 12  1  0  0  0  0
 11 13  1  0  0  0  0
 11 14  1  0  0  0  0
  9 10  1  0  0  0  0
  9 11  1  0  0  0  0
  9 27  1  0  0  0  0
  7  8  1  0  0  0  0
  7  9  1  0  0  0  0
 31 32  1  0  0  0  0
 31 33  1  0  0  0  0
 31 34  1  0  0  0  0
 29 30  1  0  0  0  0
 29 31  1  0  0  0  0
M  CHG  1  23   1
M  END
$$$$
default_name
  -OEChem-01062215323D

 34 33  0     1  0  0  0  0  0999 V2000
   -3.8899   -3.6747    1.6490 H   0  0  0  0  0  0  0  0  0  0  0  0
   -3.9109   -2.6717    1.2250 C   0  0  0  0  0  0  0  0  0  0  0  0
   -4.6009   -2.0517    1.7950 H   0  0  0  0  0  0  0  0  0  0  0  0
   -4.2309   -2.7237    0.1860 H   0  0  0  0  0  0  0  0  0  0  0  0
   -2.5229   -2.0787    1.2980 C   0  0  0  0  0  0  0  0  0  0  0  0
   -1.5999   -2.7227    1.7810 O   0  0  0  0  0  0  0  0  0  0  0  0
   -2.3659   -0.8447    0.8120 N   0  0  0  0  0  0  0  0  0  0  0  0
   -3.1749   -0.3807    0.4220 H   0  0  0  0  0  0  0  0  0  0  0  0
   -1.0919   -0.1077    0.8170 C   0  0  1  0  0  0  0  0  0  0  0  0
   -1.2553    0.8619    0.3429 H   0  0  0  0  0  0  0  0  0  0  0  0
   -0.6635    0.1195    2.2789 C   0  0  0  0  0  0  0  0  0  0  0  0
   -0.6745   -0.8404    2.7975 H   0  0  0  0  0  0  0  0  0  0  0  0
    0.3580    0.5045    2.2976 H   0  0  0  0  0  0  0  0  0  0  0  0
   -1.5835    1.0886    3.0370 C   0  0  0  0  0  0  0  0  0  0  0  0
   -1.6000    2.0534    2.5282 H   0  0  0  0  0  0  0  0  0  0  0  0
   -2.5957    0.6801    3.0594 H   0  0  0  0  0  0  0  0  0  0  0  0
   -1.0834    1.2861    4.4747 C   0  0  0  0  0  0  0  0  0  0  0  0
   -1.0538    0.3162    4.9768 H   0  0  0  0  0  0  0  0  0  0  0  0
   -0.0749    1.7034    4.4467 H   0  0  0  0  0  0  0  0  0  0  0  0
   -2.0150    2.2341    5.2404 C   0  0  0  0  0  0  0  0  0  0  0  0
   -2.0369    3.1960    4.7179 H   0  0  0  0  0  0  0  0  0  0  0  0
   -3.0270    1.8185    5.2200 H   0  0  0  0  0  0  0  0  0  0  0  0
   -1.5673    2.4242    6.6432 N   0  3  0  0  0  0  0  0  0  0  0  0
   -0.6352    2.8185    6.6685 H   0  0  0  0  0  0  0  0  0  0  0  0
   -2.1921    3.0514    7.1343 H   0  0  0  0  0  0  0  0  0  0  0  0
   -1.5537    1.5377    7.1338 H   0  0  0  0  0  0  0  0  0  0  0  0
   -0.0294   -0.8708    0.0227 C   0  0  0  0  0  0  0  0  0  0  0  0
    1.1481   -0.5451    0.1169 O   0  0  0  0  0  0  0  0  0  0  0  0
   -0.4540   -1.8547   -0.7769 N   0  0  0  0  0  0  0  0  0  0  0  0
   -1.4358   -2.0764   -0.7690 H   0  0  0  0  0  0  0  0  0  0  0  0
    0.4307   -2.6817   -1.5996 C   0  0  0  0  0  0  0  0  0  0  0  0
    1.1185   -3.2368   -0.9581 H   0  0  0  0  0  0  0  0  0  0  0  0
   -0.1509   -3.3892   -2.1917 H   0  0  0  0  0  0  0  0  0  0  0  0
    1.0186   -2.0495   -2.2686 H   0  0  0  0  0  0  0  0  0  0  0  0
  5  6  2  0  0  0  0
  5  7  1  0  0  0  0
  2  3  1  0  0  0  0
  2  4  1  0  0  0  0
  2  5  1  0  0  0  0
  1  2  1  0  0  0  0
 27 28  2  0  0  0  0
 27 29  1  0  0  0  0
 23 24  1  0  0  0  0
 23 25  1  0  0  0  0
 23 26  1  0  0  0  0
 20 21  1  0  0  0  0
 20 22  1  0  0  0  0
 20 23  1  0  0  0  0
 17 18  1  0  0  0  0
 17 19  1  0  0  0  0
 17 20  1  0  0  0  0
 14 15  1  0  0  0  0
 14 16  1  0  0  0  0
 14 17  1  0  0  0  0
 11 12  1  0  0  0  0
 11 13  1  0  0  0  0
 11 14  1  0  0  0  0
  9 10  1  0  0  0  0
  9 11  1  0  0  0  0
  9 27  1  0  0  0  0
  7  8  1  0  0  0  0
  7  9  1  0  0  0  0
 31 32  1  0  0  0  0
 31 33  1  0  0  0  0
 31 34  1  0  0  0  0
 29 30  1  0  0  0  0
 29 31  1  0  0  0  0
M  CHG  1  23   1
M  END
$$$$
default_name
  -OEChem-01062215323D

 34 33  0     1  0  0  0  0  0999 V2000
   -3.8899   -3.6747    1.6490 H   0  0  0  0  0  0  0  0  0  0  0  0
   -3.9109   -2.6717    1.2250 C   0  0  0  0  0  0  0  0  0  0  0  0
   -4.6009   -2.0517    1.7950 H   0  0  0  0  0  0  0  0  0  0  0  0
   -4.2309   -2.7237    0.1860 H   0  0  0  0  0  0  0  0  0  0  0  0
   -2.5229   -2.0787    1.2980 C   0  0  0  0  0  0  0  0  0  0  0  0
   -1.5999   -2.7227    1.7810 O   0  0  0  0  0  0  0  0  0  0  0  0
   -2.3659   -0.8447    0.8120 N   0  0  0  0  0  0  0  0  0  0  0  0
   -3.1749   -0.3807    0.4220 H   0  0  0  0  0  0  0  0  0  0  0  0
   -1.0919   -0.1077    0.8170 C   0  0  1  0  0  0  0  0  0  0  0  0
   -1.2553    0.8619    0.3429 H   0  0  0  0  0  0  0  0  0  0  0  0
   -0.6635    0.1195    2.2789 C   0  0  0  0  0  0  0  0  0  0  0  0
   -0.6745   -0.8404    2.7975 H   0  0  0  0  0  0  0  0  0  0  0  0
    0.3580    0.5045    2.2976 H   0  0  0  0  0  0  0  0  0  0  0  0
   -1.5835    1.0886    3.0370 C   0  0  0  0  0  0  0  0  0  0  0  0
   -1.6000    2.0534    2.5282 H   0  0  0  0  0  0  0  0  0  0  0  0
   -2.5957    0.6801    3.0594 H   0  0  0  0  0  0  0  0  0  0  0  0
   -1.0834    1.2861    4.4747 C   0  0  0  0  0  0  0  0  0  0  0  0
   -1.0538    0.3162    4.9768 H   0  0  0  0  0  0  0  0  0  0  0  0
   -0.0749    1.7034    4.4467 H   0  0  0  0  0  0  0  0  0  0  0  0
   -2.0150    2.2341    5.2404 C   0  0  0  0  0  0  0  0  0  0  0  0
   -2.0369    3.1960    4.7179 H   0  0  0  0  0  0  0  0  0  0  0  0
   -3.0270    1.8185    5.2200 H   0  0  0  0  0  0  0  0  0  0  0  0
   -1.5673    2.4242    6.6432 N   0  3  0  0  0  0  0  0  0  0  0  0
   -0.6352    2.8185    6.6685 H   0  0  0  0  0  0  0  0  0  0  0  0
   -2.1921    3.0514    7.1343 H   0  0  0  0  0  0  0  0  0  0  0  0
   -1.5537    1.5377    7.1338 H   0  0  0  0  0  0  0  0  0  0  0  0
   -0.0294   -0.8708    0.0227 C   0  0  0  0  0  0  0  0  0  0  0  0
    1.1539   -0.7416    0.3135 O   0  0  0  0  0  0  0  0  0  0  0  0
   -0.4540   -1.6308   -0.9920 N   0  0  0  0  0  0  0  0  0  0  0  0
   -1.4468   -1.7047   -1.1408 H   0  0  0  0  0  0  0  0  0  0  0  0
    0.4300   -2.4254   -1.8469 C   0  0  0  0  0  0  0  0  0  0  0  0
    0.9470   -3.1764   -1.2457 H   0  0  0  0  0  0  0  0  0  0  0  0
   -0.1444   -2.9286   -2.6255 H   0  0  0  0  0  0  0  0  0  0  0  0
    1.1795   -1.7810   -2.3114 H   0  0  0  0  0  0  0  0  0  0  0  0
  5  6  2  0  0  0  0
  5  7  1  0  0  0  0
  2  3  1  0  0  0  0
  2  4  1  0  0  0  0
  2  5  1  0  0  0  0
  1  2  1  0  0  0  0
 27 28  2  0  0  0  0
 27 29  1  0  0  0  0
 23 24  1  0  0  0  0
 23 25  1  0  0  0  0
 23 26  1  0  0  0  0
 20 21  1  0  0  0  0
 20 22  1  0  0  0  0
 20 23  1  0  0  0  0
 17 18  1  0  0  0  0
 17 19  1  0  0  0  0
 17 20  1  0  0  0  0
 14 15  1  0  0  0  0
 14 16  1  0  0  0  0
 14 17  1  0  0  0  0
 11 12  1  0  0  0  0
 11 13  1  0  0  0  0
 11 14  1  0  0  0  0
  9 10  1  0  0  0  0
  9 11  1  0  0  0  0
  9 27  1  0  0  0  0
  7  8  1  0  0  0  0
  7  9  1  0  0  0  0
 31 32  1  0  0  0  0
 31 33  1  0  0  0  0
 31 34  1  0  0  0  0
 29 30  1  0  0  0  0
 29 31  1  0  0  0  0
M  CHG  1  23   1
M  END
$$$$
default_name
  -OEChem-01062215323D

 34 33  0     1  0  0  0  0  0999 V2000
   -3.8899   -3.6747    1.6490 H   0  0  0  0  0  0  0  0  0  0  0  0
   -3.9109   -2.6717    1.2250 C   0  0  0  0  0  0  0  0  0  0  0  0
   -4.6009   -2.0517    1.7950 H   0  0  0  0  0  0  0  0  0  0  0  0
   -4.2309   -2.7237    0.1860 H   0  0  0  0  0  0  0  0  0  0  0  0
   -2.5229   -2.0787    1.2980 C   0  0  0  0  0  0  0  0  0  0  0  0
   -1.5999   -2.7227    1.7810 O   0  0  0  0  0  0  0  0  0  0  0  0
   -2.3659   -0.8447    0.8120 N   0  0  0  0  0  0  0  0  0  0  0  0
   -3.1749   -0.3807    0.4220 H   0  0  0  0  0  0  0  0  0  0  0  0
   -1.0919   -0.1077    0.8170 C   0  0  1  0  0  0  0  0  0  0  0  0
   -1.2553    0.8619    0.3429 H   0  0  0  0  0  0  0  0  0  0  0  0
   -0.6635    0.1195    2.2789 C   0  0  0  0  0  0  0  0  0  0  0  0
   -0.6745   -0.8404    2.7975 H   0  0  0  0  0  0  0  0  0  0  0  0
    0.3580    0.5045    2.2976 H   0  0  0  0  0  0  0  0  0  0  0  0
   -1.5835    1.0886    3.0370 C   0  0  0  0  0  0  0  0  0  0  0  0
   -1.6000    2.0534    2.5282 H   0  0  0  0  0  0  0  0  0  0  0  0
   -2.5957    0.6801    3.0594 H   0  0  0  0  0  0  0  0  0  0  0  0
   -1.0834    1.2861    4.4747 C   0  0  0  0  0  0  0  0  0  0  0  0
   -1.0538    0.3162    4.9768 H   0  0  0  0  0  0  0  0  0  0  0  0
   -0.0749    1.7034    4.4467 H   0  0  0  0  0  0  0  0  0  0  0  0
   -2.0150    2.2341    5.2404 C   0  0  0  0  0  0  0  0  0  0  0  0
   -2.0369    3.1960    4.7179 H   0  0  0  0  0  0  0  0  0  0  0  0
   -3.0270    1.8185    5.2200 H   0  0  0  0  0  0  0  0  0  0  0  0
   -1.5673    2.4242    6.6432 N   0  3  0  0  0  0  0  0  0  0  0  0
   -0.6352    2.8185    6.6685 H   0  0  0  0  0  0  0  0  0  0  0  0
   -2.1921    3.0514    7.1343 H   0  0  0  0  0  0  0  0  0  0  0  0
   -1.5537    1.5377    7.1338 H   0  0  0  0  0  0  0  0  0  0  0  0
   -0.0294   -0.8708    0.0227 C   0  0  0  0  0  0  0  0  0  0  0  0
    1.1078   -0.9675    0.4688 O   0  0  0  0  0  0  0  0  0  0  0  0
   -0.3963   -1.3759   -1.1596 N   0  0  0  0  0  0  0  0  0  0  0  0
   -1.3595   -1.2775   -1.4345 H   0  0  0  0  0  0  0  0  0  0  0  0
    0.4956   -2.1332   -2.0397 C   0  0  0  0  0  0  0  0  0  0  0  0
    0.8265   -3.0433   -1.5347 H   0  0  0  0  0  0  0  0  0  0  0  0
   -0.0202   -2.4066   -2.9609 H   0  0  0  0  0  0  0  0  0  0  0  0
    1.3766   -1.5355   -2.2837 H   0  0  0  0  0  0  0  0  0  0  0  0
  5  6  2  0  0  0  0
  5  7  1  0  0  0  0
  2  3  1  0  0  0  0
  2  4  1  0  0  0  0
  2  5  1  0  0  0  0
  1  2  1  0  0  0  0
 27 28  2  0  0  0  0
 27 29  1  0  0  0  0
 23 24  1  0  0  0  0
 23 25  1  0  0  0  0
 23 26  1  0  0  0  0
 20 21  1  0  0  0  0
 20 22  1  0  0  0  0
 20 23  1  0  0  0  0
 17 18  1  0  0  0  0
 17 19  1  0  0  0  0
 17 20  1  0  0  0  0
 14 15  1  0  0  0  0
 14 16  1  0  0  0  0
 14 17  1  0  0  0  0
 11 12  1  0  0  0  0
 11 13  1  0  0  0  0
 11 14  1  0  0  0  0
  9 10  1  0  0  0  0
  9 11  1  0  0  0  0
  9 27  1  0  0  0  0
  7  8  1  0  0  0  0
  7  9  1  0  0  0  0
 31 32  1  0  0  0  0
 31 33  1  0  0  0  0
 31 34  1  0  0  0  0
 29 30  1  0  0  0  0
 29 31  1  0  0  0  0
M  CHG  1  23   1
M  END
$$$$
default_name
  -OEChem-01062215323D

 34 33  0     1  0  0  0  0  0999 V2000
   -3.8899   -3.6747    1.6490 H   0  0  0  0  0  0  0  0  0  0  0  0
   -3.9109   -2.6717    1.2250 C   0  0  0  0  0  0  0  0  0  0  0  0
   -4.6009   -2.0517    1.7950 H   0  0  0  0  0  0  0  0  0  0  0  0
   -4.2309   -2.7237    0.1860 H   0  0  0  0  0  0  0  0  0  0  0  0
   -2.5229   -2.0787    1.2980 C   0  0  0  0  0  0  0  0  0  0  0  0
   -1.5999   -2.7227    1.7810 O   0  0  0  0  0  0  0  0  0  0  0  0
   -2.3659   -0.8447    0.8120 N   0  0  0  0  0  0  0  0  0  0  0  0
   -3.1749   -0.3807    0.4220 H   0  0  0  0  0  0  0  0  0  0  0  0
   -1.0919   -0.1077    0.8170 C   0  0  1  0  0  0  0  0  0  0  0  0
   -1.2553    0.8619    0.3429 H   0  0  0  0  0  0  0  0  0  0  0  0
   -0.6635    0.1195    2.2789 C   0  0  0  0  0  0  0  0  0  0  0  0
   -0.6745   -0.8404    2.7975 H   0  0  0  0  0  0  0  0  0  0  0  0
    0.3580    0.5045    2.2976 H   0  0  0  0  0  0  0  0  0  0  0  0
   -1.5835    1.0886    3.0370 C   0  0  0  0  0  0  0  0  0  0  0  0
   -1.6000    2.0534    2.5282 H   0  0  0  0  0  0  0  0  0  0  0  0
   -2.5957    0.6801    3.0594 H   0  0  0  0  0  0  0  0  0  0  0  0
   -1.0834    1.2861    4.4747 C   0  0  0  0  0  0  0  0  0  0  0  0
   -1.0538    0.3162    4.9768 H   0  0  0  0  0  0  0  0  0  0  0  0
   -0.0749    1.7034    4.4467 H   0  0  0  0  0  0  0  0  0  0  0  0
   -2.0150    2.2341    5.2404 C   0  0  0  0  0  0  0  0  0  0  0  0
   -2.0369    3.1960    4.7179 H   0  0  0  0  0  0  0  0  0  0  0  0
   -3.0270    1.8185    5.2200 H   0  0  0  0  0  0  0  0  0  0  0  0
   -1.5673    2.4242    6.6432 N   0  3  0  0  0  0  0  0  0  0  0  0
   -0.6352    2.8185    6.6685 H   0  0  0  0  0  0  0  0  0  0  0  0
   -2.1921    3.0514    7.1343 H   0  0  0  0  0  0  0  0  0  0  0  0
   -1.5537    1.5377    7.1338 H   0  0  0  0  0  0  0  0  0  0  0  0
   -0.0294   -0.8708    0.0227 C   0  0  0  0  0  0  0  0  0  0  0  0
    1.0128   -1.2074    0.5723 O   0  0  0  0  0  0  0  0  0  0  0  0
   -0.2846   -1.1074   -1.2682 N   0  0  0  0  0  0  0  0  0  0  0  0
   -1.1799   -0.8237   -1.6302 H   0  0  0  0  0  0  0  0  0  0  0  0
    0.6232   -1.8252   -2.1650 C   0  0  0  0  0  0  0  0  0  0  0  0
    0.7653   -2.8466   -1.8055 H   0  0  0  0  0  0  0  0  0  0  0  0
    0.2132   -1.8588   -3.1751 H   0  0  0  0  0  0  0  0  0  0  0  0
    1.5963   -1.3298   -2.1874 H   0  0  0  0  0  0  0  0  0  0  0  0
  5  6  2  0  0  0  0
  5  7  1  0  0  0  0
  2  3  1  0  0  0  0
  2  4  1  0  0  0  0
  2  5  1  0  0  0  0
  1  2  1  0  0  0  0
 27 28  2  0  0  0  0
 27 29  1  0  0  0  0
 23 24  1  0  0  0  0
 23 25  1  0  0  0  0
 23 26  1  0  0  0  0
 20 21  1  0  0  0  0
 20 22  1  0  0  0  0
 20 23  1  0  0  0  0
 17 18  1  0  0  0  0
 17 19  1  0  0  0  0
 17 20  1  0  0  0  0
 14 15  1  0  0  0  0
 14 16  1  0  0  0  0
 14 17  1  0  0  0  0
 11 12  1  0  0  0  0
 11 13  1  0  0  0  0
 11 14  1  0  0  0  0
  9 10  1  0  0  0  0
  9 11  1  0  0  0  0
  9 27  1  0  0  0  0
  7  8  1  0  0  0  0
  7  9  1  0  0  0  0
 31 32  1  0  0  0  0
 31 33  1  0  0  0  0
 31 34  1  0  0  0  0
 29 30  1  0  0  0  0
 29 31  1  0  0  0  0
M  CHG  1  23   1
M  END
$$$$
default_name
  -OEChem-01062215323D

 34 33  0     1  0  0  0  0  0999 V2000
   -3.8899   -3.6747    1.6490 H   0  0  0  0  0  0  0  0  0  0  0  0
   -3.9109   -2.6717    1.2250 C   0  0  0  0  0  0  0  0  0  0  0  0
   -4.6009   -2.0517    1.7950 H   0  0  0  0  0  0  0  0  0  0  0  0
   -4.2309   -2.7237    0.1860 H   0  0  0  0  0  0  0  0  0  0  0  0
   -2.5229   -2.0787    1.2980 C   0  0  0  0  0  0  0  0  0  0  0  0
   -1.5999   -2.7227    1.7810 O   0  0  0  0  0  0  0  0  0  0  0  0
   -2.3659   -0.8447    0.8120 N   0  0  0  0  0  0  0  0  0  0  0  0
   -3.1749   -0.3807    0.4220 H   0  0  0  0  0  0  0  0  0  0  0  0
   -1.0919   -0.1077    0.8170 C   0  0  1  0  0  0  0  0  0  0  0  0
   -1.2553    0.8619    0.3429 H   0  0  0  0  0  0  0  0  0  0  0  0
   -0.6635    0.1195    2.2789 C   0  0  0  0  0  0  0  0  0  0  0  0
   -0.6745   -0.8404    2.7975 H   0  0  0  0  0  0  0  0  0  0  0  0
    0.3580    0.5045    2.2976 H   0  0  0  0  0  0  0  0  0  0  0  0
   -1.5835    1.0886    3.0370 C   0  0  0  0  0  0  0  0  0  0  0  0
   -1.6000    2.0534    2.5282 H   0  0  0  0  0  0  0  0  0  0  0  0
   -2.5957    0.6801    3.0594 H   0  0  0  0  0  0  0  0  0  0  0  0
   -1.0834    1.2861    4.4747 C   0  0  0  0  0  0  0  0  0  0  0  0
   -1.0538    0.3162    4.9768 H   0  0  0  0  0  0  0  0  0  0  0  0
   -0.0749    1.7034    4.4467 H   0  0  0  0  0  0  0  0  0  0  0  0
   -2.0150    2.2341    5.2404 C   0  0  0  0  0  0  0  0  0  0  0  0
   -2.0369    3.1960    4.7179 H   0  0  0  0  0  0  0  0  0  0  0  0
   -3.0270    1.8185    5.2200 H   0  0  0  0  0  0  0  0  0  0  0  0
   -1.5673    2.4242    6.6432 N   0  3  0  0  0  0  0  0  0  0  0  0
   -0.6352    2.8185    6.6685 H   0  0  0  0  0  0  0  0  0  0  0  0
   -2.1921    3.0514    7.1343 H   0  0  0  0  0  0  0  0  0  0  0  0
   -1.5537    1.5377    7.1338 H   0  0  0  0  0  0  0  0  0  0  0  0
   -0.0294   -0.8708    0.0227 C   0  0  0  0  0  0  0  0  0  0  0  0
    0.8755   -1.4450    0.6168 O   0  0  0  0  0  0  0  0  0  0  0  0
   -0.1266   -0.8434   -1.3105 N   0  0  0  0  0  0  0  0  0  0  0  0
   -0.9202   -0.3743   -1.7145 H   0  0  0  0  0  0  0  0  0  0  0  0
    0.8039   -1.5223   -2.2143 C   0  0  0  0  0  0  0  0  0  0  0  0
    0.7676   -2.5997   -2.0396 H   0  0  0  0  0  0  0  0  0  0  0  0
    0.5398   -1.3225   -3.2534 H   0  0  0  0  0  0  0  0  0  0  0  0
    1.8237   -1.1779   -2.0290 H   0  0  0  0  0  0  0  0  0  0  0  0
  5  6  2  0  0  0  0
  5  7  1  0  0  0  0
  2  3  1  0  0  0  0
  2  4  1  0  0  0  0
  2  5  1  0  0  0  0
  1  2  1  0  0  0  0
 27 28  2  0  0  0  0
 27 29  1  0  0  0  0
 23 24  1  0  0  0  0
 23 25  1  0  0  0  0
 23 26  1  0  0  0  0
 20 21  1  0  0  0  0
 20 22  1  0  0  0  0
 20 23  1  0  0  0  0
 17 18  1  0  0  0  0
 17 19  1  0  0  0  0
 17 20  1  0  0  0  0
 14 15  1  0  0  0  0
 14 16  1  0  0  0  0
 14 17  1  0  0  0  0
 11 12  1  0  0  0  0
 11 13  1  0  0  0  0
 11 14  1  0  0  0  0
  9 10  1  0  0  0  0
  9 11  1  0  0  0  0
  9 27  1  0  0  0  0
  7  8  1  0  0  0  0
  7  9  1  0  0  0  0
 31 32  1  0  0  0  0
 31 33  1  0  0  0  0
 31 34  1  0  0  0  0
 29 30  1  0  0  0  0
 29 31  1  0  0  0  0
M  CHG  1  23   1
M  END
$$$$
default_name
  -OEChem-01062215323D

 34 33  0     1  0  0  0  0  0999 V2000
   -3.8899   -3.6747    1.6490 H   0  0  0  0  0  0  0  0  0  0  0  0
   -3.9109   -2.6717    1.2250 C   0  0  0  0  0  0  0  0  0  0  0  0
   -4.6009   -2.0517    1.7950 H   0  0  0  0  0  0  0  0  0  0  0  0
   -4.2309   -2.7237    0.1860 H   0  0  0  0  0  0  0  0  0  0  0  0
   -2.5229   -2.0787    1.2980 C   0  0  0  0  0  0  0  0  0  0  0  0
   -1.5999   -2.7227    1.7810 O   0  0  0  0  0  0  0  0  0  0  0  0
   -2.3659   -0.8447    0.8120 N   0  0  0  0  0  0  0  0  0  0  0  0
   -3.1749   -0.3807    0.4220 H   0  0  0  0  0  0  0  0  0  0  0  0
   -1.0919   -0.1077    0.8170 C   0  0  1  0  0  0  0  0  0  0  0  0
   -1.2553    0.8619    0.3429 H   0  0  0  0  0  0  0  0  0  0  0  0
   -0.6635    0.1195    2.2789 C   0  0  0  0  0  0  0  0  0  0  0  0
   -0.6745   -0.8404    2.7975 H   0  0  0  0  0  0  0  0  0  0  0  0
    0.3580    0.5045    2.2976 H   0  0  0  0  0  0  0  0  0  0  0  0
   -1.5835    1.0886    3.0370 C   0  0  0  0  0  0  0  0  0  0  0  0
   -1.6000    2.0534    2.5282 H   0  0  0  0  0  0  0  0  0  0  0  0
   -2.5957    0.6801    3.0594 H   0  0  0  0  0  0  0  0  0  0  0  0
   -1.0834    1.2861    4.4747 C   0  0  0  0  0  0  0  0  0  0  0  0
   -1.0538    0.3162    4.9768 H   0  0  0  0  0  0  0  0  0  0  0  0
   -0.0749    1.7034    4.4467 H   0  0  0  0  0  0  0  0  0  0  0  0
   -2.0150    2.2341    5.2404 C   0  0  0  0  0  0  0  0  0  0  0  0
   -2.0369    3.1960    4.7179 H   0  0  0  0  0  0  0  0  0  0  0  0
   -3.0270    1.8185    5.2200 H   0  0  0  0  0  0  0  0  0  0  0  0
   -1.5673    2.4242    6.6432 N   0  3  0  0  0  0  0  0  0  0  0  0
   -0.6352    2.8185    6.6685 H   0  0  0  0  0  0  0  0  0  0  0  0
   -2.1921    3.0514    7.1343 H   0  0  0  0  0  0  0  0  0  0  0  0
   -1.5537    1.5377    7.1338 H   0  0  0  0  0  0  0  0  0  0  0  0
   -0.0294   -0.8708    0.0227 C   0  0  0  0  0  0  0  0  0  0  0  0
    0.7052   -1.6640    0.5995 O   0  0  0  0  0  0  0  0  0  0  0  0
    0.0669   -0.6021   -1.2835 N   0  0  0  0  0  0  0  0  0  0  0  0
   -0.5981    0.0400   -1.6817 H   0  0  0  0  0  0  0  0  0  0  0  0
    1.0255   -1.2451   -2.1841 C   0  0  0  0  0  0  0  0  0  0  0  0
    0.8332   -2.3195   -2.2211 H   0  0  0  0  0  0  0  0  0  0  0  0
    0.9375   -0.8343   -3.1905 H   0  0  0  0  0  0  0  0  0  0  0  0
    2.0434   -1.0902   -1.8194 H   0  0  0  0  0  0  0  0  0  0  0  0
  5  6  2  0  0  0  0
  5  7  1  0  0  0  0
  2  3  1  0  0  0  0
  2  4  1  0  0  0  0
  2  5  1  0  0  0  0
  1  2  1  0  0  0  0
 27 28  2  0  0  0  0
 27 29  1  0  0  0  0
 23 24  1  0  0  0  0
 23 25  1  0  0  0  0
 23 26  1  0  0  0  0
 20 21  1  0  0  0  0
 20 22  1  0  0  0  0
 20 23  1  0  0  0  0
 17 18  1  0  0  0  0
 17 19  1  0  0  0  0
 17 20  1  0  0  0  0
 14 15  1  0  0  0  0
 14 16  1  0  0  0  0
 14 17  1  0  0  0  0
 11 12  1  0  0  0  0
 11 13  1  0  0  0  0
 11 14  1  0  0  0  0
  9 10  1  0  0  0  0
  9 11  1  0  0  0  0
  9 27  1  0  0  0  0
  7  8  1  0  0  0  0
  7  9  1  0  0  0  0
 31 32  1  0  0  0  0
 31 33  1  0  0  0  0
 31 34  1  0  0  0  0
 29 30  1  0  0  0  0
 29 31  1  0  0  0  0
M  CHG  1  23   1
M  END
$$$$
default_name
  -OEChem-01062215323D

 34 33  0     1  0  0  0  0  0999 V2000
   -3.8899   -3.6747    1.6490 H   0  0  0  0  0  0  0  0  0  0  0  0
   -3.9109   -2.6717    1.2250 C   0  0  0  0  0  0  0  0  0  0  0  0
   -4.6009   -2.0517    1.7950 H   0  0  0  0  0  0  0  0  0  0  0  0
   -4.2309   -2.7237    0.1860 H   0  0  0  0  0  0  0  0  0  0  0  0
   -2.5229   -2.0787    1.2980 C   0  0  0  0  0  0  0  0  0  0  0  0
   -1.5999   -2.7227    1.7810 O   0  0  0  0  0  0  0  0  0  0  0  0
   -2.3659   -0.8447    0.8120 N   0  0  0  0  0  0  0  0  0  0  0  0
   -3.1749   -0.3807    0.4220 H   0  0  0  0  0  0  0  0  0  0  0  0
   -1.0919   -0.1077    0.8170 C   0  0  1  0  0  0  0  0  0  0  0  0
   -1.2553    0.8619    0.3429 H   0  0  0  0  0  0  0  0  0  0  0  0
   -0.6635    0.1195    2.2789 C   0  0  0  0  0  0  0  0  0  0  0  0
   -0.6745   -0.8404    2.7975 H   0  0  0  0  0  0  0  0  0  0  0  0
    0.3580    0.5045    2.2976 H   0  0  0  0  0  0  0  0  0  0  0  0
   -1.5835    1.0886    3.0370 C   0  0  0  0  0  0  0  0  0  0  0  0
   -1.6000    2.0534    2.5282 H   0  0  0  0  0  0  0  0  0  0  0  0
   -2.5957    0.6801    3.0594 H   0  0  0  0  0  0  0  0  0  0  0  0
   -1.0834    1.2861    4.4747 C   0  0  0  0  0  0  0  0  0  0  0  0
   -1.0538    0.3162    4.9768 H   0  0  0  0  0  0  0  0  0  0  0  0
   -0.0749    1.7034    4.4467 H   0  0  0  0  0  0  0  0  0  0  0  0
   -2.0150    2.2341    5.2404 C   0  0  0  0  0  0  0  0  0  0  0  0
   -2.0369    3.1960    4.7179 H   0  0  0  0  0  0  0  0  0  0  0  0
   -3.0270    1.8185    5.2200 H   0  0  0  0  0  0  0  0  0  0  0  0
   -1.5673    2.4242    6.6432 N   0  3  0  0  0  0  0  0  0  0  0  0
   -0.6352    2.8185    6.6685 H   0  0  0  0  0  0  0  0  0  0  0  0
   -2.1921    3.0514    7.1343 H   0  0  0  0  0  0  0  0  0  0  0  0
   -1.5537    1.5377    7.1338 H   0  0  0  0  0  0  0  0  0  0  0  0
   -0.0294   -0.8708    0.0227 C   0  0  0  0  0  0  0  0  0  0  0  0
    0.5136   -1.8496    0.5214 O   0  0  0  0  0  0  0  0  0  0  0  0
    0.2827   -0.3999   -1.1891 N   0  0  0  0  0  0  0  0  0  0  0  0
   -0.2356    0.3910   -1.5340 H   0  0  0  0  0  0  0  0  0  0  0  0
    1.2730   -1.0126   -2.0765 C   0  0  0  0  0  0  0  0  0  0  0  0
    0.9576   -2.0250   -2.3376 H   0  0  0  0  0  0  0  0  0  0  0  0
    1.3790   -0.4274   -2.9907 H   0  0  0  0  0  0  0  0  0  0  0  0
    2.2402   -1.0727   -1.5729 H   0  0  0  0  0  0  0  0  0  0  0  0
  5  6  2  0  0  0  0
  5  7  1  0  0  0  0
  2  3  1  0  0  0  0
  2  4  1  0  0  0  0
  2  5  1  0  0  0  0
  1  2  1  0  0  0  0
 27 28  2  0  0  0  0
 27 29  1  0  0  0  0
 23 24  1  0  0  0  0
 23 25  1  0  0  0  0
 23 26  1  0  0  0  0
 20 21  1  0  0  0  0
 20 22  1  0  0  0  0
 20 23  1  0  0  0  0
 17 18  1  0  0  0  0
 17 19  1  0  0  0  0
 17 20  1  0  0  0  0
 14 15  1  0  0  0  0
 14 16  1  0  0  0  0
 14 17  1  0  0  0  0
 11 12  1  0  0  0  0
 11 13  1  0  0  0  0
 11 14  1  0  0  0  0
  9 10  1  0  0  0  0
  9 11  1  0  0  0  0
  9 27  1  0  0  0  0
  7  8  1  0  0  0  0
  7  9  1  0  0  0  0
 31 32  1  0  0  0  0
 31 33  1  0  0  0  0
 31 34  1  0  0  0  0
 29 30  1  0  0  0  0
 29 31  1  0  0  0  0
M  CHG  1  23   1
M  END
$$$$
default_name
  -OEChem-01062215323D

 34 33  0     1  0  0  0  0  0999 V2000
   -3.8899   -3.6747    1.6490 H   0  0  0  0  0  0  0  0  0  0  0  0
   -3.9109   -2.6717    1.2250 C   0  0  0  0  0  0  0  0  0  0  0  0
   -4.6009   -2.0517    1.7950 H   0  0  0  0  0  0  0  0  0  0  0  0
   -4.2309   -2.7237    0.1860 H   0  0  0  0  0  0  0  0  0  0  0  0
   -2.5229   -2.0787    1.2980 C   0  0  0  0  0  0  0  0  0  0  0  0
   -1.5999   -2.7227    1.7810 O   0  0  0  0  0  0  0  0  0  0  0  0
   -2.3659   -0.8447    0.8120 N   0  0  0  0  0  0  0  0  0  0  0  0
   -3.1749   -0.3807    0.4220 H   0  0  0  0  0  0  0  0  0  0  0  0
   -1.0919   -0.1077    0.8170 C   0  0  1  0  0  0  0  0  0  0  0  0
   -1.2553    0.8619    0.3429 H   0  0  0  0  0  0  0  0  0  0  0  0
   -0.6635    0.1195    2.2789 C   0  0  0  0  0  0  0  0  0  0  0  0
   -0.6745   -0.8404    2.7975 H   0  0  0  0  0  0  0  0  0  0  0  0
    0.3580    0.5045    2.2976 H   0  0  0  0  0  0  0  0  0  0  0  0
   -1.5835    1.0886    3.0370 C   0  0  0  0  0  0  0  0  0  0  0  0
   -1.6000    2.0534    2.5282 H   0  0  0  0  0  0  0  0  0  0  0  0
   -2.5957    0.6801    3.0594 H   0  0  0  0  0  0  0  0  0  0  0  0
   -1.0834    1.2861    4.4747 C   0  0  0  0  0  0  0  0  0  0  0  0
   -1.0538    0.3162    4.9768 H   0  0  0  0  0  0  0  0  0  0  0  0
   -0.0749    1.7034    4.4467 H   0  0  0  0  0  0  0  0  0  0  0  0
   -2.0150    2.2341    5.2404 C   0  0  0  0  0  0  0  0  0  0  0  0
   -2.0369    3.1960    4.7179 H   0  0  0  0  0  0  0  0  0  0  0  0
   -3.0270    1.8185    5.2200 H   0  0  0  0  0  0  0  0  0  0  0  0
   -1.5673    2.4242    6.6432 N   0  3  0  0  0  0  0  0  0  0  0  0
   -0.6352    2.8185    6.6685 H   0  0  0  0  0  0  0  0  0  0  0  0
   -2.1921    3.0514    7.1343 H   0  0  0  0  0  0  0  0  0  0  0  0
   -1.5537    1.5377    7.1338 H   0  0  0  0  0  0  0  0  0  0  0  0
   -0.0294   -0.8708    0.0227 C   0  0  0  0  0  0  0  0  0  0  0  0
    0.3136   -1.9891    0.3879 O   0  0  0  0  0  0  0  0  0  0  0  0
    0.5062   -0.2505   -1.0337 N   0  0  0  0  0  0  0  0  0  0  0  0
    0.1427    0.6548   -1.2814 H   0  0  0  0  0  0  0  0  0  0  0  0
    1.5293   -0.8405   -1.8989 C   0  0  0  0  0  0  0  0  0  0  0  0
    1.1324   -1.7364   -2.3812 H   0  0  0  0  0  0  0  0  0  0  0  0
    1.8344   -0.1297   -2.6676 H   0  0  0  0  0  0  0  0  0  0  0  0
    2.4010   -1.1265   -1.3061 H   0  0  0  0  0  0  0  0  0  0  0  0
  5  6  2  0  0  0  0
  5  7  1  0  0  0  0
  2  3  1  0  0  0  0
  2  4  1  0  0  0  0
  2  5  1  0  0  0  0
  1  2  1  0  0  0  0
 27 28  2  0  0  0  0
 27 29  1  0  0  0  0
 23 24  1  0  0  0  0
 23 25  1  0  0  0  0
 23 26  1  0  0  0  0
 20 21  1  0  0  0  0
 20 22  1  0  0  0  0
 20 23  1  0  0  0  0
 17 18  1  0  0  0  0
 17 19  1  0  0  0  0
 17 20  1  0  0  0  0
 14 15  1  0  0  0  0
 14 16  1  0  0  0  0
 14 17  1  0  0  0  0
 11 12  1  0  0  0  0
 11 13  1  0  0  0  0
 11 14  1  0  0  0  0
  9 10  1  0  0  0  0
  9 11  1  0  0  0  0
  9 27  1  0  0  0  0
  7  8  1  0  0  0  0
  7  9  1  0  0  0  0
 31 32  1  0  0  0  0
 31 33  1  0  0  0  0
 31 34  1  0  0  0  0
 29 30  1  0  0  0  0
 29 31  1  0  0  0  0
M  CHG  1  23   1
M  END
$$$$
default_name
  -OEChem-01062215323D

 34 33  0     1  0  0  0  0  0999 V2000
   -3.8899   -3.6747    1.6490 H   0  0  0  0  0  0  0  0  0  0  0  0
   -3.9109   -2.6717    1.2250 C   0  0  0  0  0  0  0  0  0  0  0  0
   -4.6009   -2.0517    1.7950 H   0  0  0  0  0  0  0  0  0  0  0  0
   -4.2309   -2.7237    0.1860 H   0  0  0  0  0  0  0  0  0  0  0  0
   -2.5229   -2.0787    1.2980 C   0  0  0  0  0  0  0  0  0  0  0  0
   -1.5999   -2.7227    1.7810 O   0  0  0  0  0  0  0  0  0  0  0  0
   -2.3659   -0.8447    0.8120 N   0  0  0  0  0  0  0  0  0  0  0  0
   -3.1749   -0.3807    0.4220 H   0  0  0  0  0  0  0  0  0  0  0  0
   -1.0919   -0.1077    0.8170 C   0  0  1  0  0  0  0  0  0  0  0  0
   -1.2553    0.8619    0.3429 H   0  0  0  0  0  0  0  0  0  0  0  0
   -0.6635    0.1195    2.2789 C   0  0  0  0  0  0  0  0  0  0  0  0
   -0.6745   -0.8404    2.7975 H   0  0  0  0  0  0  0  0  0  0  0  0
    0.3580    0.5045    2.2976 H   0  0  0  0  0  0  0  0  0  0  0  0
   -1.5835    1.0886    3.0370 C   0  0  0  0  0  0  0  0  0  0  0  0
   -1.6000    2.0534    2.5282 H   0  0  0  0  0  0  0  0  0  0  0  0
   -2.5957    0.6801    3.0594 H   0  0  0  0  0  0  0  0  0  0  0  0
   -1.0834    1.2861    4.4747 C   0  0  0  0  0  0  0  0  0  0  0  0
   -1.0538    0.3162    4.9768 H   0  0  0  0  0  0  0  0  0  0  0  0
   -0.0749    1.7034    4.4467 H   0  0  0  0  0  0  0  0  0  0  0  0
   -2.0150    2.2341    5.2404 C   0  0  0  0  0  0  0  0  0  0  0  0
   -2.0369    3.1960    4.7179 H   0  0  0  0  0  0  0  0  0  0  0  0
   -3.0270    1.8185    5.2200 H   0  0  0  0  0  0  0  0  0  0  0  0
   -1.5673    2.4242    6.6432 N   0  3  0  0  0  0  0  0  0  0  0  0
   -0.6352    2.8185    6.6685 H   0  0  0  0  0  0  0  0  0  0  0  0
   -2.1921    3.0514    7.1343 H   0  0  0  0  0  0  0  0  0  0  0  0
   -1.5537    1.5377    7.1338 H   0  0  0  0  0  0  0  0  0  0  0  0
   -0.0294   -0.8708    0.0227 C   0  0  0  0  0  0  0  0  0  0  0  0
    0.1189   -2.0730    0.2080 O   0  0  0  0  0  0  0  0  0  0  0  0
    0.7221   -0.1641   -0.8279 N   0  0  0  0  0  0  0  0  0  0  0  0
    0.5109    0.8135   -0.9413 H   0  0  0  0  0  0  0  0  0  0  0  0
    1.7771   -0.7407   -1.6633 C   0  0  0  0  0  0  0  0  0  0  0  0
    1.3456   -1.4732   -2.3488 H   0  0  0  0  0  0  0  0  0  0  0  0
    2.2725    0.0388   -2.2433 H   0  0  0  0  0  0  0  0  0  0  0  0
    2.5146   -1.2480   -1.0374 H   0  0  0  0  0  0  0  0  0  0  0  0
  5  6  2  0  0  0  0
  5  7  1  0  0  0  0
  2  3  1  0  0  0  0
  2  4  1  0  0  0  0
  2  5  1  0  0  0  0
  1  2  1  0  0  0  0
 27 28  2  0  0  0  0
 27 29  1  0  0  0  0
 23 24  1  0  0  0  0
 23 25  1  0  0  0  0
 23 26  1  0  0  0  0
 20 21  1  0  0  0  0
 20 22  1  0  0  0  0
 20 23  1  0  0  0  0
 17 18  1  0  0  0  0
 17 19  1  0  0  0  0
 17 20  1  0  0  0  0
 14 15  1  0  0  0  0
 14 16  1  0  0  0  0
 14 17  1  0  0  0  0
 11 12  1  0  0  0  0
 11 13  1  0  0  0  0
 11 14  1  0  0  0  0
  9 10  1  0  0  0  0
  9 11  1  0  0  0  0
  9 27  1  0  0  0  0
  7  8  1  0  0  0  0
  7  9  1  0  0  0  0
 31 32  1  0  0  0  0
 31 33  1  0  0  0  0
 31 34  1  0  0  0  0
 29 30  1  0  0  0  0
 29 31  1  0  0  0  0
M  CHG  1  23   1
M  END
$$$$
default_name
  -OEChem-01062215323D

 34 33  0     1  0  0  0  0  0999 V2000
   -3.8899   -3.6747    1.6490 H   0  0  0  0  0  0  0  0  0  0  0  0
   -3.9109   -2.6717    1.2250 C   0  0  0  0  0  0  0  0  0  0  0  0
   -4.6009   -2.0517    1.7950 H   0  0  0  0  0  0  0  0  0  0  0  0
   -4.2309   -2.7237    0.1860 H   0  0  0  0  0  0  0  0  0  0  0  0
   -2.5229   -2.0787    1.2980 C   0  0  0  0  0  0  0  0  0  0  0  0
   -1.5999   -2.7227    1.7810 O   0  0  0  0  0  0  0  0  0  0  0  0
   -2.3659   -0.8447    0.8120 N   0  0  0  0  0  0  0  0  0  0  0  0
   -3.1749   -0.3807    0.4220 H   0  0  0  0  0  0  0  0  0  0  0  0
   -1.0919   -0.1077    0.8170 C   0  0  1  0  0  0  0  0  0  0  0  0
   -1.2553    0.8619    0.3429 H   0  0  0  0  0  0  0  0  0  0  0  0
   -0.6635    0.1195    2.2789 C   0  0  0  0  0  0  0  0  0  0  0  0
   -0.6745   -0.8404    2.7975 H   0  0  0  0  0  0  0  0  0  0  0  0
    0.3580    0.5045    2.2976 H   0  0  0  0  0  0  0  0  0  0  0  0
   -1.5835    1.0886    3.0370 C   0  0  0  0  0  0  0  0  0  0  0  0
   -1.6000    2.0534    2.5282 H   0  0  0  0  0  0  0  0  0  0  0  0
   -2.5957    0.6801    3.0594 H   0  0  0  0  0  0  0  0  0  0  0  0
   -1.0834    1.2861    4.4747 C   0  0  0  0  0  0  0  0  0  0  0  0
   -1.0538    0.3162    4.9768 H   0  0  0  0  0  0  0  0  0  0  0  0
   -0.0749    1.7034    4.4467 H   0  0  0  0  0  0  0  0  0  0  0  0
   -2.0150    2.2341    5.2404 C   0  0  0  0  0  0  0  0  0  0  0  0
   -2.0369    3.1960    4.7179 H   0  0  0  0  0  0  0  0  0  0  0  0
   -3.0270    1.8185    5.2200 H   0  0  0  0  0  0  0  0  0  0  0  0
   -1.5673    2.4242    6.6432 N   0  3  0  0  0  0  0  0  0  0  0  0
   -0.6352    2.8185    6.6685 H   0  0  0  0  0  0  0  0  0  0  0  0
   -2.1921    3.0514    7.1343 H   0  0  0  0  0  0  0  0  0  0  0  0
   -1.5537    1.5377    7.1338 H   0  0  0  0  0  0  0  0  0  0  0  0
   -0.0294   -0.8708    0.0227 C   0  0  0  0  0  0  0  0  0  0  0  0
   -0.0572   -2.0955   -0.0059 O   0  0  0  0  0  0  0  0  0  0  0  0
    0.9156   -0.1466   -0.5857 N   0  0  0  0  0  0  0  0  0  0  0  0
    0.8440    0.8561   -0.5367 H   0  0  0  0  0  0  0  0  0  0  0  0
    1.9994   -0.7199   -1.3858 C   0  0  0  0  0  0  0  0  0  0  0  0
    1.5827   -1.2534   -2.2428 H   0  0  0  0  0  0  0  0  0  0  0  0
    2.6636    0.0663   -1.7466 H   0  0  0  0  0  0  0  0  0  0  0  0
    2.5733   -1.4289   -0.7851 H   0  0  0  0  0  0  0  0  0  0  0  0
  5  6  2  0  0  0  0
  5  7  1  0  0  0  0
  2  3  1  0  0  0  0
  2  4  1  0  0  0  0
  2  5  1  0  0  0  0
  1  2  1  0  0  0  0
 27 28  2  0  0  0  0
 27 29  1  0  0  0  0
 23 24  1  0  0  0  0
 23 25  1  0  0  0  0
 23 26  1  0  0  0  0
 20 21  1  0  0  0  0
 20 22  1  0  0  0  0
 20 23  1  0  0  0  0
 17 18  1  0  0  0  0
 17 19  1  0  0  0  0
 17 20  1  0  0  0  0
 14 15  1  0  0  0  0
 14 16  1  0  0  0  0
 14 17  1  0  0  0  0
 11 12  1  0  0  0  0
 11 13  1  0  0  0  0
 11 14  1  0  0  0  0
  9 10  1  0  0  0  0
  9 11  1  0  0  0  0
  9 27  1  0  0  0  0
  7  8  1  0  0  0  0
  7  9  1  0  0  0  0
 31 32  1  0  0  0  0
 31 33  1  0  0  0  0
 31 34  1  0  0  0  0
 29 30  1  0  0  0  0
 29 31  1  0  0  0  0
M  CHG  1  23   1
M  END
$$$$
default_name
  -OEChem-01062215323D

 34 33  0     1  0  0  0  0  0999 V2000
   -3.8899   -3.6747    1.6490 H   0  0  0  0  0  0  0  0  0  0  0  0
   -3.9109   -2.6717    1.2250 C   0  0  0  0  0  0  0  0  0  0  0  0
   -4.6009   -2.0517    1.7950 H   0  0  0  0  0  0  0  0  0  0  0  0
   -4.2309   -2.7237    0.1860 H   0  0  0  0  0  0  0  0  0  0  0  0
   -2.5229   -2.0787    1.2980 C   0  0  0  0  0  0  0  0  0  0  0  0
   -1.5999   -2.7227    1.7810 O   0  0  0  0  0  0  0  0  0  0  0  0
   -2.3659   -0.8447    0.8120 N   0  0  0  0  0  0  0  0  0  0  0  0
   -3.1749   -0.3807    0.4220 H   0  0  0  0  0  0  0  0  0  0  0  0
   -1.0919   -0.1077    0.8170 C   0  0  1  0  0  0  0  0  0  0  0  0
   -1.2553    0.8619    0.3429 H   0  0  0  0  0  0  0  0  0  0  0  0
   -0.6635    0.1195    2.2789 C   0  0  0  0  0  0  0  0  0  0  0  0
   -0.6745   -0.8404    2.7975 H   0  0  0  0  0  0  0  0  0  0  0  0
    0.3580    0.5045    2.2976 H   0  0  0  0  0  0  0  0  0  0  0  0
   -1.5835    1.0886    3.0370 C   0  0  0  0  0  0  0  0  0  0  0  0
   -1.6000    2.0534    2.5282 H   0  0  0  0  0  0  0  0  0  0  0  0
   -2.5957    0.6801    3.0594 H   0  0  0  0  0  0  0  0  0  0  0  0
   -1.0834    1.2861    4.4747 C   0  0  0  0  0  0  0  0  0  0  0  0
   -1.0538    0.3162    4.9768 H   0  0  0  0  0  0  0  0  0  0  0  0
   -0.0749    1.7034    4.4467 H   0  0  0  0  0  0  0  0  0  0  0  0
   -2.0150    2.2341    5.2404 C   0  0  0  0  0  0  0  0  0  0  0  0
   -2.0369    3.1960    4.7179 H   0  0  0  0  0  0  0  0  0  0  0  0
   -3.0270    1.8185    5.2200 H   0  0  0  0  0  0  0  0  0  0  0  0
   -1.5673    2.4242    6.6432 N   0  3  0  0  0  0  0  0  0  0  0  0
   -0.6352    2.8185    6.6685 H   0  0  0  0  0  0  0  0  0  0  0  0
   -2.1921    3.0514    7.1343 H   0  0  0  0  0  0  0  0  0  0  0  0
   -1.5537    1.5377    7.1338 H   0  0  0  0  0  0  0  0  0  0  0  0
   -0.0294   -0.8708    0.0227 C   0  0  0  0  0  0  0  0  0  0  0  0
   -0.2027   -2.0552   -0.2393 O   0  0  0  0  0  0  0  0  0  0  0  0
    1.0736   -0.1993   -0.3237 N   0  0  0  0  0  0  0  0  0  0  0  0
    1.1192    0.7799   -0.0952 H   0  0  0  0  0  0  0  0  0  0  0  0
    2.1812   -0.7795   -1.0854 C   0  0  0  0  0  0  0  0  0  0  0  0
    1.8275   -1.0921   -2.0702 H   0  0  0  0  0  0  0  0  0  0  0  0
    2.9809   -0.0488   -1.2114 H   0  0  0  0  0  0  0  0  0  0  0  0
    2.5731   -1.6569   -0.5662 H   0  0  0  0  0  0  0  0  0  0  0  0
  5  6  2  0  0  0  0
  5  7  1  0  0  0  0
  2  3  1  0  0  0  0
  2  4  1  0  0  0  0
  2  5  1  0  0  0  0
  1  2  1  0  0  0  0
 27 28  2  0  0  0  0
 27 29  1  0  0  0  0
 23 24  1  0  0  0  0
 23 25  1  0  0  0  0
 23 26  1  0  0  0  0
 20 21  1  0  0  0  0
 20 22  1  0  0  0  0
 20 23  1  0  0  0  0
 17 18  1  0  0  0  0
 17 19  1  0  0  0  0
 17 20  1  0  0  0  0
 14 15  1  0  0  0  0
 14 16  1  0  0  0  0
 14 17  1  0  0  0  0
 11 12  1  0  0  0  0
 11 13  1  0  0  0  0
 11 14  1  0  0  0  0
  9 10  1  0  0  0  0
  9 11  1  0  0  0  0
  9 27  1  0  0  0  0
  7  8  1  0  0  0  0
  7  9  1  0  0  0  0
 31 32  1  0  0  0  0
 31 33  1  0  0  0  0
 31 34  1  0  0  0  0
 29 30  1  0  0  0  0
 29 31  1  0  0  0  0
M  CHG  1  23   1
M  END
$$$$
default_name
  -OEChem-01062215323D

 34 33  0     1  0  0  0  0  0999 V2000
   -3.8899   -3.6747    1.6490 H   0  0  0  0  0  0  0  0  0  0  0  0
   -3.9109   -2.6717    1.2250 C   0  0  0  0  0  0  0  0  0  0  0  0
   -4.6009   -2.0517    1.7950 H   0  0  0  0  0  0  0  0  0  0  0  0
   -4.2309   -2.7237    0.1860 H   0  0  0  0  0  0  0  0  0  0  0  0
   -2.5229   -2.0787    1.2980 C   0  0  0  0  0  0  0  0  0  0  0  0
   -1.5999   -2.7227    1.7810 O   0  0  0  0  0  0  0  0  0  0  0  0
   -2.3659   -0.8447    0.8120 N   0  0  0  0  0  0  0  0  0  0  0  0
   -3.1749   -0.3807    0.4220 H   0  0  0  0  0  0  0  0  0  0  0  0
   -1.0919   -0.1077    0.8170 C   0  0  1  0  0  0  0  0  0  0  0  0
   -1.3019    0.9408    0.5975 H   0  0  0  0  0  0  0  0  0  0  0  0
   -0.4744   -0.2070    2.2245 C   0  0  0  0  0  0  0  0  0  0  0  0
   -0.4314   -1.2588    2.5118 H   0  0  0  0  0  0  0  0  0  0  0  0
    0.5462    0.1799    2.1966 H   0  0  0  0  0  0  0  0  0  0  0  0
   -1.2747    0.5532    3.2931 C   0  0  0  0  0  0  0  0  0  0  0  0
   -1.3437    1.6070    3.0200 H   0  0  0  0  0  0  0  0  0  0  0  0
   -2.2810    0.1342    3.3542 H   0  0  0  0  0  0  0  0  0  0  0  0
   -0.5897    0.4315    4.6613 C   0  0  0  0  0  0  0  0  0  0  0  0
   -0.5087   -0.6257    4.9251 H   0  0  0  0  0  0  0  0  0  0  0  0
    0.4124    0.8601    4.5972 H   0  0  0  0  0  0  0  0  0  0  0  0
   -1.4009    1.1691    5.7339 C   0  0  0  0  0  0  0  0  0  0  0  0
   -1.4770    2.2232    5.4477 H   0  0  0  0  0  0  0  0  0  0  0  0
   -2.4126    0.7529    5.7522 H   0  0  0  0  0  0  0  0  0  0  0  0
   -0.7724    1.0472    7.0736 N   0  3  0  0  0  0  0  0  0  0  0  0
    0.1605    1.4403    7.0657 H   0  0  0  0  0  0  0  0  0  0  0  0
   -1.3195    1.5386    7.7694 H   0  0  0  0  0  0  0  0  0  0  0  0
   -0.7076    0.0736    7.3471 H   0  0  0  0  0  0  0  0  0  0  0  0
   -0.1521   -0.6568   -0.2588 C   0  0  0  0  0  0  0  0  0  0  0  0
   -0.5078   -1.6057   -0.9477 O   0  0  0  0  0  0  0  0  0  0  0  0
    1.0493   -0.0811   -0.3719 N   0  0  0  0  0  0  0  0  0  0  0  0
    1.2468    0.7138    0.2131 H   0  0  0  0  0  0  0  0  0  0  0  0
    2.0622   -0.4834   -1.3495 C   0  0  0  0  0  0  0  0  0  0  0  0
    1.6791   -0.3322   -2.3610 H   0  0  0  0  0  0  0  0  0  0  0  0
    2.9702    0.1072   -1.2224 H   0  0  0  0  0  0  0  0  0  0  0  0
    2.3009   -1.5421   -1.2268 H   0  0  0  0  0  0  0  0  0  0  0  0
  5  6  2  0  0  0  0
  5  7  1  0  0  0  0
  2  3  1  0  0  0  0
  2  4  1  0  0  0  0
  2  5  1  0  0  0  0
  1  2  1  0  0  0  0
 27 28  2  0  0  0  0
 27 29  1  0  0  0  0
 23 24  1  0  0  0  0
 23 25  1  0  0  0  0
 23 26  1  0  0  0  0
 20 21  1  0  0  0  0
 20 22  1  0  0  0  0
 20 23  1  0  0  0  0
 17 18  1  0  0  0  0
 17 19  1  0  0  0  0
 17 20  1  0  0  0  0
 14 15  1  0  0  0  0
 14 16  1  0  0  0  0
 14 17  1  0  0  0  0
 11 12  1  0  0  0  0
 11 13  1  0  0  0  0
 11 14  1  0  0  0  0
  9 10  1  0  0  0  0
  9 11  1  0  0  0  0
  9 27  1  0  0  0  0
  7  8  1  0  0  0  0
  7  9  1  0  0  0  0
 31 32  1  0  0  0  0
 31 33  1  0  0  0  0
 31 34  1  0  0  0  0
 29 30  1  0  0  0  0
 29 31  1  0  0  0  0
M  CHG  1  23   1
M  END
$$$$
default_name
  -OEChem-01062215323D

 34 33  0     1  0  0  0  0  0999 V2000
   -3.8899   -3.6747    1.6490 H   0  0  0  0  0  0  0  0  0  0  0  0
   -3.9109   -2.6717    1.2250 C   0  0  0  0  0  0  0  0  0  0  0  0
   -4.6009   -2.0517    1.7950 H   0  0  0  0  0  0  0  0  0  0  0  0
   -4.2309   -2.7237    0.1860 H   0  0  0  0  0  0  0  0  0  0  0  0
   -2.5229   -2.0787    1.2980 C   0  0  0  0  0  0  0  0  0  0  0  0
   -1.5999   -2.7227    1.7810 O   0  0  0  0  0  0  0  0  0  0  0  0
   -2.3659   -0.8447    0.8120 N   0  0  0  0  0  0  0  0  0  0  0  0
   -3.1749   -0.3807    0.4220 H   0  0  0  0  0  0  0  0  0  0  0  0
   -1.0919   -0.1077    0.8170 C   0  0  1  0  0  0  0  0  0  0  0  0
   -1.3019    0.9408    0.5975 H   0  0  0  0  0  0  0  0  0  0  0  0
   -0.4744   -0.2070    2.2245 C   0  0  0  0  0  0  0  0  0  0  0  0
   -0.4314   -1.2588    2.5118 H   0  0  0  0  0  0  0  0  0  0  0  0
    0.5462    0.1799    2.1966 H   0  0  0  0  0  0  0  0  0  0  0  0
   -1.2747    0.5532    3.2931 C   0  0  0  0  0  0  0  0  0  0  0  0
   -1.3437    1.6070    3.0200 H   0  0  0  0  0  0  0  0  0  0  0  0
   -2.2810    0.1342    3.3542 H   0  0  0  0  0  0  0  0  0  0  0  0
   -0.5897    0.4315    4.6613 C   0  0  0  0  0  0  0  0  0  0  0  0
   -0.5087   -0.6257    4.9251 H   0  0  0  0  0  0  0  0  0  0  0  0
    0.4124    0.8601    4.5972 H   0  0  0  0  0  0  0  0  0  0  0  0
   -1.4009    1.1691    5.7339 C   0  0  0  0  0  0  0  0  0  0  0  0
   -1.4770    2.2232    5.4477 H   0  0  0  0  0  0  0  0  0  0  0  0
   -2.4126    0.7529    5.7522 H   0  0  0  0  0  0  0  0  0  0  0  0
   -0.7724    1.0472    7.0736 N   0  3  0  0  0  0  0  0  0  0  0  0
    0.1605    1.4403    7.0657 H   0  0  0  0  0  0  0  0  0  0  0  0
   -1.3195    1.5386    7.7694 H   0  0  0  0  0  0  0  0  0  0  0  0
   -0.7076    0.0736    7.3471 H   0  0  0  0  0  0  0  0  0  0  0  0
   -0.1521   -0.6568   -0.2588 C   0  0  0  0  0  0  0  0  0  0  0  0
   -0.5917   -1.4066   -1.1226 O   0  0  0  0  0  0  0  0  0  0  0  0
    1.1364   -0.3088   -0.1796 N   0  0  0  0  0  0  0  0  0  0  0  0
    1.4054    0.3371    0.5439 H   0  0  0  0  0  0  0  0  0  0  0  0
    2.1628   -0.7441   -1.1286 C   0  0  0  0  0  0  0  0  0  0  0  0
    1.9230   -0.3727   -2.1272 H   0  0  0  0  0  0  0  0  0  0  0  0
    3.1408   -0.3621   -0.8337 H   0  0  0  0  0  0  0  0  0  0  0  0
    2.1985   -1.8350   -1.1667 H   0  0  0  0  0  0  0  0  0  0  0  0
  5  6  2  0  0  0  0
  5  7  1  0  0  0  0
  2  3  1  0  0  0  0
  2  4  1  0  0  0  0
  2  5  1  0  0  0  0
  1  2  1  0  0  0  0
 27 28  2  0  0  0  0
 27 29  1  0  0  0  0
 23 24  1  0  0  0  0
 23 25  1  0  0  0  0
 23 26  1  0  0  0  0
 20 21  1  0  0  0  0
 20 22  1  0  0  0  0
 20 23  1  0  0  0  0
 17 18  1  0  0  0  0
 17 19  1  0  0  0  0
 17 20  1  0  0  0  0
 14 15  1  0  0  0  0
 14 16  1  0  0  0  0
 14 17  1  0  0  0  0
 11 12  1  0  0  0  0
 11 13  1  0  0  0  0
 11 14  1  0  0  0  0
  9 10  1  0  0  0  0
  9 11  1  0  0  0  0
  9 27  1  0  0  0  0
  7  8  1  0  0  0  0
  7  9  1  0  0  0  0
 31 32  1  0  0  0  0
 31 33  1  0  0  0  0
 31 34  1  0  0  0  0
 29 30  1  0  0  0  0
 29 31  1  0  0  0  0
M  CHG  1  23   1
M  END
$$$$
default_name
  -OEChem-01062215323D

 34 33  0     1  0  0  0  0  0999 V2000
   -3.8899   -3.6747    1.6490 H   0  0  0  0  0  0  0  0  0  0  0  0
   -3.9109   -2.6717    1.2250 C   0  0  0  0  0  0  0  0  0  0  0  0
   -4.6009   -2.0517    1.7950 H   0  0  0  0  0  0  0  0  0  0  0  0
   -4.2309   -2.7237    0.1860 H   0  0  0  0  0  0  0  0  0  0  0  0
   -2.5229   -2.0787    1.2980 C   0  0  0  0  0  0  0  0  0  0  0  0
   -1.5999   -2.7227    1.7810 O   0  0  0  0  0  0  0  0  0  0  0  0
   -2.3659   -0.8447    0.8120 N   0  0  0  0  0  0  0  0  0  0  0  0
   -3.1749   -0.3807    0.4220 H   0  0  0  0  0  0  0  0  0  0  0  0
   -1.0919   -0.1077    0.8170 C   0  0  1  0  0  0  0  0  0  0  0  0
   -1.3019    0.9408    0.5975 H   0  0  0  0  0  0  0  0  0  0  0  0
   -0.4744   -0.2070    2.2245 C   0  0  0  0  0  0  0  0  0  0  0  0
   -0.4314   -1.2588    2.5118 H   0  0  0  0  0  0  0  0  0  0  0  0
    0.5462    0.1799    2.1966 H   0  0  0  0  0  0  0  0  0  0  0  0
   -1.2747    0.5532    3.2931 C   0  0  0  0  0  0  0  0  0  0  0  0
   -1.3437    1.6070    3.0200 H   0  0  0  0  0  0  0  0  0  0  0  0
   -2.2810    0.1342    3.3542 H   0  0  0  0  0  0  0  0  0  0  0  0
   -0.5897    0.4315    4.6613 C   0  0  0  0  0  0  0  0  0  0  0  0
   -0.5087   -0.6257    4.9251 H   0  0  0  0  0  0  0  0  0  0  0  0
    0.4124    0.8601    4.5972 H   0  0  0  0  0  0  0  0  0  0  0  0
   -1.4009    1.1691    5.7339 C   0  0  0  0  0  0  0  0  0  0  0  0
   -1.4770    2.2232    5.4477 H   0  0  0  0  0  0  0  0  0  0  0  0
   -2.4126    0.7529    5.7522 H   0  0  0  0  0  0  0  0  0  0  0  0
   -0.7724    1.0472    7.0736 N   0  3  0  0  0  0  0  0  0  0  0  0
    0.1605    1.4403    7.0657 H   0  0  0  0  0  0  0  0  0  0  0  0
   -1.3195    1.5386    7.7694 H   0  0  0  0  0  0  0  0  0  0  0  0
   -0.7076    0.0736    7.3471 H   0  0  0  0  0  0  0  0  0  0  0  0
   -0.1521   -0.6568   -0.2588 C   0  0  0  0  0  0  0  0  0  0  0  0
   -0.6202   -1.1712   -1.2677 O   0  0  0  0  0  0  0  0  0  0  0  0
    1.1613   -0.5751   -0.0220 N   0  0  0  0  0  0  0  0  0  0  0  0
    1.4593   -0.1081    0.8184 H   0  0  0  0  0  0  0  0  0  0  0  0
    2.1920   -1.0493   -0.9473 C   0  0  0  0  0  0  0  0  0  0  0  0
    2.1295   -0.4933   -1.8852 H   0  0  0  0  0  0  0  0  0  0  0  0
    3.1842   -0.9082   -0.5171 H   0  0  0  0  0  0  0  0  0  0  0  0
    2.0408   -2.1088   -1.1648 H   0  0  0  0  0  0  0  0  0  0  0  0
  5  6  2  0  0  0  0
  5  7  1  0  0  0  0
  2  3  1  0  0  0  0
  2  4  1  0  0  0  0
  2  5  1  0  0  0  0
  1  2  1  0  0  0  0
 27 28  2  0  0  0  0
 27 29  1  0  0  0  0
 23 24  1  0  0  0  0
 23 25  1  0  0  0  0
 23 26  1  0  0  0  0
 20 21  1  0  0  0  0
 20 22  1  0  0  0  0
 20 23  1  0  0  0  0
 17 18  1  0  0  0  0
 17 19  1  0  0  0  0
 17 20  1  0  0  0  0
 14 15  1  0  0  0  0
 14 16  1  0  0  0  0
 14 17  1  0  0  0  0
 11 12  1  0  0  0  0
 11 13  1  0  0  0  0
 11 14  1  0  0  0  0
  9 10  1  0  0  0  0
  9 11  1  0  0  0  0
  9 27  1  0  0  0  0
  7  8  1  0  0  0  0
  7  9  1  0  0  0  0
 31 32  1  0  0  0  0
 31 33  1  0  0  0  0
 31 34  1  0  0  0  0
 29 30  1  0  0  0  0
 29 31  1  0  0  0  0
M  CHG  1  23   1
M  END
$$$$
default_name
  -OEChem-01062215323D

 34 33  0     1  0  0  0  0  0999 V2000
   -3.8899   -3.6747    1.6490 H   0  0  0  0  0  0  0  0  0  0  0  0
   -3.9109   -2.6717    1.2250 C   0  0  0  0  0  0  0  0  0  0  0  0
   -4.6009   -2.0517    1.7950 H   0  0  0  0  0  0  0  0  0  0  0  0
   -4.2309   -2.7237    0.1860 H   0  0  0  0  0  0  0  0  0  0  0  0
   -2.5229   -2.0787    1.2980 C   0  0  0  0  0  0  0  0  0  0  0  0
   -1.5999   -2.7227    1.7810 O   0  0  0  0  0  0  0  0  0  0  0  0
   -2.3659   -0.8447    0.8120 N   0  0  0  0  0  0  0  0  0  0  0  0
   -3.1749   -0.3807    0.4220 H   0  0  0  0  0  0  0  0  0  0  0  0
   -1.0919   -0.1077    0.8170 C   0  0  1  0  0  0  0  0  0  0  0  0
   -1.3019    0.9408    0.5975 H   0  0  0  0  0  0  0  0  0  0  0  0
   -0.4744   -0.2070    2.2245 C   0  0  0  0  0  0  0  0  0  0  0  0
   -0.4314   -1.2588    2.5118 H   0  0  0  0  0  0  0  0  0  0  0  0
    0.5462    0.1799    2.1966 H   0  0  0  0  0  0  0  0  0  0  0  0
   -1.2747    0.5532    3.2931 C   0  0  0  0  0  0  0  0  0  0  0  0
   -1.3437    1.6070    3.0200 H   0  0  0  0  0  0  0  0  0  0  0  0
   -2.2810    0.1342    3.3542 H   0  0  0  0  0  0  0  0  0  0  0  0
   -0.5897    0.4315    4.6613 C   0  0  0  0  0  0  0  0  0  0  0  0
   -0.5087   -0.6257    4.9251 H   0  0  0  0  0  0  0  0  0  0  0  0
    0.4124    0.8601    4.5972 H   0  0  0  0  0  0  0  0  0  0  0  0
   -1.4009    1.1691    5.7339 C   0  0  0  0  0  0  0  0  0  0  0  0
   -1.4770    2.2232    5.4477 H   0  0  0  0  0  0  0  0  0  0  0  0
   -2.4126    0.7529    5.7522 H   0  0  0  0  0  0  0  0  0  0  0  0
   -0.7724    1.0472    7.0736 N   0  3  0  0  0  0  0  0  0  0  0  0
    0.1605    1.4403    7.0657 H   0  0  0  0  0  0  0  0  0  0  0  0
   -1.3195    1.5386    7.7694 H   0  0  0  0  0  0  0  0  0  0  0  0
   -0.7076    0.0736    7.3471 H   0  0  0  0  0  0  0  0  0  0  0  0
   -0.1521   -0.6568   -0.2588 C   0  0  0  0  0  0  0  0  0  0  0  0
   -0.5915   -0.9155   -1.3730 O   0  0  0  0  0  0  0  0  0  0  0  0
    1.1222   -0.8620    0.0903 N   0  0  0  0  0  0  0  0  0  0  0  0
    1.4050   -0.5916    1.0177 H   0  0  0  0  0  0  0  0  0  0  0  0
    2.1479   -1.3782   -0.8180 C   0  0  0  0  0  0  0  0  0  0  0  0
    2.2846   -0.6858   -1.6515 H   0  0  0  0  0  0  0  0  0  0  0  0
    3.0973   -1.4940   -0.2940 H   0  0  0  0  0  0  0  0  0  0  0  0
    1.8385   -2.3450   -1.2210 H   0  0  0  0  0  0  0  0  0  0  0  0
  5  6  2  0  0  0  0
  5  7  1  0  0  0  0
  2  3  1  0  0  0  0
  2  4  1  0  0  0  0
  2  5  1  0  0  0  0
  1  2  1  0  0  0  0
 27 28  2  0  0  0  0
 27 29  1  0  0  0  0
 23 24  1  0  0  0  0
 23 25  1  0  0  0  0
 23 26  1  0  0  0  0
 20 21  1  0  0  0  0
 20 22  1  0  0  0  0
 20 23  1  0  0  0  0
 17 18  1  0  0  0  0
 17 19  1  0  0  0  0
 17 20  1  0  0  0  0
 14 15  1  0  0  0  0
 14 16  1  0  0  0  0
 14 17  1  0  0  0  0
 11 12  1  0  0  0  0
 11 13  1  0  0  0  0
 11 14  1  0  0  0  0
  9 10  1  0  0  0  0
  9 11  1  0  0  0  0
  9 27  1  0  0  0  0
  7  8  1  0  0  0  0
  7  9  1  0  0  0  0
 31 32  1  0  0  0  0
 31 33  1  0  0  0  0
 31 34  1  0  0  0  0
 29 30  1  0  0  0  0
 29 31  1  0  0  0  0
M  CHG  1  23   1
M  END
$$$$
default_name
  -OEChem-01062215323D

 34 33  0     1  0  0  0  0  0999 V2000
   -3.8899   -3.6747    1.6490 H   0  0  0  0  0  0  0  0  0  0  0  0
   -3.9109   -2.6717    1.2250 C   0  0  0  0  0  0  0  0  0  0  0  0
   -4.6009   -2.0517    1.7950 H   0  0  0  0  0  0  0  0  0  0  0  0
   -4.2309   -2.7237    0.1860 H   0  0  0  0  0  0  0  0  0  0  0  0
   -2.5229   -2.0787    1.2980 C   0  0  0  0  0  0  0  0  0  0  0  0
   -1.5999   -2.7227    1.7810 O   0  0  0  0  0  0  0  0  0  0  0  0
   -2.3659   -0.8447    0.8120 N   0  0  0  0  0  0  0  0  0  0  0  0
   -3.1749   -0.3807    0.4220 H   0  0  0  0  0  0  0  0  0  0  0  0
   -1.0919   -0.1077    0.8170 C   0  0  1  0  0  0  0  0  0  0  0  0
   -1.3019    0.9408    0.5975 H   0  0  0  0  0  0  0  0  0  0  0  0
   -0.4744   -0.2070    2.2245 C   0  0  0  0  0  0  0  0  0  0  0  0
   -0.4314   -1.2588    2.5118 H   0  0  0  0  0  0  0  0  0  0  0  0
    0.5462    0.1799    2.1966 H   0  0  0  0  0  0  0  0  0  0  0  0
   -1.2747    0.5532    3.2931 C   0  0  0  0  0  0  0  0  0  0  0  0
   -1.3437    1.6070    3.0200 H   0  0  0  0  0  0  0  0  0  0  0  0
   -2.2810    0.1342    3.3542 H   0  0  0  0  0  0  0  0  0  0  0  0
   -0.5897    0.4315    4.6613 C   0  0  0  0  0  0  0  0  0  0  0  0
   -0.5087   -0.6257    4.9251 H   0  0  0  0  0  0  0  0  0  0  0  0
    0.4124    0.8601    4.5972 H   0  0  0  0  0  0  0  0  0  0  0  0
   -1.4009    1.1691    5.7339 C   0  0  0  0  0  0  0  0  0  0  0  0
   -1.4770    2.2232    5.4477 H   0  0  0  0  0  0  0  0  0  0  0  0
   -2.4126    0.7529    5.7522 H   0  0  0  0  0  0  0  0  0  0  0  0
   -0.7724    1.0472    7.0736 N   0  3  0  0  0  0  0  0  0  0  0  0
    0.1605    1.4403    7.0657 H   0  0  0  0  0  0  0  0  0  0  0  0
   -1.3195    1.5386    7.7694 H   0  0  0  0  0  0  0  0  0  0  0  0
   -0.7076    0.0736    7.3471 H   0  0  0  0  0  0  0  0  0  0  0  0
   -0.1521   -0.6568   -0.2588 C   0  0  0  0  0  0  0  0  0  0  0  0
   -0.5074   -0.6571   -1.4315 O   0  0  0  0  0  0  0  0  0  0  0  0
    1.0218   -1.1497    0.1495 N   0  0  0  0  0  0  0  0  0  0  0  0
    1.2460   -1.0805    1.1283 H   0  0  0  0  0  0  0  0  0  0  0  0
    2.0334   -1.7084   -0.7494 C   0  0  0  0  0  0  0  0  0  0  0  0
    2.3776   -0.9372   -1.4419 H   0  0  0  0  0  0  0  0  0  0  0  0
    2.8861   -2.0794   -0.1797 H   0  0  0  0  0  0  0  0  0  0  0  0
    1.6053   -2.5273   -1.3317 H   0  0  0  0  0  0  0  0  0  0  0  0
  5  6  2  0  0  0  0
  5  7  1  0  0  0  0
  2  3  1  0  0  0  0
  2  4  1  0  0  0  0
  2  5  1  0  0  0  0
  1  2  1  0  0  0  0
 27 28  2  0  0  0  0
 27 29  1  0  0  0  0
 23 24  1  0  0  0  0
 23 25  1  0  0  0  0
 23 26  1  0  0  0  0
 20 21  1  0  0  0  0
 20 22  1  0  0  0  0
 20 23  1  0  0  0  0
 17 18  1  0  0  0  0
 17 19  1  0  0  0  0
 17 20  1  0  0  0  0
 14 15  1  0  0  0  0
 14 16  1  0  0  0  0
 14 17  1  0  0  0  0
 11 12  1  0  0  0  0
 11 13  1  0  0  0  0
 11 14  1  0  0  0  0
  9 10  1  0  0  0  0
  9 11  1  0  0  0  0
  9 27  1  0  0  0  0
  7  8  1  0  0  0  0
  7  9  1  0  0  0  0
 31 32  1  0  0  0  0
 31 33  1  0  0  0  0
 31 34  1  0  0  0  0
 29 30  1  0  0  0  0
 29 31  1  0  0  0  0
M  CHG  1  23   1
M  END
$$$$
default_name
  -OEChem-01062215323D

 34 33  0     1  0  0  0  0  0999 V2000
   -3.8899   -3.6747    1.6490 H   0  0  0  0  0  0  0  0  0  0  0  0
   -3.9109   -2.6717    1.2250 C   0  0  0  0  0  0  0  0  0  0  0  0
   -4.6009   -2.0517    1.7950 H   0  0  0  0  0  0  0  0  0  0  0  0
   -4.2309   -2.7237    0.1860 H   0  0  0  0  0  0  0  0  0  0  0  0
   -2.5229   -2.0787    1.2980 C   0  0  0  0  0  0  0  0  0  0  0  0
   -1.5999   -2.7227    1.7810 O   0  0  0  0  0  0  0  0  0  0  0  0
   -2.3659   -0.8447    0.8120 N   0  0  0  0  0  0  0  0  0  0  0  0
   -3.1749   -0.3807    0.4220 H   0  0  0  0  0  0  0  0  0  0  0  0
   -1.0919   -0.1077    0.8170 C   0  0  1  0  0  0  0  0  0  0  0  0
   -1.3019    0.9408    0.5975 H   0  0  0  0  0  0  0  0  0  0  0  0
   -0.4744   -0.2070    2.2245 C   0  0  0  0  0  0  0  0  0  0  0  0
   -0.4314   -1.2588    2.5118 H   0  0  0  0  0  0  0  0  0  0  0  0
    0.5462    0.1799    2.1966 H   0  0  0  0  0  0  0  0  0  0  0  0
   -1.2747    0.5532    3.2931 C   0  0  0  0  0  0  0  0  0  0  0  0
   -1.3437    1.6070    3.0200 H   0  0  0  0  0  0  0  0  0  0  0  0
   -2.2810    0.1342    3.3542 H   0  0  0  0  0  0  0  0  0  0  0  0
   -0.5897    0.4315    4.6613 C   0  0  0  0  0  0  0  0  0  0  0  0
   -0.5087   -0.6257    4.9251 H   0  0  0  0  0  0  0  0  0  0  0  0
    0.4124    0.8601    4.5972 H   0  0  0  0  0  0  0  0  0  0  0  0
   -1.4009    1.1691    5.7339 C   0  0  0  0  0  0  0  0  0  0  0  0
   -1.4770    2.2232    5.4477 H   0  0  0  0  0  0  0  0  0  0  0  0
   -2.4126    0.7529    5.7522 H   0  0  0  0  0  0  0  0  0  0  0  0
   -0.7724    1.0472    7.0736 N   0  3  0  0  0  0  0  0  0  0  0  0
    0.1605    1.4403    7.0657 H   0  0  0  0  0  0  0  0  0  0  0  0
   -1.3195    1.5386    7.7694 H   0  0  0  0  0  0  0  0  0  0  0  0
   -0.7076    0.0736    7.3471 H   0  0  0  0  0  0  0  0  0  0  0  0
   -0.1521   -0.6568   -0.2588 C   0  0  0  0  0  0  0  0  0  0  0  0
   -0.3738   -0.4134   -1.4391 O   0  0  0  0  0  0  0  0  0  0  0  0
    0.8670   -1.4189    0.1516 N   0  0  0  0  0  0  0  0  0  0  0  0
    0.9932   -1.5413    1.1426 H   0  0  0  0  0  0  0  0  0  0  0  0
    1.8564   -2.0174   -0.7463 C   0  0  0  0  0  0  0  0  0  0  0  0
    2.4023   -1.2302   -1.2708 H   0  0  0  0  0  0  0  0  0  0  0  0
    2.5650   -2.6246   -0.1819 H   0  0  0  0  0  0  0  0  0  0  0  0
    1.3571   -2.6433   -1.4892 H   0  0  0  0  0  0  0  0  0  0  0  0
  5  6  2  0  0  0  0
  5  7  1  0  0  0  0
  2  3  1  0  0  0  0
  2  4  1  0  0  0  0
  2  5  1  0  0  0  0
  1  2  1  0  0  0  0
 27 28  2  0  0  0  0
 27 29  1  0  0  0  0
 23 24  1  0  0  0  0
 23 25  1  0  0  0  0
 23 26  1  0  0  0  0
 20 21  1  0  0  0  0
 20 22  1  0  0  0  0
 20 23  1  0  0  0  0
 17 18  1  0  0  0  0
 17 19  1  0  0  0  0
 17 20  1  0  0  0  0
 14 15  1  0  0  0  0
 14 16  1  0  0  0  0
 14 17  1  0  0  0  0
 11 12  1  0  0  0  0
 11 13  1  0  0  0  0
 11 14  1  0  0  0  0
  9 10  1  0  0  0  0
  9 11  1  0  0  0  0
  9 27  1  0  0  0  0
  7  8  1  0  0  0  0
  7  9  1  0  0  0  0
 31 32  1  0  0  0  0
 31 33  1  0  0  0  0
 31 34  1  0  0  0  0
 29 30  1  0  0  0  0
 29 31  1  0  0  0  0
M  CHG  1  23   1
M  END
$$$$
default_name
  -OEChem-01062215323D

 34 33  0     1  0  0  0  0  0999 V2000
   -3.8899   -3.6747    1.6490 H   0  0  0  0  0  0  0  0  0  0  0  0
   -3.9109   -2.6717    1.2250 C   0  0  0  0  0  0  0  0  0  0  0  0
   -4.6009   -2.0517    1.7950 H   0  0  0  0  0  0  0  0  0  0  0  0
   -4.2309   -2.7237    0.1860 H   0  0  0  0  0  0  0  0  0  0  0  0
   -2.5229   -2.0787    1.2980 C   0  0  0  0  0  0  0  0  0  0  0  0
   -1.5999   -2.7227    1.7810 O   0  0  0  0  0  0  0  0  0  0  0  0
   -2.3659   -0.8447    0.8120 N   0  0  0  0  0  0  0  0  0  0  0  0
   -3.1749   -0.3807    0.4220 H   0  0  0  0  0  0  0  0  0  0  0  0
   -1.0919   -0.1077    0.8170 C   0  0  1  0  0  0  0  0  0  0  0  0
   -1.3019    0.9408    0.5975 H   0  0  0  0  0  0  0  0  0  0  0  0
   -0.4744   -0.2070    2.2245 C   0  0  0  0  0  0  0  0  0  0  0  0
   -0.4314   -1.2588    2.5118 H   0  0  0  0  0  0  0  0  0  0  0  0
    0.5462    0.1799    2.1966 H   0  0  0  0  0  0  0  0  0  0  0  0
   -1.2747    0.5532    3.2931 C   0  0  0  0  0  0  0  0  0  0  0  0
   -1.3437    1.6070    3.0200 H   0  0  0  0  0  0  0  0  0  0  0  0
   -2.2810    0.1342    3.3542 H   0  0  0  0  0  0  0  0  0  0  0  0
   -0.5897    0.4315    4.6613 C   0  0  0  0  0  0  0  0  0  0  0  0
   -0.5087   -0.6257    4.9251 H   0  0  0  0  0  0  0  0  0  0  0  0
    0.4124    0.8601    4.5972 H   0  0  0  0  0  0  0  0  0  0  0  0
   -1.4009    1.1691    5.7339 C   0  0  0  0  0  0  0  0  0  0  0  0
   -1.4770    2.2232    5.4477 H   0  0  0  0  0  0  0  0  0  0  0  0
   -2.4126    0.7529    5.7522 H   0  0  0  0  0  0  0  0  0  0  0  0
   -0.7724    1.0472    7.0736 N   0  3  0  0  0  0  0  0  0  0  0  0
    0.1605    1.4403    7.0657 H   0  0  0  0  0  0  0  0  0  0  0  0
   -1.3195    1.5386    7.7694 H   0  0  0  0  0  0  0  0  0  0  0  0
   -0.7076    0.0736    7.3471 H   0  0  0  0  0  0  0  0  0  0  0  0
   -0.1521   -0.6568   -0.2588 C   0  0  0  0  0  0  0  0  0  0  0  0
   -0.1996   -0.2012   -1.3953 O   0  0  0  0  0  0  0  0  0  0  0  0
    0.6683   -1.6510    0.0965 N   0  0  0  0  0  0  0  0  0  0  0  0
    0.6639   -1.9427    1.0598 H   0  0  0  0  0  0  0  0  0  0  0  0
    1.6289   -2.2842   -0.8089 C   0  0  0  0  0  0  0  0  0  0  0  0
    2.3569   -1.5450   -1.1497 H   0  0  0  0  0  0  0  0  0  0  0  0
    2.1558   -3.0925   -0.3006 H   0  0  0  0  0  0  0  0  0  0  0  0
    1.1109   -2.6853   -1.6829 H   0  0  0  0  0  0  0  0  0  0  0  0
  5  6  2  0  0  0  0
  5  7  1  0  0  0  0
  2  3  1  0  0  0  0
  2  4  1  0  0  0  0
  2  5  1  0  0  0  0
  1  2  1  0  0  0  0
 27 28  2  0  0  0  0
 27 29  1  0  0  0  0
 23 24  1  0  0  0  0
 23 25  1  0  0  0  0
 23 26  1  0  0  0  0
 20 21  1  0  0  0  0
 20 22  1  0  0  0  0
 20 23  1  0  0  0  0
 17 18  1  0  0  0  0
 17 19  1  0  0  0  0
 17 20  1  0  0  0  0
 14 15  1  0  0  0  0
 14 16  1  0  0  0  0
 14 17  1  0  0  0  0
 11 12  1  0  0  0  0
 11 13  1  0  0  0  0
 11 14  1  0  0  0  0
  9 10  1  0  0  0  0
  9 11  1  0  0  0  0
  9 27  1  0  0  0  0
  7  8  1  0  0  0  0
  7  9  1  0  0  0  0
 31 32  1  0  0  0  0
 31 33  1  0  0  0  0
 31 34  1  0  0  0  0
 29 30  1  0  0  0  0
 29 31  1  0  0  0  0
M  CHG  1  23   1
M  END
$$$$
default_name
  -OEChem-01062215323D

 34 33  0     1  0  0  0  0  0999 V2000
   -3.8899   -3.6747    1.6490 H   0  0  0  0  0  0  0  0  0  0  0  0
   -3.9109   -2.6717    1.2250 C   0  0  0  0  0  0  0  0  0  0  0  0
   -4.6009   -2.0517    1.7950 H   0  0  0  0  0  0  0  0  0  0  0  0
   -4.2309   -2.7237    0.1860 H   0  0  0  0  0  0  0  0  0  0  0  0
   -2.5229   -2.0787    1.2980 C   0  0  0  0  0  0  0  0  0  0  0  0
   -1.5999   -2.7227    1.7810 O   0  0  0  0  0  0  0  0  0  0  0  0
   -2.3659   -0.8447    0.8120 N   0  0  0  0  0  0  0  0  0  0  0  0
   -3.1749   -0.3807    0.4220 H   0  0  0  0  0  0  0  0  0  0  0  0
   -1.0919   -0.1077    0.8170 C   0  0  1  0  0  0  0  0  0  0  0  0
   -1.3019    0.9408    0.5975 H   0  0  0  0  0  0  0  0  0  0  0  0
   -0.4744   -0.2070    2.2245 C   0  0  0  0  0  0  0  0  0  0  0  0
   -0.4314   -1.2588    2.5118 H   0  0  0  0  0  0  0  0  0  0  0  0
    0.5462    0.1799    2.1966 H   0  0  0  0  0  0  0  0  0  0  0  0
   -1.2747    0.5532    3.2931 C   0  0  0  0  0  0  0  0  0  0  0  0
   -1.3437    1.6070    3.0200 H   0  0  0  0  0  0  0  0  0  0  0  0
   -2.2810    0.1342    3.3542 H   0  0  0  0  0  0  0  0  0  0  0  0
   -0.5897    0.4315    4.6613 C   0  0  0  0  0  0  0  0  0  0  0  0
   -0.5087   -0.6257    4.9251 H   0  0  0  0  0  0  0  0  0  0  0  0
    0.4124    0.8601    4.5972 H   0  0  0  0  0  0  0  0  0  0  0  0
   -1.4009    1.1691    5.7339 C   0  0  0  0  0  0  0  0  0  0  0  0
   -1.4770    2.2232    5.4477 H   0  0  0  0  0  0  0  0  0  0  0  0
   -2.4126    0.7529    5.7522 H   0  0  0  0  0  0  0  0  0  0  0  0
   -0.7724    1.0472    7.0736 N   0  3  0  0  0  0  0  0  0  0  0  0
    0.1605    1.4403    7.0657 H   0  0  0  0  0  0  0  0  0  0  0  0
   -1.3195    1.5386    7.7694 H   0  0  0  0  0  0  0  0  0  0  0  0
   -0.7076    0.0736    7.3471 H   0  0  0  0  0  0  0  0  0  0  0  0
   -0.1521   -0.6568   -0.2588 C   0  0  0  0  0  0  0  0  0  0  0  0
    0.0031   -0.0349   -1.3031 O   0  0  0  0  0  0  0  0  0  0  0  0
    0.4392   -1.8303   -0.0121 N   0  0  0  0  0  0  0  0  0  0  0  0
    0.2804   -2.2574    0.8854 H   0  0  0  0  0  0  0  0  0  0  0  0
    1.3664   -2.4906   -0.9329 C   0  0  0  0  0  0  0  0  0  0  0  0
    2.2446   -1.8600   -1.0871 H   0  0  0  0  0  0  0  0  0  0  0  0
    1.6865   -3.4511   -0.5276 H   0  0  0  0  0  0  0  0  0  0  0  0
    0.8835   -2.6502   -1.8995 H   0  0  0  0  0  0  0  0  0  0  0  0
  5  6  2  0  0  0  0
  5  7  1  0  0  0  0
  2  3  1  0  0  0  0
  2  4  1  0  0  0  0
  2  5  1  0  0  0  0
  1  2  1  0  0  0  0
 27 28  2  0  0  0  0
 27 29  1  0  0  0  0
 23 24  1  0  0  0  0
 23 25  1  0  0  0  0
 23 26  1  0  0  0  0
 20 21  1  0  0  0  0
 20 22  1  0  0  0  0
 20 23  1  0  0  0  0
 17 18  1  0  0  0  0
 17 19  1  0  0  0  0
 17 20  1  0  0  0  0
 14 15  1  0  0  0  0
 14 16  1  0  0  0  0
 14 17  1  0  0  0  0
 11 12  1  0  0  0  0
 11 13  1  0  0  0  0
 11 14  1  0  0  0  0
  9 10  1  0  0  0  0
  9 11  1  0  0  0  0
  9 27  1  0  0  0  0
  7  8  1  0  0  0  0
  7  9  1  0  0  0  0
 31 32  1  0  0  0  0
 31 33  1  0  0  0  0
 31 34  1  0  0  0  0
 29 30  1  0  0  0  0
 29 31  1  0  0  0  0
M  CHG  1  23   1
M  END
$$$$
default_name
  -OEChem-01062215323D

 34 33  0     1  0  0  0  0  0999 V2000
   -3.8899   -3.6747    1.6490 H   0  0  0  0  0  0  0  0  0  0  0  0
   -3.9109   -2.6717    1.2250 C   0  0  0  0  0  0  0  0  0  0  0  0
   -4.6009   -2.0517    1.7950 H   0  0  0  0  0  0  0  0  0  0  0  0
   -4.2309   -2.7237    0.1860 H   0  0  0  0  0  0  0  0  0  0  0  0
   -2.5229   -2.0787    1.2980 C   0  0  0  0  0  0  0  0  0  0  0  0
   -1.5999   -2.7227    1.7810 O   0  0  0  0  0  0  0  0  0  0  0  0
   -2.3659   -0.8447    0.8120 N   0  0  0  0  0  0  0  0  0  0  0  0
   -3.1749   -0.3807    0.4220 H   0  0  0  0  0  0  0  0  0  0  0  0
   -1.0919   -0.1077    0.8170 C   0  0  1  0  0  0  0  0  0  0  0  0
   -1.3019    0.9408    0.5975 H   0  0  0  0  0  0  0  0  0  0  0  0
   -0.4744   -0.2070    2.2245 C   0  0  0  0  0  0  0  0  0  0  0  0
   -0.4314   -1.2588    2.5118 H   0  0  0  0  0  0  0  0  0  0  0  0
    0.5462    0.1799    2.1966 H   0  0  0  0  0  0  0  0  0  0  0  0
   -1.2747    0.5532    3.2931 C   0  0  0  0  0  0  0  0  0  0  0  0
   -1.3437    1.6070    3.0200 H   0  0  0  0  0  0  0  0  0  0  0  0
   -2.2810    0.1342    3.3542 H   0  0  0  0  0  0  0  0  0  0  0  0
   -0.5897    0.4315    4.6613 C   0  0  0  0  0  0  0  0  0  0  0  0
   -0.5087   -0.6257    4.9251 H   0  0  0  0  0  0  0  0  0  0  0  0
    0.4124    0.8601    4.5972 H   0  0  0  0  0  0  0  0  0  0  0  0
   -1.4009    1.1691    5.7339 C   0  0  0  0  0  0  0  0  0  0  0  0
   -1.4770    2.2232    5.4477 H   0  0  0  0  0  0  0  0  0  0  0  0
   -2.4126    0.7529    5.7522 H   0  0  0  0  0  0  0  0  0  0  0  0
   -0.7724    1.0472    7.0736 N   0  3  0  0  0  0  0  0  0  0  0  0
    0.1605    1.4403    7.0657 H   0  0  0  0  0  0  0  0  0  0  0  0
   -1.3195    1.5386    7.7694 H   0  0  0  0  0  0  0  0  0  0  0  0
   -0.7076    0.0736    7.3471 H   0  0  0  0  0  0  0  0  0  0  0  0
   -0.1521   -0.6568   -0.2588 C   0  0  0  0  0  0  0  0  0  0  0  0
    0.2206    0.0743   -1.1688 O   0  0  0  0  0  0  0  0  0  0  0  0
    0.1954   -1.9446   -0.1667 N   0  0  0  0  0  0  0  0  0  0  0  0
   -0.1311   -2.4638    0.6313 H   0  0  0  0  0  0  0  0  0  0  0  0
    1.0868   -2.6225   -1.1098 C   0  0  0  0  0  0  0  0  0  0  0  0
    2.0730   -2.1537   -1.0871 H   0  0  0  0  0  0  0  0  0  0  0  0
    1.1890   -3.6761   -0.8474 H   0  0  0  0  0  0  0  0  0  0  0  0
    0.6903   -2.5406   -2.1242 H   0  0  0  0  0  0  0  0  0  0  0  0
  5  6  2  0  0  0  0
  5  7  1  0  0  0  0
  2  3  1  0  0  0  0
  2  4  1  0  0  0  0
  2  5  1  0  0  0  0
  1  2  1  0  0  0  0
 27 28  2  0  0  0  0
 27 29  1  0  0  0  0
 23 24  1  0  0  0  0
 23 25  1  0  0  0  0
 23 26  1  0  0  0  0
 20 21  1  0  0  0  0
 20 22  1  0  0  0  0
 20 23  1  0  0  0  0
 17 18  1  0  0  0  0
 17 19  1  0  0  0  0
 17 20  1  0  0  0  0
 14 15  1  0  0  0  0
 14 16  1  0  0  0  0
 14 17  1  0  0  0  0
 11 12  1  0  0  0  0
 11 13  1  0  0  0  0
 11 14  1  0  0  0  0
  9 10  1  0  0  0  0
  9 11  1  0  0  0  0
  9 27  1  0  0  0  0
  7  8  1  0  0  0  0
  7  9  1  0  0  0  0
 31 32  1  0  0  0  0
 31 33  1  0  0  0  0
 31 34  1  0  0  0  0
 29 30  1  0  0  0  0
 29 31  1  0  0  0  0
M  CHG  1  23   1
M  END
$$$$
default_name
  -OEChem-01062215323D

 34 33  0     1  0  0  0  0  0999 V2000
   -3.8899   -3.6747    1.6490 H   0  0  0  0  0  0  0  0  0  0  0  0
   -3.9109   -2.6717    1.2250 C   0  0  0  0  0  0  0  0  0  0  0  0
   -4.6009   -2.0517    1.7950 H   0  0  0  0  0  0  0  0  0  0  0  0
   -4.2309   -2.7237    0.1860 H   0  0  0  0  0  0  0  0  0  0  0  0
   -2.5229   -2.0787    1.2980 C   0  0  0  0  0  0  0  0  0  0  0  0
   -1.5999   -2.7227    1.7810 O   0  0  0  0  0  0  0  0  0  0  0  0
   -2.3659   -0.8447    0.8120 N   0  0  0  0  0  0  0  0  0  0  0  0
   -3.1749   -0.3807    0.4220 H   0  0  0  0  0  0  0  0  0  0  0  0
   -1.0919   -0.1077    0.8170 C   0  0  1  0  0  0  0  0  0  0  0  0
   -1.3019    0.9408    0.5975 H   0  0  0  0  0  0  0  0  0  0  0  0
   -0.4744   -0.2070    2.2245 C   0  0  0  0  0  0  0  0  0  0  0  0
   -0.4314   -1.2588    2.5118 H   0  0  0  0  0  0  0  0  0  0  0  0
    0.5462    0.1799    2.1966 H   0  0  0  0  0  0  0  0  0  0  0  0
   -1.2747    0.5532    3.2931 C   0  0  0  0  0  0  0  0  0  0  0  0
   -1.3437    1.6070    3.0200 H   0  0  0  0  0  0  0  0  0  0  0  0
   -2.2810    0.1342    3.3542 H   0  0  0  0  0  0  0  0  0  0  0  0
   -0.5897    0.4315    4.6613 C   0  0  0  0  0  0  0  0  0  0  0  0
   -0.5087   -0.6257    4.9251 H   0  0  0  0  0  0  0  0  0  0  0  0
    0.4124    0.8601    4.5972 H   0  0  0  0  0  0  0  0  0  0  0  0
   -1.4009    1.1691    5.7339 C   0  0  0  0  0  0  0  0  0  0  0  0
   -1.4770    2.2232    5.4477 H   0  0  0  0  0  0  0  0  0  0  0  0
   -2.4126    0.7529    5.7522 H   0  0  0  0  0  0  0  0  0  0  0  0
   -0.7724    1.0472    7.0736 N   0  3  0  0  0  0  0  0  0  0  0  0
    0.1605    1.4403    7.0657 H   0  0  0  0  0  0  0  0  0  0  0  0
   -1.3195    1.5386    7.7694 H   0  0  0  0  0  0  0  0  0  0  0  0
   -0.7076    0.0736    7.3471 H   0  0  0  0  0  0  0  0  0  0  0  0
   -0.1521   -0.6568   -0.2588 C   0  0  0  0  0  0  0  0  0  0  0  0
    0.4381    0.1188   -1.0015 O   0  0  0  0  0  0  0  0  0  0  0  0
   -0.0465   -1.9861   -0.3569 N   0  0  0  0  0  0  0  0  0  0  0  0
   -0.5424   -2.5480    0.3149 H   0  0  0  0  0  0  0  0  0  0  0  0
    0.8092   -2.6709   -1.3277 C   0  0  0  0  0  0  0  0  0  0  0  0
    1.8537   -2.4063   -1.1497 H   0  0  0  0  0  0  0  0  0  0  0  0
    0.6972   -3.7520   -1.2383 H   0  0  0  0  0  0  0  0  0  0  0  0
    0.5445   -2.3638   -2.3418 H   0  0  0  0  0  0  0  0  0  0  0  0
  5  6  2  0  0  0  0
  5  7  1  0  0  0  0
  2  3  1  0  0  0  0
  2  4  1  0  0  0  0
  2  5  1  0  0  0  0
  1  2  1  0  0  0  0
 27 28  2  0  0  0  0
 27 29  1  0  0  0  0
 23 24  1  0  0  0  0
 23 25  1  0  0  0  0
 23 26  1  0  0  0  0
 20 21  1  0  0  0  0
 20 22  1  0  0  0  0
 20 23  1  0  0  0  0
 17 18  1  0  0  0  0
 17 19  1  0  0  0  0
 17 20  1  0  0  0  0
 14 15  1  0  0  0  0
 14 16  1  0  0  0  0
 14 17  1  0  0  0  0
 11 12  1  0  0  0  0
 11 13  1  0  0  0  0
 11 14  1  0  0  0  0
  9 10  1  0  0  0  0
  9 11  1  0  0  0  0
  9 27  1  0  0  0  0
  7  8  1  0  0  0  0
  7  9  1  0  0  0  0
 31 32  1  0  0  0  0
 31 33  1  0  0  0  0
 31 34  1  0  0  0  0
 29 30  1  0  0  0  0
 29 31  1  0  0  0  0
M  CHG  1  23   1
M  END
$$$$
default_name
  -OEChem-01062215323D

 34 33  0     1  0  0  0  0  0999 V2000
   -3.8899   -3.6747    1.6490 H   0  0  0  0  0  0  0  0  0  0  0  0
   -3.9109   -2.6717    1.2250 C   0  0  0  0  0  0  0  0  0  0  0  0
   -4.6009   -2.0517    1.7950 H   0  0  0  0  0  0  0  0  0  0  0  0
   -4.2309   -2.7237    0.1860 H   0  0  0  0  0  0  0  0  0  0  0  0
   -2.5229   -2.0787    1.2980 C   0  0  0  0  0  0  0  0  0  0  0  0
   -1.5999   -2.7227    1.7810 O   0  0  0  0  0  0  0  0  0  0  0  0
   -2.3659   -0.8447    0.8120 N   0  0  0  0  0  0  0  0  0  0  0  0
   -3.1749   -0.3807    0.4220 H   0  0  0  0  0  0  0  0  0  0  0  0
   -1.0919   -0.1077    0.8170 C   0  0  1  0  0  0  0  0  0  0  0  0
   -1.3019    0.9408    0.5975 H   0  0  0  0  0  0  0  0  0  0  0  0
   -0.4744   -0.2070    2.2245 C   0  0  0  0  0  0  0  0  0  0  0  0
   -0.4314   -1.2588    2.5118 H   0  0  0  0  0  0  0  0  0  0  0  0
    0.5462    0.1799    2.1966 H   0  0  0  0  0  0  0  0  0  0  0  0
   -1.2747    0.5532    3.2931 C   0  0  0  0  0  0  0  0  0  0  0  0
   -1.3437    1.6070    3.0200 H   0  0  0  0  0  0  0  0  0  0  0  0
   -2.2810    0.1342    3.3542 H   0  0  0  0  0  0  0  0  0  0  0  0
   -0.5897    0.4315    4.6613 C   0  0  0  0  0  0  0  0  0  0  0  0
   -0.5087   -0.6257    4.9251 H   0  0  0  0  0  0  0  0  0  0  0  0
    0.4124    0.8601    4.5972 H   0  0  0  0  0  0  0  0  0  0  0  0
   -1.4009    1.1691    5.7339 C   0  0  0  0  0  0  0  0  0  0  0  0
   -1.4770    2.2232    5.4477 H   0  0  0  0  0  0  0  0  0  0  0  0
   -2.4126    0.7529    5.7522 H   0  0  0  0  0  0  0  0  0  0  0  0
   -0.7724    1.0472    7.0736 N   0  3  0  0  0  0  0  0  0  0  0  0
    0.1605    1.4403    7.0657 H   0  0  0  0  0  0  0  0  0  0  0  0
   -1.3195    1.5386    7.7694 H   0  0  0  0  0  0  0  0  0  0  0  0
   -0.7076    0.0736    7.3471 H   0  0  0  0  0  0  0  0  0  0  0  0
   -0.1521   -0.6568   -0.2588 C   0  0  0  0  0  0  0  0  0  0  0  0
    0.6408    0.0956   -0.8126 O   0  0  0  0  0  0  0  0  0  0  0  0
   -0.2700   -1.9519   -0.5697 N   0  0  0  0  0  0  0  0  0  0  0  0
   -0.9257   -2.5042   -0.0423 H   0  0  0  0  0  0  0  0  0  0  0  0
    0.5525   -2.6325   -1.5715 C   0  0  0  0  0  0  0  0  0  0  0  0
    1.6018   -2.6004   -1.2707 H   0  0  0  0  0  0  0  0  0  0  0  0
    0.2447   -3.6737   -1.6736 H   0  0  0  0  0  0  0  0  0  0  0  0
    0.4561   -2.1319   -2.5375 H   0  0  0  0  0  0  0  0  0  0  0  0
  5  6  2  0  0  0  0
  5  7  1  0  0  0  0
  2  3  1  0  0  0  0
  2  4  1  0  0  0  0
  2  5  1  0  0  0  0
  1  2  1  0  0  0  0
 27 28  2  0  0  0  0
 27 29  1  0  0  0  0
 23 24  1  0  0  0  0
 23 25  1  0  0  0  0
 23 26  1  0  0  0  0
 20 21  1  0  0  0  0
 20 22  1  0  0  0  0
 20 23  1  0  0  0  0
 17 18  1  0  0  0  0
 17 19  1  0  0  0  0
 17 20  1  0  0  0  0
 14 15  1  0  0  0  0
 14 16  1  0  0  0  0
 14 17  1  0  0  0  0
 11 12  1  0  0  0  0
 11 13  1  0  0  0  0
 11 14  1  0  0  0  0
  9 10  1  0  0  0  0
  9 11  1  0  0  0  0
  9 27  1  0  0  0  0
  7  8  1  0  0  0  0
  7  9  1  0  0  0  0
 31 32  1  0  0  0  0
 31 33  1  0  0  0  0
 31 34  1  0  0  0  0
 29 30  1  0  0  0  0
 29 31  1  0  0  0  0
M  CHG  1  23   1
M  END
$$$$
default_name
  -OEChem-01062215323D

 34 33  0     1  0  0  0  0  0999 V2000
   -3.8899   -3.6747    1.6490 H   0  0  0  0  0  0  0  0  0  0  0  0
   -3.9109   -2.6717    1.2250 C   0  0  0  0  0  0  0  0  0  0  0  0
   -4.6009   -2.0517    1.7950 H   0  0  0  0  0  0  0  0  0  0  0  0
   -4.2309   -2.7237    0.1860 H   0  0  0  0  0  0  0  0  0  0  0  0
   -2.5229   -2.0787    1.2980 C   0  0  0  0  0  0  0  0  0  0  0  0
   -1.5999   -2.7227    1.7810 O   0  0  0  0  0  0  0  0  0  0  0  0
   -2.3659   -0.8447    0.8120 N   0  0  0  0  0  0  0  0  0  0  0  0
   -3.1749   -0.3807    0.4220 H   0  0  0  0  0  0  0  0  0  0  0  0
   -1.0919   -0.1077    0.8170 C   0  0  1  0  0  0  0  0  0  0  0  0
   -1.3019    0.9408    0.5975 H   0  0  0  0  0  0  0  0  0  0  0  0
   -0.4744   -0.2070    2.2245 C   0  0  0  0  0  0  0  0  0  0  0  0
   -0.4314   -1.2588    2.5118 H   0  0  0  0  0  0  0  0  0  0  0  0
    0.5462    0.1799    2.1966 H   0  0  0  0  0  0  0  0  0  0  0  0
   -1.2747    0.5532    3.2931 C   0  0  0  0  0  0  0  0  0  0  0  0
   -1.3437    1.6070    3.0200 H   0  0  0  0  0  0  0  0  0  0  0  0
   -2.2810    0.1342    3.3542 H   0  0  0  0  0  0  0  0  0  0  0  0
   -0.5897    0.4315    4.6613 C   0  0  0  0  0  0  0  0  0  0  0  0
   -0.5087   -0.6257    4.9251 H   0  0  0  0  0  0  0  0  0  0  0  0
    0.4124    0.8601    4.5972 H   0  0  0  0  0  0  0  0  0  0  0  0
   -1.4009    1.1691    5.7339 C   0  0  0  0  0  0  0  0  0  0  0  0
   -1.4770    2.2232    5.4477 H   0  0  0  0  0  0  0  0  0  0  0  0
   -2.4126    0.7529    5.7522 H   0  0  0  0  0  0  0  0  0  0  0  0
   -0.7724    1.0472    7.0736 N   0  3  0  0  0  0  0  0  0  0  0  0
    0.1605    1.4403    7.0657 H   0  0  0  0  0  0  0  0  0  0  0  0
   -1.3195    1.5386    7.7694 H   0  0  0  0  0  0  0  0  0  0  0  0
   -0.7076    0.0736    7.3471 H   0  0  0  0  0  0  0  0  0  0  0  0
   -0.1521   -0.6568   -0.2588 C   0  0  0  0  0  0  0  0  0  0  0  0
    0.8148    0.0063   -0.6150 O   0  0  0  0  0  0  0  0  0  0  0  0
   -0.4599   -1.8443   -0.7905 N   0  0  0  0  0  0  0  0  0  0  0  0
   -1.2548   -2.3353   -0.4160 H   0  0  0  0  0  0  0  0  0  0  0  0
    0.3341   -2.5099   -1.8249 C   0  0  0  0  0  0  0  0  0  0  0  0
    1.3345   -2.7228   -1.4418 H   0  0  0  0  0  0  0  0  0  0  0  0
   -0.1378   -3.4466   -2.1236 H   0  0  0  0  0  0  0  0  0  0  0  0
    0.4310   -1.8607   -2.6978 H   0  0  0  0  0  0  0  0  0  0  0  0
  5  6  2  0  0  0  0
  5  7  1  0  0  0  0
  2  3  1  0  0  0  0
  2  4  1  0  0  0  0
  2  5  1  0  0  0  0
  1  2  1  0  0  0  0
 27 28  2  0  0  0  0
 27 29  1  0  0  0  0
 23 24  1  0  0  0  0
 23 25  1  0  0  0  0
 23 26  1  0  0  0  0
 20 21  1  0  0  0  0
 20 22  1  0  0  0  0
 20 23  1  0  0  0  0
 17 18  1  0  0  0  0
 17 19  1  0  0  0  0
 17 20  1  0  0  0  0
 14 15  1  0  0  0  0
 14 16  1  0  0  0  0
 14 17  1  0  0  0  0
 11 12  1  0  0  0  0
 11 13  1  0  0  0  0
 11 14  1  0  0  0  0
  9 10  1  0  0  0  0
  9 11  1  0  0  0  0
  9 27  1  0  0  0  0
  7  8  1  0  0  0  0
  7  9  1  0  0  0  0
 31 32  1  0  0  0  0
 31 33  1  0  0  0  0
 31 34  1  0  0  0  0
 29 30  1  0  0  0  0
 29 31  1  0  0  0  0
M  CHG  1  23   1
M  END
$$$$
default_name
  -OEChem-01062215323D

 34 33  0     1  0  0  0  0  0999 V2000
   -3.8899   -3.6747    1.6490 H   0  0  0  0  0  0  0  0  0  0  0  0
   -3.9109   -2.6717    1.2250 C   0  0  0  0  0  0  0  0  0  0  0  0
   -4.6009   -2.0517    1.7950 H   0  0  0  0  0  0  0  0  0  0  0  0
   -4.2309   -2.7237    0.1860 H   0  0  0  0  0  0  0  0  0  0  0  0
   -2.5229   -2.0787    1.2980 C   0  0  0  0  0  0  0  0  0  0  0  0
   -1.5999   -2.7227    1.7810 O   0  0  0  0  0  0  0  0  0  0  0  0
   -2.3659   -0.8447    0.8120 N   0  0  0  0  0  0  0  0  0  0  0  0
   -3.1749   -0.3807    0.4220 H   0  0  0  0  0  0  0  0  0  0  0  0
   -1.0919   -0.1077    0.8170 C   0  0  1  0  0  0  0  0  0  0  0  0
   -1.3019    0.9408    0.5975 H   0  0  0  0  0  0  0  0  0  0  0  0
   -0.4744   -0.2070    2.2245 C   0  0  0  0  0  0  0  0  0  0  0  0
   -0.4314   -1.2588    2.5118 H   0  0  0  0  0  0  0  0  0  0  0  0
    0.5462    0.1799    2.1966 H   0  0  0  0  0  0  0  0  0  0  0  0
   -1.2747    0.5532    3.2931 C   0  0  0  0  0  0  0  0  0  0  0  0
   -1.3437    1.6070    3.0200 H   0  0  0  0  0  0  0  0  0  0  0  0
   -2.2810    0.1342    3.3542 H   0  0  0  0  0  0  0  0  0  0  0  0
   -0.5897    0.4315    4.6613 C   0  0  0  0  0  0  0  0  0  0  0  0
   -0.5087   -0.6257    4.9251 H   0  0  0  0  0  0  0  0  0  0  0  0
    0.4124    0.8601    4.5972 H   0  0  0  0  0  0  0  0  0  0  0  0
   -1.4009    1.1691    5.7339 C   0  0  0  0  0  0  0  0  0  0  0  0
   -1.4770    2.2232    5.4477 H   0  0  0  0  0  0  0  0  0  0  0  0
   -2.4126    0.7529    5.7522 H   0  0  0  0  0  0  0  0  0  0  0  0
   -0.7724    1.0472    7.0736 N   0  3  0  0  0  0  0  0  0  0  0  0
    0.1605    1.4403    7.0657 H   0  0  0  0  0  0  0  0  0  0  0  0
   -1.3195    1.5386    7.7694 H   0  0  0  0  0  0  0  0  0  0  0  0
   -0.7076    0.0736    7.3471 H   0  0  0  0  0  0  0  0  0  0  0  0
   -0.1521   -0.6568   -0.2588 C   0  0  0  0  0  0  0  0  0  0  0  0
    0.9483   -0.1430   -0.4222 O   0  0  0  0  0  0  0  0  0  0  0  0
   -0.6033   -1.6708   -1.0043 N   0  0  0  0  0  0  0  0  0  0  0  0
   -1.5073   -2.0529   -0.7807 H   0  0  0  0  0  0  0  0  0  0  0  0
    0.1691   -2.3116   -2.0703 C   0  0  0  0  0  0  0  0  0  0  0  0
    1.0698   -2.7652   -1.6513 H   0  0  0  0  0  0  0  0  0  0  0  0
   -0.4241   -3.0861   -2.5578 H   0  0  0  0  0  0  0  0  0  0  0  0
    0.4710   -1.5687   -2.8119 H   0  0  0  0  0  0  0  0  0  0  0  0
  5  6  2  0  0  0  0
  5  7  1  0  0  0  0
  2  3  1  0  0  0  0
  2  4  1  0  0  0  0
  2  5  1  0  0  0  0
  1  2  1  0  0  0  0
 27 28  2  0  0  0  0
 27 29  1  0  0  0  0
 23 24  1  0  0  0  0
 23 25  1  0  0  0  0
 23 26  1  0  0  0  0
 20 21  1  0  0  0  0
 20 22  1  0  0  0  0
 20 23  1  0  0  0  0
 17 18  1  0  0  0  0
 17 19  1  0  0  0  0
 17 20  1  0  0  0  0
 14 15  1  0  0  0  0
 14 16  1  0  0  0  0
 14 17  1  0  0  0  0
 11 12  1  0  0  0  0
 11 13  1  0  0  0  0
 11 14  1  0  0  0  0
  9 10  1  0  0  0  0
  9 11  1  0  0  0  0
  9 27  1  0  0  0  0
  7  8  1  0  0  0  0
  7  9  1  0  0  0  0
 31 32  1  0  0  0  0
 31 33  1  0  0  0  0
 31 34  1  0  0  0  0
 29 30  1  0  0  0  0
 29 31  1  0  0  0  0
M  CHG  1  23   1
M  END
$$$$
default_name
  -OEChem-01062215323D

 34 33  0     1  0  0  0  0  0999 V2000
   -3.8899   -3.6747    1.6490 H   0  0  0  0  0  0  0  0  0  0  0  0
   -3.9109   -2.6717    1.2250 C   0  0  0  0  0  0  0  0  0  0  0  0
   -4.6009   -2.0517    1.7950 H   0  0  0  0  0  0  0  0  0  0  0  0
   -4.2309   -2.7237    0.1860 H   0  0  0  0  0  0  0  0  0  0  0  0
   -2.5229   -2.0787    1.2980 C   0  0  0  0  0  0  0  0  0  0  0  0
   -1.5999   -2.7227    1.7810 O   0  0  0  0  0  0  0  0  0  0  0  0
   -2.3659   -0.8447    0.8120 N   0  0  0  0  0  0  0  0  0  0  0  0
   -3.1749   -0.3807    0.4220 H   0  0  0  0  0  0  0  0  0  0  0  0
   -1.0919   -0.1077    0.8170 C   0  0  1  0  0  0  0  0  0  0  0  0
   -1.3019    0.9408    0.5975 H   0  0  0  0  0  0  0  0  0  0  0  0
   -0.4744   -0.2070    2.2245 C   0  0  0  0  0  0  0  0  0  0  0  0
   -0.4314   -1.2588    2.5118 H   0  0  0  0  0  0  0  0  0  0  0  0
    0.5462    0.1799    2.1966 H   0  0  0  0  0  0  0  0  0  0  0  0
   -1.2747    0.5532    3.2931 C   0  0  0  0  0  0  0  0  0  0  0  0
   -1.3437    1.6070    3.0200 H   0  0  0  0  0  0  0  0  0  0  0  0
   -2.2810    0.1342    3.3542 H   0  0  0  0  0  0  0  0  0  0  0  0
   -0.5897    0.4315    4.6613 C   0  0  0  0  0  0  0  0  0  0  0  0
   -0.5087   -0.6257    4.9251 H   0  0  0  0  0  0  0  0  0  0  0  0
    0.4124    0.8601    4.5972 H   0  0  0  0  0  0  0  0  0  0  0  0
   -1.4009    1.1691    5.7339 C   0  0  0  0  0  0  0  0  0  0  0  0
   -1.4770    2.2232    5.4477 H   0  0  0  0  0  0  0  0  0  0  0  0
   -2.4126    0.7529    5.7522 H   0  0  0  0  0  0  0  0  0  0  0  0
   -0.7724    1.0472    7.0736 N   0  3  0  0  0  0  0  0  0  0  0  0
    0.1605    1.4403    7.0657 H   0  0  0  0  0  0  0  0  0  0  0  0
   -1.3195    1.5386    7.7694 H   0  0  0  0  0  0  0  0  0  0  0  0
   -0.7076    0.0736    7.3471 H   0  0  0  0  0  0  0  0  0  0  0  0
   -0.1521   -0.6568   -0.2588 C   0  0  0  0  0  0  0  0  0  0  0  0
    1.0321   -0.3421   -0.2473 O   0  0  0  0  0  0  0  0  0  0  0  0
   -0.6904   -1.4431   -1.1966 N   0  0  0  0  0  0  0  0  0  0  0  0
   -1.6659   -1.6763   -1.1116 H   0  0  0  0  0  0  0  0  0  0  0  0
    0.0685   -2.0509   -2.2912 C   0  0  0  0  0  0  0  0  0  0  0  0
    0.8259   -2.7248   -1.8851 H   0  0  0  0  0  0  0  0  0  0  0  0
   -0.5948   -2.6168   -2.9464 H   0  0  0  0  0  0  0  0  0  0  0  0
    0.5734   -1.2759   -2.8719 H   0  0  0  0  0  0  0  0  0  0  0  0
  5  6  2  0  0  0  0
  5  7  1  0  0  0  0
  2  3  1  0  0  0  0
  2  4  1  0  0  0  0
  2  5  1  0  0  0  0
  1  2  1  0  0  0  0
 27 28  2  0  0  0  0
 27 29  1  0  0  0  0
 23 24  1  0  0  0  0
 23 25  1  0  0  0  0
 23 26  1  0  0  0  0
 20 21  1  0  0  0  0
 20 22  1  0  0  0  0
 20 23  1  0  0  0  0
 17 18  1  0  0  0  0
 17 19  1  0  0  0  0
 17 20  1  0  0  0  0
 14 15  1  0  0  0  0
 14 16  1  0  0  0  0
 14 17  1  0  0  0  0
 11 12  1  0  0  0  0
 11 13  1  0  0  0  0
 11 14  1  0  0  0  0
  9 10  1  0  0  0  0
  9 11  1  0  0  0  0
  9 27  1  0  0  0  0
  7  8  1  0  0  0  0
  7  9  1  0  0  0  0
 31 32  1  0  0  0  0
 31 33  1  0  0  0  0
 31 34  1  0  0  0  0
 29 30  1  0  0  0  0
 29 31  1  0  0  0  0
M  CHG  1  23   1
M  END
$$$$
default_name
  -OEChem-01062215323D

 34 33  0     1  0  0  0  0  0999 V2000
   -3.8899   -3.6747    1.6490 H   0  0  0  0  0  0  0  0  0  0  0  0
   -3.9109   -2.6717    1.2250 C   0  0  0  0  0  0  0  0  0  0  0  0
   -4.6009   -2.0517    1.7950 H   0  0  0  0  0  0  0  0  0  0  0  0
   -4.2309   -2.7237    0.1860 H   0  0  0  0  0  0  0  0  0  0  0  0
   -2.5229   -2.0787    1.2980 C   0  0  0  0  0  0  0  0  0  0  0  0
   -1.5999   -2.7227    1.7810 O   0  0  0  0  0  0  0  0  0  0  0  0
   -2.3659   -0.8447    0.8120 N   0  0  0  0  0  0  0  0  0  0  0  0
   -3.1749   -0.3807    0.4220 H   0  0  0  0  0  0  0  0  0  0  0  0
   -1.0919   -0.1077    0.8170 C   0  0  1  0  0  0  0  0  0  0  0  0
   -1.3019    0.9408    0.5975 H   0  0  0  0  0  0  0  0  0  0  0  0
   -0.4744   -0.2070    2.2245 C   0  0  0  0  0  0  0  0  0  0  0  0
   -0.4314   -1.2588    2.5118 H   0  0  0  0  0  0  0  0  0  0  0  0
    0.5462    0.1799    2.1966 H   0  0  0  0  0  0  0  0  0  0  0  0
   -1.2747    0.5532    3.2931 C   0  0  0  0  0  0  0  0  0  0  0  0
   -1.3437    1.6070    3.0200 H   0  0  0  0  0  0  0  0  0  0  0  0
   -2.2810    0.1342    3.3542 H   0  0  0  0  0  0  0  0  0  0  0  0
   -0.5897    0.4315    4.6613 C   0  0  0  0  0  0  0  0  0  0  0  0
   -0.5087   -0.6257    4.9251 H   0  0  0  0  0  0  0  0  0  0  0  0
    0.4124    0.8601    4.5972 H   0  0  0  0  0  0  0  0  0  0  0  0
   -1.4009    1.1691    5.7339 C   0  0  0  0  0  0  0  0  0  0  0  0
   -1.4770    2.2232    5.4477 H   0  0  0  0  0  0  0  0  0  0  0  0
   -2.4126    0.7529    5.7522 H   0  0  0  0  0  0  0  0  0  0  0  0
   -0.7724    1.0472    7.0736 N   0  3  0  0  0  0  0  0  0  0  0  0
    0.1605    1.4403    7.0657 H   0  0  0  0  0  0  0  0  0  0  0  0
   -1.3195    1.5386    7.7694 H   0  0  0  0  0  0  0  0  0  0  0  0
   -0.7076    0.0736    7.3471 H   0  0  0  0  0  0  0  0  0  0  0  0
   -0.1521   -0.6568   -0.2588 C   0  0  0  0  0  0  0  0  0  0  0  0
    1.0606   -0.5775   -0.1022 O   0  0  0  0  0  0  0  0  0  0  0  0
   -0.7153   -1.1768   -1.3543 N   0  0  0  0  0  0  0  0  0  0  0  0
   -1.7199   -1.2310   -1.3860 H   0  0  0  0  0  0  0  0  0  0  0  0
    0.0393   -1.7458   -2.4725 C   0  0  0  0  0  0  0  0  0  0  0  0
    0.6194   -2.6041   -2.1271 H   0  0  0  0  0  0  0  0  0  0  0  0
   -0.6381   -2.0707   -3.2631 H   0  0  0  0  0  0  0  0  0  0  0  0
    0.7311   -1.0020   -2.8739 H   0  0  0  0  0  0  0  0  0  0  0  0
  5  6  2  0  0  0  0
  5  7  1  0  0  0  0
  2  3  1  0  0  0  0
  2  4  1  0  0  0  0
  2  5  1  0  0  0  0
  1  2  1  0  0  0  0
 27 28  2  0  0  0  0
 27 29  1  0  0  0  0
 23 24  1  0  0  0  0
 23 25  1  0  0  0  0
 23 26  1  0  0  0  0
 20 21  1  0  0  0  0
 20 22  1  0  0  0  0
 20 23  1  0  0  0  0
 17 18  1  0  0  0  0
 17 19  1  0  0  0  0
 17 20  1  0  0  0  0
 14 15  1  0  0  0  0
 14 16  1  0  0  0  0
 14 17  1  0  0  0  0
 11 12  1  0  0  0  0
 11 13  1  0  0  0  0
 11 14  1  0  0  0  0
  9 10  1  0  0  0  0
  9 11  1  0  0  0  0
  9 27  1  0  0  0  0
  7  8  1  0  0  0  0
  7  9  1  0  0  0  0
 31 32  1  0  0  0  0
 31 33  1  0  0  0  0
 31 34  1  0  0  0  0
 29 30  1  0  0  0  0
 29 31  1  0  0  0  0
M  CHG  1  23   1
M  END
$$$$
default_name
  -OEChem-01062215323D

 34 33  0     1  0  0  0  0  0999 V2000
   -3.8899   -3.6747    1.6490 H   0  0  0  0  0  0  0  0  0  0  0  0
   -3.9109   -2.6717    1.2250 C   0  0  0  0  0  0  0  0  0  0  0  0
   -4.6009   -2.0517    1.7950 H   0  0  0  0  0  0  0  0  0  0  0  0
   -4.2309   -2.7237    0.1860 H   0  0  0  0  0  0  0  0  0  0  0  0
   -2.5229   -2.0787    1.2980 C   0  0  0  0  0  0  0  0  0  0  0  0
   -1.5999   -2.7227    1.7810 O   0  0  0  0  0  0  0  0  0  0  0  0
   -2.3659   -0.8447    0.8120 N   0  0  0  0  0  0  0  0  0  0  0  0
   -3.1749   -0.3807    0.4220 H   0  0  0  0  0  0  0  0  0  0  0  0
   -1.0919   -0.1077    0.8170 C   0  0  1  0  0  0  0  0  0  0  0  0
   -1.3019    0.9408    0.5975 H   0  0  0  0  0  0  0  0  0  0  0  0
   -0.4744   -0.2070    2.2245 C   0  0  0  0  0  0  0  0  0  0  0  0
   -0.4314   -1.2588    2.5118 H   0  0  0  0  0  0  0  0  0  0  0  0
    0.5462    0.1799    2.1966 H   0  0  0  0  0  0  0  0  0  0  0  0
   -1.2747    0.5532    3.2931 C   0  0  0  0  0  0  0  0  0  0  0  0
   -1.3437    1.6070    3.0200 H   0  0  0  0  0  0  0  0  0  0  0  0
   -2.2810    0.1342    3.3542 H   0  0  0  0  0  0  0  0  0  0  0  0
   -0.5897    0.4315    4.6613 C   0  0  0  0  0  0  0  0  0  0  0  0
   -0.5087   -0.6257    4.9251 H   0  0  0  0  0  0  0  0  0  0  0  0
    0.4124    0.8601    4.5972 H   0  0  0  0  0  0  0  0  0  0  0  0
   -1.4009    1.1691    5.7339 C   0  0  0  0  0  0  0  0  0  0  0  0
   -1.4770    2.2232    5.4477 H   0  0  0  0  0  0  0  0  0  0  0  0
   -2.4126    0.7529    5.7522 H   0  0  0  0  0  0  0  0  0  0  0  0
   -0.7724    1.0472    7.0736 N   0  3  0  0  0  0  0  0  0  0  0  0
    0.1605    1.4403    7.0657 H   0  0  0  0  0  0  0  0  0  0  0  0
   -1.3195    1.5386    7.7694 H   0  0  0  0  0  0  0  0  0  0  0  0
   -0.7076    0.0736    7.3471 H   0  0  0  0  0  0  0  0  0  0  0  0
   -0.1521   -0.6568   -0.2588 C   0  0  0  0  0  0  0  0  0  0  0  0
    1.0319   -0.8331    0.0031 O   0  0  0  0  0  0  0  0  0  0  0  0
   -0.6762   -0.8900   -1.4665 N   0  0  0  0  0  0  0  0  0  0  0  0
   -1.6655   -0.7475   -1.5853 H   0  0  0  0  0  0  0  0  0  0  0  0
    0.0834   -1.4168   -2.6019 C   0  0  0  0  0  0  0  0  0  0  0  0
    0.4643   -2.4116   -2.3608 H   0  0  0  0  0  0  0  0  0  0  0  0
   -0.5512   -1.4850   -3.4861 H   0  0  0  0  0  0  0  0  0  0  0  0
    0.9335   -0.7659   -2.8176 H   0  0  0  0  0  0  0  0  0  0  0  0
  5  6  2  0  0  0  0
  5  7  1  0  0  0  0
  2  3  1  0  0  0  0
  2  4  1  0  0  0  0
  2  5  1  0  0  0  0
  1  2  1  0  0  0  0
 27 28  2  0  0  0  0
 27 29  1  0  0  0  0
 23 24  1  0  0  0  0
 23 25  1  0  0  0  0
 23 26  1  0  0  0  0
 20 21  1  0  0  0  0
 20 22  1  0  0  0  0
 20 23  1  0  0  0  0
 17 18  1  0  0  0  0
 17 19  1  0  0  0  0
 17 20  1  0  0  0  0
 14 15  1  0  0  0  0
 14 16  1  0  0  0  0
 14 17  1  0  0  0  0
 11 12  1  0  0  0  0
 11 13  1  0  0  0  0
 11 14  1  0  0  0  0
  9 10  1  0  0  0  0
  9 11  1  0  0  0  0
  9 27  1  0  0  0  0
  7  8  1  0  0  0  0
  7  9  1  0  0  0  0
 31 32  1  0  0  0  0
 31 33  1  0  0  0  0
 31 34  1  0  0  0  0
 29 30  1  0  0  0  0
 29 31  1  0  0  0  0
M  CHG  1  23   1
M  END
$$$$
default_name
  -OEChem-01062215323D

 34 33  0     1  0  0  0  0  0999 V2000
   -3.8899   -3.6747    1.6490 H   0  0  0  0  0  0  0  0  0  0  0  0
   -3.9109   -2.6717    1.2250 C   0  0  0  0  0  0  0  0  0  0  0  0
   -4.6009   -2.0517    1.7950 H   0  0  0  0  0  0  0  0  0  0  0  0
   -4.2309   -2.7237    0.1860 H   0  0  0  0  0  0  0  0  0  0  0  0
   -2.5229   -2.0787    1.2980 C   0  0  0  0  0  0  0  0  0  0  0  0
   -1.5999   -2.7227    1.7810 O   0  0  0  0  0  0  0  0  0  0  0  0
   -2.3659   -0.8447    0.8120 N   0  0  0  0  0  0  0  0  0  0  0  0
   -3.1749   -0.3807    0.4220 H   0  0  0  0  0  0  0  0  0  0  0  0
   -1.0919   -0.1077    0.8170 C   0  0  1  0  0  0  0  0  0  0  0  0
   -1.3019    0.9408    0.5975 H   0  0  0  0  0  0  0  0  0  0  0  0
   -0.4744   -0.2070    2.2245 C   0  0  0  0  0  0  0  0  0  0  0  0
   -0.4314   -1.2588    2.5118 H   0  0  0  0  0  0  0  0  0  0  0  0
    0.5462    0.1799    2.1966 H   0  0  0  0  0  0  0  0  0  0  0  0
   -1.2747    0.5532    3.2931 C   0  0  0  0  0  0  0  0  0  0  0  0
   -1.3437    1.6070    3.0200 H   0  0  0  0  0  0  0  0  0  0  0  0
   -2.2810    0.1342    3.3542 H   0  0  0  0  0  0  0  0  0  0  0  0
   -0.5897    0.4315    4.6613 C   0  0  0  0  0  0  0  0  0  0  0  0
   -0.5087   -0.6257    4.9251 H   0  0  0  0  0  0  0  0  0  0  0  0
    0.4124    0.8601    4.5972 H   0  0  0  0  0  0  0  0  0  0  0  0
   -1.4009    1.1691    5.7339 C   0  0  0  0  0  0  0  0  0  0  0  0
   -1.4770    2.2232    5.4477 H   0  0  0  0  0  0  0  0  0  0  0  0
   -2.4126    0.7529    5.7522 H   0  0  0  0  0  0  0  0  0  0  0  0
   -0.7724    1.0472    7.0736 N   0  3  0  0  0  0  0  0  0  0  0  0
    0.1605    1.4403    7.0657 H   0  0  0  0  0  0  0  0  0  0  0  0
   -1.3195    1.5386    7.7694 H   0  0  0  0  0  0  0  0  0  0  0  0
   -0.7076    0.0736    7.3471 H   0  0  0  0  0  0  0  0  0  0  0  0
   -0.1521   -0.6568   -0.2588 C   0  0  0  0  0  0  0  0  0  0  0  0
    0.9478   -1.0916    0.0616 O   0  0  0  0  0  0  0  0  0  0  0  0
   -0.5758   -0.6022   -1.5258 N   0  0  0  0  0  0  0  0  0  0  0  0
   -1.5065   -0.2587   -1.6959 H   0  0  0  0  0  0  0  0  0  0  0  0
    0.1979   -1.0866   -2.6704 C   0  0  0  0  0  0  0  0  0  0  0  0
    0.3713   -2.1602   -2.5704 H   0  0  0  0  0  0  0  0  0  0  0  0
   -0.3400   -0.8995   -3.6005 H   0  0  0  0  0  0  0  0  0  0  0  0
    1.1667   -0.5836   -2.7070 H   0  0  0  0  0  0  0  0  0  0  0  0
  5  6  2  0  0  0  0
  5  7  1  0  0  0  0
  2  3  1  0  0  0  0
  2  4  1  0  0  0  0
  2  5  1  0  0  0  0
  1  2  1  0  0  0  0
 27 28  2  0  0  0  0
 27 29  1  0  0  0  0
 23 24  1  0  0  0  0
 23 25  1  0  0  0  0
 23 26  1  0  0  0  0
 20 21  1  0  0  0  0
 20 22  1  0  0  0  0
 20 23  1  0  0  0  0
 17 18  1  0  0  0  0
 17 19  1  0  0  0  0
 17 20  1  0  0  0  0
 14 15  1  0  0  0  0
 14 16  1  0  0  0  0
 14 17  1  0  0  0  0
 11 12  1  0  0  0  0
 11 13  1  0  0  0  0
 11 14  1  0  0  0  0
  9 10  1  0  0  0  0
  9 11  1  0  0  0  0
  9 27  1  0  0  0  0
  7  8  1  0  0  0  0
  7  9  1  0  0  0  0
 31 32  1  0  0  0  0
 31 33  1  0  0  0  0
 31 34  1  0  0  0  0
 29 30  1  0  0  0  0
 29 31  1  0  0  0  0
M  CHG  1  23   1
M  END
$$$$
default_name
  -OEChem-01062215323D

 34 33  0     1  0  0  0  0  0999 V2000
   -3.8899   -3.6747    1.6490 H   0  0  0  0  0  0  0  0  0  0  0  0
   -3.9109   -2.6717    1.2250 C   0  0  0  0  0  0  0  0  0  0  0  0
   -4.6009   -2.0517    1.7950 H   0  0  0  0  0  0  0  0  0  0  0  0
   -4.2309   -2.7237    0.1860 H   0  0  0  0  0  0  0  0  0  0  0  0
   -2.5229   -2.0787    1.2980 C   0  0  0  0  0  0  0  0  0  0  0  0
   -1.5999   -2.7227    1.7810 O   0  0  0  0  0  0  0  0  0  0  0  0
   -2.3659   -0.8447    0.8120 N   0  0  0  0  0  0  0  0  0  0  0  0
   -3.1749   -0.3807    0.4220 H   0  0  0  0  0  0  0  0  0  0  0  0
   -1.0919   -0.1077    0.8170 C   0  0  1  0  0  0  0  0  0  0  0  0
   -1.3019    0.9408    0.5975 H   0  0  0  0  0  0  0  0  0  0  0  0
   -0.4744   -0.2070    2.2245 C   0  0  0  0  0  0  0  0  0  0  0  0
   -0.4314   -1.2588    2.5118 H   0  0  0  0  0  0  0  0  0  0  0  0
    0.5462    0.1799    2.1966 H   0  0  0  0  0  0  0  0  0  0  0  0
   -1.2747    0.5532    3.2931 C   0  0  0  0  0  0  0  0  0  0  0  0
   -1.3437    1.6070    3.0200 H   0  0  0  0  0  0  0  0  0  0  0  0
   -2.2810    0.1342    3.3542 H   0  0  0  0  0  0  0  0  0  0  0  0
   -0.5897    0.4315    4.6613 C   0  0  0  0  0  0  0  0  0  0  0  0
   -0.5087   -0.6257    4.9251 H   0  0  0  0  0  0  0  0  0  0  0  0
    0.4124    0.8601    4.5972 H   0  0  0  0  0  0  0  0  0  0  0  0
   -1.4009    1.1691    5.7339 C   0  0  0  0  0  0  0  0  0  0  0  0
   -1.4770    2.2232    5.4477 H   0  0  0  0  0  0  0  0  0  0  0  0
   -2.4126    0.7529    5.7522 H   0  0  0  0  0  0  0  0  0  0  0  0
   -0.7724    1.0472    7.0736 N   0  3  0  0  0  0  0  0  0  0  0  0
    0.1605    1.4403    7.0657 H   0  0  0  0  0  0  0  0  0  0  0  0
   -1.3195    1.5386    7.7694 H   0  0  0  0  0  0  0  0  0  0  0  0
   -0.7076    0.0736    7.3471 H   0  0  0  0  0  0  0  0  0  0  0  0
   -0.1521   -0.6568   -0.2588 C   0  0  0  0  0  0  0  0  0  0  0  0
    0.8142   -1.3352    0.0692 O   0  0  0  0  0  0  0  0  0  0  0  0
   -0.4210   -0.3330   -1.5279 N   0  0  0  0  0  0  0  0  0  0  0  0
   -1.2537    0.2021   -1.7103 H   0  0  0  0  0  0  0  0  0  0  0  0
    0.3749   -0.7776   -2.6735 C   0  0  0  0  0  0  0  0  0  0  0  0
    0.3466   -1.8672   -2.7415 H   0  0  0  0  0  0  0  0  0  0  0  0
   -0.0189   -0.3543   -3.5982 H   0  0  0  0  0  0  0  0  0  0  0  0
    1.4148   -0.4675   -2.5494 H   0  0  0  0  0  0  0  0  0  0  0  0
  5  6  2  0  0  0  0
  5  7  1  0  0  0  0
  2  3  1  0  0  0  0
  2  4  1  0  0  0  0
  2  5  1  0  0  0  0
  1  2  1  0  0  0  0
 27 28  2  0  0  0  0
 27 29  1  0  0  0  0
 23 24  1  0  0  0  0
 23 25  1  0  0  0  0
 23 26  1  0  0  0  0
 20 21  1  0  0  0  0
 20 22  1  0  0  0  0
 20 23  1  0  0  0  0
 17 18  1  0  0  0  0
 17 19  1  0  0  0  0
 17 20  1  0  0  0  0
 14 15  1  0  0  0  0
 14 16  1  0  0  0  0
 14 17  1  0  0  0  0
 11 12  1  0  0  0  0
 11 13  1  0  0  0  0
 11 14  1  0  0  0  0
  9 10  1  0  0  0  0
  9 11  1  0  0  0  0
  9 27  1  0  0  0  0
  7  8  1  0  0  0  0
  7  9  1  0  0  0  0
 31 32  1  0  0  0  0
 31 33  1  0  0  0  0
 31 34  1  0  0  0  0
 29 30  1  0  0  0  0
 29 31  1  0  0  0  0
M  CHG  1  23   1
M  END
$$$$
default_name
  -OEChem-01062215323D

 34 33  0     1  0  0  0  0  0999 V2000
   -3.8899   -3.6747    1.6490 H   0  0  0  0  0  0  0  0  0  0  0  0
   -3.9109   -2.6717    1.2250 C   0  0  0  0  0  0  0  0  0  0  0  0
   -4.6009   -2.0517    1.7950 H   0  0  0  0  0  0  0  0  0  0  0  0
   -4.2309   -2.7237    0.1860 H   0  0  0  0  0  0  0  0  0  0  0  0
   -2.5229   -2.0787    1.2980 C   0  0  0  0  0  0  0  0  0  0  0  0
   -1.5999   -2.7227    1.7810 O   0  0  0  0  0  0  0  0  0  0  0  0
   -2.3659   -0.8447    0.8120 N   0  0  0  0  0  0  0  0  0  0  0  0
   -3.1749   -0.3807    0.4220 H   0  0  0  0  0  0  0  0  0  0  0  0
   -1.0919   -0.1077    0.8170 C   0  0  1  0  0  0  0  0  0  0  0  0
   -1.3019    0.9408    0.5975 H   0  0  0  0  0  0  0  0  0  0  0  0
   -0.4744   -0.2070    2.2245 C   0  0  0  0  0  0  0  0  0  0  0  0
   -0.4314   -1.2588    2.5118 H   0  0  0  0  0  0  0  0  0  0  0  0
    0.5462    0.1799    2.1966 H   0  0  0  0  0  0  0  0  0  0  0  0
   -1.2747    0.5532    3.2931 C   0  0  0  0  0  0  0  0  0  0  0  0
   -1.3437    1.6070    3.0200 H   0  0  0  0  0  0  0  0  0  0  0  0
   -2.2810    0.1342    3.3542 H   0  0  0  0  0  0  0  0  0  0  0  0
   -0.5897    0.4315    4.6613 C   0  0  0  0  0  0  0  0  0  0  0  0
   -0.5087   -0.6257    4.9251 H   0  0  0  0  0  0  0  0  0  0  0  0
    0.4124    0.8601    4.5972 H   0  0  0  0  0  0  0  0  0  0  0  0
   -1.4009    1.1691    5.7339 C   0  0  0  0  0  0  0  0  0  0  0  0
   -1.4770    2.2232    5.4477 H   0  0  0  0  0  0  0  0  0  0  0  0
   -2.4126    0.7529    5.7522 H   0  0  0  0  0  0  0  0  0  0  0  0
   -0.7724    1.0472    7.0736 N   0  3  0  0  0  0  0  0  0  0  0  0
    0.1605    1.4403    7.0657 H   0  0  0  0  0  0  0  0  0  0  0  0
   -1.3195    1.5386    7.7694 H   0  0  0  0  0  0  0  0  0  0  0  0
   -0.7076    0.0736    7.3471 H   0  0  0  0  0  0  0  0  0  0  0  0
   -0.1521   -0.6568   -0.2588 C   0  0  0  0  0  0  0  0  0  0  0  0
    0.6400   -1.5475    0.0254 O   0  0  0  0  0  0  0  0  0  0  0  0
   -0.2223   -0.1009   -1.4728 N   0  0  0  0  0  0  0  0  0  0  0  0
   -0.9244    0.6036   -1.6274 H   0  0  0  0  0  0  0  0  0  0  0  0
    0.6024   -0.5108   -2.6109 C   0  0  0  0  0  0  0  0  0  0  0  0
    0.3920   -1.5525   -2.8625 H   0  0  0  0  0  0  0  0  0  0  0  0
    0.3903    0.1136   -3.4796 H   0  0  0  0  0  0  0  0  0  0  0  0
    1.6610   -0.4256   -2.3558 H   0  0  0  0  0  0  0  0  0  0  0  0
  5  6  2  0  0  0  0
  5  7  1  0  0  0  0
  2  3  1  0  0  0  0
  2  4  1  0  0  0  0
  2  5  1  0  0  0  0
  1  2  1  0  0  0  0
 27 28  2  0  0  0  0
 27 29  1  0  0  0  0
 23 24  1  0  0  0  0
 23 25  1  0  0  0  0
 23 26  1  0  0  0  0
 20 21  1  0  0  0  0
 20 22  1  0  0  0  0
 20 23  1  0  0  0  0
 17 18  1  0  0  0  0
 17 19  1  0  0  0  0
 17 20  1  0  0  0  0
 14 15  1  0  0  0  0
 14 16  1  0  0  0  0
 14 17  1  0  0  0  0
 11 12  1  0  0  0  0
 11 13  1  0  0  0  0
 11 14  1  0  0  0  0
  9 10  1  0  0  0  0
  9 11  1  0  0  0  0
  9 27  1  0  0  0  0
  7  8  1  0  0  0  0
  7  9  1  0  0  0  0
 31 32  1  0  0  0  0
 31 33  1  0  0  0  0
 31 34  1  0  0  0  0
 29 30  1  0  0  0  0
 29 31  1  0  0  0  0
M  CHG  1  23   1
M  END
$$$$
default_name
  -OEChem-01062215323D

 34 33  0     1  0  0  0  0  0999 V2000
   -3.8899   -3.6747    1.6490 H   0  0  0  0  0  0  0  0  0  0  0  0
   -3.9109   -2.6717    1.2250 C   0  0  0  0  0  0  0  0  0  0  0  0
   -4.6009   -2.0517    1.7950 H   0  0  0  0  0  0  0  0  0  0  0  0
   -4.2309   -2.7237    0.1860 H   0  0  0  0  0  0  0  0  0  0  0  0
   -2.5229   -2.0787    1.2980 C   0  0  0  0  0  0  0  0  0  0  0  0
   -1.5999   -2.7227    1.7810 O   0  0  0  0  0  0  0  0  0  0  0  0
   -2.3659   -0.8447    0.8120 N   0  0  0  0  0  0  0  0  0  0  0  0
   -3.1749   -0.3807    0.4220 H   0  0  0  0  0  0  0  0  0  0  0  0
   -1.0919   -0.1077    0.8170 C   0  0  1  0  0  0  0  0  0  0  0  0
   -1.3019    0.9408    0.5975 H   0  0  0  0  0  0  0  0  0  0  0  0
   -0.4744   -0.2070    2.2245 C   0  0  0  0  0  0  0  0  0  0  0  0
   -0.4314   -1.2588    2.5118 H   0  0  0  0  0  0  0  0  0  0  0  0
    0.5462    0.1799    2.1966 H   0  0  0  0  0  0  0  0  0  0  0  0
   -1.2747    0.5532    3.2931 C   0  0  0  0  0  0  0  0  0  0  0  0
   -1.3437    1.6070    3.0200 H   0  0  0  0  0  0  0  0  0  0  0  0
   -2.2810    0.1342    3.3542 H   0  0  0  0  0  0  0  0  0  0  0  0
   -0.5897    0.4315    4.6613 C   0  0  0  0  0  0  0  0  0  0  0  0
   -0.5087   -0.6257    4.9251 H   0  0  0  0  0  0  0  0  0  0  0  0
    0.4124    0.8601    4.5972 H   0  0  0  0  0  0  0  0  0  0  0  0
   -1.4009    1.1691    5.7339 C   0  0  0  0  0  0  0  0  0  0  0  0
   -1.4770    2.2232    5.4477 H   0  0  0  0  0  0  0  0  0  0  0  0
   -2.4126    0.7529    5.7522 H   0  0  0  0  0  0  0  0  0  0  0  0
   -0.7724    1.0472    7.0736 N   0  3  0  0  0  0  0  0  0  0  0  0
    0.1605    1.4403    7.0657 H   0  0  0  0  0  0  0  0  0  0  0  0
   -1.3195    1.5386    7.7694 H   0  0  0  0  0  0  0  0  0  0  0  0
   -0.7076    0.0736    7.3471 H   0  0  0  0  0  0  0  0  0  0  0  0
   -0.1521   -0.6568   -0.2588 C   0  0  0  0  0  0  0  0  0  0  0  0
    0.4373   -1.7138   -0.0668 O   0  0  0  0  0  0  0  0  0  0  0  0
    0.0068    0.0784   -1.3642 N   0  0  0  0  0  0  0  0  0  0  0  0
   -0.5409    0.9182   -1.4530 H   0  0  0  0  0  0  0  0  0  0  0  0
    0.8649   -0.3044   -2.4869 C   0  0  0  0  0  0  0  0  0  0  0  0
    0.5043   -1.2375   -2.9252 H   0  0  0  0  0  0  0  0  0  0  0  0
    0.8596    0.4722   -3.2526 H   0  0  0  0  0  0  0  0  0  0  0  0
    1.8884   -0.4606   -2.1392 H   0  0  0  0  0  0  0  0  0  0  0  0
  5  6  2  0  0  0  0
  5  7  1  0  0  0  0
  2  3  1  0  0  0  0
  2  4  1  0  0  0  0
  2  5  1  0  0  0  0
  1  2  1  0  0  0  0
 27 28  2  0  0  0  0
 27 29  1  0  0  0  0
 23 24  1  0  0  0  0
 23 25  1  0  0  0  0
 23 26  1  0  0  0  0
 20 21  1  0  0  0  0
 20 22  1  0  0  0  0
 20 23  1  0  0  0  0
 17 18  1  0  0  0  0
 17 19  1  0  0  0  0
 17 20  1  0  0  0  0
 14 15  1  0  0  0  0
 14 16  1  0  0  0  0
 14 17  1  0  0  0  0
 11 12  1  0  0  0  0
 11 13  1  0  0  0  0
 11 14  1  0  0  0  0
  9 10  1  0  0  0  0
  9 11  1  0  0  0  0
  9 27  1  0  0  0  0
  7  8  1  0  0  0  0
  7  9  1  0  0  0  0
 31 32  1  0  0  0  0
 31 33  1  0  0  0  0
 31 34  1  0  0  0  0
 29 30  1  0  0  0  0
 29 31  1  0  0  0  0
M  CHG  1  23   1
M  END
$$$$
default_name
  -OEChem-01062215323D

 34 33  0     1  0  0  0  0  0999 V2000
   -3.8899   -3.6747    1.6490 H   0  0  0  0  0  0  0  0  0  0  0  0
   -3.9109   -2.6717    1.2250 C   0  0  0  0  0  0  0  0  0  0  0  0
   -4.6009   -2.0517    1.7950 H   0  0  0  0  0  0  0  0  0  0  0  0
   -4.2309   -2.7237    0.1860 H   0  0  0  0  0  0  0  0  0  0  0  0
   -2.5229   -2.0787    1.2980 C   0  0  0  0  0  0  0  0  0  0  0  0
   -1.5999   -2.7227    1.7810 O   0  0  0  0  0  0  0  0  0  0  0  0
   -2.3659   -0.8447    0.8120 N   0  0  0  0  0  0  0  0  0  0  0  0
   -3.1749   -0.3807    0.4220 H   0  0  0  0  0  0  0  0  0  0  0  0
   -1.0919   -0.1077    0.8170 C   0  0  1  0  0  0  0  0  0  0  0  0
   -1.3019    0.9408    0.5975 H   0  0  0  0  0  0  0  0  0  0  0  0
   -0.4744   -0.2070    2.2245 C   0  0  0  0  0  0  0  0  0  0  0  0
   -0.4314   -1.2588    2.5118 H   0  0  0  0  0  0  0  0  0  0  0  0
    0.5462    0.1799    2.1966 H   0  0  0  0  0  0  0  0  0  0  0  0
   -1.2747    0.5532    3.2931 C   0  0  0  0  0  0  0  0  0  0  0  0
   -1.3437    1.6070    3.0200 H   0  0  0  0  0  0  0  0  0  0  0  0
   -2.2810    0.1342    3.3542 H   0  0  0  0  0  0  0  0  0  0  0  0
   -0.5897    0.4315    4.6613 C   0  0  0  0  0  0  0  0  0  0  0  0
   -0.5087   -0.6257    4.9251 H   0  0  0  0  0  0  0  0  0  0  0  0
    0.4124    0.8601    4.5972 H   0  0  0  0  0  0  0  0  0  0  0  0
   -1.4009    1.1691    5.7339 C   0  0  0  0  0  0  0  0  0  0  0  0
   -1.4770    2.2232    5.4477 H   0  0  0  0  0  0  0  0  0  0  0  0
   -2.4126    0.7529    5.7522 H   0  0  0  0  0  0  0  0  0  0  0  0
   -0.7724    1.0472    7.0736 N   0  3  0  0  0  0  0  0  0  0  0  0
    0.1605    1.4403    7.0657 H   0  0  0  0  0  0  0  0  0  0  0  0
   -1.3195    1.5386    7.7694 H   0  0  0  0  0  0  0  0  0  0  0  0
   -0.7076    0.0736    7.3471 H   0  0  0  0  0  0  0  0  0  0  0  0
   -0.1521   -0.6568   -0.2588 C   0  0  0  0  0  0  0  0  0  0  0  0
    0.2198   -1.8230   -0.2011 O   0  0  0  0  0  0  0  0  0  0  0  0
    0.2505    0.1927   -1.2095 N   0  0  0  0  0  0  0  0  0  0  0  0
   -0.1295    1.1247   -1.1989 H   0  0  0  0  0  0  0  0  0  0  0  0
    1.1445   -0.1725   -2.3100 C   0  0  0  0  0  0  0  0  0  0  0  0
    0.6759   -0.9437   -2.9252 H   0  0  0  0  0  0  0  0  0  0  0  0
    1.3571    0.6971   -2.9327 H   0  0  0  0  0  0  0  0  0  0  0  0
    2.0816   -0.5703   -1.9144 H   0  0  0  0  0  0  0  0  0  0  0  0
  5  6  2  0  0  0  0
  5  7  1  0  0  0  0
  2  3  1  0  0  0  0
  2  4  1  0  0  0  0
  2  5  1  0  0  0  0
  1  2  1  0  0  0  0
 27 28  2  0  0  0  0
 27 29  1  0  0  0  0
 23 24  1  0  0  0  0
 23 25  1  0  0  0  0
 23 26  1  0  0  0  0
 20 21  1  0  0  0  0
 20 22  1  0  0  0  0
 20 23  1  0  0  0  0
 17 18  1  0  0  0  0
 17 19  1  0  0  0  0
 17 20  1  0  0  0  0
 14 15  1  0  0  0  0
 14 16  1  0  0  0  0
 14 17  1  0  0  0  0
 11 12  1  0  0  0  0
 11 13  1  0  0  0  0
 11 14  1  0  0  0  0
  9 10  1  0  0  0  0
  9 11  1  0  0  0  0
  9 27  1  0  0  0  0
  7  8  1  0  0  0  0
  7  9  1  0  0  0  0
 31 32  1  0  0  0  0
 31 33  1  0  0  0  0
 31 34  1  0  0  0  0
 29 30  1  0  0  0  0
 29 31  1  0  0  0  0
M  CHG  1  23   1
M  END
$$$$
default_name
  -OEChem-01062215323D

 34 33  0     1  0  0  0  0  0999 V2000
   -3.8899   -3.6747    1.6490 H   0  0  0  0  0  0  0  0  0  0  0  0
   -3.9109   -2.6717    1.2250 C   0  0  0  0  0  0  0  0  0  0  0  0
   -4.6009   -2.0517    1.7950 H   0  0  0  0  0  0  0  0  0  0  0  0
   -4.2309   -2.7237    0.1860 H   0  0  0  0  0  0  0  0  0  0  0  0
   -2.5229   -2.0787    1.2980 C   0  0  0  0  0  0  0  0  0  0  0  0
   -1.5999   -2.7227    1.7810 O   0  0  0  0  0  0  0  0  0  0  0  0
   -2.3659   -0.8447    0.8120 N   0  0  0  0  0  0  0  0  0  0  0  0
   -3.1749   -0.3807    0.4220 H   0  0  0  0  0  0  0  0  0  0  0  0
   -1.0919   -0.1077    0.8170 C   0  0  1  0  0  0  0  0  0  0  0  0
   -1.3019    0.9408    0.5975 H   0  0  0  0  0  0  0  0  0  0  0  0
   -0.4744   -0.2070    2.2245 C   0  0  0  0  0  0  0  0  0  0  0  0
   -0.4314   -1.2588    2.5118 H   0  0  0  0  0  0  0  0  0  0  0  0
    0.5462    0.1799    2.1966 H   0  0  0  0  0  0  0  0  0  0  0  0
   -1.2747    0.5532    3.2931 C   0  0  0  0  0  0  0  0  0  0  0  0
   -1.3437    1.6070    3.0200 H   0  0  0  0  0  0  0  0  0  0  0  0
   -2.2810    0.1342    3.3542 H   0  0  0  0  0  0  0  0  0  0  0  0
   -0.5897    0.4315    4.6613 C   0  0  0  0  0  0  0  0  0  0  0  0
   -0.5087   -0.6257    4.9251 H   0  0  0  0  0  0  0  0  0  0  0  0
    0.4124    0.8601    4.5972 H   0  0  0  0  0  0  0  0  0  0  0  0
   -1.4009    1.1691    5.7339 C   0  0  0  0  0  0  0  0  0  0  0  0
   -1.4770    2.2232    5.4477 H   0  0  0  0  0  0  0  0  0  0  0  0
   -2.4126    0.7529    5.7522 H   0  0  0  0  0  0  0  0  0  0  0  0
   -0.7724    1.0472    7.0736 N   0  3  0  0  0  0  0  0  0  0  0  0
    0.1605    1.4403    7.0657 H   0  0  0  0  0  0  0  0  0  0  0  0
   -1.3195    1.5386    7.7694 H   0  0  0  0  0  0  0  0  0  0  0  0
   -0.7076    0.0736    7.3471 H   0  0  0  0  0  0  0  0  0  0  0  0
   -0.1521   -0.6568   -0.2588 C   0  0  0  0  0  0  0  0  0  0  0  0
    0.0023   -1.8675   -0.3684 O   0  0  0  0  0  0  0  0  0  0  0  0
    0.4924    0.2341   -1.0194 N   0  0  0  0  0  0  0  0  0  0  0  0
    0.2819    1.2088   -0.8825 H   0  0  0  0  0  0  0  0  0  0  0  0
    1.4221   -0.1241   -2.0922 C   0  0  0  0  0  0  0  0  0  0  0  0
    0.8952   -0.6911   -2.8626 H   0  0  0  0  0  0  0  0  0  0  0  0
    1.8489    0.7731   -2.5419 H   0  0  0  0  0  0  0  0  0  0  0  0
    2.2274   -0.7471   -1.6968 H   0  0  0  0  0  0  0  0  0  0  0  0
  5  6  2  0  0  0  0
  5  7  1  0  0  0  0
  2  3  1  0  0  0  0
  2  4  1  0  0  0  0
  2  5  1  0  0  0  0
  1  2  1  0  0  0  0
 27 28  2  0  0  0  0
 27 29  1  0  0  0  0
 23 24  1  0  0  0  0
 23 25  1  0  0  0  0
 23 26  1  0  0  0  0
 20 21  1  0  0  0  0
 20 22  1  0  0  0  0
 20 23  1  0  0  0  0
 17 18  1  0  0  0  0
 17 19  1  0  0  0  0
 17 20  1  0  0  0  0
 14 15  1  0  0  0  0
 14 16  1  0  0  0  0
 14 17  1  0  0  0  0
 11 12  1  0  0  0  0
 11 13  1  0  0  0  0
 11 14  1  0  0  0  0
  9 10  1  0  0  0  0
  9 11  1  0  0  0  0
  9 27  1  0  0  0  0
  7  8  1  0  0  0  0
  7  9  1  0  0  0  0
 31 32  1  0  0  0  0
 31 33  1  0  0  0  0
 31 34  1  0  0  0  0
 29 30  1  0  0  0  0
 29 31  1  0  0  0  0
M  CHG  1  23   1
M  END
$$$$
default_name
  -OEChem-01062215323D

 34 33  0     1  0  0  0  0  0999 V2000
   -3.8899   -3.6747    1.6490 H   0  0  0  0  0  0  0  0  0  0  0  0
   -3.9109   -2.6717    1.2250 C   0  0  0  0  0  0  0  0  0  0  0  0
   -4.6009   -2.0517    1.7950 H   0  0  0  0  0  0  0  0  0  0  0  0
   -4.2309   -2.7237    0.1860 H   0  0  0  0  0  0  0  0  0  0  0  0
   -2.5229   -2.0787    1.2980 C   0  0  0  0  0  0  0  0  0  0  0  0
   -1.5999   -2.7227    1.7810 O   0  0  0  0  0  0  0  0  0  0  0  0
   -2.3659   -0.8447    0.8120 N   0  0  0  0  0  0  0  0  0  0  0  0
   -3.1749   -0.3807    0.4220 H   0  0  0  0  0  0  0  0  0  0  0  0
   -1.0919   -0.1077    0.8170 C   0  0  1  0  0  0  0  0  0  0  0  0
   -1.3019    0.9408    0.5975 H   0  0  0  0  0  0  0  0  0  0  0  0
   -0.4744   -0.2070    2.2245 C   0  0  0  0  0  0  0  0  0  0  0  0
   -0.4314   -1.2588    2.5118 H   0  0  0  0  0  0  0  0  0  0  0  0
    0.5462    0.1799    2.1966 H   0  0  0  0  0  0  0  0  0  0  0  0
   -1.2747    0.5532    3.2931 C   0  0  0  0  0  0  0  0  0  0  0  0
   -1.3437    1.6070    3.0200 H   0  0  0  0  0  0  0  0  0  0  0  0
   -2.2810    0.1342    3.3542 H   0  0  0  0  0  0  0  0  0  0  0  0
   -0.5897    0.4315    4.6613 C   0  0  0  0  0  0  0  0  0  0  0  0
   -0.5087   -0.6257    4.9251 H   0  0  0  0  0  0  0  0  0  0  0  0
    0.4124    0.8601    4.5972 H   0  0  0  0  0  0  0  0  0  0  0  0
   -1.4009    1.1691    5.7339 C   0  0  0  0  0  0  0  0  0  0  0  0
   -1.4770    2.2232    5.4477 H   0  0  0  0  0  0  0  0  0  0  0  0
   -2.4126    0.7529    5.7522 H   0  0  0  0  0  0  0  0  0  0  0  0
   -0.7724    1.0472    7.0736 N   0  3  0  0  0  0  0  0  0  0  0  0
    0.1605    1.4403    7.0657 H   0  0  0  0  0  0  0  0  0  0  0  0
   -1.3195    1.5386    7.7694 H   0  0  0  0  0  0  0  0  0  0  0  0
   -0.7076    0.0736    7.3471 H   0  0  0  0  0  0  0  0  0  0  0  0
   -0.1521   -0.6568   -0.2588 C   0  0  0  0  0  0  0  0  0  0  0  0
   -0.2004   -1.8443   -0.5573 O   0  0  0  0  0  0  0  0  0  0  0  0
    0.7160    0.1999   -0.8066 N   0  0  0  0  0  0  0  0  0  0  0  0
    0.6652    1.1650   -0.5253 H   0  0  0  0  0  0  0  0  0  0  0  0
    1.6788   -0.1625   -1.8483 C   0  0  0  0  0  0  0  0  0  0  0  0
    1.1471   -0.4970   -2.7416 H   0  0  0  0  0  0  0  0  0  0  0  0
    2.3014    0.6948   -2.1066 H   0  0  0  0  0  0  0  0  0  0  0  0
    2.3158   -0.9790   -1.5012 H   0  0  0  0  0  0  0  0  0  0  0  0
  5  6  2  0  0  0  0
  5  7  1  0  0  0  0
  2  3  1  0  0  0  0
  2  4  1  0  0  0  0
  2  5  1  0  0  0  0
  1  2  1  0  0  0  0
 27 28  2  0  0  0  0
 27 29  1  0  0  0  0
 23 24  1  0  0  0  0
 23 25  1  0  0  0  0
 23 26  1  0  0  0  0
 20 21  1  0  0  0  0
 20 22  1  0  0  0  0
 20 23  1  0  0  0  0
 17 18  1  0  0  0  0
 17 19  1  0  0  0  0
 17 20  1  0  0  0  0
 14 15  1  0  0  0  0
 14 16  1  0  0  0  0
 14 17  1  0  0  0  0
 11 12  1  0  0  0  0
 11 13  1  0  0  0  0
 11 14  1  0  0  0  0
  9 10  1  0  0  0  0
  9 11  1  0  0  0  0
  9 27  1  0  0  0  0
  7  8  1  0  0  0  0
  7  9  1  0  0  0  0
 31 32  1  0  0  0  0
 31 33  1  0  0  0  0
 31 34  1  0  0  0  0
 29 30  1  0  0  0  0
 29 31  1  0  0  0  0
M  CHG  1  23   1
M  END
$$$$
default_name
  -OEChem-01062215323D

 34 33  0     1  0  0  0  0  0999 V2000
   -3.8899   -3.6747    1.6490 H   0  0  0  0  0  0  0  0  0  0  0  0
   -3.9109   -2.6717    1.2250 C   0  0  0  0  0  0  0  0  0  0  0  0
   -4.6009   -2.0517    1.7950 H   0  0  0  0  0  0  0  0  0  0  0  0
   -4.2309   -2.7237    0.1860 H   0  0  0  0  0  0  0  0  0  0  0  0
   -2.5229   -2.0787    1.2980 C   0  0  0  0  0  0  0  0  0  0  0  0
   -1.5999   -2.7227    1.7810 O   0  0  0  0  0  0  0  0  0  0  0  0
   -2.3659   -0.8447    0.8120 N   0  0  0  0  0  0  0  0  0  0  0  0
   -3.1749   -0.3807    0.4220 H   0  0  0  0  0  0  0  0  0  0  0  0
   -1.0919   -0.1077    0.8170 C   0  0  1  0  0  0  0  0  0  0  0  0
   -1.3019    0.9408    0.5975 H   0  0  0  0  0  0  0  0  0  0  0  0
   -0.4744   -0.2070    2.2245 C   0  0  0  0  0  0  0  0  0  0  0  0
   -0.4314   -1.2588    2.5118 H   0  0  0  0  0  0  0  0  0  0  0  0
    0.5462    0.1799    2.1966 H   0  0  0  0  0  0  0  0  0  0  0  0
   -1.2747    0.5532    3.2931 C   0  0  0  0  0  0  0  0  0  0  0  0
   -1.3437    1.6070    3.0200 H   0  0  0  0  0  0  0  0  0  0  0  0
   -2.2810    0.1342    3.3542 H   0  0  0  0  0  0  0  0  0  0  0  0
   -0.5897    0.4315    4.6613 C   0  0  0  0  0  0  0  0  0  0  0  0
   -0.5087   -0.6257    4.9251 H   0  0  0  0  0  0  0  0  0  0  0  0
    0.4124    0.8601    4.5972 H   0  0  0  0  0  0  0  0  0  0  0  0
   -1.4009    1.1691    5.7339 C   0  0  0  0  0  0  0  0  0  0  0  0
   -1.4770    2.2232    5.4477 H   0  0  0  0  0  0  0  0  0  0  0  0
   -2.4126    0.7529    5.7522 H   0  0  0  0  0  0  0  0  0  0  0  0
   -0.7724    1.0472    7.0736 N   0  3  0  0  0  0  0  0  0  0  0  0
    0.1605    1.4403    7.0657 H   0  0  0  0  0  0  0  0  0  0  0  0
   -1.3195    1.5386    7.7694 H   0  0  0  0  0  0  0  0  0  0  0  0
   -0.7076    0.0736    7.3471 H   0  0  0  0  0  0  0  0  0  0  0  0
   -0.1521   -0.6568   -0.2588 C   0  0  0  0  0  0  0  0  0  0  0  0
   -0.3744   -1.7550   -0.7549 O   0  0  0  0  0  0  0  0  0  0  0  0
    0.9059    0.0924   -0.5858 N   0  0  0  0  0  0  0  0  0  0  0  0
    0.9943    0.9961   -0.1516 H   0  0  0  0  0  0  0  0  0  0  0  0
    1.8972   -0.2851   -1.5950 C   0  0  0  0  0  0  0  0  0  0  0  0
    1.4144   -0.3746   -2.5705 H   0  0  0  0  0  0  0  0  0  0  0  0
    2.6839    0.4677   -1.6565 H   0  0  0  0  0  0  0  0  0  0  0  0
    2.3409   -1.2502   -1.3409 H   0  0  0  0  0  0  0  0  0  0  0  0
  5  6  2  0  0  0  0
  5  7  1  0  0  0  0
  2  3  1  0  0  0  0
  2  4  1  0  0  0  0
  2  5  1  0  0  0  0
  1  2  1  0  0  0  0
 27 28  2  0  0  0  0
 27 29  1  0  0  0  0
 23 24  1  0  0  0  0
 23 25  1  0  0  0  0
 23 26  1  0  0  0  0
 20 21  1  0  0  0  0
 20 22  1  0  0  0  0
 20 23  1  0  0  0  0
 17 18  1  0  0  0  0
 17 19  1  0  0  0  0
 17 20  1  0  0  0  0
 14 15  1  0  0  0  0
 14 16  1  0  0  0  0
 14 17  1  0  0  0  0
 11 12  1  0  0  0  0
 11 13  1  0  0  0  0
 11 14  1  0  0  0  0
  9 10  1  0  0  0  0
  9 11  1  0  0  0  0
  9 27  1  0  0  0  0
  7  8  1  0  0  0  0
  7  9  1  0  0  0  0
 31 32  1  0  0  0  0
 31 33  1  0  0  0  0
 31 34  1  0  0  0  0
 29 30  1  0  0  0  0
 29 31  1  0  0  0  0
M  CHG  1  23   1
M  END
$$$$
default_name
  -OEChem-01062215323D

 34 33  0     1  0  0  0  0  0999 V2000
   -3.8899   -3.6747    1.6490 H   0  0  0  0  0  0  0  0  0  0  0  0
   -3.9109   -2.6717    1.2250 C   0  0  0  0  0  0  0  0  0  0  0  0
   -4.6009   -2.0517    1.7950 H   0  0  0  0  0  0  0  0  0  0  0  0
   -4.2309   -2.7237    0.1860 H   0  0  0  0  0  0  0  0  0  0  0  0
   -2.5229   -2.0787    1.2980 C   0  0  0  0  0  0  0  0  0  0  0  0
   -1.5999   -2.7227    1.7810 O   0  0  0  0  0  0  0  0  0  0  0  0
   -2.3659   -0.8447    0.8120 N   0  0  0  0  0  0  0  0  0  0  0  0
   -3.1749   -0.3807    0.4220 H   0  0  0  0  0  0  0  0  0  0  0  0
   -1.0919   -0.1077    0.8170 C   0  0  1  0  0  0  0  0  0  0  0  0
   -1.3140    0.9599    0.8671 H   0  0  0  0  0  0  0  0  0  0  0  0
   -0.2985   -0.5101    2.0743 C   0  0  0  0  0  0  0  0  0  0  0  0
   -0.2332   -1.5986    2.1106 H   0  0  0  0  0  0  0  0  0  0  0  0
    0.7151   -0.1108    2.0019 H   0  0  0  0  0  0  0  0  0  0  0  0
   -0.9429   -0.0211    3.3805 C   0  0  0  0  0  0  0  0  0  0  0  0
   -1.0320    1.0659    3.3618 H   0  0  0  0  0  0  0  0  0  0  0  0
   -1.9384   -0.4589    3.4760 H   0  0  0  0  0  0  0  0  0  0  0  0
   -0.0879   -0.4355    4.5861 C   0  0  0  0  0  0  0  0  0  0  0  0
    0.0119   -1.5235    4.5935 H   0  0  0  0  0  0  0  0  0  0  0  0
    0.9033    0.0123    4.4905 H   0  0  0  0  0  0  0  0  0  0  0  0
   -0.7428    0.0304    5.8925 C   0  0  0  0  0  0  0  0  0  0  0  0
   -0.8407    1.1205    5.8621 H   0  0  0  0  0  0  0  0  0  0  0  0
   -1.7493   -0.3951    5.9479 H   0  0  0  0  0  0  0  0  0  0  0  0
    0.0524   -0.3786    7.0778 N   0  3  0  0  0  0  0  0  0  0  0  0
    0.9817    0.0208    7.0375 H   0  0  0  0  0  0  0  0  0  0  0  0
   -0.3929   -0.0642    7.9309 H   0  0  0  0  0  0  0  0  0  0  0  0
    0.1386   -1.3876    7.1154 H   0  0  0  0  0  0  0  0  0  0  0  0
   -0.3073   -0.3871   -0.4669 C   0  0  0  0  0  0  0  0  0  0  0  0
   -0.7625   -1.1631   -1.2989 O   0  0  0  0  0  0  0  0  0  0  0  0
    0.8772    0.2180   -0.6028 N   0  0  0  0  0  0  0  0  0  0  0  0
    1.1599    0.8646    0.1149 H   0  0  0  0  0  0  0  0  0  0  0  0
    1.7491    0.0608   -1.7684 C   0  0  0  0  0  0  0  0  0  0  0  0
    1.2401    0.4287   -2.6618 H   0  0  0  0  0  0  0  0  0  0  0  0
    2.6740    0.6220   -1.6308 H   0  0  0  0  0  0  0  0  0  0  0  0
    1.9869   -0.9947   -1.9180 H   0  0  0  0  0  0  0  0  0  0  0  0
  5  6  2  0  0  0  0
  5  7  1  0  0  0  0
  2  3  1  0  0  0  0
  2  4  1  0  0  0  0
  2  5  1  0  0  0  0
  1  2  1  0  0  0  0
 27 28  2  0  0  0  0
 27 29  1  0  0  0  0
 23 24  1  0  0  0  0
 23 25  1  0  0  0  0
 23 26  1  0  0  0  0
 20 21  1  0  0  0  0
 20 22  1  0  0  0  0
 20 23  1  0  0  0  0
 17 18  1  0  0  0  0
 17 19  1  0  0  0  0
 17 20  1  0  0  0  0
 14 15  1  0  0  0  0
 14 16  1  0  0  0  0
 14 17  1  0  0  0  0
 11 12  1  0  0  0  0
 11 13  1  0  0  0  0
 11 14  1  0  0  0  0
  9 10  1  0  0  0  0
  9 11  1  0  0  0  0
  9 27  1  0  0  0  0
  7  8  1  0  0  0  0
  7  9  1  0  0  0  0
 31 32  1  0  0  0  0
 31 33  1  0  0  0  0
 31 34  1  0  0  0  0
 29 30  1  0  0  0  0
 29 31  1  0  0  0  0
M  CHG  1  23   1
M  END
$$$$
default_name
  -OEChem-01062215323D

 34 33  0     1  0  0  0  0  0999 V2000
   -3.8899   -3.6747    1.6490 H   0  0  0  0  0  0  0  0  0  0  0  0
   -3.9109   -2.6717    1.2250 C   0  0  0  0  0  0  0  0  0  0  0  0
   -4.6009   -2.0517    1.7950 H   0  0  0  0  0  0  0  0  0  0  0  0
   -4.2309   -2.7237    0.1860 H   0  0  0  0  0  0  0  0  0  0  0  0
   -2.5229   -2.0787    1.2980 C   0  0  0  0  0  0  0  0  0  0  0  0
   -1.5999   -2.7227    1.7810 O   0  0  0  0  0  0  0  0  0  0  0  0
   -2.3659   -0.8447    0.8120 N   0  0  0  0  0  0  0  0  0  0  0  0
   -3.1749   -0.3807    0.4220 H   0  0  0  0  0  0  0  0  0  0  0  0
   -1.0919   -0.1077    0.8170 C   0  0  1  0  0  0  0  0  0  0  0  0
   -1.3140    0.9599    0.8671 H   0  0  0  0  0  0  0  0  0  0  0  0
   -0.2985   -0.5101    2.0743 C   0  0  0  0  0  0  0  0  0  0  0  0
   -0.2332   -1.5986    2.1106 H   0  0  0  0  0  0  0  0  0  0  0  0
    0.7151   -0.1108    2.0019 H   0  0  0  0  0  0  0  0  0  0  0  0
   -0.9429   -0.0211    3.3805 C   0  0  0  0  0  0  0  0  0  0  0  0
   -1.0320    1.0659    3.3618 H   0  0  0  0  0  0  0  0  0  0  0  0
   -1.9384   -0.4589    3.4760 H   0  0  0  0  0  0  0  0  0  0  0  0
   -0.0879   -0.4355    4.5861 C   0  0  0  0  0  0  0  0  0  0  0  0
    0.0119   -1.5235    4.5935 H   0  0  0  0  0  0  0  0  0  0  0  0
    0.9033    0.0123    4.4905 H   0  0  0  0  0  0  0  0  0  0  0  0
   -0.7428    0.0304    5.8925 C   0  0  0  0  0  0  0  0  0  0  0  0
   -0.8407    1.1205    5.8621 H   0  0  0  0  0  0  0  0  0  0  0  0
   -1.7493   -0.3951    5.9479 H   0  0  0  0  0  0  0  0  0  0  0  0
    0.0524   -0.3786    7.0778 N   0  3  0  0  0  0  0  0  0  0  0  0
    0.9817    0.0208    7.0375 H   0  0  0  0  0  0  0  0  0  0  0  0
   -0.3929   -0.0642    7.9309 H   0  0  0  0  0  0  0  0  0  0  0  0
    0.1386   -1.3876    7.1154 H   0  0  0  0  0  0  0  0  0  0  0  0
   -0.3073   -0.3871   -0.4669 C   0  0  0  0  0  0  0  0  0  0  0  0
   -0.8656   -0.9312   -1.4124 O   0  0  0  0  0  0  0  0  0  0  0  0
    0.9853   -0.0456   -0.4793 N   0  0  0  0  0  0  0  0  0  0  0  0
    1.3548    0.4260    0.3295 H   0  0  0  0  0  0  0  0  0  0  0  0
    1.8738   -0.2411   -1.6264 C   0  0  0  0  0  0  0  0  0  0  0  0
    1.5117    0.3407   -2.4767 H   0  0  0  0  0  0  0  0  0  0  0  0
    2.8870    0.0803   -1.3826 H   0  0  0  0  0  0  0  0  0  0  0  0
    1.8891   -1.2951   -1.9123 H   0  0  0  0  0  0  0  0  0  0  0  0
  5  6  2  0  0  0  0
  5  7  1  0  0  0  0
  2  3  1  0  0  0  0
  2  4  1  0  0  0  0
  2  5  1  0  0  0  0
  1  2  1  0  0  0  0
 27 28  2  0  0  0  0
 27 29  1  0  0  0  0
 23 24  1  0  0  0  0
 23 25  1  0  0  0  0
 23 26  1  0  0  0  0
 20 21  1  0  0  0  0
 20 22  1  0  0  0  0
 20 23  1  0  0  0  0
 17 18  1  0  0  0  0
 17 19  1  0  0  0  0
 17 20  1  0  0  0  0
 14 15  1  0  0  0  0
 14 16  1  0  0  0  0
 14 17  1  0  0  0  0
 11 12  1  0  0  0  0
 11 13  1  0  0  0  0
 11 14  1  0  0  0  0
  9 10  1  0  0  0  0
  9 11  1  0  0  0  0
  9 27  1  0  0  0  0
  7  8  1  0  0  0  0
  7  9  1  0  0  0  0
 31 32  1  0  0  0  0
 31 33  1  0  0  0  0
 31 34  1  0  0  0  0
 29 30  1  0  0  0  0
 29 31  1  0  0  0  0
M  CHG  1  23   1
M  END
$$$$
default_name
  -OEChem-01062215323D

 34 33  0     1  0  0  0  0  0999 V2000
   -3.8899   -3.6747    1.6490 H   0  0  0  0  0  0  0  0  0  0  0  0
   -3.9109   -2.6717    1.2250 C   0  0  0  0  0  0  0  0  0  0  0  0
   -4.6009   -2.0517    1.7950 H   0  0  0  0  0  0  0  0  0  0  0  0
   -4.2309   -2.7237    0.1860 H   0  0  0  0  0  0  0  0  0  0  0  0
   -2.5229   -2.0787    1.2980 C   0  0  0  0  0  0  0  0  0  0  0  0
   -1.5999   -2.7227    1.7810 O   0  0  0  0  0  0  0  0  0  0  0  0
   -2.3659   -0.8447    0.8120 N   0  0  0  0  0  0  0  0  0  0  0  0
   -3.1749   -0.3807    0.4220 H   0  0  0  0  0  0  0  0  0  0  0  0
   -1.0919   -0.1077    0.8170 C   0  0  1  0  0  0  0  0  0  0  0  0
   -1.3140    0.9599    0.8671 H   0  0  0  0  0  0  0  0  0  0  0  0
   -0.2985   -0.5101    2.0743 C   0  0  0  0  0  0  0  0  0  0  0  0
   -0.2332   -1.5986    2.1106 H   0  0  0  0  0  0  0  0  0  0  0  0
    0.7151   -0.1108    2.0019 H   0  0  0  0  0  0  0  0  0  0  0  0
   -0.9429   -0.0211    3.3805 C   0  0  0  0  0  0  0  0  0  0  0  0
   -1.0320    1.0659    3.3618 H   0  0  0  0  0  0  0  0  0  0  0  0
   -1.9384   -0.4589    3.4760 H   0  0  0  0  0  0  0  0  0  0  0  0
   -0.0879   -0.4355    4.5861 C   0  0  0  0  0  0  0  0  0  0  0  0
    0.0119   -1.5235    4.5935 H   0  0  0  0  0  0  0  0  0  0  0  0
    0.9033    0.0123    4.4905 H   0  0  0  0  0  0  0  0  0  0  0  0
   -0.7428    0.0304    5.8925 C   0  0  0  0  0  0  0  0  0  0  0  0
   -0.8407    1.1205    5.8621 H   0  0  0  0  0  0  0  0  0  0  0  0
   -1.7493   -0.3951    5.9479 H   0  0  0  0  0  0  0  0  0  0  0  0
    0.0524   -0.3786    7.0778 N   0  3  0  0  0  0  0  0  0  0  0  0
    0.9817    0.0208    7.0375 H   0  0  0  0  0  0  0  0  0  0  0  0
   -0.3929   -0.0642    7.9309 H   0  0  0  0  0  0  0  0  0  0  0  0
    0.1386   -1.3876    7.1154 H   0  0  0  0  0  0  0  0  0  0  0  0
   -0.3073   -0.3871   -0.4669 C   0  0  0  0  0  0  0  0  0  0  0  0
   -0.9094   -0.6697   -1.4960 O   0  0  0  0  0  0  0  0  0  0  0  0
    1.0267   -0.3400   -0.3899 N   0  0  0  0  0  0  0  0  0  0  0  0
    1.4377   -0.0685    0.4878 H   0  0  0  0  0  0  0  0  0  0  0  0
    1.9221   -0.5787   -1.5235 C   0  0  0  0  0  0  0  0  0  0  0  0
    1.7462    0.1722   -2.2967 H   0  0  0  0  0  0  0  0  0  0  0  0
    2.9635   -0.5221   -1.2048 H   0  0  0  0  0  0  0  0  0  0  0  0
    1.7292   -1.5649   -1.9514 H   0  0  0  0  0  0  0  0  0  0  0  0
  5  6  2  0  0  0  0
  5  7  1  0  0  0  0
  2  3  1  0  0  0  0
  2  4  1  0  0  0  0
  2  5  1  0  0  0  0
  1  2  1  0  0  0  0
 27 28  2  0  0  0  0
 27 29  1  0  0  0  0
 23 24  1  0  0  0  0
 23 25  1  0  0  0  0
 23 26  1  0  0  0  0
 20 21  1  0  0  0  0
 20 22  1  0  0  0  0
 20 23  1  0  0  0  0
 17 18  1  0  0  0  0
 17 19  1  0  0  0  0
 17 20  1  0  0  0  0
 14 15  1  0  0  0  0
 14 16  1  0  0  0  0
 14 17  1  0  0  0  0
 11 12  1  0  0  0  0
 11 13  1  0  0  0  0
 11 14  1  0  0  0  0
  9 10  1  0  0  0  0
  9 11  1  0  0  0  0
  9 27  1  0  0  0  0
  7  8  1  0  0  0  0
  7  9  1  0  0  0  0
 31 32  1  0  0  0  0
 31 33  1  0  0  0  0
 31 34  1  0  0  0  0
 29 30  1  0  0  0  0
 29 31  1  0  0  0  0
M  CHG  1  23   1
M  END
$$$$
default_name
  -OEChem-01062215323D

 34 33  0     1  0  0  0  0  0999 V2000
   -3.8899   -3.6747    1.6490 H   0  0  0  0  0  0  0  0  0  0  0  0
   -3.9109   -2.6717    1.2250 C   0  0  0  0  0  0  0  0  0  0  0  0
   -4.6009   -2.0517    1.7950 H   0  0  0  0  0  0  0  0  0  0  0  0
   -4.2309   -2.7237    0.1860 H   0  0  0  0  0  0  0  0  0  0  0  0
   -2.5229   -2.0787    1.2980 C   0  0  0  0  0  0  0  0  0  0  0  0
   -1.5999   -2.7227    1.7810 O   0  0  0  0  0  0  0  0  0  0  0  0
   -2.3659   -0.8447    0.8120 N   0  0  0  0  0  0  0  0  0  0  0  0
   -3.1749   -0.3807    0.4220 H   0  0  0  0  0  0  0  0  0  0  0  0
   -1.0919   -0.1077    0.8170 C   0  0  1  0  0  0  0  0  0  0  0  0
   -1.3140    0.9599    0.8671 H   0  0  0  0  0  0  0  0  0  0  0  0
   -0.2985   -0.5101    2.0743 C   0  0  0  0  0  0  0  0  0  0  0  0
   -0.2332   -1.5986    2.1106 H   0  0  0  0  0  0  0  0  0  0  0  0
    0.7151   -0.1108    2.0019 H   0  0  0  0  0  0  0  0  0  0  0  0
   -0.9429   -0.0211    3.3805 C   0  0  0  0  0  0  0  0  0  0  0  0
   -1.0320    1.0659    3.3618 H   0  0  0  0  0  0  0  0  0  0  0  0
   -1.9384   -0.4589    3.4760 H   0  0  0  0  0  0  0  0  0  0  0  0
   -0.0879   -0.4355    4.5861 C   0  0  0  0  0  0  0  0  0  0  0  0
    0.0119   -1.5235    4.5935 H   0  0  0  0  0  0  0  0  0  0  0  0
    0.9033    0.0123    4.4905 H   0  0  0  0  0  0  0  0  0  0  0  0
   -0.7428    0.0304    5.8925 C   0  0  0  0  0  0  0  0  0  0  0  0
   -0.8407    1.1205    5.8621 H   0  0  0  0  0  0  0  0  0  0  0  0
   -1.7493   -0.3951    5.9479 H   0  0  0  0  0  0  0  0  0  0  0  0
    0.0524   -0.3786    7.0778 N   0  3  0  0  0  0  0  0  0  0  0  0
    0.9817    0.0208    7.0375 H   0  0  0  0  0  0  0  0  0  0  0  0
   -0.3929   -0.0642    7.9309 H   0  0  0  0  0  0  0  0  0  0  0  0
    0.1386   -1.3876    7.1154 H   0  0  0  0  0  0  0  0  0  0  0  0
   -0.3073   -0.3871   -0.4669 C   0  0  0  0  0  0  0  0  0  0  0  0
   -0.8910   -0.3966   -1.5443 O   0  0  0  0  0  0  0  0  0  0  0  0
    0.9985   -0.6453   -0.3407 N   0  0  0  0  0  0  0  0  0  0  0  0
    1.4029   -0.5852    0.5790 H   0  0  0  0  0  0  0  0  0  0  0  0
    1.8905   -0.9288   -1.4665 C   0  0  0  0  0  0  0  0  0  0  0  0
    1.9275   -0.0654   -2.1342 H   0  0  0  0  0  0  0  0  0  0  0  0
    2.8982   -1.1442   -1.1093 H   0  0  0  0  0  0  0  0  0  0  0  0
    1.5180   -1.7855   -2.0324 H   0  0  0  0  0  0  0  0  0  0  0  0
  5  6  2  0  0  0  0
  5  7  1  0  0  0  0
  2  3  1  0  0  0  0
  2  4  1  0  0  0  0
  2  5  1  0  0  0  0
  1  2  1  0  0  0  0
 27 28  2  0  0  0  0
 27 29  1  0  0  0  0
 23 24  1  0  0  0  0
 23 25  1  0  0  0  0
 23 26  1  0  0  0  0
 20 21  1  0  0  0  0
 20 22  1  0  0  0  0
 20 23  1  0  0  0  0
 17 18  1  0  0  0  0
 17 19  1  0  0  0  0
 17 20  1  0  0  0  0
 14 15  1  0  0  0  0
 14 16  1  0  0  0  0
 14 17  1  0  0  0  0
 11 12  1  0  0  0  0
 11 13  1  0  0  0  0
 11 14  1  0  0  0  0
  9 10  1  0  0  0  0
  9 11  1  0  0  0  0
  9 27  1  0  0  0  0
  7  8  1  0  0  0  0
  7  9  1  0  0  0  0
 31 32  1  0  0  0  0
 31 33  1  0  0  0  0
 31 34  1  0  0  0  0
 29 30  1  0  0  0  0
 29 31  1  0  0  0  0
M  CHG  1  23   1
M  END
$$$$
default_name
  -OEChem-01062215323D

 34 33  0     1  0  0  0  0  0999 V2000
   -3.8899   -3.6747    1.6490 H   0  0  0  0  0  0  0  0  0  0  0  0
   -3.9109   -2.6717    1.2250 C   0  0  0  0  0  0  0  0  0  0  0  0
   -4.6009   -2.0517    1.7950 H   0  0  0  0  0  0  0  0  0  0  0  0
   -4.2309   -2.7237    0.1860 H   0  0  0  0  0  0  0  0  0  0  0  0
   -2.5229   -2.0787    1.2980 C   0  0  0  0  0  0  0  0  0  0  0  0
   -1.5999   -2.7227    1.7810 O   0  0  0  0  0  0  0  0  0  0  0  0
   -2.3659   -0.8447    0.8120 N   0  0  0  0  0  0  0  0  0  0  0  0
   -3.1749   -0.3807    0.4220 H   0  0  0  0  0  0  0  0  0  0  0  0
   -1.0919   -0.1077    0.8170 C   0  0  1  0  0  0  0  0  0  0  0  0
   -1.3140    0.9599    0.8671 H   0  0  0  0  0  0  0  0  0  0  0  0
   -0.2985   -0.5101    2.0743 C   0  0  0  0  0  0  0  0  0  0  0  0
   -0.2332   -1.5986    2.1106 H   0  0  0  0  0  0  0  0  0  0  0  0
    0.7151   -0.1108    2.0019 H   0  0  0  0  0  0  0  0  0  0  0  0
   -0.9429   -0.0211    3.3805 C   0  0  0  0  0  0  0  0  0  0  0  0
   -1.0320    1.0659    3.3618 H   0  0  0  0  0  0  0  0  0  0  0  0
   -1.9384   -0.4589    3.4760 H   0  0  0  0  0  0  0  0  0  0  0  0
   -0.0879   -0.4355    4.5861 C   0  0  0  0  0  0  0  0  0  0  0  0
    0.0119   -1.5235    4.5935 H   0  0  0  0  0  0  0  0  0  0  0  0
    0.9033    0.0123    4.4905 H   0  0  0  0  0  0  0  0  0  0  0  0
   -0.7428    0.0304    5.8925 C   0  0  0  0  0  0  0  0  0  0  0  0
   -0.8407    1.1205    5.8621 H   0  0  0  0  0  0  0  0  0  0  0  0
   -1.7493   -0.3951    5.9479 H   0  0  0  0  0  0  0  0  0  0  0  0
    0.0524   -0.3786    7.0778 N   0  3  0  0  0  0  0  0  0  0  0  0
    0.9817    0.0208    7.0375 H   0  0  0  0  0  0  0  0  0  0  0  0
   -0.3929   -0.0642    7.9309 H   0  0  0  0  0  0  0  0  0  0  0  0
    0.1386   -1.3876    7.1154 H   0  0  0  0  0  0  0  0  0  0  0  0
   -0.3073   -0.3871   -0.4669 C   0  0  0  0  0  0  0  0  0  0  0  0
   -0.8117   -0.1303   -1.5537 O   0  0  0  0  0  0  0  0  0  0  0  0
    0.9027   -0.9406   -0.3350 N   0  0  0  0  0  0  0  0  0  0  0  0
    1.2529   -1.0888    0.5969 H   0  0  0  0  0  0  0  0  0  0  0  0
    1.7813   -1.2678   -1.4595 C   0  0  0  0  0  0  0  0  0  0  0  0
    2.0435   -0.3558   -2.0001 H   0  0  0  0  0  0  0  0  0  0  0  0
    2.6955   -1.7436   -1.1027 H   0  0  0  0  0  0  0  0  0  0  0  0
    1.2699   -1.9420   -2.1500 H   0  0  0  0  0  0  0  0  0  0  0  0
  5  6  2  0  0  0  0
  5  7  1  0  0  0  0
  2  3  1  0  0  0  0
  2  4  1  0  0  0  0
  2  5  1  0  0  0  0
  1  2  1  0  0  0  0
 27 28  2  0  0  0  0
 27 29  1  0  0  0  0
 23 24  1  0  0  0  0
 23 25  1  0  0  0  0
 23 26  1  0  0  0  0
 20 21  1  0  0  0  0
 20 22  1  0  0  0  0
 20 23  1  0  0  0  0
 17 18  1  0  0  0  0
 17 19  1  0  0  0  0
 17 20  1  0  0  0  0
 14 15  1  0  0  0  0
 14 16  1  0  0  0  0
 14 17  1  0  0  0  0
 11 12  1  0  0  0  0
 11 13  1  0  0  0  0
 11 14  1  0  0  0  0
  9 10  1  0  0  0  0
  9 11  1  0  0  0  0
  9 27  1  0  0  0  0
  7  8  1  0  0  0  0
  7  9  1  0  0  0  0
 31 32  1  0  0  0  0
 31 33  1  0  0  0  0
 31 34  1  0  0  0  0
 29 30  1  0  0  0  0
 29 31  1  0  0  0  0
M  CHG  1  23   1
M  END
$$$$
default_name
  -OEChem-01062215323D

 34 33  0     1  0  0  0  0  0999 V2000
   -3.8899   -3.6747    1.6490 H   0  0  0  0  0  0  0  0  0  0  0  0
   -3.9109   -2.6717    1.2250 C   0  0  0  0  0  0  0  0  0  0  0  0
   -4.6009   -2.0517    1.7950 H   0  0  0  0  0  0  0  0  0  0  0  0
   -4.2309   -2.7237    0.1860 H   0  0  0  0  0  0  0  0  0  0  0  0
   -2.5229   -2.0787    1.2980 C   0  0  0  0  0  0  0  0  0  0  0  0
   -1.5999   -2.7227    1.7810 O   0  0  0  0  0  0  0  0  0  0  0  0
   -2.3659   -0.8447    0.8120 N   0  0  0  0  0  0  0  0  0  0  0  0
   -3.1749   -0.3807    0.4220 H   0  0  0  0  0  0  0  0  0  0  0  0
   -1.0919   -0.1077    0.8170 C   0  0  1  0  0  0  0  0  0  0  0  0
   -1.3140    0.9599    0.8671 H   0  0  0  0  0  0  0  0  0  0  0  0
   -0.2985   -0.5101    2.0743 C   0  0  0  0  0  0  0  0  0  0  0  0
   -0.2332   -1.5986    2.1106 H   0  0  0  0  0  0  0  0  0  0  0  0
    0.7151   -0.1108    2.0019 H   0  0  0  0  0  0  0  0  0  0  0  0
   -0.9429   -0.0211    3.3805 C   0  0  0  0  0  0  0  0  0  0  0  0
   -1.0320    1.0659    3.3618 H   0  0  0  0  0  0  0  0  0  0  0  0
   -1.9384   -0.4589    3.4760 H   0  0  0  0  0  0  0  0  0  0  0  0
   -0.0879   -0.4355    4.5861 C   0  0  0  0  0  0  0  0  0  0  0  0
    0.0119   -1.5235    4.5935 H   0  0  0  0  0  0  0  0  0  0  0  0
    0.9033    0.0123    4.4905 H   0  0  0  0  0  0  0  0  0  0  0  0
   -0.7428    0.0304    5.8925 C   0  0  0  0  0  0  0  0  0  0  0  0
   -0.8407    1.1205    5.8621 H   0  0  0  0  0  0  0  0  0  0  0  0
   -1.7493   -0.3951    5.9479 H   0  0  0  0  0  0  0  0  0  0  0  0
    0.0524   -0.3786    7.0778 N   0  3  0  0  0  0  0  0  0  0  0  0
    0.9817    0.0208    7.0375 H   0  0  0  0  0  0  0  0  0  0  0  0
   -0.3929   -0.0642    7.9309 H   0  0  0  0  0  0  0  0  0  0  0  0
    0.1386   -1.3876    7.1154 H   0  0  0  0  0  0  0  0  0  0  0  0
   -0.3073   -0.3871   -0.4669 C   0  0  0  0  0  0  0  0  0  0  0  0
   -0.6768    0.1109   -1.5238 O   0  0  0  0  0  0  0  0  0  0  0  0
    0.7457   -1.2057   -0.3732 N   0  0  0  0  0  0  0  0  0  0  0  0
    0.9977   -1.5450    0.5403 H   0  0  0  0  0  0  0  0  0  0  0  0
    1.6019   -1.5724   -1.5028 C   0  0  0  0  0  0  0  0  0  0  0  0
    2.0860   -0.6793   -1.9037 H   0  0  0  0  0  0  0  0  0  0  0  0
    2.3692   -2.2794   -1.1855 H   0  0  0  0  0  0  0  0  0  0  0  0
    1.0019   -2.0238   -2.2960 H   0  0  0  0  0  0  0  0  0  0  0  0
  5  6  2  0  0  0  0
  5  7  1  0  0  0  0
  2  3  1  0  0  0  0
  2  4  1  0  0  0  0
  2  5  1  0  0  0  0
  1  2  1  0  0  0  0
 27 28  2  0  0  0  0
 27 29  1  0  0  0  0
 23 24  1  0  0  0  0
 23 25  1  0  0  0  0
 23 26  1  0  0  0  0
 20 21  1  0  0  0  0
 20 22  1  0  0  0  0
 20 23  1  0  0  0  0
 17 18  1  0  0  0  0
 17 19  1  0  0  0  0
 17 20  1  0  0  0  0
 14 15  1  0  0  0  0
 14 16  1  0  0  0  0
 14 17  1  0  0  0  0
 11 12  1  0  0  0  0
 11 13  1  0  0  0  0
 11 14  1  0  0  0  0
  9 10  1  0  0  0  0
  9 11  1  0  0  0  0
  9 27  1  0  0  0  0
  7  8  1  0  0  0  0
  7  9  1  0  0  0  0
 31 32  1  0  0  0  0
 31 33  1  0  0  0  0
 31 34  1  0  0  0  0
 29 30  1  0  0  0  0
 29 31  1  0  0  0  0
M  CHG  1  23   1
M  END
$$$$
default_name
  -OEChem-01062215323D

 34 33  0     1  0  0  0  0  0999 V2000
   -3.8899   -3.6747    1.6490 H   0  0  0  0  0  0  0  0  0  0  0  0
   -3.9109   -2.6717    1.2250 C   0  0  0  0  0  0  0  0  0  0  0  0
   -4.6009   -2.0517    1.7950 H   0  0  0  0  0  0  0  0  0  0  0  0
   -4.2309   -2.7237    0.1860 H   0  0  0  0  0  0  0  0  0  0  0  0
   -2.5229   -2.0787    1.2980 C   0  0  0  0  0  0  0  0  0  0  0  0
   -1.5999   -2.7227    1.7810 O   0  0  0  0  0  0  0  0  0  0  0  0
   -2.3659   -0.8447    0.8120 N   0  0  0  0  0  0  0  0  0  0  0  0
   -3.1749   -0.3807    0.4220 H   0  0  0  0  0  0  0  0  0  0  0  0
   -1.0919   -0.1077    0.8170 C   0  0  1  0  0  0  0  0  0  0  0  0
   -1.3140    0.9599    0.8671 H   0  0  0  0  0  0  0  0  0  0  0  0
   -0.2985   -0.5101    2.0743 C   0  0  0  0  0  0  0  0  0  0  0  0
   -0.2332   -1.5986    2.1106 H   0  0  0  0  0  0  0  0  0  0  0  0
    0.7151   -0.1108    2.0019 H   0  0  0  0  0  0  0  0  0  0  0  0
   -0.9429   -0.0211    3.3805 C   0  0  0  0  0  0  0  0  0  0  0  0
   -1.0320    1.0659    3.3618 H   0  0  0  0  0  0  0  0  0  0  0  0
   -1.9384   -0.4589    3.4760 H   0  0  0  0  0  0  0  0  0  0  0  0
   -0.0879   -0.4355    4.5861 C   0  0  0  0  0  0  0  0  0  0  0  0
    0.0119   -1.5235    4.5935 H   0  0  0  0  0  0  0  0  0  0  0  0
    0.9033    0.0123    4.4905 H   0  0  0  0  0  0  0  0  0  0  0  0
   -0.7428    0.0304    5.8925 C   0  0  0  0  0  0  0  0  0  0  0  0
   -0.8407    1.1205    5.8621 H   0  0  0  0  0  0  0  0  0  0  0  0
   -1.7493   -0.3951    5.9479 H   0  0  0  0  0  0  0  0  0  0  0  0
    0.0524   -0.3786    7.0778 N   0  3  0  0  0  0  0  0  0  0  0  0
    0.9817    0.0208    7.0375 H   0  0  0  0  0  0  0  0  0  0  0  0
   -0.3929   -0.0642    7.9309 H   0  0  0  0  0  0  0  0  0  0  0  0
    0.1386   -1.3876    7.1154 H   0  0  0  0  0  0  0  0  0  0  0  0
   -0.3073   -0.3871   -0.4669 C   0  0  0  0  0  0  0  0  0  0  0  0
   -0.4955    0.3106   -1.4565 O   0  0  0  0  0  0  0  0  0  0  0  0
    0.5383   -1.4227   -0.4528 N   0  0  0  0  0  0  0  0  0  0  0  0
    0.6549   -1.9228    0.4130 H   0  0  0  0  0  0  0  0  0  0  0  0
    1.3645   -1.8219   -1.5936 C   0  0  0  0  0  0  0  0  0  0  0  0
    2.0524   -1.0138   -1.8514 H   0  0  0  0  0  0  0  0  0  0  0  0
    1.9417   -2.7152   -1.3520 H   0  0  0  0  0  0  0  0  0  0  0  0
    0.7321   -2.0251   -2.4606 H   0  0  0  0  0  0  0  0  0  0  0  0
  5  6  2  0  0  0  0
  5  7  1  0  0  0  0
  2  3  1  0  0  0  0
  2  4  1  0  0  0  0
  2  5  1  0  0  0  0
  1  2  1  0  0  0  0
 27 28  2  0  0  0  0
 27 29  1  0  0  0  0
 23 24  1  0  0  0  0
 23 25  1  0  0  0  0
 23 26  1  0  0  0  0
 20 21  1  0  0  0  0
 20 22  1  0  0  0  0
 20 23  1  0  0  0  0
 17 18  1  0  0  0  0
 17 19  1  0  0  0  0
 17 20  1  0  0  0  0
 14 15  1  0  0  0  0
 14 16  1  0  0  0  0
 14 17  1  0  0  0  0
 11 12  1  0  0  0  0
 11 13  1  0  0  0  0
 11 14  1  0  0  0  0
  9 10  1  0  0  0  0
  9 11  1  0  0  0  0
  9 27  1  0  0  0  0
  7  8  1  0  0  0  0
  7  9  1  0  0  0  0
 31 32  1  0  0  0  0
 31 33  1  0  0  0  0
 31 34  1  0  0  0  0
 29 30  1  0  0  0  0
 29 31  1  0  0  0  0
M  CHG  1  23   1
M  END
$$$$
default_name
  -OEChem-01062215323D

 34 33  0     1  0  0  0  0  0999 V2000
   -3.8899   -3.6747    1.6490 H   0  0  0  0  0  0  0  0  0  0  0  0
   -3.9109   -2.6717    1.2250 C   0  0  0  0  0  0  0  0  0  0  0  0
   -4.6009   -2.0517    1.7950 H   0  0  0  0  0  0  0  0  0  0  0  0
   -4.2309   -2.7237    0.1860 H   0  0  0  0  0  0  0  0  0  0  0  0
   -2.5229   -2.0787    1.2980 C   0  0  0  0  0  0  0  0  0  0  0  0
   -1.5999   -2.7227    1.7810 O   0  0  0  0  0  0  0  0  0  0  0  0
   -2.3659   -0.8447    0.8120 N   0  0  0  0  0  0  0  0  0  0  0  0
   -3.1749   -0.3807    0.4220 H   0  0  0  0  0  0  0  0  0  0  0  0
   -1.0919   -0.1077    0.8170 C   0  0  1  0  0  0  0  0  0  0  0  0
   -1.3140    0.9599    0.8671 H   0  0  0  0  0  0  0  0  0  0  0  0
   -0.2985   -0.5101    2.0743 C   0  0  0  0  0  0  0  0  0  0  0  0
   -0.2332   -1.5986    2.1106 H   0  0  0  0  0  0  0  0  0  0  0  0
    0.7151   -0.1108    2.0019 H   0  0  0  0  0  0  0  0  0  0  0  0
   -0.9429   -0.0211    3.3805 C   0  0  0  0  0  0  0  0  0  0  0  0
   -1.0320    1.0659    3.3618 H   0  0  0  0  0  0  0  0  0  0  0  0
   -1.9384   -0.4589    3.4760 H   0  0  0  0  0  0  0  0  0  0  0  0
   -0.0879   -0.4355    4.5861 C   0  0  0  0  0  0  0  0  0  0  0  0
    0.0119   -1.5235    4.5935 H   0  0  0  0  0  0  0  0  0  0  0  0
    0.9033    0.0123    4.4905 H   0  0  0  0  0  0  0  0  0  0  0  0
   -0.7428    0.0304    5.8925 C   0  0  0  0  0  0  0  0  0  0  0  0
   -0.8407    1.1205    5.8621 H   0  0  0  0  0  0  0  0  0  0  0  0
   -1.7493   -0.3951    5.9479 H   0  0  0  0  0  0  0  0  0  0  0  0
    0.0524   -0.3786    7.0778 N   0  3  0  0  0  0  0  0  0  0  0  0
    0.9817    0.0208    7.0375 H   0  0  0  0  0  0  0  0  0  0  0  0
   -0.3929   -0.0642    7.9309 H   0  0  0  0  0  0  0  0  0  0  0  0
    0.1386   -1.3876    7.1154 H   0  0  0  0  0  0  0  0  0  0  0  0
   -0.3073   -0.3871   -0.4669 C   0  0  0  0  0  0  0  0  0  0  0  0
   -0.2802    0.4553   -1.3564 O   0  0  0  0  0  0  0  0  0  0  0  0
    0.2947   -1.5767   -0.5682 N   0  0  0  0  0  0  0  0  0  0  0  0
    0.2477   -2.1963    0.2236 H   0  0  0  0  0  0  0  0  0  0  0  0
    1.0853   -1.9994   -1.7256 C   0  0  0  0  0  0  0  0  0  0  0  0
    1.9448   -1.3366   -1.8470 H   0  0  0  0  0  0  0  0  0  0  0  0
    1.4419   -3.0212   -1.5908 H   0  0  0  0  0  0  0  0  0  0  0  0
    0.4790   -1.9460   -2.6325 H   0  0  0  0  0  0  0  0  0  0  0  0
  5  6  2  0  0  0  0
  5  7  1  0  0  0  0
  2  3  1  0  0  0  0
  2  4  1  0  0  0  0
  2  5  1  0  0  0  0
  1  2  1  0  0  0  0
 27 28  2  0  0  0  0
 27 29  1  0  0  0  0
 23 24  1  0  0  0  0
 23 25  1  0  0  0  0
 23 26  1  0  0  0  0
 20 21  1  0  0  0  0
 20 22  1  0  0  0  0
 20 23  1  0  0  0  0
 17 18  1  0  0  0  0
 17 19  1  0  0  0  0
 17 20  1  0  0  0  0
 14 15  1  0  0  0  0
 14 16  1  0  0  0  0
 14 17  1  0  0  0  0
 11 12  1  0  0  0  0
 11 13  1  0  0  0  0
 11 14  1  0  0  0  0
  9 10  1  0  0  0  0
  9 11  1  0  0  0  0
  9 27  1  0  0  0  0
  7  8  1  0  0  0  0
  7  9  1  0  0  0  0
 31 32  1  0  0  0  0
 31 33  1  0  0  0  0
 31 34  1  0  0  0  0
 29 30  1  0  0  0  0
 29 31  1  0  0  0  0
M  CHG  1  23   1
M  END
$$$$
default_name
  -OEChem-01062215323D

 34 33  0     1  0  0  0  0  0999 V2000
   -3.8899   -3.6747    1.6490 H   0  0  0  0  0  0  0  0  0  0  0  0
   -3.9109   -2.6717    1.2250 C   0  0  0  0  0  0  0  0  0  0  0  0
   -4.6009   -2.0517    1.7950 H   0  0  0  0  0  0  0  0  0  0  0  0
   -4.2309   -2.7237    0.1860 H   0  0  0  0  0  0  0  0  0  0  0  0
   -2.5229   -2.0787    1.2980 C   0  0  0  0  0  0  0  0  0  0  0  0
   -1.5999   -2.7227    1.7810 O   0  0  0  0  0  0  0  0  0  0  0  0
   -2.3659   -0.8447    0.8120 N   0  0  0  0  0  0  0  0  0  0  0  0
   -3.1749   -0.3807    0.4220 H   0  0  0  0  0  0  0  0  0  0  0  0
   -1.0919   -0.1077    0.8170 C   0  0  1  0  0  0  0  0  0  0  0  0
   -1.3140    0.9599    0.8671 H   0  0  0  0  0  0  0  0  0  0  0  0
   -0.2985   -0.5101    2.0743 C   0  0  0  0  0  0  0  0  0  0  0  0
   -0.2332   -1.5986    2.1106 H   0  0  0  0  0  0  0  0  0  0  0  0
    0.7151   -0.1108    2.0019 H   0  0  0  0  0  0  0  0  0  0  0  0
   -0.9429   -0.0211    3.3805 C   0  0  0  0  0  0  0  0  0  0  0  0
   -1.0320    1.0659    3.3618 H   0  0  0  0  0  0  0  0  0  0  0  0
   -1.9384   -0.4589    3.4760 H   0  0  0  0  0  0  0  0  0  0  0  0
   -0.0879   -0.4355    4.5861 C   0  0  0  0  0  0  0  0  0  0  0  0
    0.0119   -1.5235    4.5935 H   0  0  0  0  0  0  0  0  0  0  0  0
    0.9033    0.0123    4.4905 H   0  0  0  0  0  0  0  0  0  0  0  0
   -0.7428    0.0304    5.8925 C   0  0  0  0  0  0  0  0  0  0  0  0
   -0.8407    1.1205    5.8621 H   0  0  0  0  0  0  0  0  0  0  0  0
   -1.7493   -0.3951    5.9479 H   0  0  0  0  0  0  0  0  0  0  0  0
    0.0524   -0.3786    7.0778 N   0  3  0  0  0  0  0  0  0  0  0  0
    0.9817    0.0208    7.0375 H   0  0  0  0  0  0  0  0  0  0  0  0
   -0.3929   -0.0642    7.9309 H   0  0  0  0  0  0  0  0  0  0  0  0
    0.1386   -1.3876    7.1154 H   0  0  0  0  0  0  0  0  0  0  0  0
   -0.3073   -0.3871   -0.4669 C   0  0  0  0  0  0  0  0  0  0  0  0
   -0.0456    0.5349   -1.2303 O   0  0  0  0  0  0  0  0  0  0  0  0
    0.0313   -1.6572   -0.7116 N   0  0  0  0  0  0  0  0  0  0  0  0
   -0.1961   -2.3471   -0.0148 H   0  0  0  0  0  0  0  0  0  0  0  0
    0.7834   -2.0926   -1.8899 C   0  0  0  0  0  0  0  0  0  0  0  0
    1.7705   -1.6255   -1.8905 H   0  0  0  0  0  0  0  0  0  0  0  0
    0.9041   -3.1765   -1.8857 H   0  0  0  0  0  0  0  0  0  0  0  0
    0.2598   -1.7918   -2.8000 H   0  0  0  0  0  0  0  0  0  0  0  0
  5  6  2  0  0  0  0
  5  7  1  0  0  0  0
  2  3  1  0  0  0  0
  2  4  1  0  0  0  0
  2  5  1  0  0  0  0
  1  2  1  0  0  0  0
 27 28  2  0  0  0  0
 27 29  1  0  0  0  0
 23 24  1  0  0  0  0
 23 25  1  0  0  0  0
 23 26  1  0  0  0  0
 20 21  1  0  0  0  0
 20 22  1  0  0  0  0
 20 23  1  0  0  0  0
 17 18  1  0  0  0  0
 17 19  1  0  0  0  0
 17 20  1  0  0  0  0
 14 15  1  0  0  0  0
 14 16  1  0  0  0  0
 14 17  1  0  0  0  0
 11 12  1  0  0  0  0
 11 13  1  0  0  0  0
 11 14  1  0  0  0  0
  9 10  1  0  0  0  0
  9 11  1  0  0  0  0
  9 27  1  0  0  0  0
  7  8  1  0  0  0  0
  7  9  1  0  0  0  0
 31 32  1  0  0  0  0
 31 33  1  0  0  0  0
 31 34  1  0  0  0  0
 29 30  1  0  0  0  0
 29 31  1  0  0  0  0
M  CHG  1  23   1
M  END
$$$$
default_name
  -OEChem-01062215323D

 34 33  0     1  0  0  0  0  0999 V2000
   -3.8899   -3.6747    1.6490 H   0  0  0  0  0  0  0  0  0  0  0  0
   -3.9109   -2.6717    1.2250 C   0  0  0  0  0  0  0  0  0  0  0  0
   -4.6009   -2.0517    1.7950 H   0  0  0  0  0  0  0  0  0  0  0  0
   -4.2309   -2.7237    0.1860 H   0  0  0  0  0  0  0  0  0  0  0  0
   -2.5229   -2.0787    1.2980 C   0  0  0  0  0  0  0  0  0  0  0  0
   -1.5999   -2.7227    1.7810 O   0  0  0  0  0  0  0  0  0  0  0  0
   -2.3659   -0.8447    0.8120 N   0  0  0  0  0  0  0  0  0  0  0  0
   -3.1749   -0.3807    0.4220 H   0  0  0  0  0  0  0  0  0  0  0  0
   -1.0919   -0.1077    0.8170 C   0  0  1  0  0  0  0  0  0  0  0  0
   -1.3140    0.9599    0.8671 H   0  0  0  0  0  0  0  0  0  0  0  0
   -0.2985   -0.5101    2.0743 C   0  0  0  0  0  0  0  0  0  0  0  0
   -0.2332   -1.5986    2.1106 H   0  0  0  0  0  0  0  0  0  0  0  0
    0.7151   -0.1108    2.0019 H   0  0  0  0  0  0  0  0  0  0  0  0
   -0.9429   -0.0211    3.3805 C   0  0  0  0  0  0  0  0  0  0  0  0
   -1.0320    1.0659    3.3618 H   0  0  0  0  0  0  0  0  0  0  0  0
   -1.9384   -0.4589    3.4760 H   0  0  0  0  0  0  0  0  0  0  0  0
   -0.0879   -0.4355    4.5861 C   0  0  0  0  0  0  0  0  0  0  0  0
    0.0119   -1.5235    4.5935 H   0  0  0  0  0  0  0  0  0  0  0  0
    0.9033    0.0123    4.4905 H   0  0  0  0  0  0  0  0  0  0  0  0
   -0.7428    0.0304    5.8925 C   0  0  0  0  0  0  0  0  0  0  0  0
   -0.8407    1.1205    5.8621 H   0  0  0  0  0  0  0  0  0  0  0  0
   -1.7493   -0.3951    5.9479 H   0  0  0  0  0  0  0  0  0  0  0  0
    0.0524   -0.3786    7.0778 N   0  3  0  0  0  0  0  0  0  0  0  0
    0.9817    0.0208    7.0375 H   0  0  0  0  0  0  0  0  0  0  0  0
   -0.3929   -0.0642    7.9309 H   0  0  0  0  0  0  0  0  0  0  0  0
    0.1386   -1.3876    7.1154 H   0  0  0  0  0  0  0  0  0  0  0  0
   -0.3073   -0.3871   -0.4669 C   0  0  0  0  0  0  0  0  0  0  0  0
    0.1924    0.5442   -1.0869 O   0  0  0  0  0  0  0  0  0  0  0  0
   -0.2337   -1.6588   -0.8732 N   0  0  0  0  0  0  0  0  0  0  0  0
   -0.6462   -2.3646   -0.2860 H   0  0  0  0  0  0  0  0  0  0  0  0
    0.4792   -2.0953   -2.0752 C   0  0  0  0  0  0  0  0  0  0  0  0
    1.5416   -1.8610   -1.9792 H   0  0  0  0  0  0  0  0  0  0  0  0
    0.3647   -3.1706   -2.2166 H   0  0  0  0  0  0  0  0  0  0  0  0
    0.0895   -1.5731   -2.9517 H   0  0  0  0  0  0  0  0  0  0  0  0
  5  6  2  0  0  0  0
  5  7  1  0  0  0  0
  2  3  1  0  0  0  0
  2  4  1  0  0  0  0
  2  5  1  0  0  0  0
  1  2  1  0  0  0  0
 27 28  2  0  0  0  0
 27 29  1  0  0  0  0
 23 24  1  0  0  0  0
 23 25  1  0  0  0  0
 23 26  1  0  0  0  0
 20 21  1  0  0  0  0
 20 22  1  0  0  0  0
 20 23  1  0  0  0  0
 17 18  1  0  0  0  0
 17 19  1  0  0  0  0
 17 20  1  0  0  0  0
 14 15  1  0  0  0  0
 14 16  1  0  0  0  0
 14 17  1  0  0  0  0
 11 12  1  0  0  0  0
 11 13  1  0  0  0  0
 11 14  1  0  0  0  0
  9 10  1  0  0  0  0
  9 11  1  0  0  0  0
  9 27  1  0  0  0  0
  7  8  1  0  0  0  0
  7  9  1  0  0  0  0
 31 32  1  0  0  0  0
 31 33  1  0  0  0  0
 31 34  1  0  0  0  0
 29 30  1  0  0  0  0
 29 31  1  0  0  0  0
M  CHG  1  23   1
M  END
$$$$
default_name
  -OEChem-01062215323D

 34 33  0     1  0  0  0  0  0999 V2000
   -3.8899   -3.6747    1.6490 H   0  0  0  0  0  0  0  0  0  0  0  0
   -3.9109   -2.6717    1.2250 C   0  0  0  0  0  0  0  0  0  0  0  0
   -4.6009   -2.0517    1.7950 H   0  0  0  0  0  0  0  0  0  0  0  0
   -4.2309   -2.7237    0.1860 H   0  0  0  0  0  0  0  0  0  0  0  0
   -2.5229   -2.0787    1.2980 C   0  0  0  0  0  0  0  0  0  0  0  0
   -1.5999   -2.7227    1.7810 O   0  0  0  0  0  0  0  0  0  0  0  0
   -2.3659   -0.8447    0.8120 N   0  0  0  0  0  0  0  0  0  0  0  0
   -3.1749   -0.3807    0.4220 H   0  0  0  0  0  0  0  0  0  0  0  0
   -1.0919   -0.1077    0.8170 C   0  0  1  0  0  0  0  0  0  0  0  0
   -1.3140    0.9599    0.8671 H   0  0  0  0  0  0  0  0  0  0  0  0
   -0.2985   -0.5101    2.0743 C   0  0  0  0  0  0  0  0  0  0  0  0
   -0.2332   -1.5986    2.1106 H   0  0  0  0  0  0  0  0  0  0  0  0
    0.7151   -0.1108    2.0019 H   0  0  0  0  0  0  0  0  0  0  0  0
   -0.9429   -0.0211    3.3805 C   0  0  0  0  0  0  0  0  0  0  0  0
   -1.0320    1.0659    3.3618 H   0  0  0  0  0  0  0  0  0  0  0  0
   -1.9384   -0.4589    3.4760 H   0  0  0  0  0  0  0  0  0  0  0  0
   -0.0879   -0.4355    4.5861 C   0  0  0  0  0  0  0  0  0  0  0  0
    0.0119   -1.5235    4.5935 H   0  0  0  0  0  0  0  0  0  0  0  0
    0.9033    0.0123    4.4905 H   0  0  0  0  0  0  0  0  0  0  0  0
   -0.7428    0.0304    5.8925 C   0  0  0  0  0  0  0  0  0  0  0  0
   -0.8407    1.1205    5.8621 H   0  0  0  0  0  0  0  0  0  0  0  0
   -1.7493   -0.3951    5.9479 H   0  0  0  0  0  0  0  0  0  0  0  0
    0.0524   -0.3786    7.0778 N   0  3  0  0  0  0  0  0  0  0  0  0
    0.9817    0.0208    7.0375 H   0  0  0  0  0  0  0  0  0  0  0  0
   -0.3929   -0.0642    7.9309 H   0  0  0  0  0  0  0  0  0  0  0  0
    0.1386   -1.3876    7.1154 H   0  0  0  0  0  0  0  0  0  0  0  0
   -0.3073   -0.3871   -0.4669 C   0  0  0  0  0  0  0  0  0  0  0  0
    0.4174    0.4825   -0.9359 O   0  0  0  0  0  0  0  0  0  0  0  0
   -0.4825   -1.5813   -1.0421 N   0  0  0  0  0  0  0  0  0  0  0  0
   -1.0719   -2.2479   -0.5716 H   0  0  0  0  0  0  0  0  0  0  0  0
    0.1936   -2.0073   -2.2689 C   0  0  0  0  0  0  0  0  0  0  0  0
    1.2734   -2.0270   -2.1070 H   0  0  0  0  0  0  0  0  0  0  0  0
   -0.1393   -3.0040   -2.5609 H   0  0  0  0  0  0  0  0  0  0  0  0
   -0.0203   -1.3047   -3.0772 H   0  0  0  0  0  0  0  0  0  0  0  0
  5  6  2  0  0  0  0
  5  7  1  0  0  0  0
  2  3  1  0  0  0  0
  2  4  1  0  0  0  0
  2  5  1  0  0  0  0
  1  2  1  0  0  0  0
 27 28  2  0  0  0  0
 27 29  1  0  0  0  0
 23 24  1  0  0  0  0
 23 25  1  0  0  0  0
 23 26  1  0  0  0  0
 20 21  1  0  0  0  0
 20 22  1  0  0  0  0
 20 23  1  0  0  0  0
 17 18  1  0  0  0  0
 17 19  1  0  0  0  0
 17 20  1  0  0  0  0
 14 15  1  0  0  0  0
 14 16  1  0  0  0  0
 14 17  1  0  0  0  0
 11 12  1  0  0  0  0
 11 13  1  0  0  0  0
 11 14  1  0  0  0  0
  9 10  1  0  0  0  0
  9 11  1  0  0  0  0
  9 27  1  0  0  0  0
  7  8  1  0  0  0  0
  7  9  1  0  0  0  0
 31 32  1  0  0  0  0
 31 33  1  0  0  0  0
 31 34  1  0  0  0  0
 29 30  1  0  0  0  0
 29 31  1  0  0  0  0
M  CHG  1  23   1
M  END
$$$$
default_name
  -OEChem-01062215323D

 34 33  0     1  0  0  0  0  0999 V2000
   -3.8899   -3.6747    1.6490 H   0  0  0  0  0  0  0  0  0  0  0  0
   -3.9109   -2.6717    1.2250 C   0  0  0  0  0  0  0  0  0  0  0  0
   -4.6009   -2.0517    1.7950 H   0  0  0  0  0  0  0  0  0  0  0  0
   -4.2309   -2.7237    0.1860 H   0  0  0  0  0  0  0  0  0  0  0  0
   -2.5229   -2.0787    1.2980 C   0  0  0  0  0  0  0  0  0  0  0  0
   -1.5999   -2.7227    1.7810 O   0  0  0  0  0  0  0  0  0  0  0  0
   -2.3659   -0.8447    0.8120 N   0  0  0  0  0  0  0  0  0  0  0  0
   -3.1749   -0.3807    0.4220 H   0  0  0  0  0  0  0  0  0  0  0  0
   -1.0919   -0.1077    0.8170 C   0  0  1  0  0  0  0  0  0  0  0  0
   -1.3140    0.9599    0.8671 H   0  0  0  0  0  0  0  0  0  0  0  0
   -0.2985   -0.5101    2.0743 C   0  0  0  0  0  0  0  0  0  0  0  0
   -0.2332   -1.5986    2.1106 H   0  0  0  0  0  0  0  0  0  0  0  0
    0.7151   -0.1108    2.0019 H   0  0  0  0  0  0  0  0  0  0  0  0
   -0.9429   -0.0211    3.3805 C   0  0  0  0  0  0  0  0  0  0  0  0
   -1.0320    1.0659    3.3618 H   0  0  0  0  0  0  0  0  0  0  0  0
   -1.9384   -0.4589    3.4760 H   0  0  0  0  0  0  0  0  0  0  0  0
   -0.0879   -0.4355    4.5861 C   0  0  0  0  0  0  0  0  0  0  0  0
    0.0119   -1.5235    4.5935 H   0  0  0  0  0  0  0  0  0  0  0  0
    0.9033    0.0123    4.4905 H   0  0  0  0  0  0  0  0  0  0  0  0
   -0.7428    0.0304    5.8925 C   0  0  0  0  0  0  0  0  0  0  0  0
   -0.8407    1.1205    5.8621 H   0  0  0  0  0  0  0  0  0  0  0  0
   -1.7493   -0.3951    5.9479 H   0  0  0  0  0  0  0  0  0  0  0  0
    0.0524   -0.3786    7.0778 N   0  3  0  0  0  0  0  0  0  0  0  0
    0.9817    0.0208    7.0375 H   0  0  0  0  0  0  0  0  0  0  0  0
   -0.3929   -0.0642    7.9309 H   0  0  0  0  0  0  0  0  0  0  0  0
    0.1386   -1.3876    7.1154 H   0  0  0  0  0  0  0  0  0  0  0  0
   -0.3073   -0.3871   -0.4669 C   0  0  0  0  0  0  0  0  0  0  0  0
    0.6143    0.3540   -0.7876 O   0  0  0  0  0  0  0  0  0  0  0  0
   -0.6980   -1.4301   -1.2067 N   0  0  0  0  0  0  0  0  0  0  0  0
   -1.4443   -2.0048   -0.8521 H   0  0  0  0  0  0  0  0  0  0  0  0
   -0.0541   -1.8346   -2.4578 C   0  0  0  0  0  0  0  0  0  0  0  0
    0.9844   -2.1122   -2.2651 H   0  0  0  0  0  0  0  0  0  0  0  0
   -0.5737   -2.6878   -2.8952 H   0  0  0  0  0  0  0  0  0  0  0  0
   -0.0622   -1.0049   -3.1681 H   0  0  0  0  0  0  0  0  0  0  0  0
  5  6  2  0  0  0  0
  5  7  1  0  0  0  0
  2  3  1  0  0  0  0
  2  4  1  0  0  0  0
  2  5  1  0  0  0  0
  1  2  1  0  0  0  0
 27 28  2  0  0  0  0
 27 29  1  0  0  0  0
 23 24  1  0  0  0  0
 23 25  1  0  0  0  0
 23 26  1  0  0  0  0
 20 21  1  0  0  0  0
 20 22  1  0  0  0  0
 20 23  1  0  0  0  0
 17 18  1  0  0  0  0
 17 19  1  0  0  0  0
 17 20  1  0  0  0  0
 14 15  1  0  0  0  0
 14 16  1  0  0  0  0
 14 17  1  0  0  0  0
 11 12  1  0  0  0  0
 11 13  1  0  0  0  0
 11 14  1  0  0  0  0
  9 10  1  0  0  0  0
  9 11  1  0  0  0  0
  9 27  1  0  0  0  0
  7  8  1  0  0  0  0
  7  9  1  0  0  0  0
 31 32  1  0  0  0  0
 31 33  1  0  0  0  0
 31 34  1  0  0  0  0
 29 30  1  0  0  0  0
 29 31  1  0  0  0  0
M  CHG  1  23   1
M  END
$$$$
default_name
  -OEChem-01062215323D

 34 33  0     1  0  0  0  0  0999 V2000
   -3.8899   -3.6747    1.6490 H   0  0  0  0  0  0  0  0  0  0  0  0
   -3.9109   -2.6717    1.2250 C   0  0  0  0  0  0  0  0  0  0  0  0
   -4.6009   -2.0517    1.7950 H   0  0  0  0  0  0  0  0  0  0  0  0
   -4.2309   -2.7237    0.1860 H   0  0  0  0  0  0  0  0  0  0  0  0
   -2.5229   -2.0787    1.2980 C   0  0  0  0  0  0  0  0  0  0  0  0
   -1.5999   -2.7227    1.7810 O   0  0  0  0  0  0  0  0  0  0  0  0
   -2.3659   -0.8447    0.8120 N   0  0  0  0  0  0  0  0  0  0  0  0
   -3.1749   -0.3807    0.4220 H   0  0  0  0  0  0  0  0  0  0  0  0
   -1.0919   -0.1077    0.8170 C   0  0  1  0  0  0  0  0  0  0  0  0
   -1.3140    0.9599    0.8671 H   0  0  0  0  0  0  0  0  0  0  0  0
   -0.2985   -0.5101    2.0743 C   0  0  0  0  0  0  0  0  0  0  0  0
   -0.2332   -1.5986    2.1106 H   0  0  0  0  0  0  0  0  0  0  0  0
    0.7151   -0.1108    2.0019 H   0  0  0  0  0  0  0  0  0  0  0  0
   -0.9429   -0.0211    3.3805 C   0  0  0  0  0  0  0  0  0  0  0  0
   -1.0320    1.0659    3.3618 H   0  0  0  0  0  0  0  0  0  0  0  0
   -1.9384   -0.4589    3.4760 H   0  0  0  0  0  0  0  0  0  0  0  0
   -0.0879   -0.4355    4.5861 C   0  0  0  0  0  0  0  0  0  0  0  0
    0.0119   -1.5235    4.5935 H   0  0  0  0  0  0  0  0  0  0  0  0
    0.9033    0.0123    4.4905 H   0  0  0  0  0  0  0  0  0  0  0  0
   -0.7428    0.0304    5.8925 C   0  0  0  0  0  0  0  0  0  0  0  0
   -0.8407    1.1205    5.8621 H   0  0  0  0  0  0  0  0  0  0  0  0
   -1.7493   -0.3951    5.9479 H   0  0  0  0  0  0  0  0  0  0  0  0
    0.0524   -0.3786    7.0778 N   0  3  0  0  0  0  0  0  0  0  0  0
    0.9817    0.0208    7.0375 H   0  0  0  0  0  0  0  0  0  0  0  0
   -0.3929   -0.0642    7.9309 H   0  0  0  0  0  0  0  0  0  0  0  0
    0.1386   -1.3876    7.1154 H   0  0  0  0  0  0  0  0  0  0  0  0
   -0.3073   -0.3871   -0.4669 C   0  0  0  0  0  0  0  0  0  0  0  0
    0.7696    0.1674   -0.6521 O   0  0  0  0  0  0  0  0  0  0  0  0
   -0.8655   -1.2153   -1.3558 N   0  0  0  0  0  0  0  0  0  0  0  0
   -1.7380   -1.6519   -1.1084 H   0  0  0  0  0  0  0  0  0  0  0  0
   -0.2468   -1.5889   -2.6291 C   0  0  0  0  0  0  0  0  0  0  0  0
    0.6943   -2.1107   -2.4427 H   0  0  0  0  0  0  0  0  0  0  0  0
   -0.9089   -2.2438   -3.1967 H   0  0  0  0  0  0  0  0  0  0  0  0
   -0.0333   -0.6942   -3.2180 H   0  0  0  0  0  0  0  0  0  0  0  0
  5  6  2  0  0  0  0
  5  7  1  0  0  0  0
  2  3  1  0  0  0  0
  2  4  1  0  0  0  0
  2  5  1  0  0  0  0
  1  2  1  0  0  0  0
 27 28  2  0  0  0  0
 27 29  1  0  0  0  0
 23 24  1  0  0  0  0
 23 25  1  0  0  0  0
 23 26  1  0  0  0  0
 20 21  1  0  0  0  0
 20 22  1  0  0  0  0
 20 23  1  0  0  0  0
 17 18  1  0  0  0  0
 17 19  1  0  0  0  0
 17 20  1  0  0  0  0
 14 15  1  0  0  0  0
 14 16  1  0  0  0  0
 14 17  1  0  0  0  0
 11 12  1  0  0  0  0
 11 13  1  0  0  0  0
 11 14  1  0  0  0  0
  9 10  1  0  0  0  0
  9 11  1  0  0  0  0
  9 27  1  0  0  0  0
  7  8  1  0  0  0  0
  7  9  1  0  0  0  0
 31 32  1  0  0  0  0
 31 33  1  0  0  0  0
 31 34  1  0  0  0  0
 29 30  1  0  0  0  0
 29 31  1  0  0  0  0
M  CHG  1  23   1
M  END
$$$$
default_name
  -OEChem-01062215323D

 34 33  0     1  0  0  0  0  0999 V2000
   -3.8899   -3.6747    1.6490 H   0  0  0  0  0  0  0  0  0  0  0  0
   -3.9109   -2.6717    1.2250 C   0  0  0  0  0  0  0  0  0  0  0  0
   -4.6009   -2.0517    1.7950 H   0  0  0  0  0  0  0  0  0  0  0  0
   -4.2309   -2.7237    0.1860 H   0  0  0  0  0  0  0  0  0  0  0  0
   -2.5229   -2.0787    1.2980 C   0  0  0  0  0  0  0  0  0  0  0  0
   -1.5999   -2.7227    1.7810 O   0  0  0  0  0  0  0  0  0  0  0  0
   -2.3659   -0.8447    0.8120 N   0  0  0  0  0  0  0  0  0  0  0  0
   -3.1749   -0.3807    0.4220 H   0  0  0  0  0  0  0  0  0  0  0  0
   -1.0919   -0.1077    0.8170 C   0  0  1  0  0  0  0  0  0  0  0  0
   -1.3140    0.9599    0.8671 H   0  0  0  0  0  0  0  0  0  0  0  0
   -0.2985   -0.5101    2.0743 C   0  0  0  0  0  0  0  0  0  0  0  0
   -0.2332   -1.5986    2.1106 H   0  0  0  0  0  0  0  0  0  0  0  0
    0.7151   -0.1108    2.0019 H   0  0  0  0  0  0  0  0  0  0  0  0
   -0.9429   -0.0211    3.3805 C   0  0  0  0  0  0  0  0  0  0  0  0
   -1.0320    1.0659    3.3618 H   0  0  0  0  0  0  0  0  0  0  0  0
   -1.9384   -0.4589    3.4760 H   0  0  0  0  0  0  0  0  0  0  0  0
   -0.0879   -0.4355    4.5861 C   0  0  0  0  0  0  0  0  0  0  0  0
    0.0119   -1.5235    4.5935 H   0  0  0  0  0  0  0  0  0  0  0  0
    0.9033    0.0123    4.4905 H   0  0  0  0  0  0  0  0  0  0  0  0
   -0.7428    0.0304    5.8925 C   0  0  0  0  0  0  0  0  0  0  0  0
   -0.8407    1.1205    5.8621 H   0  0  0  0  0  0  0  0  0  0  0  0
   -1.7493   -0.3951    5.9479 H   0  0  0  0  0  0  0  0  0  0  0  0
    0.0524   -0.3786    7.0778 N   0  3  0  0  0  0  0  0  0  0  0  0
    0.9817    0.0208    7.0375 H   0  0  0  0  0  0  0  0  0  0  0  0
   -0.3929   -0.0642    7.9309 H   0  0  0  0  0  0  0  0  0  0  0  0
    0.1386   -1.3876    7.1154 H   0  0  0  0  0  0  0  0  0  0  0  0
   -0.3073   -0.3871   -0.4669 C   0  0  0  0  0  0  0  0  0  0  0  0
    0.8727   -0.0645   -0.5386 O   0  0  0  0  0  0  0  0  0  0  0  0
   -0.9736   -0.9518   -1.4793 N   0  0  0  0  0  0  0  0  0  0  0  0
   -1.9329   -1.2133   -1.3230 H   0  0  0  0  0  0  0  0  0  0  0  0
   -0.3716   -1.2870   -2.7711 C   0  0  0  0  0  0  0  0  0  0  0  0
    0.4227   -2.0228   -2.6278 H   0  0  0  0  0  0  0  0  0  0  0  0
   -1.1220   -1.7021   -3.4448 H   0  0  0  0  0  0  0  0  0  0  0  0
    0.0645   -0.3938   -3.2237 H   0  0  0  0  0  0  0  0  0  0  0  0
  5  6  2  0  0  0  0
  5  7  1  0  0  0  0
  2  3  1  0  0  0  0
  2  4  1  0  0  0  0
  2  5  1  0  0  0  0
  1  2  1  0  0  0  0
 27 28  2  0  0  0  0
 27 29  1  0  0  0  0
 23 24  1  0  0  0  0
 23 25  1  0  0  0  0
 23 26  1  0  0  0  0
 20 21  1  0  0  0  0
 20 22  1  0  0  0  0
 20 23  1  0  0  0  0
 17 18  1  0  0  0  0
 17 19  1  0  0  0  0
 17 20  1  0  0  0  0
 14 15  1  0  0  0  0
 14 16  1  0  0  0  0
 14 17  1  0  0  0  0
 11 12  1  0  0  0  0
 11 13  1  0  0  0  0
 11 14  1  0  0  0  0
  9 10  1  0  0  0  0
  9 11  1  0  0  0  0
  9 27  1  0  0  0  0
  7  8  1  0  0  0  0
  7  9  1  0  0  0  0
 31 32  1  0  0  0  0
 31 33  1  0  0  0  0
 31 34  1  0  0  0  0
 29 30  1  0  0  0  0
 29 31  1  0  0  0  0
M  CHG  1  23   1
M  END
$$$$
default_name
  -OEChem-01062215323D

 34 33  0     1  0  0  0  0  0999 V2000
   -3.8899   -3.6747    1.6490 H   0  0  0  0  0  0  0  0  0  0  0  0
   -3.9109   -2.6717    1.2250 C   0  0  0  0  0  0  0  0  0  0  0  0
   -4.6009   -2.0517    1.7950 H   0  0  0  0  0  0  0  0  0  0  0  0
   -4.2309   -2.7237    0.1860 H   0  0  0  0  0  0  0  0  0  0  0  0
   -2.5229   -2.0787    1.2980 C   0  0  0  0  0  0  0  0  0  0  0  0
   -1.5999   -2.7227    1.7810 O   0  0  0  0  0  0  0  0  0  0  0  0
   -2.3659   -0.8447    0.8120 N   0  0  0  0  0  0  0  0  0  0  0  0
   -3.1749   -0.3807    0.4220 H   0  0  0  0  0  0  0  0  0  0  0  0
   -1.0919   -0.1077    0.8170 C   0  0  1  0  0  0  0  0  0  0  0  0
   -1.3140    0.9599    0.8671 H   0  0  0  0  0  0  0  0  0  0  0  0
   -0.2985   -0.5101    2.0743 C   0  0  0  0  0  0  0  0  0  0  0  0
   -0.2332   -1.5986    2.1106 H   0  0  0  0  0  0  0  0  0  0  0  0
    0.7151   -0.1108    2.0019 H   0  0  0  0  0  0  0  0  0  0  0  0
   -0.9429   -0.0211    3.3805 C   0  0  0  0  0  0  0  0  0  0  0  0
   -1.0320    1.0659    3.3618 H   0  0  0  0  0  0  0  0  0  0  0  0
   -1.9384   -0.4589    3.4760 H   0  0  0  0  0  0  0  0  0  0  0  0
   -0.0879   -0.4355    4.5861 C   0  0  0  0  0  0  0  0  0  0  0  0
    0.0119   -1.5235    4.5935 H   0  0  0  0  0  0  0  0  0  0  0  0
    0.9033    0.0123    4.4905 H   0  0  0  0  0  0  0  0  0  0  0  0
   -0.7428    0.0304    5.8925 C   0  0  0  0  0  0  0  0  0  0  0  0
   -0.8407    1.1205    5.8621 H   0  0  0  0  0  0  0  0  0  0  0  0
   -1.7493   -0.3951    5.9479 H   0  0  0  0  0  0  0  0  0  0  0  0
    0.0524   -0.3786    7.0778 N   0  3  0  0  0  0  0  0  0  0  0  0
    0.9817    0.0208    7.0375 H   0  0  0  0  0  0  0  0  0  0  0  0
   -0.3929   -0.0642    7.9309 H   0  0  0  0  0  0  0  0  0  0  0  0
    0.1386   -1.3876    7.1154 H   0  0  0  0  0  0  0  0  0  0  0  0
   -0.3073   -0.3871   -0.4669 C   0  0  0  0  0  0  0  0  0  0  0  0
    0.9165   -0.3259   -0.4550 O   0  0  0  0  0  0  0  0  0  0  0  0
   -1.0150   -0.6573   -1.5687 N   0  0  0  0  0  0  0  0  0  0  0  0
   -2.0158   -0.7188   -1.4813 H   0  0  0  0  0  0  0  0  0  0  0  0
   -0.4198   -0.9495   -2.8740 C   0  0  0  0  0  0  0  0  0  0  0  0
    0.1882   -1.8542   -2.8078 H   0  0  0  0  0  0  0  0  0  0  0  0
   -1.1985   -1.0997   -3.6227 H   0  0  0  0  0  0  0  0  0  0  0  0
    0.2244   -0.1240   -3.1846 H   0  0  0  0  0  0  0  0  0  0  0  0
  5  6  2  0  0  0  0
  5  7  1  0  0  0  0
  2  3  1  0  0  0  0
  2  4  1  0  0  0  0
  2  5  1  0  0  0  0
  1  2  1  0  0  0  0
 27 28  2  0  0  0  0
 27 29  1  0  0  0  0
 23 24  1  0  0  0  0
 23 25  1  0  0  0  0
 23 26  1  0  0  0  0
 20 21  1  0  0  0  0
 20 22  1  0  0  0  0
 20 23  1  0  0  0  0
 17 18  1  0  0  0  0
 17 19  1  0  0  0  0
 17 20  1  0  0  0  0
 14 15  1  0  0  0  0
 14 16  1  0  0  0  0
 14 17  1  0  0  0  0
 11 12  1  0  0  0  0
 11 13  1  0  0  0  0
 11 14  1  0  0  0  0
  9 10  1  0  0  0  0
  9 11  1  0  0  0  0
  9 27  1  0  0  0  0
  7  8  1  0  0  0  0
  7  9  1  0  0  0  0
 31 32  1  0  0  0  0
 31 33  1  0  0  0  0
 31 34  1  0  0  0  0
 29 30  1  0  0  0  0
 29 31  1  0  0  0  0
M  CHG  1  23   1
M  END
$$$$
default_name
  -OEChem-01062215323D

 34 33  0     1  0  0  0  0  0999 V2000
   -3.8899   -3.6747    1.6490 H   0  0  0  0  0  0  0  0  0  0  0  0
   -3.9109   -2.6717    1.2250 C   0  0  0  0  0  0  0  0  0  0  0  0
   -4.6009   -2.0517    1.7950 H   0  0  0  0  0  0  0  0  0  0  0  0
   -4.2309   -2.7237    0.1860 H   0  0  0  0  0  0  0  0  0  0  0  0
   -2.5229   -2.0787    1.2980 C   0  0  0  0  0  0  0  0  0  0  0  0
   -1.5999   -2.7227    1.7810 O   0  0  0  0  0  0  0  0  0  0  0  0
   -2.3659   -0.8447    0.8120 N   0  0  0  0  0  0  0  0  0  0  0  0
   -3.1749   -0.3807    0.4220 H   0  0  0  0  0  0  0  0  0  0  0  0
   -1.0919   -0.1077    0.8170 C   0  0  1  0  0  0  0  0  0  0  0  0
   -1.3140    0.9599    0.8671 H   0  0  0  0  0  0  0  0  0  0  0  0
   -0.2985   -0.5101    2.0743 C   0  0  0  0  0  0  0  0  0  0  0  0
   -0.2332   -1.5986    2.1106 H   0  0  0  0  0  0  0  0  0  0  0  0
    0.7151   -0.1108    2.0019 H   0  0  0  0  0  0  0  0  0  0  0  0
   -0.9429   -0.0211    3.3805 C   0  0  0  0  0  0  0  0  0  0  0  0
   -1.0320    1.0659    3.3618 H   0  0  0  0  0  0  0  0  0  0  0  0
   -1.9384   -0.4589    3.4760 H   0  0  0  0  0  0  0  0  0  0  0  0
   -0.0879   -0.4355    4.5861 C   0  0  0  0  0  0  0  0  0  0  0  0
    0.0119   -1.5235    4.5935 H   0  0  0  0  0  0  0  0  0  0  0  0
    0.9033    0.0123    4.4905 H   0  0  0  0  0  0  0  0  0  0  0  0
   -0.7428    0.0304    5.8925 C   0  0  0  0  0  0  0  0  0  0  0  0
   -0.8407    1.1205    5.8621 H   0  0  0  0  0  0  0  0  0  0  0  0
   -1.7493   -0.3951    5.9479 H   0  0  0  0  0  0  0  0  0  0  0  0
    0.0524   -0.3786    7.0778 N   0  3  0  0  0  0  0  0  0  0  0  0
    0.9817    0.0208    7.0375 H   0  0  0  0  0  0  0  0  0  0  0  0
   -0.3929   -0.0642    7.9309 H   0  0  0  0  0  0  0  0  0  0  0  0
    0.1386   -1.3876    7.1154 H   0  0  0  0  0  0  0  0  0  0  0  0
   -0.3073   -0.3871   -0.4669 C   0  0  0  0  0  0  0  0  0  0  0  0
    0.8981   -0.5991   -0.4067 O   0  0  0  0  0  0  0  0  0  0  0  0
   -0.9868   -0.3520   -1.6179 N   0  0  0  0  0  0  0  0  0  0  0  0
   -1.9810   -0.2021   -1.5725 H   0  0  0  0  0  0  0  0  0  0  0  0
   -0.3883   -0.5993   -2.9309 C   0  0  0  0  0  0  0  0  0  0  0  0
    0.0069   -1.6167   -2.9704 H   0  0  0  0  0  0  0  0  0  0  0  0
   -1.1331   -0.4776   -3.7182 H   0  0  0  0  0  0  0  0  0  0  0  0
    0.4356    0.0966   -3.1036 H   0  0  0  0  0  0  0  0  0  0  0  0
  5  6  2  0  0  0  0
  5  7  1  0  0  0  0
  2  3  1  0  0  0  0
  2  4  1  0  0  0  0
  2  5  1  0  0  0  0
  1  2  1  0  0  0  0
 27 28  2  0  0  0  0
 27 29  1  0  0  0  0
 23 24  1  0  0  0  0
 23 25  1  0  0  0  0
 23 26  1  0  0  0  0
 20 21  1  0  0  0  0
 20 22  1  0  0  0  0
 20 23  1  0  0  0  0
 17 18  1  0  0  0  0
 17 19  1  0  0  0  0
 17 20  1  0  0  0  0
 14 15  1  0  0  0  0
 14 16  1  0  0  0  0
 14 17  1  0  0  0  0
 11 12  1  0  0  0  0
 11 13  1  0  0  0  0
 11 14  1  0  0  0  0
  9 10  1  0  0  0  0
  9 11  1  0  0  0  0
  9 27  1  0  0  0  0
  7  8  1  0  0  0  0
  7  9  1  0  0  0  0
 31 32  1  0  0  0  0
 31 33  1  0  0  0  0
 31 34  1  0  0  0  0
 29 30  1  0  0  0  0
 29 31  1  0  0  0  0
M  CHG  1  23   1
M  END
$$$$
default_name
  -OEChem-01062215323D

 34 33  0     1  0  0  0  0  0999 V2000
   -3.8899   -3.6747    1.6490 H   0  0  0  0  0  0  0  0  0  0  0  0
   -3.9109   -2.6717    1.2250 C   0  0  0  0  0  0  0  0  0  0  0  0
   -4.6009   -2.0517    1.7950 H   0  0  0  0  0  0  0  0  0  0  0  0
   -4.2309   -2.7237    0.1860 H   0  0  0  0  0  0  0  0  0  0  0  0
   -2.5229   -2.0787    1.2980 C   0  0  0  0  0  0  0  0  0  0  0  0
   -1.5999   -2.7227    1.7810 O   0  0  0  0  0  0  0  0  0  0  0  0
   -2.3659   -0.8447    0.8120 N   0  0  0  0  0  0  0  0  0  0  0  0
   -3.1749   -0.3807    0.4220 H   0  0  0  0  0  0  0  0  0  0  0  0
   -1.0919   -0.1077    0.8170 C   0  0  1  0  0  0  0  0  0  0  0  0
   -1.3140    0.9599    0.8671 H   0  0  0  0  0  0  0  0  0  0  0  0
   -0.2985   -0.5101    2.0743 C   0  0  0  0  0  0  0  0  0  0  0  0
   -0.2332   -1.5986    2.1106 H   0  0  0  0  0  0  0  0  0  0  0  0
    0.7151   -0.1108    2.0019 H   0  0  0  0  0  0  0  0  0  0  0  0
   -0.9429   -0.0211    3.3805 C   0  0  0  0  0  0  0  0  0  0  0  0
   -1.0320    1.0659    3.3618 H   0  0  0  0  0  0  0  0  0  0  0  0
   -1.9384   -0.4589    3.4760 H   0  0  0  0  0  0  0  0  0  0  0  0
   -0.0879   -0.4355    4.5861 C   0  0  0  0  0  0  0  0  0  0  0  0
    0.0119   -1.5235    4.5935 H   0  0  0  0  0  0  0  0  0  0  0  0
    0.9033    0.0123    4.4905 H   0  0  0  0  0  0  0  0  0  0  0  0
   -0.7428    0.0304    5.8925 C   0  0  0  0  0  0  0  0  0  0  0  0
   -0.8407    1.1205    5.8621 H   0  0  0  0  0  0  0  0  0  0  0  0
   -1.7493   -0.3951    5.9479 H   0  0  0  0  0  0  0  0  0  0  0  0
    0.0524   -0.3786    7.0778 N   0  3  0  0  0  0  0  0  0  0  0  0
    0.9817    0.0208    7.0375 H   0  0  0  0  0  0  0  0  0  0  0  0
   -0.3929   -0.0642    7.9309 H   0  0  0  0  0  0  0  0  0  0  0  0
    0.1386   -1.3876    7.1154 H   0  0  0  0  0  0  0  0  0  0  0  0
   -0.3073   -0.3871   -0.4669 C   0  0  0  0  0  0  0  0  0  0  0  0
    0.8188   -0.8654   -0.3973 O   0  0  0  0  0  0  0  0  0  0  0  0
   -0.8909   -0.0568   -1.6236 N   0  0  0  0  0  0  0  0  0  0  0  0
   -1.8310    0.3015   -1.5904 H   0  0  0  0  0  0  0  0  0  0  0  0
   -0.2790   -0.2604   -2.9380 C   0  0  0  0  0  0  0  0  0  0  0  0
   -0.1091   -1.3262   -3.1044 H   0  0  0  0  0  0  0  0  0  0  0  0
   -0.9304    0.1218   -3.7247 H   0  0  0  0  0  0  0  0  0  0  0  0
    0.6837    0.2532   -2.9860 H   0  0  0  0  0  0  0  0  0  0  0  0
  5  6  2  0  0  0  0
  5  7  1  0  0  0  0
  2  3  1  0  0  0  0
  2  4  1  0  0  0  0
  2  5  1  0  0  0  0
  1  2  1  0  0  0  0
 27 28  2  0  0  0  0
 27 29  1  0  0  0  0
 23 24  1  0  0  0  0
 23 25  1  0  0  0  0
 23 26  1  0  0  0  0
 20 21  1  0  0  0  0
 20 22  1  0  0  0  0
 20 23  1  0  0  0  0
 17 18  1  0  0  0  0
 17 19  1  0  0  0  0
 17 20  1  0  0  0  0
 14 15  1  0  0  0  0
 14 16  1  0  0  0  0
 14 17  1  0  0  0  0
 11 12  1  0  0  0  0
 11 13  1  0  0  0  0
 11 14  1  0  0  0  0
  9 10  1  0  0  0  0
  9 11  1  0  0  0  0
  9 27  1  0  0  0  0
  7  8  1  0  0  0  0
  7  9  1  0  0  0  0
 31 32  1  0  0  0  0
 31 33  1  0  0  0  0
 31 34  1  0  0  0  0
 29 30  1  0  0  0  0
 29 31  1  0  0  0  0
M  CHG  1  23   1
M  END
$$$$
default_name
  -OEChem-01062215323D

 34 33  0     1  0  0  0  0  0999 V2000
   -3.8899   -3.6747    1.6490 H   0  0  0  0  0  0  0  0  0  0  0  0
   -3.9109   -2.6717    1.2250 C   0  0  0  0  0  0  0  0  0  0  0  0
   -4.6009   -2.0517    1.7950 H   0  0  0  0  0  0  0  0  0  0  0  0
   -4.2309   -2.7237    0.1860 H   0  0  0  0  0  0  0  0  0  0  0  0
   -2.5229   -2.0787    1.2980 C   0  0  0  0  0  0  0  0  0  0  0  0
   -1.5999   -2.7227    1.7810 O   0  0  0  0  0  0  0  0  0  0  0  0
   -2.3659   -0.8447    0.8120 N   0  0  0  0  0  0  0  0  0  0  0  0
   -3.1749   -0.3807    0.4220 H   0  0  0  0  0  0  0  0  0  0  0  0
   -1.0919   -0.1077    0.8170 C   0  0  1  0  0  0  0  0  0  0  0  0
   -1.3140    0.9599    0.8671 H   0  0  0  0  0  0  0  0  0  0  0  0
   -0.2985   -0.5101    2.0743 C   0  0  0  0  0  0  0  0  0  0  0  0
   -0.2332   -1.5986    2.1106 H   0  0  0  0  0  0  0  0  0  0  0  0
    0.7151   -0.1108    2.0019 H   0  0  0  0  0  0  0  0  0  0  0  0
   -0.9429   -0.0211    3.3805 C   0  0  0  0  0  0  0  0  0  0  0  0
   -1.0320    1.0659    3.3618 H   0  0  0  0  0  0  0  0  0  0  0  0
   -1.9384   -0.4589    3.4760 H   0  0  0  0  0  0  0  0  0  0  0  0
   -0.0879   -0.4355    4.5861 C   0  0  0  0  0  0  0  0  0  0  0  0
    0.0119   -1.5235    4.5935 H   0  0  0  0  0  0  0  0  0  0  0  0
    0.9033    0.0123    4.4905 H   0  0  0  0  0  0  0  0  0  0  0  0
   -0.7428    0.0304    5.8925 C   0  0  0  0  0  0  0  0  0  0  0  0
   -0.8407    1.1205    5.8621 H   0  0  0  0  0  0  0  0  0  0  0  0
   -1.7493   -0.3951    5.9479 H   0  0  0  0  0  0  0  0  0  0  0  0
    0.0524   -0.3786    7.0778 N   0  3  0  0  0  0  0  0  0  0  0  0
    0.9817    0.0208    7.0375 H   0  0  0  0  0  0  0  0  0  0  0  0
   -0.3929   -0.0642    7.9309 H   0  0  0  0  0  0  0  0  0  0  0  0
    0.1386   -1.3876    7.1154 H   0  0  0  0  0  0  0  0  0  0  0  0
   -0.3073   -0.3871   -0.4669 C   0  0  0  0  0  0  0  0  0  0  0  0
    0.6839   -1.1066   -0.4272 O   0  0  0  0  0  0  0  0  0  0  0  0
   -0.7340    0.2084   -1.5854 N   0  0  0  0  0  0  0  0  0  0  0  0
   -1.5758    0.7577   -1.5338 H   0  0  0  0  0  0  0  0  0  0  0  0
   -0.0996    0.0443   -2.8946 C   0  0  0  0  0  0  0  0  0  0  0  0
   -0.1517   -1.0027   -3.2009 H   0  0  0  0  0  0  0  0  0  0  0  0
   -0.6042    0.6577   -3.6420 H   0  0  0  0  0  0  0  0  0  0  0  0
    0.9518    0.3349   -2.8400 H   0  0  0  0  0  0  0  0  0  0  0  0
  5  6  2  0  0  0  0
  5  7  1  0  0  0  0
  2  3  1  0  0  0  0
  2  4  1  0  0  0  0
  2  5  1  0  0  0  0
  1  2  1  0  0  0  0
 27 28  2  0  0  0  0
 27 29  1  0  0  0  0
 23 24  1  0  0  0  0
 23 25  1  0  0  0  0
 23 26  1  0  0  0  0
 20 21  1  0  0  0  0
 20 22  1  0  0  0  0
 20 23  1  0  0  0  0
 17 18  1  0  0  0  0
 17 19  1  0  0  0  0
 17 20  1  0  0  0  0
 14 15  1  0  0  0  0
 14 16  1  0  0  0  0
 14 17  1  0  0  0  0
 11 12  1  0  0  0  0
 11 13  1  0  0  0  0
 11 14  1  0  0  0  0
  9 10  1  0  0  0  0
  9 11  1  0  0  0  0
  9 27  1  0  0  0  0
  7  8  1  0  0  0  0
  7  9  1  0  0  0  0
 31 32  1  0  0  0  0
 31 33  1  0  0  0  0
 31 34  1  0  0  0  0
 29 30  1  0  0  0  0
 29 31  1  0  0  0  0
M  CHG  1  23   1
M  END
$$$$
default_name
  -OEChem-01062215323D

 34 33  0     1  0  0  0  0  0999 V2000
   -3.8899   -3.6747    1.6490 H   0  0  0  0  0  0  0  0  0  0  0  0
   -3.9109   -2.6717    1.2250 C   0  0  0  0  0  0  0  0  0  0  0  0
   -4.6009   -2.0517    1.7950 H   0  0  0  0  0  0  0  0  0  0  0  0
   -4.2309   -2.7237    0.1860 H   0  0  0  0  0  0  0  0  0  0  0  0
   -2.5229   -2.0787    1.2980 C   0  0  0  0  0  0  0  0  0  0  0  0
   -1.5999   -2.7227    1.7810 O   0  0  0  0  0  0  0  0  0  0  0  0
   -2.3659   -0.8447    0.8120 N   0  0  0  0  0  0  0  0  0  0  0  0
   -3.1749   -0.3807    0.4220 H   0  0  0  0  0  0  0  0  0  0  0  0
   -1.0919   -0.1077    0.8170 C   0  0  1  0  0  0  0  0  0  0  0  0
   -1.3140    0.9599    0.8671 H   0  0  0  0  0  0  0  0  0  0  0  0
   -0.2985   -0.5101    2.0743 C   0  0  0  0  0  0  0  0  0  0  0  0
   -0.2332   -1.5986    2.1106 H   0  0  0  0  0  0  0  0  0  0  0  0
    0.7151   -0.1108    2.0019 H   0  0  0  0  0  0  0  0  0  0  0  0
   -0.9429   -0.0211    3.3805 C   0  0  0  0  0  0  0  0  0  0  0  0
   -1.0320    1.0659    3.3618 H   0  0  0  0  0  0  0  0  0  0  0  0
   -1.9384   -0.4589    3.4760 H   0  0  0  0  0  0  0  0  0  0  0  0
   -0.0879   -0.4355    4.5861 C   0  0  0  0  0  0  0  0  0  0  0  0
    0.0119   -1.5235    4.5935 H   0  0  0  0  0  0  0  0  0  0  0  0
    0.9033    0.0123    4.4905 H   0  0  0  0  0  0  0  0  0  0  0  0
   -0.7428    0.0304    5.8925 C   0  0  0  0  0  0  0  0  0  0  0  0
   -0.8407    1.1205    5.8621 H   0  0  0  0  0  0  0  0  0  0  0  0
   -1.7493   -0.3951    5.9479 H   0  0  0  0  0  0  0  0  0  0  0  0
    0.0524   -0.3786    7.0778 N   0  3  0  0  0  0  0  0  0  0  0  0
    0.9817    0.0208    7.0375 H   0  0  0  0  0  0  0  0  0  0  0  0
   -0.3929   -0.0642    7.9309 H   0  0  0  0  0  0  0  0  0  0  0  0
    0.1386   -1.3876    7.1154 H   0  0  0  0  0  0  0  0  0  0  0  0
   -0.3073   -0.3871   -0.4669 C   0  0  0  0  0  0  0  0  0  0  0  0
    0.5026   -1.3063   -0.4945 O   0  0  0  0  0  0  0  0  0  0  0  0
   -0.5266    0.4254   -1.5058 N   0  0  0  0  0  0  0  0  0  0  0  0
   -1.2330    1.1355   -1.4064 H   0  0  0  0  0  0  0  0  0  0  0  0
    0.1377    0.2938   -2.8039 C   0  0  0  0  0  0  0  0  0  0  0  0
   -0.1180   -0.6682   -3.2531 H   0  0  0  0  0  0  0  0  0  0  0  0
   -0.1766    1.0934   -3.4755 H   0  0  0  0  0  0  0  0  0  0  0  0
    1.2215    0.3362   -2.6754 H   0  0  0  0  0  0  0  0  0  0  0  0
  5  6  2  0  0  0  0
  5  7  1  0  0  0  0
  2  3  1  0  0  0  0
  2  4  1  0  0  0  0
  2  5  1  0  0  0  0
  1  2  1  0  0  0  0
 27 28  2  0  0  0  0
 27 29  1  0  0  0  0
 23 24  1  0  0  0  0
 23 25  1  0  0  0  0
 23 26  1  0  0  0  0
 20 21  1  0  0  0  0
 20 22  1  0  0  0  0
 20 23  1  0  0  0  0
 17 18  1  0  0  0  0
 17 19  1  0  0  0  0
 17 20  1  0  0  0  0
 14 15  1  0  0  0  0
 14 16  1  0  0  0  0
 14 17  1  0  0  0  0
 11 12  1  0  0  0  0
 11 13  1  0  0  0  0
 11 14  1  0  0  0  0
  9 10  1  0  0  0  0
  9 11  1  0  0  0  0
  9 27  1  0  0  0  0
  7  8  1  0  0  0  0
  7  9  1  0  0  0  0
 31 32  1  0  0  0  0
 31 33  1  0  0  0  0
 31 34  1  0  0  0  0
 29 30  1  0  0  0  0
 29 31  1  0  0  0  0
M  CHG  1  23   1
M  END
$$$$
default_name
  -OEChem-01062215323D

 34 33  0     1  0  0  0  0  0999 V2000
   -3.8899   -3.6747    1.6490 H   0  0  0  0  0  0  0  0  0  0  0  0
   -3.9109   -2.6717    1.2250 C   0  0  0  0  0  0  0  0  0  0  0  0
   -4.6009   -2.0517    1.7950 H   0  0  0  0  0  0  0  0  0  0  0  0
   -4.2309   -2.7237    0.1860 H   0  0  0  0  0  0  0  0  0  0  0  0
   -2.5229   -2.0787    1.2980 C   0  0  0  0  0  0  0  0  0  0  0  0
   -1.5999   -2.7227    1.7810 O   0  0  0  0  0  0  0  0  0  0  0  0
   -2.3659   -0.8447    0.8120 N   0  0  0  0  0  0  0  0  0  0  0  0
   -3.1749   -0.3807    0.4220 H   0  0  0  0  0  0  0  0  0  0  0  0
   -1.0919   -0.1077    0.8170 C   0  0  1  0  0  0  0  0  0  0  0  0
   -1.3140    0.9599    0.8671 H   0  0  0  0  0  0  0  0  0  0  0  0
   -0.2985   -0.5101    2.0743 C   0  0  0  0  0  0  0  0  0  0  0  0
   -0.2332   -1.5986    2.1106 H   0  0  0  0  0  0  0  0  0  0  0  0
    0.7151   -0.1108    2.0019 H   0  0  0  0  0  0  0  0  0  0  0  0
   -0.9429   -0.0211    3.3805 C   0  0  0  0  0  0  0  0  0  0  0  0
   -1.0320    1.0659    3.3618 H   0  0  0  0  0  0  0  0  0  0  0  0
   -1.9384   -0.4589    3.4760 H   0  0  0  0  0  0  0  0  0  0  0  0
   -0.0879   -0.4355    4.5861 C   0  0  0  0  0  0  0  0  0  0  0  0
    0.0119   -1.5235    4.5935 H   0  0  0  0  0  0  0  0  0  0  0  0
    0.9033    0.0123    4.4905 H   0  0  0  0  0  0  0  0  0  0  0  0
   -0.7428    0.0304    5.8925 C   0  0  0  0  0  0  0  0  0  0  0  0
   -0.8407    1.1205    5.8621 H   0  0  0  0  0  0  0  0  0  0  0  0
   -1.7493   -0.3951    5.9479 H   0  0  0  0  0  0  0  0  0  0  0  0
    0.0524   -0.3786    7.0778 N   0  3  0  0  0  0  0  0  0  0  0  0
    0.9817    0.0208    7.0375 H   0  0  0  0  0  0  0  0  0  0  0  0
   -0.3929   -0.0642    7.9309 H   0  0  0  0  0  0  0  0  0  0  0  0
    0.1386   -1.3876    7.1154 H   0  0  0  0  0  0  0  0  0  0  0  0
   -0.3073   -0.3871   -0.4669 C   0  0  0  0  0  0  0  0  0  0  0  0
    0.2873   -1.4509   -0.5946 O   0  0  0  0  0  0  0  0  0  0  0  0
   -0.2829    0.5794   -1.3905 N   0  0  0  0  0  0  0  0  0  0  0  0
   -0.8258    1.4091   -1.2171 H   0  0  0  0  0  0  0  0  0  0  0  0
    0.4169    0.4712   -2.6718 C   0  0  0  0  0  0  0  0  0  0  0  0
   -0.0104   -0.3455   -3.2576 H   0  0  0  0  0  0  0  0  0  0  0  0
    0.3231    1.3994   -3.2367 H   0  0  0  0  0  0  0  0  0  0  0  0
    1.4746    0.2571   -2.5035 H   0  0  0  0  0  0  0  0  0  0  0  0
  5  6  2  0  0  0  0
  5  7  1  0  0  0  0
  2  3  1  0  0  0  0
  2  4  1  0  0  0  0
  2  5  1  0  0  0  0
  1  2  1  0  0  0  0
 27 28  2  0  0  0  0
 27 29  1  0  0  0  0
 23 24  1  0  0  0  0
 23 25  1  0  0  0  0
 23 26  1  0  0  0  0
 20 21  1  0  0  0  0
 20 22  1  0  0  0  0
 20 23  1  0  0  0  0
 17 18  1  0  0  0  0
 17 19  1  0  0  0  0
 17 20  1  0  0  0  0
 14 15  1  0  0  0  0
 14 16  1  0  0  0  0
 14 17  1  0  0  0  0
 11 12  1  0  0  0  0
 11 13  1  0  0  0  0
 11 14  1  0  0  0  0
  9 10  1  0  0  0  0
  9 11  1  0  0  0  0
  9 27  1  0  0  0  0
  7  8  1  0  0  0  0
  7  9  1  0  0  0  0
 31 32  1  0  0  0  0
 31 33  1  0  0  0  0
 31 34  1  0  0  0  0
 29 30  1  0  0  0  0
 29 31  1  0  0  0  0
M  CHG  1  23   1
M  END
$$$$
default_name
  -OEChem-01062215323D

 34 33  0     1  0  0  0  0  0999 V2000
   -3.8899   -3.6747    1.6490 H   0  0  0  0  0  0  0  0  0  0  0  0
   -3.9109   -2.6717    1.2250 C   0  0  0  0  0  0  0  0  0  0  0  0
   -4.6009   -2.0517    1.7950 H   0  0  0  0  0  0  0  0  0  0  0  0
   -4.2309   -2.7237    0.1860 H   0  0  0  0  0  0  0  0  0  0  0  0
   -2.5229   -2.0787    1.2980 C   0  0  0  0  0  0  0  0  0  0  0  0
   -1.5999   -2.7227    1.7810 O   0  0  0  0  0  0  0  0  0  0  0  0
   -2.3659   -0.8447    0.8120 N   0  0  0  0  0  0  0  0  0  0  0  0
   -3.1749   -0.3807    0.4220 H   0  0  0  0  0  0  0  0  0  0  0  0
   -1.0919   -0.1077    0.8170 C   0  0  1  0  0  0  0  0  0  0  0  0
   -1.3140    0.9599    0.8671 H   0  0  0  0  0  0  0  0  0  0  0  0
   -0.2985   -0.5101    2.0743 C   0  0  0  0  0  0  0  0  0  0  0  0
   -0.2332   -1.5986    2.1106 H   0  0  0  0  0  0  0  0  0  0  0  0
    0.7151   -0.1108    2.0019 H   0  0  0  0  0  0  0  0  0  0  0  0
   -0.9429   -0.0211    3.3805 C   0  0  0  0  0  0  0  0  0  0  0  0
   -1.0320    1.0659    3.3618 H   0  0  0  0  0  0  0  0  0  0  0  0
   -1.9384   -0.4589    3.4760 H   0  0  0  0  0  0  0  0  0  0  0  0
   -0.0879   -0.4355    4.5861 C   0  0  0  0  0  0  0  0  0  0  0  0
    0.0119   -1.5235    4.5935 H   0  0  0  0  0  0  0  0  0  0  0  0
    0.9033    0.0123    4.4905 H   0  0  0  0  0  0  0  0  0  0  0  0
   -0.7428    0.0304    5.8925 C   0  0  0  0  0  0  0  0  0  0  0  0
   -0.8407    1.1205    5.8621 H   0  0  0  0  0  0  0  0  0  0  0  0
   -1.7493   -0.3951    5.9479 H   0  0  0  0  0  0  0  0  0  0  0  0
    0.0524   -0.3786    7.0778 N   0  3  0  0  0  0  0  0  0  0  0  0
    0.9817    0.0208    7.0375 H   0  0  0  0  0  0  0  0  0  0  0  0
   -0.3929   -0.0642    7.9309 H   0  0  0  0  0  0  0  0  0  0  0  0
    0.1386   -1.3876    7.1154 H   0  0  0  0  0  0  0  0  0  0  0  0
   -0.3073   -0.3871   -0.4669 C   0  0  0  0  0  0  0  0  0  0  0  0
    0.0527   -1.5306   -0.7207 O   0  0  0  0  0  0  0  0  0  0  0  0
   -0.0196    0.6599   -1.2470 N   0  0  0  0  0  0  0  0  0  0  0  0
   -0.3820    1.5598   -0.9787 H   0  0  0  0  0  0  0  0  0  0  0  0
    0.7189    0.5645   -2.5076 C   0  0  0  0  0  0  0  0  0  0  0  0
    0.1639   -0.0565   -3.2140 H   0  0  0  0  0  0  0  0  0  0  0  0
    0.8610    1.5548   -2.9418 H   0  0  0  0  0  0  0  0  0  0  0  0
    1.6938    0.1029   -2.3360 H   0  0  0  0  0  0  0  0  0  0  0  0
  5  6  2  0  0  0  0
  5  7  1  0  0  0  0
  2  3  1  0  0  0  0
  2  4  1  0  0  0  0
  2  5  1  0  0  0  0
  1  2  1  0  0  0  0
 27 28  2  0  0  0  0
 27 29  1  0  0  0  0
 23 24  1  0  0  0  0
 23 25  1  0  0  0  0
 23 26  1  0  0  0  0
 20 21  1  0  0  0  0
 20 22  1  0  0  0  0
 20 23  1  0  0  0  0
 17 18  1  0  0  0  0
 17 19  1  0  0  0  0
 17 20  1  0  0  0  0
 14 15  1  0  0  0  0
 14 16  1  0  0  0  0
 14 17  1  0  0  0  0
 11 12  1  0  0  0  0
 11 13  1  0  0  0  0
 11 14  1  0  0  0  0
  9 10  1  0  0  0  0
  9 11  1  0  0  0  0
  9 27  1  0  0  0  0
  7  8  1  0  0  0  0
  7  9  1  0  0  0  0
 31 32  1  0  0  0  0
 31 33  1  0  0  0  0
 31 34  1  0  0  0  0
 29 30  1  0  0  0  0
 29 31  1  0  0  0  0
M  CHG  1  23   1
M  END
$$$$
default_name
  -OEChem-01062215323D

 34 33  0     1  0  0  0  0  0999 V2000
   -3.8899   -3.6747    1.6490 H   0  0  0  0  0  0  0  0  0  0  0  0
   -3.9109   -2.6717    1.2250 C   0  0  0  0  0  0  0  0  0  0  0  0
   -4.6009   -2.0517    1.7950 H   0  0  0  0  0  0  0  0  0  0  0  0
   -4.2309   -2.7237    0.1860 H   0  0  0  0  0  0  0  0  0  0  0  0
   -2.5229   -2.0787    1.2980 C   0  0  0  0  0  0  0  0  0  0  0  0
   -1.5999   -2.7227    1.7810 O   0  0  0  0  0  0  0  0  0  0  0  0
   -2.3659   -0.8447    0.8120 N   0  0  0  0  0  0  0  0  0  0  0  0
   -3.1749   -0.3807    0.4220 H   0  0  0  0  0  0  0  0  0  0  0  0
   -1.0919   -0.1077    0.8170 C   0  0  1  0  0  0  0  0  0  0  0  0
   -1.3140    0.9599    0.8671 H   0  0  0  0  0  0  0  0  0  0  0  0
   -0.2985   -0.5101    2.0743 C   0  0  0  0  0  0  0  0  0  0  0  0
   -0.2332   -1.5986    2.1106 H   0  0  0  0  0  0  0  0  0  0  0  0
    0.7151   -0.1108    2.0019 H   0  0  0  0  0  0  0  0  0  0  0  0
   -0.9429   -0.0211    3.3805 C   0  0  0  0  0  0  0  0  0  0  0  0
   -1.0320    1.0659    3.3618 H   0  0  0  0  0  0  0  0  0  0  0  0
   -1.9384   -0.4589    3.4760 H   0  0  0  0  0  0  0  0  0  0  0  0
   -0.0879   -0.4355    4.5861 C   0  0  0  0  0  0  0  0  0  0  0  0
    0.0119   -1.5235    4.5935 H   0  0  0  0  0  0  0  0  0  0  0  0
    0.9033    0.0123    4.4905 H   0  0  0  0  0  0  0  0  0  0  0  0
   -0.7428    0.0304    5.8925 C   0  0  0  0  0  0  0  0  0  0  0  0
   -0.8407    1.1205    5.8621 H   0  0  0  0  0  0  0  0  0  0  0  0
   -1.7493   -0.3951    5.9479 H   0  0  0  0  0  0  0  0  0  0  0  0
    0.0524   -0.3786    7.0778 N   0  3  0  0  0  0  0  0  0  0  0  0
    0.9817    0.0208    7.0375 H   0  0  0  0  0  0  0  0  0  0  0  0
   -0.3929   -0.0642    7.9309 H   0  0  0  0  0  0  0  0  0  0  0  0
    0.1386   -1.3876    7.1154 H   0  0  0  0  0  0  0  0  0  0  0  0
   -0.3073   -0.3871   -0.4669 C   0  0  0  0  0  0  0  0  0  0  0  0
   -0.1853   -1.5399   -0.8641 O   0  0  0  0  0  0  0  0  0  0  0  0
    0.2455    0.6615   -1.0854 N   0  0  0  0  0  0  0  0  0  0  0  0
    0.0680    1.5774   -0.7075 H   0  0  0  0  0  0  0  0  0  0  0  0
    1.0231    0.5672   -2.3223 C   0  0  0  0  0  0  0  0  0  0  0  0
    0.3928    0.1790   -3.1253 H   0  0  0  0  0  0  0  0  0  0  0  0
    1.4003    1.5489   -2.6109 H   0  0  0  0  0  0  0  0  0  0  0  0
    1.8641   -0.1158   -2.1843 H   0  0  0  0  0  0  0  0  0  0  0  0
  5  6  2  0  0  0  0
  5  7  1  0  0  0  0
  2  3  1  0  0  0  0
  2  4  1  0  0  0  0
  2  5  1  0  0  0  0
  1  2  1  0  0  0  0
 27 28  2  0  0  0  0
 27 29  1  0  0  0  0
 23 24  1  0  0  0  0
 23 25  1  0  0  0  0
 23 26  1  0  0  0  0
 20 21  1  0  0  0  0
 20 22  1  0  0  0  0
 20 23  1  0  0  0  0
 17 18  1  0  0  0  0
 17 19  1  0  0  0  0
 17 20  1  0  0  0  0
 14 15  1  0  0  0  0
 14 16  1  0  0  0  0
 14 17  1  0  0  0  0
 11 12  1  0  0  0  0
 11 13  1  0  0  0  0
 11 14  1  0  0  0  0
  9 10  1  0  0  0  0
  9 11  1  0  0  0  0
  9 27  1  0  0  0  0
  7  8  1  0  0  0  0
  7  9  1  0  0  0  0
 31 32  1  0  0  0  0
 31 33  1  0  0  0  0
 31 34  1  0  0  0  0
 29 30  1  0  0  0  0
 29 31  1  0  0  0  0
M  CHG  1  23   1
M  END
$$$$
default_name
  -OEChem-01062215323D

 34 33  0     1  0  0  0  0  0999 V2000
   -3.8899   -3.6747    1.6490 H   0  0  0  0  0  0  0  0  0  0  0  0
   -3.9109   -2.6717    1.2250 C   0  0  0  0  0  0  0  0  0  0  0  0
   -4.6009   -2.0517    1.7950 H   0  0  0  0  0  0  0  0  0  0  0  0
   -4.2309   -2.7237    0.1860 H   0  0  0  0  0  0  0  0  0  0  0  0
   -2.5229   -2.0787    1.2980 C   0  0  0  0  0  0  0  0  0  0  0  0
   -1.5999   -2.7227    1.7810 O   0  0  0  0  0  0  0  0  0  0  0  0
   -2.3659   -0.8447    0.8120 N   0  0  0  0  0  0  0  0  0  0  0  0
   -3.1749   -0.3807    0.4220 H   0  0  0  0  0  0  0  0  0  0  0  0
   -1.0919   -0.1077    0.8170 C   0  0  1  0  0  0  0  0  0  0  0  0
   -1.3140    0.9599    0.8671 H   0  0  0  0  0  0  0  0  0  0  0  0
   -0.2985   -0.5101    2.0743 C   0  0  0  0  0  0  0  0  0  0  0  0
   -0.2332   -1.5986    2.1106 H   0  0  0  0  0  0  0  0  0  0  0  0
    0.7151   -0.1108    2.0019 H   0  0  0  0  0  0  0  0  0  0  0  0
   -0.9429   -0.0211    3.3805 C   0  0  0  0  0  0  0  0  0  0  0  0
   -1.0320    1.0659    3.3618 H   0  0  0  0  0  0  0  0  0  0  0  0
   -1.9384   -0.4589    3.4760 H   0  0  0  0  0  0  0  0  0  0  0  0
   -0.0879   -0.4355    4.5861 C   0  0  0  0  0  0  0  0  0  0  0  0
    0.0119   -1.5235    4.5935 H   0  0  0  0  0  0  0  0  0  0  0  0
    0.9033    0.0123    4.4905 H   0  0  0  0  0  0  0  0  0  0  0  0
   -0.7428    0.0304    5.8925 C   0  0  0  0  0  0  0  0  0  0  0  0
   -0.8407    1.1205    5.8621 H   0  0  0  0  0  0  0  0  0  0  0  0
   -1.7493   -0.3951    5.9479 H   0  0  0  0  0  0  0  0  0  0  0  0
    0.0524   -0.3786    7.0778 N   0  3  0  0  0  0  0  0  0  0  0  0
    0.9817    0.0208    7.0375 H   0  0  0  0  0  0  0  0  0  0  0  0
   -0.3929   -0.0642    7.9309 H   0  0  0  0  0  0  0  0  0  0  0  0
    0.1386   -1.3876    7.1154 H   0  0  0  0  0  0  0  0  0  0  0  0
   -0.3073   -0.3871   -0.4669 C   0  0  0  0  0  0  0  0  0  0  0  0
   -0.4104   -1.4782   -1.0151 O   0  0  0  0  0  0  0  0  0  0  0  0
    0.4942    0.5840   -0.9165 N   0  0  0  0  0  0  0  0  0  0  0  0
    0.4938    1.4606   -0.4219 H   0  0  0  0  0  0  0  0  0  0  0  0
    1.3087    0.4792   -2.1286 C   0  0  0  0  0  0  0  0  0  0  0  0
    0.6610    0.3450   -2.9976 H   0  0  0  0  0  0  0  0  0  0  0  0
    1.9044    1.3822   -2.2666 H   0  0  0  0  0  0  0  0  0  0  0  0
    1.9739   -0.3842   -2.0588 H   0  0  0  0  0  0  0  0  0  0  0  0
  5  6  2  0  0  0  0
  5  7  1  0  0  0  0
  2  3  1  0  0  0  0
  2  4  1  0  0  0  0
  2  5  1  0  0  0  0
  1  2  1  0  0  0  0
 27 28  2  0  0  0  0
 27 29  1  0  0  0  0
 23 24  1  0  0  0  0
 23 25  1  0  0  0  0
 23 26  1  0  0  0  0
 20 21  1  0  0  0  0
 20 22  1  0  0  0  0
 20 23  1  0  0  0  0
 17 18  1  0  0  0  0
 17 19  1  0  0  0  0
 17 20  1  0  0  0  0
 14 15  1  0  0  0  0
 14 16  1  0  0  0  0
 14 17  1  0  0  0  0
 11 12  1  0  0  0  0
 11 13  1  0  0  0  0
 11 14  1  0  0  0  0
  9 10  1  0  0  0  0
  9 11  1  0  0  0  0
  9 27  1  0  0  0  0
  7  8  1  0  0  0  0
  7  9  1  0  0  0  0
 31 32  1  0  0  0  0
 31 33  1  0  0  0  0
 31 34  1  0  0  0  0
 29 30  1  0  0  0  0
 29 31  1  0  0  0  0
M  CHG  1  23   1
M  END
$$$$
default_name
  -OEChem-01062215323D

 34 33  0     1  0  0  0  0  0999 V2000
   -3.8899   -3.6747    1.6490 H   0  0  0  0  0  0  0  0  0  0  0  0
   -3.9109   -2.6717    1.2250 C   0  0  0  0  0  0  0  0  0  0  0  0
   -4.6009   -2.0517    1.7950 H   0  0  0  0  0  0  0  0  0  0  0  0
   -4.2309   -2.7237    0.1860 H   0  0  0  0  0  0  0  0  0  0  0  0
   -2.5229   -2.0787    1.2980 C   0  0  0  0  0  0  0  0  0  0  0  0
   -1.5999   -2.7227    1.7810 O   0  0  0  0  0  0  0  0  0  0  0  0
   -2.3659   -0.8447    0.8120 N   0  0  0  0  0  0  0  0  0  0  0  0
   -3.1749   -0.3807    0.4220 H   0  0  0  0  0  0  0  0  0  0  0  0
   -1.0919   -0.1077    0.8170 C   0  0  1  0  0  0  0  0  0  0  0  0
   -1.3140    0.9599    0.8671 H   0  0  0  0  0  0  0  0  0  0  0  0
   -0.2985   -0.5101    2.0743 C   0  0  0  0  0  0  0  0  0  0  0  0
   -0.2332   -1.5986    2.1106 H   0  0  0  0  0  0  0  0  0  0  0  0
    0.7151   -0.1108    2.0019 H   0  0  0  0  0  0  0  0  0  0  0  0
   -0.9429   -0.0211    3.3805 C   0  0  0  0  0  0  0  0  0  0  0  0
   -1.0320    1.0659    3.3618 H   0  0  0  0  0  0  0  0  0  0  0  0
   -1.9384   -0.4589    3.4760 H   0  0  0  0  0  0  0  0  0  0  0  0
   -0.0879   -0.4355    4.5861 C   0  0  0  0  0  0  0  0  0  0  0  0
    0.0119   -1.5235    4.5935 H   0  0  0  0  0  0  0  0  0  0  0  0
    0.9033    0.0123    4.4905 H   0  0  0  0  0  0  0  0  0  0  0  0
   -0.7428    0.0304    5.8925 C   0  0  0  0  0  0  0  0  0  0  0  0
   -0.8407    1.1205    5.8621 H   0  0  0  0  0  0  0  0  0  0  0  0
   -1.7493   -0.3951    5.9479 H   0  0  0  0  0  0  0  0  0  0  0  0
    0.0524   -0.3786    7.0778 N   0  3  0  0  0  0  0  0  0  0  0  0
    0.9817    0.0208    7.0375 H   0  0  0  0  0  0  0  0  0  0  0  0
   -0.3929   -0.0642    7.9309 H   0  0  0  0  0  0  0  0  0  0  0  0
    0.1386   -1.3876    7.1154 H   0  0  0  0  0  0  0  0  0  0  0  0
   -0.3073   -0.3871   -0.4669 C   0  0  0  0  0  0  0  0  0  0  0  0
   -0.6073   -1.3497   -1.1634 O   0  0  0  0  0  0  0  0  0  0  0  0
    0.7097    0.4327   -0.7519 N   0  0  0  0  0  0  0  0  0  0  0  0
    0.8662    1.2175   -0.1414 H   0  0  0  0  0  0  0  0  0  0  0  0
    1.5563    0.3064   -1.9396 C   0  0  0  0  0  0  0  0  0  0  0  0
    0.9500    0.4301   -2.8395 H   0  0  0  0  0  0  0  0  0  0  0  0
    2.3388    1.0661   -1.9323 H   0  0  0  0  0  0  0  0  0  0  0  0
    2.0158   -0.6840   -1.9679 H   0  0  0  0  0  0  0  0  0  0  0  0
  5  6  2  0  0  0  0
  5  7  1  0  0  0  0
  2  3  1  0  0  0  0
  2  4  1  0  0  0  0
  2  5  1  0  0  0  0
  1  2  1  0  0  0  0
 27 28  2  0  0  0  0
 27 29  1  0  0  0  0
 23 24  1  0  0  0  0
 23 25  1  0  0  0  0
 23 26  1  0  0  0  0
 20 21  1  0  0  0  0
 20 22  1  0  0  0  0
 20 23  1  0  0  0  0
 17 18  1  0  0  0  0
 17 19  1  0  0  0  0
 17 20  1  0  0  0  0
 14 15  1  0  0  0  0
 14 16  1  0  0  0  0
 14 17  1  0  0  0  0
 11 12  1  0  0  0  0
 11 13  1  0  0  0  0
 11 14  1  0  0  0  0
  9 10  1  0  0  0  0
  9 11  1  0  0  0  0
  9 27  1  0  0  0  0
  7  8  1  0  0  0  0
  7  9  1  0  0  0  0
 31 32  1  0  0  0  0
 31 33  1  0  0  0  0
 31 34  1  0  0  0  0
 29 30  1  0  0  0  0
 29 31  1  0  0  0  0
M  CHG  1  23   1
M  END
$$$$
default_name
  -OEChem-01062215323D

 34 33  0     1  0  0  0  0  0999 V2000
   -3.8899   -3.6747    1.6490 H   0  0  0  0  0  0  0  0  0  0  0  0
   -3.9109   -2.6717    1.2250 C   0  0  0  0  0  0  0  0  0  0  0  0
   -4.6009   -2.0517    1.7950 H   0  0  0  0  0  0  0  0  0  0  0  0
   -4.2309   -2.7237    0.1860 H   0  0  0  0  0  0  0  0  0  0  0  0
   -2.5229   -2.0787    1.2980 C   0  0  0  0  0  0  0  0  0  0  0  0
   -1.5999   -2.7227    1.7810 O   0  0  0  0  0  0  0  0  0  0  0  0
   -2.3659   -0.8447    0.8120 N   0  0  0  0  0  0  0  0  0  0  0  0
   -3.1749   -0.3807    0.4220 H   0  0  0  0  0  0  0  0  0  0  0  0
   -1.0919   -0.1077    0.8170 C   0  0  1  0  0  0  0  0  0  0  0  0
   -1.2908    0.9179    1.1334 H   0  0  0  0  0  0  0  0  0  0  0  0
   -0.1477   -0.7690    1.8385 C   0  0  0  0  0  0  0  0  0  0  0  0
   -0.0935   -1.8369    1.6212 H   0  0  0  0  0  0  0  0  0  0  0  0
    0.8533   -0.3478    1.7268 H   0  0  0  0  0  0  0  0  0  0  0  0
   -0.6104   -0.5952    3.2932 C   0  0  0  0  0  0  0  0  0  0  0  0
   -0.6862    0.4669    3.5303 H   0  0  0  0  0  0  0  0  0  0  0  0
   -1.5912   -1.0587    3.4163 H   0  0  0  0  0  0  0  0  0  0  0  0
    0.3878   -1.2556    4.2542 C   0  0  0  0  0  0  0  0  0  0  0  0
    0.4727   -2.3159    4.0046 H   0  0  0  0  0  0  0  0  0  0  0  0
    1.3643   -0.7824    4.1338 H   0  0  0  0  0  0  0  0  0  0  0  0
   -0.0855   -1.1044    5.7053 C   0  0  0  0  0  0  0  0  0  0  0  0
   -0.1715   -0.0369    5.9329 H   0  0  0  0  0  0  0  0  0  0  0  0
   -1.0822   -1.5473    5.7938 H   0  0  0  0  0  0  0  0  0  0  0  0
    0.8509   -1.7560    6.6556 N   0  3  0  0  0  0  0  0  0  0  0  0
    1.7726   -1.3432    6.5858 H   0  0  0  0  0  0  0  0  0  0  0  0
    0.5244   -1.6477    7.6078 H   0  0  0  0  0  0  0  0  0  0  0  0
    0.9272   -2.7463    6.4546 H   0  0  0  0  0  0  0  0  0  0  0  0
   -0.4844   -0.0802   -0.5874 C   0  0  0  0  0  0  0  0  0  0  0  0
   -1.0544   -0.6571   -1.5060 O   0  0  0  0  0  0  0  0  0  0  0  0
    0.6808    0.5585   -0.7364 N   0  0  0  0  0  0  0  0  0  0  0  0
    1.0631    1.0323    0.0651 H   0  0  0  0  0  0  0  0  0  0  0  0
    1.3918    0.6800   -2.0104 C   0  0  0  0  0  0  0  0  0  0  0  0
    0.7764    1.2306   -2.7251 H   0  0  0  0  0  0  0  0  0  0  0  0
    2.3344    1.2106   -1.8715 H   0  0  0  0  0  0  0  0  0  0  0  0
    1.5936   -0.3113   -2.4223 H   0  0  0  0  0  0  0  0  0  0  0  0
  5  6  2  0  0  0  0
  5  7  1  0  0  0  0
  2  3  1  0  0  0  0
  2  4  1  0  0  0  0
  2  5  1  0  0  0  0
  1  2  1  0  0  0  0
 27 28  2  0  0  0  0
 27 29  1  0  0  0  0
 23 24  1  0  0  0  0
 23 25  1  0  0  0  0
 23 26  1  0  0  0  0
 20 21  1  0  0  0  0
 20 22  1  0  0  0  0
 20 23  1  0  0  0  0
 17 18  1  0  0  0  0
 17 19  1  0  0  0  0
 17 20  1  0  0  0  0
 14 15  1  0  0  0  0
 14 16  1  0  0  0  0
 14 17  1  0  0  0  0
 11 12  1  0  0  0  0
 11 13  1  0  0  0  0
 11 14  1  0  0  0  0
  9 10  1  0  0  0  0
  9 11  1  0  0  0  0
  9 27  1  0  0  0  0
  7  8  1  0  0  0  0
  7  9  1  0  0  0  0
 31 32  1  0  0  0  0
 31 33  1  0  0  0  0
 31 34  1  0  0  0  0
 29 30  1  0  0  0  0
 29 31  1  0  0  0  0
M  CHG  1  23   1
M  END
$$$$
default_name
  -OEChem-01062215323D

 34 33  0     1  0  0  0  0  0999 V2000
   -3.8899   -3.6747    1.6490 H   0  0  0  0  0  0  0  0  0  0  0  0
   -3.9109   -2.6717    1.2250 C   0  0  0  0  0  0  0  0  0  0  0  0
   -4.6009   -2.0517    1.7950 H   0  0  0  0  0  0  0  0  0  0  0  0
   -4.2309   -2.7237    0.1860 H   0  0  0  0  0  0  0  0  0  0  0  0
   -2.5229   -2.0787    1.2980 C   0  0  0  0  0  0  0  0  0  0  0  0
   -1.5999   -2.7227    1.7810 O   0  0  0  0  0  0  0  0  0  0  0  0
   -2.3659   -0.8447    0.8120 N   0  0  0  0  0  0  0  0  0  0  0  0
   -3.1749   -0.3807    0.4220 H   0  0  0  0  0  0  0  0  0  0  0  0
   -1.0919   -0.1077    0.8170 C   0  0  1  0  0  0  0  0  0  0  0  0
   -1.2908    0.9179    1.1334 H   0  0  0  0  0  0  0  0  0  0  0  0
   -0.1477   -0.7690    1.8385 C   0  0  0  0  0  0  0  0  0  0  0  0
   -0.0935   -1.8369    1.6212 H   0  0  0  0  0  0  0  0  0  0  0  0
    0.8533   -0.3478    1.7268 H   0  0  0  0  0  0  0  0  0  0  0  0
   -0.6104   -0.5952    3.2932 C   0  0  0  0  0  0  0  0  0  0  0  0
   -0.6862    0.4669    3.5303 H   0  0  0  0  0  0  0  0  0  0  0  0
   -1.5912   -1.0587    3.4163 H   0  0  0  0  0  0  0  0  0  0  0  0
    0.3878   -1.2556    4.2542 C   0  0  0  0  0  0  0  0  0  0  0  0
    0.4727   -2.3159    4.0046 H   0  0  0  0  0  0  0  0  0  0  0  0
    1.3643   -0.7824    4.1338 H   0  0  0  0  0  0  0  0  0  0  0  0
   -0.0855   -1.1044    5.7053 C   0  0  0  0  0  0  0  0  0  0  0  0
   -0.1715   -0.0369    5.9329 H   0  0  0  0  0  0  0  0  0  0  0  0
   -1.0822   -1.5473    5.7938 H   0  0  0  0  0  0  0  0  0  0  0  0
    0.8509   -1.7560    6.6556 N   0  3  0  0  0  0  0  0  0  0  0  0
    1.7726   -1.3432    6.5858 H   0  0  0  0  0  0  0  0  0  0  0  0
    0.5244   -1.6477    7.6078 H   0  0  0  0  0  0  0  0  0  0  0  0
    0.9272   -2.7463    6.4546 H   0  0  0  0  0  0  0  0  0  0  0  0
   -0.4844   -0.0802   -0.5874 C   0  0  0  0  0  0  0  0  0  0  0  0
   -1.1681   -0.4073   -1.5502 O   0  0  0  0  0  0  0  0  0  0  0  0
    0.8003    0.2757   -0.6902 N   0  0  0  0  0  0  0  0  0  0  0  0
    1.2781    0.5598    0.1489 H   0  0  0  0  0  0  0  0  0  0  0  0
    1.5297    0.3559   -1.9571 C   0  0  0  0  0  0  0  0  0  0  0  0
    1.0685    1.1077   -2.6012 H   0  0  0  0  0  0  0  0  0  0  0  0
    2.5704    0.6305   -1.7808 H   0  0  0  0  0  0  0  0  0  0  0  0
    1.4932   -0.6069   -2.4715 H   0  0  0  0  0  0  0  0  0  0  0  0
  5  6  2  0  0  0  0
  5  7  1  0  0  0  0
  2  3  1  0  0  0  0
  2  4  1  0  0  0  0
  2  5  1  0  0  0  0
  1  2  1  0  0  0  0
 27 28  2  0  0  0  0
 27 29  1  0  0  0  0
 23 24  1  0  0  0  0
 23 25  1  0  0  0  0
 23 26  1  0  0  0  0
 20 21  1  0  0  0  0
 20 22  1  0  0  0  0
 20 23  1  0  0  0  0
 17 18  1  0  0  0  0
 17 19  1  0  0  0  0
 17 20  1  0  0  0  0
 14 15  1  0  0  0  0
 14 16  1  0  0  0  0
 14 17  1  0  0  0  0
 11 12  1  0  0  0  0
 11 13  1  0  0  0  0
 11 14  1  0  0  0  0
  9 10  1  0  0  0  0
  9 11  1  0  0  0  0
  9 27  1  0  0  0  0
  7  8  1  0  0  0  0
  7  9  1  0  0  0  0
 31 32  1  0  0  0  0
 31 33  1  0  0  0  0
 31 34  1  0  0  0  0
 29 30  1  0  0  0  0
 29 31  1  0  0  0  0
M  CHG  1  23   1
M  END
$$$$
default_name
  -OEChem-01062215323D

 34 33  0     1  0  0  0  0  0999 V2000
   -3.8899   -3.6747    1.6490 H   0  0  0  0  0  0  0  0  0  0  0  0
   -3.9109   -2.6717    1.2250 C   0  0  0  0  0  0  0  0  0  0  0  0
   -4.6009   -2.0517    1.7950 H   0  0  0  0  0  0  0  0  0  0  0  0
   -4.2309   -2.7237    0.1860 H   0  0  0  0  0  0  0  0  0  0  0  0
   -2.5229   -2.0787    1.2980 C   0  0  0  0  0  0  0  0  0  0  0  0
   -1.5999   -2.7227    1.7810 O   0  0  0  0  0  0  0  0  0  0  0  0
   -2.3659   -0.8447    0.8120 N   0  0  0  0  0  0  0  0  0  0  0  0
   -3.1749   -0.3807    0.4220 H   0  0  0  0  0  0  0  0  0  0  0  0
   -1.0919   -0.1077    0.8170 C   0  0  1  0  0  0  0  0  0  0  0  0
   -1.2908    0.9179    1.1334 H   0  0  0  0  0  0  0  0  0  0  0  0
   -0.1477   -0.7690    1.8385 C   0  0  0  0  0  0  0  0  0  0  0  0
   -0.0935   -1.8369    1.6212 H   0  0  0  0  0  0  0  0  0  0  0  0
    0.8533   -0.3478    1.7268 H   0  0  0  0  0  0  0  0  0  0  0  0
   -0.6104   -0.5952    3.2932 C   0  0  0  0  0  0  0  0  0  0  0  0
   -0.6862    0.4669    3.5303 H   0  0  0  0  0  0  0  0  0  0  0  0
   -1.5912   -1.0587    3.4163 H   0  0  0  0  0  0  0  0  0  0  0  0
    0.3878   -1.2556    4.2542 C   0  0  0  0  0  0  0  0  0  0  0  0
    0.4727   -2.3159    4.0046 H   0  0  0  0  0  0  0  0  0  0  0  0
    1.3643   -0.7824    4.1338 H   0  0  0  0  0  0  0  0  0  0  0  0
   -0.0855   -1.1044    5.7053 C   0  0  0  0  0  0  0  0  0  0  0  0
   -0.1715   -0.0369    5.9329 H   0  0  0  0  0  0  0  0  0  0  0  0
   -1.0822   -1.5473    5.7938 H   0  0  0  0  0  0  0  0  0  0  0  0
    0.8509   -1.7560    6.6556 N   0  3  0  0  0  0  0  0  0  0  0  0
    1.7726   -1.3432    6.5858 H   0  0  0  0  0  0  0  0  0  0  0  0
    0.5244   -1.6477    7.6078 H   0  0  0  0  0  0  0  0  0  0  0  0
    0.9272   -2.7463    6.4546 H   0  0  0  0  0  0  0  0  0  0  0  0
   -0.4844   -0.0802   -0.5874 C   0  0  0  0  0  0  0  0  0  0  0  0
   -1.2188   -0.1345   -1.5668 O   0  0  0  0  0  0  0  0  0  0  0  0
    0.8488   -0.0306   -0.6752 N   0  0  0  0  0  0  0  0  0  0  0  0
    1.3740    0.0438    0.1802 H   0  0  0  0  0  0  0  0  0  0  0  0
    1.5862    0.0047   -1.9396 C   0  0  0  0  0  0  0  0  0  0  0  0
    1.3219    0.9068   -2.4954 H   0  0  0  0  0  0  0  0  0  0  0  0
    2.6609    0.0048   -1.7539 H   0  0  0  0  0  0  0  0  0  0  0  0
    1.3258   -0.8635   -2.5489 H   0  0  0  0  0  0  0  0  0  0  0  0
  5  6  2  0  0  0  0
  5  7  1  0  0  0  0
  2  3  1  0  0  0  0
  2  4  1  0  0  0  0
  2  5  1  0  0  0  0
  1  2  1  0  0  0  0
 27 28  2  0  0  0  0
 27 29  1  0  0  0  0
 23 24  1  0  0  0  0
 23 25  1  0  0  0  0
 23 26  1  0  0  0  0
 20 21  1  0  0  0  0
 20 22  1  0  0  0  0
 20 23  1  0  0  0  0
 17 18  1  0  0  0  0
 17 19  1  0  0  0  0
 17 20  1  0  0  0  0
 14 15  1  0  0  0  0
 14 16  1  0  0  0  0
 14 17  1  0  0  0  0
 11 12  1  0  0  0  0
 11 13  1  0  0  0  0
 11 14  1  0  0  0  0
  9 10  1  0  0  0  0
  9 11  1  0  0  0  0
  9 27  1  0  0  0  0
  7  8  1  0  0  0  0
  7  9  1  0  0  0  0
 31 32  1  0  0  0  0
 31 33  1  0  0  0  0
 31 34  1  0  0  0  0
 29 30  1  0  0  0  0
 29 31  1  0  0  0  0
M  CHG  1  23   1
M  END
$$$$
default_name
  -OEChem-01062215323D

 34 33  0     1  0  0  0  0  0999 V2000
   -3.8899   -3.6747    1.6490 H   0  0  0  0  0  0  0  0  0  0  0  0
   -3.9109   -2.6717    1.2250 C   0  0  0  0  0  0  0  0  0  0  0  0
   -4.6009   -2.0517    1.7950 H   0  0  0  0  0  0  0  0  0  0  0  0
   -4.2309   -2.7237    0.1860 H   0  0  0  0  0  0  0  0  0  0  0  0
   -2.5229   -2.0787    1.2980 C   0  0  0  0  0  0  0  0  0  0  0  0
   -1.5999   -2.7227    1.7810 O   0  0  0  0  0  0  0  0  0  0  0  0
   -2.3659   -0.8447    0.8120 N   0  0  0  0  0  0  0  0  0  0  0  0
   -3.1749   -0.3807    0.4220 H   0  0  0  0  0  0  0  0  0  0  0  0
   -1.0919   -0.1077    0.8170 C   0  0  1  0  0  0  0  0  0  0  0  0
   -1.2908    0.9179    1.1334 H   0  0  0  0  0  0  0  0  0  0  0  0
   -0.1477   -0.7690    1.8385 C   0  0  0  0  0  0  0  0  0  0  0  0
   -0.0935   -1.8369    1.6212 H   0  0  0  0  0  0  0  0  0  0  0  0
    0.8533   -0.3478    1.7268 H   0  0  0  0  0  0  0  0  0  0  0  0
   -0.6104   -0.5952    3.2932 C   0  0  0  0  0  0  0  0  0  0  0  0
   -0.6862    0.4669    3.5303 H   0  0  0  0  0  0  0  0  0  0  0  0
   -1.5912   -1.0587    3.4163 H   0  0  0  0  0  0  0  0  0  0  0  0
    0.3878   -1.2556    4.2542 C   0  0  0  0  0  0  0  0  0  0  0  0
    0.4727   -2.3159    4.0046 H   0  0  0  0  0  0  0  0  0  0  0  0
    1.3643   -0.7824    4.1338 H   0  0  0  0  0  0  0  0  0  0  0  0
   -0.0855   -1.1044    5.7053 C   0  0  0  0  0  0  0  0  0  0  0  0
   -0.1715   -0.0369    5.9329 H   0  0  0  0  0  0  0  0  0  0  0  0
   -1.0822   -1.5473    5.7938 H   0  0  0  0  0  0  0  0  0  0  0  0
    0.8509   -1.7560    6.6556 N   0  3  0  0  0  0  0  0  0  0  0  0
    1.7726   -1.3432    6.5858 H   0  0  0  0  0  0  0  0  0  0  0  0
    0.5244   -1.6477    7.6078 H   0  0  0  0  0  0  0  0  0  0  0  0
    0.9272   -2.7463    6.4546 H   0  0  0  0  0  0  0  0  0  0  0  0
   -0.4844   -0.0802   -0.5874 C   0  0  0  0  0  0  0  0  0  0  0  0
   -1.2030    0.1428   -1.5546 O   0  0  0  0  0  0  0  0  0  0  0  0
    0.8230   -0.3396   -0.6925 N   0  0  0  0  0  0  0  0  0  0  0  0
    1.3441   -0.4806    0.1570 H   0  0  0  0  0  0  0  0  0  0  0  0
    1.5575   -0.3498   -1.9590 C   0  0  0  0  0  0  0  0  0  0  0  0
    1.5196    0.6418   -2.4152 H   0  0  0  0  0  0  0  0  0  0  0  0
    2.5999   -0.6239   -1.7927 H   0  0  0  0  0  0  0  0  0  0  0  0
    1.1028   -1.0637   -2.6493 H   0  0  0  0  0  0  0  0  0  0  0  0
  5  6  2  0  0  0  0
  5  7  1  0  0  0  0
  2  3  1  0  0  0  0
  2  4  1  0  0  0  0
  2  5  1  0  0  0  0
  1  2  1  0  0  0  0
 27 28  2  0  0  0  0
 27 29  1  0  0  0  0
 23 24  1  0  0  0  0
 23 25  1  0  0  0  0
 23 26  1  0  0  0  0
 20 21  1  0  0  0  0
 20 22  1  0  0  0  0
 20 23  1  0  0  0  0
 17 18  1  0  0  0  0
 17 19  1  0  0  0  0
 17 20  1  0  0  0  0
 14 15  1  0  0  0  0
 14 16  1  0  0  0  0
 14 17  1  0  0  0  0
 11 12  1  0  0  0  0
 11 13  1  0  0  0  0
 11 14  1  0  0  0  0
  9 10  1  0  0  0  0
  9 11  1  0  0  0  0
  9 27  1  0  0  0  0
  7  8  1  0  0  0  0
  7  9  1  0  0  0  0
 31 32  1  0  0  0  0
 31 33  1  0  0  0  0
 31 34  1  0  0  0  0
 29 30  1  0  0  0  0
 29 31  1  0  0  0  0
M  CHG  1  23   1
M  END
$$$$
default_name
  -OEChem-01062215323D

 34 33  0     1  0  0  0  0  0999 V2000
   -3.8899   -3.6747    1.6490 H   0  0  0  0  0  0  0  0  0  0  0  0
   -3.9109   -2.6717    1.2250 C   0  0  0  0  0  0  0  0  0  0  0  0
   -4.6009   -2.0517    1.7950 H   0  0  0  0  0  0  0  0  0  0  0  0
   -4.2309   -2.7237    0.1860 H   0  0  0  0  0  0  0  0  0  0  0  0
   -2.5229   -2.0787    1.2980 C   0  0  0  0  0  0  0  0  0  0  0  0
   -1.5999   -2.7227    1.7810 O   0  0  0  0  0  0  0  0  0  0  0  0
   -2.3659   -0.8447    0.8120 N   0  0  0  0  0  0  0  0  0  0  0  0
   -3.1749   -0.3807    0.4220 H   0  0  0  0  0  0  0  0  0  0  0  0
   -1.0919   -0.1077    0.8170 C   0  0  1  0  0  0  0  0  0  0  0  0
   -1.2908    0.9179    1.1334 H   0  0  0  0  0  0  0  0  0  0  0  0
   -0.1477   -0.7690    1.8385 C   0  0  0  0  0  0  0  0  0  0  0  0
   -0.0935   -1.8369    1.6212 H   0  0  0  0  0  0  0  0  0  0  0  0
    0.8533   -0.3478    1.7268 H   0  0  0  0  0  0  0  0  0  0  0  0
   -0.6104   -0.5952    3.2932 C   0  0  0  0  0  0  0  0  0  0  0  0
   -0.6862    0.4669    3.5303 H   0  0  0  0  0  0  0  0  0  0  0  0
   -1.5912   -1.0587    3.4163 H   0  0  0  0  0  0  0  0  0  0  0  0
    0.3878   -1.2556    4.2542 C   0  0  0  0  0  0  0  0  0  0  0  0
    0.4727   -2.3159    4.0046 H   0  0  0  0  0  0  0  0  0  0  0  0
    1.3643   -0.7824    4.1338 H   0  0  0  0  0  0  0  0  0  0  0  0
   -0.0855   -1.1044    5.7053 C   0  0  0  0  0  0  0  0  0  0  0  0
   -0.1715   -0.0369    5.9329 H   0  0  0  0  0  0  0  0  0  0  0  0
   -1.0822   -1.5473    5.7938 H   0  0  0  0  0  0  0  0  0  0  0  0
    0.8509   -1.7560    6.6556 N   0  3  0  0  0  0  0  0  0  0  0  0
    1.7726   -1.3432    6.5858 H   0  0  0  0  0  0  0  0  0  0  0  0
    0.5244   -1.6477    7.6078 H   0  0  0  0  0  0  0  0  0  0  0  0
    0.9272   -2.7463    6.4546 H   0  0  0  0  0  0  0  0  0  0  0  0
   -0.4844   -0.0802   -0.5874 C   0  0  0  0  0  0  0  0  0  0  0  0
   -1.1219    0.4056   -1.5143 O   0  0  0  0  0  0  0  0  0  0  0  0
    0.7246   -0.6301   -0.7407 N   0  0  0  0  0  0  0  0  0  0  0  0
    1.1907   -0.9777    0.0809 H   0  0  0  0  0  0  0  0  0  0  0  0
    1.4454   -0.6833   -2.0140 C   0  0  0  0  0  0  0  0  0  0  0  0
    1.6478    0.3305   -2.3657 H   0  0  0  0  0  0  0  0  0  0  0  0
    2.3914   -1.2126   -1.8944 H   0  0  0  0  0  0  0  0  0  0  0  0
    0.8394   -1.1937   -2.7658 H   0  0  0  0  0  0  0  0  0  0  0  0
  5  6  2  0  0  0  0
  5  7  1  0  0  0  0
  2  3  1  0  0  0  0
  2  4  1  0  0  0  0
  2  5  1  0  0  0  0
  1  2  1  0  0  0  0
 27 28  2  0  0  0  0
 27 29  1  0  0  0  0
 23 24  1  0  0  0  0
 23 25  1  0  0  0  0
 23 26  1  0  0  0  0
 20 21  1  0  0  0  0
 20 22  1  0  0  0  0
 20 23  1  0  0  0  0
 17 18  1  0  0  0  0
 17 19  1  0  0  0  0
 17 20  1  0  0  0  0
 14 15  1  0  0  0  0
 14 16  1  0  0  0  0
 14 17  1  0  0  0  0
 11 12  1  0  0  0  0
 11 13  1  0  0  0  0
 11 14  1  0  0  0  0
  9 10  1  0  0  0  0
  9 11  1  0  0  0  0
  9 27  1  0  0  0  0
  7  8  1  0  0  0  0
  7  9  1  0  0  0  0
 31 32  1  0  0  0  0
 31 33  1  0  0  0  0
 31 34  1  0  0  0  0
 29 30  1  0  0  0  0
 29 31  1  0  0  0  0
M  CHG  1  23   1
M  END
$$$$
default_name
  -OEChem-01062215323D

 34 33  0     1  0  0  0  0  0999 V2000
   -3.8899   -3.6747    1.6490 H   0  0  0  0  0  0  0  0  0  0  0  0
   -3.9109   -2.6717    1.2250 C   0  0  0  0  0  0  0  0  0  0  0  0
   -4.6009   -2.0517    1.7950 H   0  0  0  0  0  0  0  0  0  0  0  0
   -4.2309   -2.7237    0.1860 H   0  0  0  0  0  0  0  0  0  0  0  0
   -2.5229   -2.0787    1.2980 C   0  0  0  0  0  0  0  0  0  0  0  0
   -1.5999   -2.7227    1.7810 O   0  0  0  0  0  0  0  0  0  0  0  0
   -2.3659   -0.8447    0.8120 N   0  0  0  0  0  0  0  0  0  0  0  0
   -3.1749   -0.3807    0.4220 H   0  0  0  0  0  0  0  0  0  0  0  0
   -1.0919   -0.1077    0.8170 C   0  0  1  0  0  0  0  0  0  0  0  0
   -1.2908    0.9179    1.1334 H   0  0  0  0  0  0  0  0  0  0  0  0
   -0.1477   -0.7690    1.8385 C   0  0  0  0  0  0  0  0  0  0  0  0
   -0.0935   -1.8369    1.6212 H   0  0  0  0  0  0  0  0  0  0  0  0
    0.8533   -0.3478    1.7268 H   0  0  0  0  0  0  0  0  0  0  0  0
   -0.6104   -0.5952    3.2932 C   0  0  0  0  0  0  0  0  0  0  0  0
   -0.6862    0.4669    3.5303 H   0  0  0  0  0  0  0  0  0  0  0  0
   -1.5912   -1.0587    3.4163 H   0  0  0  0  0  0  0  0  0  0  0  0
    0.3878   -1.2556    4.2542 C   0  0  0  0  0  0  0  0  0  0  0  0
    0.4727   -2.3159    4.0046 H   0  0  0  0  0  0  0  0  0  0  0  0
    1.3643   -0.7824    4.1338 H   0  0  0  0  0  0  0  0  0  0  0  0
   -0.0855   -1.1044    5.7053 C   0  0  0  0  0  0  0  0  0  0  0  0
   -0.1715   -0.0369    5.9329 H   0  0  0  0  0  0  0  0  0  0  0  0
   -1.0822   -1.5473    5.7938 H   0  0  0  0  0  0  0  0  0  0  0  0
    0.8509   -1.7560    6.6556 N   0  3  0  0  0  0  0  0  0  0  0  0
    1.7726   -1.3432    6.5858 H   0  0  0  0  0  0  0  0  0  0  0  0
    0.5244   -1.6477    7.6078 H   0  0  0  0  0  0  0  0  0  0  0  0
    0.9272   -2.7463    6.4546 H   0  0  0  0  0  0  0  0  0  0  0  0
   -0.4844   -0.0802   -0.5874 C   0  0  0  0  0  0  0  0  0  0  0  0
   -0.9809    0.6361   -1.4488 O   0  0  0  0  0  0  0  0  0  0  0  0
    0.5604   -0.8824   -0.8167 N   0  0  0  0  0  0  0  0  0  0  0  0
    0.9240   -1.4136   -0.0430 H   0  0  0  0  0  0  0  0  0  0  0  0
    1.2577   -0.9733   -2.1009 C   0  0  0  0  0  0  0  0  0  0  0  0
    1.6981   -0.0056   -2.3506 H   0  0  0  0  0  0  0  0  0  0  0  0
    2.0498   -1.7213   -2.0521 H   0  0  0  0  0  0  0  0  0  0  0  0
    0.5536   -1.2449   -2.8905 H   0  0  0  0  0  0  0  0  0  0  0  0
  5  6  2  0  0  0  0
  5  7  1  0  0  0  0
  2  3  1  0  0  0  0
  2  4  1  0  0  0  0
  2  5  1  0  0  0  0
  1  2  1  0  0  0  0
 27 28  2  0  0  0  0
 27 29  1  0  0  0  0
 23 24  1  0  0  0  0
 23 25  1  0  0  0  0
 23 26  1  0  0  0  0
 20 21  1  0  0  0  0
 20 22  1  0  0  0  0
 20 23  1  0  0  0  0
 17 18  1  0  0  0  0
 17 19  1  0  0  0  0
 17 20  1  0  0  0  0
 14 15  1  0  0  0  0
 14 16  1  0  0  0  0
 14 17  1  0  0  0  0
 11 12  1  0  0  0  0
 11 13  1  0  0  0  0
 11 14  1  0  0  0  0
  9 10  1  0  0  0  0
  9 11  1  0  0  0  0
  9 27  1  0  0  0  0
  7  8  1  0  0  0  0
  7  9  1  0  0  0  0
 31 32  1  0  0  0  0
 31 33  1  0  0  0  0
 31 34  1  0  0  0  0
 29 30  1  0  0  0  0
 29 31  1  0  0  0  0
M  CHG  1  23   1
M  END
$$$$
default_name
  -OEChem-01062215323D

 34 33  0     1  0  0  0  0  0999 V2000
   -3.8899   -3.6747    1.6490 H   0  0  0  0  0  0  0  0  0  0  0  0
   -3.9109   -2.6717    1.2250 C   0  0  0  0  0  0  0  0  0  0  0  0
   -4.6009   -2.0517    1.7950 H   0  0  0  0  0  0  0  0  0  0  0  0
   -4.2309   -2.7237    0.1860 H   0  0  0  0  0  0  0  0  0  0  0  0
   -2.5229   -2.0787    1.2980 C   0  0  0  0  0  0  0  0  0  0  0  0
   -1.5999   -2.7227    1.7810 O   0  0  0  0  0  0  0  0  0  0  0  0
   -2.3659   -0.8447    0.8120 N   0  0  0  0  0  0  0  0  0  0  0  0
   -3.1749   -0.3807    0.4220 H   0  0  0  0  0  0  0  0  0  0  0  0
   -1.0919   -0.1077    0.8170 C   0  0  1  0  0  0  0  0  0  0  0  0
   -1.2908    0.9179    1.1334 H   0  0  0  0  0  0  0  0  0  0  0  0
   -0.1477   -0.7690    1.8385 C   0  0  0  0  0  0  0  0  0  0  0  0
   -0.0935   -1.8369    1.6212 H   0  0  0  0  0  0  0  0  0  0  0  0
    0.8533   -0.3478    1.7268 H   0  0  0  0  0  0  0  0  0  0  0  0
   -0.6104   -0.5952    3.2932 C   0  0  0  0  0  0  0  0  0  0  0  0
   -0.6862    0.4669    3.5303 H   0  0  0  0  0  0  0  0  0  0  0  0
   -1.5912   -1.0587    3.4163 H   0  0  0  0  0  0  0  0  0  0  0  0
    0.3878   -1.2556    4.2542 C   0  0  0  0  0  0  0  0  0  0  0  0
    0.4727   -2.3159    4.0046 H   0  0  0  0  0  0  0  0  0  0  0  0
    1.3643   -0.7824    4.1338 H   0  0  0  0  0  0  0  0  0  0  0  0
   -0.0855   -1.1044    5.7053 C   0  0  0  0  0  0  0  0  0  0  0  0
   -0.1715   -0.0369    5.9329 H   0  0  0  0  0  0  0  0  0  0  0  0
   -1.0822   -1.5473    5.7938 H   0  0  0  0  0  0  0  0  0  0  0  0
    0.8509   -1.7560    6.6556 N   0  3  0  0  0  0  0  0  0  0  0  0
    1.7726   -1.3432    6.5858 H   0  0  0  0  0  0  0  0  0  0  0  0
    0.5244   -1.6477    7.6078 H   0  0  0  0  0  0  0  0  0  0  0  0
    0.9272   -2.7463    6.4546 H   0  0  0  0  0  0  0  0  0  0  0  0
   -0.4844   -0.0802   -0.5874 C   0  0  0  0  0  0  0  0  0  0  0  0
   -0.7897    0.8185   -1.3625 O   0  0  0  0  0  0  0  0  0  0  0  0
    0.3415   -1.0792   -0.9153 N   0  0  0  0  0  0  0  0  0  0  0  0
    0.5623   -1.7586   -0.2062 H   0  0  0  0  0  0  0  0  0  0  0  0
    1.0071   -1.1998   -2.2137 C   0  0  0  0  0  0  0  0  0  0  0  0
    1.6668   -0.3438   -2.3708 H   0  0  0  0  0  0  0  0  0  0  0  0
    1.5982   -2.1153   -2.2552 H   0  0  0  0  0  0  0  0  0  0  0  0
    0.2648   -1.2135   -3.0148 H   0  0  0  0  0  0  0  0  0  0  0  0
  5  6  2  0  0  0  0
  5  7  1  0  0  0  0
  2  3  1  0  0  0  0
  2  4  1  0  0  0  0
  2  5  1  0  0  0  0
  1  2  1  0  0  0  0
 27 28  2  0  0  0  0
 27 29  1  0  0  0  0
 23 24  1  0  0  0  0
 23 25  1  0  0  0  0
 23 26  1  0  0  0  0
 20 21  1  0  0  0  0
 20 22  1  0  0  0  0
 20 23  1  0  0  0  0
 17 18  1  0  0  0  0
 17 19  1  0  0  0  0
 17 20  1  0  0  0  0
 14 15  1  0  0  0  0
 14 16  1  0  0  0  0
 14 17  1  0  0  0  0
 11 12  1  0  0  0  0
 11 13  1  0  0  0  0
 11 14  1  0  0  0  0
  9 10  1  0  0  0  0
  9 11  1  0  0  0  0
  9 27  1  0  0  0  0
  7  8  1  0  0  0  0
  7  9  1  0  0  0  0
 31 32  1  0  0  0  0
 31 33  1  0  0  0  0
 31 34  1  0  0  0  0
 29 30  1  0  0  0  0
 29 31  1  0  0  0  0
M  CHG  1  23   1
M  END
$$$$
default_name
  -OEChem-01062215323D

 34 33  0     1  0  0  0  0  0999 V2000
   -3.8899   -3.6747    1.6490 H   0  0  0  0  0  0  0  0  0  0  0  0
   -3.9109   -2.6717    1.2250 C   0  0  0  0  0  0  0  0  0  0  0  0
   -4.6009   -2.0517    1.7950 H   0  0  0  0  0  0  0  0  0  0  0  0
   -4.2309   -2.7237    0.1860 H   0  0  0  0  0  0  0  0  0  0  0  0
   -2.5229   -2.0787    1.2980 C   0  0  0  0  0  0  0  0  0  0  0  0
   -1.5999   -2.7227    1.7810 O   0  0  0  0  0  0  0  0  0  0  0  0
   -2.3659   -0.8447    0.8120 N   0  0  0  0  0  0  0  0  0  0  0  0
   -3.1749   -0.3807    0.4220 H   0  0  0  0  0  0  0  0  0  0  0  0
   -1.0919   -0.1077    0.8170 C   0  0  1  0  0  0  0  0  0  0  0  0
   -1.2908    0.9179    1.1334 H   0  0  0  0  0  0  0  0  0  0  0  0
   -0.1477   -0.7690    1.8385 C   0  0  0  0  0  0  0  0  0  0  0  0
   -0.0935   -1.8369    1.6212 H   0  0  0  0  0  0  0  0  0  0  0  0
    0.8533   -0.3478    1.7268 H   0  0  0  0  0  0  0  0  0  0  0  0
   -0.6104   -0.5952    3.2932 C   0  0  0  0  0  0  0  0  0  0  0  0
   -0.6862    0.4669    3.5303 H   0  0  0  0  0  0  0  0  0  0  0  0
   -1.5912   -1.0587    3.4163 H   0  0  0  0  0  0  0  0  0  0  0  0
    0.3878   -1.2556    4.2542 C   0  0  0  0  0  0  0  0  0  0  0  0
    0.4727   -2.3159    4.0046 H   0  0  0  0  0  0  0  0  0  0  0  0
    1.3643   -0.7824    4.1338 H   0  0  0  0  0  0  0  0  0  0  0  0
   -0.0855   -1.1044    5.7053 C   0  0  0  0  0  0  0  0  0  0  0  0
   -0.1715   -0.0369    5.9329 H   0  0  0  0  0  0  0  0  0  0  0  0
   -1.0822   -1.5473    5.7938 H   0  0  0  0  0  0  0  0  0  0  0  0
    0.8509   -1.7560    6.6556 N   0  3  0  0  0  0  0  0  0  0  0  0
    1.7726   -1.3432    6.5858 H   0  0  0  0  0  0  0  0  0  0  0  0
    0.5244   -1.6477    7.6078 H   0  0  0  0  0  0  0  0  0  0  0  0
    0.9272   -2.7463    6.4546 H   0  0  0  0  0  0  0  0  0  0  0  0
   -0.4844   -0.0802   -0.5874 C   0  0  0  0  0  0  0  0  0  0  0  0
   -0.5612    0.9404   -1.2613 O   0  0  0  0  0  0  0  0  0  0  0  0
    0.0828   -1.2073   -1.0297 N   0  0  0  0  0  0  0  0  0  0  0  0
    0.1303   -1.9892   -0.3977 H   0  0  0  0  0  0  0  0  0  0  0  0
    0.7107   -1.3475   -2.3448 C   0  0  0  0  0  0  0  0  0  0  0  0
    1.5562   -0.6610   -2.4248 H   0  0  0  0  0  0  0  0  0  0  0  0
    1.0675   -2.3678   -2.4898 H   0  0  0  0  0  0  0  0  0  0  0  0
   -0.0074   -1.1019   -3.1303 H   0  0  0  0  0  0  0  0  0  0  0  0
  5  6  2  0  0  0  0
  5  7  1  0  0  0  0
  2  3  1  0  0  0  0
  2  4  1  0  0  0  0
  2  5  1  0  0  0  0
  1  2  1  0  0  0  0
 27 28  2  0  0  0  0
 27 29  1  0  0  0  0
 23 24  1  0  0  0  0
 23 25  1  0  0  0  0
 23 26  1  0  0  0  0
 20 21  1  0  0  0  0
 20 22  1  0  0  0  0
 20 23  1  0  0  0  0
 17 18  1  0  0  0  0
 17 19  1  0  0  0  0
 17 20  1  0  0  0  0
 14 15  1  0  0  0  0
 14 16  1  0  0  0  0
 14 17  1  0  0  0  0
 11 12  1  0  0  0  0
 11 13  1  0  0  0  0
 11 14  1  0  0  0  0
  9 10  1  0  0  0  0
  9 11  1  0  0  0  0
  9 27  1  0  0  0  0
  7  8  1  0  0  0  0
  7  9  1  0  0  0  0
 31 32  1  0  0  0  0
 31 33  1  0  0  0  0
 31 34  1  0  0  0  0
 29 30  1  0  0  0  0
 29 31  1  0  0  0  0
M  CHG  1  23   1
M  END
$$$$
default_name
  -OEChem-01062215323D

 34 33  0     1  0  0  0  0  0999 V2000
   -3.8899   -3.6747    1.6490 H   0  0  0  0  0  0  0  0  0  0  0  0
   -3.9109   -2.6717    1.2250 C   0  0  0  0  0  0  0  0  0  0  0  0
   -4.6009   -2.0517    1.7950 H   0  0  0  0  0  0  0  0  0  0  0  0
   -4.2309   -2.7237    0.1860 H   0  0  0  0  0  0  0  0  0  0  0  0
   -2.5229   -2.0787    1.2980 C   0  0  0  0  0  0  0  0  0  0  0  0
   -1.5999   -2.7227    1.7810 O   0  0  0  0  0  0  0  0  0  0  0  0
   -2.3659   -0.8447    0.8120 N   0  0  0  0  0  0  0  0  0  0  0  0
   -3.1749   -0.3807    0.4220 H   0  0  0  0  0  0  0  0  0  0  0  0
   -1.0919   -0.1077    0.8170 C   0  0  1  0  0  0  0  0  0  0  0  0
   -1.2908    0.9179    1.1334 H   0  0  0  0  0  0  0  0  0  0  0  0
   -0.1477   -0.7690    1.8385 C   0  0  0  0  0  0  0  0  0  0  0  0
   -0.0935   -1.8369    1.6212 H   0  0  0  0  0  0  0  0  0  0  0  0
    0.8533   -0.3478    1.7268 H   0  0  0  0  0  0  0  0  0  0  0  0
   -0.6104   -0.5952    3.2932 C   0  0  0  0  0  0  0  0  0  0  0  0
   -0.6862    0.4669    3.5303 H   0  0  0  0  0  0  0  0  0  0  0  0
   -1.5912   -1.0587    3.4163 H   0  0  0  0  0  0  0  0  0  0  0  0
    0.3878   -1.2556    4.2542 C   0  0  0  0  0  0  0  0  0  0  0  0
    0.4727   -2.3159    4.0046 H   0  0  0  0  0  0  0  0  0  0  0  0
    1.3643   -0.7824    4.1338 H   0  0  0  0  0  0  0  0  0  0  0  0
   -0.0855   -1.1044    5.7053 C   0  0  0  0  0  0  0  0  0  0  0  0
   -0.1715   -0.0369    5.9329 H   0  0  0  0  0  0  0  0  0  0  0  0
   -1.0822   -1.5473    5.7938 H   0  0  0  0  0  0  0  0  0  0  0  0
    0.8509   -1.7560    6.6556 N   0  3  0  0  0  0  0  0  0  0  0  0
    1.7726   -1.3432    6.5858 H   0  0  0  0  0  0  0  0  0  0  0  0
    0.5244   -1.6477    7.6078 H   0  0  0  0  0  0  0  0  0  0  0  0
    0.9272   -2.7463    6.4546 H   0  0  0  0  0  0  0  0  0  0  0  0
   -0.4844   -0.0802   -0.5874 C   0  0  0  0  0  0  0  0  0  0  0  0
   -0.3112    0.9935   -1.1521 O   0  0  0  0  0  0  0  0  0  0  0  0
   -0.1980   -1.2577   -1.1522 N   0  0  0  0  0  0  0  0  0  0  0  0
   -0.3427   -2.0896   -0.6042 H   0  0  0  0  0  0  0  0  0  0  0  0
    0.3887   -1.4063   -2.4853 C   0  0  0  0  0  0  0  0  0  0  0  0
    1.3738   -0.9356   -2.5091 H   0  0  0  0  0  0  0  0  0  0  0  0
    0.4938   -2.4616   -2.7398 H   0  0  0  0  0  0  0  0  0  0  0  0
   -0.2442   -0.9176   -3.2292 H   0  0  0  0  0  0  0  0  0  0  0  0
  5  6  2  0  0  0  0
  5  7  1  0  0  0  0
  2  3  1  0  0  0  0
  2  4  1  0  0  0  0
  2  5  1  0  0  0  0
  1  2  1  0  0  0  0
 27 28  2  0  0  0  0
 27 29  1  0  0  0  0
 23 24  1  0  0  0  0
 23 25  1  0  0  0  0
 23 26  1  0  0  0  0
 20 21  1  0  0  0  0
 20 22  1  0  0  0  0
 20 23  1  0  0  0  0
 17 18  1  0  0  0  0
 17 19  1  0  0  0  0
 17 20  1  0  0  0  0
 14 15  1  0  0  0  0
 14 16  1  0  0  0  0
 14 17  1  0  0  0  0
 11 12  1  0  0  0  0
 11 13  1  0  0  0  0
 11 14  1  0  0  0  0
  9 10  1  0  0  0  0
  9 11  1  0  0  0  0
  9 27  1  0  0  0  0
  7  8  1  0  0  0  0
  7  9  1  0  0  0  0
 31 32  1  0  0  0  0
 31 33  1  0  0  0  0
 31 34  1  0  0  0  0
 29 30  1  0  0  0  0
 29 31  1  0  0  0  0
M  CHG  1  23   1
M  END
$$$$
default_name
  -OEChem-01062215323D

 34 33  0     1  0  0  0  0  0999 V2000
   -3.8899   -3.6747    1.6490 H   0  0  0  0  0  0  0  0  0  0  0  0
   -3.9109   -2.6717    1.2250 C   0  0  0  0  0  0  0  0  0  0  0  0
   -4.6009   -2.0517    1.7950 H   0  0  0  0  0  0  0  0  0  0  0  0
   -4.2309   -2.7237    0.1860 H   0  0  0  0  0  0  0  0  0  0  0  0
   -2.5229   -2.0787    1.2980 C   0  0  0  0  0  0  0  0  0  0  0  0
   -1.5999   -2.7227    1.7810 O   0  0  0  0  0  0  0  0  0  0  0  0
   -2.3659   -0.8447    0.8120 N   0  0  0  0  0  0  0  0  0  0  0  0
   -3.1749   -0.3807    0.4220 H   0  0  0  0  0  0  0  0  0  0  0  0
   -1.0919   -0.1077    0.8170 C   0  0  1  0  0  0  0  0  0  0  0  0
   -1.2908    0.9179    1.1334 H   0  0  0  0  0  0  0  0  0  0  0  0
   -0.1477   -0.7690    1.8385 C   0  0  0  0  0  0  0  0  0  0  0  0
   -0.0935   -1.8369    1.6212 H   0  0  0  0  0  0  0  0  0  0  0  0
    0.8533   -0.3478    1.7268 H   0  0  0  0  0  0  0  0  0  0  0  0
   -0.6104   -0.5952    3.2932 C   0  0  0  0  0  0  0  0  0  0  0  0
   -0.6862    0.4669    3.5303 H   0  0  0  0  0  0  0  0  0  0  0  0
   -1.5912   -1.0587    3.4163 H   0  0  0  0  0  0  0  0  0  0  0  0
    0.3878   -1.2556    4.2542 C   0  0  0  0  0  0  0  0  0  0  0  0
    0.4727   -2.3159    4.0046 H   0  0  0  0  0  0  0  0  0  0  0  0
    1.3643   -0.7824    4.1338 H   0  0  0  0  0  0  0  0  0  0  0  0
   -0.0855   -1.1044    5.7053 C   0  0  0  0  0  0  0  0  0  0  0  0
   -0.1715   -0.0369    5.9329 H   0  0  0  0  0  0  0  0  0  0  0  0
   -1.0822   -1.5473    5.7938 H   0  0  0  0  0  0  0  0  0  0  0  0
    0.8509   -1.7560    6.6556 N   0  3  0  0  0  0  0  0  0  0  0  0
    1.7726   -1.3432    6.5858 H   0  0  0  0  0  0  0  0  0  0  0  0
    0.5244   -1.6477    7.6078 H   0  0  0  0  0  0  0  0  0  0  0  0
    0.9272   -2.7463    6.4546 H   0  0  0  0  0  0  0  0  0  0  0  0
   -0.4844   -0.0802   -0.5874 C   0  0  0  0  0  0  0  0  0  0  0  0
   -0.0565    0.9741   -1.0423 O   0  0  0  0  0  0  0  0  0  0  0  0
   -0.4818   -1.2272   -1.2744 N   0  0  0  0  0  0  0  0  0  0  0  0
   -0.8244   -2.0530   -0.8119 H   0  0  0  0  0  0  0  0  0  0  0  0
    0.0631   -1.3722   -2.6255 C   0  0  0  0  0  0  0  0  0  0  0  0
    1.1320   -1.1488   -2.6179 H   0  0  0  0  0  0  0  0  0  0  0  0
   -0.0837   -2.3902   -2.9882 H   0  0  0  0  0  0  0  0  0  0  0  0
   -0.4297   -0.6731   -3.3046 H   0  0  0  0  0  0  0  0  0  0  0  0
  5  6  2  0  0  0  0
  5  7  1  0  0  0  0
  2  3  1  0  0  0  0
  2  4  1  0  0  0  0
  2  5  1  0  0  0  0
  1  2  1  0  0  0  0
 27 28  2  0  0  0  0
 27 29  1  0  0  0  0
 23 24  1  0  0  0  0
 23 25  1  0  0  0  0
 23 26  1  0  0  0  0
 20 21  1  0  0  0  0
 20 22  1  0  0  0  0
 20 23  1  0  0  0  0
 17 18  1  0  0  0  0
 17 19  1  0  0  0  0
 17 20  1  0  0  0  0
 14 15  1  0  0  0  0
 14 16  1  0  0  0  0
 14 17  1  0  0  0  0
 11 12  1  0  0  0  0
 11 13  1  0  0  0  0
 11 14  1  0  0  0  0
  9 10  1  0  0  0  0
  9 11  1  0  0  0  0
  9 27  1  0  0  0  0
  7  8  1  0  0  0  0
  7  9  1  0  0  0  0
 31 32  1  0  0  0  0
 31 33  1  0  0  0  0
 31 34  1  0  0  0  0
 29 30  1  0  0  0  0
 29 31  1  0  0  0  0
M  CHG  1  23   1
M  END
$$$$
default_name
  -OEChem-01062215323D

 34 33  0     1  0  0  0  0  0999 V2000
   -3.8899   -3.6747    1.6490 H   0  0  0  0  0  0  0  0  0  0  0  0
   -3.9109   -2.6717    1.2250 C   0  0  0  0  0  0  0  0  0  0  0  0
   -4.6009   -2.0517    1.7950 H   0  0  0  0  0  0  0  0  0  0  0  0
   -4.2309   -2.7237    0.1860 H   0  0  0  0  0  0  0  0  0  0  0  0
   -2.5229   -2.0787    1.2980 C   0  0  0  0  0  0  0  0  0  0  0  0
   -1.5999   -2.7227    1.7810 O   0  0  0  0  0  0  0  0  0  0  0  0
   -2.3659   -0.8447    0.8120 N   0  0  0  0  0  0  0  0  0  0  0  0
   -3.1749   -0.3807    0.4220 H   0  0  0  0  0  0  0  0  0  0  0  0
   -1.0919   -0.1077    0.8170 C   0  0  1  0  0  0  0  0  0  0  0  0
   -1.2908    0.9179    1.1334 H   0  0  0  0  0  0  0  0  0  0  0  0
   -0.1477   -0.7690    1.8385 C   0  0  0  0  0  0  0  0  0  0  0  0
   -0.0935   -1.8369    1.6212 H   0  0  0  0  0  0  0  0  0  0  0  0
    0.8533   -0.3478    1.7268 H   0  0  0  0  0  0  0  0  0  0  0  0
   -0.6104   -0.5952    3.2932 C   0  0  0  0  0  0  0  0  0  0  0  0
   -0.6862    0.4669    3.5303 H   0  0  0  0  0  0  0  0  0  0  0  0
   -1.5912   -1.0587    3.4163 H   0  0  0  0  0  0  0  0  0  0  0  0
    0.3878   -1.2556    4.2542 C   0  0  0  0  0  0  0  0  0  0  0  0
    0.4727   -2.3159    4.0046 H   0  0  0  0  0  0  0  0  0  0  0  0
    1.3643   -0.7824    4.1338 H   0  0  0  0  0  0  0  0  0  0  0  0
   -0.0855   -1.1044    5.7053 C   0  0  0  0  0  0  0  0  0  0  0  0
   -0.1715   -0.0369    5.9329 H   0  0  0  0  0  0  0  0  0  0  0  0
   -1.0822   -1.5473    5.7938 H   0  0  0  0  0  0  0  0  0  0  0  0
    0.8509   -1.7560    6.6556 N   0  3  0  0  0  0  0  0  0  0  0  0
    1.7726   -1.3432    6.5858 H   0  0  0  0  0  0  0  0  0  0  0  0
    0.5244   -1.6477    7.6078 H   0  0  0  0  0  0  0  0  0  0  0  0
    0.9272   -2.7463    6.4546 H   0  0  0  0  0  0  0  0  0  0  0  0
   -0.4844   -0.0802   -0.5874 C   0  0  0  0  0  0  0  0  0  0  0  0
    0.1854    0.8837   -0.9394 O   0  0  0  0  0  0  0  0  0  0  0  0
   -0.7493   -1.1178   -1.3879 N   0  0  0  0  0  0  0  0  0  0  0  0
   -1.2819   -1.8820   -1.0065 H   0  0  0  0  0  0  0  0  0  0  0  0
   -0.2440   -1.2476   -2.7559 C   0  0  0  0  0  0  0  0  0  0  0  0
    0.8473   -1.2861   -2.7438 H   0  0  0  0  0  0  0  0  0  0  0  0
   -0.6258   -2.1586   -3.2182 H   0  0  0  0  0  0  0  0  0  0  0  0
   -0.5512   -0.3851   -3.3515 H   0  0  0  0  0  0  0  0  0  0  0  0
  5  6  2  0  0  0  0
  5  7  1  0  0  0  0
  2  3  1  0  0  0  0
  2  4  1  0  0  0  0
  2  5  1  0  0  0  0
  1  2  1  0  0  0  0
 27 28  2  0  0  0  0
 27 29  1  0  0  0  0
 23 24  1  0  0  0  0
 23 25  1  0  0  0  0
 23 26  1  0  0  0  0
 20 21  1  0  0  0  0
 20 22  1  0  0  0  0
 20 23  1  0  0  0  0
 17 18  1  0  0  0  0
 17 19  1  0  0  0  0
 17 20  1  0  0  0  0
 14 15  1  0  0  0  0
 14 16  1  0  0  0  0
 14 17  1  0  0  0  0
 11 12  1  0  0  0  0
 11 13  1  0  0  0  0
 11 14  1  0  0  0  0
  9 10  1  0  0  0  0
  9 11  1  0  0  0  0
  9 27  1  0  0  0  0
  7  8  1  0  0  0  0
  7  9  1  0  0  0  0
 31 32  1  0  0  0  0
 31 33  1  0  0  0  0
 31 34  1  0  0  0  0
 29 30  1  0  0  0  0
 29 31  1  0  0  0  0
M  CHG  1  23   1
M  END
$$$$
default_name
  -OEChem-01062215323D

 34 33  0     1  0  0  0  0  0999 V2000
   -3.8899   -3.6747    1.6490 H   0  0  0  0  0  0  0  0  0  0  0  0
   -3.9109   -2.6717    1.2250 C   0  0  0  0  0  0  0  0  0  0  0  0
   -4.6009   -2.0517    1.7950 H   0  0  0  0  0  0  0  0  0  0  0  0
   -4.2309   -2.7237    0.1860 H   0  0  0  0  0  0  0  0  0  0  0  0
   -2.5229   -2.0787    1.2980 C   0  0  0  0  0  0  0  0  0  0  0  0
   -1.5999   -2.7227    1.7810 O   0  0  0  0  0  0  0  0  0  0  0  0
   -2.3659   -0.8447    0.8120 N   0  0  0  0  0  0  0  0  0  0  0  0
   -3.1749   -0.3807    0.4220 H   0  0  0  0  0  0  0  0  0  0  0  0
   -1.0919   -0.1077    0.8170 C   0  0  1  0  0  0  0  0  0  0  0  0
   -1.2908    0.9179    1.1334 H   0  0  0  0  0  0  0  0  0  0  0  0
   -0.1477   -0.7690    1.8385 C   0  0  0  0  0  0  0  0  0  0  0  0
   -0.0935   -1.8369    1.6212 H   0  0  0  0  0  0  0  0  0  0  0  0
    0.8533   -0.3478    1.7268 H   0  0  0  0  0  0  0  0  0  0  0  0
   -0.6104   -0.5952    3.2932 C   0  0  0  0  0  0  0  0  0  0  0  0
   -0.6862    0.4669    3.5303 H   0  0  0  0  0  0  0  0  0  0  0  0
   -1.5912   -1.0587    3.4163 H   0  0  0  0  0  0  0  0  0  0  0  0
    0.3878   -1.2556    4.2542 C   0  0  0  0  0  0  0  0  0  0  0  0
    0.4727   -2.3159    4.0046 H   0  0  0  0  0  0  0  0  0  0  0  0
    1.3643   -0.7824    4.1338 H   0  0  0  0  0  0  0  0  0  0  0  0
   -0.0855   -1.1044    5.7053 C   0  0  0  0  0  0  0  0  0  0  0  0
   -0.1715   -0.0369    5.9329 H   0  0  0  0  0  0  0  0  0  0  0  0
   -1.0822   -1.5473    5.7938 H   0  0  0  0  0  0  0  0  0  0  0  0
    0.8509   -1.7560    6.6556 N   0  3  0  0  0  0  0  0  0  0  0  0
    1.7726   -1.3432    6.5858 H   0  0  0  0  0  0  0  0  0  0  0  0
    0.5244   -1.6477    7.6078 H   0  0  0  0  0  0  0  0  0  0  0  0
    0.9272   -2.7463    6.4546 H   0  0  0  0  0  0  0  0  0  0  0  0
   -0.4844   -0.0802   -0.5874 C   0  0  0  0  0  0  0  0  0  0  0  0
    0.3981    0.7283   -0.8504 O   0  0  0  0  0  0  0  0  0  0  0  0
   -0.9822   -0.9369   -1.4851 N   0  0  0  0  0  0  0  0  0  0  0  0
   -1.6841   -1.5881   -1.1747 H   0  0  0  0  0  0  0  0  0  0  0  0
   -0.5117   -1.0408   -2.8676 C   0  0  0  0  0  0  0  0  0  0  0  0
    0.5391   -1.3382   -2.8781 H   0  0  0  0  0  0  0  0  0  0  0  0
   -1.0955   -1.7824   -3.4140 H   0  0  0  0  0  0  0  0  0  0  0  0
   -0.6003   -0.0733   -3.3667 H   0  0  0  0  0  0  0  0  0  0  0  0
  5  6  2  0  0  0  0
  5  7  1  0  0  0  0
  2  3  1  0  0  0  0
  2  4  1  0  0  0  0
  2  5  1  0  0  0  0
  1  2  1  0  0  0  0
 27 28  2  0  0  0  0
 27 29  1  0  0  0  0
 23 24  1  0  0  0  0
 23 25  1  0  0  0  0
 23 26  1  0  0  0  0
 20 21  1  0  0  0  0
 20 22  1  0  0  0  0
 20 23  1  0  0  0  0
 17 18  1  0  0  0  0
 17 19  1  0  0  0  0
 17 20  1  0  0  0  0
 14 15  1  0  0  0  0
 14 16  1  0  0  0  0
 14 17  1  0  0  0  0
 11 12  1  0  0  0  0
 11 13  1  0  0  0  0
 11 14  1  0  0  0  0
  9 10  1  0  0  0  0
  9 11  1  0  0  0  0
  9 27  1  0  0  0  0
  7  8  1  0  0  0  0
  7  9  1  0  0  0  0
 31 32  1  0  0  0  0
 31 33  1  0  0  0  0
 31 34  1  0  0  0  0
 29 30  1  0  0  0  0
 29 31  1  0  0  0  0
M  CHG  1  23   1
M  END
$$$$
default_name
  -OEChem-01062215323D

 34 33  0     1  0  0  0  0  0999 V2000
   -3.8899   -3.6747    1.6490 H   0  0  0  0  0  0  0  0  0  0  0  0
   -3.9109   -2.6717    1.2250 C   0  0  0  0  0  0  0  0  0  0  0  0
   -4.6009   -2.0517    1.7950 H   0  0  0  0  0  0  0  0  0  0  0  0
   -4.2309   -2.7237    0.1860 H   0  0  0  0  0  0  0  0  0  0  0  0
   -2.5229   -2.0787    1.2980 C   0  0  0  0  0  0  0  0  0  0  0  0
   -1.5999   -2.7227    1.7810 O   0  0  0  0  0  0  0  0  0  0  0  0
   -2.3659   -0.8447    0.8120 N   0  0  0  0  0  0  0  0  0  0  0  0
   -3.1749   -0.3807    0.4220 H   0  0  0  0  0  0  0  0  0  0  0  0
   -1.0919   -0.1077    0.8170 C   0  0  1  0  0  0  0  0  0  0  0  0
   -1.2908    0.9179    1.1334 H   0  0  0  0  0  0  0  0  0  0  0  0
   -0.1477   -0.7690    1.8385 C   0  0  0  0  0  0  0  0  0  0  0  0
   -0.0935   -1.8369    1.6212 H   0  0  0  0  0  0  0  0  0  0  0  0
    0.8533   -0.3478    1.7268 H   0  0  0  0  0  0  0  0  0  0  0  0
   -0.6104   -0.5952    3.2932 C   0  0  0  0  0  0  0  0  0  0  0  0
   -0.6862    0.4669    3.5303 H   0  0  0  0  0  0  0  0  0  0  0  0
   -1.5912   -1.0587    3.4163 H   0  0  0  0  0  0  0  0  0  0  0  0
    0.3878   -1.2556    4.2542 C   0  0  0  0  0  0  0  0  0  0  0  0
    0.4727   -2.3159    4.0046 H   0  0  0  0  0  0  0  0  0  0  0  0
    1.3643   -0.7824    4.1338 H   0  0  0  0  0  0  0  0  0  0  0  0
   -0.0855   -1.1044    5.7053 C   0  0  0  0  0  0  0  0  0  0  0  0
   -0.1715   -0.0369    5.9329 H   0  0  0  0  0  0  0  0  0  0  0  0
   -1.0822   -1.5473    5.7938 H   0  0  0  0  0  0  0  0  0  0  0  0
    0.8509   -1.7560    6.6556 N   0  3  0  0  0  0  0  0  0  0  0  0
    1.7726   -1.3432    6.5858 H   0  0  0  0  0  0  0  0  0  0  0  0
    0.5244   -1.6477    7.6078 H   0  0  0  0  0  0  0  0  0  0  0  0
    0.9272   -2.7463    6.4546 H   0  0  0  0  0  0  0  0  0  0  0  0
   -0.4844   -0.0802   -0.5874 C   0  0  0  0  0  0  0  0  0  0  0  0
    0.5670    0.5186   -0.7815 O   0  0  0  0  0  0  0  0  0  0  0  0
   -1.1646   -0.6969   -1.5593 N   0  0  0  0  0  0  0  0  0  0  0  0
   -2.0036   -1.1914   -1.3052 H   0  0  0  0  0  0  0  0  0  0  0  0
   -0.7216   -0.7660   -2.9531 C   0  0  0  0  0  0  0  0  0  0  0  0
    0.2284   -1.3016   -3.0118 H   0  0  0  0  0  0  0  0  0  0  0  0
   -1.4607   -1.2874   -3.5623 H   0  0  0  0  0  0  0  0  0  0  0  0
   -0.5738    0.2411   -3.3491 H   0  0  0  0  0  0  0  0  0  0  0  0
  5  6  2  0  0  0  0
  5  7  1  0  0  0  0
  2  3  1  0  0  0  0
  2  4  1  0  0  0  0
  2  5  1  0  0  0  0
  1  2  1  0  0  0  0
 27 28  2  0  0  0  0
 27 29  1  0  0  0  0
 23 24  1  0  0  0  0
 23 25  1  0  0  0  0
 23 26  1  0  0  0  0
 20 21  1  0  0  0  0
 20 22  1  0  0  0  0
 20 23  1  0  0  0  0
 17 18  1  0  0  0  0
 17 19  1  0  0  0  0
 17 20  1  0  0  0  0
 14 15  1  0  0  0  0
 14 16  1  0  0  0  0
 14 17  1  0  0  0  0
 11 12  1  0  0  0  0
 11 13  1  0  0  0  0
 11 14  1  0  0  0  0
  9 10  1  0  0  0  0
  9 11  1  0  0  0  0
  9 27  1  0  0  0  0
  7  8  1  0  0  0  0
  7  9  1  0  0  0  0
 31 32  1  0  0  0  0
 31 33  1  0  0  0  0
 31 34  1  0  0  0  0
 29 30  1  0  0  0  0
 29 31  1  0  0  0  0
M  CHG  1  23   1
M  END
$$$$
default_name
  -OEChem-01062215323D

 34 33  0     1  0  0  0  0  0999 V2000
   -3.8899   -3.6747    1.6490 H   0  0  0  0  0  0  0  0  0  0  0  0
   -3.9109   -2.6717    1.2250 C   0  0  0  0  0  0  0  0  0  0  0  0
   -4.6009   -2.0517    1.7950 H   0  0  0  0  0  0  0  0  0  0  0  0
   -4.2309   -2.7237    0.1860 H   0  0  0  0  0  0  0  0  0  0  0  0
   -2.5229   -2.0787    1.2980 C   0  0  0  0  0  0  0  0  0  0  0  0
   -1.5999   -2.7227    1.7810 O   0  0  0  0  0  0  0  0  0  0  0  0
   -2.3659   -0.8447    0.8120 N   0  0  0  0  0  0  0  0  0  0  0  0
   -3.1749   -0.3807    0.4220 H   0  0  0  0  0  0  0  0  0  0  0  0
   -1.0919   -0.1077    0.8170 C   0  0  1  0  0  0  0  0  0  0  0  0
   -1.2908    0.9179    1.1334 H   0  0  0  0  0  0  0  0  0  0  0  0
   -0.1477   -0.7690    1.8385 C   0  0  0  0  0  0  0  0  0  0  0  0
   -0.0935   -1.8369    1.6212 H   0  0  0  0  0  0  0  0  0  0  0  0
    0.8533   -0.3478    1.7268 H   0  0  0  0  0  0  0  0  0  0  0  0
   -0.6104   -0.5952    3.2932 C   0  0  0  0  0  0  0  0  0  0  0  0
   -0.6862    0.4669    3.5303 H   0  0  0  0  0  0  0  0  0  0  0  0
   -1.5912   -1.0587    3.4163 H   0  0  0  0  0  0  0  0  0  0  0  0
    0.3878   -1.2556    4.2542 C   0  0  0  0  0  0  0  0  0  0  0  0
    0.4727   -2.3159    4.0046 H   0  0  0  0  0  0  0  0  0  0  0  0
    1.3643   -0.7824    4.1338 H   0  0  0  0  0  0  0  0  0  0  0  0
   -0.0855   -1.1044    5.7053 C   0  0  0  0  0  0  0  0  0  0  0  0
   -0.1715   -0.0369    5.9329 H   0  0  0  0  0  0  0  0  0  0  0  0
   -1.0822   -1.5473    5.7938 H   0  0  0  0  0  0  0  0  0  0  0  0
    0.8509   -1.7560    6.6556 N   0  3  0  0  0  0  0  0  0  0  0  0
    1.7726   -1.3432    6.5858 H   0  0  0  0  0  0  0  0  0  0  0  0
    0.5244   -1.6477    7.6078 H   0  0  0  0  0  0  0  0  0  0  0  0
    0.9272   -2.7463    6.4546 H   0  0  0  0  0  0  0  0  0  0  0  0
   -0.4844   -0.0802   -0.5874 C   0  0  0  0  0  0  0  0  0  0  0  0
    0.6807    0.2688   -0.7372 O   0  0  0  0  0  0  0  0  0  0  0  0
   -1.2841   -0.4141   -1.6055 N   0  0  0  0  0  0  0  0  0  0  0  0
   -2.2186   -0.7189   -1.3889 H   0  0  0  0  0  0  0  0  0  0  0  0
   -0.8595   -0.4420   -3.0064 C   0  0  0  0  0  0  0  0  0  0  0  0
   -0.0636   -1.1786   -3.1357 H   0  0  0  0  0  0  0  0  0  0  0  0
   -1.6966   -0.7073   -3.6530 H   0  0  0  0  0  0  0  0  0  0  0  0
   -0.4735    0.5366   -3.2998 H   0  0  0  0  0  0  0  0  0  0  0  0
  5  6  2  0  0  0  0
  5  7  1  0  0  0  0
  2  3  1  0  0  0  0
  2  4  1  0  0  0  0
  2  5  1  0  0  0  0
  1  2  1  0  0  0  0
 27 28  2  0  0  0  0
 27 29  1  0  0  0  0
 23 24  1  0  0  0  0
 23 25  1  0  0  0  0
 23 26  1  0  0  0  0
 20 21  1  0  0  0  0
 20 22  1  0  0  0  0
 20 23  1  0  0  0  0
 17 18  1  0  0  0  0
 17 19  1  0  0  0  0
 17 20  1  0  0  0  0
 14 15  1  0  0  0  0
 14 16  1  0  0  0  0
 14 17  1  0  0  0  0
 11 12  1  0  0  0  0
 11 13  1  0  0  0  0
 11 14  1  0  0  0  0
  9 10  1  0  0  0  0
  9 11  1  0  0  0  0
  9 27  1  0  0  0  0
  7  8  1  0  0  0  0
  7  9  1  0  0  0  0
 31 32  1  0  0  0  0
 31 33  1  0  0  0  0
 31 34  1  0  0  0  0
 29 30  1  0  0  0  0
 29 31  1  0  0  0  0
M  CHG  1  23   1
M  END
$$$$
default_name
  -OEChem-01062215323D

 34 33  0     1  0  0  0  0  0999 V2000
   -3.8899   -3.6747    1.6490 H   0  0  0  0  0  0  0  0  0  0  0  0
   -3.9109   -2.6717    1.2250 C   0  0  0  0  0  0  0  0  0  0  0  0
   -4.6009   -2.0517    1.7950 H   0  0  0  0  0  0  0  0  0  0  0  0
   -4.2309   -2.7237    0.1860 H   0  0  0  0  0  0  0  0  0  0  0  0
   -2.5229   -2.0787    1.2980 C   0  0  0  0  0  0  0  0  0  0  0  0
   -1.5999   -2.7227    1.7810 O   0  0  0  0  0  0  0  0  0  0  0  0
   -2.3659   -0.8447    0.8120 N   0  0  0  0  0  0  0  0  0  0  0  0
   -3.1749   -0.3807    0.4220 H   0  0  0  0  0  0  0  0  0  0  0  0
   -1.0919   -0.1077    0.8170 C   0  0  1  0  0  0  0  0  0  0  0  0
   -1.2908    0.9179    1.1334 H   0  0  0  0  0  0  0  0  0  0  0  0
   -0.1477   -0.7690    1.8385 C   0  0  0  0  0  0  0  0  0  0  0  0
   -0.0935   -1.8369    1.6212 H   0  0  0  0  0  0  0  0  0  0  0  0
    0.8533   -0.3478    1.7268 H   0  0  0  0  0  0  0  0  0  0  0  0
   -0.6104   -0.5952    3.2932 C   0  0  0  0  0  0  0  0  0  0  0  0
   -0.6862    0.4669    3.5303 H   0  0  0  0  0  0  0  0  0  0  0  0
   -1.5912   -1.0587    3.4163 H   0  0  0  0  0  0  0  0  0  0  0  0
    0.3878   -1.2556    4.2542 C   0  0  0  0  0  0  0  0  0  0  0  0
    0.4727   -2.3159    4.0046 H   0  0  0  0  0  0  0  0  0  0  0  0
    1.3643   -0.7824    4.1338 H   0  0  0  0  0  0  0  0  0  0  0  0
   -0.0855   -1.1044    5.7053 C   0  0  0  0  0  0  0  0  0  0  0  0
   -0.1715   -0.0369    5.9329 H   0  0  0  0  0  0  0  0  0  0  0  0
   -1.0822   -1.5473    5.7938 H   0  0  0  0  0  0  0  0  0  0  0  0
    0.8509   -1.7560    6.6556 N   0  3  0  0  0  0  0  0  0  0  0  0
    1.7726   -1.3432    6.5858 H   0  0  0  0  0  0  0  0  0  0  0  0
    0.5244   -1.6477    7.6078 H   0  0  0  0  0  0  0  0  0  0  0  0
    0.9272   -2.7463    6.4546 H   0  0  0  0  0  0  0  0  0  0  0  0
   -0.4844   -0.0802   -0.5874 C   0  0  0  0  0  0  0  0  0  0  0  0
    0.7313   -0.0041   -0.7206 O   0  0  0  0  0  0  0  0  0  0  0  0
   -1.3327   -0.1078   -1.6205 N   0  0  0  0  0  0  0  0  0  0  0  0
   -2.3145   -0.2029   -1.4203 H   0  0  0  0  0  0  0  0  0  0  0  0
   -0.9160   -0.0908   -3.0239 C   0  0  0  0  0  0  0  0  0  0  0  0
   -0.3171   -0.9778   -3.2415 H   0  0  0  0  0  0  0  0  0  0  0  0
   -1.7872   -0.0816   -3.6799 H   0  0  0  0  0  0  0  0  0  0  0  0
   -0.3061    0.7933   -3.2224 H   0  0  0  0  0  0  0  0  0  0  0  0
  5  6  2  0  0  0  0
  5  7  1  0  0  0  0
  2  3  1  0  0  0  0
  2  4  1  0  0  0  0
  2  5  1  0  0  0  0
  1  2  1  0  0  0  0
 27 28  2  0  0  0  0
 27 29  1  0  0  0  0
 23 24  1  0  0  0  0
 23 25  1  0  0  0  0
 23 26  1  0  0  0  0
 20 21  1  0  0  0  0
 20 22  1  0  0  0  0
 20 23  1  0  0  0  0
 17 18  1  0  0  0  0
 17 19  1  0  0  0  0
 17 20  1  0  0  0  0
 14 15  1  0  0  0  0
 14 16  1  0  0  0  0
 14 17  1  0  0  0  0
 11 12  1  0  0  0  0
 11 13  1  0  0  0  0
 11 14  1  0  0  0  0
  9 10  1  0  0  0  0
  9 11  1  0  0  0  0
  9 27  1  0  0  0  0
  7  8  1  0  0  0  0
  7  9  1  0  0  0  0
 31 32  1  0  0  0  0
 31 33  1  0  0  0  0
 31 34  1  0  0  0  0
 29 30  1  0  0  0  0
 29 31  1  0  0  0  0
M  CHG  1  23   1
M  END
$$$$
default_name
  -OEChem-01062215323D

 34 33  0     1  0  0  0  0  0999 V2000
   -3.8899   -3.6747    1.6490 H   0  0  0  0  0  0  0  0  0  0  0  0
   -3.9109   -2.6717    1.2250 C   0  0  0  0  0  0  0  0  0  0  0  0
   -4.6009   -2.0517    1.7950 H   0  0  0  0  0  0  0  0  0  0  0  0
   -4.2309   -2.7237    0.1860 H   0  0  0  0  0  0  0  0  0  0  0  0
   -2.5229   -2.0787    1.2980 C   0  0  0  0  0  0  0  0  0  0  0  0
   -1.5999   -2.7227    1.7810 O   0  0  0  0  0  0  0  0  0  0  0  0
   -2.3659   -0.8447    0.8120 N   0  0  0  0  0  0  0  0  0  0  0  0
   -3.1749   -0.3807    0.4220 H   0  0  0  0  0  0  0  0  0  0  0  0
   -1.0919   -0.1077    0.8170 C   0  0  1  0  0  0  0  0  0  0  0  0
   -1.2908    0.9179    1.1334 H   0  0  0  0  0  0  0  0  0  0  0  0
   -0.1477   -0.7690    1.8385 C   0  0  0  0  0  0  0  0  0  0  0  0
   -0.0935   -1.8369    1.6212 H   0  0  0  0  0  0  0  0  0  0  0  0
    0.8533   -0.3478    1.7268 H   0  0  0  0  0  0  0  0  0  0  0  0
   -0.6104   -0.5952    3.2932 C   0  0  0  0  0  0  0  0  0  0  0  0
   -0.6862    0.4669    3.5303 H   0  0  0  0  0  0  0  0  0  0  0  0
   -1.5912   -1.0587    3.4163 H   0  0  0  0  0  0  0  0  0  0  0  0
    0.3878   -1.2556    4.2542 C   0  0  0  0  0  0  0  0  0  0  0  0
    0.4727   -2.3159    4.0046 H   0  0  0  0  0  0  0  0  0  0  0  0
    1.3643   -0.7824    4.1338 H   0  0  0  0  0  0  0  0  0  0  0  0
   -0.0855   -1.1044    5.7053 C   0  0  0  0  0  0  0  0  0  0  0  0
   -0.1715   -0.0369    5.9329 H   0  0  0  0  0  0  0  0  0  0  0  0
   -1.0822   -1.5473    5.7938 H   0  0  0  0  0  0  0  0  0  0  0  0
    0.8509   -1.7560    6.6556 N   0  3  0  0  0  0  0  0  0  0  0  0
    1.7726   -1.3432    6.5858 H   0  0  0  0  0  0  0  0  0  0  0  0
    0.5244   -1.6477    7.6078 H   0  0  0  0  0  0  0  0  0  0  0  0
    0.9272   -2.7463    6.4546 H   0  0  0  0  0  0  0  0  0  0  0  0
   -0.4844   -0.0802   -0.5874 C   0  0  0  0  0  0  0  0  0  0  0  0
    0.7156   -0.2813   -0.7329 O   0  0  0  0  0  0  0  0  0  0  0  0
   -1.3069    0.2012   -1.6033 N   0  0  0  0  0  0  0  0  0  0  0  0
   -2.2847    0.3216   -1.3971 H   0  0  0  0  0  0  0  0  0  0  0  0
   -0.8872    0.2637   -3.0045 C   0  0  0  0  0  0  0  0  0  0  0  0
   -0.5147   -0.7127   -3.3218 H   0  0  0  0  0  0  0  0  0  0  0  0
   -1.7261    0.5470   -3.6412 H   0  0  0  0  0  0  0  0  0  0  0  0
   -0.0831    0.9934   -3.1220 H   0  0  0  0  0  0  0  0  0  0  0  0
  5  6  2  0  0  0  0
  5  7  1  0  0  0  0
  2  3  1  0  0  0  0
  2  4  1  0  0  0  0
  2  5  1  0  0  0  0
  1  2  1  0  0  0  0
 27 28  2  0  0  0  0
 27 29  1  0  0  0  0
 23 24  1  0  0  0  0
 23 25  1  0  0  0  0
 23 26  1  0  0  0  0
 20 21  1  0  0  0  0
 20 22  1  0  0  0  0
 20 23  1  0  0  0  0
 17 18  1  0  0  0  0
 17 19  1  0  0  0  0
 17 20  1  0  0  0  0
 14 15  1  0  0  0  0
 14 16  1  0  0  0  0
 14 17  1  0  0  0  0
 11 12  1  0  0  0  0
 11 13  1  0  0  0  0
 11 14  1  0  0  0  0
  9 10  1  0  0  0  0
  9 11  1  0  0  0  0
  9 27  1  0  0  0  0
  7  8  1  0  0  0  0
  7  9  1  0  0  0  0
 31 32  1  0  0  0  0
 31 33  1  0  0  0  0
 31 34  1  0  0  0  0
 29 30  1  0  0  0  0
 29 31  1  0  0  0  0
M  CHG  1  23   1
M  END
$$$$
default_name
  -OEChem-01062215323D

 34 33  0     1  0  0  0  0  0999 V2000
   -3.8899   -3.6747    1.6490 H   0  0  0  0  0  0  0  0  0  0  0  0
   -3.9109   -2.6717    1.2250 C   0  0  0  0  0  0  0  0  0  0  0  0
   -4.6009   -2.0517    1.7950 H   0  0  0  0  0  0  0  0  0  0  0  0
   -4.2309   -2.7237    0.1860 H   0  0  0  0  0  0  0  0  0  0  0  0
   -2.5229   -2.0787    1.2980 C   0  0  0  0  0  0  0  0  0  0  0  0
   -1.5999   -2.7227    1.7810 O   0  0  0  0  0  0  0  0  0  0  0  0
   -2.3659   -0.8447    0.8120 N   0  0  0  0  0  0  0  0  0  0  0  0
   -3.1749   -0.3807    0.4220 H   0  0  0  0  0  0  0  0  0  0  0  0
   -1.0919   -0.1077    0.8170 C   0  0  1  0  0  0  0  0  0  0  0  0
   -1.2908    0.9179    1.1334 H   0  0  0  0  0  0  0  0  0  0  0  0
   -0.1477   -0.7690    1.8385 C   0  0  0  0  0  0  0  0  0  0  0  0
   -0.0935   -1.8369    1.6212 H   0  0  0  0  0  0  0  0  0  0  0  0
    0.8533   -0.3478    1.7268 H   0  0  0  0  0  0  0  0  0  0  0  0
   -0.6104   -0.5952    3.2932 C   0  0  0  0  0  0  0  0  0  0  0  0
   -0.6862    0.4669    3.5303 H   0  0  0  0  0  0  0  0  0  0  0  0
   -1.5912   -1.0587    3.4163 H   0  0  0  0  0  0  0  0  0  0  0  0
    0.3878   -1.2556    4.2542 C   0  0  0  0  0  0  0  0  0  0  0  0
    0.4727   -2.3159    4.0046 H   0  0  0  0  0  0  0  0  0  0  0  0
    1.3643   -0.7824    4.1338 H   0  0  0  0  0  0  0  0  0  0  0  0
   -0.0855   -1.1044    5.7053 C   0  0  0  0  0  0  0  0  0  0  0  0
   -0.1715   -0.0369    5.9329 H   0  0  0  0  0  0  0  0  0  0  0  0
   -1.0822   -1.5473    5.7938 H   0  0  0  0  0  0  0  0  0  0  0  0
    0.8509   -1.7560    6.6556 N   0  3  0  0  0  0  0  0  0  0  0  0
    1.7726   -1.3432    6.5858 H   0  0  0  0  0  0  0  0  0  0  0  0
    0.5244   -1.6477    7.6078 H   0  0  0  0  0  0  0  0  0  0  0  0
    0.9272   -2.7463    6.4546 H   0  0  0  0  0  0  0  0  0  0  0  0
   -0.4844   -0.0802   -0.5874 C   0  0  0  0  0  0  0  0  0  0  0  0
    0.6344   -0.5442   -0.7731 O   0  0  0  0  0  0  0  0  0  0  0  0
   -1.2085    0.4917   -1.5550 N   0  0  0  0  0  0  0  0  0  0  0  0
   -2.1312    0.8187   -1.3210 H   0  0  0  0  0  0  0  0  0  0  0  0
   -0.7751    0.5973   -2.9495 C   0  0  0  0  0  0  0  0  0  0  0  0
   -0.6430   -0.4015   -3.3712 H   0  0  0  0  0  0  0  0  0  0  0  0
   -1.5177    1.1357   -3.5395 H   0  0  0  0  0  0  0  0  0  0  0  0
    0.1803    1.1235   -3.0055 H   0  0  0  0  0  0  0  0  0  0  0  0
  5  6  2  0  0  0  0
  5  7  1  0  0  0  0
  2  3  1  0  0  0  0
  2  4  1  0  0  0  0
  2  5  1  0  0  0  0
  1  2  1  0  0  0  0
 27 28  2  0  0  0  0
 27 29  1  0  0  0  0
 23 24  1  0  0  0  0
 23 25  1  0  0  0  0
 23 26  1  0  0  0  0
 20 21  1  0  0  0  0
 20 22  1  0  0  0  0
 20 23  1  0  0  0  0
 17 18  1  0  0  0  0
 17 19  1  0  0  0  0
 17 20  1  0  0  0  0
 14 15  1  0  0  0  0
 14 16  1  0  0  0  0
 14 17  1  0  0  0  0
 11 12  1  0  0  0  0
 11 13  1  0  0  0  0
 11 14  1  0  0  0  0
  9 10  1  0  0  0  0
  9 11  1  0  0  0  0
  9 27  1  0  0  0  0
  7  8  1  0  0  0  0
  7  9  1  0  0  0  0
 31 32  1  0  0  0  0
 31 33  1  0  0  0  0
 31 34  1  0  0  0  0
 29 30  1  0  0  0  0
 29 31  1  0  0  0  0
M  CHG  1  23   1
M  END
$$$$
default_name
  -OEChem-01062215323D

 34 33  0     1  0  0  0  0  0999 V2000
   -3.8899   -3.6747    1.6490 H   0  0  0  0  0  0  0  0  0  0  0  0
   -3.9109   -2.6717    1.2250 C   0  0  0  0  0  0  0  0  0  0  0  0
   -4.6009   -2.0517    1.7950 H   0  0  0  0  0  0  0  0  0  0  0  0
   -4.2309   -2.7237    0.1860 H   0  0  0  0  0  0  0  0  0  0  0  0
   -2.5229   -2.0787    1.2980 C   0  0  0  0  0  0  0  0  0  0  0  0
   -1.5999   -2.7227    1.7810 O   0  0  0  0  0  0  0  0  0  0  0  0
   -2.3659   -0.8447    0.8120 N   0  0  0  0  0  0  0  0  0  0  0  0
   -3.1749   -0.3807    0.4220 H   0  0  0  0  0  0  0  0  0  0  0  0
   -1.0919   -0.1077    0.8170 C   0  0  1  0  0  0  0  0  0  0  0  0
   -1.2908    0.9179    1.1334 H   0  0  0  0  0  0  0  0  0  0  0  0
   -0.1477   -0.7690    1.8385 C   0  0  0  0  0  0  0  0  0  0  0  0
   -0.0935   -1.8369    1.6212 H   0  0  0  0  0  0  0  0  0  0  0  0
    0.8533   -0.3478    1.7268 H   0  0  0  0  0  0  0  0  0  0  0  0
   -0.6104   -0.5952    3.2932 C   0  0  0  0  0  0  0  0  0  0  0  0
   -0.6862    0.4669    3.5303 H   0  0  0  0  0  0  0  0  0  0  0  0
   -1.5912   -1.0587    3.4163 H   0  0  0  0  0  0  0  0  0  0  0  0
    0.3878   -1.2556    4.2542 C   0  0  0  0  0  0  0  0  0  0  0  0
    0.4727   -2.3159    4.0046 H   0  0  0  0  0  0  0  0  0  0  0  0
    1.3643   -0.7824    4.1338 H   0  0  0  0  0  0  0  0  0  0  0  0
   -0.0855   -1.1044    5.7053 C   0  0  0  0  0  0  0  0  0  0  0  0
   -0.1715   -0.0369    5.9329 H   0  0  0  0  0  0  0  0  0  0  0  0
   -1.0822   -1.5473    5.7938 H   0  0  0  0  0  0  0  0  0  0  0  0
    0.8509   -1.7560    6.6556 N   0  3  0  0  0  0  0  0  0  0  0  0
    1.7726   -1.3432    6.5858 H   0  0  0  0  0  0  0  0  0  0  0  0
    0.5244   -1.6477    7.6078 H   0  0  0  0  0  0  0  0  0  0  0  0
    0.9272   -2.7463    6.4546 H   0  0  0  0  0  0  0  0  0  0  0  0
   -0.4844   -0.0802   -0.5874 C   0  0  0  0  0  0  0  0  0  0  0  0
    0.4934   -0.7746   -0.8386 O   0  0  0  0  0  0  0  0  0  0  0  0
   -1.0442    0.7440   -1.4790 N   0  0  0  0  0  0  0  0  0  0  0  0
   -1.8645    1.2546   -1.1971 H   0  0  0  0  0  0  0  0  0  0  0  0
   -0.5874    0.8872   -2.8626 C   0  0  0  0  0  0  0  0  0  0  0  0
   -0.6932   -0.0653   -3.3863 H   0  0  0  0  0  0  0  0  0  0  0  0
   -1.1760    1.6445   -3.3817 H   0  0  0  0  0  0  0  0  0  0  0  0
    0.4661    1.1746   -2.8809 H   0  0  0  0  0  0  0  0  0  0  0  0
  5  6  2  0  0  0  0
  5  7  1  0  0  0  0
  2  3  1  0  0  0  0
  2  4  1  0  0  0  0
  2  5  1  0  0  0  0
  1  2  1  0  0  0  0
 27 28  2  0  0  0  0
 27 29  1  0  0  0  0
 23 24  1  0  0  0  0
 23 25  1  0  0  0  0
 23 26  1  0  0  0  0
 20 21  1  0  0  0  0
 20 22  1  0  0  0  0
 20 23  1  0  0  0  0
 17 18  1  0  0  0  0
 17 19  1  0  0  0  0
 17 20  1  0  0  0  0
 14 15  1  0  0  0  0
 14 16  1  0  0  0  0
 14 17  1  0  0  0  0
 11 12  1  0  0  0  0
 11 13  1  0  0  0  0
 11 14  1  0  0  0  0
  9 10  1  0  0  0  0
  9 11  1  0  0  0  0
  9 27  1  0  0  0  0
  7  8  1  0  0  0  0
  7  9  1  0  0  0  0
 31 32  1  0  0  0  0
 31 33  1  0  0  0  0
 31 34  1  0  0  0  0
 29 30  1  0  0  0  0
 29 31  1  0  0  0  0
M  CHG  1  23   1
M  END
$$$$
default_name
  -OEChem-01062215323D

 34 33  0     1  0  0  0  0  0999 V2000
   -3.8899   -3.6747    1.6490 H   0  0  0  0  0  0  0  0  0  0  0  0
   -3.9109   -2.6717    1.2250 C   0  0  0  0  0  0  0  0  0  0  0  0
   -4.6009   -2.0517    1.7950 H   0  0  0  0  0  0  0  0  0  0  0  0
   -4.2309   -2.7237    0.1860 H   0  0  0  0  0  0  0  0  0  0  0  0
   -2.5229   -2.0787    1.2980 C   0  0  0  0  0  0  0  0  0  0  0  0
   -1.5999   -2.7227    1.7810 O   0  0  0  0  0  0  0  0  0  0  0  0
   -2.3659   -0.8447    0.8120 N   0  0  0  0  0  0  0  0  0  0  0  0
   -3.1749   -0.3807    0.4220 H   0  0  0  0  0  0  0  0  0  0  0  0
   -1.0919   -0.1077    0.8170 C   0  0  1  0  0  0  0  0  0  0  0  0
   -1.2908    0.9179    1.1334 H   0  0  0  0  0  0  0  0  0  0  0  0
   -0.1477   -0.7690    1.8385 C   0  0  0  0  0  0  0  0  0  0  0  0
   -0.0935   -1.8369    1.6212 H   0  0  0  0  0  0  0  0  0  0  0  0
    0.8533   -0.3478    1.7268 H   0  0  0  0  0  0  0  0  0  0  0  0
   -0.6104   -0.5952    3.2932 C   0  0  0  0  0  0  0  0  0  0  0  0
   -0.6862    0.4669    3.5303 H   0  0  0  0  0  0  0  0  0  0  0  0
   -1.5912   -1.0587    3.4163 H   0  0  0  0  0  0  0  0  0  0  0  0
    0.3878   -1.2556    4.2542 C   0  0  0  0  0  0  0  0  0  0  0  0
    0.4727   -2.3159    4.0046 H   0  0  0  0  0  0  0  0  0  0  0  0
    1.3643   -0.7824    4.1338 H   0  0  0  0  0  0  0  0  0  0  0  0
   -0.0855   -1.1044    5.7053 C   0  0  0  0  0  0  0  0  0  0  0  0
   -0.1715   -0.0369    5.9329 H   0  0  0  0  0  0  0  0  0  0  0  0
   -1.0822   -1.5473    5.7938 H   0  0  0  0  0  0  0  0  0  0  0  0
    0.8509   -1.7560    6.6556 N   0  3  0  0  0  0  0  0  0  0  0  0
    1.7726   -1.3432    6.5858 H   0  0  0  0  0  0  0  0  0  0  0  0
    0.5244   -1.6477    7.6078 H   0  0  0  0  0  0  0  0  0  0  0  0
    0.9272   -2.7463    6.4546 H   0  0  0  0  0  0  0  0  0  0  0  0
   -0.4844   -0.0802   -0.5874 C   0  0  0  0  0  0  0  0  0  0  0  0
    0.3022   -0.9570   -0.9249 O   0  0  0  0  0  0  0  0  0  0  0  0
   -0.8253    0.9408   -1.3805 N   0  0  0  0  0  0  0  0  0  0  0  0
   -1.5029    1.5995   -1.0338 H   0  0  0  0  0  0  0  0  0  0  0  0
   -0.3368    1.1137   -2.7498 C   0  0  0  0  0  0  0  0  0  0  0  0
   -0.6620    0.2729   -3.3661 H   0  0  0  0  0  0  0  0  0  0  0  0
   -0.7245    2.0385   -3.1786 H   0  0  0  0  0  0  0  0  0  0  0  0
    0.7550    1.1433   -2.7565 H   0  0  0  0  0  0  0  0  0  0  0  0
  5  6  2  0  0  0  0
  5  7  1  0  0  0  0
  2  3  1  0  0  0  0
  2  4  1  0  0  0  0
  2  5  1  0  0  0  0
  1  2  1  0  0  0  0
 27 28  2  0  0  0  0
 27 29  1  0  0  0  0
 23 24  1  0  0  0  0
 23 25  1  0  0  0  0
 23 26  1  0  0  0  0
 20 21  1  0  0  0  0
 20 22  1  0  0  0  0
 20 23  1  0  0  0  0
 17 18  1  0  0  0  0
 17 19  1  0  0  0  0
 17 20  1  0  0  0  0
 14 15  1  0  0  0  0
 14 16  1  0  0  0  0
 14 17  1  0  0  0  0
 11 12  1  0  0  0  0
 11 13  1  0  0  0  0
 11 14  1  0  0  0  0
  9 10  1  0  0  0  0
  9 11  1  0  0  0  0
  9 27  1  0  0  0  0
  7  8  1  0  0  0  0
  7  9  1  0  0  0  0
 31 32  1  0  0  0  0
 31 33  1  0  0  0  0
 31 34  1  0  0  0  0
 29 30  1  0  0  0  0
 29 31  1  0  0  0  0
M  CHG  1  23   1
M  END
$$$$
default_name
  -OEChem-01062215323D

 34 33  0     1  0  0  0  0  0999 V2000
   -3.8899   -3.6747    1.6490 H   0  0  0  0  0  0  0  0  0  0  0  0
   -3.9109   -2.6717    1.2250 C   0  0  0  0  0  0  0  0  0  0  0  0
   -4.6009   -2.0517    1.7950 H   0  0  0  0  0  0  0  0  0  0  0  0
   -4.2309   -2.7237    0.1860 H   0  0  0  0  0  0  0  0  0  0  0  0
   -2.5229   -2.0787    1.2980 C   0  0  0  0  0  0  0  0  0  0  0  0
   -1.5999   -2.7227    1.7810 O   0  0  0  0  0  0  0  0  0  0  0  0
   -2.3659   -0.8447    0.8120 N   0  0  0  0  0  0  0  0  0  0  0  0
   -3.1749   -0.3807    0.4220 H   0  0  0  0  0  0  0  0  0  0  0  0
   -1.0919   -0.1077    0.8170 C   0  0  1  0  0  0  0  0  0  0  0  0
   -1.2908    0.9179    1.1334 H   0  0  0  0  0  0  0  0  0  0  0  0
   -0.1477   -0.7690    1.8385 C   0  0  0  0  0  0  0  0  0  0  0  0
   -0.0935   -1.8369    1.6212 H   0  0  0  0  0  0  0  0  0  0  0  0
    0.8533   -0.3478    1.7268 H   0  0  0  0  0  0  0  0  0  0  0  0
   -0.6104   -0.5952    3.2932 C   0  0  0  0  0  0  0  0  0  0  0  0
   -0.6862    0.4669    3.5303 H   0  0  0  0  0  0  0  0  0  0  0  0
   -1.5912   -1.0587    3.4163 H   0  0  0  0  0  0  0  0  0  0  0  0
    0.3878   -1.2556    4.2542 C   0  0  0  0  0  0  0  0  0  0  0  0
    0.4727   -2.3159    4.0046 H   0  0  0  0  0  0  0  0  0  0  0  0
    1.3643   -0.7824    4.1338 H   0  0  0  0  0  0  0  0  0  0  0  0
   -0.0855   -1.1044    5.7053 C   0  0  0  0  0  0  0  0  0  0  0  0
   -0.1715   -0.0369    5.9329 H   0  0  0  0  0  0  0  0  0  0  0  0
   -1.0822   -1.5473    5.7938 H   0  0  0  0  0  0  0  0  0  0  0  0
    0.8509   -1.7560    6.6556 N   0  3  0  0  0  0  0  0  0  0  0  0
    1.7726   -1.3432    6.5858 H   0  0  0  0  0  0  0  0  0  0  0  0
    0.5244   -1.6477    7.6078 H   0  0  0  0  0  0  0  0  0  0  0  0
    0.9272   -2.7463    6.4546 H   0  0  0  0  0  0  0  0  0  0  0  0
   -0.4844   -0.0802   -0.5874 C   0  0  0  0  0  0  0  0  0  0  0  0
    0.0738   -1.0789   -1.0261 O   0  0  0  0  0  0  0  0  0  0  0  0
   -0.5666    1.0689   -1.2660 N   0  0  0  0  0  0  0  0  0  0  0  0
   -1.0708    1.8301   -0.8424 H   0  0  0  0  0  0  0  0  0  0  0  0
   -0.0404    1.2615   -2.6186 C   0  0  0  0  0  0  0  0  0  0  0  0
   -0.5514    0.5901   -3.3121 H   0  0  0  0  0  0  0  0  0  0  0  0
   -0.1938    2.2910   -2.9441 H   0  0  0  0  0  0  0  0  0  0  0  0
    1.0271    1.0316   -2.6410 H   0  0  0  0  0  0  0  0  0  0  0  0
  5  6  2  0  0  0  0
  5  7  1  0  0  0  0
  2  3  1  0  0  0  0
  2  4  1  0  0  0  0
  2  5  1  0  0  0  0
  1  2  1  0  0  0  0
 27 28  2  0  0  0  0
 27 29  1  0  0  0  0
 23 24  1  0  0  0  0
 23 25  1  0  0  0  0
 23 26  1  0  0  0  0
 20 21  1  0  0  0  0
 20 22  1  0  0  0  0
 20 23  1  0  0  0  0
 17 18  1  0  0  0  0
 17 19  1  0  0  0  0
 17 20  1  0  0  0  0
 14 15  1  0  0  0  0
 14 16  1  0  0  0  0
 14 17  1  0  0  0  0
 11 12  1  0  0  0  0
 11 13  1  0  0  0  0
 11 14  1  0  0  0  0
  9 10  1  0  0  0  0
  9 11  1  0  0  0  0
  9 27  1  0  0  0  0
  7  8  1  0  0  0  0
  7  9  1  0  0  0  0
 31 32  1  0  0  0  0
 31 33  1  0  0  0  0
 31 34  1  0  0  0  0
 29 30  1  0  0  0  0
 29 31  1  0  0  0  0
M  CHG  1  23   1
M  END
$$$$
default_name
  -OEChem-01062215323D

 34 33  0     1  0  0  0  0  0999 V2000
   -3.8899   -3.6747    1.6490 H   0  0  0  0  0  0  0  0  0  0  0  0
   -3.9109   -2.6717    1.2250 C   0  0  0  0  0  0  0  0  0  0  0  0
   -4.6009   -2.0517    1.7950 H   0  0  0  0  0  0  0  0  0  0  0  0
   -4.2309   -2.7237    0.1860 H   0  0  0  0  0  0  0  0  0  0  0  0
   -2.5229   -2.0787    1.2980 C   0  0  0  0  0  0  0  0  0  0  0  0
   -1.5999   -2.7227    1.7810 O   0  0  0  0  0  0  0  0  0  0  0  0
   -2.3659   -0.8447    0.8120 N   0  0  0  0  0  0  0  0  0  0  0  0
   -3.1749   -0.3807    0.4220 H   0  0  0  0  0  0  0  0  0  0  0  0
   -1.0919   -0.1077    0.8170 C   0  0  1  0  0  0  0  0  0  0  0  0
   -1.2908    0.9179    1.1334 H   0  0  0  0  0  0  0  0  0  0  0  0
   -0.1477   -0.7690    1.8385 C   0  0  0  0  0  0  0  0  0  0  0  0
   -0.0935   -1.8369    1.6212 H   0  0  0  0  0  0  0  0  0  0  0  0
    0.8533   -0.3478    1.7268 H   0  0  0  0  0  0  0  0  0  0  0  0
   -0.6104   -0.5952    3.2932 C   0  0  0  0  0  0  0  0  0  0  0  0
   -0.6862    0.4669    3.5303 H   0  0  0  0  0  0  0  0  0  0  0  0
   -1.5912   -1.0587    3.4163 H   0  0  0  0  0  0  0  0  0  0  0  0
    0.3878   -1.2556    4.2542 C   0  0  0  0  0  0  0  0  0  0  0  0
    0.4727   -2.3159    4.0046 H   0  0  0  0  0  0  0  0  0  0  0  0
    1.3643   -0.7824    4.1338 H   0  0  0  0  0  0  0  0  0  0  0  0
   -0.0855   -1.1044    5.7053 C   0  0  0  0  0  0  0  0  0  0  0  0
   -0.1715   -0.0369    5.9329 H   0  0  0  0  0  0  0  0  0  0  0  0
   -1.0822   -1.5473    5.7938 H   0  0  0  0  0  0  0  0  0  0  0  0
    0.8509   -1.7560    6.6556 N   0  3  0  0  0  0  0  0  0  0  0  0
    1.7726   -1.3432    6.5858 H   0  0  0  0  0  0  0  0  0  0  0  0
    0.5244   -1.6477    7.6078 H   0  0  0  0  0  0  0  0  0  0  0  0
    0.9272   -2.7463    6.4546 H   0  0  0  0  0  0  0  0  0  0  0  0
   -0.4844   -0.0802   -0.5874 C   0  0  0  0  0  0  0  0  0  0  0  0
   -0.1763   -1.1320   -1.1354 O   0  0  0  0  0  0  0  0  0  0  0  0
   -0.2858    1.1194   -1.1436 N   0  0  0  0  0  0  0  0  0  0  0  0
   -0.5978    1.9305   -0.6358 H   0  0  0  0  0  0  0  0  0  0  0  0
    0.2816    1.3203   -2.4782 C   0  0  0  0  0  0  0  0  0  0  0  0
   -0.3690    0.8646   -3.2278 H   0  0  0  0  0  0  0  0  0  0  0  0
    0.3799    2.3847   -2.6941 H   0  0  0  0  0  0  0  0  0  0  0  0
    1.2640    0.8473   -2.5421 H   0  0  0  0  0  0  0  0  0  0  0  0
  5  6  2  0  0  0  0
  5  7  1  0  0  0  0
  2  3  1  0  0  0  0
  2  4  1  0  0  0  0
  2  5  1  0  0  0  0
  1  2  1  0  0  0  0
 27 28  2  0  0  0  0
 27 29  1  0  0  0  0
 23 24  1  0  0  0  0
 23 25  1  0  0  0  0
 23 26  1  0  0  0  0
 20 21  1  0  0  0  0
 20 22  1  0  0  0  0
 20 23  1  0  0  0  0
 17 18  1  0  0  0  0
 17 19  1  0  0  0  0
 17 20  1  0  0  0  0
 14 15  1  0  0  0  0
 14 16  1  0  0  0  0
 14 17  1  0  0  0  0
 11 12  1  0  0  0  0
 11 13  1  0  0  0  0
 11 14  1  0  0  0  0
  9 10  1  0  0  0  0
  9 11  1  0  0  0  0
  9 27  1  0  0  0  0
  7  8  1  0  0  0  0
  7  9  1  0  0  0  0
 31 32  1  0  0  0  0
 31 33  1  0  0  0  0
 31 34  1  0  0  0  0
 29 30  1  0  0  0  0
 29 31  1  0  0  0  0
M  CHG  1  23   1
M  END
$$$$
default_name
  -OEChem-01062215323D

 34 33  0     1  0  0  0  0  0999 V2000
   -3.8899   -3.6747    1.6490 H   0  0  0  0  0  0  0  0  0  0  0  0
   -3.9109   -2.6717    1.2250 C   0  0  0  0  0  0  0  0  0  0  0  0
   -4.6009   -2.0517    1.7950 H   0  0  0  0  0  0  0  0  0  0  0  0
   -4.2309   -2.7237    0.1860 H   0  0  0  0  0  0  0  0  0  0  0  0
   -2.5229   -2.0787    1.2980 C   0  0  0  0  0  0  0  0  0  0  0  0
   -1.5999   -2.7227    1.7810 O   0  0  0  0  0  0  0  0  0  0  0  0
   -2.3659   -0.8447    0.8120 N   0  0  0  0  0  0  0  0  0  0  0  0
   -3.1749   -0.3807    0.4220 H   0  0  0  0  0  0  0  0  0  0  0  0
   -1.0919   -0.1077    0.8170 C   0  0  1  0  0  0  0  0  0  0  0  0
   -1.2908    0.9179    1.1334 H   0  0  0  0  0  0  0  0  0  0  0  0
   -0.1477   -0.7690    1.8385 C   0  0  0  0  0  0  0  0  0  0  0  0
   -0.0935   -1.8369    1.6212 H   0  0  0  0  0  0  0  0  0  0  0  0
    0.8533   -0.3478    1.7268 H   0  0  0  0  0  0  0  0  0  0  0  0
   -0.6104   -0.5952    3.2932 C   0  0  0  0  0  0  0  0  0  0  0  0
   -0.6862    0.4669    3.5303 H   0  0  0  0  0  0  0  0  0  0  0  0
   -1.5912   -1.0587    3.4163 H   0  0  0  0  0  0  0  0  0  0  0  0
    0.3878   -1.2556    4.2542 C   0  0  0  0  0  0  0  0  0  0  0  0
    0.4727   -2.3159    4.0046 H   0  0  0  0  0  0  0  0  0  0  0  0
    1.3643   -0.7824    4.1338 H   0  0  0  0  0  0  0  0  0  0  0  0
   -0.0855   -1.1044    5.7053 C   0  0  0  0  0  0  0  0  0  0  0  0
   -0.1715   -0.0369    5.9329 H   0  0  0  0  0  0  0  0  0  0  0  0
   -1.0822   -1.5473    5.7938 H   0  0  0  0  0  0  0  0  0  0  0  0
    0.8509   -1.7560    6.6556 N   0  3  0  0  0  0  0  0  0  0  0  0
    1.7726   -1.3432    6.5858 H   0  0  0  0  0  0  0  0  0  0  0  0
    0.5244   -1.6477    7.6078 H   0  0  0  0  0  0  0  0  0  0  0  0
    0.9272   -2.7463    6.4546 H   0  0  0  0  0  0  0  0  0  0  0  0
   -0.4844   -0.0802   -0.5874 C   0  0  0  0  0  0  0  0  0  0  0  0
   -0.4309   -1.1127   -1.2452 O   0  0  0  0  0  0  0  0  0  0  0  0
   -0.0020    1.0888   -1.0214 N   0  0  0  0  0  0  0  0  0  0  0  0
   -0.1162    1.8939   -0.4282 H   0  0  0  0  0  0  0  0  0  0  0  0
    0.6072    1.2862   -2.3380 C   0  0  0  0  0  0  0  0  0  0  0  0
   -0.1272    1.0779   -3.1190 H   0  0  0  0  0  0  0  0  0  0  0  0
    0.9575    2.3134   -2.4456 H   0  0  0  0  0  0  0  0  0  0  0  0
    1.4495    0.6028   -2.4667 H   0  0  0  0  0  0  0  0  0  0  0  0
  5  6  2  0  0  0  0
  5  7  1  0  0  0  0
  2  3  1  0  0  0  0
  2  4  1  0  0  0  0
  2  5  1  0  0  0  0
  1  2  1  0  0  0  0
 27 28  2  0  0  0  0
 27 29  1  0  0  0  0
 23 24  1  0  0  0  0
 23 25  1  0  0  0  0
 23 26  1  0  0  0  0
 20 21  1  0  0  0  0
 20 22  1  0  0  0  0
 20 23  1  0  0  0  0
 17 18  1  0  0  0  0
 17 19  1  0  0  0  0
 17 20  1  0  0  0  0
 14 15  1  0  0  0  0
 14 16  1  0  0  0  0
 14 17  1  0  0  0  0
 11 12  1  0  0  0  0
 11 13  1  0  0  0  0
 11 14  1  0  0  0  0
  9 10  1  0  0  0  0
  9 11  1  0  0  0  0
  9 27  1  0  0  0  0
  7  8  1  0  0  0  0
  7  9  1  0  0  0  0
 31 32  1  0  0  0  0
 31 33  1  0  0  0  0
 31 34  1  0  0  0  0
 29 30  1  0  0  0  0
 29 31  1  0  0  0  0
M  CHG  1  23   1
M  END
$$$$
default_name
  -OEChem-01062215323D

 34 33  0     1  0  0  0  0  0999 V2000
   -3.8899   -3.6747    1.6490 H   0  0  0  0  0  0  0  0  0  0  0  0
   -3.9109   -2.6717    1.2250 C   0  0  0  0  0  0  0  0  0  0  0  0
   -4.6009   -2.0517    1.7950 H   0  0  0  0  0  0  0  0  0  0  0  0
   -4.2309   -2.7237    0.1860 H   0  0  0  0  0  0  0  0  0  0  0  0
   -2.5229   -2.0787    1.2980 C   0  0  0  0  0  0  0  0  0  0  0  0
   -1.5999   -2.7227    1.7810 O   0  0  0  0  0  0  0  0  0  0  0  0
   -2.3659   -0.8447    0.8120 N   0  0  0  0  0  0  0  0  0  0  0  0
   -3.1749   -0.3807    0.4220 H   0  0  0  0  0  0  0  0  0  0  0  0
   -1.0919   -0.1077    0.8170 C   0  0  1  0  0  0  0  0  0  0  0  0
   -1.2908    0.9179    1.1334 H   0  0  0  0  0  0  0  0  0  0  0  0
   -0.1477   -0.7690    1.8385 C   0  0  0  0  0  0  0  0  0  0  0  0
   -0.0935   -1.8369    1.6212 H   0  0  0  0  0  0  0  0  0  0  0  0
    0.8533   -0.3478    1.7268 H   0  0  0  0  0  0  0  0  0  0  0  0
   -0.6104   -0.5952    3.2932 C   0  0  0  0  0  0  0  0  0  0  0  0
   -0.6862    0.4669    3.5303 H   0  0  0  0  0  0  0  0  0  0  0  0
   -1.5912   -1.0587    3.4163 H   0  0  0  0  0  0  0  0  0  0  0  0
    0.3878   -1.2556    4.2542 C   0  0  0  0  0  0  0  0  0  0  0  0
    0.4727   -2.3159    4.0046 H   0  0  0  0  0  0  0  0  0  0  0  0
    1.3643   -0.7824    4.1338 H   0  0  0  0  0  0  0  0  0  0  0  0
   -0.0855   -1.1044    5.7053 C   0  0  0  0  0  0  0  0  0  0  0  0
   -0.1715   -0.0369    5.9329 H   0  0  0  0  0  0  0  0  0  0  0  0
   -1.0822   -1.5473    5.7938 H   0  0  0  0  0  0  0  0  0  0  0  0
    0.8509   -1.7560    6.6556 N   0  3  0  0  0  0  0  0  0  0  0  0
    1.7726   -1.3432    6.5858 H   0  0  0  0  0  0  0  0  0  0  0  0
    0.5244   -1.6477    7.6078 H   0  0  0  0  0  0  0  0  0  0  0  0
    0.9272   -2.7463    6.4546 H   0  0  0  0  0  0  0  0  0  0  0  0
   -0.4844   -0.0802   -0.5874 C   0  0  0  0  0  0  0  0  0  0  0  0
   -0.6728   -1.0222   -1.3480 O   0  0  0  0  0  0  0  0  0  0  0  0
    0.2654    0.9794   -0.9078 N   0  0  0  0  0  0  0  0  0  0  0  0
    0.3414    1.7229   -0.2336 H   0  0  0  0  0  0  0  0  0  0  0  0
    0.9143    1.1615   -2.2076 C   0  0  0  0  0  0  0  0  0  0  0  0
    0.1575    1.2152   -2.9931 H   0  0  0  0  0  0  0  0  0  0  0  0
    1.4995    2.0817   -2.2156 H   0  0  0  0  0  0  0  0  0  0  0  0
    1.5709    0.3149   -2.4198 H   0  0  0  0  0  0  0  0  0  0  0  0
  5  6  2  0  0  0  0
  5  7  1  0  0  0  0
  2  3  1  0  0  0  0
  2  4  1  0  0  0  0
  2  5  1  0  0  0  0
  1  2  1  0  0  0  0
 27 28  2  0  0  0  0
 27 29  1  0  0  0  0
 23 24  1  0  0  0  0
 23 25  1  0  0  0  0
 23 26  1  0  0  0  0
 20 21  1  0  0  0  0
 20 22  1  0  0  0  0
 20 23  1  0  0  0  0
 17 18  1  0  0  0  0
 17 19  1  0  0  0  0
 17 20  1  0  0  0  0
 14 15  1  0  0  0  0
 14 16  1  0  0  0  0
 14 17  1  0  0  0  0
 11 12  1  0  0  0  0
 11 13  1  0  0  0  0
 11 14  1  0  0  0  0
  9 10  1  0  0  0  0
  9 11  1  0  0  0  0
  9 27  1  0  0  0  0
  7  8  1  0  0  0  0
  7  9  1  0  0  0  0
 31 32  1  0  0  0  0
 31 33  1  0  0  0  0
 31 34  1  0  0  0  0
 29 30  1  0  0  0  0
 29 31  1  0  0  0  0
M  CHG  1  23   1
M  END
$$$$
default_name
  -OEChem-01062215323D

 34 33  0     1  0  0  0  0  0999 V2000
   -3.8899   -3.6747    1.6490 H   0  0  0  0  0  0  0  0  0  0  0  0
   -3.9109   -2.6717    1.2250 C   0  0  0  0  0  0  0  0  0  0  0  0
   -4.6009   -2.0517    1.7950 H   0  0  0  0  0  0  0  0  0  0  0  0
   -4.2309   -2.7237    0.1860 H   0  0  0  0  0  0  0  0  0  0  0  0
   -2.5229   -2.0787    1.2980 C   0  0  0  0  0  0  0  0  0  0  0  0
   -1.5999   -2.7227    1.7810 O   0  0  0  0  0  0  0  0  0  0  0  0
   -2.3659   -0.8447    0.8120 N   0  0  0  0  0  0  0  0  0  0  0  0
   -3.1749   -0.3807    0.4220 H   0  0  0  0  0  0  0  0  0  0  0  0
   -1.0919   -0.1077    0.8170 C   0  0  1  0  0  0  0  0  0  0  0  0
   -1.2908    0.9179    1.1334 H   0  0  0  0  0  0  0  0  0  0  0  0
   -0.1477   -0.7690    1.8385 C   0  0  0  0  0  0  0  0  0  0  0  0
   -0.0935   -1.8369    1.6212 H   0  0  0  0  0  0  0  0  0  0  0  0
    0.8533   -0.3478    1.7268 H   0  0  0  0  0  0  0  0  0  0  0  0
   -0.6104   -0.5952    3.2932 C   0  0  0  0  0  0  0  0  0  0  0  0
   -0.6862    0.4669    3.5303 H   0  0  0  0  0  0  0  0  0  0  0  0
   -1.5912   -1.0587    3.4163 H   0  0  0  0  0  0  0  0  0  0  0  0
    0.3878   -1.2556    4.2542 C   0  0  0  0  0  0  0  0  0  0  0  0
    0.4727   -2.3159    4.0046 H   0  0  0  0  0  0  0  0  0  0  0  0
    1.3643   -0.7824    4.1338 H   0  0  0  0  0  0  0  0  0  0  0  0
   -0.0855   -1.1044    5.7053 C   0  0  0  0  0  0  0  0  0  0  0  0
   -0.1715   -0.0369    5.9329 H   0  0  0  0  0  0  0  0  0  0  0  0
   -1.0822   -1.5473    5.7938 H   0  0  0  0  0  0  0  0  0  0  0  0
    0.8509   -1.7560    6.6556 N   0  3  0  0  0  0  0  0  0  0  0  0
    1.7726   -1.3432    6.5858 H   0  0  0  0  0  0  0  0  0  0  0  0
    0.5244   -1.6477    7.6078 H   0  0  0  0  0  0  0  0  0  0  0  0
    0.9272   -2.7463    6.4546 H   0  0  0  0  0  0  0  0  0  0  0  0
   -0.4844   -0.0802   -0.5874 C   0  0  0  0  0  0  0  0  0  0  0  0
   -0.8855   -0.8668   -1.4370 O   0  0  0  0  0  0  0  0  0  0  0  0
    0.4983    0.7985   -0.8106 N   0  0  0  0  0  0  0  0  0  0  0  0
    0.7436    1.4290   -0.0653 H   0  0  0  0  0  0  0  0  0  0  0  0
    1.1819    0.9547   -2.0959 C   0  0  0  0  0  0  0  0  0  0  0  0
    0.4657    1.2673   -2.8588 H   0  0  0  0  0  0  0  0  0  0  0  0
    1.9692    1.7056   -2.0198 H   0  0  0  0  0  0  0  0  0  0  0  0
    1.6201    0.0031   -2.4046 H   0  0  0  0  0  0  0  0  0  0  0  0
  5  6  2  0  0  0  0
  5  7  1  0  0  0  0
  2  3  1  0  0  0  0
  2  4  1  0  0  0  0
  2  5  1  0  0  0  0
  1  2  1  0  0  0  0
 27 28  2  0  0  0  0
 27 29  1  0  0  0  0
 23 24  1  0  0  0  0
 23 25  1  0  0  0  0
 23 26  1  0  0  0  0
 20 21  1  0  0  0  0
 20 22  1  0  0  0  0
 20 23  1  0  0  0  0
 17 18  1  0  0  0  0
 17 19  1  0  0  0  0
 17 20  1  0  0  0  0
 14 15  1  0  0  0  0
 14 16  1  0  0  0  0
 14 17  1  0  0  0  0
 11 12  1  0  0  0  0
 11 13  1  0  0  0  0
 11 14  1  0  0  0  0
  9 10  1  0  0  0  0
  9 11  1  0  0  0  0
  9 27  1  0  0  0  0
  7  8  1  0  0  0  0
  7  9  1  0  0  0  0
 31 32  1  0  0  0  0
 31 33  1  0  0  0  0
 31 34  1  0  0  0  0
 29 30  1  0  0  0  0
 29 31  1  0  0  0  0
M  CHG  1  23   1
M  END
$$$$
default_name
  -OEChem-01062215323D

 34 33  0     1  0  0  0  0  0999 V2000
   -3.8899   -3.6747    1.6490 H   0  0  0  0  0  0  0  0  0  0  0  0
   -3.9109   -2.6717    1.2250 C   0  0  0  0  0  0  0  0  0  0  0  0
   -4.6009   -2.0517    1.7950 H   0  0  0  0  0  0  0  0  0  0  0  0
   -4.2309   -2.7237    0.1860 H   0  0  0  0  0  0  0  0  0  0  0  0
   -2.5229   -2.0787    1.2980 C   0  0  0  0  0  0  0  0  0  0  0  0
   -1.5999   -2.7227    1.7810 O   0  0  0  0  0  0  0  0  0  0  0  0
   -2.3659   -0.8447    0.8120 N   0  0  0  0  0  0  0  0  0  0  0  0
   -3.1749   -0.3807    0.4220 H   0  0  0  0  0  0  0  0  0  0  0  0
   -1.0919   -0.1077    0.8170 C   0  0  1  0  0  0  0  0  0  0  0  0
   -1.2338    0.8177    1.3782 H   0  0  0  0  0  0  0  0  0  0  0  0
   -0.0325   -0.9661    1.5333 C   0  0  0  0  0  0  0  0  0  0  0  0
   -0.0217   -1.9572    1.0770 H   0  0  0  0  0  0  0  0  0  0  0  0
    0.9514   -0.5150    1.3901 H   0  0  0  0  0  0  0  0  0  0  0  0
   -0.3001   -1.1298    3.0373 C   0  0  0  0  0  0  0  0  0  0  0  0
   -0.3297   -0.1492    3.5140 H   0  0  0  0  0  0  0  0  0  0  0  0
   -1.2630   -1.6244    3.1793 H   0  0  0  0  0  0  0  0  0  0  0  0
    0.8050   -1.9730    3.6882 C   0  0  0  0  0  0  0  0  0  0  0  0
    0.8421   -2.9490    3.1985 H   0  0  0  0  0  0  0  0  0  0  0  0
    1.7642   -1.4696    3.5515 H   0  0  0  0  0  0  0  0  0  0  0  0
    0.5261   -2.1581    5.1850 C   0  0  0  0  0  0  0  0  0  0  0  0
    0.4852   -1.1702    5.6552 H   0  0  0  0  0  0  0  0  0  0  0  0
   -0.4567   -2.6250    5.3004 H   0  0  0  0  0  0  0  0  0  0  0  0
    1.5687   -2.9912    5.8357 N   0  3  0  0  0  0  0  0  0  0  0  0
    2.4792   -2.5589    5.7414 H   0  0  0  0  0  0  0  0  0  0  0  0
    1.3700   -3.1040    6.8220 H   0  0  0  0  0  0  0  0  0  0  0  0
    1.6045   -3.9100    5.4098 H   0  0  0  0  0  0  0  0  0  0  0  0
   -0.6713    0.2432   -0.6121 C   0  0  0  0  0  0  0  0  0  0  0  0
   -1.3637   -0.1222   -1.5548 O   0  0  0  0  0  0  0  0  0  0  0  0
    0.4734    0.9171   -0.7638 N   0  0  0  0  0  0  0  0  0  0  0  0
    0.9630    1.2053    0.0671 H   0  0  0  0  0  0  0  0  0  0  0  0
    1.0148    1.3320   -2.0592 C   0  0  0  0  0  0  0  0  0  0  0  0
    0.3197    2.0190   -2.5464 H   0  0  0  0  0  0  0  0  0  0  0  0
    1.9748    1.8327   -1.9282 H   0  0  0  0  0  0  0  0  0  0  0  0
    1.1476    0.4614   -2.7053 H   0  0  0  0  0  0  0  0  0  0  0  0
  5  6  2  0  0  0  0
  5  7  1  0  0  0  0
  2  3  1  0  0  0  0
  2  4  1  0  0  0  0
  2  5  1  0  0  0  0
  1  2  1  0  0  0  0
 27 28  2  0  0  0  0
 27 29  1  0  0  0  0
 23 24  1  0  0  0  0
 23 25  1  0  0  0  0
 23 26  1  0  0  0  0
 20 21  1  0  0  0  0
 20 22  1  0  0  0  0
 20 23  1  0  0  0  0
 17 18  1  0  0  0  0
 17 19  1  0  0  0  0
 17 20  1  0  0  0  0
 14 15  1  0  0  0  0
 14 16  1  0  0  0  0
 14 17  1  0  0  0  0
 11 12  1  0  0  0  0
 11 13  1  0  0  0  0
 11 14  1  0  0  0  0
  9 10  1  0  0  0  0
  9 11  1  0  0  0  0
  9 27  1  0  0  0  0
  7  8  1  0  0  0  0
  7  9  1  0  0  0  0
 31 32  1  0  0  0  0
 31 33  1  0  0  0  0
 31 34  1  0  0  0  0
 29 30  1  0  0  0  0
 29 31  1  0  0  0  0
M  CHG  1  23   1
M  END
$$$$
default_name
  -OEChem-01062215323D

 34 33  0     1  0  0  0  0  0999 V2000
   -3.8899   -3.6747    1.6490 H   0  0  0  0  0  0  0  0  0  0  0  0
   -3.9109   -2.6717    1.2250 C   0  0  0  0  0  0  0  0  0  0  0  0
   -4.6009   -2.0517    1.7950 H   0  0  0  0  0  0  0  0  0  0  0  0
   -4.2309   -2.7237    0.1860 H   0  0  0  0  0  0  0  0  0  0  0  0
   -2.5229   -2.0787    1.2980 C   0  0  0  0  0  0  0  0  0  0  0  0
   -1.5999   -2.7227    1.7810 O   0  0  0  0  0  0  0  0  0  0  0  0
   -2.3659   -0.8447    0.8120 N   0  0  0  0  0  0  0  0  0  0  0  0
   -3.1749   -0.3807    0.4220 H   0  0  0  0  0  0  0  0  0  0  0  0
   -1.0919   -0.1077    0.8170 C   0  0  1  0  0  0  0  0  0  0  0  0
   -1.2338    0.8177    1.3782 H   0  0  0  0  0  0  0  0  0  0  0  0
   -0.0325   -0.9661    1.5333 C   0  0  0  0  0  0  0  0  0  0  0  0
   -0.0217   -1.9572    1.0770 H   0  0  0  0  0  0  0  0  0  0  0  0
    0.9514   -0.5150    1.3901 H   0  0  0  0  0  0  0  0  0  0  0  0
   -0.3001   -1.1298    3.0373 C   0  0  0  0  0  0  0  0  0  0  0  0
   -0.3297   -0.1492    3.5140 H   0  0  0  0  0  0  0  0  0  0  0  0
   -1.2630   -1.6244    3.1793 H   0  0  0  0  0  0  0  0  0  0  0  0
    0.8050   -1.9730    3.6882 C   0  0  0  0  0  0  0  0  0  0  0  0
    0.8421   -2.9490    3.1985 H   0  0  0  0  0  0  0  0  0  0  0  0
    1.7642   -1.4696    3.5515 H   0  0  0  0  0  0  0  0  0  0  0  0
    0.5261   -2.1581    5.1850 C   0  0  0  0  0  0  0  0  0  0  0  0
    0.4852   -1.1702    5.6552 H   0  0  0  0  0  0  0  0  0  0  0  0
   -0.4567   -2.6250    5.3004 H   0  0  0  0  0  0  0  0  0  0  0  0
    1.5687   -2.9912    5.8357 N   0  3  0  0  0  0  0  0  0  0  0  0
    2.4792   -2.5589    5.7414 H   0  0  0  0  0  0  0  0  0  0  0  0
    1.3700   -3.1040    6.8220 H   0  0  0  0  0  0  0  0  0  0  0  0
    1.6045   -3.9100    5.4098 H   0  0  0  0  0  0  0  0  0  0  0  0
   -0.6713    0.2432   -0.6121 C   0  0  0  0  0  0  0  0  0  0  0  0
   -1.4786    0.1294   -1.5269 O   0  0  0  0  0  0  0  0  0  0  0  0
    0.5940    0.6331   -0.7980 N   0  0  0  0  0  0  0  0  0  0  0  0
    1.1805    0.7295    0.0143 H   0  0  0  0  0  0  0  0  0  0  0  0
    1.1540    1.0064   -2.0982 C   0  0  0  0  0  0  0  0  0  0  0  0
    0.6236    1.8760   -2.4921 H   0  0  0  0  0  0  0  0  0  0  0  0
    2.2124    1.2508   -2.0012 H   0  0  0  0  0  0  0  0  0  0  0  0
    1.0377    0.1828   -2.8061 H   0  0  0  0  0  0  0  0  0  0  0  0
  5  6  2  0  0  0  0
  5  7  1  0  0  0  0
  2  3  1  0  0  0  0
  2  4  1  0  0  0  0
  2  5  1  0  0  0  0
  1  2  1  0  0  0  0
 27 28  2  0  0  0  0
 27 29  1  0  0  0  0
 23 24  1  0  0  0  0
 23 25  1  0  0  0  0
 23 26  1  0  0  0  0
 20 21  1  0  0  0  0
 20 22  1  0  0  0  0
 20 23  1  0  0  0  0
 17 18  1  0  0  0  0
 17 19  1  0  0  0  0
 17 20  1  0  0  0  0
 14 15  1  0  0  0  0
 14 16  1  0  0  0  0
 14 17  1  0  0  0  0
 11 12  1  0  0  0  0
 11 13  1  0  0  0  0
 11 14  1  0  0  0  0
  9 10  1  0  0  0  0
  9 11  1  0  0  0  0
  9 27  1  0  0  0  0
  7  8  1  0  0  0  0
  7  9  1  0  0  0  0
 31 32  1  0  0  0  0
 31 33  1  0  0  0  0
 31 34  1  0  0  0  0
 29 30  1  0  0  0  0
 29 31  1  0  0  0  0
M  CHG  1  23   1
M  END
$$$$
default_name
  -OEChem-01062215323D

 34 33  0     1  0  0  0  0  0999 V2000
   -3.8899   -3.6747    1.6490 H   0  0  0  0  0  0  0  0  0  0  0  0
   -3.9109   -2.6717    1.2250 C   0  0  0  0  0  0  0  0  0  0  0  0
   -4.6009   -2.0517    1.7950 H   0  0  0  0  0  0  0  0  0  0  0  0
   -4.2309   -2.7237    0.1860 H   0  0  0  0  0  0  0  0  0  0  0  0
   -2.5229   -2.0787    1.2980 C   0  0  0  0  0  0  0  0  0  0  0  0
   -1.5999   -2.7227    1.7810 O   0  0  0  0  0  0  0  0  0  0  0  0
   -2.3659   -0.8447    0.8120 N   0  0  0  0  0  0  0  0  0  0  0  0
   -3.1749   -0.3807    0.4220 H   0  0  0  0  0  0  0  0  0  0  0  0
   -1.0919   -0.1077    0.8170 C   0  0  1  0  0  0  0  0  0  0  0  0
   -1.2338    0.8177    1.3782 H   0  0  0  0  0  0  0  0  0  0  0  0
   -0.0325   -0.9661    1.5333 C   0  0  0  0  0  0  0  0  0  0  0  0
   -0.0217   -1.9572    1.0770 H   0  0  0  0  0  0  0  0  0  0  0  0
    0.9514   -0.5150    1.3901 H   0  0  0  0  0  0  0  0  0  0  0  0
   -0.3001   -1.1298    3.0373 C   0  0  0  0  0  0  0  0  0  0  0  0
   -0.3297   -0.1492    3.5140 H   0  0  0  0  0  0  0  0  0  0  0  0
   -1.2630   -1.6244    3.1793 H   0  0  0  0  0  0  0  0  0  0  0  0
    0.8050   -1.9730    3.6882 C   0  0  0  0  0  0  0  0  0  0  0  0
    0.8421   -2.9490    3.1985 H   0  0  0  0  0  0  0  0  0  0  0  0
    1.7642   -1.4696    3.5515 H   0  0  0  0  0  0  0  0  0  0  0  0
    0.5261   -2.1581    5.1850 C   0  0  0  0  0  0  0  0  0  0  0  0
    0.4852   -1.1702    5.6552 H   0  0  0  0  0  0  0  0  0  0  0  0
   -0.4567   -2.6250    5.3004 H   0  0  0  0  0  0  0  0  0  0  0  0
    1.5687   -2.9912    5.8357 N   0  3  0  0  0  0  0  0  0  0  0  0
    2.4792   -2.5589    5.7414 H   0  0  0  0  0  0  0  0  0  0  0  0
    1.3700   -3.1040    6.8220 H   0  0  0  0  0  0  0  0  0  0  0  0
    1.6045   -3.9100    5.4098 H   0  0  0  0  0  0  0  0  0  0  0  0
   -0.6713    0.2432   -0.6121 C   0  0  0  0  0  0  0  0  0  0  0  0
   -1.5272    0.3981   -1.4752 O   0  0  0  0  0  0  0  0  0  0  0  0
    0.6398    0.3320   -0.8585 N   0  0  0  0  0  0  0  0  0  0  0  0
    1.2724    0.2211   -0.0835 H   0  0  0  0  0  0  0  0  0  0  0  0
    1.2074    0.6611   -2.1673 C   0  0  0  0  0  0  0  0  0  0  0  0
    0.8858    1.6606   -2.4678 H   0  0  0  0  0  0  0  0  0  0  0  0
    2.2969    0.6364   -2.1271 H   0  0  0  0  0  0  0  0  0  0  0  0
    0.8581   -0.0525   -2.9167 H   0  0  0  0  0  0  0  0  0  0  0  0
  5  6  2  0  0  0  0
  5  7  1  0  0  0  0
  2  3  1  0  0  0  0
  2  4  1  0  0  0  0
  2  5  1  0  0  0  0
  1  2  1  0  0  0  0
 27 28  2  0  0  0  0
 27 29  1  0  0  0  0
 23 24  1  0  0  0  0
 23 25  1  0  0  0  0
 23 26  1  0  0  0  0
 20 21  1  0  0  0  0
 20 22  1  0  0  0  0
 20 23  1  0  0  0  0
 17 18  1  0  0  0  0
 17 19  1  0  0  0  0
 17 20  1  0  0  0  0
 14 15  1  0  0  0  0
 14 16  1  0  0  0  0
 14 17  1  0  0  0  0
 11 12  1  0  0  0  0
 11 13  1  0  0  0  0
 11 14  1  0  0  0  0
  9 10  1  0  0  0  0
  9 11  1  0  0  0  0
  9 27  1  0  0  0  0
  7  8  1  0  0  0  0
  7  9  1  0  0  0  0
 31 32  1  0  0  0  0
 31 33  1  0  0  0  0
 31 34  1  0  0  0  0
 29 30  1  0  0  0  0
 29 31  1  0  0  0  0
M  CHG  1  23   1
M  END
$$$$
default_name
  -OEChem-01062215323D

 34 33  0     1  0  0  0  0  0999 V2000
   -3.8899   -3.6747    1.6490 H   0  0  0  0  0  0  0  0  0  0  0  0
   -3.9109   -2.6717    1.2250 C   0  0  0  0  0  0  0  0  0  0  0  0
   -4.6009   -2.0517    1.7950 H   0  0  0  0  0  0  0  0  0  0  0  0
   -4.2309   -2.7237    0.1860 H   0  0  0  0  0  0  0  0  0  0  0  0
   -2.5229   -2.0787    1.2980 C   0  0  0  0  0  0  0  0  0  0  0  0
   -1.5999   -2.7227    1.7810 O   0  0  0  0  0  0  0  0  0  0  0  0
   -2.3659   -0.8447    0.8120 N   0  0  0  0  0  0  0  0  0  0  0  0
   -3.1749   -0.3807    0.4220 H   0  0  0  0  0  0  0  0  0  0  0  0
   -1.0919   -0.1077    0.8170 C   0  0  1  0  0  0  0  0  0  0  0  0
   -1.2338    0.8177    1.3782 H   0  0  0  0  0  0  0  0  0  0  0  0
   -0.0325   -0.9661    1.5333 C   0  0  0  0  0  0  0  0  0  0  0  0
   -0.0217   -1.9572    1.0770 H   0  0  0  0  0  0  0  0  0  0  0  0
    0.9514   -0.5150    1.3901 H   0  0  0  0  0  0  0  0  0  0  0  0
   -0.3001   -1.1298    3.0373 C   0  0  0  0  0  0  0  0  0  0  0  0
   -0.3297   -0.1492    3.5140 H   0  0  0  0  0  0  0  0  0  0  0  0
   -1.2630   -1.6244    3.1793 H   0  0  0  0  0  0  0  0  0  0  0  0
    0.8050   -1.9730    3.6882 C   0  0  0  0  0  0  0  0  0  0  0  0
    0.8421   -2.9490    3.1985 H   0  0  0  0  0  0  0  0  0  0  0  0
    1.7642   -1.4696    3.5515 H   0  0  0  0  0  0  0  0  0  0  0  0
    0.5261   -2.1581    5.1850 C   0  0  0  0  0  0  0  0  0  0  0  0
    0.4852   -1.1702    5.6552 H   0  0  0  0  0  0  0  0  0  0  0  0
   -0.4567   -2.6250    5.3004 H   0  0  0  0  0  0  0  0  0  0  0  0
    1.5687   -2.9912    5.8357 N   0  3  0  0  0  0  0  0  0  0  0  0
    2.4792   -2.5589    5.7414 H   0  0  0  0  0  0  0  0  0  0  0  0
    1.3700   -3.1040    6.8220 H   0  0  0  0  0  0  0  0  0  0  0  0
    1.6045   -3.9100    5.4098 H   0  0  0  0  0  0  0  0  0  0  0  0
   -0.6713    0.2432   -0.6121 C   0  0  0  0  0  0  0  0  0  0  0  0
   -1.5062    0.6658   -1.4032 O   0  0  0  0  0  0  0  0  0  0  0  0
    0.6077    0.0344   -0.9410 N   0  0  0  0  0  0  0  0  0  0  0  0
    1.2325   -0.2852   -0.2195 H   0  0  0  0  0  0  0  0  0  0  0  0
    1.1714    0.3196   -2.2617 C   0  0  0  0  0  0  0  0  0  0  0  0
    1.0884    1.3874   -2.4753 H   0  0  0  0  0  0  0  0  0  0  0  0
    2.2227    0.0316   -2.2975 H   0  0  0  0  0  0  0  0  0  0  0  0
    0.6212   -0.2286   -3.0296 H   0  0  0  0  0  0  0  0  0  0  0  0
  5  6  2  0  0  0  0
  5  7  1  0  0  0  0
  2  3  1  0  0  0  0
  2  4  1  0  0  0  0
  2  5  1  0  0  0  0
  1  2  1  0  0  0  0
 27 28  2  0  0  0  0
 27 29  1  0  0  0  0
 23 24  1  0  0  0  0
 23 25  1  0  0  0  0
 23 26  1  0  0  0  0
 20 21  1  0  0  0  0
 20 22  1  0  0  0  0
 20 23  1  0  0  0  0
 17 18  1  0  0  0  0
 17 19  1  0  0  0  0
 17 20  1  0  0  0  0
 14 15  1  0  0  0  0
 14 16  1  0  0  0  0
 14 17  1  0  0  0  0
 11 12  1  0  0  0  0
 11 13  1  0  0  0  0
 11 14  1  0  0  0  0
  9 10  1  0  0  0  0
  9 11  1  0  0  0  0
  9 27  1  0  0  0  0
  7  8  1  0  0  0  0
  7  9  1  0  0  0  0
 31 32  1  0  0  0  0
 31 33  1  0  0  0  0
 31 34  1  0  0  0  0
 29 30  1  0  0  0  0
 29 31  1  0  0  0  0
M  CHG  1  23   1
M  END
$$$$
default_name
  -OEChem-01062215323D

 34 33  0     1  0  0  0  0  0999 V2000
   -3.8899   -3.6747    1.6490 H   0  0  0  0  0  0  0  0  0  0  0  0
   -3.9109   -2.6717    1.2250 C   0  0  0  0  0  0  0  0  0  0  0  0
   -4.6009   -2.0517    1.7950 H   0  0  0  0  0  0  0  0  0  0  0  0
   -4.2309   -2.7237    0.1860 H   0  0  0  0  0  0  0  0  0  0  0  0
   -2.5229   -2.0787    1.2980 C   0  0  0  0  0  0  0  0  0  0  0  0
   -1.5999   -2.7227    1.7810 O   0  0  0  0  0  0  0  0  0  0  0  0
   -2.3659   -0.8447    0.8120 N   0  0  0  0  0  0  0  0  0  0  0  0
   -3.1749   -0.3807    0.4220 H   0  0  0  0  0  0  0  0  0  0  0  0
   -1.0919   -0.1077    0.8170 C   0  0  1  0  0  0  0  0  0  0  0  0
   -1.2338    0.8177    1.3782 H   0  0  0  0  0  0  0  0  0  0  0  0
   -0.0325   -0.9661    1.5333 C   0  0  0  0  0  0  0  0  0  0  0  0
   -0.0217   -1.9572    1.0770 H   0  0  0  0  0  0  0  0  0  0  0  0
    0.9514   -0.5150    1.3901 H   0  0  0  0  0  0  0  0  0  0  0  0
   -0.3001   -1.1298    3.0373 C   0  0  0  0  0  0  0  0  0  0  0  0
   -0.3297   -0.1492    3.5140 H   0  0  0  0  0  0  0  0  0  0  0  0
   -1.2630   -1.6244    3.1793 H   0  0  0  0  0  0  0  0  0  0  0  0
    0.8050   -1.9730    3.6882 C   0  0  0  0  0  0  0  0  0  0  0  0
    0.8421   -2.9490    3.1985 H   0  0  0  0  0  0  0  0  0  0  0  0
    1.7642   -1.4696    3.5515 H   0  0  0  0  0  0  0  0  0  0  0  0
    0.5261   -2.1581    5.1850 C   0  0  0  0  0  0  0  0  0  0  0  0
    0.4852   -1.1702    5.6552 H   0  0  0  0  0  0  0  0  0  0  0  0
   -0.4567   -2.6250    5.3004 H   0  0  0  0  0  0  0  0  0  0  0  0
    1.5687   -2.9912    5.8357 N   0  3  0  0  0  0  0  0  0  0  0  0
    2.4792   -2.5589    5.7414 H   0  0  0  0  0  0  0  0  0  0  0  0
    1.3700   -3.1040    6.8220 H   0  0  0  0  0  0  0  0  0  0  0  0
    1.6045   -3.9100    5.4098 H   0  0  0  0  0  0  0  0  0  0  0  0
   -0.6713    0.2432   -0.6121 C   0  0  0  0  0  0  0  0  0  0  0  0
   -1.4168    0.9142   -1.3160 O   0  0  0  0  0  0  0  0  0  0  0  0
    0.4998   -0.2394   -1.0399 N   0  0  0  0  0  0  0  0  0  0  0  0
    1.0636   -0.7550   -0.3846 H   0  0  0  0  0  0  0  0  0  0  0  0
    1.0485    0.0051   -2.3751 C   0  0  0  0  0  0  0  0  0  0  0  0
    1.2177    1.0751   -2.5139 H   0  0  0  0  0  0  0  0  0  0  0  0
    1.9946   -0.5226   -2.5007 H   0  0  0  0  0  0  0  0  0  0  0  0
    0.3432   -0.3333   -3.1372 H   0  0  0  0  0  0  0  0  0  0  0  0
  5  6  2  0  0  0  0
  5  7  1  0  0  0  0
  2  3  1  0  0  0  0
  2  4  1  0  0  0  0
  2  5  1  0  0  0  0
  1  2  1  0  0  0  0
 27 28  2  0  0  0  0
 27 29  1  0  0  0  0
 23 24  1  0  0  0  0
 23 25  1  0  0  0  0
 23 26  1  0  0  0  0
 20 21  1  0  0  0  0
 20 22  1  0  0  0  0
 20 23  1  0  0  0  0
 17 18  1  0  0  0  0
 17 19  1  0  0  0  0
 17 20  1  0  0  0  0
 14 15  1  0  0  0  0
 14 16  1  0  0  0  0
 14 17  1  0  0  0  0
 11 12  1  0  0  0  0
 11 13  1  0  0  0  0
 11 14  1  0  0  0  0
  9 10  1  0  0  0  0
  9 11  1  0  0  0  0
  9 27  1  0  0  0  0
  7  8  1  0  0  0  0
  7  9  1  0  0  0  0
 31 32  1  0  0  0  0
 31 33  1  0  0  0  0
 31 34  1  0  0  0  0
 29 30  1  0  0  0  0
 29 31  1  0  0  0  0
M  CHG  1  23   1
M  END
$$$$
default_name
  -OEChem-01062215323D

 34 33  0     1  0  0  0  0  0999 V2000
   -3.8899   -3.6747    1.6490 H   0  0  0  0  0  0  0  0  0  0  0  0
   -3.9109   -2.6717    1.2250 C   0  0  0  0  0  0  0  0  0  0  0  0
   -4.6009   -2.0517    1.7950 H   0  0  0  0  0  0  0  0  0  0  0  0
   -4.2309   -2.7237    0.1860 H   0  0  0  0  0  0  0  0  0  0  0  0
   -2.5229   -2.0787    1.2980 C   0  0  0  0  0  0  0  0  0  0  0  0
   -1.5999   -2.7227    1.7810 O   0  0  0  0  0  0  0  0  0  0  0  0
   -2.3659   -0.8447    0.8120 N   0  0  0  0  0  0  0  0  0  0  0  0
   -3.1749   -0.3807    0.4220 H   0  0  0  0  0  0  0  0  0  0  0  0
   -1.0919   -0.1077    0.8170 C   0  0  1  0  0  0  0  0  0  0  0  0
   -1.2338    0.8177    1.3782 H   0  0  0  0  0  0  0  0  0  0  0  0
   -0.0325   -0.9661    1.5333 C   0  0  0  0  0  0  0  0  0  0  0  0
   -0.0217   -1.9572    1.0770 H   0  0  0  0  0  0  0  0  0  0  0  0
    0.9514   -0.5150    1.3901 H   0  0  0  0  0  0  0  0  0  0  0  0
   -0.3001   -1.1298    3.0373 C   0  0  0  0  0  0  0  0  0  0  0  0
   -0.3297   -0.1492    3.5140 H   0  0  0  0  0  0  0  0  0  0  0  0
   -1.2630   -1.6244    3.1793 H   0  0  0  0  0  0  0  0  0  0  0  0
    0.8050   -1.9730    3.6882 C   0  0  0  0  0  0  0  0  0  0  0  0
    0.8421   -2.9490    3.1985 H   0  0  0  0  0  0  0  0  0  0  0  0
    1.7642   -1.4696    3.5515 H   0  0  0  0  0  0  0  0  0  0  0  0
    0.5261   -2.1581    5.1850 C   0  0  0  0  0  0  0  0  0  0  0  0
    0.4852   -1.1702    5.6552 H   0  0  0  0  0  0  0  0  0  0  0  0
   -0.4567   -2.6250    5.3004 H   0  0  0  0  0  0  0  0  0  0  0  0
    1.5687   -2.9912    5.8357 N   0  3  0  0  0  0  0  0  0  0  0  0
    2.4792   -2.5589    5.7414 H   0  0  0  0  0  0  0  0  0  0  0  0
    1.3700   -3.1040    6.8220 H   0  0  0  0  0  0  0  0  0  0  0  0
    1.6045   -3.9100    5.4098 H   0  0  0  0  0  0  0  0  0  0  0  0
   -0.6713    0.2432   -0.6121 C   0  0  0  0  0  0  0  0  0  0  0  0
   -1.2654    1.1263   -1.2193 O   0  0  0  0  0  0  0  0  0  0  0  0
    0.3236   -0.4708   -1.1486 N   0  0  0  0  0  0  0  0  0  0  0  0
    0.7771   -1.1561   -0.5674 H   0  0  0  0  0  0  0  0  0  0  0  0
    0.8471   -0.2609   -2.4997 C   0  0  0  0  0  0  0  0  0  0  0  0
    1.2648    0.7449   -2.5811 H   0  0  0  0  0  0  0  0  0  0  0  0
    1.6284   -0.9883   -2.7228 H   0  0  0  0  0  0  0  0  0  0  0  0
    0.0429   -0.3597   -3.2320 H   0  0  0  0  0  0  0  0  0  0  0  0
  5  6  2  0  0  0  0
  5  7  1  0  0  0  0
  2  3  1  0  0  0  0
  2  4  1  0  0  0  0
  2  5  1  0  0  0  0
  1  2  1  0  0  0  0
 27 28  2  0  0  0  0
 27 29  1  0  0  0  0
 23 24  1  0  0  0  0
 23 25  1  0  0  0  0
 23 26  1  0  0  0  0
 20 21  1  0  0  0  0
 20 22  1  0  0  0  0
 20 23  1  0  0  0  0
 17 18  1  0  0  0  0
 17 19  1  0  0  0  0
 17 20  1  0  0  0  0
 14 15  1  0  0  0  0
 14 16  1  0  0  0  0
 14 17  1  0  0  0  0
 11 12  1  0  0  0  0
 11 13  1  0  0  0  0
 11 14  1  0  0  0  0
  9 10  1  0  0  0  0
  9 11  1  0  0  0  0
  9 27  1  0  0  0  0
  7  8  1  0  0  0  0
  7  9  1  0  0  0  0
 31 32  1  0  0  0  0
 31 33  1  0  0  0  0
 31 34  1  0  0  0  0
 29 30  1  0  0  0  0
 29 31  1  0  0  0  0
M  CHG  1  23   1
M  END
$$$$
default_name
  -OEChem-01062215323D

 34 33  0     1  0  0  0  0  0999 V2000
   -3.8899   -3.6747    1.6490 H   0  0  0  0  0  0  0  0  0  0  0  0
   -3.9109   -2.6717    1.2250 C   0  0  0  0  0  0  0  0  0  0  0  0
   -4.6009   -2.0517    1.7950 H   0  0  0  0  0  0  0  0  0  0  0  0
   -4.2309   -2.7237    0.1860 H   0  0  0  0  0  0  0  0  0  0  0  0
   -2.5229   -2.0787    1.2980 C   0  0  0  0  0  0  0  0  0  0  0  0
   -1.5999   -2.7227    1.7810 O   0  0  0  0  0  0  0  0  0  0  0  0
   -2.3659   -0.8447    0.8120 N   0  0  0  0  0  0  0  0  0  0  0  0
   -3.1749   -0.3807    0.4220 H   0  0  0  0  0  0  0  0  0  0  0  0
   -1.0919   -0.1077    0.8170 C   0  0  1  0  0  0  0  0  0  0  0  0
   -1.2338    0.8177    1.3782 H   0  0  0  0  0  0  0  0  0  0  0  0
   -0.0325   -0.9661    1.5333 C   0  0  0  0  0  0  0  0  0  0  0  0
   -0.0217   -1.9572    1.0770 H   0  0  0  0  0  0  0  0  0  0  0  0
    0.9514   -0.5150    1.3901 H   0  0  0  0  0  0  0  0  0  0  0  0
   -0.3001   -1.1298    3.0373 C   0  0  0  0  0  0  0  0  0  0  0  0
   -0.3297   -0.1492    3.5140 H   0  0  0  0  0  0  0  0  0  0  0  0
   -1.2630   -1.6244    3.1793 H   0  0  0  0  0  0  0  0  0  0  0  0
    0.8050   -1.9730    3.6882 C   0  0  0  0  0  0  0  0  0  0  0  0
    0.8421   -2.9490    3.1985 H   0  0  0  0  0  0  0  0  0  0  0  0
    1.7642   -1.4696    3.5515 H   0  0  0  0  0  0  0  0  0  0  0  0
    0.5261   -2.1581    5.1850 C   0  0  0  0  0  0  0  0  0  0  0  0
    0.4852   -1.1702    5.6552 H   0  0  0  0  0  0  0  0  0  0  0  0
   -0.4567   -2.6250    5.3004 H   0  0  0  0  0  0  0  0  0  0  0  0
    1.5687   -2.9912    5.8357 N   0  3  0  0  0  0  0  0  0  0  0  0
    2.4792   -2.5589    5.7414 H   0  0  0  0  0  0  0  0  0  0  0  0
    1.3700   -3.1040    6.8220 H   0  0  0  0  0  0  0  0  0  0  0  0
    1.6045   -3.9100    5.4098 H   0  0  0  0  0  0  0  0  0  0  0  0
   -0.6713    0.2432   -0.6121 C   0  0  0  0  0  0  0  0  0  0  0  0
   -1.0621    1.2877   -1.1198 O   0  0  0  0  0  0  0  0  0  0  0  0
    0.0910   -0.6440   -1.2596 N   0  0  0  0  0  0  0  0  0  0  0  0
    0.3925   -1.4614   -0.7555 H   0  0  0  0  0  0  0  0  0  0  0  0
    0.5809   -0.4603   -2.6270 C   0  0  0  0  0  0  0  0  0  0  0  0
    1.2265    0.4193   -2.6723 H   0  0  0  0  0  0  0  0  0  0  0  0
    1.1489   -1.3339   -2.9488 H   0  0  0  0  0  0  0  0  0  0  0  0
   -0.2592   -0.3058   -3.3077 H   0  0  0  0  0  0  0  0  0  0  0  0
  5  6  2  0  0  0  0
  5  7  1  0  0  0  0
  2  3  1  0  0  0  0
  2  4  1  0  0  0  0
  2  5  1  0  0  0  0
  1  2  1  0  0  0  0
 27 28  2  0  0  0  0
 27 29  1  0  0  0  0
 23 24  1  0  0  0  0
 23 25  1  0  0  0  0
 23 26  1  0  0  0  0
 20 21  1  0  0  0  0
 20 22  1  0  0  0  0
 20 23  1  0  0  0  0
 17 18  1  0  0  0  0
 17 19  1  0  0  0  0
 17 20  1  0  0  0  0
 14 15  1  0  0  0  0
 14 16  1  0  0  0  0
 14 17  1  0  0  0  0
 11 12  1  0  0  0  0
 11 13  1  0  0  0  0
 11 14  1  0  0  0  0
  9 10  1  0  0  0  0
  9 11  1  0  0  0  0
  9 27  1  0  0  0  0
  7  8  1  0  0  0  0
  7  9  1  0  0  0  0
 31 32  1  0  0  0  0
 31 33  1  0  0  0  0
 31 34  1  0  0  0  0
 29 30  1  0  0  0  0
 29 31  1  0  0  0  0
M  CHG  1  23   1
M  END
$$$$
default_name
  -OEChem-01062215323D

 34 33  0     1  0  0  0  0  0999 V2000
   -3.8899   -3.6747    1.6490 H   0  0  0  0  0  0  0  0  0  0  0  0
   -3.9109   -2.6717    1.2250 C   0  0  0  0  0  0  0  0  0  0  0  0
   -4.6009   -2.0517    1.7950 H   0  0  0  0  0  0  0  0  0  0  0  0
   -4.2309   -2.7237    0.1860 H   0  0  0  0  0  0  0  0  0  0  0  0
   -2.5229   -2.0787    1.2980 C   0  0  0  0  0  0  0  0  0  0  0  0
   -1.5999   -2.7227    1.7810 O   0  0  0  0  0  0  0  0  0  0  0  0
   -2.3659   -0.8447    0.8120 N   0  0  0  0  0  0  0  0  0  0  0  0
   -3.1749   -0.3807    0.4220 H   0  0  0  0  0  0  0  0  0  0  0  0
   -1.0919   -0.1077    0.8170 C   0  0  1  0  0  0  0  0  0  0  0  0
   -1.2338    0.8177    1.3782 H   0  0  0  0  0  0  0  0  0  0  0  0
   -0.0325   -0.9661    1.5333 C   0  0  0  0  0  0  0  0  0  0  0  0
   -0.0217   -1.9572    1.0770 H   0  0  0  0  0  0  0  0  0  0  0  0
    0.9514   -0.5150    1.3901 H   0  0  0  0  0  0  0  0  0  0  0  0
   -0.3001   -1.1298    3.0373 C   0  0  0  0  0  0  0  0  0  0  0  0
   -0.3297   -0.1492    3.5140 H   0  0  0  0  0  0  0  0  0  0  0  0
   -1.2630   -1.6244    3.1793 H   0  0  0  0  0  0  0  0  0  0  0  0
    0.8050   -1.9730    3.6882 C   0  0  0  0  0  0  0  0  0  0  0  0
    0.8421   -2.9490    3.1985 H   0  0  0  0  0  0  0  0  0  0  0  0
    1.7642   -1.4696    3.5515 H   0  0  0  0  0  0  0  0  0  0  0  0
    0.5261   -2.1581    5.1850 C   0  0  0  0  0  0  0  0  0  0  0  0
    0.4852   -1.1702    5.6552 H   0  0  0  0  0  0  0  0  0  0  0  0
   -0.4567   -2.6250    5.3004 H   0  0  0  0  0  0  0  0  0  0  0  0
    1.5687   -2.9912    5.8357 N   0  3  0  0  0  0  0  0  0  0  0  0
    2.4792   -2.5589    5.7414 H   0  0  0  0  0  0  0  0  0  0  0  0
    1.3700   -3.1040    6.8220 H   0  0  0  0  0  0  0  0  0  0  0  0
    1.6045   -3.9100    5.4098 H   0  0  0  0  0  0  0  0  0  0  0  0
   -0.6713    0.2432   -0.6121 C   0  0  0  0  0  0  0  0  0  0  0  0
   -0.8208    1.3874   -1.0243 O   0  0  0  0  0  0  0  0  0  0  0  0
   -0.1820   -0.7472   -1.3653 N   0  0  0  0  0  0  0  0  0  0  0  0
   -0.0638   -1.6500   -0.9362 H   0  0  0  0  0  0  0  0  0  0  0  0
    0.2680   -0.5795   -2.7484 C   0  0  0  0  0  0  0  0  0  0  0  0
    1.1055    0.1206   -2.7813 H   0  0  0  0  0  0  0  0  0  0  0  0
    0.5888   -1.5357   -3.1632 H   0  0  0  0  0  0  0  0  0  0  0  0
   -0.5424   -0.1754   -3.3591 H   0  0  0  0  0  0  0  0  0  0  0  0
  5  6  2  0  0  0  0
  5  7  1  0  0  0  0
  2  3  1  0  0  0  0
  2  4  1  0  0  0  0
  2  5  1  0  0  0  0
  1  2  1  0  0  0  0
 27 28  2  0  0  0  0
 27 29  1  0  0  0  0
 23 24  1  0  0  0  0
 23 25  1  0  0  0  0
 23 26  1  0  0  0  0
 20 21  1  0  0  0  0
 20 22  1  0  0  0  0
 20 23  1  0  0  0  0
 17 18  1  0  0  0  0
 17 19  1  0  0  0  0
 17 20  1  0  0  0  0
 14 15  1  0  0  0  0
 14 16  1  0  0  0  0
 14 17  1  0  0  0  0
 11 12  1  0  0  0  0
 11 13  1  0  0  0  0
 11 14  1  0  0  0  0
  9 10  1  0  0  0  0
  9 11  1  0  0  0  0
  9 27  1  0  0  0  0
  7  8  1  0  0  0  0
  7  9  1  0  0  0  0
 31 32  1  0  0  0  0
 31 33  1  0  0  0  0
 31 34  1  0  0  0  0
 29 30  1  0  0  0  0
 29 31  1  0  0  0  0
M  CHG  1  23   1
M  END
$$$$
default_name
  -OEChem-01062215323D

 34 33  0     1  0  0  0  0  0999 V2000
   -3.8899   -3.6747    1.6490 H   0  0  0  0  0  0  0  0  0  0  0  0
   -3.9109   -2.6717    1.2250 C   0  0  0  0  0  0  0  0  0  0  0  0
   -4.6009   -2.0517    1.7950 H   0  0  0  0  0  0  0  0  0  0  0  0
   -4.2309   -2.7237    0.1860 H   0  0  0  0  0  0  0  0  0  0  0  0
   -2.5229   -2.0787    1.2980 C   0  0  0  0  0  0  0  0  0  0  0  0
   -1.5999   -2.7227    1.7810 O   0  0  0  0  0  0  0  0  0  0  0  0
   -2.3659   -0.8447    0.8120 N   0  0  0  0  0  0  0  0  0  0  0  0
   -3.1749   -0.3807    0.4220 H   0  0  0  0  0  0  0  0  0  0  0  0
   -1.0919   -0.1077    0.8170 C   0  0  1  0  0  0  0  0  0  0  0  0
   -1.2338    0.8177    1.3782 H   0  0  0  0  0  0  0  0  0  0  0  0
   -0.0325   -0.9661    1.5333 C   0  0  0  0  0  0  0  0  0  0  0  0
   -0.0217   -1.9572    1.0770 H   0  0  0  0  0  0  0  0  0  0  0  0
    0.9514   -0.5150    1.3901 H   0  0  0  0  0  0  0  0  0  0  0  0
   -0.3001   -1.1298    3.0373 C   0  0  0  0  0  0  0  0  0  0  0  0
   -0.3297   -0.1492    3.5140 H   0  0  0  0  0  0  0  0  0  0  0  0
   -1.2630   -1.6244    3.1793 H   0  0  0  0  0  0  0  0  0  0  0  0
    0.8050   -1.9730    3.6882 C   0  0  0  0  0  0  0  0  0  0  0  0
    0.8421   -2.9490    3.1985 H   0  0  0  0  0  0  0  0  0  0  0  0
    1.7642   -1.4696    3.5515 H   0  0  0  0  0  0  0  0  0  0  0  0
    0.5261   -2.1581    5.1850 C   0  0  0  0  0  0  0  0  0  0  0  0
    0.4852   -1.1702    5.6552 H   0  0  0  0  0  0  0  0  0  0  0  0
   -0.4567   -2.6250    5.3004 H   0  0  0  0  0  0  0  0  0  0  0  0
    1.5687   -2.9912    5.8357 N   0  3  0  0  0  0  0  0  0  0  0  0
    2.4792   -2.5589    5.7414 H   0  0  0  0  0  0  0  0  0  0  0  0
    1.3700   -3.1040    6.8220 H   0  0  0  0  0  0  0  0  0  0  0  0
    1.6045   -3.9100    5.4098 H   0  0  0  0  0  0  0  0  0  0  0  0
   -0.6713    0.2432   -0.6121 C   0  0  0  0  0  0  0  0  0  0  0  0
   -0.5579    1.4186   -0.9393 O   0  0  0  0  0  0  0  0  0  0  0  0
   -0.4770   -0.7734   -1.4586 N   0  0  0  0  0  0  0  0  0  0  0  0
   -0.5610   -1.7089   -1.0970 H   0  0  0  0  0  0  0  0  0  0  0  0
   -0.0703   -0.6104   -2.8555 C   0  0  0  0  0  0  0  0  0  0  0  0
    0.9099   -0.1309   -2.9006 H   0  0  0  0  0  0  0  0  0  0  0  0
   -0.0137   -1.5801   -3.3514 H   0  0  0  0  0  0  0  0  0  0  0  0
   -0.7875    0.0226   -3.3826 H   0  0  0  0  0  0  0  0  0  0  0  0
  5  6  2  0  0  0  0
  5  7  1  0  0  0  0
  2  3  1  0  0  0  0
  2  4  1  0  0  0  0
  2  5  1  0  0  0  0
  1  2  1  0  0  0  0
 27 28  2  0  0  0  0
 27 29  1  0  0  0  0
 23 24  1  0  0  0  0
 23 25  1  0  0  0  0
 23 26  1  0  0  0  0
 20 21  1  0  0  0  0
 20 22  1  0  0  0  0
 20 23  1  0  0  0  0
 17 18  1  0  0  0  0
 17 19  1  0  0  0  0
 17 20  1  0  0  0  0
 14 15  1  0  0  0  0
 14 16  1  0  0  0  0
 14 17  1  0  0  0  0
 11 12  1  0  0  0  0
 11 13  1  0  0  0  0
 11 14  1  0  0  0  0
  9 10  1  0  0  0  0
  9 11  1  0  0  0  0
  9 27  1  0  0  0  0
  7  8  1  0  0  0  0
  7  9  1  0  0  0  0
 31 32  1  0  0  0  0
 31 33  1  0  0  0  0
 31 34  1  0  0  0  0
 29 30  1  0  0  0  0
 29 31  1  0  0  0  0
M  CHG  1  23   1
M  END
$$$$
default_name
  -OEChem-01062215323D

 34 33  0     1  0  0  0  0  0999 V2000
   -3.8899   -3.6747    1.6490 H   0  0  0  0  0  0  0  0  0  0  0  0
   -3.9109   -2.6717    1.2250 C   0  0  0  0  0  0  0  0  0  0  0  0
   -4.6009   -2.0517    1.7950 H   0  0  0  0  0  0  0  0  0  0  0  0
   -4.2309   -2.7237    0.1860 H   0  0  0  0  0  0  0  0  0  0  0  0
   -2.5229   -2.0787    1.2980 C   0  0  0  0  0  0  0  0  0  0  0  0
   -1.5999   -2.7227    1.7810 O   0  0  0  0  0  0  0  0  0  0  0  0
   -2.3659   -0.8447    0.8120 N   0  0  0  0  0  0  0  0  0  0  0  0
   -3.1749   -0.3807    0.4220 H   0  0  0  0  0  0  0  0  0  0  0  0
   -1.0919   -0.1077    0.8170 C   0  0  1  0  0  0  0  0  0  0  0  0
   -1.2338    0.8177    1.3782 H   0  0  0  0  0  0  0  0  0  0  0  0
   -0.0325   -0.9661    1.5333 C   0  0  0  0  0  0  0  0  0  0  0  0
   -0.0217   -1.9572    1.0770 H   0  0  0  0  0  0  0  0  0  0  0  0
    0.9514   -0.5150    1.3901 H   0  0  0  0  0  0  0  0  0  0  0  0
   -0.3001   -1.1298    3.0373 C   0  0  0  0  0  0  0  0  0  0  0  0
   -0.3297   -0.1492    3.5140 H   0  0  0  0  0  0  0  0  0  0  0  0
   -1.2630   -1.6244    3.1793 H   0  0  0  0  0  0  0  0  0  0  0  0
    0.8050   -1.9730    3.6882 C   0  0  0  0  0  0  0  0  0  0  0  0
    0.8421   -2.9490    3.1985 H   0  0  0  0  0  0  0  0  0  0  0  0
    1.7642   -1.4696    3.5515 H   0  0  0  0  0  0  0  0  0  0  0  0
    0.5261   -2.1581    5.1850 C   0  0  0  0  0  0  0  0  0  0  0  0
    0.4852   -1.1702    5.6552 H   0  0  0  0  0  0  0  0  0  0  0  0
   -0.4567   -2.6250    5.3004 H   0  0  0  0  0  0  0  0  0  0  0  0
    1.5687   -2.9912    5.8357 N   0  3  0  0  0  0  0  0  0  0  0  0
    2.4792   -2.5589    5.7414 H   0  0  0  0  0  0  0  0  0  0  0  0
    1.3700   -3.1040    6.8220 H   0  0  0  0  0  0  0  0  0  0  0  0
    1.6045   -3.9100    5.4098 H   0  0  0  0  0  0  0  0  0  0  0  0
   -0.6713    0.2432   -0.6121 C   0  0  0  0  0  0  0  0  0  0  0  0
   -0.2915    1.3791   -0.8706 O   0  0  0  0  0  0  0  0  0  0  0  0
   -0.7738   -0.7207   -1.5330 N   0  0  0  0  0  0  0  0  0  0  0  0
   -1.0649   -1.6343   -1.2270 H   0  0  0  0  0  0  0  0  0  0  0  0
   -0.4109   -0.5509   -2.9411 C   0  0  0  0  0  0  0  0  0  0  0  0
    0.6531   -0.3181   -3.0222 H   0  0  0  0  0  0  0  0  0  0  0  0
   -0.6176   -1.4639   -3.5006 H   0  0  0  0  0  0  0  0  0  0  0  0
   -0.9778    0.2748   -3.3767 H   0  0  0  0  0  0  0  0  0  0  0  0
  5  6  2  0  0  0  0
  5  7  1  0  0  0  0
  2  3  1  0  0  0  0
  2  4  1  0  0  0  0
  2  5  1  0  0  0  0
  1  2  1  0  0  0  0
 27 28  2  0  0  0  0
 27 29  1  0  0  0  0
 23 24  1  0  0  0  0
 23 25  1  0  0  0  0
 23 26  1  0  0  0  0
 20 21  1  0  0  0  0
 20 22  1  0  0  0  0
 20 23  1  0  0  0  0
 17 18  1  0  0  0  0
 17 19  1  0  0  0  0
 17 20  1  0  0  0  0
 14 15  1  0  0  0  0
 14 16  1  0  0  0  0
 14 17  1  0  0  0  0
 11 12  1  0  0  0  0
 11 13  1  0  0  0  0
 11 14  1  0  0  0  0
  9 10  1  0  0  0  0
  9 11  1  0  0  0  0
  9 27  1  0  0  0  0
  7  8  1  0  0  0  0
  7  9  1  0  0  0  0
 31 32  1  0  0  0  0
 31 33  1  0  0  0  0
 31 34  1  0  0  0  0
 29 30  1  0  0  0  0
 29 31  1  0  0  0  0
M  CHG  1  23   1
M  END
$$$$
default_name
  -OEChem-01062215323D

 34 33  0     1  0  0  0  0  0999 V2000
   -3.8899   -3.6747    1.6490 H   0  0  0  0  0  0  0  0  0  0  0  0
   -3.9109   -2.6717    1.2250 C   0  0  0  0  0  0  0  0  0  0  0  0
   -4.6009   -2.0517    1.7950 H   0  0  0  0  0  0  0  0  0  0  0  0
   -4.2309   -2.7237    0.1860 H   0  0  0  0  0  0  0  0  0  0  0  0
   -2.5229   -2.0787    1.2980 C   0  0  0  0  0  0  0  0  0  0  0  0
   -1.5999   -2.7227    1.7810 O   0  0  0  0  0  0  0  0  0  0  0  0
   -2.3659   -0.8447    0.8120 N   0  0  0  0  0  0  0  0  0  0  0  0
   -3.1749   -0.3807    0.4220 H   0  0  0  0  0  0  0  0  0  0  0  0
   -1.0919   -0.1077    0.8170 C   0  0  1  0  0  0  0  0  0  0  0  0
   -1.2338    0.8177    1.3782 H   0  0  0  0  0  0  0  0  0  0  0  0
   -0.0325   -0.9661    1.5333 C   0  0  0  0  0  0  0  0  0  0  0  0
   -0.0217   -1.9572    1.0770 H   0  0  0  0  0  0  0  0  0  0  0  0
    0.9514   -0.5150    1.3901 H   0  0  0  0  0  0  0  0  0  0  0  0
   -0.3001   -1.1298    3.0373 C   0  0  0  0  0  0  0  0  0  0  0  0
   -0.3297   -0.1492    3.5140 H   0  0  0  0  0  0  0  0  0  0  0  0
   -1.2630   -1.6244    3.1793 H   0  0  0  0  0  0  0  0  0  0  0  0
    0.8050   -1.9730    3.6882 C   0  0  0  0  0  0  0  0  0  0  0  0
    0.8421   -2.9490    3.1985 H   0  0  0  0  0  0  0  0  0  0  0  0
    1.7642   -1.4696    3.5515 H   0  0  0  0  0  0  0  0  0  0  0  0
    0.5261   -2.1581    5.1850 C   0  0  0  0  0  0  0  0  0  0  0  0
    0.4852   -1.1702    5.6552 H   0  0  0  0  0  0  0  0  0  0  0  0
   -0.4567   -2.6250    5.3004 H   0  0  0  0  0  0  0  0  0  0  0  0
    1.5687   -2.9912    5.8357 N   0  3  0  0  0  0  0  0  0  0  0  0
    2.4792   -2.5589    5.7414 H   0  0  0  0  0  0  0  0  0  0  0  0
    1.3700   -3.1040    6.8220 H   0  0  0  0  0  0  0  0  0  0  0  0
    1.6045   -3.9100    5.4098 H   0  0  0  0  0  0  0  0  0  0  0  0
   -0.6713    0.2432   -0.6121 C   0  0  0  0  0  0  0  0  0  0  0  0
   -0.0395    1.2717   -0.8228 O   0  0  0  0  0  0  0  0  0  0  0  0
   -1.0522   -0.5928   -1.5835 N   0  0  0  0  0  0  0  0  0  0  0  0
   -1.5414   -1.4312   -1.3173 H   0  0  0  0  0  0  0  0  0  0  0  0
   -0.7305   -0.4050   -2.9994 C   0  0  0  0  0  0  0  0  0  0  0  0
    0.3526   -0.4282   -3.1376 H   0  0  0  0  0  0  0  0  0  0  0  0
   -1.1816   -1.1951   -3.6007 H   0  0  0  0  0  0  0  0  0  0  0  0
   -1.1003    0.5640   -3.3417 H   0  0  0  0  0  0  0  0  0  0  0  0
  5  6  2  0  0  0  0
  5  7  1  0  0  0  0
  2  3  1  0  0  0  0
  2  4  1  0  0  0  0
  2  5  1  0  0  0  0
  1  2  1  0  0  0  0
 27 28  2  0  0  0  0
 27 29  1  0  0  0  0
 23 24  1  0  0  0  0
 23 25  1  0  0  0  0
 23 26  1  0  0  0  0
 20 21  1  0  0  0  0
 20 22  1  0  0  0  0
 20 23  1  0  0  0  0
 17 18  1  0  0  0  0
 17 19  1  0  0  0  0
 17 20  1  0  0  0  0
 14 15  1  0  0  0  0
 14 16  1  0  0  0  0
 14 17  1  0  0  0  0
 11 12  1  0  0  0  0
 11 13  1  0  0  0  0
 11 14  1  0  0  0  0
  9 10  1  0  0  0  0
  9 11  1  0  0  0  0
  9 27  1  0  0  0  0
  7  8  1  0  0  0  0
  7  9  1  0  0  0  0
 31 32  1  0  0  0  0
 31 33  1  0  0  0  0
 31 34  1  0  0  0  0
 29 30  1  0  0  0  0
 29 31  1  0  0  0  0
M  CHG  1  23   1
M  END
$$$$
default_name
  -OEChem-01062215323D

 34 33  0     1  0  0  0  0  0999 V2000
   -3.8899   -3.6747    1.6490 H   0  0  0  0  0  0  0  0  0  0  0  0
   -3.9109   -2.6717    1.2250 C   0  0  0  0  0  0  0  0  0  0  0  0
   -4.6009   -2.0517    1.7950 H   0  0  0  0  0  0  0  0  0  0  0  0
   -4.2309   -2.7237    0.1860 H   0  0  0  0  0  0  0  0  0  0  0  0
   -2.5229   -2.0787    1.2980 C   0  0  0  0  0  0  0  0  0  0  0  0
   -1.5999   -2.7227    1.7810 O   0  0  0  0  0  0  0  0  0  0  0  0
   -2.3659   -0.8447    0.8120 N   0  0  0  0  0  0  0  0  0  0  0  0
   -3.1749   -0.3807    0.4220 H   0  0  0  0  0  0  0  0  0  0  0  0
   -1.0919   -0.1077    0.8170 C   0  0  1  0  0  0  0  0  0  0  0  0
   -1.2338    0.8177    1.3782 H   0  0  0  0  0  0  0  0  0  0  0  0
   -0.0325   -0.9661    1.5333 C   0  0  0  0  0  0  0  0  0  0  0  0
   -0.0217   -1.9572    1.0770 H   0  0  0  0  0  0  0  0  0  0  0  0
    0.9514   -0.5150    1.3901 H   0  0  0  0  0  0  0  0  0  0  0  0
   -0.3001   -1.1298    3.0373 C   0  0  0  0  0  0  0  0  0  0  0  0
   -0.3297   -0.1492    3.5140 H   0  0  0  0  0  0  0  0  0  0  0  0
   -1.2630   -1.6244    3.1793 H   0  0  0  0  0  0  0  0  0  0  0  0
    0.8050   -1.9730    3.6882 C   0  0  0  0  0  0  0  0  0  0  0  0
    0.8421   -2.9490    3.1985 H   0  0  0  0  0  0  0  0  0  0  0  0
    1.7642   -1.4696    3.5515 H   0  0  0  0  0  0  0  0  0  0  0  0
    0.5261   -2.1581    5.1850 C   0  0  0  0  0  0  0  0  0  0  0  0
    0.4852   -1.1702    5.6552 H   0  0  0  0  0  0  0  0  0  0  0  0
   -0.4567   -2.6250    5.3004 H   0  0  0  0  0  0  0  0  0  0  0  0
    1.5687   -2.9912    5.8357 N   0  3  0  0  0  0  0  0  0  0  0  0
    2.4792   -2.5589    5.7414 H   0  0  0  0  0  0  0  0  0  0  0  0
    1.3700   -3.1040    6.8220 H   0  0  0  0  0  0  0  0  0  0  0  0
    1.6045   -3.9100    5.4098 H   0  0  0  0  0  0  0  0  0  0  0  0
   -0.6713    0.2432   -0.6121 C   0  0  0  0  0  0  0  0  0  0  0  0
    0.1807    1.1037   -0.7992 O   0  0  0  0  0  0  0  0  0  0  0  0
   -1.2932   -0.3984   -1.6067 N   0  0  0  0  0  0  0  0  0  0  0  0
   -1.9580   -1.1134   -1.3619 H   0  0  0  0  0  0  0  0  0  0  0  0
   -1.0075   -0.1826   -3.0263 C   0  0  0  0  0  0  0  0  0  0  0  0
    0.0288   -0.4537   -3.2392 H   0  0  0  0  0  0  0  0  0  0  0  0
   -1.6675   -0.7921   -3.6447 H   0  0  0  0  0  0  0  0  0  0  0  0
   -1.1467    0.8705   -3.2801 H   0  0  0  0  0  0  0  0  0  0  0  0
  5  6  2  0  0  0  0
  5  7  1  0  0  0  0
  2  3  1  0  0  0  0
  2  4  1  0  0  0  0
  2  5  1  0  0  0  0
  1  2  1  0  0  0  0
 27 28  2  0  0  0  0
 27 29  1  0  0  0  0
 23 24  1  0  0  0  0
 23 25  1  0  0  0  0
 23 26  1  0  0  0  0
 20 21  1  0  0  0  0
 20 22  1  0  0  0  0
 20 23  1  0  0  0  0
 17 18  1  0  0  0  0
 17 19  1  0  0  0  0
 17 20  1  0  0  0  0
 14 15  1  0  0  0  0
 14 16  1  0  0  0  0
 14 17  1  0  0  0  0
 11 12  1  0  0  0  0
 11 13  1  0  0  0  0
 11 14  1  0  0  0  0
  9 10  1  0  0  0  0
  9 11  1  0  0  0  0
  9 27  1  0  0  0  0
  7  8  1  0  0  0  0
  7  9  1  0  0  0  0
 31 32  1  0  0  0  0
 31 33  1  0  0  0  0
 31 34  1  0  0  0  0
 29 30  1  0  0  0  0
 29 31  1  0  0  0  0
M  CHG  1  23   1
M  END
$$$$
default_name
  -OEChem-01062215323D

 34 33  0     1  0  0  0  0  0999 V2000
   -3.8899   -3.6747    1.6490 H   0  0  0  0  0  0  0  0  0  0  0  0
   -3.9109   -2.6717    1.2250 C   0  0  0  0  0  0  0  0  0  0  0  0
   -4.6009   -2.0517    1.7950 H   0  0  0  0  0  0  0  0  0  0  0  0
   -4.2309   -2.7237    0.1860 H   0  0  0  0  0  0  0  0  0  0  0  0
   -2.5229   -2.0787    1.2980 C   0  0  0  0  0  0  0  0  0  0  0  0
   -1.5999   -2.7227    1.7810 O   0  0  0  0  0  0  0  0  0  0  0  0
   -2.3659   -0.8447    0.8120 N   0  0  0  0  0  0  0  0  0  0  0  0
   -3.1749   -0.3807    0.4220 H   0  0  0  0  0  0  0  0  0  0  0  0
   -1.0919   -0.1077    0.8170 C   0  0  1  0  0  0  0  0  0  0  0  0
   -1.2338    0.8177    1.3782 H   0  0  0  0  0  0  0  0  0  0  0  0
   -0.0325   -0.9661    1.5333 C   0  0  0  0  0  0  0  0  0  0  0  0
   -0.0217   -1.9572    1.0770 H   0  0  0  0  0  0  0  0  0  0  0  0
    0.9514   -0.5150    1.3901 H   0  0  0  0  0  0  0  0  0  0  0  0
   -0.3001   -1.1298    3.0373 C   0  0  0  0  0  0  0  0  0  0  0  0
   -0.3297   -0.1492    3.5140 H   0  0  0  0  0  0  0  0  0  0  0  0
   -1.2630   -1.6244    3.1793 H   0  0  0  0  0  0  0  0  0  0  0  0
    0.8050   -1.9730    3.6882 C   0  0  0  0  0  0  0  0  0  0  0  0
    0.8421   -2.9490    3.1985 H   0  0  0  0  0  0  0  0  0  0  0  0
    1.7642   -1.4696    3.5515 H   0  0  0  0  0  0  0  0  0  0  0  0
    0.5261   -2.1581    5.1850 C   0  0  0  0  0  0  0  0  0  0  0  0
    0.4852   -1.1702    5.6552 H   0  0  0  0  0  0  0  0  0  0  0  0
   -0.4567   -2.6250    5.3004 H   0  0  0  0  0  0  0  0  0  0  0  0
    1.5687   -2.9912    5.8357 N   0  3  0  0  0  0  0  0  0  0  0  0
    2.4792   -2.5589    5.7414 H   0  0  0  0  0  0  0  0  0  0  0  0
    1.3700   -3.1040    6.8220 H   0  0  0  0  0  0  0  0  0  0  0  0
    1.6045   -3.9100    5.4098 H   0  0  0  0  0  0  0  0  0  0  0  0
   -0.6713    0.2432   -0.6121 C   0  0  0  0  0  0  0  0  0  0  0  0
    0.3542    0.8865   -0.8015 O   0  0  0  0  0  0  0  0  0  0  0  0
   -1.4804   -0.1507   -1.6010 N   0  0  0  0  0  0  0  0  0  0  0  0
   -2.2861   -0.7027   -1.3576 H   0  0  0  0  0  0  0  0  0  0  0  0
   -1.2229    0.1010   -3.0201 C   0  0  0  0  0  0  0  0  0  0  0  0
   -0.2961   -0.3929   -3.3199 H   0  0  0  0  0  0  0  0  0  0  0  0
   -2.0419   -0.2822   -3.6297 H   0  0  0  0  0  0  0  0  0  0  0  0
   -1.1137    1.1733   -3.1961 H   0  0  0  0  0  0  0  0  0  0  0  0
  5  6  2  0  0  0  0
  5  7  1  0  0  0  0
  2  3  1  0  0  0  0
  2  4  1  0  0  0  0
  2  5  1  0  0  0  0
  1  2  1  0  0  0  0
 27 28  2  0  0  0  0
 27 29  1  0  0  0  0
 23 24  1  0  0  0  0
 23 25  1  0  0  0  0
 23 26  1  0  0  0  0
 20 21  1  0  0  0  0
 20 22  1  0  0  0  0
 20 23  1  0  0  0  0
 17 18  1  0  0  0  0
 17 19  1  0  0  0  0
 17 20  1  0  0  0  0
 14 15  1  0  0  0  0
 14 16  1  0  0  0  0
 14 17  1  0  0  0  0
 11 12  1  0  0  0  0
 11 13  1  0  0  0  0
 11 14  1  0  0  0  0
  9 10  1  0  0  0  0
  9 11  1  0  0  0  0
  9 27  1  0  0  0  0
  7  8  1  0  0  0  0
  7  9  1  0  0  0  0
 31 32  1  0  0  0  0
 31 33  1  0  0  0  0
 31 34  1  0  0  0  0
 29 30  1  0  0  0  0
 29 31  1  0  0  0  0
M  CHG  1  23   1
M  END
$$$$
default_name
  -OEChem-01062215323D

 34 33  0     1  0  0  0  0  0999 V2000
   -3.8899   -3.6747    1.6490 H   0  0  0  0  0  0  0  0  0  0  0  0
   -3.9109   -2.6717    1.2250 C   0  0  0  0  0  0  0  0  0  0  0  0
   -4.6009   -2.0517    1.7950 H   0  0  0  0  0  0  0  0  0  0  0  0
   -4.2309   -2.7237    0.1860 H   0  0  0  0  0  0  0  0  0  0  0  0
   -2.5229   -2.0787    1.2980 C   0  0  0  0  0  0  0  0  0  0  0  0
   -1.5999   -2.7227    1.7810 O   0  0  0  0  0  0  0  0  0  0  0  0
   -2.3659   -0.8447    0.8120 N   0  0  0  0  0  0  0  0  0  0  0  0
   -3.1749   -0.3807    0.4220 H   0  0  0  0  0  0  0  0  0  0  0  0
   -1.0919   -0.1077    0.8170 C   0  0  1  0  0  0  0  0  0  0  0  0
   -1.2338    0.8177    1.3782 H   0  0  0  0  0  0  0  0  0  0  0  0
   -0.0325   -0.9661    1.5333 C   0  0  0  0  0  0  0  0  0  0  0  0
   -0.0217   -1.9572    1.0770 H   0  0  0  0  0  0  0  0  0  0  0  0
    0.9514   -0.5150    1.3901 H   0  0  0  0  0  0  0  0  0  0  0  0
   -0.3001   -1.1298    3.0373 C   0  0  0  0  0  0  0  0  0  0  0  0
   -0.3297   -0.1492    3.5140 H   0  0  0  0  0  0  0  0  0  0  0  0
   -1.2630   -1.6244    3.1793 H   0  0  0  0  0  0  0  0  0  0  0  0
    0.8050   -1.9730    3.6882 C   0  0  0  0  0  0  0  0  0  0  0  0
    0.8421   -2.9490    3.1985 H   0  0  0  0  0  0  0  0  0  0  0  0
    1.7642   -1.4696    3.5515 H   0  0  0  0  0  0  0  0  0  0  0  0
    0.5261   -2.1581    5.1850 C   0  0  0  0  0  0  0  0  0  0  0  0
    0.4852   -1.1702    5.6552 H   0  0  0  0  0  0  0  0  0  0  0  0
   -0.4567   -2.6250    5.3004 H   0  0  0  0  0  0  0  0  0  0  0  0
    1.5687   -2.9912    5.8357 N   0  3  0  0  0  0  0  0  0  0  0  0
    2.4792   -2.5589    5.7414 H   0  0  0  0  0  0  0  0  0  0  0  0
    1.3700   -3.1040    6.8220 H   0  0  0  0  0  0  0  0  0  0  0  0
    1.6045   -3.9100    5.4098 H   0  0  0  0  0  0  0  0  0  0  0  0
   -0.6713    0.2432   -0.6121 C   0  0  0  0  0  0  0  0  0  0  0  0
    0.4692    0.6350   -0.8294 O   0  0  0  0  0  0  0  0  0  0  0  0
   -1.6010    0.1333   -1.5667 N   0  0  0  0  0  0  0  0  0  0  0  0
   -2.5036   -0.2269   -1.3048 H   0  0  0  0  0  0  0  0  0  0  0  0
   -1.3620    0.4265   -2.9811 C   0  0  0  0  0  0  0  0  0  0  0  0
   -0.6000   -0.2499   -3.3742 H   0  0  0  0  0  0  0  0  0  0  0  0
   -2.2795    0.2997   -3.5568 H   0  0  0  0  0  0  0  0  0  0  0  0
   -1.0037    1.4519   -3.0953 H   0  0  0  0  0  0  0  0  0  0  0  0
  5  6  2  0  0  0  0
  5  7  1  0  0  0  0
  2  3  1  0  0  0  0
  2  4  1  0  0  0  0
  2  5  1  0  0  0  0
  1  2  1  0  0  0  0
 27 28  2  0  0  0  0
 27 29  1  0  0  0  0
 23 24  1  0  0  0  0
 23 25  1  0  0  0  0
 23 26  1  0  0  0  0
 20 21  1  0  0  0  0
 20 22  1  0  0  0  0
 20 23  1  0  0  0  0
 17 18  1  0  0  0  0
 17 19  1  0  0  0  0
 17 20  1  0  0  0  0
 14 15  1  0  0  0  0
 14 16  1  0  0  0  0
 14 17  1  0  0  0  0
 11 12  1  0  0  0  0
 11 13  1  0  0  0  0
 11 14  1  0  0  0  0
  9 10  1  0  0  0  0
  9 11  1  0  0  0  0
  9 27  1  0  0  0  0
  7  8  1  0  0  0  0
  7  9  1  0  0  0  0
 31 32  1  0  0  0  0
 31 33  1  0  0  0  0
 31 34  1  0  0  0  0
 29 30  1  0  0  0  0
 29 31  1  0  0  0  0
M  CHG  1  23   1
M  END
$$$$
default_name
  -OEChem-01062215323D

 34 33  0     1  0  0  0  0  0999 V2000
   -3.8899   -3.6747    1.6490 H   0  0  0  0  0  0  0  0  0  0  0  0
   -3.9109   -2.6717    1.2250 C   0  0  0  0  0  0  0  0  0  0  0  0
   -4.6009   -2.0517    1.7950 H   0  0  0  0  0  0  0  0  0  0  0  0
   -4.2309   -2.7237    0.1860 H   0  0  0  0  0  0  0  0  0  0  0  0
   -2.5229   -2.0787    1.2980 C   0  0  0  0  0  0  0  0  0  0  0  0
   -1.5999   -2.7227    1.7810 O   0  0  0  0  0  0  0  0  0  0  0  0
   -2.3659   -0.8447    0.8120 N   0  0  0  0  0  0  0  0  0  0  0  0
   -3.1749   -0.3807    0.4220 H   0  0  0  0  0  0  0  0  0  0  0  0
   -1.0919   -0.1077    0.8170 C   0  0  1  0  0  0  0  0  0  0  0  0
   -1.2338    0.8177    1.3782 H   0  0  0  0  0  0  0  0  0  0  0  0
   -0.0325   -0.9661    1.5333 C   0  0  0  0  0  0  0  0  0  0  0  0
   -0.0217   -1.9572    1.0770 H   0  0  0  0  0  0  0  0  0  0  0  0
    0.9514   -0.5150    1.3901 H   0  0  0  0  0  0  0  0  0  0  0  0
   -0.3001   -1.1298    3.0373 C   0  0  0  0  0  0  0  0  0  0  0  0
   -0.3297   -0.1492    3.5140 H   0  0  0  0  0  0  0  0  0  0  0  0
   -1.2630   -1.6244    3.1793 H   0  0  0  0  0  0  0  0  0  0  0  0
    0.8050   -1.9730    3.6882 C   0  0  0  0  0  0  0  0  0  0  0  0
    0.8421   -2.9490    3.1985 H   0  0  0  0  0  0  0  0  0  0  0  0
    1.7642   -1.4696    3.5515 H   0  0  0  0  0  0  0  0  0  0  0  0
    0.5261   -2.1581    5.1850 C   0  0  0  0  0  0  0  0  0  0  0  0
    0.4852   -1.1702    5.6552 H   0  0  0  0  0  0  0  0  0  0  0  0
   -0.4567   -2.6250    5.3004 H   0  0  0  0  0  0  0  0  0  0  0  0
    1.5687   -2.9912    5.8357 N   0  3  0  0  0  0  0  0  0  0  0  0
    2.4792   -2.5589    5.7414 H   0  0  0  0  0  0  0  0  0  0  0  0
    1.3700   -3.1040    6.8220 H   0  0  0  0  0  0  0  0  0  0  0  0
    1.6045   -3.9100    5.4098 H   0  0  0  0  0  0  0  0  0  0  0  0
   -0.6713    0.2432   -0.6121 C   0  0  0  0  0  0  0  0  0  0  0  0
    0.5178    0.3662   -0.8811 O   0  0  0  0  0  0  0  0  0  0  0  0
   -1.6468    0.4344   -1.5063 N   0  0  0  0  0  0  0  0  0  0  0  0
   -2.5956    0.2815   -1.2071 H   0  0  0  0  0  0  0  0  0  0  0  0
   -1.4154    0.7718   -2.9120 C   0  0  0  0  0  0  0  0  0  0  0  0
   -0.8622   -0.0344   -3.3985 H   0  0  0  0  0  0  0  0  0  0  0  0
   -2.3641    0.9140   -3.4308 H   0  0  0  0  0  0  0  0  0  0  0  0
   -0.8242    1.6873   -2.9846 H   0  0  0  0  0  0  0  0  0  0  0  0
  5  6  2  0  0  0  0
  5  7  1  0  0  0  0
  2  3  1  0  0  0  0
  2  4  1  0  0  0  0
  2  5  1  0  0  0  0
  1  2  1  0  0  0  0
 27 28  2  0  0  0  0
 27 29  1  0  0  0  0
 23 24  1  0  0  0  0
 23 25  1  0  0  0  0
 23 26  1  0  0  0  0
 20 21  1  0  0  0  0
 20 22  1  0  0  0  0
 20 23  1  0  0  0  0
 17 18  1  0  0  0  0
 17 19  1  0  0  0  0
 17 20  1  0  0  0  0
 14 15  1  0  0  0  0
 14 16  1  0  0  0  0
 14 17  1  0  0  0  0
 11 12  1  0  0  0  0
 11 13  1  0  0  0  0
 11 14  1  0  0  0  0
  9 10  1  0  0  0  0
  9 11  1  0  0  0  0
  9 27  1  0  0  0  0
  7  8  1  0  0  0  0
  7  9  1  0  0  0  0
 31 32  1  0  0  0  0
 31 33  1  0  0  0  0
 31 34  1  0  0  0  0
 29 30  1  0  0  0  0
 29 31  1  0  0  0  0
M  CHG  1  23   1
M  END
$$$$
default_name
  -OEChem-01062215323D

 34 33  0     1  0  0  0  0  0999 V2000
   -3.8899   -3.6747    1.6490 H   0  0  0  0  0  0  0  0  0  0  0  0
   -3.9109   -2.6717    1.2250 C   0  0  0  0  0  0  0  0  0  0  0  0
   -4.6009   -2.0517    1.7950 H   0  0  0  0  0  0  0  0  0  0  0  0
   -4.2309   -2.7237    0.1860 H   0  0  0  0  0  0  0  0  0  0  0  0
   -2.5229   -2.0787    1.2980 C   0  0  0  0  0  0  0  0  0  0  0  0
   -1.5999   -2.7227    1.7810 O   0  0  0  0  0  0  0  0  0  0  0  0
   -2.3659   -0.8447    0.8120 N   0  0  0  0  0  0  0  0  0  0  0  0
   -3.1749   -0.3807    0.4220 H   0  0  0  0  0  0  0  0  0  0  0  0
   -1.0919   -0.1077    0.8170 C   0  0  1  0  0  0  0  0  0  0  0  0
   -1.2338    0.8177    1.3782 H   0  0  0  0  0  0  0  0  0  0  0  0
   -0.0325   -0.9661    1.5333 C   0  0  0  0  0  0  0  0  0  0  0  0
   -0.0217   -1.9572    1.0770 H   0  0  0  0  0  0  0  0  0  0  0  0
    0.9514   -0.5150    1.3901 H   0  0  0  0  0  0  0  0  0  0  0  0
   -0.3001   -1.1298    3.0373 C   0  0  0  0  0  0  0  0  0  0  0  0
   -0.3297   -0.1492    3.5140 H   0  0  0  0  0  0  0  0  0  0  0  0
   -1.2630   -1.6244    3.1793 H   0  0  0  0  0  0  0  0  0  0  0  0
    0.8050   -1.9730    3.6882 C   0  0  0  0  0  0  0  0  0  0  0  0
    0.8421   -2.9490    3.1985 H   0  0  0  0  0  0  0  0  0  0  0  0
    1.7642   -1.4696    3.5515 H   0  0  0  0  0  0  0  0  0  0  0  0
    0.5261   -2.1581    5.1850 C   0  0  0  0  0  0  0  0  0  0  0  0
    0.4852   -1.1702    5.6552 H   0  0  0  0  0  0  0  0  0  0  0  0
   -0.4567   -2.6250    5.3004 H   0  0  0  0  0  0  0  0  0  0  0  0
    1.5687   -2.9912    5.8357 N   0  3  0  0  0  0  0  0  0  0  0  0
    2.4792   -2.5589    5.7414 H   0  0  0  0  0  0  0  0  0  0  0  0
    1.3700   -3.1040    6.8220 H   0  0  0  0  0  0  0  0  0  0  0  0
    1.6045   -3.9100    5.4098 H   0  0  0  0  0  0  0  0  0  0  0  0
   -0.6713    0.2432   -0.6121 C   0  0  0  0  0  0  0  0  0  0  0  0
    0.4967    0.0985   -0.9530 O   0  0  0  0  0  0  0  0  0  0  0  0
   -1.6146    0.7320   -1.4238 N   0  0  0  0  0  0  0  0  0  0  0  0
   -2.5557    0.7878   -1.0710 H   0  0  0  0  0  0  0  0  0  0  0  0
   -1.3794    1.1133   -2.8176 C   0  0  0  0  0  0  0  0  0  0  0  0
   -1.0648    0.2388   -3.3911 H   0  0  0  0  0  0  0  0  0  0  0  0
   -2.2898    1.5189   -3.2604 H   0  0  0  0  0  0  0  0  0  0  0  0
   -0.5873    1.8633   -2.8717 H   0  0  0  0  0  0  0  0  0  0  0  0
  5  6  2  0  0  0  0
  5  7  1  0  0  0  0
  2  3  1  0  0  0  0
  2  4  1  0  0  0  0
  2  5  1  0  0  0  0
  1  2  1  0  0  0  0
 27 28  2  0  0  0  0
 27 29  1  0  0  0  0
 23 24  1  0  0  0  0
 23 25  1  0  0  0  0
 23 26  1  0  0  0  0
 20 21  1  0  0  0  0
 20 22  1  0  0  0  0
 20 23  1  0  0  0  0
 17 18  1  0  0  0  0
 17 19  1  0  0  0  0
 17 20  1  0  0  0  0
 14 15  1  0  0  0  0
 14 16  1  0  0  0  0
 14 17  1  0  0  0  0
 11 12  1  0  0  0  0
 11 13  1  0  0  0  0
 11 14  1  0  0  0  0
  9 10  1  0  0  0  0
  9 11  1  0  0  0  0
  9 27  1  0  0  0  0
  7  8  1  0  0  0  0
  7  9  1  0  0  0  0
 31 32  1  0  0  0  0
 31 33  1  0  0  0  0
 31 34  1  0  0  0  0
 29 30  1  0  0  0  0
 29 31  1  0  0  0  0
M  CHG  1  23   1
M  END
$$$$
default_name
  -OEChem-01062215323D

 34 33  0     1  0  0  0  0  0999 V2000
   -3.8899   -3.6747    1.6490 H   0  0  0  0  0  0  0  0  0  0  0  0
   -3.9109   -2.6717    1.2250 C   0  0  0  0  0  0  0  0  0  0  0  0
   -4.6009   -2.0517    1.7950 H   0  0  0  0  0  0  0  0  0  0  0  0
   -4.2309   -2.7237    0.1860 H   0  0  0  0  0  0  0  0  0  0  0  0
   -2.5229   -2.0787    1.2980 C   0  0  0  0  0  0  0  0  0  0  0  0
   -1.5999   -2.7227    1.7810 O   0  0  0  0  0  0  0  0  0  0  0  0
   -2.3659   -0.8447    0.8120 N   0  0  0  0  0  0  0  0  0  0  0  0
   -3.1749   -0.3807    0.4220 H   0  0  0  0  0  0  0  0  0  0  0  0
   -1.0919   -0.1077    0.8170 C   0  0  1  0  0  0  0  0  0  0  0  0
   -1.2338    0.8177    1.3782 H   0  0  0  0  0  0  0  0  0  0  0  0
   -0.0325   -0.9661    1.5333 C   0  0  0  0  0  0  0  0  0  0  0  0
   -0.0217   -1.9572    1.0770 H   0  0  0  0  0  0  0  0  0  0  0  0
    0.9514   -0.5150    1.3901 H   0  0  0  0  0  0  0  0  0  0  0  0
   -0.3001   -1.1298    3.0373 C   0  0  0  0  0  0  0  0  0  0  0  0
   -0.3297   -0.1492    3.5140 H   0  0  0  0  0  0  0  0  0  0  0  0
   -1.2630   -1.6244    3.1793 H   0  0  0  0  0  0  0  0  0  0  0  0
    0.8050   -1.9730    3.6882 C   0  0  0  0  0  0  0  0  0  0  0  0
    0.8421   -2.9490    3.1985 H   0  0  0  0  0  0  0  0  0  0  0  0
    1.7642   -1.4696    3.5515 H   0  0  0  0  0  0  0  0  0  0  0  0
    0.5261   -2.1581    5.1850 C   0  0  0  0  0  0  0  0  0  0  0  0
    0.4852   -1.1702    5.6552 H   0  0  0  0  0  0  0  0  0  0  0  0
   -0.4567   -2.6250    5.3004 H   0  0  0  0  0  0  0  0  0  0  0  0
    1.5687   -2.9912    5.8357 N   0  3  0  0  0  0  0  0  0  0  0  0
    2.4792   -2.5589    5.7414 H   0  0  0  0  0  0  0  0  0  0  0  0
    1.3700   -3.1040    6.8220 H   0  0  0  0  0  0  0  0  0  0  0  0
    1.6045   -3.9100    5.4098 H   0  0  0  0  0  0  0  0  0  0  0  0
   -0.6713    0.2432   -0.6121 C   0  0  0  0  0  0  0  0  0  0  0  0
    0.4074   -0.1499   -1.0403 O   0  0  0  0  0  0  0  0  0  0  0  0
   -1.5068    1.0058   -1.3248 N   0  0  0  0  0  0  0  0  0  0  0  0
   -2.3868    1.2576   -0.9059 H   0  0  0  0  0  0  0  0  0  0  0  0
   -1.2566    1.4278   -2.7042 C   0  0  0  0  0  0  0  0  0  0  0  0
   -1.1941    0.5511   -3.3524 H   0  0  0  0  0  0  0  0  0  0  0  0
   -2.0618    2.0731   -3.0573 H   0  0  0  0  0  0  0  0  0  0  0  0
   -0.3093    1.9681   -2.7641 H   0  0  0  0  0  0  0  0  0  0  0  0
  5  6  2  0  0  0  0
  5  7  1  0  0  0  0
  2  3  1  0  0  0  0
  2  4  1  0  0  0  0
  2  5  1  0  0  0  0
  1  2  1  0  0  0  0
 27 28  2  0  0  0  0
 27 29  1  0  0  0  0
 23 24  1  0  0  0  0
 23 25  1  0  0  0  0
 23 26  1  0  0  0  0
 20 21  1  0  0  0  0
 20 22  1  0  0  0  0
 20 23  1  0  0  0  0
 17 18  1  0  0  0  0
 17 19  1  0  0  0  0
 17 20  1  0  0  0  0
 14 15  1  0  0  0  0
 14 16  1  0  0  0  0
 14 17  1  0  0  0  0
 11 12  1  0  0  0  0
 11 13  1  0  0  0  0
 11 14  1  0  0  0  0
  9 10  1  0  0  0  0
  9 11  1  0  0  0  0
  9 27  1  0  0  0  0
  7  8  1  0  0  0  0
  7  9  1  0  0  0  0
 31 32  1  0  0  0  0
 31 33  1  0  0  0  0
 31 34  1  0  0  0  0
 29 30  1  0  0  0  0
 29 31  1  0  0  0  0
M  CHG  1  23   1
M  END
$$$$
default_name
  -OEChem-01062215323D

 34 33  0     1  0  0  0  0  0999 V2000
   -3.8899   -3.6747    1.6490 H   0  0  0  0  0  0  0  0  0  0  0  0
   -3.9109   -2.6717    1.2250 C   0  0  0  0  0  0  0  0  0  0  0  0
   -4.6009   -2.0517    1.7950 H   0  0  0  0  0  0  0  0  0  0  0  0
   -4.2309   -2.7237    0.1860 H   0  0  0  0  0  0  0  0  0  0  0  0
   -2.5229   -2.0787    1.2980 C   0  0  0  0  0  0  0  0  0  0  0  0
   -1.5999   -2.7227    1.7810 O   0  0  0  0  0  0  0  0  0  0  0  0
   -2.3659   -0.8447    0.8120 N   0  0  0  0  0  0  0  0  0  0  0  0
   -3.1749   -0.3807    0.4220 H   0  0  0  0  0  0  0  0  0  0  0  0
   -1.0919   -0.1077    0.8170 C   0  0  1  0  0  0  0  0  0  0  0  0
   -1.2338    0.8177    1.3782 H   0  0  0  0  0  0  0  0  0  0  0  0
   -0.0325   -0.9661    1.5333 C   0  0  0  0  0  0  0  0  0  0  0  0
   -0.0217   -1.9572    1.0770 H   0  0  0  0  0  0  0  0  0  0  0  0
    0.9514   -0.5150    1.3901 H   0  0  0  0  0  0  0  0  0  0  0  0
   -0.3001   -1.1298    3.0373 C   0  0  0  0  0  0  0  0  0  0  0  0
   -0.3297   -0.1492    3.5140 H   0  0  0  0  0  0  0  0  0  0  0  0
   -1.2630   -1.6244    3.1793 H   0  0  0  0  0  0  0  0  0  0  0  0
    0.8050   -1.9730    3.6882 C   0  0  0  0  0  0  0  0  0  0  0  0
    0.8421   -2.9490    3.1985 H   0  0  0  0  0  0  0  0  0  0  0  0
    1.7642   -1.4696    3.5515 H   0  0  0  0  0  0  0  0  0  0  0  0
    0.5261   -2.1581    5.1850 C   0  0  0  0  0  0  0  0  0  0  0  0
    0.4852   -1.1702    5.6552 H   0  0  0  0  0  0  0  0  0  0  0  0
   -0.4567   -2.6250    5.3004 H   0  0  0  0  0  0  0  0  0  0  0  0
    1.5687   -2.9912    5.8357 N   0  3  0  0  0  0  0  0  0  0  0  0
    2.4792   -2.5589    5.7414 H   0  0  0  0  0  0  0  0  0  0  0  0
    1.3700   -3.1040    6.8220 H   0  0  0  0  0  0  0  0  0  0  0  0
    1.6045   -3.9100    5.4098 H   0  0  0  0  0  0  0  0  0  0  0  0
   -0.6713    0.2432   -0.6121 C   0  0  0  0  0  0  0  0  0  0  0  0
    0.2559   -0.3620   -1.1370 O   0  0  0  0  0  0  0  0  0  0  0  0
   -1.3306    1.2372   -1.2161 N   0  0  0  0  0  0  0  0  0  0  0  0
   -2.1002    1.6588   -0.7231 H   0  0  0  0  0  0  0  0  0  0  0  0
   -1.0551    1.6938   -2.5796 C   0  0  0  0  0  0  0  0  0  0  0  0
   -1.2412    0.8813   -3.2852 H   0  0  0  0  0  0  0  0  0  0  0  0
   -1.6956    2.5388   -2.8351 H   0  0  0  0  0  0  0  0  0  0  0  0
   -0.0090    1.9945   -2.6693 H   0  0  0  0  0  0  0  0  0  0  0  0
  5  6  2  0  0  0  0
  5  7  1  0  0  0  0
  2  3  1  0  0  0  0
  2  4  1  0  0  0  0
  2  5  1  0  0  0  0
  1  2  1  0  0  0  0
 27 28  2  0  0  0  0
 27 29  1  0  0  0  0
 23 24  1  0  0  0  0
 23 25  1  0  0  0  0
 23 26  1  0  0  0  0
 20 21  1  0  0  0  0
 20 22  1  0  0  0  0
 20 23  1  0  0  0  0
 17 18  1  0  0  0  0
 17 19  1  0  0  0  0
 17 20  1  0  0  0  0
 14 15  1  0  0  0  0
 14 16  1  0  0  0  0
 14 17  1  0  0  0  0
 11 12  1  0  0  0  0
 11 13  1  0  0  0  0
 11 14  1  0  0  0  0
  9 10  1  0  0  0  0
  9 11  1  0  0  0  0
  9 27  1  0  0  0  0
  7  8  1  0  0  0  0
  7  9  1  0  0  0  0
 31 32  1  0  0  0  0
 31 33  1  0  0  0  0
 31 34  1  0  0  0  0
 29 30  1  0  0  0  0
 29 31  1  0  0  0  0
M  CHG  1  23   1
M  END
$$$$
default_name
  -OEChem-01062215323D

 34 33  0     1  0  0  0  0  0999 V2000
   -3.8899   -3.6747    1.6490 H   0  0  0  0  0  0  0  0  0  0  0  0
   -3.9109   -2.6717    1.2250 C   0  0  0  0  0  0  0  0  0  0  0  0
   -4.6009   -2.0517    1.7950 H   0  0  0  0  0  0  0  0  0  0  0  0
   -4.2309   -2.7237    0.1860 H   0  0  0  0  0  0  0  0  0  0  0  0
   -2.5229   -2.0787    1.2980 C   0  0  0  0  0  0  0  0  0  0  0  0
   -1.5999   -2.7227    1.7810 O   0  0  0  0  0  0  0  0  0  0  0  0
   -2.3659   -0.8447    0.8120 N   0  0  0  0  0  0  0  0  0  0  0  0
   -3.1749   -0.3807    0.4220 H   0  0  0  0  0  0  0  0  0  0  0  0
   -1.0919   -0.1077    0.8170 C   0  0  1  0  0  0  0  0  0  0  0  0
   -1.2338    0.8177    1.3782 H   0  0  0  0  0  0  0  0  0  0  0  0
   -0.0325   -0.9661    1.5333 C   0  0  0  0  0  0  0  0  0  0  0  0
   -0.0217   -1.9572    1.0770 H   0  0  0  0  0  0  0  0  0  0  0  0
    0.9514   -0.5150    1.3901 H   0  0  0  0  0  0  0  0  0  0  0  0
   -0.3001   -1.1298    3.0373 C   0  0  0  0  0  0  0  0  0  0  0  0
   -0.3297   -0.1492    3.5140 H   0  0  0  0  0  0  0  0  0  0  0  0
   -1.2630   -1.6244    3.1793 H   0  0  0  0  0  0  0  0  0  0  0  0
    0.8050   -1.9730    3.6882 C   0  0  0  0  0  0  0  0  0  0  0  0
    0.8421   -2.9490    3.1985 H   0  0  0  0  0  0  0  0  0  0  0  0
    1.7642   -1.4696    3.5515 H   0  0  0  0  0  0  0  0  0  0  0  0
    0.5261   -2.1581    5.1850 C   0  0  0  0  0  0  0  0  0  0  0  0
    0.4852   -1.1702    5.6552 H   0  0  0  0  0  0  0  0  0  0  0  0
   -0.4567   -2.6250    5.3004 H   0  0  0  0  0  0  0  0  0  0  0  0
    1.5687   -2.9912    5.8357 N   0  3  0  0  0  0  0  0  0  0  0  0
    2.4792   -2.5589    5.7414 H   0  0  0  0  0  0  0  0  0  0  0  0
    1.3700   -3.1040    6.8220 H   0  0  0  0  0  0  0  0  0  0  0  0
    1.6045   -3.9100    5.4098 H   0  0  0  0  0  0  0  0  0  0  0  0
   -0.6713    0.2432   -0.6121 C   0  0  0  0  0  0  0  0  0  0  0  0
    0.0526   -0.5234   -1.2365 O   0  0  0  0  0  0  0  0  0  0  0  0
   -1.0980    1.4104   -1.1051 N   0  0  0  0  0  0  0  0  0  0  0  0
   -1.7157    1.9641   -0.5350 H   0  0  0  0  0  0  0  0  0  0  0  0
   -0.7889    1.8932   -2.4523 C   0  0  0  0  0  0  0  0  0  0  0  0
   -1.2029    1.2068   -3.1940 H   0  0  0  0  0  0  0  0  0  0  0  0
   -1.2160    2.8844   -2.6091 H   0  0  0  0  0  0  0  0  0  0  0  0
    0.2931    1.9406   -2.5936 H   0  0  0  0  0  0  0  0  0  0  0  0
  5  6  2  0  0  0  0
  5  7  1  0  0  0  0
  2  3  1  0  0  0  0
  2  4  1  0  0  0  0
  2  5  1  0  0  0  0
  1  2  1  0  0  0  0
 27 28  2  0  0  0  0
 27 29  1  0  0  0  0
 23 24  1  0  0  0  0
 23 25  1  0  0  0  0
 23 26  1  0  0  0  0
 20 21  1  0  0  0  0
 20 22  1  0  0  0  0
 20 23  1  0  0  0  0
 17 18  1  0  0  0  0
 17 19  1  0  0  0  0
 17 20  1  0  0  0  0
 14 15  1  0  0  0  0
 14 16  1  0  0  0  0
 14 17  1  0  0  0  0
 11 12  1  0  0  0  0
 11 13  1  0  0  0  0
 11 14  1  0  0  0  0
  9 10  1  0  0  0  0
  9 11  1  0  0  0  0
  9 27  1  0  0  0  0
  7  8  1  0  0  0  0
  7  9  1  0  0  0  0
 31 32  1  0  0  0  0
 31 33  1  0  0  0  0
 31 34  1  0  0  0  0
 29 30  1  0  0  0  0
 29 31  1  0  0  0  0
M  CHG  1  23   1
M  END
$$$$
default_name
  -OEChem-01062215323D

 34 33  0     1  0  0  0  0  0999 V2000
   -3.8899   -3.6747    1.6490 H   0  0  0  0  0  0  0  0  0  0  0  0
   -3.9109   -2.6717    1.2250 C   0  0  0  0  0  0  0  0  0  0  0  0
   -4.6009   -2.0517    1.7950 H   0  0  0  0  0  0  0  0  0  0  0  0
   -4.2309   -2.7237    0.1860 H   0  0  0  0  0  0  0  0  0  0  0  0
   -2.5229   -2.0787    1.2980 C   0  0  0  0  0  0  0  0  0  0  0  0
   -1.5999   -2.7227    1.7810 O   0  0  0  0  0  0  0  0  0  0  0  0
   -2.3659   -0.8447    0.8120 N   0  0  0  0  0  0  0  0  0  0  0  0
   -3.1749   -0.3807    0.4220 H   0  0  0  0  0  0  0  0  0  0  0  0
   -1.0919   -0.1077    0.8170 C   0  0  1  0  0  0  0  0  0  0  0  0
   -1.2338    0.8177    1.3782 H   0  0  0  0  0  0  0  0  0  0  0  0
   -0.0325   -0.9661    1.5333 C   0  0  0  0  0  0  0  0  0  0  0  0
   -0.0217   -1.9572    1.0770 H   0  0  0  0  0  0  0  0  0  0  0  0
    0.9514   -0.5150    1.3901 H   0  0  0  0  0  0  0  0  0  0  0  0
   -0.3001   -1.1298    3.0373 C   0  0  0  0  0  0  0  0  0  0  0  0
   -0.3297   -0.1492    3.5140 H   0  0  0  0  0  0  0  0  0  0  0  0
   -1.2630   -1.6244    3.1793 H   0  0  0  0  0  0  0  0  0  0  0  0
    0.8050   -1.9730    3.6882 C   0  0  0  0  0  0  0  0  0  0  0  0
    0.8421   -2.9490    3.1985 H   0  0  0  0  0  0  0  0  0  0  0  0
    1.7642   -1.4696    3.5515 H   0  0  0  0  0  0  0  0  0  0  0  0
    0.5261   -2.1581    5.1850 C   0  0  0  0  0  0  0  0  0  0  0  0
    0.4852   -1.1702    5.6552 H   0  0  0  0  0  0  0  0  0  0  0  0
   -0.4567   -2.6250    5.3004 H   0  0  0  0  0  0  0  0  0  0  0  0
    1.5687   -2.9912    5.8357 N   0  3  0  0  0  0  0  0  0  0  0  0
    2.4792   -2.5589    5.7414 H   0  0  0  0  0  0  0  0  0  0  0  0
    1.3700   -3.1040    6.8220 H   0  0  0  0  0  0  0  0  0  0  0  0
    1.6045   -3.9100    5.4098 H   0  0  0  0  0  0  0  0  0  0  0  0
   -0.6713    0.2432   -0.6121 C   0  0  0  0  0  0  0  0  0  0  0  0
   -0.1887   -0.6231   -1.3319 O   0  0  0  0  0  0  0  0  0  0  0  0
   -0.8249    1.5136   -0.9994 N   0  0  0  0  0  0  0  0  0  0  0  0
   -1.2593    2.1526   -0.3544 H   0  0  0  0  0  0  0  0  0  0  0  0
   -0.4760    2.0124   -2.3309 C   0  0  0  0  0  0  0  0  0  0  0  0
   -1.0819    1.5055   -3.0850 H   0  0  0  0  0  0  0  0  0  0  0  0
   -0.6559    3.0862   -2.3947 H   0  0  0  0  0  0  0  0  0  0  0  0
    0.5763    1.8102   -2.5423 H   0  0  0  0  0  0  0  0  0  0  0  0
  5  6  2  0  0  0  0
  5  7  1  0  0  0  0
  2  3  1  0  0  0  0
  2  4  1  0  0  0  0
  2  5  1  0  0  0  0
  1  2  1  0  0  0  0
 27 28  2  0  0  0  0
 27 29  1  0  0  0  0
 23 24  1  0  0  0  0
 23 25  1  0  0  0  0
 23 26  1  0  0  0  0
 20 21  1  0  0  0  0
 20 22  1  0  0  0  0
 20 23  1  0  0  0  0
 17 18  1  0  0  0  0
 17 19  1  0  0  0  0
 17 20  1  0  0  0  0
 14 15  1  0  0  0  0
 14 16  1  0  0  0  0
 14 17  1  0  0  0  0
 11 12  1  0  0  0  0
 11 13  1  0  0  0  0
 11 14  1  0  0  0  0
  9 10  1  0  0  0  0
  9 11  1  0  0  0  0
  9 27  1  0  0  0  0
  7  8  1  0  0  0  0
  7  9  1  0  0  0  0
 31 32  1  0  0  0  0
 31 33  1  0  0  0  0
 31 34  1  0  0  0  0
 29 30  1  0  0  0  0
 29 31  1  0  0  0  0
M  CHG  1  23   1
M  END
$$$$
default_name
  -OEChem-01062215323D

 34 33  0     1  0  0  0  0  0999 V2000
   -3.8899   -3.6747    1.6490 H   0  0  0  0  0  0  0  0  0  0  0  0
   -3.9109   -2.6717    1.2250 C   0  0  0  0  0  0  0  0  0  0  0  0
   -4.6009   -2.0517    1.7950 H   0  0  0  0  0  0  0  0  0  0  0  0
   -4.2309   -2.7237    0.1860 H   0  0  0  0  0  0  0  0  0  0  0  0
   -2.5229   -2.0787    1.2980 C   0  0  0  0  0  0  0  0  0  0  0  0
   -1.5999   -2.7227    1.7810 O   0  0  0  0  0  0  0  0  0  0  0  0
   -2.3659   -0.8447    0.8120 N   0  0  0  0  0  0  0  0  0  0  0  0
   -3.1749   -0.3807    0.4220 H   0  0  0  0  0  0  0  0  0  0  0  0
   -1.0919   -0.1077    0.8170 C   0  0  1  0  0  0  0  0  0  0  0  0
   -1.2338    0.8177    1.3782 H   0  0  0  0  0  0  0  0  0  0  0  0
   -0.0325   -0.9661    1.5333 C   0  0  0  0  0  0  0  0  0  0  0  0
   -0.0217   -1.9572    1.0770 H   0  0  0  0  0  0  0  0  0  0  0  0
    0.9514   -0.5150    1.3901 H   0  0  0  0  0  0  0  0  0  0  0  0
   -0.3001   -1.1298    3.0373 C   0  0  0  0  0  0  0  0  0  0  0  0
   -0.3297   -0.1492    3.5140 H   0  0  0  0  0  0  0  0  0  0  0  0
   -1.2630   -1.6244    3.1793 H   0  0  0  0  0  0  0  0  0  0  0  0
    0.8050   -1.9730    3.6882 C   0  0  0  0  0  0  0  0  0  0  0  0
    0.8421   -2.9490    3.1985 H   0  0  0  0  0  0  0  0  0  0  0  0
    1.7642   -1.4696    3.5515 H   0  0  0  0  0  0  0  0  0  0  0  0
    0.5261   -2.1581    5.1850 C   0  0  0  0  0  0  0  0  0  0  0  0
    0.4852   -1.1702    5.6552 H   0  0  0  0  0  0  0  0  0  0  0  0
   -0.4567   -2.6250    5.3004 H   0  0  0  0  0  0  0  0  0  0  0  0
    1.5687   -2.9912    5.8357 N   0  3  0  0  0  0  0  0  0  0  0  0
    2.4792   -2.5589    5.7414 H   0  0  0  0  0  0  0  0  0  0  0  0
    1.3700   -3.1040    6.8220 H   0  0  0  0  0  0  0  0  0  0  0  0
    1.6045   -3.9100    5.4098 H   0  0  0  0  0  0  0  0  0  0  0  0
   -0.6713    0.2432   -0.6121 C   0  0  0  0  0  0  0  0  0  0  0  0
   -0.4516   -0.6542   -1.4170 O   0  0  0  0  0  0  0  0  0  0  0  0
   -0.5299    1.5398   -0.9062 N   0  0  0  0  0  0  0  0  0  0  0  0
   -0.7622    2.2116   -0.1936 H   0  0  0  0  0  0  0  0  0  0  0  0
   -0.1377    2.0433   -2.2238 C   0  0  0  0  0  0  0  0  0  0  0  0
   -0.8863    1.7571   -2.9657 H   0  0  0  0  0  0  0  0  0  0  0  0
   -0.0534    3.1305   -2.2065 H   0  0  0  0  0  0  0  0  0  0  0  0
    0.8214    1.6122   -2.5187 H   0  0  0  0  0  0  0  0  0  0  0  0
  5  6  2  0  0  0  0
  5  7  1  0  0  0  0
  2  3  1  0  0  0  0
  2  4  1  0  0  0  0
  2  5  1  0  0  0  0
  1  2  1  0  0  0  0
 27 28  2  0  0  0  0
 27 29  1  0  0  0  0
 23 24  1  0  0  0  0
 23 25  1  0  0  0  0
 23 26  1  0  0  0  0
 20 21  1  0  0  0  0
 20 22  1  0  0  0  0
 20 23  1  0  0  0  0
 17 18  1  0  0  0  0
 17 19  1  0  0  0  0
 17 20  1  0  0  0  0
 14 15  1  0  0  0  0
 14 16  1  0  0  0  0
 14 17  1  0  0  0  0
 11 12  1  0  0  0  0
 11 13  1  0  0  0  0
 11 14  1  0  0  0  0
  9 10  1  0  0  0  0
  9 11  1  0  0  0  0
  9 27  1  0  0  0  0
  7  8  1  0  0  0  0
  7  9  1  0  0  0  0
 31 32  1  0  0  0  0
 31 33  1  0  0  0  0
 31 34  1  0  0  0  0
 29 30  1  0  0  0  0
 29 31  1  0  0  0  0
M  CHG  1  23   1
M  END
$$$$
default_name
  -OEChem-01062215323D

 34 33  0     1  0  0  0  0  0999 V2000
   -3.8899   -3.6747    1.6490 H   0  0  0  0  0  0  0  0  0  0  0  0
   -3.9109   -2.6717    1.2250 C   0  0  0  0  0  0  0  0  0  0  0  0
   -4.6009   -2.0517    1.7950 H   0  0  0  0  0  0  0  0  0  0  0  0
   -4.2309   -2.7237    0.1860 H   0  0  0  0  0  0  0  0  0  0  0  0
   -2.5229   -2.0787    1.2980 C   0  0  0  0  0  0  0  0  0  0  0  0
   -1.5999   -2.7227    1.7810 O   0  0  0  0  0  0  0  0  0  0  0  0
   -2.3659   -0.8447    0.8120 N   0  0  0  0  0  0  0  0  0  0  0  0
   -3.1749   -0.3807    0.4220 H   0  0  0  0  0  0  0  0  0  0  0  0
   -1.0919   -0.1077    0.8170 C   0  0  1  0  0  0  0  0  0  0  0  0
   -1.2338    0.8177    1.3782 H   0  0  0  0  0  0  0  0  0  0  0  0
   -0.0325   -0.9661    1.5333 C   0  0  0  0  0  0  0  0  0  0  0  0
   -0.0217   -1.9572    1.0770 H   0  0  0  0  0  0  0  0  0  0  0  0
    0.9514   -0.5150    1.3901 H   0  0  0  0  0  0  0  0  0  0  0  0
   -0.3001   -1.1298    3.0373 C   0  0  0  0  0  0  0  0  0  0  0  0
   -0.3297   -0.1492    3.5140 H   0  0  0  0  0  0  0  0  0  0  0  0
   -1.2630   -1.6244    3.1793 H   0  0  0  0  0  0  0  0  0  0  0  0
    0.8050   -1.9730    3.6882 C   0  0  0  0  0  0  0  0  0  0  0  0
    0.8421   -2.9490    3.1985 H   0  0  0  0  0  0  0  0  0  0  0  0
    1.7642   -1.4696    3.5515 H   0  0  0  0  0  0  0  0  0  0  0  0
    0.5261   -2.1581    5.1850 C   0  0  0  0  0  0  0  0  0  0  0  0
    0.4852   -1.1702    5.6552 H   0  0  0  0  0  0  0  0  0  0  0  0
   -0.4567   -2.6250    5.3004 H   0  0  0  0  0  0  0  0  0  0  0  0
    1.5687   -2.9912    5.8357 N   0  3  0  0  0  0  0  0  0  0  0  0
    2.4792   -2.5589    5.7414 H   0  0  0  0  0  0  0  0  0  0  0  0
    1.3700   -3.1040    6.8220 H   0  0  0  0  0  0  0  0  0  0  0  0
    1.6045   -3.9100    5.4098 H   0  0  0  0  0  0  0  0  0  0  0  0
   -0.6713    0.2432   -0.6121 C   0  0  0  0  0  0  0  0  0  0  0  0
   -0.7180   -0.6148   -1.4857 O   0  0  0  0  0  0  0  0  0  0  0  0
   -0.2331    1.4871   -0.8318 N   0  0  0  0  0  0  0  0  0  0  0  0
   -0.2582    2.1370   -0.0635 H   0  0  0  0  0  0  0  0  0  0  0  0
    0.2028    1.9838   -2.1382 C   0  0  0  0  0  0  0  0  0  0  0  0
   -0.6295    1.9442   -2.8442 H   0  0  0  0  0  0  0  0  0  0  0  0
    0.5504    3.0143   -2.0573 H   0  0  0  0  0  0  0  0  0  0  0  0
    1.0117    1.3599   -2.5247 H   0  0  0  0  0  0  0  0  0  0  0  0
  5  6  2  0  0  0  0
  5  7  1  0  0  0  0
  2  3  1  0  0  0  0
  2  4  1  0  0  0  0
  2  5  1  0  0  0  0
  1  2  1  0  0  0  0
 27 28  2  0  0  0  0
 27 29  1  0  0  0  0
 23 24  1  0  0  0  0
 23 25  1  0  0  0  0
 23 26  1  0  0  0  0
 20 21  1  0  0  0  0
 20 22  1  0  0  0  0
 20 23  1  0  0  0  0
 17 18  1  0  0  0  0
 17 19  1  0  0  0  0
 17 20  1  0  0  0  0
 14 15  1  0  0  0  0
 14 16  1  0  0  0  0
 14 17  1  0  0  0  0
 11 12  1  0  0  0  0
 11 13  1  0  0  0  0
 11 14  1  0  0  0  0
  9 10  1  0  0  0  0
  9 11  1  0  0  0  0
  9 27  1  0  0  0  0
  7  8  1  0  0  0  0
  7  9  1  0  0  0  0
 31 32  1  0  0  0  0
 31 33  1  0  0  0  0
 31 34  1  0  0  0  0
 29 30  1  0  0  0  0
 29 31  1  0  0  0  0
M  CHG  1  23   1
M  END
$$$$
default_name
  -OEChem-01062215323D

 34 33  0     1  0  0  0  0  0999 V2000
   -3.8899   -3.6747    1.6490 H   0  0  0  0  0  0  0  0  0  0  0  0
   -3.9109   -2.6717    1.2250 C   0  0  0  0  0  0  0  0  0  0  0  0
   -4.6009   -2.0517    1.7950 H   0  0  0  0  0  0  0  0  0  0  0  0
   -4.2309   -2.7237    0.1860 H   0  0  0  0  0  0  0  0  0  0  0  0
   -2.5229   -2.0787    1.2980 C   0  0  0  0  0  0  0  0  0  0  0  0
   -1.5999   -2.7227    1.7810 O   0  0  0  0  0  0  0  0  0  0  0  0
   -2.3659   -0.8447    0.8120 N   0  0  0  0  0  0  0  0  0  0  0  0
   -3.1749   -0.3807    0.4220 H   0  0  0  0  0  0  0  0  0  0  0  0
   -1.0919   -0.1077    0.8170 C   0  0  1  0  0  0  0  0  0  0  0  0
   -1.2338    0.8177    1.3782 H   0  0  0  0  0  0  0  0  0  0  0  0
   -0.0325   -0.9661    1.5333 C   0  0  0  0  0  0  0  0  0  0  0  0
   -0.0217   -1.9572    1.0770 H   0  0  0  0  0  0  0  0  0  0  0  0
    0.9514   -0.5150    1.3901 H   0  0  0  0  0  0  0  0  0  0  0  0
   -0.3001   -1.1298    3.0373 C   0  0  0  0  0  0  0  0  0  0  0  0
   -0.3297   -0.1492    3.5140 H   0  0  0  0  0  0  0  0  0  0  0  0
   -1.2630   -1.6244    3.1793 H   0  0  0  0  0  0  0  0  0  0  0  0
    0.8050   -1.9730    3.6882 C   0  0  0  0  0  0  0  0  0  0  0  0
    0.8421   -2.9490    3.1985 H   0  0  0  0  0  0  0  0  0  0  0  0
    1.7642   -1.4696    3.5515 H   0  0  0  0  0  0  0  0  0  0  0  0
    0.5261   -2.1581    5.1850 C   0  0  0  0  0  0  0  0  0  0  0  0
    0.4852   -1.1702    5.6552 H   0  0  0  0  0  0  0  0  0  0  0  0
   -0.4567   -2.6250    5.3004 H   0  0  0  0  0  0  0  0  0  0  0  0
    1.5687   -2.9912    5.8357 N   0  3  0  0  0  0  0  0  0  0  0  0
    2.4792   -2.5589    5.7414 H   0  0  0  0  0  0  0  0  0  0  0  0
    1.3700   -3.1040    6.8220 H   0  0  0  0  0  0  0  0  0  0  0  0
    1.6045   -3.9100    5.4098 H   0  0  0  0  0  0  0  0  0  0  0  0
   -0.6713    0.2432   -0.6121 C   0  0  0  0  0  0  0  0  0  0  0  0
   -0.9699   -0.5074   -1.5335 O   0  0  0  0  0  0  0  0  0  0  0  0
    0.0452    1.3592   -0.7812 N   0  0  0  0  0  0  0  0  0  0  0  0
    0.2183    1.9339    0.0268 H   0  0  0  0  0  0  0  0  0  0  0  0
    0.5225    1.8379   -2.0799 C   0  0  0  0  0  0  0  0  0  0  0  0
   -0.3290    2.0543   -2.7287 H   0  0  0  0  0  0  0  0  0  0  0  0
    1.1145    2.7456   -1.9573 H   0  0  0  0  0  0  0  0  0  0  0  0
    1.1342    1.0707   -2.5596 H   0  0  0  0  0  0  0  0  0  0  0  0
  5  6  2  0  0  0  0
  5  7  1  0  0  0  0
  2  3  1  0  0  0  0
  2  4  1  0  0  0  0
  2  5  1  0  0  0  0
  1  2  1  0  0  0  0
 27 28  2  0  0  0  0
 27 29  1  0  0  0  0
 23 24  1  0  0  0  0
 23 25  1  0  0  0  0
 23 26  1  0  0  0  0
 20 21  1  0  0  0  0
 20 22  1  0  0  0  0
 20 23  1  0  0  0  0
 17 18  1  0  0  0  0
 17 19  1  0  0  0  0
 17 20  1  0  0  0  0
 14 15  1  0  0  0  0
 14 16  1  0  0  0  0
 14 17  1  0  0  0  0
 11 12  1  0  0  0  0
 11 13  1  0  0  0  0
 11 14  1  0  0  0  0
  9 10  1  0  0  0  0
  9 11  1  0  0  0  0
  9 27  1  0  0  0  0
  7  8  1  0  0  0  0
  7  9  1  0  0  0  0
 31 32  1  0  0  0  0
 31 33  1  0  0  0  0
 31 34  1  0  0  0  0
 29 30  1  0  0  0  0
 29 31  1  0  0  0  0
M  CHG  1  23   1
M  END
$$$$
default_name
  -OEChem-01062215323D

 34 33  0     1  0  0  0  0  0999 V2000
   -3.8899   -3.6747    1.6490 H   0  0  0  0  0  0  0  0  0  0  0  0
   -3.9109   -2.6717    1.2250 C   0  0  0  0  0  0  0  0  0  0  0  0
   -4.6009   -2.0517    1.7950 H   0  0  0  0  0  0  0  0  0  0  0  0
   -4.2309   -2.7237    0.1860 H   0  0  0  0  0  0  0  0  0  0  0  0
   -2.5229   -2.0787    1.2980 C   0  0  0  0  0  0  0  0  0  0  0  0
   -1.5999   -2.7227    1.7810 O   0  0  0  0  0  0  0  0  0  0  0  0
   -2.3659   -0.8447    0.8120 N   0  0  0  0  0  0  0  0  0  0  0  0
   -3.1749   -0.3807    0.4220 H   0  0  0  0  0  0  0  0  0  0  0  0
   -1.0919   -0.1077    0.8170 C   0  0  1  0  0  0  0  0  0  0  0  0
   -1.2338    0.8177    1.3782 H   0  0  0  0  0  0  0  0  0  0  0  0
   -0.0325   -0.9661    1.5333 C   0  0  0  0  0  0  0  0  0  0  0  0
   -0.0217   -1.9572    1.0770 H   0  0  0  0  0  0  0  0  0  0  0  0
    0.9514   -0.5150    1.3901 H   0  0  0  0  0  0  0  0  0  0  0  0
   -0.3001   -1.1298    3.0373 C   0  0  0  0  0  0  0  0  0  0  0  0
   -0.3297   -0.1492    3.5140 H   0  0  0  0  0  0  0  0  0  0  0  0
   -1.2630   -1.6244    3.1793 H   0  0  0  0  0  0  0  0  0  0  0  0
    0.8050   -1.9730    3.6882 C   0  0  0  0  0  0  0  0  0  0  0  0
    0.8421   -2.9490    3.1985 H   0  0  0  0  0  0  0  0  0  0  0  0
    1.7642   -1.4696    3.5515 H   0  0  0  0  0  0  0  0  0  0  0  0
    0.5261   -2.1581    5.1850 C   0  0  0  0  0  0  0  0  0  0  0  0
    0.4852   -1.1702    5.6552 H   0  0  0  0  0  0  0  0  0  0  0  0
   -0.4567   -2.6250    5.3004 H   0  0  0  0  0  0  0  0  0  0  0  0
    1.5687   -2.9912    5.8357 N   0  3  0  0  0  0  0  0  0  0  0  0
    2.4792   -2.5589    5.7414 H   0  0  0  0  0  0  0  0  0  0  0  0
    1.3700   -3.1040    6.8220 H   0  0  0  0  0  0  0  0  0  0  0  0
    1.6045   -3.9100    5.4098 H   0  0  0  0  0  0  0  0  0  0  0  0
   -0.6713    0.2432   -0.6121 C   0  0  0  0  0  0  0  0  0  0  0  0
   -1.1901   -0.3394   -1.5570 O   0  0  0  0  0  0  0  0  0  0  0  0
    0.2862    1.1648   -0.7580 N   0  0  0  0  0  0  0  0  0  0  0  0
    0.6348    1.6161    0.0714 H   0  0  0  0  0  0  0  0  0  0  0  0
    0.7994    1.6156   -2.0530 C   0  0  0  0  0  0  0  0  0  0  0  0
   -0.0052    2.0799   -2.6271 H   0  0  0  0  0  0  0  0  0  0  0  0
    1.6003    2.3425   -1.9133 H   0  0  0  0  0  0  0  0  0  0  0  0
    1.1806    0.7643   -2.6212 H   0  0  0  0  0  0  0  0  0  0  0  0
  5  6  2  0  0  0  0
  5  7  1  0  0  0  0
  2  3  1  0  0  0  0
  2  4  1  0  0  0  0
  2  5  1  0  0  0  0
  1  2  1  0  0  0  0
 27 28  2  0  0  0  0
 27 29  1  0  0  0  0
 23 24  1  0  0  0  0
 23 25  1  0  0  0  0
 23 26  1  0  0  0  0
 20 21  1  0  0  0  0
 20 22  1  0  0  0  0
 20 23  1  0  0  0  0
 17 18  1  0  0  0  0
 17 19  1  0  0  0  0
 17 20  1  0  0  0  0
 14 15  1  0  0  0  0
 14 16  1  0  0  0  0
 14 17  1  0  0  0  0
 11 12  1  0  0  0  0
 11 13  1  0  0  0  0
 11 14  1  0  0  0  0
  9 10  1  0  0  0  0
  9 11  1  0  0  0  0
  9 27  1  0  0  0  0
  7  8  1  0  0  0  0
  7  9  1  0  0  0  0
 31 32  1  0  0  0  0
 31 33  1  0  0  0  0
 31 34  1  0  0  0  0
 29 30  1  0  0  0  0
 29 31  1  0  0  0  0
M  CHG  1  23   1
M  END
$$$$
default_name
  -OEChem-01062215323D

 34 33  0     1  0  0  0  0  0999 V2000
   -3.8899   -3.6747    1.6490 H   0  0  0  0  0  0  0  0  0  0  0  0
   -3.9109   -2.6717    1.2250 C   0  0  0  0  0  0  0  0  0  0  0  0
   -4.6009   -2.0517    1.7950 H   0  0  0  0  0  0  0  0  0  0  0  0
   -4.2309   -2.7237    0.1860 H   0  0  0  0  0  0  0  0  0  0  0  0
   -2.5229   -2.0787    1.2980 C   0  0  0  0  0  0  0  0  0  0  0  0
   -1.5999   -2.7227    1.7810 O   0  0  0  0  0  0  0  0  0  0  0  0
   -2.3659   -0.8447    0.8120 N   0  0  0  0  0  0  0  0  0  0  0  0
   -3.1749   -0.3807    0.4220 H   0  0  0  0  0  0  0  0  0  0  0  0
   -1.0919   -0.1077    0.8170 C   0  0  1  0  0  0  0  0  0  0  0  0
   -1.1470    0.6662    1.5848 H   0  0  0  0  0  0  0  0  0  0  0  0
    0.0394   -1.0881    1.1793 C   0  0  0  0  0  0  0  0  0  0  0  0
   -0.0228   -1.9515    0.5151 H   0  0  0  0  0  0  0  0  0  0  0  0
    1.0026   -0.6010    1.0147 H   0  0  0  0  0  0  0  0  0  0  0  0
   -0.0331   -1.5886    2.6300 C   0  0  0  0  0  0  0  0  0  0  0  0
    0.0130   -0.7402    3.3141 H   0  0  0  0  0  0  0  0  0  0  0  0
   -0.9762   -2.1175    2.7810 H   0  0  0  0  0  0  0  0  0  0  0  0
    1.1353   -2.5388    2.9268 C   0  0  0  0  0  0  0  0  0  0  0  0
    1.0950   -3.3796    2.2302 H   0  0  0  0  0  0  0  0  0  0  0  0
    2.0755   -2.0026    2.7833 H   0  0  0  0  0  0  0  0  0  0  0  0
    1.0503   -3.0588    4.3672 C   0  0  0  0  0  0  0  0  0  0  0  0
    1.0845   -2.2020    5.0480 H   0  0  0  0  0  0  0  0  0  0  0  0
    0.0844   -3.5550    4.5012 H   0  0  0  0  0  0  0  0  0  0  0  0
    2.1568   -4.0000    4.6740 N   0  3  0  0  0  0  0  0  0  0  0  0
    3.0533   -3.5434    4.5619 H   0  0  0  0  0  0  0  0  0  0  0  0
    2.0862   -4.3340    5.6271 H   0  0  0  0  0  0  0  0  0  0  0  0
    2.1244   -4.7994    4.0520 H   0  0  0  0  0  0  0  0  0  0  0  0
   -0.8554    0.5609   -0.5392 C   0  0  0  0  0  0  0  0  0  0  0  0
   -1.6692    0.4051   -1.4420 O   0  0  0  0  0  0  0  0  0  0  0  0
    0.2692    1.2695   -0.6830 N   0  0  0  0  0  0  0  0  0  0  0  0
    0.8664    1.3719    0.1208 H   0  0  0  0  0  0  0  0  0  0  0  0
    0.6438    1.9724   -1.9114 C   0  0  0  0  0  0  0  0  0  0  0  0
   -0.0991    2.7402   -2.1381 H   0  0  0  0  0  0  0  0  0  0  0  0
    1.6195    2.4460   -1.7970 H   0  0  0  0  0  0  0  0  0  0  0  0
    0.6796    1.2708   -2.7478 H   0  0  0  0  0  0  0  0  0  0  0  0
  5  6  2  0  0  0  0
  5  7  1  0  0  0  0
  2  3  1  0  0  0  0
  2  4  1  0  0  0  0
  2  5  1  0  0  0  0
  1  2  1  0  0  0  0
 27 28  2  0  0  0  0
 27 29  1  0  0  0  0
 23 24  1  0  0  0  0
 23 25  1  0  0  0  0
 23 26  1  0  0  0  0
 20 21  1  0  0  0  0
 20 22  1  0  0  0  0
 20 23  1  0  0  0  0
 17 18  1  0  0  0  0
 17 19  1  0  0  0  0
 17 20  1  0  0  0  0
 14 15  1  0  0  0  0
 14 16  1  0  0  0  0
 14 17  1  0  0  0  0
 11 12  1  0  0  0  0
 11 13  1  0  0  0  0
 11 14  1  0  0  0  0
  9 10  1  0  0  0  0
  9 11  1  0  0  0  0
  9 27  1  0  0  0  0
  7  8  1  0  0  0  0
  7  9  1  0  0  0  0
 31 32  1  0  0  0  0
 31 33  1  0  0  0  0
 31 34  1  0  0  0  0
 29 30  1  0  0  0  0
 29 31  1  0  0  0  0
M  CHG  1  23   1
M  END
$$$$
default_name
  -OEChem-01062215323D

 34 33  0     1  0  0  0  0  0999 V2000
   -3.8899   -3.6747    1.6490 H   0  0  0  0  0  0  0  0  0  0  0  0
   -3.9109   -2.6717    1.2250 C   0  0  0  0  0  0  0  0  0  0  0  0
   -4.6009   -2.0517    1.7950 H   0  0  0  0  0  0  0  0  0  0  0  0
   -4.2309   -2.7237    0.1860 H   0  0  0  0  0  0  0  0  0  0  0  0
   -2.5229   -2.0787    1.2980 C   0  0  0  0  0  0  0  0  0  0  0  0
   -1.5999   -2.7227    1.7810 O   0  0  0  0  0  0  0  0  0  0  0  0
   -2.3659   -0.8447    0.8120 N   0  0  0  0  0  0  0  0  0  0  0  0
   -3.1749   -0.3807    0.4220 H   0  0  0  0  0  0  0  0  0  0  0  0
   -1.0919   -0.1077    0.8170 C   0  0  1  0  0  0  0  0  0  0  0  0
   -1.1470    0.6662    1.5848 H   0  0  0  0  0  0  0  0  0  0  0  0
    0.0394   -1.0881    1.1793 C   0  0  0  0  0  0  0  0  0  0  0  0
   -0.0228   -1.9515    0.5151 H   0  0  0  0  0  0  0  0  0  0  0  0
    1.0026   -0.6010    1.0147 H   0  0  0  0  0  0  0  0  0  0  0  0
   -0.0331   -1.5886    2.6300 C   0  0  0  0  0  0  0  0  0  0  0  0
    0.0130   -0.7402    3.3141 H   0  0  0  0  0  0  0  0  0  0  0  0
   -0.9762   -2.1175    2.7810 H   0  0  0  0  0  0  0  0  0  0  0  0
    1.1353   -2.5388    2.9268 C   0  0  0  0  0  0  0  0  0  0  0  0
    1.0950   -3.3796    2.2302 H   0  0  0  0  0  0  0  0  0  0  0  0
    2.0755   -2.0026    2.7833 H   0  0  0  0  0  0  0  0  0  0  0  0
    1.0503   -3.0588    4.3672 C   0  0  0  0  0  0  0  0  0  0  0  0
    1.0845   -2.2020    5.0480 H   0  0  0  0  0  0  0  0  0  0  0  0
    0.0844   -3.5550    4.5012 H   0  0  0  0  0  0  0  0  0  0  0  0
    2.1568   -4.0000    4.6740 N   0  3  0  0  0  0  0  0  0  0  0  0
    3.0533   -3.5434    4.5619 H   0  0  0  0  0  0  0  0  0  0  0  0
    2.0862   -4.3340    5.6271 H   0  0  0  0  0  0  0  0  0  0  0  0
    2.1244   -4.7994    4.0520 H   0  0  0  0  0  0  0  0  0  0  0  0
   -0.8554    0.5609   -0.5392 C   0  0  0  0  0  0  0  0  0  0  0  0
   -1.7760    0.6422   -1.3438 O   0  0  0  0  0  0  0  0  0  0  0  0
    0.3804    1.0023   -0.7953 N   0  0  0  0  0  0  0  0  0  0  0  0
    1.0686    0.9235   -0.0650 H   0  0  0  0  0  0  0  0  0  0  0  0
    0.7722    1.6661   -2.0401 C   0  0  0  0  0  0  0  0  0  0  0  0
    0.2073    2.5934   -2.1570 H   0  0  0  0  0  0  0  0  0  0  0  0
    1.8375    1.8990   -2.0286 H   0  0  0  0  0  0  0  0  0  0  0  0
    0.5536    1.0202   -2.8933 H   0  0  0  0  0  0  0  0  0  0  0  0
  5  6  2  0  0  0  0
  5  7  1  0  0  0  0
  2  3  1  0  0  0  0
  2  4  1  0  0  0  0
  2  5  1  0  0  0  0
  1  2  1  0  0  0  0
 27 28  2  0  0  0  0
 27 29  1  0  0  0  0
 23 24  1  0  0  0  0
 23 25  1  0  0  0  0
 23 26  1  0  0  0  0
 20 21  1  0  0  0  0
 20 22  1  0  0  0  0
 20 23  1  0  0  0  0
 17 18  1  0  0  0  0
 17 19  1  0  0  0  0
 17 20  1  0  0  0  0
 14 15  1  0  0  0  0
 14 16  1  0  0  0  0
 14 17  1  0  0  0  0
 11 12  1  0  0  0  0
 11 13  1  0  0  0  0
 11 14  1  0  0  0  0
  9 10  1  0  0  0  0
  9 11  1  0  0  0  0
  9 27  1  0  0  0  0
  7  8  1  0  0  0  0
  7  9  1  0  0  0  0
 31 32  1  0  0  0  0
 31 33  1  0  0  0  0
 31 34  1  0  0  0  0
 29 30  1  0  0  0  0
 29 31  1  0  0  0  0
M  CHG  1  23   1
M  END
$$$$
default_name
  -OEChem-01062215323D

 34 33  0     1  0  0  0  0  0999 V2000
   -3.8899   -3.6747    1.6490 H   0  0  0  0  0  0  0  0  0  0  0  0
   -3.9109   -2.6717    1.2250 C   0  0  0  0  0  0  0  0  0  0  0  0
   -4.6009   -2.0517    1.7950 H   0  0  0  0  0  0  0  0  0  0  0  0
   -4.2309   -2.7237    0.1860 H   0  0  0  0  0  0  0  0  0  0  0  0
   -2.5229   -2.0787    1.2980 C   0  0  0  0  0  0  0  0  0  0  0  0
   -1.5999   -2.7227    1.7810 O   0  0  0  0  0  0  0  0  0  0  0  0
   -2.3659   -0.8447    0.8120 N   0  0  0  0  0  0  0  0  0  0  0  0
   -3.1749   -0.3807    0.4220 H   0  0  0  0  0  0  0  0  0  0  0  0
   -1.0919   -0.1077    0.8170 C   0  0  1  0  0  0  0  0  0  0  0  0
   -1.1470    0.6662    1.5848 H   0  0  0  0  0  0  0  0  0  0  0  0
    0.0394   -1.0881    1.1793 C   0  0  0  0  0  0  0  0  0  0  0  0
   -0.0228   -1.9515    0.5151 H   0  0  0  0  0  0  0  0  0  0  0  0
    1.0026   -0.6010    1.0147 H   0  0  0  0  0  0  0  0  0  0  0  0
   -0.0331   -1.5886    2.6300 C   0  0  0  0  0  0  0  0  0  0  0  0
    0.0130   -0.7402    3.3141 H   0  0  0  0  0  0  0  0  0  0  0  0
   -0.9762   -2.1175    2.7810 H   0  0  0  0  0  0  0  0  0  0  0  0
    1.1353   -2.5388    2.9268 C   0  0  0  0  0  0  0  0  0  0  0  0
    1.0950   -3.3796    2.2302 H   0  0  0  0  0  0  0  0  0  0  0  0
    2.0755   -2.0026    2.7833 H   0  0  0  0  0  0  0  0  0  0  0  0
    1.0503   -3.0588    4.3672 C   0  0  0  0  0  0  0  0  0  0  0  0
    1.0845   -2.2020    5.0480 H   0  0  0  0  0  0  0  0  0  0  0  0
    0.0844   -3.5550    4.5012 H   0  0  0  0  0  0  0  0  0  0  0  0
    2.1568   -4.0000    4.6740 N   0  3  0  0  0  0  0  0  0  0  0  0
    3.0533   -3.5434    4.5619 H   0  0  0  0  0  0  0  0  0  0  0  0
    2.0862   -4.3340    5.6271 H   0  0  0  0  0  0  0  0  0  0  0  0
    2.1244   -4.7994    4.0520 H   0  0  0  0  0  0  0  0  0  0  0  0
   -0.8554    0.5609   -0.5392 C   0  0  0  0  0  0  0  0  0  0  0  0
   -1.8138    0.8918   -1.2273 O   0  0  0  0  0  0  0  0  0  0  0  0
    0.4138    0.7231   -0.9271 N   0  0  0  0  0  0  0  0  0  0  0  0
    1.1400    0.4514   -0.2853 H   0  0  0  0  0  0  0  0  0  0  0  0
    0.8114    1.3459   -2.1911 C   0  0  0  0  0  0  0  0  0  0  0  0
    0.4674    2.3821   -2.2158 H   0  0  0  0  0  0  0  0  0  0  0  0
    1.8965    1.3299   -2.2989 H   0  0  0  0  0  0  0  0  0  0  0  0
    0.3579    0.8128   -3.0296 H   0  0  0  0  0  0  0  0  0  0  0  0
  5  6  2  0  0  0  0
  5  7  1  0  0  0  0
  2  3  1  0  0  0  0
  2  4  1  0  0  0  0
  2  5  1  0  0  0  0
  1  2  1  0  0  0  0
 27 28  2  0  0  0  0
 27 29  1  0  0  0  0
 23 24  1  0  0  0  0
 23 25  1  0  0  0  0
 23 26  1  0  0  0  0
 20 21  1  0  0  0  0
 20 22  1  0  0  0  0
 20 23  1  0  0  0  0
 17 18  1  0  0  0  0
 17 19  1  0  0  0  0
 17 20  1  0  0  0  0
 14 15  1  0  0  0  0
 14 16  1  0  0  0  0
 14 17  1  0  0  0  0
 11 12  1  0  0  0  0
 11 13  1  0  0  0  0
 11 14  1  0  0  0  0
  9 10  1  0  0  0  0
  9 11  1  0  0  0  0
  9 27  1  0  0  0  0
  7  8  1  0  0  0  0
  7  9  1  0  0  0  0
 31 32  1  0  0  0  0
 31 33  1  0  0  0  0
 31 34  1  0  0  0  0
 29 30  1  0  0  0  0
 29 31  1  0  0  0  0
M  CHG  1  23   1
M  END
$$$$
default_name
  -OEChem-01062215323D

 34 33  0     1  0  0  0  0  0999 V2000
   -3.8899   -3.6747    1.6490 H   0  0  0  0  0  0  0  0  0  0  0  0
   -3.9109   -2.6717    1.2250 C   0  0  0  0  0  0  0  0  0  0  0  0
   -4.6009   -2.0517    1.7950 H   0  0  0  0  0  0  0  0  0  0  0  0
   -4.2309   -2.7237    0.1860 H   0  0  0  0  0  0  0  0  0  0  0  0
   -2.5229   -2.0787    1.2980 C   0  0  0  0  0  0  0  0  0  0  0  0
   -1.5999   -2.7227    1.7810 O   0  0  0  0  0  0  0  0  0  0  0  0
   -2.3659   -0.8447    0.8120 N   0  0  0  0  0  0  0  0  0  0  0  0
   -3.1749   -0.3807    0.4220 H   0  0  0  0  0  0  0  0  0  0  0  0
   -1.0919   -0.1077    0.8170 C   0  0  1  0  0  0  0  0  0  0  0  0
   -1.1470    0.6662    1.5848 H   0  0  0  0  0  0  0  0  0  0  0  0
    0.0394   -1.0881    1.1793 C   0  0  0  0  0  0  0  0  0  0  0  0
   -0.0228   -1.9515    0.5151 H   0  0  0  0  0  0  0  0  0  0  0  0
    1.0026   -0.6010    1.0147 H   0  0  0  0  0  0  0  0  0  0  0  0
   -0.0331   -1.5886    2.6300 C   0  0  0  0  0  0  0  0  0  0  0  0
    0.0130   -0.7402    3.3141 H   0  0  0  0  0  0  0  0  0  0  0  0
   -0.9762   -2.1175    2.7810 H   0  0  0  0  0  0  0  0  0  0  0  0
    1.1353   -2.5388    2.9268 C   0  0  0  0  0  0  0  0  0  0  0  0
    1.0950   -3.3796    2.2302 H   0  0  0  0  0  0  0  0  0  0  0  0
    2.0755   -2.0026    2.7833 H   0  0  0  0  0  0  0  0  0  0  0  0
    1.0503   -3.0588    4.3672 C   0  0  0  0  0  0  0  0  0  0  0  0
    1.0845   -2.2020    5.0480 H   0  0  0  0  0  0  0  0  0  0  0  0
    0.0844   -3.5550    4.5012 H   0  0  0  0  0  0  0  0  0  0  0  0
    2.1568   -4.0000    4.6740 N   0  3  0  0  0  0  0  0  0  0  0  0
    3.0533   -3.5434    4.5619 H   0  0  0  0  0  0  0  0  0  0  0  0
    2.0862   -4.3340    5.6271 H   0  0  0  0  0  0  0  0  0  0  0  0
    2.1244   -4.7994    4.0520 H   0  0  0  0  0  0  0  0  0  0  0  0
   -0.8554    0.5609   -0.5392 C   0  0  0  0  0  0  0  0  0  0  0  0
   -1.7798    1.1369   -1.1006 O   0  0  0  0  0  0  0  0  0  0  0  0
    0.3671    0.4511   -1.0693 N   0  0  0  0  0  0  0  0  0  0  0  0
    1.0758   -0.0121   -0.5250 H   0  0  0  0  0  0  0  0  0  0  0  0
    0.7587    1.0337   -2.3542 C   0  0  0  0  0  0  0  0  0  0  0  0
    0.6636    2.1207   -2.3104 H   0  0  0  0  0  0  0  0  0  0  0  0
    1.7923    0.7775   -2.5894 H   0  0  0  0  0  0  0  0  0  0  0  0
    0.1060    0.6629   -3.1475 H   0  0  0  0  0  0  0  0  0  0  0  0
  5  6  2  0  0  0  0
  5  7  1  0  0  0  0
  2  3  1  0  0  0  0
  2  4  1  0  0  0  0
  2  5  1  0  0  0  0
  1  2  1  0  0  0  0
 27 28  2  0  0  0  0
 27 29  1  0  0  0  0
 23 24  1  0  0  0  0
 23 25  1  0  0  0  0
 23 26  1  0  0  0  0
 20 21  1  0  0  0  0
 20 22  1  0  0  0  0
 20 23  1  0  0  0  0
 17 18  1  0  0  0  0
 17 19  1  0  0  0  0
 17 20  1  0  0  0  0
 14 15  1  0  0  0  0
 14 16  1  0  0  0  0
 14 17  1  0  0  0  0
 11 12  1  0  0  0  0
 11 13  1  0  0  0  0
 11 14  1  0  0  0  0
  9 10  1  0  0  0  0
  9 11  1  0  0  0  0
  9 27  1  0  0  0  0
  7  8  1  0  0  0  0
  7  9  1  0  0  0  0
 31 32  1  0  0  0  0
 31 33  1  0  0  0  0
 31 34  1  0  0  0  0
 29 30  1  0  0  0  0
 29 31  1  0  0  0  0
M  CHG  1  23   1
M  END
$$$$
default_name
  -OEChem-01062215323D

 34 33  0     1  0  0  0  0  0999 V2000
   -3.8899   -3.6747    1.6490 H   0  0  0  0  0  0  0  0  0  0  0  0
   -3.9109   -2.6717    1.2250 C   0  0  0  0  0  0  0  0  0  0  0  0
   -4.6009   -2.0517    1.7950 H   0  0  0  0  0  0  0  0  0  0  0  0
   -4.2309   -2.7237    0.1860 H   0  0  0  0  0  0  0  0  0  0  0  0
   -2.5229   -2.0787    1.2980 C   0  0  0  0  0  0  0  0  0  0  0  0
   -1.5999   -2.7227    1.7810 O   0  0  0  0  0  0  0  0  0  0  0  0
   -2.3659   -0.8447    0.8120 N   0  0  0  0  0  0  0  0  0  0  0  0
   -3.1749   -0.3807    0.4220 H   0  0  0  0  0  0  0  0  0  0  0  0
   -1.0919   -0.1077    0.8170 C   0  0  1  0  0  0  0  0  0  0  0  0
   -1.1470    0.6662    1.5848 H   0  0  0  0  0  0  0  0  0  0  0  0
    0.0394   -1.0881    1.1793 C   0  0  0  0  0  0  0  0  0  0  0  0
   -0.0228   -1.9515    0.5151 H   0  0  0  0  0  0  0  0  0  0  0  0
    1.0026   -0.6010    1.0147 H   0  0  0  0  0  0  0  0  0  0  0  0
   -0.0331   -1.5886    2.6300 C   0  0  0  0  0  0  0  0  0  0  0  0
    0.0130   -0.7402    3.3141 H   0  0  0  0  0  0  0  0  0  0  0  0
   -0.9762   -2.1175    2.7810 H   0  0  0  0  0  0  0  0  0  0  0  0
    1.1353   -2.5388    2.9268 C   0  0  0  0  0  0  0  0  0  0  0  0
    1.0950   -3.3796    2.2302 H   0  0  0  0  0  0  0  0  0  0  0  0
    2.0755   -2.0026    2.7833 H   0  0  0  0  0  0  0  0  0  0  0  0
    1.0503   -3.0588    4.3672 C   0  0  0  0  0  0  0  0  0  0  0  0
    1.0845   -2.2020    5.0480 H   0  0  0  0  0  0  0  0  0  0  0  0
    0.0844   -3.5550    4.5012 H   0  0  0  0  0  0  0  0  0  0  0  0
    2.1568   -4.0000    4.6740 N   0  3  0  0  0  0  0  0  0  0  0  0
    3.0533   -3.5434    4.5619 H   0  0  0  0  0  0  0  0  0  0  0  0
    2.0862   -4.3340    5.6271 H   0  0  0  0  0  0  0  0  0  0  0  0
    2.1244   -4.7994    4.0520 H   0  0  0  0  0  0  0  0  0  0  0  0
   -0.8554    0.5609   -0.5392 C   0  0  0  0  0  0  0  0  0  0  0  0
   -1.6765    1.3607   -0.9722 O   0  0  0  0  0  0  0  0  0  0  0  0
    0.2436    0.2047   -1.2123 N   0  0  0  0  0  0  0  0  0  0  0  0
    0.8804   -0.4356   -0.7678 H   0  0  0  0  0  0  0  0  0  0  0  0
    0.6178    0.7507   -2.5182 C   0  0  0  0  0  0  0  0  0  0  0  0
    0.7824    1.8270   -2.4345 H   0  0  0  0  0  0  0  0  0  0  0  0
    1.5322    0.2794   -2.8803 H   0  0  0  0  0  0  0  0  0  0  0  0
   -0.1851    0.5805   -3.2389 H   0  0  0  0  0  0  0  0  0  0  0  0
  5  6  2  0  0  0  0
  5  7  1  0  0  0  0
  2  3  1  0  0  0  0
  2  4  1  0  0  0  0
  2  5  1  0  0  0  0
  1  2  1  0  0  0  0
 27 28  2  0  0  0  0
 27 29  1  0  0  0  0
 23 24  1  0  0  0  0
 23 25  1  0  0  0  0
 23 26  1  0  0  0  0
 20 21  1  0  0  0  0
 20 22  1  0  0  0  0
 20 23  1  0  0  0  0
 17 18  1  0  0  0  0
 17 19  1  0  0  0  0
 17 20  1  0  0  0  0
 14 15  1  0  0  0  0
 14 16  1  0  0  0  0
 14 17  1  0  0  0  0
 11 12  1  0  0  0  0
 11 13  1  0  0  0  0
 11 14  1  0  0  0  0
  9 10  1  0  0  0  0
  9 11  1  0  0  0  0
  9 27  1  0  0  0  0
  7  8  1  0  0  0  0
  7  9  1  0  0  0  0
 31 32  1  0  0  0  0
 31 33  1  0  0  0  0
 31 34  1  0  0  0  0
 29 30  1  0  0  0  0
 29 31  1  0  0  0  0
M  CHG  1  23   1
M  END
$$$$
default_name
  -OEChem-01062215323D

 34 33  0     1  0  0  0  0  0999 V2000
   -3.8899   -3.6747    1.6490 H   0  0  0  0  0  0  0  0  0  0  0  0
   -3.9109   -2.6717    1.2250 C   0  0  0  0  0  0  0  0  0  0  0  0
   -4.6009   -2.0517    1.7950 H   0  0  0  0  0  0  0  0  0  0  0  0
   -4.2309   -2.7237    0.1860 H   0  0  0  0  0  0  0  0  0  0  0  0
   -2.5229   -2.0787    1.2980 C   0  0  0  0  0  0  0  0  0  0  0  0
   -1.5999   -2.7227    1.7810 O   0  0  0  0  0  0  0  0  0  0  0  0
   -2.3659   -0.8447    0.8120 N   0  0  0  0  0  0  0  0  0  0  0  0
   -3.1749   -0.3807    0.4220 H   0  0  0  0  0  0  0  0  0  0  0  0
   -1.0919   -0.1077    0.8170 C   0  0  1  0  0  0  0  0  0  0  0  0
   -1.1470    0.6662    1.5848 H   0  0  0  0  0  0  0  0  0  0  0  0
    0.0394   -1.0881    1.1793 C   0  0  0  0  0  0  0  0  0  0  0  0
   -0.0228   -1.9515    0.5151 H   0  0  0  0  0  0  0  0  0  0  0  0
    1.0026   -0.6010    1.0147 H   0  0  0  0  0  0  0  0  0  0  0  0
   -0.0331   -1.5886    2.6300 C   0  0  0  0  0  0  0  0  0  0  0  0
    0.0130   -0.7402    3.3141 H   0  0  0  0  0  0  0  0  0  0  0  0
   -0.9762   -2.1175    2.7810 H   0  0  0  0  0  0  0  0  0  0  0  0
    1.1353   -2.5388    2.9268 C   0  0  0  0  0  0  0  0  0  0  0  0
    1.0950   -3.3796    2.2302 H   0  0  0  0  0  0  0  0  0  0  0  0
    2.0755   -2.0026    2.7833 H   0  0  0  0  0  0  0  0  0  0  0  0
    1.0503   -3.0588    4.3672 C   0  0  0  0  0  0  0  0  0  0  0  0
    1.0845   -2.2020    5.0480 H   0  0  0  0  0  0  0  0  0  0  0  0
    0.0844   -3.5550    4.5012 H   0  0  0  0  0  0  0  0  0  0  0  0
    2.1568   -4.0000    4.6740 N   0  3  0  0  0  0  0  0  0  0  0  0
    3.0533   -3.5434    4.5619 H   0  0  0  0  0  0  0  0  0  0  0  0
    2.0862   -4.3340    5.6271 H   0  0  0  0  0  0  0  0  0  0  0  0
    2.1244   -4.7994    4.0520 H   0  0  0  0  0  0  0  0  0  0  0  0
   -0.8554    0.5609   -0.5392 C   0  0  0  0  0  0  0  0  0  0  0  0
   -1.5108    1.5482   -0.8509 O   0  0  0  0  0  0  0  0  0  0  0  0
    0.0515    0.0008   -1.3463 N   0  0  0  0  0  0  0  0  0  0  0  0
    0.5670   -0.7901   -0.9972 H   0  0  0  0  0  0  0  0  0  0  0  0
    0.3982    0.5162   -2.6721 C   0  0  0  0  0  0  0  0  0  0  0  0
    0.8158    1.5211   -2.5795 H   0  0  0  0  0  0  0  0  0  0  0  0
    1.1338   -0.1305   -3.1518 H   0  0  0  0  0  0  0  0  0  0  0  0
   -0.4955    0.5714   -3.2975 H   0  0  0  0  0  0  0  0  0  0  0  0
  5  6  2  0  0  0  0
  5  7  1  0  0  0  0
  2  3  1  0  0  0  0
  2  4  1  0  0  0  0
  2  5  1  0  0  0  0
  1  2  1  0  0  0  0
 27 28  2  0  0  0  0
 27 29  1  0  0  0  0
 23 24  1  0  0  0  0
 23 25  1  0  0  0  0
 23 26  1  0  0  0  0
 20 21  1  0  0  0  0
 20 22  1  0  0  0  0
 20 23  1  0  0  0  0
 17 18  1  0  0  0  0
 17 19  1  0  0  0  0
 17 20  1  0  0  0  0
 14 15  1  0  0  0  0
 14 16  1  0  0  0  0
 14 17  1  0  0  0  0
 11 12  1  0  0  0  0
 11 13  1  0  0  0  0
 11 14  1  0  0  0  0
  9 10  1  0  0  0  0
  9 11  1  0  0  0  0
  9 27  1  0  0  0  0
  7  8  1  0  0  0  0
  7  9  1  0  0  0  0
 31 32  1  0  0  0  0
 31 33  1  0  0  0  0
 31 34  1  0  0  0  0
 29 30  1  0  0  0  0
 29 31  1  0  0  0  0
M  CHG  1  23   1
M  END
$$$$
default_name
  -OEChem-01062215323D

 34 33  0     1  0  0  0  0  0999 V2000
   -3.8899   -3.6747    1.6490 H   0  0  0  0  0  0  0  0  0  0  0  0
   -3.9109   -2.6717    1.2250 C   0  0  0  0  0  0  0  0  0  0  0  0
   -4.6009   -2.0517    1.7950 H   0  0  0  0  0  0  0  0  0  0  0  0
   -4.2309   -2.7237    0.1860 H   0  0  0  0  0  0  0  0  0  0  0  0
   -2.5229   -2.0787    1.2980 C   0  0  0  0  0  0  0  0  0  0  0  0
   -1.5999   -2.7227    1.7810 O   0  0  0  0  0  0  0  0  0  0  0  0
   -2.3659   -0.8447    0.8120 N   0  0  0  0  0  0  0  0  0  0  0  0
   -3.1749   -0.3807    0.4220 H   0  0  0  0  0  0  0  0  0  0  0  0
   -1.0919   -0.1077    0.8170 C   0  0  1  0  0  0  0  0  0  0  0  0
   -1.1470    0.6662    1.5848 H   0  0  0  0  0  0  0  0  0  0  0  0
    0.0394   -1.0881    1.1793 C   0  0  0  0  0  0  0  0  0  0  0  0
   -0.0228   -1.9515    0.5151 H   0  0  0  0  0  0  0  0  0  0  0  0
    1.0026   -0.6010    1.0147 H   0  0  0  0  0  0  0  0  0  0  0  0
   -0.0331   -1.5886    2.6300 C   0  0  0  0  0  0  0  0  0  0  0  0
    0.0130   -0.7402    3.3141 H   0  0  0  0  0  0  0  0  0  0  0  0
   -0.9762   -2.1175    2.7810 H   0  0  0  0  0  0  0  0  0  0  0  0
    1.1353   -2.5388    2.9268 C   0  0  0  0  0  0  0  0  0  0  0  0
    1.0950   -3.3796    2.2302 H   0  0  0  0  0  0  0  0  0  0  0  0
    2.0755   -2.0026    2.7833 H   0  0  0  0  0  0  0  0  0  0  0  0
    1.0503   -3.0588    4.3672 C   0  0  0  0  0  0  0  0  0  0  0  0
    1.0845   -2.2020    5.0480 H   0  0  0  0  0  0  0  0  0  0  0  0
    0.0844   -3.5550    4.5012 H   0  0  0  0  0  0  0  0  0  0  0  0
    2.1568   -4.0000    4.6740 N   0  3  0  0  0  0  0  0  0  0  0  0
    3.0533   -3.5434    4.5619 H   0  0  0  0  0  0  0  0  0  0  0  0
    2.0862   -4.3340    5.6271 H   0  0  0  0  0  0  0  0  0  0  0  0
    2.1244   -4.7994    4.0520 H   0  0  0  0  0  0  0  0  0  0  0  0
   -0.8554    0.5609   -0.5392 C   0  0  0  0  0  0  0  0  0  0  0  0
   -1.2941    1.6863   -0.7450 O   0  0  0  0  0  0  0  0  0  0  0  0
   -0.1958   -0.1467   -1.4622 N   0  0  0  0  0  0  0  0  0  0  0  0
    0.1571   -1.0514   -1.1976 H   0  0  0  0  0  0  0  0  0  0  0  0
    0.1150    0.3462   -2.8053 C   0  0  0  0  0  0  0  0  0  0  0  0
    0.7615    1.2237   -2.7356 H   0  0  0  0  0  0  0  0  0  0  0  0
    0.6243   -0.4241   -3.3855 H   0  0  0  0  0  0  0  0  0  0  0  0
   -0.8040    0.6361   -3.3194 H   0  0  0  0  0  0  0  0  0  0  0  0
  5  6  2  0  0  0  0
  5  7  1  0  0  0  0
  2  3  1  0  0  0  0
  2  4  1  0  0  0  0
  2  5  1  0  0  0  0
  1  2  1  0  0  0  0
 27 28  2  0  0  0  0
 27 29  1  0  0  0  0
 23 24  1  0  0  0  0
 23 25  1  0  0  0  0
 23 26  1  0  0  0  0
 20 21  1  0  0  0  0
 20 22  1  0  0  0  0
 20 23  1  0  0  0  0
 17 18  1  0  0  0  0
 17 19  1  0  0  0  0
 17 20  1  0  0  0  0
 14 15  1  0  0  0  0
 14 16  1  0  0  0  0
 14 17  1  0  0  0  0
 11 12  1  0  0  0  0
 11 13  1  0  0  0  0
 11 14  1  0  0  0  0
  9 10  1  0  0  0  0
  9 11  1  0  0  0  0
  9 27  1  0  0  0  0
  7  8  1  0  0  0  0
  7  9  1  0  0  0  0
 31 32  1  0  0  0  0
 31 33  1  0  0  0  0
 31 34  1  0  0  0  0
 29 30  1  0  0  0  0
 29 31  1  0  0  0  0
M  CHG  1  23   1
M  END
$$$$
default_name
  -OEChem-01062215323D

 34 33  0     1  0  0  0  0  0999 V2000
   -3.8899   -3.6747    1.6490 H   0  0  0  0  0  0  0  0  0  0  0  0
   -3.9109   -2.6717    1.2250 C   0  0  0  0  0  0  0  0  0  0  0  0
   -4.6009   -2.0517    1.7950 H   0  0  0  0  0  0  0  0  0  0  0  0
   -4.2309   -2.7237    0.1860 H   0  0  0  0  0  0  0  0  0  0  0  0
   -2.5229   -2.0787    1.2980 C   0  0  0  0  0  0  0  0  0  0  0  0
   -1.5999   -2.7227    1.7810 O   0  0  0  0  0  0  0  0  0  0  0  0
   -2.3659   -0.8447    0.8120 N   0  0  0  0  0  0  0  0  0  0  0  0
   -3.1749   -0.3807    0.4220 H   0  0  0  0  0  0  0  0  0  0  0  0
   -1.0919   -0.1077    0.8170 C   0  0  1  0  0  0  0  0  0  0  0  0
   -1.1470    0.6662    1.5848 H   0  0  0  0  0  0  0  0  0  0  0  0
    0.0394   -1.0881    1.1793 C   0  0  0  0  0  0  0  0  0  0  0  0
   -0.0228   -1.9515    0.5151 H   0  0  0  0  0  0  0  0  0  0  0  0
    1.0026   -0.6010    1.0147 H   0  0  0  0  0  0  0  0  0  0  0  0
   -0.0331   -1.5886    2.6300 C   0  0  0  0  0  0  0  0  0  0  0  0
    0.0130   -0.7402    3.3141 H   0  0  0  0  0  0  0  0  0  0  0  0
   -0.9762   -2.1175    2.7810 H   0  0  0  0  0  0  0  0  0  0  0  0
    1.1353   -2.5388    2.9268 C   0  0  0  0  0  0  0  0  0  0  0  0
    1.0950   -3.3796    2.2302 H   0  0  0  0  0  0  0  0  0  0  0  0
    2.0755   -2.0026    2.7833 H   0  0  0  0  0  0  0  0  0  0  0  0
    1.0503   -3.0588    4.3672 C   0  0  0  0  0  0  0  0  0  0  0  0
    1.0845   -2.2020    5.0480 H   0  0  0  0  0  0  0  0  0  0  0  0
    0.0844   -3.5550    4.5012 H   0  0  0  0  0  0  0  0  0  0  0  0
    2.1568   -4.0000    4.6740 N   0  3  0  0  0  0  0  0  0  0  0  0
    3.0533   -3.5434    4.5619 H   0  0  0  0  0  0  0  0  0  0  0  0
    2.0862   -4.3340    5.6271 H   0  0  0  0  0  0  0  0  0  0  0  0
    2.1244   -4.7994    4.0520 H   0  0  0  0  0  0  0  0  0  0  0  0
   -0.8554    0.5609   -0.5392 C   0  0  0  0  0  0  0  0  0  0  0  0
   -1.0411    1.7659   -0.6617 O   0  0  0  0  0  0  0  0  0  0  0  0
   -0.4817   -0.2279   -1.5521 N   0  0  0  0  0  0  0  0  0  0  0  0
   -0.3214   -1.2018   -1.3552 H   0  0  0  0  0  0  0  0  0  0  0  0
   -0.2126    0.2524   -2.9087 C   0  0  0  0  0  0  0  0  0  0  0  0
    0.6232    0.9551   -2.8921 H   0  0  0  0  0  0  0  0  0  0  0  0
    0.0384   -0.5815   -3.5653 H   0  0  0  0  0  0  0  0  0  0  0  0
   -1.0897    0.7702   -3.3031 H   0  0  0  0  0  0  0  0  0  0  0  0
  5  6  2  0  0  0  0
  5  7  1  0  0  0  0
  2  3  1  0  0  0  0
  2  4  1  0  0  0  0
  2  5  1  0  0  0  0
  1  2  1  0  0  0  0
 27 28  2  0  0  0  0
 27 29  1  0  0  0  0
 23 24  1  0  0  0  0
 23 25  1  0  0  0  0
 23 26  1  0  0  0  0
 20 21  1  0  0  0  0
 20 22  1  0  0  0  0
 20 23  1  0  0  0  0
 17 18  1  0  0  0  0
 17 19  1  0  0  0  0
 17 20  1  0  0  0  0
 14 15  1  0  0  0  0
 14 16  1  0  0  0  0
 14 17  1  0  0  0  0
 11 12  1  0  0  0  0
 11 13  1  0  0  0  0
 11 14  1  0  0  0  0
  9 10  1  0  0  0  0
  9 11  1  0  0  0  0
  9 27  1  0  0  0  0
  7  8  1  0  0  0  0
  7  9  1  0  0  0  0
 31 32  1  0  0  0  0
 31 33  1  0  0  0  0
 31 34  1  0  0  0  0
 29 30  1  0  0  0  0
 29 31  1  0  0  0  0
M  CHG  1  23   1
M  END
$$$$
default_name
  -OEChem-01062215323D

 34 33  0     1  0  0  0  0  0999 V2000
   -3.8899   -3.6747    1.6490 H   0  0  0  0  0  0  0  0  0  0  0  0
   -3.9109   -2.6717    1.2250 C   0  0  0  0  0  0  0  0  0  0  0  0
   -4.6009   -2.0517    1.7950 H   0  0  0  0  0  0  0  0  0  0  0  0
   -4.2309   -2.7237    0.1860 H   0  0  0  0  0  0  0  0  0  0  0  0
   -2.5229   -2.0787    1.2980 C   0  0  0  0  0  0  0  0  0  0  0  0
   -1.5999   -2.7227    1.7810 O   0  0  0  0  0  0  0  0  0  0  0  0
   -2.3659   -0.8447    0.8120 N   0  0  0  0  0  0  0  0  0  0  0  0
   -3.1749   -0.3807    0.4220 H   0  0  0  0  0  0  0  0  0  0  0  0
   -1.0919   -0.1077    0.8170 C   0  0  1  0  0  0  0  0  0  0  0  0
   -1.1470    0.6662    1.5848 H   0  0  0  0  0  0  0  0  0  0  0  0
    0.0394   -1.0881    1.1793 C   0  0  0  0  0  0  0  0  0  0  0  0
   -0.0228   -1.9515    0.5151 H   0  0  0  0  0  0  0  0  0  0  0  0
    1.0026   -0.6010    1.0147 H   0  0  0  0  0  0  0  0  0  0  0  0
   -0.0331   -1.5886    2.6300 C   0  0  0  0  0  0  0  0  0  0  0  0
    0.0130   -0.7402    3.3141 H   0  0  0  0  0  0  0  0  0  0  0  0
   -0.9762   -2.1175    2.7810 H   0  0  0  0  0  0  0  0  0  0  0  0
    1.1353   -2.5388    2.9268 C   0  0  0  0  0  0  0  0  0  0  0  0
    1.0950   -3.3796    2.2302 H   0  0  0  0  0  0  0  0  0  0  0  0
    2.0755   -2.0026    2.7833 H   0  0  0  0  0  0  0  0  0  0  0  0
    1.0503   -3.0588    4.3672 C   0  0  0  0  0  0  0  0  0  0  0  0
    1.0845   -2.2020    5.0480 H   0  0  0  0  0  0  0  0  0  0  0  0
    0.0844   -3.5550    4.5012 H   0  0  0  0  0  0  0  0  0  0  0  0
    2.1568   -4.0000    4.6740 N   0  3  0  0  0  0  0  0  0  0  0  0
    3.0533   -3.5434    4.5619 H   0  0  0  0  0  0  0  0  0  0  0  0
    2.0862   -4.3340    5.6271 H   0  0  0  0  0  0  0  0  0  0  0  0
    2.1244   -4.7994    4.0520 H   0  0  0  0  0  0  0  0  0  0  0  0
   -0.8554    0.5609   -0.5392 C   0  0  0  0  0  0  0  0  0  0  0  0
   -0.7691    1.7813   -0.6066 O   0  0  0  0  0  0  0  0  0  0  0  0
   -0.7867   -0.2371   -1.6098 N   0  0  0  0  0  0  0  0  0  0  0  0
   -0.8360   -1.2311   -1.4593 H   0  0  0  0  0  0  0  0  0  0  0  0
   -0.5623    0.2410   -2.9753 C   0  0  0  0  0  0  0  0  0  0  0  0
    0.4103    0.7337   -3.0384 H   0  0  0  0  0  0  0  0  0  0  0  0
   -0.5840   -0.5920   -3.6790 H   0  0  0  0  0  0  0  0  0  0  0  0
   -1.3330    0.9646   -3.2497 H   0  0  0  0  0  0  0  0  0  0  0  0
  5  6  2  0  0  0  0
  5  7  1  0  0  0  0
  2  3  1  0  0  0  0
  2  4  1  0  0  0  0
  2  5  1  0  0  0  0
  1  2  1  0  0  0  0
 27 28  2  0  0  0  0
 27 29  1  0  0  0  0
 23 24  1  0  0  0  0
 23 25  1  0  0  0  0
 23 26  1  0  0  0  0
 20 21  1  0  0  0  0
 20 22  1  0  0  0  0
 20 23  1  0  0  0  0
 17 18  1  0  0  0  0
 17 19  1  0  0  0  0
 17 20  1  0  0  0  0
 14 15  1  0  0  0  0
 14 16  1  0  0  0  0
 14 17  1  0  0  0  0
 11 12  1  0  0  0  0
 11 13  1  0  0  0  0
 11 14  1  0  0  0  0
  9 10  1  0  0  0  0
  9 11  1  0  0  0  0
  9 27  1  0  0  0  0
  7  8  1  0  0  0  0
  7  9  1  0  0  0  0
 31 32  1  0  0  0  0
 31 33  1  0  0  0  0
 31 34  1  0  0  0  0
 29 30  1  0  0  0  0
 29 31  1  0  0  0  0
M  CHG  1  23   1
M  END
$$$$
default_name
  -OEChem-01062215323D

 34 33  0     1  0  0  0  0  0999 V2000
   -3.8899   -3.6747    1.6490 H   0  0  0  0  0  0  0  0  0  0  0  0
   -3.9109   -2.6717    1.2250 C   0  0  0  0  0  0  0  0  0  0  0  0
   -4.6009   -2.0517    1.7950 H   0  0  0  0  0  0  0  0  0  0  0  0
   -4.2309   -2.7237    0.1860 H   0  0  0  0  0  0  0  0  0  0  0  0
   -2.5229   -2.0787    1.2980 C   0  0  0  0  0  0  0  0  0  0  0  0
   -1.5999   -2.7227    1.7810 O   0  0  0  0  0  0  0  0  0  0  0  0
   -2.3659   -0.8447    0.8120 N   0  0  0  0  0  0  0  0  0  0  0  0
   -3.1749   -0.3807    0.4220 H   0  0  0  0  0  0  0  0  0  0  0  0
   -1.0919   -0.1077    0.8170 C   0  0  1  0  0  0  0  0  0  0  0  0
   -1.1470    0.6662    1.5848 H   0  0  0  0  0  0  0  0  0  0  0  0
    0.0394   -1.0881    1.1793 C   0  0  0  0  0  0  0  0  0  0  0  0
   -0.0228   -1.9515    0.5151 H   0  0  0  0  0  0  0  0  0  0  0  0
    1.0026   -0.6010    1.0147 H   0  0  0  0  0  0  0  0  0  0  0  0
   -0.0331   -1.5886    2.6300 C   0  0  0  0  0  0  0  0  0  0  0  0
    0.0130   -0.7402    3.3141 H   0  0  0  0  0  0  0  0  0  0  0  0
   -0.9762   -2.1175    2.7810 H   0  0  0  0  0  0  0  0  0  0  0  0
    1.1353   -2.5388    2.9268 C   0  0  0  0  0  0  0  0  0  0  0  0
    1.0950   -3.3796    2.2302 H   0  0  0  0  0  0  0  0  0  0  0  0
    2.0755   -2.0026    2.7833 H   0  0  0  0  0  0  0  0  0  0  0  0
    1.0503   -3.0588    4.3672 C   0  0  0  0  0  0  0  0  0  0  0  0
    1.0845   -2.2020    5.0480 H   0  0  0  0  0  0  0  0  0  0  0  0
    0.0844   -3.5550    4.5012 H   0  0  0  0  0  0  0  0  0  0  0  0
    2.1568   -4.0000    4.6740 N   0  3  0  0  0  0  0  0  0  0  0  0
    3.0533   -3.5434    4.5619 H   0  0  0  0  0  0  0  0  0  0  0  0
    2.0862   -4.3340    5.6271 H   0  0  0  0  0  0  0  0  0  0  0  0
    2.1244   -4.7994    4.0520 H   0  0  0  0  0  0  0  0  0  0  0  0
   -0.8554    0.5609   -0.5392 C   0  0  0  0  0  0  0  0  0  0  0  0
   -0.4965    1.7317   -0.5836 O   0  0  0  0  0  0  0  0  0  0  0  0
   -1.0899   -0.1737   -1.6315 N   0  0  0  0  0  0  0  0  0  0  0  0
   -1.3515   -1.1371   -1.5029 H   0  0  0  0  0  0  0  0  0  0  0  0
   -0.9103    0.3128   -3.0006 C   0  0  0  0  0  0  0  0  0  0  0  0
    0.1373    0.5745   -3.1645 H   0  0  0  0  0  0  0  0  0  0  0  0
   -1.2005   -0.4548   -3.7189 H   0  0  0  0  0  0  0  0  0  0  0  0
   -1.5174    1.2061   -3.1628 H   0  0  0  0  0  0  0  0  0  0  0  0
  5  6  2  0  0  0  0
  5  7  1  0  0  0  0
  2  3  1  0  0  0  0
  2  4  1  0  0  0  0
  2  5  1  0  0  0  0
  1  2  1  0  0  0  0
 27 28  2  0  0  0  0
 27 29  1  0  0  0  0
 23 24  1  0  0  0  0
 23 25  1  0  0  0  0
 23 26  1  0  0  0  0
 20 21  1  0  0  0  0
 20 22  1  0  0  0  0
 20 23  1  0  0  0  0
 17 18  1  0  0  0  0
 17 19  1  0  0  0  0
 17 20  1  0  0  0  0
 14 15  1  0  0  0  0
 14 16  1  0  0  0  0
 14 17  1  0  0  0  0
 11 12  1  0  0  0  0
 11 13  1  0  0  0  0
 11 14  1  0  0  0  0
  9 10  1  0  0  0  0
  9 11  1  0  0  0  0
  9 27  1  0  0  0  0
  7  8  1  0  0  0  0
  7  9  1  0  0  0  0
 31 32  1  0  0  0  0
 31 33  1  0  0  0  0
 31 34  1  0  0  0  0
 29 30  1  0  0  0  0
 29 31  1  0  0  0  0
M  CHG  1  23   1
M  END
$$$$
default_name
  -OEChem-01062215323D

 34 33  0     1  0  0  0  0  0999 V2000
   -3.8899   -3.6747    1.6490 H   0  0  0  0  0  0  0  0  0  0  0  0
   -3.9109   -2.6717    1.2250 C   0  0  0  0  0  0  0  0  0  0  0  0
   -4.6009   -2.0517    1.7950 H   0  0  0  0  0  0  0  0  0  0  0  0
   -4.2309   -2.7237    0.1860 H   0  0  0  0  0  0  0  0  0  0  0  0
   -2.5229   -2.0787    1.2980 C   0  0  0  0  0  0  0  0  0  0  0  0
   -1.5999   -2.7227    1.7810 O   0  0  0  0  0  0  0  0  0  0  0  0
   -2.3659   -0.8447    0.8120 N   0  0  0  0  0  0  0  0  0  0  0  0
   -3.1749   -0.3807    0.4220 H   0  0  0  0  0  0  0  0  0  0  0  0
   -1.0919   -0.1077    0.8170 C   0  0  1  0  0  0  0  0  0  0  0  0
   -1.1470    0.6662    1.5848 H   0  0  0  0  0  0  0  0  0  0  0  0
    0.0394   -1.0881    1.1793 C   0  0  0  0  0  0  0  0  0  0  0  0
   -0.0228   -1.9515    0.5151 H   0  0  0  0  0  0  0  0  0  0  0  0
    1.0026   -0.6010    1.0147 H   0  0  0  0  0  0  0  0  0  0  0  0
   -0.0331   -1.5886    2.6300 C   0  0  0  0  0  0  0  0  0  0  0  0
    0.0130   -0.7402    3.3141 H   0  0  0  0  0  0  0  0  0  0  0  0
   -0.9762   -2.1175    2.7810 H   0  0  0  0  0  0  0  0  0  0  0  0
    1.1353   -2.5388    2.9268 C   0  0  0  0  0  0  0  0  0  0  0  0
    1.0950   -3.3796    2.2302 H   0  0  0  0  0  0  0  0  0  0  0  0
    2.0755   -2.0026    2.7833 H   0  0  0  0  0  0  0  0  0  0  0  0
    1.0503   -3.0588    4.3672 C   0  0  0  0  0  0  0  0  0  0  0  0
    1.0845   -2.2020    5.0480 H   0  0  0  0  0  0  0  0  0  0  0  0
    0.0844   -3.5550    4.5012 H   0  0  0  0  0  0  0  0  0  0  0  0
    2.1568   -4.0000    4.6740 N   0  3  0  0  0  0  0  0  0  0  0  0
    3.0533   -3.5434    4.5619 H   0  0  0  0  0  0  0  0  0  0  0  0
    2.0862   -4.3340    5.6271 H   0  0  0  0  0  0  0  0  0  0  0  0
    2.1244   -4.7994    4.0520 H   0  0  0  0  0  0  0  0  0  0  0  0
   -0.8554    0.5609   -0.5392 C   0  0  0  0  0  0  0  0  0  0  0  0
   -0.2421    1.6202   -0.5941 O   0  0  0  0  0  0  0  0  0  0  0  0
   -1.3706   -0.0421   -1.6156 N   0  0  0  0  0  0  0  0  0  0  0  0
   -1.8328   -0.9264   -1.4830 H   0  0  0  0  0  0  0  0  0  0  0  0
   -1.2327    0.4630   -2.9828 C   0  0  0  0  0  0  0  0  0  0  0  0
   -0.1771    0.4883   -3.2618 H   0  0  0  0  0  0  0  0  0  0  0  0
   -1.7689   -0.1793   -3.6822 H   0  0  0  0  0  0  0  0  0  0  0  0
   -1.6303    1.4782   -3.0484 H   0  0  0  0  0  0  0  0  0  0  0  0
  5  6  2  0  0  0  0
  5  7  1  0  0  0  0
  2  3  1  0  0  0  0
  2  4  1  0  0  0  0
  2  5  1  0  0  0  0
  1  2  1  0  0  0  0
 27 28  2  0  0  0  0
 27 29  1  0  0  0  0
 23 24  1  0  0  0  0
 23 25  1  0  0  0  0
 23 26  1  0  0  0  0
 20 21  1  0  0  0  0
 20 22  1  0  0  0  0
 20 23  1  0  0  0  0
 17 18  1  0  0  0  0
 17 19  1  0  0  0  0
 17 20  1  0  0  0  0
 14 15  1  0  0  0  0
 14 16  1  0  0  0  0
 14 17  1  0  0  0  0
 11 12  1  0  0  0  0
 11 13  1  0  0  0  0
 11 14  1  0  0  0  0
  9 10  1  0  0  0  0
  9 11  1  0  0  0  0
  9 27  1  0  0  0  0
  7  8  1  0  0  0  0
  7  9  1  0  0  0  0
 31 32  1  0  0  0  0
 31 33  1  0  0  0  0
 31 34  1  0  0  0  0
 29 30  1  0  0  0  0
 29 31  1  0  0  0  0
M  CHG  1  23   1
M  END
$$$$
default_name
  -OEChem-01062215323D

 34 33  0     1  0  0  0  0  0999 V2000
   -3.8899   -3.6747    1.6490 H   0  0  0  0  0  0  0  0  0  0  0  0
   -3.9109   -2.6717    1.2250 C   0  0  0  0  0  0  0  0  0  0  0  0
   -4.6009   -2.0517    1.7950 H   0  0  0  0  0  0  0  0  0  0  0  0
   -4.2309   -2.7237    0.1860 H   0  0  0  0  0  0  0  0  0  0  0  0
   -2.5229   -2.0787    1.2980 C   0  0  0  0  0  0  0  0  0  0  0  0
   -1.5999   -2.7227    1.7810 O   0  0  0  0  0  0  0  0  0  0  0  0
   -2.3659   -0.8447    0.8120 N   0  0  0  0  0  0  0  0  0  0  0  0
   -3.1749   -0.3807    0.4220 H   0  0  0  0  0  0  0  0  0  0  0  0
   -1.0919   -0.1077    0.8170 C   0  0  1  0  0  0  0  0  0  0  0  0
   -1.1470    0.6662    1.5848 H   0  0  0  0  0  0  0  0  0  0  0  0
    0.0394   -1.0881    1.1793 C   0  0  0  0  0  0  0  0  0  0  0  0
   -0.0228   -1.9515    0.5151 H   0  0  0  0  0  0  0  0  0  0  0  0
    1.0026   -0.6010    1.0147 H   0  0  0  0  0  0  0  0  0  0  0  0
   -0.0331   -1.5886    2.6300 C   0  0  0  0  0  0  0  0  0  0  0  0
    0.0130   -0.7402    3.3141 H   0  0  0  0  0  0  0  0  0  0  0  0
   -0.9762   -2.1175    2.7810 H   0  0  0  0  0  0  0  0  0  0  0  0
    1.1353   -2.5388    2.9268 C   0  0  0  0  0  0  0  0  0  0  0  0
    1.0950   -3.3796    2.2302 H   0  0  0  0  0  0  0  0  0  0  0  0
    2.0755   -2.0026    2.7833 H   0  0  0  0  0  0  0  0  0  0  0  0
    1.0503   -3.0588    4.3672 C   0  0  0  0  0  0  0  0  0  0  0  0
    1.0845   -2.2020    5.0480 H   0  0  0  0  0  0  0  0  0  0  0  0
    0.0844   -3.5550    4.5012 H   0  0  0  0  0  0  0  0  0  0  0  0
    2.1568   -4.0000    4.6740 N   0  3  0  0  0  0  0  0  0  0  0  0
    3.0533   -3.5434    4.5619 H   0  0  0  0  0  0  0  0  0  0  0  0
    2.0862   -4.3340    5.6271 H   0  0  0  0  0  0  0  0  0  0  0  0
    2.1244   -4.7994    4.0520 H   0  0  0  0  0  0  0  0  0  0  0  0
   -0.8554    0.5609   -0.5392 C   0  0  0  0  0  0  0  0  0  0  0  0
   -0.0230    1.4547   -0.6375 O   0  0  0  0  0  0  0  0  0  0  0  0
   -1.6099    0.1487   -1.5632 N   0  0  0  0  0  0  0  0  0  0  0  0
   -2.2471   -0.6133   -1.4009 H   0  0  0  0  0  0  0  0  0  0  0  0
   -1.5077    0.6814   -2.9231 C   0  0  0  0  0  0  0  0  0  0  0  0
   -0.5116    0.4812   -3.3236 H   0  0  0  0  0  0  0  0  0  0  0  0
   -2.2507    0.2157   -3.5715 H   0  0  0  0  0  0  0  0  0  0  0  0
   -1.6640    1.7623   -2.9142 H   0  0  0  0  0  0  0  0  0  0  0  0
  5  6  2  0  0  0  0
  5  7  1  0  0  0  0
  2  3  1  0  0  0  0
  2  4  1  0  0  0  0
  2  5  1  0  0  0  0
  1  2  1  0  0  0  0
 27 28  2  0  0  0  0
 27 29  1  0  0  0  0
 23 24  1  0  0  0  0
 23 25  1  0  0  0  0
 23 26  1  0  0  0  0
 20 21  1  0  0  0  0
 20 22  1  0  0  0  0
 20 23  1  0  0  0  0
 17 18  1  0  0  0  0
 17 19  1  0  0  0  0
 17 20  1  0  0  0  0
 14 15  1  0  0  0  0
 14 16  1  0  0  0  0
 14 17  1  0  0  0  0
 11 12  1  0  0  0  0
 11 13  1  0  0  0  0
 11 14  1  0  0  0  0
  9 10  1  0  0  0  0
  9 11  1  0  0  0  0
  9 27  1  0  0  0  0
  7  8  1  0  0  0  0
  7  9  1  0  0  0  0
 31 32  1  0  0  0  0
 31 33  1  0  0  0  0
 31 34  1  0  0  0  0
 29 30  1  0  0  0  0
 29 31  1  0  0  0  0
M  CHG  1  23   1
M  END
$$$$
default_name
  -OEChem-01062215323D

 34 33  0     1  0  0  0  0  0999 V2000
   -3.8899   -3.6747    1.6490 H   0  0  0  0  0  0  0  0  0  0  0  0
   -3.9109   -2.6717    1.2250 C   0  0  0  0  0  0  0  0  0  0  0  0
   -4.6009   -2.0517    1.7950 H   0  0  0  0  0  0  0  0  0  0  0  0
   -4.2309   -2.7237    0.1860 H   0  0  0  0  0  0  0  0  0  0  0  0
   -2.5229   -2.0787    1.2980 C   0  0  0  0  0  0  0  0  0  0  0  0
   -1.5999   -2.7227    1.7810 O   0  0  0  0  0  0  0  0  0  0  0  0
   -2.3659   -0.8447    0.8120 N   0  0  0  0  0  0  0  0  0  0  0  0
   -3.1749   -0.3807    0.4220 H   0  0  0  0  0  0  0  0  0  0  0  0
   -1.0919   -0.1077    0.8170 C   0  0  1  0  0  0  0  0  0  0  0  0
   -1.1470    0.6662    1.5848 H   0  0  0  0  0  0  0  0  0  0  0  0
    0.0394   -1.0881    1.1793 C   0  0  0  0  0  0  0  0  0  0  0  0
   -0.0228   -1.9515    0.5151 H   0  0  0  0  0  0  0  0  0  0  0  0
    1.0026   -0.6010    1.0147 H   0  0  0  0  0  0  0  0  0  0  0  0
   -0.0331   -1.5886    2.6300 C   0  0  0  0  0  0  0  0  0  0  0  0
    0.0130   -0.7402    3.3141 H   0  0  0  0  0  0  0  0  0  0  0  0
   -0.9762   -2.1175    2.7810 H   0  0  0  0  0  0  0  0  0  0  0  0
    1.1353   -2.5388    2.9268 C   0  0  0  0  0  0  0  0  0  0  0  0
    1.0950   -3.3796    2.2302 H   0  0  0  0  0  0  0  0  0  0  0  0
    2.0755   -2.0026    2.7833 H   0  0  0  0  0  0  0  0  0  0  0  0
    1.0503   -3.0588    4.3672 C   0  0  0  0  0  0  0  0  0  0  0  0
    1.0845   -2.2020    5.0480 H   0  0  0  0  0  0  0  0  0  0  0  0
    0.0844   -3.5550    4.5012 H   0  0  0  0  0  0  0  0  0  0  0  0
    2.1568   -4.0000    4.6740 N   0  3  0  0  0  0  0  0  0  0  0  0
    3.0533   -3.5434    4.5619 H   0  0  0  0  0  0  0  0  0  0  0  0
    2.0862   -4.3340    5.6271 H   0  0  0  0  0  0  0  0  0  0  0  0
    2.1244   -4.7994    4.0520 H   0  0  0  0  0  0  0  0  0  0  0  0
   -0.8554    0.5609   -0.5392 C   0  0  0  0  0  0  0  0  0  0  0  0
    0.1457    1.2463   -0.7108 O   0  0  0  0  0  0  0  0  0  0  0  0
   -1.7913    0.3859   -1.4779 N   0  0  0  0  0  0  0  0  0  0  0  0
   -2.5663   -0.2191   -1.2622 H   0  0  0  0  0  0  0  0  0  0  0  0
   -1.7165    0.9530   -2.8256 C   0  0  0  0  0  0  0  0  0  0  0  0
   -0.8434    0.5534   -3.3459 H   0  0  0  0  0  0  0  0  0  0  0  0
   -2.6130    0.7033   -3.3943 H   0  0  0  0  0  0  0  0  0  0  0  0
   -1.6162    2.0391   -2.7694 H   0  0  0  0  0  0  0  0  0  0  0  0
  5  6  2  0  0  0  0
  5  7  1  0  0  0  0
  2  3  1  0  0  0  0
  2  4  1  0  0  0  0
  2  5  1  0  0  0  0
  1  2  1  0  0  0  0
 27 28  2  0  0  0  0
 27 29  1  0  0  0  0
 23 24  1  0  0  0  0
 23 25  1  0  0  0  0
 23 26  1  0  0  0  0
 20 21  1  0  0  0  0
 20 22  1  0  0  0  0
 20 23  1  0  0  0  0
 17 18  1  0  0  0  0
 17 19  1  0  0  0  0
 17 20  1  0  0  0  0
 14 15  1  0  0  0  0
 14 16  1  0  0  0  0
 14 17  1  0  0  0  0
 11 12  1  0  0  0  0
 11 13  1  0  0  0  0
 11 14  1  0  0  0  0
  9 10  1  0  0  0  0
  9 11  1  0  0  0  0
  9 27  1  0  0  0  0
  7  8  1  0  0  0  0
  7  9  1  0  0  0  0
 31 32  1  0  0  0  0
 31 33  1  0  0  0  0
 31 34  1  0  0  0  0
 29 30  1  0  0  0  0
 29 31  1  0  0  0  0
M  CHG  1  23   1
M  END
$$$$
default_name
  -OEChem-01062215323D

 34 33  0     1  0  0  0  0  0999 V2000
   -3.8899   -3.6747    1.6490 H   0  0  0  0  0  0  0  0  0  0  0  0
   -3.9109   -2.6717    1.2250 C   0  0  0  0  0  0  0  0  0  0  0  0
   -4.6009   -2.0517    1.7950 H   0  0  0  0  0  0  0  0  0  0  0  0
   -4.2309   -2.7237    0.1860 H   0  0  0  0  0  0  0  0  0  0  0  0
   -2.5229   -2.0787    1.2980 C   0  0  0  0  0  0  0  0  0  0  0  0
   -1.5999   -2.7227    1.7810 O   0  0  0  0  0  0  0  0  0  0  0  0
   -2.3659   -0.8447    0.8120 N   0  0  0  0  0  0  0  0  0  0  0  0
   -3.1749   -0.3807    0.4220 H   0  0  0  0  0  0  0  0  0  0  0  0
   -1.0919   -0.1077    0.8170 C   0  0  1  0  0  0  0  0  0  0  0  0
   -1.1470    0.6662    1.5848 H   0  0  0  0  0  0  0  0  0  0  0  0
    0.0394   -1.0881    1.1793 C   0  0  0  0  0  0  0  0  0  0  0  0
   -0.0228   -1.9515    0.5151 H   0  0  0  0  0  0  0  0  0  0  0  0
    1.0026   -0.6010    1.0147 H   0  0  0  0  0  0  0  0  0  0  0  0
   -0.0331   -1.5886    2.6300 C   0  0  0  0  0  0  0  0  0  0  0  0
    0.0130   -0.7402    3.3141 H   0  0  0  0  0  0  0  0  0  0  0  0
   -0.9762   -2.1175    2.7810 H   0  0  0  0  0  0  0  0  0  0  0  0
    1.1353   -2.5388    2.9268 C   0  0  0  0  0  0  0  0  0  0  0  0
    1.0950   -3.3796    2.2302 H   0  0  0  0  0  0  0  0  0  0  0  0
    2.0755   -2.0026    2.7833 H   0  0  0  0  0  0  0  0  0  0  0  0
    1.0503   -3.0588    4.3672 C   0  0  0  0  0  0  0  0  0  0  0  0
    1.0845   -2.2020    5.0480 H   0  0  0  0  0  0  0  0  0  0  0  0
    0.0844   -3.5550    4.5012 H   0  0  0  0  0  0  0  0  0  0  0  0
    2.1568   -4.0000    4.6740 N   0  3  0  0  0  0  0  0  0  0  0  0
    3.0533   -3.5434    4.5619 H   0  0  0  0  0  0  0  0  0  0  0  0
    2.0862   -4.3340    5.6271 H   0  0  0  0  0  0  0  0  0  0  0  0
    2.1244   -4.7994    4.0520 H   0  0  0  0  0  0  0  0  0  0  0  0
   -0.8554    0.5609   -0.5392 C   0  0  0  0  0  0  0  0  0  0  0  0
    0.2526    1.0092   -0.8091 O   0  0  0  0  0  0  0  0  0  0  0  0
   -1.9024    0.6531   -1.3656 N   0  0  0  0  0  0  0  0  0  0  0  0
   -2.7684    0.2293   -1.0764 H   0  0  0  0  0  0  0  0  0  0  0  0
   -1.8449    1.2593   -2.6970 C   0  0  0  0  0  0  0  0  0  0  0  0
   -1.1497    0.7002   -3.3270 H   0  0  0  0  0  0  0  0  0  0  0  0
   -2.8310    1.2503   -3.1627 H   0  0  0  0  0  0  0  0  0  0  0  0
   -1.4903    2.2897   -2.6239 H   0  0  0  0  0  0  0  0  0  0  0  0
  5  6  2  0  0  0  0
  5  7  1  0  0  0  0
  2  3  1  0  0  0  0
  2  4  1  0  0  0  0
  2  5  1  0  0  0  0
  1  2  1  0  0  0  0
 27 28  2  0  0  0  0
 27 29  1  0  0  0  0
 23 24  1  0  0  0  0
 23 25  1  0  0  0  0
 23 26  1  0  0  0  0
 20 21  1  0  0  0  0
 20 22  1  0  0  0  0
 20 23  1  0  0  0  0
 17 18  1  0  0  0  0
 17 19  1  0  0  0  0
 17 20  1  0  0  0  0
 14 15  1  0  0  0  0
 14 16  1  0  0  0  0
 14 17  1  0  0  0  0
 11 12  1  0  0  0  0
 11 13  1  0  0  0  0
 11 14  1  0  0  0  0
  9 10  1  0  0  0  0
  9 11  1  0  0  0  0
  9 27  1  0  0  0  0
  7  8  1  0  0  0  0
  7  9  1  0  0  0  0
 31 32  1  0  0  0  0
 31 33  1  0  0  0  0
 31 34  1  0  0  0  0
 29 30  1  0  0  0  0
 29 31  1  0  0  0  0
M  CHG  1  23   1
M  END
$$$$
default_name
  -OEChem-01062215323D

 34 33  0     1  0  0  0  0  0999 V2000
   -3.8899   -3.6747    1.6490 H   0  0  0  0  0  0  0  0  0  0  0  0
   -3.9109   -2.6717    1.2250 C   0  0  0  0  0  0  0  0  0  0  0  0
   -4.6009   -2.0517    1.7950 H   0  0  0  0  0  0  0  0  0  0  0  0
   -4.2309   -2.7237    0.1860 H   0  0  0  0  0  0  0  0  0  0  0  0
   -2.5229   -2.0787    1.2980 C   0  0  0  0  0  0  0  0  0  0  0  0
   -1.5999   -2.7227    1.7810 O   0  0  0  0  0  0  0  0  0  0  0  0
   -2.3659   -0.8447    0.8120 N   0  0  0  0  0  0  0  0  0  0  0  0
   -3.1749   -0.3807    0.4220 H   0  0  0  0  0  0  0  0  0  0  0  0
   -1.0919   -0.1077    0.8170 C   0  0  1  0  0  0  0  0  0  0  0  0
   -1.1470    0.6662    1.5848 H   0  0  0  0  0  0  0  0  0  0  0  0
    0.0394   -1.0881    1.1793 C   0  0  0  0  0  0  0  0  0  0  0  0
   -0.0228   -1.9515    0.5151 H   0  0  0  0  0  0  0  0  0  0  0  0
    1.0026   -0.6010    1.0147 H   0  0  0  0  0  0  0  0  0  0  0  0
   -0.0331   -1.5886    2.6300 C   0  0  0  0  0  0  0  0  0  0  0  0
    0.0130   -0.7402    3.3141 H   0  0  0  0  0  0  0  0  0  0  0  0
   -0.9762   -2.1175    2.7810 H   0  0  0  0  0  0  0  0  0  0  0  0
    1.1353   -2.5388    2.9268 C   0  0  0  0  0  0  0  0  0  0  0  0
    1.0950   -3.3796    2.2302 H   0  0  0  0  0  0  0  0  0  0  0  0
    2.0755   -2.0026    2.7833 H   0  0  0  0  0  0  0  0  0  0  0  0
    1.0503   -3.0588    4.3672 C   0  0  0  0  0  0  0  0  0  0  0  0
    1.0845   -2.2020    5.0480 H   0  0  0  0  0  0  0  0  0  0  0  0
    0.0844   -3.5550    4.5012 H   0  0  0  0  0  0  0  0  0  0  0  0
    2.1568   -4.0000    4.6740 N   0  3  0  0  0  0  0  0  0  0  0  0
    3.0533   -3.5434    4.5619 H   0  0  0  0  0  0  0  0  0  0  0  0
    2.0862   -4.3340    5.6271 H   0  0  0  0  0  0  0  0  0  0  0  0
    2.1244   -4.7994    4.0520 H   0  0  0  0  0  0  0  0  0  0  0  0
   -0.8554    0.5609   -0.5392 C   0  0  0  0  0  0  0  0  0  0  0  0
    0.2904    0.7596   -0.9255 O   0  0  0  0  0  0  0  0  0  0  0  0
   -1.9358    0.9322   -1.2338 N   0  0  0  0  0  0  0  0  0  0  0  0
   -2.8398    0.7014   -0.8562 H   0  0  0  0  0  0  0  0  0  0  0  0
   -1.8841    1.5795   -2.5460 C   0  0  0  0  0  0  0  0  0  0  0  0
   -1.4099    0.9114   -3.2682 H   0  0  0  0  0  0  0  0  0  0  0  0
   -2.8900    1.8194   -2.8924 H   0  0  0  0  0  0  0  0  0  0  0  0
   -1.2946    2.4971   -2.4876 H   0  0  0  0  0  0  0  0  0  0  0  0
  5  6  2  0  0  0  0
  5  7  1  0  0  0  0
  2  3  1  0  0  0  0
  2  4  1  0  0  0  0
  2  5  1  0  0  0  0
  1  2  1  0  0  0  0
 27 28  2  0  0  0  0
 27 29  1  0  0  0  0
 23 24  1  0  0  0  0
 23 25  1  0  0  0  0
 23 26  1  0  0  0  0
 20 21  1  0  0  0  0
 20 22  1  0  0  0  0
 20 23  1  0  0  0  0
 17 18  1  0  0  0  0
 17 19  1  0  0  0  0
 17 20  1  0  0  0  0
 14 15  1  0  0  0  0
 14 16  1  0  0  0  0
 14 17  1  0  0  0  0
 11 12  1  0  0  0  0
 11 13  1  0  0  0  0
 11 14  1  0  0  0  0
  9 10  1  0  0  0  0
  9 11  1  0  0  0  0
  9 27  1  0  0  0  0
  7  8  1  0  0  0  0
  7  9  1  0  0  0  0
 31 32  1  0  0  0  0
 31 33  1  0  0  0  0
 31 34  1  0  0  0  0
 29 30  1  0  0  0  0
 29 31  1  0  0  0  0
M  CHG  1  23   1
M  END
$$$$
default_name
  -OEChem-01062215323D

 34 33  0     1  0  0  0  0  0999 V2000
   -3.8899   -3.6747    1.6490 H   0  0  0  0  0  0  0  0  0  0  0  0
   -3.9109   -2.6717    1.2250 C   0  0  0  0  0  0  0  0  0  0  0  0
   -4.6009   -2.0517    1.7950 H   0  0  0  0  0  0  0  0  0  0  0  0
   -4.2309   -2.7237    0.1860 H   0  0  0  0  0  0  0  0  0  0  0  0
   -2.5229   -2.0787    1.2980 C   0  0  0  0  0  0  0  0  0  0  0  0
   -1.5999   -2.7227    1.7810 O   0  0  0  0  0  0  0  0  0  0  0  0
   -2.3659   -0.8447    0.8120 N   0  0  0  0  0  0  0  0  0  0  0  0
   -3.1749   -0.3807    0.4220 H   0  0  0  0  0  0  0  0  0  0  0  0
   -1.0919   -0.1077    0.8170 C   0  0  1  0  0  0  0  0  0  0  0  0
   -1.1470    0.6662    1.5848 H   0  0  0  0  0  0  0  0  0  0  0  0
    0.0394   -1.0881    1.1793 C   0  0  0  0  0  0  0  0  0  0  0  0
   -0.0228   -1.9515    0.5151 H   0  0  0  0  0  0  0  0  0  0  0  0
    1.0026   -0.6010    1.0147 H   0  0  0  0  0  0  0  0  0  0  0  0
   -0.0331   -1.5886    2.6300 C   0  0  0  0  0  0  0  0  0  0  0  0
    0.0130   -0.7402    3.3141 H   0  0  0  0  0  0  0  0  0  0  0  0
   -0.9762   -2.1175    2.7810 H   0  0  0  0  0  0  0  0  0  0  0  0
    1.1353   -2.5388    2.9268 C   0  0  0  0  0  0  0  0  0  0  0  0
    1.0950   -3.3796    2.2302 H   0  0  0  0  0  0  0  0  0  0  0  0
    2.0755   -2.0026    2.7833 H   0  0  0  0  0  0  0  0  0  0  0  0
    1.0503   -3.0588    4.3672 C   0  0  0  0  0  0  0  0  0  0  0  0
    1.0845   -2.2020    5.0480 H   0  0  0  0  0  0  0  0  0  0  0  0
    0.0844   -3.5550    4.5012 H   0  0  0  0  0  0  0  0  0  0  0  0
    2.1568   -4.0000    4.6740 N   0  3  0  0  0  0  0  0  0  0  0  0
    3.0533   -3.5434    4.5619 H   0  0  0  0  0  0  0  0  0  0  0  0
    2.0862   -4.3340    5.6271 H   0  0  0  0  0  0  0  0  0  0  0  0
    2.1244   -4.7994    4.0520 H   0  0  0  0  0  0  0  0  0  0  0  0
   -0.8554    0.5609   -0.5392 C   0  0  0  0  0  0  0  0  0  0  0  0
    0.2564    0.5145   -1.0523 O   0  0  0  0  0  0  0  0  0  0  0  0
   -1.8891    1.2043   -1.0916 N   0  0  0  0  0  0  0  0  0  0  0  0
   -2.7756    1.1649   -0.6164 H   0  0  0  0  0  0  0  0  0  0  0  0
   -1.8314    1.8917   -2.3829 C   0  0  0  0  0  0  0  0  0  0  0  0
   -1.6060    1.1728   -3.1735 H   0  0  0  0  0  0  0  0  0  0  0  0
   -2.7858    2.3718   -2.6019 H   0  0  0  0  0  0  0  0  0  0  0  0
   -1.0427    2.6471   -2.3697 H   0  0  0  0  0  0  0  0  0  0  0  0
  5  6  2  0  0  0  0
  5  7  1  0  0  0  0
  2  3  1  0  0  0  0
  2  4  1  0  0  0  0
  2  5  1  0  0  0  0
  1  2  1  0  0  0  0
 27 28  2  0  0  0  0
 27 29  1  0  0  0  0
 23 24  1  0  0  0  0
 23 25  1  0  0  0  0
 23 26  1  0  0  0  0
 20 21  1  0  0  0  0
 20 22  1  0  0  0  0
 20 23  1  0  0  0  0
 17 18  1  0  0  0  0
 17 19  1  0  0  0  0
 17 20  1  0  0  0  0
 14 15  1  0  0  0  0
 14 16  1  0  0  0  0
 14 17  1  0  0  0  0
 11 12  1  0  0  0  0
 11 13  1  0  0  0  0
 11 14  1  0  0  0  0
  9 10  1  0  0  0  0
  9 11  1  0  0  0  0
  9 27  1  0  0  0  0
  7  8  1  0  0  0  0
  7  9  1  0  0  0  0
 31 32  1  0  0  0  0
 31 33  1  0  0  0  0
 31 34  1  0  0  0  0
 29 30  1  0  0  0  0
 29 31  1  0  0  0  0
M  CHG  1  23   1
M  END
$$$$
default_name
  -OEChem-01062215323D

 34 33  0     1  0  0  0  0  0999 V2000
   -3.8899   -3.6747    1.6490 H   0  0  0  0  0  0  0  0  0  0  0  0
   -3.9109   -2.6717    1.2250 C   0  0  0  0  0  0  0  0  0  0  0  0
   -4.6009   -2.0517    1.7950 H   0  0  0  0  0  0  0  0  0  0  0  0
   -4.2309   -2.7237    0.1860 H   0  0  0  0  0  0  0  0  0  0  0  0
   -2.5229   -2.0787    1.2980 C   0  0  0  0  0  0  0  0  0  0  0  0
   -1.5999   -2.7227    1.7810 O   0  0  0  0  0  0  0  0  0  0  0  0
   -2.3659   -0.8447    0.8120 N   0  0  0  0  0  0  0  0  0  0  0  0
   -3.1749   -0.3807    0.4220 H   0  0  0  0  0  0  0  0  0  0  0  0
   -1.0919   -0.1077    0.8170 C   0  0  1  0  0  0  0  0  0  0  0  0
   -1.1470    0.6662    1.5848 H   0  0  0  0  0  0  0  0  0  0  0  0
    0.0394   -1.0881    1.1793 C   0  0  0  0  0  0  0  0  0  0  0  0
   -0.0228   -1.9515    0.5151 H   0  0  0  0  0  0  0  0  0  0  0  0
    1.0026   -0.6010    1.0147 H   0  0  0  0  0  0  0  0  0  0  0  0
   -0.0331   -1.5886    2.6300 C   0  0  0  0  0  0  0  0  0  0  0  0
    0.0130   -0.7402    3.3141 H   0  0  0  0  0  0  0  0  0  0  0  0
   -0.9762   -2.1175    2.7810 H   0  0  0  0  0  0  0  0  0  0  0  0
    1.1353   -2.5388    2.9268 C   0  0  0  0  0  0  0  0  0  0  0  0
    1.0950   -3.3796    2.2302 H   0  0  0  0  0  0  0  0  0  0  0  0
    2.0755   -2.0026    2.7833 H   0  0  0  0  0  0  0  0  0  0  0  0
    1.0503   -3.0588    4.3672 C   0  0  0  0  0  0  0  0  0  0  0  0
    1.0845   -2.2020    5.0480 H   0  0  0  0  0  0  0  0  0  0  0  0
    0.0844   -3.5550    4.5012 H   0  0  0  0  0  0  0  0  0  0  0  0
    2.1568   -4.0000    4.6740 N   0  3  0  0  0  0  0  0  0  0  0  0
    3.0533   -3.5434    4.5619 H   0  0  0  0  0  0  0  0  0  0  0  0
    2.0862   -4.3340    5.6271 H   0  0  0  0  0  0  0  0  0  0  0  0
    2.1244   -4.7994    4.0520 H   0  0  0  0  0  0  0  0  0  0  0  0
   -0.8554    0.5609   -0.5392 C   0  0  0  0  0  0  0  0  0  0  0  0
    0.1531    0.2907   -1.1806 O   0  0  0  0  0  0  0  0  0  0  0  0
   -1.7656    1.4506   -0.9486 N   0  0  0  0  0  0  0  0  0  0  0  0
   -2.5802    1.5884   -0.3736 H   0  0  0  0  0  0  0  0  0  0  0  0
   -1.6905    2.1747   -2.2188 C   0  0  0  0  0  0  0  0  0  0  0  0
   -1.7249    1.4665   -3.0495 H   0  0  0  0  0  0  0  0  0  0  0  0
   -2.5257    2.8699   -2.3110 H   0  0  0  0  0  0  0  0  0  0  0  0
   -0.7516    2.7294   -2.2783 H   0  0  0  0  0  0  0  0  0  0  0  0
  5  6  2  0  0  0  0
  5  7  1  0  0  0  0
  2  3  1  0  0  0  0
  2  4  1  0  0  0  0
  2  5  1  0  0  0  0
  1  2  1  0  0  0  0
 27 28  2  0  0  0  0
 27 29  1  0  0  0  0
 23 24  1  0  0  0  0
 23 25  1  0  0  0  0
 23 26  1  0  0  0  0
 20 21  1  0  0  0  0
 20 22  1  0  0  0  0
 20 23  1  0  0  0  0
 17 18  1  0  0  0  0
 17 19  1  0  0  0  0
 17 20  1  0  0  0  0
 14 15  1  0  0  0  0
 14 16  1  0  0  0  0
 14 17  1  0  0  0  0
 11 12  1  0  0  0  0
 11 13  1  0  0  0  0
 11 14  1  0  0  0  0
  9 10  1  0  0  0  0
  9 11  1  0  0  0  0
  9 27  1  0  0  0  0
  7  8  1  0  0  0  0
  7  9  1  0  0  0  0
 31 32  1  0  0  0  0
 31 33  1  0  0  0  0
 31 34  1  0  0  0  0
 29 30  1  0  0  0  0
 29 31  1  0  0  0  0
M  CHG  1  23   1
M  END
$$$$
default_name
  -OEChem-01062215323D

 34 33  0     1  0  0  0  0  0999 V2000
   -3.8899   -3.6747    1.6490 H   0  0  0  0  0  0  0  0  0  0  0  0
   -3.9109   -2.6717    1.2250 C   0  0  0  0  0  0  0  0  0  0  0  0
   -4.6009   -2.0517    1.7950 H   0  0  0  0  0  0  0  0  0  0  0  0
   -4.2309   -2.7237    0.1860 H   0  0  0  0  0  0  0  0  0  0  0  0
   -2.5229   -2.0787    1.2980 C   0  0  0  0  0  0  0  0  0  0  0  0
   -1.5999   -2.7227    1.7810 O   0  0  0  0  0  0  0  0  0  0  0  0
   -2.3659   -0.8447    0.8120 N   0  0  0  0  0  0  0  0  0  0  0  0
   -3.1749   -0.3807    0.4220 H   0  0  0  0  0  0  0  0  0  0  0  0
   -1.0919   -0.1077    0.8170 C   0  0  1  0  0  0  0  0  0  0  0  0
   -1.1470    0.6662    1.5848 H   0  0  0  0  0  0  0  0  0  0  0  0
    0.0394   -1.0881    1.1793 C   0  0  0  0  0  0  0  0  0  0  0  0
   -0.0228   -1.9515    0.5151 H   0  0  0  0  0  0  0  0  0  0  0  0
    1.0026   -0.6010    1.0147 H   0  0  0  0  0  0  0  0  0  0  0  0
   -0.0331   -1.5886    2.6300 C   0  0  0  0  0  0  0  0  0  0  0  0
    0.0130   -0.7402    3.3141 H   0  0  0  0  0  0  0  0  0  0  0  0
   -0.9762   -2.1175    2.7810 H   0  0  0  0  0  0  0  0  0  0  0  0
    1.1353   -2.5388    2.9268 C   0  0  0  0  0  0  0  0  0  0  0  0
    1.0950   -3.3796    2.2302 H   0  0  0  0  0  0  0  0  0  0  0  0
    2.0755   -2.0026    2.7833 H   0  0  0  0  0  0  0  0  0  0  0  0
    1.0503   -3.0588    4.3672 C   0  0  0  0  0  0  0  0  0  0  0  0
    1.0845   -2.2020    5.0480 H   0  0  0  0  0  0  0  0  0  0  0  0
    0.0844   -3.5550    4.5012 H   0  0  0  0  0  0  0  0  0  0  0  0
    2.1568   -4.0000    4.6740 N   0  3  0  0  0  0  0  0  0  0  0  0
    3.0533   -3.5434    4.5619 H   0  0  0  0  0  0  0  0  0  0  0  0
    2.0862   -4.3340    5.6271 H   0  0  0  0  0  0  0  0  0  0  0  0
    2.1244   -4.7994    4.0520 H   0  0  0  0  0  0  0  0  0  0  0  0
   -0.8554    0.5609   -0.5392 C   0  0  0  0  0  0  0  0  0  0  0  0
   -0.0126    0.1032   -1.3019 O   0  0  0  0  0  0  0  0  0  0  0  0
   -1.5736    1.6545   -0.8146 N   0  0  0  0  0  0  0  0  0  0  0  0
   -2.2668    1.9428   -0.1442 H   0  0  0  0  0  0  0  0  0  0  0  0
   -1.4710    2.4092   -2.0649 C   0  0  0  0  0  0  0  0  0  0  0  0
   -1.7583    1.7725   -2.9045 H   0  0  0  0  0  0  0  0  0  0  0  0
   -2.1273    3.2798   -2.0394 H   0  0  0  0  0  0  0  0  0  0  0  0
   -0.4412    2.7386   -2.2197 H   0  0  0  0  0  0  0  0  0  0  0  0
  5  6  2  0  0  0  0
  5  7  1  0  0  0  0
  2  3  1  0  0  0  0
  2  4  1  0  0  0  0
  2  5  1  0  0  0  0
  1  2  1  0  0  0  0
 27 28  2  0  0  0  0
 27 29  1  0  0  0  0
 23 24  1  0  0  0  0
 23 25  1  0  0  0  0
 23 26  1  0  0  0  0
 20 21  1  0  0  0  0
 20 22  1  0  0  0  0
 20 23  1  0  0  0  0
 17 18  1  0  0  0  0
 17 19  1  0  0  0  0
 17 20  1  0  0  0  0
 14 15  1  0  0  0  0
 14 16  1  0  0  0  0
 14 17  1  0  0  0  0
 11 12  1  0  0  0  0
 11 13  1  0  0  0  0
 11 14  1  0  0  0  0
  9 10  1  0  0  0  0
  9 11  1  0  0  0  0
  9 27  1  0  0  0  0
  7  8  1  0  0  0  0
  7  9  1  0  0  0  0
 31 32  1  0  0  0  0
 31 33  1  0  0  0  0
 31 34  1  0  0  0  0
 29 30  1  0  0  0  0
 29 31  1  0  0  0  0
M  CHG  1  23   1
M  END
$$$$
default_name
  -OEChem-01062215323D

 34 33  0     1  0  0  0  0  0999 V2000
   -3.8899   -3.6747    1.6490 H   0  0  0  0  0  0  0  0  0  0  0  0
   -3.9109   -2.6717    1.2250 C   0  0  0  0  0  0  0  0  0  0  0  0
   -4.6009   -2.0517    1.7950 H   0  0  0  0  0  0  0  0  0  0  0  0
   -4.2309   -2.7237    0.1860 H   0  0  0  0  0  0  0  0  0  0  0  0
   -2.5229   -2.0787    1.2980 C   0  0  0  0  0  0  0  0  0  0  0  0
   -1.5999   -2.7227    1.7810 O   0  0  0  0  0  0  0  0  0  0  0  0
   -2.3659   -0.8447    0.8120 N   0  0  0  0  0  0  0  0  0  0  0  0
   -3.1749   -0.3807    0.4220 H   0  0  0  0  0  0  0  0  0  0  0  0
   -1.0919   -0.1077    0.8170 C   0  0  1  0  0  0  0  0  0  0  0  0
   -1.1470    0.6662    1.5848 H   0  0  0  0  0  0  0  0  0  0  0  0
    0.0394   -1.0881    1.1793 C   0  0  0  0  0  0  0  0  0  0  0  0
   -0.0228   -1.9515    0.5151 H   0  0  0  0  0  0  0  0  0  0  0  0
    1.0026   -0.6010    1.0147 H   0  0  0  0  0  0  0  0  0  0  0  0
   -0.0331   -1.5886    2.6300 C   0  0  0  0  0  0  0  0  0  0  0  0
    0.0130   -0.7402    3.3141 H   0  0  0  0  0  0  0  0  0  0  0  0
   -0.9762   -2.1175    2.7810 H   0  0  0  0  0  0  0  0  0  0  0  0
    1.1353   -2.5388    2.9268 C   0  0  0  0  0  0  0  0  0  0  0  0
    1.0950   -3.3796    2.2302 H   0  0  0  0  0  0  0  0  0  0  0  0
    2.0755   -2.0026    2.7833 H   0  0  0  0  0  0  0  0  0  0  0  0
    1.0503   -3.0588    4.3672 C   0  0  0  0  0  0  0  0  0  0  0  0
    1.0845   -2.2020    5.0480 H   0  0  0  0  0  0  0  0  0  0  0  0
    0.0844   -3.5550    4.5012 H   0  0  0  0  0  0  0  0  0  0  0  0
    2.1568   -4.0000    4.6740 N   0  3  0  0  0  0  0  0  0  0  0  0
    3.0533   -3.5434    4.5619 H   0  0  0  0  0  0  0  0  0  0  0  0
    2.0862   -4.3340    5.6271 H   0  0  0  0  0  0  0  0  0  0  0  0
    2.1244   -4.7994    4.0520 H   0  0  0  0  0  0  0  0  0  0  0  0
   -0.8554    0.5609   -0.5392 C   0  0  0  0  0  0  0  0  0  0  0  0
   -0.2293   -0.0349   -1.4078 O   0  0  0  0  0  0  0  0  0  0  0  0
   -1.3262    1.8021   -0.6987 N   0  0  0  0  0  0  0  0  0  0  0  0
   -1.8569    2.2042    0.0561 H   0  0  0  0  0  0  0  0  0  0  0  0
   -1.1877    2.5791   -1.9318 C   0  0  0  0  0  0  0  0  0  0  0  0
   -1.7040    2.0699   -2.7484 H   0  0  0  0  0  0  0  0  0  0  0  0
   -1.6178    3.5734   -1.8058 H   0  0  0  0  0  0  0  0  0  0  0  0
   -0.1327    2.6739   -2.1977 H   0  0  0  0  0  0  0  0  0  0  0  0
  5  6  2  0  0  0  0
  5  7  1  0  0  0  0
  2  3  1  0  0  0  0
  2  4  1  0  0  0  0
  2  5  1  0  0  0  0
  1  2  1  0  0  0  0
 27 28  2  0  0  0  0
 27 29  1  0  0  0  0
 23 24  1  0  0  0  0
 23 25  1  0  0  0  0
 23 26  1  0  0  0  0
 20 21  1  0  0  0  0
 20 22  1  0  0  0  0
 20 23  1  0  0  0  0
 17 18  1  0  0  0  0
 17 19  1  0  0  0  0
 17 20  1  0  0  0  0
 14 15  1  0  0  0  0
 14 16  1  0  0  0  0
 14 17  1  0  0  0  0
 11 12  1  0  0  0  0
 11 13  1  0  0  0  0
 11 14  1  0  0  0  0
  9 10  1  0  0  0  0
  9 11  1  0  0  0  0
  9 27  1  0  0  0  0
  7  8  1  0  0  0  0
  7  9  1  0  0  0  0
 31 32  1  0  0  0  0
 31 33  1  0  0  0  0
 31 34  1  0  0  0  0
 29 30  1  0  0  0  0
 29 31  1  0  0  0  0
M  CHG  1  23   1
M  END
$$$$
default_name
  -OEChem-01062215323D

 34 33  0     1  0  0  0  0  0999 V2000
   -3.8899   -3.6747    1.6490 H   0  0  0  0  0  0  0  0  0  0  0  0
   -3.9109   -2.6717    1.2250 C   0  0  0  0  0  0  0  0  0  0  0  0
   -4.6009   -2.0517    1.7950 H   0  0  0  0  0  0  0  0  0  0  0  0
   -4.2309   -2.7237    0.1860 H   0  0  0  0  0  0  0  0  0  0  0  0
   -2.5229   -2.0787    1.2980 C   0  0  0  0  0  0  0  0  0  0  0  0
   -1.5999   -2.7227    1.7810 O   0  0  0  0  0  0  0  0  0  0  0  0
   -2.3659   -0.8447    0.8120 N   0  0  0  0  0  0  0  0  0  0  0  0
   -3.1749   -0.3807    0.4220 H   0  0  0  0  0  0  0  0  0  0  0  0
   -1.0919   -0.1077    0.8170 C   0  0  1  0  0  0  0  0  0  0  0  0
   -1.1470    0.6662    1.5848 H   0  0  0  0  0  0  0  0  0  0  0  0
    0.0394   -1.0881    1.1793 C   0  0  0  0  0  0  0  0  0  0  0  0
   -0.0228   -1.9515    0.5151 H   0  0  0  0  0  0  0  0  0  0  0  0
    1.0026   -0.6010    1.0147 H   0  0  0  0  0  0  0  0  0  0  0  0
   -0.0331   -1.5886    2.6300 C   0  0  0  0  0  0  0  0  0  0  0  0
    0.0130   -0.7402    3.3141 H   0  0  0  0  0  0  0  0  0  0  0  0
   -0.9762   -2.1175    2.7810 H   0  0  0  0  0  0  0  0  0  0  0  0
    1.1353   -2.5388    2.9268 C   0  0  0  0  0  0  0  0  0  0  0  0
    1.0950   -3.3796    2.2302 H   0  0  0  0  0  0  0  0  0  0  0  0
    2.0755   -2.0026    2.7833 H   0  0  0  0  0  0  0  0  0  0  0  0
    1.0503   -3.0588    4.3672 C   0  0  0  0  0  0  0  0  0  0  0  0
    1.0845   -2.2020    5.0480 H   0  0  0  0  0  0  0  0  0  0  0  0
    0.0844   -3.5550    4.5012 H   0  0  0  0  0  0  0  0  0  0  0  0
    2.1568   -4.0000    4.6740 N   0  3  0  0  0  0  0  0  0  0  0  0
    3.0533   -3.5434    4.5619 H   0  0  0  0  0  0  0  0  0  0  0  0
    2.0862   -4.3340    5.6271 H   0  0  0  0  0  0  0  0  0  0  0  0
    2.1244   -4.7994    4.0520 H   0  0  0  0  0  0  0  0  0  0  0  0
   -0.8554    0.5609   -0.5392 C   0  0  0  0  0  0  0  0  0  0  0  0
   -0.4823   -0.1145   -1.4912 O   0  0  0  0  0  0  0  0  0  0  0  0
   -1.0403    1.8832   -0.6088 N   0  0  0  0  0  0  0  0  0  0  0  0
   -1.3784    2.3546    0.2137 H   0  0  0  0  0  0  0  0  0  0  0  0
   -0.8601    2.6730   -1.8283 C   0  0  0  0  0  0  0  0  0  0  0  0
   -1.5656    2.3385   -2.5919 H   0  0  0  0  0  0  0  0  0  0  0  0
   -1.0319    3.7308   -1.6260 H   0  0  0  0  0  0  0  0  0  0  0  0
    0.1530    2.5397   -2.2141 H   0  0  0  0  0  0  0  0  0  0  0  0
  5  6  2  0  0  0  0
  5  7  1  0  0  0  0
  2  3  1  0  0  0  0
  2  4  1  0  0  0  0
  2  5  1  0  0  0  0
  1  2  1  0  0  0  0
 27 28  2  0  0  0  0
 27 29  1  0  0  0  0
 23 24  1  0  0  0  0
 23 25  1  0  0  0  0
 23 26  1  0  0  0  0
 20 21  1  0  0  0  0
 20 22  1  0  0  0  0
 20 23  1  0  0  0  0
 17 18  1  0  0  0  0
 17 19  1  0  0  0  0
 17 20  1  0  0  0  0
 14 15  1  0  0  0  0
 14 16  1  0  0  0  0
 14 17  1  0  0  0  0
 11 12  1  0  0  0  0
 11 13  1  0  0  0  0
 11 14  1  0  0  0  0
  9 10  1  0  0  0  0
  9 11  1  0  0  0  0
  9 27  1  0  0  0  0
  7  8  1  0  0  0  0
  7  9  1  0  0  0  0
 31 32  1  0  0  0  0
 31 33  1  0  0  0  0
 31 34  1  0  0  0  0
 29 30  1  0  0  0  0
 29 31  1  0  0  0  0
M  CHG  1  23   1
M  END
$$$$
default_name
  -OEChem-01062215323D

 34 33  0     1  0  0  0  0  0999 V2000
   -3.8899   -3.6747    1.6490 H   0  0  0  0  0  0  0  0  0  0  0  0
   -3.9109   -2.6717    1.2250 C   0  0  0  0  0  0  0  0  0  0  0  0
   -4.6009   -2.0517    1.7950 H   0  0  0  0  0  0  0  0  0  0  0  0
   -4.2309   -2.7237    0.1860 H   0  0  0  0  0  0  0  0  0  0  0  0
   -2.5229   -2.0787    1.2980 C   0  0  0  0  0  0  0  0  0  0  0  0
   -1.5999   -2.7227    1.7810 O   0  0  0  0  0  0  0  0  0  0  0  0
   -2.3659   -0.8447    0.8120 N   0  0  0  0  0  0  0  0  0  0  0  0
   -3.1749   -0.3807    0.4220 H   0  0  0  0  0  0  0  0  0  0  0  0
   -1.0919   -0.1077    0.8170 C   0  0  1  0  0  0  0  0  0  0  0  0
   -1.1470    0.6662    1.5848 H   0  0  0  0  0  0  0  0  0  0  0  0
    0.0394   -1.0881    1.1793 C   0  0  0  0  0  0  0  0  0  0  0  0
   -0.0228   -1.9515    0.5151 H   0  0  0  0  0  0  0  0  0  0  0  0
    1.0026   -0.6010    1.0147 H   0  0  0  0  0  0  0  0  0  0  0  0
   -0.0331   -1.5886    2.6300 C   0  0  0  0  0  0  0  0  0  0  0  0
    0.0130   -0.7402    3.3141 H   0  0  0  0  0  0  0  0  0  0  0  0
   -0.9762   -2.1175    2.7810 H   0  0  0  0  0  0  0  0  0  0  0  0
    1.1353   -2.5388    2.9268 C   0  0  0  0  0  0  0  0  0  0  0  0
    1.0950   -3.3796    2.2302 H   0  0  0  0  0  0  0  0  0  0  0  0
    2.0755   -2.0026    2.7833 H   0  0  0  0  0  0  0  0  0  0  0  0
    1.0503   -3.0588    4.3672 C   0  0  0  0  0  0  0  0  0  0  0  0
    1.0845   -2.2020    5.0480 H   0  0  0  0  0  0  0  0  0  0  0  0
    0.0844   -3.5550    4.5012 H   0  0  0  0  0  0  0  0  0  0  0  0
    2.1568   -4.0000    4.6740 N   0  3  0  0  0  0  0  0  0  0  0  0
    3.0533   -3.5434    4.5619 H   0  0  0  0  0  0  0  0  0  0  0  0
    2.0862   -4.3340    5.6271 H   0  0  0  0  0  0  0  0  0  0  0  0
    2.1244   -4.7994    4.0520 H   0  0  0  0  0  0  0  0  0  0  0  0
   -0.8554    0.5609   -0.5392 C   0  0  0  0  0  0  0  0  0  0  0  0
   -0.7544   -0.1299   -1.5462 O   0  0  0  0  0  0  0  0  0  0  0  0
   -0.7354    1.8924   -0.5511 N   0  0  0  0  0  0  0  0  0  0  0  0
   -0.8639    2.3839    0.3179 H   0  0  0  0  0  0  0  0  0  0  0  0
   -0.5104    2.6844   -1.7617 C   0  0  0  0  0  0  0  0  0  0  0  0
   -1.3527    2.5599   -2.4456 H   0  0  0  0  0  0  0  0  0  0  0  0
   -0.4095    3.7413   -1.5123 H   0  0  0  0  0  0  0  0  0  0  0  0
    0.3963    2.3453   -2.2675 H   0  0  0  0  0  0  0  0  0  0  0  0
  5  6  2  0  0  0  0
  5  7  1  0  0  0  0
  2  3  1  0  0  0  0
  2  4  1  0  0  0  0
  2  5  1  0  0  0  0
  1  2  1  0  0  0  0
 27 28  2  0  0  0  0
 27 29  1  0  0  0  0
 23 24  1  0  0  0  0
 23 25  1  0  0  0  0
 23 26  1  0  0  0  0
 20 21  1  0  0  0  0
 20 22  1  0  0  0  0
 20 23  1  0  0  0  0
 17 18  1  0  0  0  0
 17 19  1  0  0  0  0
 17 20  1  0  0  0  0
 14 15  1  0  0  0  0
 14 16  1  0  0  0  0
 14 17  1  0  0  0  0
 11 12  1  0  0  0  0
 11 13  1  0  0  0  0
 11 14  1  0  0  0  0
  9 10  1  0  0  0  0
  9 11  1  0  0  0  0
  9 27  1  0  0  0  0
  7  8  1  0  0  0  0
  7  9  1  0  0  0  0
 31 32  1  0  0  0  0
 31 33  1  0  0  0  0
 31 34  1  0  0  0  0
 29 30  1  0  0  0  0
 29 31  1  0  0  0  0
M  CHG  1  23   1
M  END
$$$$
default_name
  -OEChem-01062215323D

 34 33  0     1  0  0  0  0  0999 V2000
   -3.8899   -3.6747    1.6490 H   0  0  0  0  0  0  0  0  0  0  0  0
   -3.9109   -2.6717    1.2250 C   0  0  0  0  0  0  0  0  0  0  0  0
   -4.6009   -2.0517    1.7950 H   0  0  0  0  0  0  0  0  0  0  0  0
   -4.2309   -2.7237    0.1860 H   0  0  0  0  0  0  0  0  0  0  0  0
   -2.5229   -2.0787    1.2980 C   0  0  0  0  0  0  0  0  0  0  0  0
   -1.5999   -2.7227    1.7810 O   0  0  0  0  0  0  0  0  0  0  0  0
   -2.3659   -0.8447    0.8120 N   0  0  0  0  0  0  0  0  0  0  0  0
   -3.1749   -0.3807    0.4220 H   0  0  0  0  0  0  0  0  0  0  0  0
   -1.0919   -0.1077    0.8170 C   0  0  1  0  0  0  0  0  0  0  0  0
   -1.1470    0.6662    1.5848 H   0  0  0  0  0  0  0  0  0  0  0  0
    0.0394   -1.0881    1.1793 C   0  0  0  0  0  0  0  0  0  0  0  0
   -0.0228   -1.9515    0.5151 H   0  0  0  0  0  0  0  0  0  0  0  0
    1.0026   -0.6010    1.0147 H   0  0  0  0  0  0  0  0  0  0  0  0
   -0.0331   -1.5886    2.6300 C   0  0  0  0  0  0  0  0  0  0  0  0
    0.0130   -0.7402    3.3141 H   0  0  0  0  0  0  0  0  0  0  0  0
   -0.9762   -2.1175    2.7810 H   0  0  0  0  0  0  0  0  0  0  0  0
    1.1353   -2.5388    2.9268 C   0  0  0  0  0  0  0  0  0  0  0  0
    1.0950   -3.3796    2.2302 H   0  0  0  0  0  0  0  0  0  0  0  0
    2.0755   -2.0026    2.7833 H   0  0  0  0  0  0  0  0  0  0  0  0
    1.0503   -3.0588    4.3672 C   0  0  0  0  0  0  0  0  0  0  0  0
    1.0845   -2.2020    5.0480 H   0  0  0  0  0  0  0  0  0  0  0  0
    0.0844   -3.5550    4.5012 H   0  0  0  0  0  0  0  0  0  0  0  0
    2.1568   -4.0000    4.6740 N   0  3  0  0  0  0  0  0  0  0  0  0
    3.0533   -3.5434    4.5619 H   0  0  0  0  0  0  0  0  0  0  0  0
    2.0862   -4.3340    5.6271 H   0  0  0  0  0  0  0  0  0  0  0  0
    2.1244   -4.7994    4.0520 H   0  0  0  0  0  0  0  0  0  0  0  0
   -0.8554    0.5609   -0.5392 C   0  0  0  0  0  0  0  0  0  0  0  0
   -1.0269   -0.0803   -1.5693 O   0  0  0  0  0  0  0  0  0  0  0  0
   -0.4322    1.8291   -0.5294 N   0  0  0  0  0  0  0  0  0  0  0  0
   -0.3484    2.2899    0.3615 H   0  0  0  0  0  0  0  0  0  0  0  0
   -0.1625    2.6125   -1.7365 C   0  0  0  0  0  0  0  0  0  0  0  0
   -1.0798    2.7191   -2.3195 H   0  0  0  0  0  0  0  0  0  0  0  0
    0.2070    3.6041   -1.4724 H   0  0  0  0  0  0  0  0  0  0  0  0
    0.5807    2.1038   -2.3544 H   0  0  0  0  0  0  0  0  0  0  0  0
  5  6  2  0  0  0  0
  5  7  1  0  0  0  0
  2  3  1  0  0  0  0
  2  4  1  0  0  0  0
  2  5  1  0  0  0  0
  1  2  1  0  0  0  0
 27 28  2  0  0  0  0
 27 29  1  0  0  0  0
 23 24  1  0  0  0  0
 23 25  1  0  0  0  0
 23 26  1  0  0  0  0
 20 21  1  0  0  0  0
 20 22  1  0  0  0  0
 20 23  1  0  0  0  0
 17 18  1  0  0  0  0
 17 19  1  0  0  0  0
 17 20  1  0  0  0  0
 14 15  1  0  0  0  0
 14 16  1  0  0  0  0
 14 17  1  0  0  0  0
 11 12  1  0  0  0  0
 11 13  1  0  0  0  0
 11 14  1  0  0  0  0
  9 10  1  0  0  0  0
  9 11  1  0  0  0  0
  9 27  1  0  0  0  0
  7  8  1  0  0  0  0
  7  9  1  0  0  0  0
 31 32  1  0  0  0  0
 31 33  1  0  0  0  0
 31 34  1  0  0  0  0
 29 30  1  0  0  0  0
 29 31  1  0  0  0  0
M  CHG  1  23   1
M  END
$$$$
default_name
  -OEChem-01062215323D

 34 33  0     1  0  0  0  0  0999 V2000
   -3.8899   -3.6747    1.6490 H   0  0  0  0  0  0  0  0  0  0  0  0
   -3.9109   -2.6717    1.2250 C   0  0  0  0  0  0  0  0  0  0  0  0
   -4.6009   -2.0517    1.7950 H   0  0  0  0  0  0  0  0  0  0  0  0
   -4.2309   -2.7237    0.1860 H   0  0  0  0  0  0  0  0  0  0  0  0
   -2.5229   -2.0787    1.2980 C   0  0  0  0  0  0  0  0  0  0  0  0
   -1.5999   -2.7227    1.7810 O   0  0  0  0  0  0  0  0  0  0  0  0
   -2.3659   -0.8447    0.8120 N   0  0  0  0  0  0  0  0  0  0  0  0
   -3.1749   -0.3807    0.4220 H   0  0  0  0  0  0  0  0  0  0  0  0
   -1.0919   -0.1077    0.8170 C   0  0  1  0  0  0  0  0  0  0  0  0
   -1.1470    0.6662    1.5848 H   0  0  0  0  0  0  0  0  0  0  0  0
    0.0394   -1.0881    1.1793 C   0  0  0  0  0  0  0  0  0  0  0  0
   -0.0228   -1.9515    0.5151 H   0  0  0  0  0  0  0  0  0  0  0  0
    1.0026   -0.6010    1.0147 H   0  0  0  0  0  0  0  0  0  0  0  0
   -0.0331   -1.5886    2.6300 C   0  0  0  0  0  0  0  0  0  0  0  0
    0.0130   -0.7402    3.3141 H   0  0  0  0  0  0  0  0  0  0  0  0
   -0.9762   -2.1175    2.7810 H   0  0  0  0  0  0  0  0  0  0  0  0
    1.1353   -2.5388    2.9268 C   0  0  0  0  0  0  0  0  0  0  0  0
    1.0950   -3.3796    2.2302 H   0  0  0  0  0  0  0  0  0  0  0  0
    2.0755   -2.0026    2.7833 H   0  0  0  0  0  0  0  0  0  0  0  0
    1.0503   -3.0588    4.3672 C   0  0  0  0  0  0  0  0  0  0  0  0
    1.0845   -2.2020    5.0480 H   0  0  0  0  0  0  0  0  0  0  0  0
    0.0844   -3.5550    4.5012 H   0  0  0  0  0  0  0  0  0  0  0  0
    2.1568   -4.0000    4.6740 N   0  3  0  0  0  0  0  0  0  0  0  0
    3.0533   -3.5434    4.5619 H   0  0  0  0  0  0  0  0  0  0  0  0
    2.0862   -4.3340    5.6271 H   0  0  0  0  0  0  0  0  0  0  0  0
    2.1244   -4.7994    4.0520 H   0  0  0  0  0  0  0  0  0  0  0  0
   -0.8554    0.5609   -0.5392 C   0  0  0  0  0  0  0  0  0  0  0  0
   -1.2814    0.0312   -1.5588 O   0  0  0  0  0  0  0  0  0  0  0  0
   -0.1514    1.6975   -0.5453 N   0  0  0  0  0  0  0  0  0  0  0  0
    0.1330    2.0792    0.3416 H   0  0  0  0  0  0  0  0  0  0  0  0
    0.1600    2.4623   -1.7543 C   0  0  0  0  0  0  0  0  0  0  0  0
   -0.7653    2.8052   -2.2222 H   0  0  0  0  0  0  0  0  0  0  0  0
    0.7754    3.3286   -1.5091 H   0  0  0  0  0  0  0  0  0  0  0  0
    0.6936    1.8317   -2.4688 H   0  0  0  0  0  0  0  0  0  0  0  0
  5  6  2  0  0  0  0
  5  7  1  0  0  0  0
  2  3  1  0  0  0  0
  2  4  1  0  0  0  0
  2  5  1  0  0  0  0
  1  2  1  0  0  0  0
 27 28  2  0  0  0  0
 27 29  1  0  0  0  0
 23 24  1  0  0  0  0
 23 25  1  0  0  0  0
 23 26  1  0  0  0  0
 20 21  1  0  0  0  0
 20 22  1  0  0  0  0
 20 23  1  0  0  0  0
 17 18  1  0  0  0  0
 17 19  1  0  0  0  0
 17 20  1  0  0  0  0
 14 15  1  0  0  0  0
 14 16  1  0  0  0  0
 14 17  1  0  0  0  0
 11 12  1  0  0  0  0
 11 13  1  0  0  0  0
 11 14  1  0  0  0  0
  9 10  1  0  0  0  0
  9 11  1  0  0  0  0
  9 27  1  0  0  0  0
  7  8  1  0  0  0  0
  7  9  1  0  0  0  0
 31 32  1  0  0  0  0
 31 33  1  0  0  0  0
 31 34  1  0  0  0  0
 29 30  1  0  0  0  0
 29 31  1  0  0  0  0
M  CHG  1  23   1
M  END
$$$$
default_name
  -OEChem-01062215323D

 34 33  0     1  0  0  0  0  0999 V2000
   -3.8899   -3.6747    1.6490 H   0  0  0  0  0  0  0  0  0  0  0  0
   -3.9109   -2.6717    1.2250 C   0  0  0  0  0  0  0  0  0  0  0  0
   -4.6009   -2.0517    1.7950 H   0  0  0  0  0  0  0  0  0  0  0  0
   -4.2309   -2.7237    0.1860 H   0  0  0  0  0  0  0  0  0  0  0  0
   -2.5229   -2.0787    1.2980 C   0  0  0  0  0  0  0  0  0  0  0  0
   -1.5999   -2.7227    1.7810 O   0  0  0  0  0  0  0  0  0  0  0  0
   -2.3659   -0.8447    0.8120 N   0  0  0  0  0  0  0  0  0  0  0  0
   -3.1749   -0.3807    0.4220 H   0  0  0  0  0  0  0  0  0  0  0  0
   -1.0919   -0.1077    0.8170 C   0  0  1  0  0  0  0  0  0  0  0  0
   -1.1470    0.6662    1.5848 H   0  0  0  0  0  0  0  0  0  0  0  0
    0.0394   -1.0881    1.1793 C   0  0  0  0  0  0  0  0  0  0  0  0
   -0.0228   -1.9515    0.5151 H   0  0  0  0  0  0  0  0  0  0  0  0
    1.0026   -0.6010    1.0147 H   0  0  0  0  0  0  0  0  0  0  0  0
   -0.0331   -1.5886    2.6300 C   0  0  0  0  0  0  0  0  0  0  0  0
    0.0130   -0.7402    3.3141 H   0  0  0  0  0  0  0  0  0  0  0  0
   -0.9762   -2.1175    2.7810 H   0  0  0  0  0  0  0  0  0  0  0  0
    1.1353   -2.5388    2.9268 C   0  0  0  0  0  0  0  0  0  0  0  0
    1.0950   -3.3796    2.2302 H   0  0  0  0  0  0  0  0  0  0  0  0
    2.0755   -2.0026    2.7833 H   0  0  0  0  0  0  0  0  0  0  0  0
    1.0503   -3.0588    4.3672 C   0  0  0  0  0  0  0  0  0  0  0  0
    1.0845   -2.2020    5.0480 H   0  0  0  0  0  0  0  0  0  0  0  0
    0.0844   -3.5550    4.5012 H   0  0  0  0  0  0  0  0  0  0  0  0
    2.1568   -4.0000    4.6740 N   0  3  0  0  0  0  0  0  0  0  0  0
    3.0533   -3.5434    4.5619 H   0  0  0  0  0  0  0  0  0  0  0  0
    2.0862   -4.3340    5.6271 H   0  0  0  0  0  0  0  0  0  0  0  0
    2.1244   -4.7994    4.0520 H   0  0  0  0  0  0  0  0  0  0  0  0
   -0.8554    0.5609   -0.5392 C   0  0  0  0  0  0  0  0  0  0  0  0
   -1.5004    0.1967   -1.5153 O   0  0  0  0  0  0  0  0  0  0  0  0
    0.0878    1.5066   -0.5977 N   0  0  0  0  0  0  0  0  0  0  0  0
    0.5473    1.7661    0.2595 H   0  0  0  0  0  0  0  0  0  0  0  0
    0.4350    2.2440   -1.8140 C   0  0  0  0  0  0  0  0  0  0  0  0
   -0.4308    2.8124   -2.1603 H   0  0  0  0  0  0  0  0  0  0  0  0
    1.2572    2.9336   -1.6198 H   0  0  0  0  0  0  0  0  0  0  0  0
    0.7273    1.5476   -2.6030 H   0  0  0  0  0  0  0  0  0  0  0  0
  5  6  2  0  0  0  0
  5  7  1  0  0  0  0
  2  3  1  0  0  0  0
  2  4  1  0  0  0  0
  2  5  1  0  0  0  0
  1  2  1  0  0  0  0
 27 28  2  0  0  0  0
 27 29  1  0  0  0  0
 23 24  1  0  0  0  0
 23 25  1  0  0  0  0
 23 26  1  0  0  0  0
 20 21  1  0  0  0  0
 20 22  1  0  0  0  0
 20 23  1  0  0  0  0
 17 18  1  0  0  0  0
 17 19  1  0  0  0  0
 17 20  1  0  0  0  0
 14 15  1  0  0  0  0
 14 16  1  0  0  0  0
 14 17  1  0  0  0  0
 11 12  1  0  0  0  0
 11 13  1  0  0  0  0
 11 14  1  0  0  0  0
  9 10  1  0  0  0  0
  9 11  1  0  0  0  0
  9 27  1  0  0  0  0
  7  8  1  0  0  0  0
  7  9  1  0  0  0  0
 31 32  1  0  0  0  0
 31 33  1  0  0  0  0
 31 34  1  0  0  0  0
 29 30  1  0  0  0  0
 29 31  1  0  0  0  0
M  CHG  1  23   1
M  END
$$$$
default_name
  -OEChem-01062215323D

 34 33  0     1  0  0  0  0  0999 V2000
   -3.8899   -3.6747    1.6490 H   0  0  0  0  0  0  0  0  0  0  0  0
   -3.9109   -2.6717    1.2250 C   0  0  0  0  0  0  0  0  0  0  0  0
   -4.6009   -2.0517    1.7950 H   0  0  0  0  0  0  0  0  0  0  0  0
   -4.2309   -2.7237    0.1860 H   0  0  0  0  0  0  0  0  0  0  0  0
   -2.5229   -2.0787    1.2980 C   0  0  0  0  0  0  0  0  0  0  0  0
   -1.5999   -2.7227    1.7810 O   0  0  0  0  0  0  0  0  0  0  0  0
   -2.3659   -0.8447    0.8120 N   0  0  0  0  0  0  0  0  0  0  0  0
   -3.1749   -0.3807    0.4220 H   0  0  0  0  0  0  0  0  0  0  0  0
   -1.0919   -0.1077    0.8170 C   0  0  1  0  0  0  0  0  0  0  0  0
   -1.0361    0.4736    1.7392 H   0  0  0  0  0  0  0  0  0  0  0  0
    0.0631   -1.1265    0.8008 C   0  0  0  0  0  0  0  0  0  0  0  0
   -0.0967   -1.8201   -0.0263 H   0  0  0  0  0  0  0  0  0  0  0  0
    1.0035   -0.6000    0.6262 H   0  0  0  0  0  0  0  0  0  0  0  0
    0.1724   -1.9403    2.0993 C   0  0  0  0  0  0  0  0  0  0  0  0
    0.3187   -1.2661    2.9442 H   0  0  0  0  0  0  0  0  0  0  0  0
   -0.7504   -2.5043    2.2488 H   0  0  0  0  0  0  0  0  0  0  0  0
    1.3562   -2.9144    2.0217 C   0  0  0  0  0  0  0  0  0  0  0  0
    1.2141   -3.5784    1.1657 H   0  0  0  0  0  0  0  0  0  0  0  0
    2.2772   -2.3450    1.8815 H   0  0  0  0  0  0  0  0  0  0  0  0
    1.4515   -3.7451    3.3075 C   0  0  0  0  0  0  0  0  0  0  0  0
    1.5856   -3.0621    4.1527 H   0  0  0  0  0  0  0  0  0  0  0  0
    0.5043   -4.2738    3.4509 H   0  0  0  0  0  0  0  0  0  0  0  0
    2.5753   -4.7137    3.2496 N   0  3  0  0  0  0  0  0  0  0  0  0
    3.4559   -4.2296    3.1275 H   0  0  0  0  0  0  0  0  0  0  0  0
    2.6242   -5.2537    4.1046 H   0  0  0  0  0  0  0  0  0  0  0  0
    2.4513   -5.3539    2.4739 H   0  0  0  0  0  0  0  0  0  0  0  0
   -1.0240    0.8512   -0.3738 C   0  0  0  0  0  0  0  0  0  0  0  0
   -1.9501    0.8890   -1.1754 O   0  0  0  0  0  0  0  0  0  0  0  0
    0.0822    1.5916   -0.4995 N   0  0  0  0  0  0  0  0  0  0  0  0
    0.7799    1.5207    0.2225 H   0  0  0  0  0  0  0  0  0  0  0  0
    0.3040    2.5575   -1.5771 C   0  0  0  0  0  0  0  0  0  0  0  0
   -0.4513    3.3448   -1.5278 H   0  0  0  0  0  0  0  0  0  0  0  0
    1.2927    3.0087   -1.4868 H   0  0  0  0  0  0  0  0  0  0  0  0
    0.2212    2.0618   -2.5468 H   0  0  0  0  0  0  0  0  0  0  0  0
  5  6  2  0  0  0  0
  5  7  1  0  0  0  0
  2  3  1  0  0  0  0
  2  4  1  0  0  0  0
  2  5  1  0  0  0  0
  1  2  1  0  0  0  0
 27 28  2  0  0  0  0
 27 29  1  0  0  0  0
 23 24  1  0  0  0  0
 23 25  1  0  0  0  0
 23 26  1  0  0  0  0
 20 21  1  0  0  0  0
 20 22  1  0  0  0  0
 20 23  1  0  0  0  0
 17 18  1  0  0  0  0
 17 19  1  0  0  0  0
 17 20  1  0  0  0  0
 14 15  1  0  0  0  0
 14 16  1  0  0  0  0
 14 17  1  0  0  0  0
 11 12  1  0  0  0  0
 11 13  1  0  0  0  0
 11 14  1  0  0  0  0
  9 10  1  0  0  0  0
  9 11  1  0  0  0  0
  9 27  1  0  0  0  0
  7  8  1  0  0  0  0
  7  9  1  0  0  0  0
 31 32  1  0  0  0  0
 31 33  1  0  0  0  0
 31 34  1  0  0  0  0
 29 30  1  0  0  0  0
 29 31  1  0  0  0  0
M  CHG  1  23   1
M  END
$$$$
default_name
  -OEChem-01062215323D

 34 33  0     1  0  0  0  0  0999 V2000
   -3.8899   -3.6747    1.6490 H   0  0  0  0  0  0  0  0  0  0  0  0
   -3.9109   -2.6717    1.2250 C   0  0  0  0  0  0  0  0  0  0  0  0
   -4.6009   -2.0517    1.7950 H   0  0  0  0  0  0  0  0  0  0  0  0
   -4.2309   -2.7237    0.1860 H   0  0  0  0  0  0  0  0  0  0  0  0
   -2.5229   -2.0787    1.2980 C   0  0  0  0  0  0  0  0  0  0  0  0
   -1.5999   -2.7227    1.7810 O   0  0  0  0  0  0  0  0  0  0  0  0
   -2.3659   -0.8447    0.8120 N   0  0  0  0  0  0  0  0  0  0  0  0
   -3.1749   -0.3807    0.4220 H   0  0  0  0  0  0  0  0  0  0  0  0
   -1.0919   -0.1077    0.8170 C   0  0  1  0  0  0  0  0  0  0  0  0
   -1.0361    0.4736    1.7392 H   0  0  0  0  0  0  0  0  0  0  0  0
    0.0631   -1.1265    0.8008 C   0  0  0  0  0  0  0  0  0  0  0  0
   -0.0967   -1.8201   -0.0263 H   0  0  0  0  0  0  0  0  0  0  0  0
    1.0035   -0.6000    0.6262 H   0  0  0  0  0  0  0  0  0  0  0  0
    0.1724   -1.9403    2.0993 C   0  0  0  0  0  0  0  0  0  0  0  0
    0.3187   -1.2661    2.9442 H   0  0  0  0  0  0  0  0  0  0  0  0
   -0.7504   -2.5043    2.2488 H   0  0  0  0  0  0  0  0  0  0  0  0
    1.3562   -2.9144    2.0217 C   0  0  0  0  0  0  0  0  0  0  0  0
    1.2141   -3.5784    1.1657 H   0  0  0  0  0  0  0  0  0  0  0  0
    2.2772   -2.3450    1.8815 H   0  0  0  0  0  0  0  0  0  0  0  0
    1.4515   -3.7451    3.3075 C   0  0  0  0  0  0  0  0  0  0  0  0
    1.5856   -3.0621    4.1527 H   0  0  0  0  0  0  0  0  0  0  0  0
    0.5043   -4.2738    3.4509 H   0  0  0  0  0  0  0  0  0  0  0  0
    2.5753   -4.7137    3.2496 N   0  3  0  0  0  0  0  0  0  0  0  0
    3.4559   -4.2296    3.1275 H   0  0  0  0  0  0  0  0  0  0  0  0
    2.6242   -5.2537    4.1046 H   0  0  0  0  0  0  0  0  0  0  0  0
    2.4513   -5.3539    2.4739 H   0  0  0  0  0  0  0  0  0  0  0  0
   -1.0240    0.8512   -0.3738 C   0  0  0  0  0  0  0  0  0  0  0  0
   -2.0400    1.0963   -1.0135 O   0  0  0  0  0  0  0  0  0  0  0  0
    0.1741    1.3581   -0.6823 N   0  0  0  0  0  0  0  0  0  0  0  0
    0.9500    1.1285   -0.0837 H   0  0  0  0  0  0  0  0  0  0  0  0
    0.4103    2.2898   -1.7866 C   0  0  0  0  0  0  0  0  0  0  0  0
   -0.1520    3.2108   -1.6186 H   0  0  0  0  0  0  0  0  0  0  0  0
    1.4713    2.5309   -1.8614 H   0  0  0  0  0  0  0  0  0  0  0  0
    0.0740    1.8482   -2.7272 H   0  0  0  0  0  0  0  0  0  0  0  0
  5  6  2  0  0  0  0
  5  7  1  0  0  0  0
  2  3  1  0  0  0  0
  2  4  1  0  0  0  0
  2  5  1  0  0  0  0
  1  2  1  0  0  0  0
 27 28  2  0  0  0  0
 27 29  1  0  0  0  0
 23 24  1  0  0  0  0
 23 25  1  0  0  0  0
 23 26  1  0  0  0  0
 20 21  1  0  0  0  0
 20 22  1  0  0  0  0
 20 23  1  0  0  0  0
 17 18  1  0  0  0  0
 17 19  1  0  0  0  0
 17 20  1  0  0  0  0
 14 15  1  0  0  0  0
 14 16  1  0  0  0  0
 14 17  1  0  0  0  0
 11 12  1  0  0  0  0
 11 13  1  0  0  0  0
 11 14  1  0  0  0  0
  9 10  1  0  0  0  0
  9 11  1  0  0  0  0
  9 27  1  0  0  0  0
  7  8  1  0  0  0  0
  7  9  1  0  0  0  0
 31 32  1  0  0  0  0
 31 33  1  0  0  0  0
 31 34  1  0  0  0  0
 29 30  1  0  0  0  0
 29 31  1  0  0  0  0
M  CHG  1  23   1
M  END
$$$$
default_name
  -OEChem-01062215323D

 34 33  0     1  0  0  0  0  0999 V2000
   -3.8899   -3.6747    1.6490 H   0  0  0  0  0  0  0  0  0  0  0  0
   -3.9109   -2.6717    1.2250 C   0  0  0  0  0  0  0  0  0  0  0  0
   -4.6009   -2.0517    1.7950 H   0  0  0  0  0  0  0  0  0  0  0  0
   -4.2309   -2.7237    0.1860 H   0  0  0  0  0  0  0  0  0  0  0  0
   -2.5229   -2.0787    1.2980 C   0  0  0  0  0  0  0  0  0  0  0  0
   -1.5999   -2.7227    1.7810 O   0  0  0  0  0  0  0  0  0  0  0  0
   -2.3659   -0.8447    0.8120 N   0  0  0  0  0  0  0  0  0  0  0  0
   -3.1749   -0.3807    0.4220 H   0  0  0  0  0  0  0  0  0  0  0  0
   -1.0919   -0.1077    0.8170 C   0  0  1  0  0  0  0  0  0  0  0  0
   -1.0361    0.4736    1.7392 H   0  0  0  0  0  0  0  0  0  0  0  0
    0.0631   -1.1265    0.8008 C   0  0  0  0  0  0  0  0  0  0  0  0
   -0.0967   -1.8201   -0.0263 H   0  0  0  0  0  0  0  0  0  0  0  0
    1.0035   -0.6000    0.6262 H   0  0  0  0  0  0  0  0  0  0  0  0
    0.1724   -1.9403    2.0993 C   0  0  0  0  0  0  0  0  0  0  0  0
    0.3187   -1.2661    2.9442 H   0  0  0  0  0  0  0  0  0  0  0  0
   -0.7504   -2.5043    2.2488 H   0  0  0  0  0  0  0  0  0  0  0  0
    1.3562   -2.9144    2.0217 C   0  0  0  0  0  0  0  0  0  0  0  0
    1.2141   -3.5784    1.1657 H   0  0  0  0  0  0  0  0  0  0  0  0
    2.2772   -2.3450    1.8815 H   0  0  0  0  0  0  0  0  0  0  0  0
    1.4515   -3.7451    3.3075 C   0  0  0  0  0  0  0  0  0  0  0  0
    1.5856   -3.0621    4.1527 H   0  0  0  0  0  0  0  0  0  0  0  0
    0.5043   -4.2738    3.4509 H   0  0  0  0  0  0  0  0  0  0  0  0
    2.5753   -4.7137    3.2496 N   0  3  0  0  0  0  0  0  0  0  0  0
    3.4559   -4.2296    3.1275 H   0  0  0  0  0  0  0  0  0  0  0  0
    2.6242   -5.2537    4.1046 H   0  0  0  0  0  0  0  0  0  0  0  0
    2.4513   -5.3539    2.4739 H   0  0  0  0  0  0  0  0  0  0  0  0
   -1.0240    0.8512   -0.3738 C   0  0  0  0  0  0  0  0  0  0  0  0
   -2.0589    1.3128   -0.8402 O   0  0  0  0  0  0  0  0  0  0  0  0
    0.1863    1.1161   -0.8765 N   0  0  0  0  0  0  0  0  0  0  0  0
    0.9857    0.7189   -0.4115 H   0  0  0  0  0  0  0  0  0  0  0  0
    0.4251    2.0123   -2.0093 C   0  0  0  0  0  0  0  0  0  0  0  0
    0.0953    3.0222   -1.7564 H   0  0  0  0  0  0  0  0  0  0  0  0
    1.4868    2.0378   -2.2576 H   0  0  0  0  0  0  0  0  0  0  0  0
   -0.1406    1.6736   -2.8800 H   0  0  0  0  0  0  0  0  0  0  0  0
  5  6  2  0  0  0  0
  5  7  1  0  0  0  0
  2  3  1  0  0  0  0
  2  4  1  0  0  0  0
  2  5  1  0  0  0  0
  1  2  1  0  0  0  0
 27 28  2  0  0  0  0
 27 29  1  0  0  0  0
 23 24  1  0  0  0  0
 23 25  1  0  0  0  0
 23 26  1  0  0  0  0
 20 21  1  0  0  0  0
 20 22  1  0  0  0  0
 20 23  1  0  0  0  0
 17 18  1  0  0  0  0
 17 19  1  0  0  0  0
 17 20  1  0  0  0  0
 14 15  1  0  0  0  0
 14 16  1  0  0  0  0
 14 17  1  0  0  0  0
 11 12  1  0  0  0  0
 11 13  1  0  0  0  0
 11 14  1  0  0  0  0
  9 10  1  0  0  0  0
  9 11  1  0  0  0  0
  9 27  1  0  0  0  0
  7  8  1  0  0  0  0
  7  9  1  0  0  0  0
 31 32  1  0  0  0  0
 31 33  1  0  0  0  0
 31 34  1  0  0  0  0
 29 30  1  0  0  0  0
 29 31  1  0  0  0  0
M  CHG  1  23   1
M  END
$$$$
default_name
  -OEChem-01062215323D

 34 33  0     1  0  0  0  0  0999 V2000
   -3.8899   -3.6747    1.6490 H   0  0  0  0  0  0  0  0  0  0  0  0
   -3.9109   -2.6717    1.2250 C   0  0  0  0  0  0  0  0  0  0  0  0
   -4.6009   -2.0517    1.7950 H   0  0  0  0  0  0  0  0  0  0  0  0
   -4.2309   -2.7237    0.1860 H   0  0  0  0  0  0  0  0  0  0  0  0
   -2.5229   -2.0787    1.2980 C   0  0  0  0  0  0  0  0  0  0  0  0
   -1.5999   -2.7227    1.7810 O   0  0  0  0  0  0  0  0  0  0  0  0
   -2.3659   -0.8447    0.8120 N   0  0  0  0  0  0  0  0  0  0  0  0
   -3.1749   -0.3807    0.4220 H   0  0  0  0  0  0  0  0  0  0  0  0
   -1.0919   -0.1077    0.8170 C   0  0  1  0  0  0  0  0  0  0  0  0
   -1.0361    0.4736    1.7392 H   0  0  0  0  0  0  0  0  0  0  0  0
    0.0631   -1.1265    0.8008 C   0  0  0  0  0  0  0  0  0  0  0  0
   -0.0967   -1.8201   -0.0263 H   0  0  0  0  0  0  0  0  0  0  0  0
    1.0035   -0.6000    0.6262 H   0  0  0  0  0  0  0  0  0  0  0  0
    0.1724   -1.9403    2.0993 C   0  0  0  0  0  0  0  0  0  0  0  0
    0.3187   -1.2661    2.9442 H   0  0  0  0  0  0  0  0  0  0  0  0
   -0.7504   -2.5043    2.2488 H   0  0  0  0  0  0  0  0  0  0  0  0
    1.3562   -2.9144    2.0217 C   0  0  0  0  0  0  0  0  0  0  0  0
    1.2141   -3.5784    1.1657 H   0  0  0  0  0  0  0  0  0  0  0  0
    2.2772   -2.3450    1.8815 H   0  0  0  0  0  0  0  0  0  0  0  0
    1.4515   -3.7451    3.3075 C   0  0  0  0  0  0  0  0  0  0  0  0
    1.5856   -3.0621    4.1527 H   0  0  0  0  0  0  0  0  0  0  0  0
    0.5043   -4.2738    3.4509 H   0  0  0  0  0  0  0  0  0  0  0  0
    2.5753   -4.7137    3.2496 N   0  3  0  0  0  0  0  0  0  0  0  0
    3.4559   -4.2296    3.1275 H   0  0  0  0  0  0  0  0  0  0  0  0
    2.6242   -5.2537    4.1046 H   0  0  0  0  0  0  0  0  0  0  0  0
    2.4513   -5.3539    2.4739 H   0  0  0  0  0  0  0  0  0  0  0  0
   -1.0240    0.8512   -0.3738 C   0  0  0  0  0  0  0  0  0  0  0  0
   -2.0054    1.5238   -0.6673 O   0  0  0  0  0  0  0  0  0  0  0  0
    0.1178    0.8822   -1.0688 N   0  0  0  0  0  0  0  0  0  0  0  0
    0.8845    0.3199   -0.7386 H   0  0  0  0  0  0  0  0  0  0  0  0
    0.3474    1.7437   -2.2300 C   0  0  0  0  0  0  0  0  0  0  0  0
    0.2739    2.7918   -1.9318 H   0  0  0  0  0  0  0  0  0  0  0  0
    1.3382    1.5629   -2.6485 H   0  0  0  0  0  0  0  0  0  0  0  0
   -0.4077    1.5499   -2.9949 H   0  0  0  0  0  0  0  0  0  0  0  0
  5  6  2  0  0  0  0
  5  7  1  0  0  0  0
  2  3  1  0  0  0  0
  2  4  1  0  0  0  0
  2  5  1  0  0  0  0
  1  2  1  0  0  0  0
 27 28  2  0  0  0  0
 27 29  1  0  0  0  0
 23 24  1  0  0  0  0
 23 25  1  0  0  0  0
 23 26  1  0  0  0  0
 20 21  1  0  0  0  0
 20 22  1  0  0  0  0
 20 23  1  0  0  0  0
 17 18  1  0  0  0  0
 17 19  1  0  0  0  0
 17 20  1  0  0  0  0
 14 15  1  0  0  0  0
 14 16  1  0  0  0  0
 14 17  1  0  0  0  0
 11 12  1  0  0  0  0
 11 13  1  0  0  0  0
 11 14  1  0  0  0  0
  9 10  1  0  0  0  0
  9 11  1  0  0  0  0
  9 27  1  0  0  0  0
  7  8  1  0  0  0  0
  7  9  1  0  0  0  0
 31 32  1  0  0  0  0
 31 33  1  0  0  0  0
 31 34  1  0  0  0  0
 29 30  1  0  0  0  0
 29 31  1  0  0  0  0
M  CHG  1  23   1
M  END
$$$$
default_name
  -OEChem-01062215323D

 34 33  0     1  0  0  0  0  0999 V2000
   -3.8899   -3.6747    1.6490 H   0  0  0  0  0  0  0  0  0  0  0  0
   -3.9109   -2.6717    1.2250 C   0  0  0  0  0  0  0  0  0  0  0  0
   -4.6009   -2.0517    1.7950 H   0  0  0  0  0  0  0  0  0  0  0  0
   -4.2309   -2.7237    0.1860 H   0  0  0  0  0  0  0  0  0  0  0  0
   -2.5229   -2.0787    1.2980 C   0  0  0  0  0  0  0  0  0  0  0  0
   -1.5999   -2.7227    1.7810 O   0  0  0  0  0  0  0  0  0  0  0  0
   -2.3659   -0.8447    0.8120 N   0  0  0  0  0  0  0  0  0  0  0  0
   -3.1749   -0.3807    0.4220 H   0  0  0  0  0  0  0  0  0  0  0  0
   -1.0919   -0.1077    0.8170 C   0  0  1  0  0  0  0  0  0  0  0  0
   -1.0361    0.4736    1.7392 H   0  0  0  0  0  0  0  0  0  0  0  0
    0.0631   -1.1265    0.8008 C   0  0  0  0  0  0  0  0  0  0  0  0
   -0.0967   -1.8201   -0.0263 H   0  0  0  0  0  0  0  0  0  0  0  0
    1.0035   -0.6000    0.6262 H   0  0  0  0  0  0  0  0  0  0  0  0
    0.1724   -1.9403    2.0993 C   0  0  0  0  0  0  0  0  0  0  0  0
    0.3187   -1.2661    2.9442 H   0  0  0  0  0  0  0  0  0  0  0  0
   -0.7504   -2.5043    2.2488 H   0  0  0  0  0  0  0  0  0  0  0  0
    1.3562   -2.9144    2.0217 C   0  0  0  0  0  0  0  0  0  0  0  0
    1.2141   -3.5784    1.1657 H   0  0  0  0  0  0  0  0  0  0  0  0
    2.2772   -2.3450    1.8815 H   0  0  0  0  0  0  0  0  0  0  0  0
    1.4515   -3.7451    3.3075 C   0  0  0  0  0  0  0  0  0  0  0  0
    1.5856   -3.0621    4.1527 H   0  0  0  0  0  0  0  0  0  0  0  0
    0.5043   -4.2738    3.4509 H   0  0  0  0  0  0  0  0  0  0  0  0
    2.5753   -4.7137    3.2496 N   0  3  0  0  0  0  0  0  0  0  0  0
    3.4559   -4.2296    3.1275 H   0  0  0  0  0  0  0  0  0  0  0  0
    2.6242   -5.2537    4.1046 H   0  0  0  0  0  0  0  0  0  0  0  0
    2.4513   -5.3539    2.4739 H   0  0  0  0  0  0  0  0  0  0  0  0
   -1.0240    0.8512   -0.3738 C   0  0  0  0  0  0  0  0  0  0  0  0
   -1.8832    1.7148   -0.5065 O   0  0  0  0  0  0  0  0  0  0  0  0
   -0.0267    0.6722   -1.2461 N   0  0  0  0  0  0  0  0  0  0  0  0
    0.6534   -0.0414   -1.0427 H   0  0  0  0  0  0  0  0  0  0  0  0
    0.1825    1.5025   -2.4337 C   0  0  0  0  0  0  0  0  0  0  0  0
    0.3715    2.5352   -2.1328 H   0  0  0  0  0  0  0  0  0  0  0  0
    1.0356    1.1386   -3.0074 H   0  0  0  0  0  0  0  0  0  0  0  0
   -0.7093    1.4855   -3.0639 H   0  0  0  0  0  0  0  0  0  0  0  0
  5  6  2  0  0  0  0
  5  7  1  0  0  0  0
  2  3  1  0  0  0  0
  2  4  1  0  0  0  0
  2  5  1  0  0  0  0
  1  2  1  0  0  0  0
 27 28  2  0  0  0  0
 27 29  1  0  0  0  0
 23 24  1  0  0  0  0
 23 25  1  0  0  0  0
 23 26  1  0  0  0  0
 20 21  1  0  0  0  0
 20 22  1  0  0  0  0
 20 23  1  0  0  0  0
 17 18  1  0  0  0  0
 17 19  1  0  0  0  0
 17 20  1  0  0  0  0
 14 15  1  0  0  0  0
 14 16  1  0  0  0  0
 14 17  1  0  0  0  0
 11 12  1  0  0  0  0
 11 13  1  0  0  0  0
 11 14  1  0  0  0  0
  9 10  1  0  0  0  0
  9 11  1  0  0  0  0
  9 27  1  0  0  0  0
  7  8  1  0  0  0  0
  7  9  1  0  0  0  0
 31 32  1  0  0  0  0
 31 33  1  0  0  0  0
 31 34  1  0  0  0  0
 29 30  1  0  0  0  0
 29 31  1  0  0  0  0
M  CHG  1  23   1
M  END
$$$$
default_name
  -OEChem-01062215323D

 34 33  0     1  0  0  0  0  0999 V2000
   -3.8899   -3.6747    1.6490 H   0  0  0  0  0  0  0  0  0  0  0  0
   -3.9109   -2.6717    1.2250 C   0  0  0  0  0  0  0  0  0  0  0  0
   -4.6009   -2.0517    1.7950 H   0  0  0  0  0  0  0  0  0  0  0  0
   -4.2309   -2.7237    0.1860 H   0  0  0  0  0  0  0  0  0  0  0  0
   -2.5229   -2.0787    1.2980 C   0  0  0  0  0  0  0  0  0  0  0  0
   -1.5999   -2.7227    1.7810 O   0  0  0  0  0  0  0  0  0  0  0  0
   -2.3659   -0.8447    0.8120 N   0  0  0  0  0  0  0  0  0  0  0  0
   -3.1749   -0.3807    0.4220 H   0  0  0  0  0  0  0  0  0  0  0  0
   -1.0919   -0.1077    0.8170 C   0  0  1  0  0  0  0  0  0  0  0  0
   -1.0361    0.4736    1.7392 H   0  0  0  0  0  0  0  0  0  0  0  0
    0.0631   -1.1265    0.8008 C   0  0  0  0  0  0  0  0  0  0  0  0
   -0.0967   -1.8201   -0.0263 H   0  0  0  0  0  0  0  0  0  0  0  0
    1.0035   -0.6000    0.6262 H   0  0  0  0  0  0  0  0  0  0  0  0
    0.1724   -1.9403    2.0993 C   0  0  0  0  0  0  0  0  0  0  0  0
    0.3187   -1.2661    2.9442 H   0  0  0  0  0  0  0  0  0  0  0  0
   -0.7504   -2.5043    2.2488 H   0  0  0  0  0  0  0  0  0  0  0  0
    1.3562   -2.9144    2.0217 C   0  0  0  0  0  0  0  0  0  0  0  0
    1.2141   -3.5784    1.1657 H   0  0  0  0  0  0  0  0  0  0  0  0
    2.2772   -2.3450    1.8815 H   0  0  0  0  0  0  0  0  0  0  0  0
    1.4515   -3.7451    3.3075 C   0  0  0  0  0  0  0  0  0  0  0  0
    1.5856   -3.0621    4.1527 H   0  0  0  0  0  0  0  0  0  0  0  0
    0.5043   -4.2738    3.4509 H   0  0  0  0  0  0  0  0  0  0  0  0
    2.5753   -4.7137    3.2496 N   0  3  0  0  0  0  0  0  0  0  0  0
    3.4559   -4.2296    3.1275 H   0  0  0  0  0  0  0  0  0  0  0  0
    2.6242   -5.2537    4.1046 H   0  0  0  0  0  0  0  0  0  0  0  0
    2.4513   -5.3539    2.4739 H   0  0  0  0  0  0  0  0  0  0  0  0
   -1.0240    0.8512   -0.3738 C   0  0  0  0  0  0  0  0  0  0  0  0
   -1.7006    1.8729   -0.3688 O   0  0  0  0  0  0  0  0  0  0  0  0
   -0.2373    0.5005   -1.3964 N   0  0  0  0  0  0  0  0  0  0  0  0
    0.3081   -0.3403   -1.3032 H   0  0  0  0  0  0  0  0  0  0  0  0
   -0.0584    1.3051   -2.6064 C   0  0  0  0  0  0  0  0  0  0  0  0
    0.3816    2.2701   -2.3458 H   0  0  0  0  0  0  0  0  0  0  0  0
    0.5997    0.7938   -3.3100 H   0  0  0  0  0  0  0  0  0  0  0  0
   -1.0248    1.4849   -3.0824 H   0  0  0  0  0  0  0  0  0  0  0  0
  5  6  2  0  0  0  0
  5  7  1  0  0  0  0
  2  3  1  0  0  0  0
  2  4  1  0  0  0  0
  2  5  1  0  0  0  0
  1  2  1  0  0  0  0
 27 28  2  0  0  0  0
 27 29  1  0  0  0  0
 23 24  1  0  0  0  0
 23 25  1  0  0  0  0
 23 26  1  0  0  0  0
 20 21  1  0  0  0  0
 20 22  1  0  0  0  0
 20 23  1  0  0  0  0
 17 18  1  0  0  0  0
 17 19  1  0  0  0  0
 17 20  1  0  0  0  0
 14 15  1  0  0  0  0
 14 16  1  0  0  0  0
 14 17  1  0  0  0  0
 11 12  1  0  0  0  0
 11 13  1  0  0  0  0
 11 14  1  0  0  0  0
  9 10  1  0  0  0  0
  9 11  1  0  0  0  0
  9 27  1  0  0  0  0
  7  8  1  0  0  0  0
  7  9  1  0  0  0  0
 31 32  1  0  0  0  0
 31 33  1  0  0  0  0
 31 34  1  0  0  0  0
 29 30  1  0  0  0  0
 29 31  1  0  0  0  0
M  CHG  1  23   1
M  END
$$$$
default_name
  -OEChem-01062215323D

 34 33  0     1  0  0  0  0  0999 V2000
   -3.8899   -3.6747    1.6490 H   0  0  0  0  0  0  0  0  0  0  0  0
   -3.9109   -2.6717    1.2250 C   0  0  0  0  0  0  0  0  0  0  0  0
   -4.6009   -2.0517    1.7950 H   0  0  0  0  0  0  0  0  0  0  0  0
   -4.2309   -2.7237    0.1860 H   0  0  0  0  0  0  0  0  0  0  0  0
   -2.5229   -2.0787    1.2980 C   0  0  0  0  0  0  0  0  0  0  0  0
   -1.5999   -2.7227    1.7810 O   0  0  0  0  0  0  0  0  0  0  0  0
   -2.3659   -0.8447    0.8120 N   0  0  0  0  0  0  0  0  0  0  0  0
   -3.1749   -0.3807    0.4220 H   0  0  0  0  0  0  0  0  0  0  0  0
   -1.0919   -0.1077    0.8170 C   0  0  1  0  0  0  0  0  0  0  0  0
   -1.0361    0.4736    1.7392 H   0  0  0  0  0  0  0  0  0  0  0  0
    0.0631   -1.1265    0.8008 C   0  0  0  0  0  0  0  0  0  0  0  0
   -0.0967   -1.8201   -0.0263 H   0  0  0  0  0  0  0  0  0  0  0  0
    1.0035   -0.6000    0.6262 H   0  0  0  0  0  0  0  0  0  0  0  0
    0.1724   -1.9403    2.0993 C   0  0  0  0  0  0  0  0  0  0  0  0
    0.3187   -1.2661    2.9442 H   0  0  0  0  0  0  0  0  0  0  0  0
   -0.7504   -2.5043    2.2488 H   0  0  0  0  0  0  0  0  0  0  0  0
    1.3562   -2.9144    2.0217 C   0  0  0  0  0  0  0  0  0  0  0  0
    1.2141   -3.5784    1.1657 H   0  0  0  0  0  0  0  0  0  0  0  0
    2.2772   -2.3450    1.8815 H   0  0  0  0  0  0  0  0  0  0  0  0
    1.4515   -3.7451    3.3075 C   0  0  0  0  0  0  0  0  0  0  0  0
    1.5856   -3.0621    4.1527 H   0  0  0  0  0  0  0  0  0  0  0  0
    0.5043   -4.2738    3.4509 H   0  0  0  0  0  0  0  0  0  0  0  0
    2.5753   -4.7137    3.2496 N   0  3  0  0  0  0  0  0  0  0  0  0
    3.4559   -4.2296    3.1275 H   0  0  0  0  0  0  0  0  0  0  0  0
    2.6242   -5.2537    4.1046 H   0  0  0  0  0  0  0  0  0  0  0  0
    2.4513   -5.3539    2.4739 H   0  0  0  0  0  0  0  0  0  0  0  0
   -1.0240    0.8512   -0.3738 C   0  0  0  0  0  0  0  0  0  0  0  0
   -1.4701    1.9872   -0.2636 O   0  0  0  0  0  0  0  0  0  0  0  0
   -0.4997    0.3788   -1.5093 N   0  0  0  0  0  0  0  0  0  0  0  0
   -0.1280   -0.5566   -1.5021 H   0  0  0  0  0  0  0  0  0  0  0  0
   -0.3588    1.1648   -2.7365 C   0  0  0  0  0  0  0  0  0  0  0  0
    0.3034    2.0144   -2.5562 H   0  0  0  0  0  0  0  0  0  0  0  0
    0.0602    0.5521   -3.5354 H   0  0  0  0  0  0  0  0  0  0  0  0
   -1.3326    1.5480   -3.0491 H   0  0  0  0  0  0  0  0  0  0  0  0
  5  6  2  0  0  0  0
  5  7  1  0  0  0  0
  2  3  1  0  0  0  0
  2  4  1  0  0  0  0
  2  5  1  0  0  0  0
  1  2  1  0  0  0  0
 27 28  2  0  0  0  0
 27 29  1  0  0  0  0
 23 24  1  0  0  0  0
 23 25  1  0  0  0  0
 23 26  1  0  0  0  0
 20 21  1  0  0  0  0
 20 22  1  0  0  0  0
 20 23  1  0  0  0  0
 17 18  1  0  0  0  0
 17 19  1  0  0  0  0
 17 20  1  0  0  0  0
 14 15  1  0  0  0  0
 14 16  1  0  0  0  0
 14 17  1  0  0  0  0
 11 12  1  0  0  0  0
 11 13  1  0  0  0  0
 11 14  1  0  0  0  0
  9 10  1  0  0  0  0
  9 11  1  0  0  0  0
  9 27  1  0  0  0  0
  7  8  1  0  0  0  0
  7  9  1  0  0  0  0
 31 32  1  0  0  0  0
 31 33  1  0  0  0  0
 31 34  1  0  0  0  0
 29 30  1  0  0  0  0
 29 31  1  0  0  0  0
M  CHG  1  23   1
M  END
$$$$
default_name
  -OEChem-01062215323D

 34 33  0     1  0  0  0  0  0999 V2000
   -3.8899   -3.6747    1.6490 H   0  0  0  0  0  0  0  0  0  0  0  0
   -3.9109   -2.6717    1.2250 C   0  0  0  0  0  0  0  0  0  0  0  0
   -4.6009   -2.0517    1.7950 H   0  0  0  0  0  0  0  0  0  0  0  0
   -4.2309   -2.7237    0.1860 H   0  0  0  0  0  0  0  0  0  0  0  0
   -2.5229   -2.0787    1.2980 C   0  0  0  0  0  0  0  0  0  0  0  0
   -1.5999   -2.7227    1.7810 O   0  0  0  0  0  0  0  0  0  0  0  0
   -2.3659   -0.8447    0.8120 N   0  0  0  0  0  0  0  0  0  0  0  0
   -3.1749   -0.3807    0.4220 H   0  0  0  0  0  0  0  0  0  0  0  0
   -1.0919   -0.1077    0.8170 C   0  0  1  0  0  0  0  0  0  0  0  0
   -1.0361    0.4736    1.7392 H   0  0  0  0  0  0  0  0  0  0  0  0
    0.0631   -1.1265    0.8008 C   0  0  0  0  0  0  0  0  0  0  0  0
   -0.0967   -1.8201   -0.0263 H   0  0  0  0  0  0  0  0  0  0  0  0
    1.0035   -0.6000    0.6262 H   0  0  0  0  0  0  0  0  0  0  0  0
    0.1724   -1.9403    2.0993 C   0  0  0  0  0  0  0  0  0  0  0  0
    0.3187   -1.2661    2.9442 H   0  0  0  0  0  0  0  0  0  0  0  0
   -0.7504   -2.5043    2.2488 H   0  0  0  0  0  0  0  0  0  0  0  0
    1.3562   -2.9144    2.0217 C   0  0  0  0  0  0  0  0  0  0  0  0
    1.2141   -3.5784    1.1657 H   0  0  0  0  0  0  0  0  0  0  0  0
    2.2772   -2.3450    1.8815 H   0  0  0  0  0  0  0  0  0  0  0  0
    1.4515   -3.7451    3.3075 C   0  0  0  0  0  0  0  0  0  0  0  0
    1.5856   -3.0621    4.1527 H   0  0  0  0  0  0  0  0  0  0  0  0
    0.5043   -4.2738    3.4509 H   0  0  0  0  0  0  0  0  0  0  0  0
    2.5753   -4.7137    3.2496 N   0  3  0  0  0  0  0  0  0  0  0  0
    3.4559   -4.2296    3.1275 H   0  0  0  0  0  0  0  0  0  0  0  0
    2.6242   -5.2537    4.1046 H   0  0  0  0  0  0  0  0  0  0  0  0
    2.4513   -5.3539    2.4739 H   0  0  0  0  0  0  0  0  0  0  0  0
   -1.0240    0.8512   -0.3738 C   0  0  0  0  0  0  0  0  0  0  0  0
   -1.2073    2.0500   -0.1980 O   0  0  0  0  0  0  0  0  0  0  0  0
   -0.7959    0.3154   -1.5773 N   0  0  0  0  0  0  0  0  0  0  0  0
   -0.6249   -0.6753   -1.6261 H   0  0  0  0  0  0  0  0  0  0  0  0
   -0.6984    1.0914   -2.8150 C   0  0  0  0  0  0  0  0  0  0  0  0
    0.1422    1.7855   -2.7496 H   0  0  0  0  0  0  0  0  0  0  0  0
   -0.5463    0.4298   -3.6685 H   0  0  0  0  0  0  0  0  0  0  0  0
   -1.6119    1.6706   -2.9663 H   0  0  0  0  0  0  0  0  0  0  0  0
  5  6  2  0  0  0  0
  5  7  1  0  0  0  0
  2  3  1  0  0  0  0
  2  4  1  0  0  0  0
  2  5  1  0  0  0  0
  1  2  1  0  0  0  0
 27 28  2  0  0  0  0
 27 29  1  0  0  0  0
 23 24  1  0  0  0  0
 23 25  1  0  0  0  0
 23 26  1  0  0  0  0
 20 21  1  0  0  0  0
 20 22  1  0  0  0  0
 20 23  1  0  0  0  0
 17 18  1  0  0  0  0
 17 19  1  0  0  0  0
 17 20  1  0  0  0  0
 14 15  1  0  0  0  0
 14 16  1  0  0  0  0
 14 17  1  0  0  0  0
 11 12  1  0  0  0  0
 11 13  1  0  0  0  0
 11 14  1  0  0  0  0
  9 10  1  0  0  0  0
  9 11  1  0  0  0  0
  9 27  1  0  0  0  0
  7  8  1  0  0  0  0
  7  9  1  0  0  0  0
 31 32  1  0  0  0  0
 31 33  1  0  0  0  0
 31 34  1  0  0  0  0
 29 30  1  0  0  0  0
 29 31  1  0  0  0  0
M  CHG  1  23   1
M  END
$$$$
default_name
  -OEChem-01062215323D

 34 33  0     1  0  0  0  0  0999 V2000
   -3.8899   -3.6747    1.6490 H   0  0  0  0  0  0  0  0  0  0  0  0
   -3.9109   -2.6717    1.2250 C   0  0  0  0  0  0  0  0  0  0  0  0
   -4.6009   -2.0517    1.7950 H   0  0  0  0  0  0  0  0  0  0  0  0
   -4.2309   -2.7237    0.1860 H   0  0  0  0  0  0  0  0  0  0  0  0
   -2.5229   -2.0787    1.2980 C   0  0  0  0  0  0  0  0  0  0  0  0
   -1.5999   -2.7227    1.7810 O   0  0  0  0  0  0  0  0  0  0  0  0
   -2.3659   -0.8447    0.8120 N   0  0  0  0  0  0  0  0  0  0  0  0
   -3.1749   -0.3807    0.4220 H   0  0  0  0  0  0  0  0  0  0  0  0
   -1.0919   -0.1077    0.8170 C   0  0  1  0  0  0  0  0  0  0  0  0
   -1.0361    0.4736    1.7392 H   0  0  0  0  0  0  0  0  0  0  0  0
    0.0631   -1.1265    0.8008 C   0  0  0  0  0  0  0  0  0  0  0  0
   -0.0967   -1.8201   -0.0263 H   0  0  0  0  0  0  0  0  0  0  0  0
    1.0035   -0.6000    0.6262 H   0  0  0  0  0  0  0  0  0  0  0  0
    0.1724   -1.9403    2.0993 C   0  0  0  0  0  0  0  0  0  0  0  0
    0.3187   -1.2661    2.9442 H   0  0  0  0  0  0  0  0  0  0  0  0
   -0.7504   -2.5043    2.2488 H   0  0  0  0  0  0  0  0  0  0  0  0
    1.3562   -2.9144    2.0217 C   0  0  0  0  0  0  0  0  0  0  0  0
    1.2141   -3.5784    1.1657 H   0  0  0  0  0  0  0  0  0  0  0  0
    2.2772   -2.3450    1.8815 H   0  0  0  0  0  0  0  0  0  0  0  0
    1.4515   -3.7451    3.3075 C   0  0  0  0  0  0  0  0  0  0  0  0
    1.5856   -3.0621    4.1527 H   0  0  0  0  0  0  0  0  0  0  0  0
    0.5043   -4.2738    3.4509 H   0  0  0  0  0  0  0  0  0  0  0  0
    2.5753   -4.7137    3.2496 N   0  3  0  0  0  0  0  0  0  0  0  0
    3.4559   -4.2296    3.1275 H   0  0  0  0  0  0  0  0  0  0  0  0
    2.6242   -5.2537    4.1046 H   0  0  0  0  0  0  0  0  0  0  0  0
    2.4513   -5.3539    2.4739 H   0  0  0  0  0  0  0  0  0  0  0  0
   -1.0240    0.8512   -0.3738 C   0  0  0  0  0  0  0  0  0  0  0  0
   -0.9302    2.0570   -0.1766 O   0  0  0  0  0  0  0  0  0  0  0  0
   -1.1058    0.3145   -1.5957 N   0  0  0  0  0  0  0  0  0  0  0  0
   -1.1490   -0.6886   -1.6667 H   0  0  0  0  0  0  0  0  0  0  0  0
   -1.0539    1.0897   -2.8366 C   0  0  0  0  0  0  0  0  0  0  0  0
   -0.0909    1.5992   -2.9130 H   0  0  0  0  0  0  0  0  0  0  0  0
   -1.1782    0.4353   -3.7001 H   0  0  0  0  0  0  0  0  0  0  0  0
   -1.8435    1.8443   -2.8396 H   0  0  0  0  0  0  0  0  0  0  0  0
  5  6  2  0  0  0  0
  5  7  1  0  0  0  0
  2  3  1  0  0  0  0
  2  4  1  0  0  0  0
  2  5  1  0  0  0  0
  1  2  1  0  0  0  0
 27 28  2  0  0  0  0
 27 29  1  0  0  0  0
 23 24  1  0  0  0  0
 23 25  1  0  0  0  0
 23 26  1  0  0  0  0
 20 21  1  0  0  0  0
 20 22  1  0  0  0  0
 20 23  1  0  0  0  0
 17 18  1  0  0  0  0
 17 19  1  0  0  0  0
 17 20  1  0  0  0  0
 14 15  1  0  0  0  0
 14 16  1  0  0  0  0
 14 17  1  0  0  0  0
 11 12  1  0  0  0  0
 11 13  1  0  0  0  0
 11 14  1  0  0  0  0
  9 10  1  0  0  0  0
  9 11  1  0  0  0  0
  9 27  1  0  0  0  0
  7  8  1  0  0  0  0
  7  9  1  0  0  0  0
 31 32  1  0  0  0  0
 31 33  1  0  0  0  0
 31 34  1  0  0  0  0
 29 30  1  0  0  0  0
 29 31  1  0  0  0  0
M  CHG  1  23   1
M  END
$$$$
default_name
  -OEChem-01062215323D

 34 33  0     1  0  0  0  0  0999 V2000
   -3.8899   -3.6747    1.6490 H   0  0  0  0  0  0  0  0  0  0  0  0
   -3.9109   -2.6717    1.2250 C   0  0  0  0  0  0  0  0  0  0  0  0
   -4.6009   -2.0517    1.7950 H   0  0  0  0  0  0  0  0  0  0  0  0
   -4.2309   -2.7237    0.1860 H   0  0  0  0  0  0  0  0  0  0  0  0
   -2.5229   -2.0787    1.2980 C   0  0  0  0  0  0  0  0  0  0  0  0
   -1.5999   -2.7227    1.7810 O   0  0  0  0  0  0  0  0  0  0  0  0
   -2.3659   -0.8447    0.8120 N   0  0  0  0  0  0  0  0  0  0  0  0
   -3.1749   -0.3807    0.4220 H   0  0  0  0  0  0  0  0  0  0  0  0
   -1.0919   -0.1077    0.8170 C   0  0  1  0  0  0  0  0  0  0  0  0
   -1.0361    0.4736    1.7392 H   0  0  0  0  0  0  0  0  0  0  0  0
    0.0631   -1.1265    0.8008 C   0  0  0  0  0  0  0  0  0  0  0  0
   -0.0967   -1.8201   -0.0263 H   0  0  0  0  0  0  0  0  0  0  0  0
    1.0035   -0.6000    0.6262 H   0  0  0  0  0  0  0  0  0  0  0  0
    0.1724   -1.9403    2.0993 C   0  0  0  0  0  0  0  0  0  0  0  0
    0.3187   -1.2661    2.9442 H   0  0  0  0  0  0  0  0  0  0  0  0
   -0.7504   -2.5043    2.2488 H   0  0  0  0  0  0  0  0  0  0  0  0
    1.3562   -2.9144    2.0217 C   0  0  0  0  0  0  0  0  0  0  0  0
    1.2141   -3.5784    1.1657 H   0  0  0  0  0  0  0  0  0  0  0  0
    2.2772   -2.3450    1.8815 H   0  0  0  0  0  0  0  0  0  0  0  0
    1.4515   -3.7451    3.3075 C   0  0  0  0  0  0  0  0  0  0  0  0
    1.5856   -3.0621    4.1527 H   0  0  0  0  0  0  0  0  0  0  0  0
    0.5043   -4.2738    3.4509 H   0  0  0  0  0  0  0  0  0  0  0  0
    2.5753   -4.7137    3.2496 N   0  3  0  0  0  0  0  0  0  0  0  0
    3.4559   -4.2296    3.1275 H   0  0  0  0  0  0  0  0  0  0  0  0
    2.6242   -5.2537    4.1046 H   0  0  0  0  0  0  0  0  0  0  0  0
    2.4513   -5.3539    2.4739 H   0  0  0  0  0  0  0  0  0  0  0  0
   -1.0240    0.8512   -0.3738 C   0  0  0  0  0  0  0  0  0  0  0  0
   -0.6577    2.0077   -0.2008 O   0  0  0  0  0  0  0  0  0  0  0  0
   -1.4084    0.3764   -1.5631 N   0  0  0  0  0  0  0  0  0  0  0  0
   -1.6645   -0.5953   -1.6210 H   0  0  0  0  0  0  0  0  0  0  0  0
   -1.4011    1.1600   -2.7998 C   0  0  0  0  0  0  0  0  0  0  0  0
   -0.3801    1.4680   -3.0351 H   0  0  0  0  0  0  0  0  0  0  0  0
   -1.7927    0.5683   -3.6280 H   0  0  0  0  0  0  0  0  0  0  0  0
   -2.0117    2.0573   -2.6777 H   0  0  0  0  0  0  0  0  0  0  0  0
  5  6  2  0  0  0  0
  5  7  1  0  0  0  0
  2  3  1  0  0  0  0
  2  4  1  0  0  0  0
  2  5  1  0  0  0  0
  1  2  1  0  0  0  0
 27 28  2  0  0  0  0
 27 29  1  0  0  0  0
 23 24  1  0  0  0  0
 23 25  1  0  0  0  0
 23 26  1  0  0  0  0
 20 21  1  0  0  0  0
 20 22  1  0  0  0  0
 20 23  1  0  0  0  0
 17 18  1  0  0  0  0
 17 19  1  0  0  0  0
 17 20  1  0  0  0  0
 14 15  1  0  0  0  0
 14 16  1  0  0  0  0
 14 17  1  0  0  0  0
 11 12  1  0  0  0  0
 11 13  1  0  0  0  0
 11 14  1  0  0  0  0
  9 10  1  0  0  0  0
  9 11  1  0  0  0  0
  9 27  1  0  0  0  0
  7  8  1  0  0  0  0
  7  9  1  0  0  0  0
 31 32  1  0  0  0  0
 31 33  1  0  0  0  0
 31 34  1  0  0  0  0
 29 30  1  0  0  0  0
 29 31  1  0  0  0  0
M  CHG  1  23   1
M  END
$$$$
default_name
  -OEChem-01062215323D

 34 33  0     1  0  0  0  0  0999 V2000
   -3.8899   -3.6747    1.6490 H   0  0  0  0  0  0  0  0  0  0  0  0
   -3.9109   -2.6717    1.2250 C   0  0  0  0  0  0  0  0  0  0  0  0
   -4.6009   -2.0517    1.7950 H   0  0  0  0  0  0  0  0  0  0  0  0
   -4.2309   -2.7237    0.1860 H   0  0  0  0  0  0  0  0  0  0  0  0
   -2.5229   -2.0787    1.2980 C   0  0  0  0  0  0  0  0  0  0  0  0
   -1.5999   -2.7227    1.7810 O   0  0  0  0  0  0  0  0  0  0  0  0
   -2.3659   -0.8447    0.8120 N   0  0  0  0  0  0  0  0  0  0  0  0
   -3.1749   -0.3807    0.4220 H   0  0  0  0  0  0  0  0  0  0  0  0
   -1.0919   -0.1077    0.8170 C   0  0  1  0  0  0  0  0  0  0  0  0
   -1.0361    0.4736    1.7392 H   0  0  0  0  0  0  0  0  0  0  0  0
    0.0631   -1.1265    0.8008 C   0  0  0  0  0  0  0  0  0  0  0  0
   -0.0967   -1.8201   -0.0263 H   0  0  0  0  0  0  0  0  0  0  0  0
    1.0035   -0.6000    0.6262 H   0  0  0  0  0  0  0  0  0  0  0  0
    0.1724   -1.9403    2.0993 C   0  0  0  0  0  0  0  0  0  0  0  0
    0.3187   -1.2661    2.9442 H   0  0  0  0  0  0  0  0  0  0  0  0
   -0.7504   -2.5043    2.2488 H   0  0  0  0  0  0  0  0  0  0  0  0
    1.3562   -2.9144    2.0217 C   0  0  0  0  0  0  0  0  0  0  0  0
    1.2141   -3.5784    1.1657 H   0  0  0  0  0  0  0  0  0  0  0  0
    2.2772   -2.3450    1.8815 H   0  0  0  0  0  0  0  0  0  0  0  0
    1.4515   -3.7451    3.3075 C   0  0  0  0  0  0  0  0  0  0  0  0
    1.5856   -3.0621    4.1527 H   0  0  0  0  0  0  0  0  0  0  0  0
    0.5043   -4.2738    3.4509 H   0  0  0  0  0  0  0  0  0  0  0  0
    2.5753   -4.7137    3.2496 N   0  3  0  0  0  0  0  0  0  0  0  0
    3.4559   -4.2296    3.1275 H   0  0  0  0  0  0  0  0  0  0  0  0
    2.6242   -5.2537    4.1046 H   0  0  0  0  0  0  0  0  0  0  0  0
    2.4513   -5.3539    2.4739 H   0  0  0  0  0  0  0  0  0  0  0  0
   -1.0240    0.8512   -0.3738 C   0  0  0  0  0  0  0  0  0  0  0  0
   -0.4083    1.9055   -0.2689 O   0  0  0  0  0  0  0  0  0  0  0  0
   -1.6829    0.4966   -1.4819 N   0  0  0  0  0  0  0  0  0  0  0  0
   -2.1361   -0.4020   -1.4922 H   0  0  0  0  0  0  0  0  0  0  0  0
   -1.7164    1.2973   -2.7072 C   0  0  0  0  0  0  0  0  0  0  0  0
   -0.7057    1.4010   -3.1077 H   0  0  0  0  0  0  0  0  0  0  0  0
   -2.3477    0.8196   -3.4573 H   0  0  0  0  0  0  0  0  0  0  0  0
   -2.1050    2.2950   -2.4916 H   0  0  0  0  0  0  0  0  0  0  0  0
  5  6  2  0  0  0  0
  5  7  1  0  0  0  0
  2  3  1  0  0  0  0
  2  4  1  0  0  0  0
  2  5  1  0  0  0  0
  1  2  1  0  0  0  0
 27 28  2  0  0  0  0
 27 29  1  0  0  0  0
 23 24  1  0  0  0  0
 23 25  1  0  0  0  0
 23 26  1  0  0  0  0
 20 21  1  0  0  0  0
 20 22  1  0  0  0  0
 20 23  1  0  0  0  0
 17 18  1  0  0  0  0
 17 19  1  0  0  0  0
 17 20  1  0  0  0  0
 14 15  1  0  0  0  0
 14 16  1  0  0  0  0
 14 17  1  0  0  0  0
 11 12  1  0  0  0  0
 11 13  1  0  0  0  0
 11 14  1  0  0  0  0
  9 10  1  0  0  0  0
  9 11  1  0  0  0  0
  9 27  1  0  0  0  0
  7  8  1  0  0  0  0
  7  9  1  0  0  0  0
 31 32  1  0  0  0  0
 31 33  1  0  0  0  0
 31 34  1  0  0  0  0
 29 30  1  0  0  0  0
 29 31  1  0  0  0  0
M  CHG  1  23   1
M  END
$$$$
default_name
  -OEChem-01062215323D

 34 33  0     1  0  0  0  0  0999 V2000
   -3.8899   -3.6747    1.6490 H   0  0  0  0  0  0  0  0  0  0  0  0
   -3.9109   -2.6717    1.2250 C   0  0  0  0  0  0  0  0  0  0  0  0
   -4.6009   -2.0517    1.7950 H   0  0  0  0  0  0  0  0  0  0  0  0
   -4.2309   -2.7237    0.1860 H   0  0  0  0  0  0  0  0  0  0  0  0
   -2.5229   -2.0787    1.2980 C   0  0  0  0  0  0  0  0  0  0  0  0
   -1.5999   -2.7227    1.7810 O   0  0  0  0  0  0  0  0  0  0  0  0
   -2.3659   -0.8447    0.8120 N   0  0  0  0  0  0  0  0  0  0  0  0
   -3.1749   -0.3807    0.4220 H   0  0  0  0  0  0  0  0  0  0  0  0
   -1.0919   -0.1077    0.8170 C   0  0  1  0  0  0  0  0  0  0  0  0
   -1.0361    0.4736    1.7392 H   0  0  0  0  0  0  0  0  0  0  0  0
    0.0631   -1.1265    0.8008 C   0  0  0  0  0  0  0  0  0  0  0  0
   -0.0967   -1.8201   -0.0263 H   0  0  0  0  0  0  0  0  0  0  0  0
    1.0035   -0.6000    0.6262 H   0  0  0  0  0  0  0  0  0  0  0  0
    0.1724   -1.9403    2.0993 C   0  0  0  0  0  0  0  0  0  0  0  0
    0.3187   -1.2661    2.9442 H   0  0  0  0  0  0  0  0  0  0  0  0
   -0.7504   -2.5043    2.2488 H   0  0  0  0  0  0  0  0  0  0  0  0
    1.3562   -2.9144    2.0217 C   0  0  0  0  0  0  0  0  0  0  0  0
    1.2141   -3.5784    1.1657 H   0  0  0  0  0  0  0  0  0  0  0  0
    2.2772   -2.3450    1.8815 H   0  0  0  0  0  0  0  0  0  0  0  0
    1.4515   -3.7451    3.3075 C   0  0  0  0  0  0  0  0  0  0  0  0
    1.5856   -3.0621    4.1527 H   0  0  0  0  0  0  0  0  0  0  0  0
    0.5043   -4.2738    3.4509 H   0  0  0  0  0  0  0  0  0  0  0  0
    2.5753   -4.7137    3.2496 N   0  3  0  0  0  0  0  0  0  0  0  0
    3.4559   -4.2296    3.1275 H   0  0  0  0  0  0  0  0  0  0  0  0
    2.6242   -5.2537    4.1046 H   0  0  0  0  0  0  0  0  0  0  0  0
    2.4513   -5.3539    2.4739 H   0  0  0  0  0  0  0  0  0  0  0  0
   -1.0240    0.8512   -0.3738 C   0  0  0  0  0  0  0  0  0  0  0  0
   -0.1991    1.7573   -0.3763 O   0  0  0  0  0  0  0  0  0  0  0  0
   -1.9106    0.6672   -1.3576 N   0  0  0  0  0  0  0  0  0  0  0  0
   -2.5319   -0.1217   -1.2890 H   0  0  0  0  0  0  0  0  0  0  0  0
   -1.9783    1.4924   -2.5650 C   0  0  0  0  0  0  0  0  0  0  0  0
   -1.0455    1.4026   -3.1258 H   0  0  0  0  0  0  0  0  0  0  0  0
   -2.8055    1.1722   -3.1994 H   0  0  0  0  0  0  0  0  0  0  0  0
   -2.1171    2.5413   -2.2939 H   0  0  0  0  0  0  0  0  0  0  0  0
  5  6  2  0  0  0  0
  5  7  1  0  0  0  0
  2  3  1  0  0  0  0
  2  4  1  0  0  0  0
  2  5  1  0  0  0  0
  1  2  1  0  0  0  0
 27 28  2  0  0  0  0
 27 29  1  0  0  0  0
 23 24  1  0  0  0  0
 23 25  1  0  0  0  0
 23 26  1  0  0  0  0
 20 21  1  0  0  0  0
 20 22  1  0  0  0  0
 20 23  1  0  0  0  0
 17 18  1  0  0  0  0
 17 19  1  0  0  0  0
 17 20  1  0  0  0  0
 14 15  1  0  0  0  0
 14 16  1  0  0  0  0
 14 17  1  0  0  0  0
 11 12  1  0  0  0  0
 11 13  1  0  0  0  0
 11 14  1  0  0  0  0
  9 10  1  0  0  0  0
  9 11  1  0  0  0  0
  9 27  1  0  0  0  0
  7  8  1  0  0  0  0
  7  9  1  0  0  0  0
 31 32  1  0  0  0  0
 31 33  1  0  0  0  0
 31 34  1  0  0  0  0
 29 30  1  0  0  0  0
 29 31  1  0  0  0  0
M  CHG  1  23   1
M  END
$$$$
default_name
  -OEChem-01062215323D

 34 33  0     1  0  0  0  0  0999 V2000
   -3.8899   -3.6747    1.6490 H   0  0  0  0  0  0  0  0  0  0  0  0
   -3.9109   -2.6717    1.2250 C   0  0  0  0  0  0  0  0  0  0  0  0
   -4.6009   -2.0517    1.7950 H   0  0  0  0  0  0  0  0  0  0  0  0
   -4.2309   -2.7237    0.1860 H   0  0  0  0  0  0  0  0  0  0  0  0
   -2.5229   -2.0787    1.2980 C   0  0  0  0  0  0  0  0  0  0  0  0
   -1.5999   -2.7227    1.7810 O   0  0  0  0  0  0  0  0  0  0  0  0
   -2.3659   -0.8447    0.8120 N   0  0  0  0  0  0  0  0  0  0  0  0
   -3.1749   -0.3807    0.4220 H   0  0  0  0  0  0  0  0  0  0  0  0
   -1.0919   -0.1077    0.8170 C   0  0  1  0  0  0  0  0  0  0  0  0
   -1.0361    0.4736    1.7392 H   0  0  0  0  0  0  0  0  0  0  0  0
    0.0631   -1.1265    0.8008 C   0  0  0  0  0  0  0  0  0  0  0  0
   -0.0967   -1.8201   -0.0263 H   0  0  0  0  0  0  0  0  0  0  0  0
    1.0035   -0.6000    0.6262 H   0  0  0  0  0  0  0  0  0  0  0  0
    0.1724   -1.9403    2.0993 C   0  0  0  0  0  0  0  0  0  0  0  0
    0.3187   -1.2661    2.9442 H   0  0  0  0  0  0  0  0  0  0  0  0
   -0.7504   -2.5043    2.2488 H   0  0  0  0  0  0  0  0  0  0  0  0
    1.3562   -2.9144    2.0217 C   0  0  0  0  0  0  0  0  0  0  0  0
    1.2141   -3.5784    1.1657 H   0  0  0  0  0  0  0  0  0  0  0  0
    2.2772   -2.3450    1.8815 H   0  0  0  0  0  0  0  0  0  0  0  0
    1.4515   -3.7451    3.3075 C   0  0  0  0  0  0  0  0  0  0  0  0
    1.5856   -3.0621    4.1527 H   0  0  0  0  0  0  0  0  0  0  0  0
    0.5043   -4.2738    3.4509 H   0  0  0  0  0  0  0  0  0  0  0  0
    2.5753   -4.7137    3.2496 N   0  3  0  0  0  0  0  0  0  0  0  0
    3.4559   -4.2296    3.1275 H   0  0  0  0  0  0  0  0  0  0  0  0
    2.6242   -5.2537    4.1046 H   0  0  0  0  0  0  0  0  0  0  0  0
    2.4513   -5.3539    2.4739 H   0  0  0  0  0  0  0  0  0  0  0  0
   -1.0240    0.8512   -0.3738 C   0  0  0  0  0  0  0  0  0  0  0  0
   -0.0442    1.5733   -0.5156 O   0  0  0  0  0  0  0  0  0  0  0  0
   -2.0761    0.8763   -1.1986 N   0  0  0  0  0  0  0  0  0  0  0  0
   -2.8249    0.2264   -1.0254 H   0  0  0  0  0  0  0  0  0  0  0  0
   -2.1689    1.7320   -2.3829 C   0  0  0  0  0  0  0  0  0  0  0  0
   -1.3762    1.4728   -3.0881 H   0  0  0  0  0  0  0  0  0  0  0  0
   -3.1349    1.6020   -2.8721 H   0  0  0  0  0  0  0  0  0  0  0  0
   -2.0471    2.7794   -2.0982 H   0  0  0  0  0  0  0  0  0  0  0  0
  5  6  2  0  0  0  0
  5  7  1  0  0  0  0
  2  3  1  0  0  0  0
  2  4  1  0  0  0  0
  2  5  1  0  0  0  0
  1  2  1  0  0  0  0
 27 28  2  0  0  0  0
 27 29  1  0  0  0  0
 23 24  1  0  0  0  0
 23 25  1  0  0  0  0
 23 26  1  0  0  0  0
 20 21  1  0  0  0  0
 20 22  1  0  0  0  0
 20 23  1  0  0  0  0
 17 18  1  0  0  0  0
 17 19  1  0  0  0  0
 17 20  1  0  0  0  0
 14 15  1  0  0  0  0
 14 16  1  0  0  0  0
 14 17  1  0  0  0  0
 11 12  1  0  0  0  0
 11 13  1  0  0  0  0
 11 14  1  0  0  0  0
  9 10  1  0  0  0  0
  9 11  1  0  0  0  0
  9 27  1  0  0  0  0
  7  8  1  0  0  0  0
  7  9  1  0  0  0  0
 31 32  1  0  0  0  0
 31 33  1  0  0  0  0
 31 34  1  0  0  0  0
 29 30  1  0  0  0  0
 29 31  1  0  0  0  0
M  CHG  1  23   1
M  END
$$$$
default_name
  -OEChem-01062215323D

 34 33  0     1  0  0  0  0  0999 V2000
   -3.8899   -3.6747    1.6490 H   0  0  0  0  0  0  0  0  0  0  0  0
   -3.9109   -2.6717    1.2250 C   0  0  0  0  0  0  0  0  0  0  0  0
   -4.6009   -2.0517    1.7950 H   0  0  0  0  0  0  0  0  0  0  0  0
   -4.2309   -2.7237    0.1860 H   0  0  0  0  0  0  0  0  0  0  0  0
   -2.5229   -2.0787    1.2980 C   0  0  0  0  0  0  0  0  0  0  0  0
   -1.5999   -2.7227    1.7810 O   0  0  0  0  0  0  0  0  0  0  0  0
   -2.3659   -0.8447    0.8120 N   0  0  0  0  0  0  0  0  0  0  0  0
   -3.1749   -0.3807    0.4220 H   0  0  0  0  0  0  0  0  0  0  0  0
   -1.0919   -0.1077    0.8170 C   0  0  1  0  0  0  0  0  0  0  0  0
   -1.0361    0.4736    1.7392 H   0  0  0  0  0  0  0  0  0  0  0  0
    0.0631   -1.1265    0.8008 C   0  0  0  0  0  0  0  0  0  0  0  0
   -0.0967   -1.8201   -0.0263 H   0  0  0  0  0  0  0  0  0  0  0  0
    1.0035   -0.6000    0.6262 H   0  0  0  0  0  0  0  0  0  0  0  0
    0.1724   -1.9403    2.0993 C   0  0  0  0  0  0  0  0  0  0  0  0
    0.3187   -1.2661    2.9442 H   0  0  0  0  0  0  0  0  0  0  0  0
   -0.7504   -2.5043    2.2488 H   0  0  0  0  0  0  0  0  0  0  0  0
    1.3562   -2.9144    2.0217 C   0  0  0  0  0  0  0  0  0  0  0  0
    1.2141   -3.5784    1.1657 H   0  0  0  0  0  0  0  0  0  0  0  0
    2.2772   -2.3450    1.8815 H   0  0  0  0  0  0  0  0  0  0  0  0
    1.4515   -3.7451    3.3075 C   0  0  0  0  0  0  0  0  0  0  0  0
    1.5856   -3.0621    4.1527 H   0  0  0  0  0  0  0  0  0  0  0  0
    0.5043   -4.2738    3.4509 H   0  0  0  0  0  0  0  0  0  0  0  0
    2.5753   -4.7137    3.2496 N   0  3  0  0  0  0  0  0  0  0  0  0
    3.4559   -4.2296    3.1275 H   0  0  0  0  0  0  0  0  0  0  0  0
    2.6242   -5.2537    4.1046 H   0  0  0  0  0  0  0  0  0  0  0  0
    2.4513   -5.3539    2.4739 H   0  0  0  0  0  0  0  0  0  0  0  0
   -1.0240    0.8512   -0.3738 C   0  0  0  0  0  0  0  0  0  0  0  0
    0.0457    1.3659   -0.6775 O   0  0  0  0  0  0  0  0  0  0  0  0
   -2.1680    1.1098   -1.0158 N   0  0  0  0  0  0  0  0  0  0  0  0
   -2.9950    0.6185   -0.7193 H   0  0  0  0  0  0  0  0  0  0  0  0
   -2.2752    1.9997   -2.1734 C   0  0  0  0  0  0  0  0  0  0  0  0
   -1.6755    1.6068   -2.9972 H   0  0  0  0  0  0  0  0  0  0  0  0
   -3.3135    2.0797   -2.4975 H   0  0  0  0  0  0  0  0  0  0  0  0
   -1.8998    2.9930   -1.9178 H   0  0  0  0  0  0  0  0  0  0  0  0
  5  6  2  0  0  0  0
  5  7  1  0  0  0  0
  2  3  1  0  0  0  0
  2  4  1  0  0  0  0
  2  5  1  0  0  0  0
  1  2  1  0  0  0  0
 27 28  2  0  0  0  0
 27 29  1  0  0  0  0
 23 24  1  0  0  0  0
 23 25  1  0  0  0  0
 23 26  1  0  0  0  0
 20 21  1  0  0  0  0
 20 22  1  0  0  0  0
 20 23  1  0  0  0  0
 17 18  1  0  0  0  0
 17 19  1  0  0  0  0
 17 20  1  0  0  0  0
 14 15  1  0  0  0  0
 14 16  1  0  0  0  0
 14 17  1  0  0  0  0
 11 12  1  0  0  0  0
 11 13  1  0  0  0  0
 11 14  1  0  0  0  0
  9 10  1  0  0  0  0
  9 11  1  0  0  0  0
  9 27  1  0  0  0  0
  7  8  1  0  0  0  0
  7  9  1  0  0  0  0
 31 32  1  0  0  0  0
 31 33  1  0  0  0  0
 31 34  1  0  0  0  0
 29 30  1  0  0  0  0
 29 31  1  0  0  0  0
M  CHG  1  23   1
M  END
$$$$
default_name
  -OEChem-01062215323D

 34 33  0     1  0  0  0  0  0999 V2000
   -3.8899   -3.6747    1.6490 H   0  0  0  0  0  0  0  0  0  0  0  0
   -3.9109   -2.6717    1.2250 C   0  0  0  0  0  0  0  0  0  0  0  0
   -4.6009   -2.0517    1.7950 H   0  0  0  0  0  0  0  0  0  0  0  0
   -4.2309   -2.7237    0.1860 H   0  0  0  0  0  0  0  0  0  0  0  0
   -2.5229   -2.0787    1.2980 C   0  0  0  0  0  0  0  0  0  0  0  0
   -1.5999   -2.7227    1.7810 O   0  0  0  0  0  0  0  0  0  0  0  0
   -2.3659   -0.8447    0.8120 N   0  0  0  0  0  0  0  0  0  0  0  0
   -3.1749   -0.3807    0.4220 H   0  0  0  0  0  0  0  0  0  0  0  0
   -1.0919   -0.1077    0.8170 C   0  0  1  0  0  0  0  0  0  0  0  0
   -1.0361    0.4736    1.7392 H   0  0  0  0  0  0  0  0  0  0  0  0
    0.0631   -1.1265    0.8008 C   0  0  0  0  0  0  0  0  0  0  0  0
   -0.0967   -1.8201   -0.0263 H   0  0  0  0  0  0  0  0  0  0  0  0
    1.0035   -0.6000    0.6262 H   0  0  0  0  0  0  0  0  0  0  0  0
    0.1724   -1.9403    2.0993 C   0  0  0  0  0  0  0  0  0  0  0  0
    0.3187   -1.2661    2.9442 H   0  0  0  0  0  0  0  0  0  0  0  0
   -0.7504   -2.5043    2.2488 H   0  0  0  0  0  0  0  0  0  0  0  0
    1.3562   -2.9144    2.0217 C   0  0  0  0  0  0  0  0  0  0  0  0
    1.2141   -3.5784    1.1657 H   0  0  0  0  0  0  0  0  0  0  0  0
    2.2772   -2.3450    1.8815 H   0  0  0  0  0  0  0  0  0  0  0  0
    1.4515   -3.7451    3.3075 C   0  0  0  0  0  0  0  0  0  0  0  0
    1.5856   -3.0621    4.1527 H   0  0  0  0  0  0  0  0  0  0  0  0
    0.5043   -4.2738    3.4509 H   0  0  0  0  0  0  0  0  0  0  0  0
    2.5753   -4.7137    3.2496 N   0  3  0  0  0  0  0  0  0  0  0  0
    3.4559   -4.2296    3.1275 H   0  0  0  0  0  0  0  0  0  0  0  0
    2.6242   -5.2537    4.1046 H   0  0  0  0  0  0  0  0  0  0  0  0
    2.4513   -5.3539    2.4739 H   0  0  0  0  0  0  0  0  0  0  0  0
   -1.0240    0.8512   -0.3738 C   0  0  0  0  0  0  0  0  0  0  0  0
    0.0646    1.1494   -0.8508 O   0  0  0  0  0  0  0  0  0  0  0  0
   -2.1802    1.3518   -0.8216 N   0  0  0  0  0  0  0  0  0  0  0  0
   -3.0307    1.0281   -0.3915 H   0  0  0  0  0  0  0  0  0  0  0  0
   -2.2901    2.2772   -1.9508 C   0  0  0  0  0  0  0  0  0  0  0  0
   -1.9228    1.7954   -2.8594 H   0  0  0  0  0  0  0  0  0  0  0  0
   -3.3290    2.5729   -2.1013 H   0  0  0  0  0  0  0  0  0  0  0  0
   -1.6853    3.1675   -1.7650 H   0  0  0  0  0  0  0  0  0  0  0  0
  5  6  2  0  0  0  0
  5  7  1  0  0  0  0
  2  3  1  0  0  0  0
  2  4  1  0  0  0  0
  2  5  1  0  0  0  0
  1  2  1  0  0  0  0
 27 28  2  0  0  0  0
 27 29  1  0  0  0  0
 23 24  1  0  0  0  0
 23 25  1  0  0  0  0
 23 26  1  0  0  0  0
 20 21  1  0  0  0  0
 20 22  1  0  0  0  0
 20 23  1  0  0  0  0
 17 18  1  0  0  0  0
 17 19  1  0  0  0  0
 17 20  1  0  0  0  0
 14 15  1  0  0  0  0
 14 16  1  0  0  0  0
 14 17  1  0  0  0  0
 11 12  1  0  0  0  0
 11 13  1  0  0  0  0
 11 14  1  0  0  0  0
  9 10  1  0  0  0  0
  9 11  1  0  0  0  0
  9 27  1  0  0  0  0
  7  8  1  0  0  0  0
  7  9  1  0  0  0  0
 31 32  1  0  0  0  0
 31 33  1  0  0  0  0
 31 34  1  0  0  0  0
 29 30  1  0  0  0  0
 29 31  1  0  0  0  0
M  CHG  1  23   1
M  END
$$$$
default_name
  -OEChem-01062215323D

 34 33  0     1  0  0  0  0  0999 V2000
   -3.8899   -3.6747    1.6490 H   0  0  0  0  0  0  0  0  0  0  0  0
   -3.9109   -2.6717    1.2250 C   0  0  0  0  0  0  0  0  0  0  0  0
   -4.6009   -2.0517    1.7950 H   0  0  0  0  0  0  0  0  0  0  0  0
   -4.2309   -2.7237    0.1860 H   0  0  0  0  0  0  0  0  0  0  0  0
   -2.5229   -2.0787    1.2980 C   0  0  0  0  0  0  0  0  0  0  0  0
   -1.5999   -2.7227    1.7810 O   0  0  0  0  0  0  0  0  0  0  0  0
   -2.3659   -0.8447    0.8120 N   0  0  0  0  0  0  0  0  0  0  0  0
   -3.1749   -0.3807    0.4220 H   0  0  0  0  0  0  0  0  0  0  0  0
   -1.0919   -0.1077    0.8170 C   0  0  1  0  0  0  0  0  0  0  0  0
   -1.0361    0.4736    1.7392 H   0  0  0  0  0  0  0  0  0  0  0  0
    0.0631   -1.1265    0.8008 C   0  0  0  0  0  0  0  0  0  0  0  0
   -0.0967   -1.8201   -0.0263 H   0  0  0  0  0  0  0  0  0  0  0  0
    1.0035   -0.6000    0.6262 H   0  0  0  0  0  0  0  0  0  0  0  0
    0.1724   -1.9403    2.0993 C   0  0  0  0  0  0  0  0  0  0  0  0
    0.3187   -1.2661    2.9442 H   0  0  0  0  0  0  0  0  0  0  0  0
   -0.7504   -2.5043    2.2488 H   0  0  0  0  0  0  0  0  0  0  0  0
    1.3562   -2.9144    2.0217 C   0  0  0  0  0  0  0  0  0  0  0  0
    1.2141   -3.5784    1.1657 H   0  0  0  0  0  0  0  0  0  0  0  0
    2.2772   -2.3450    1.8815 H   0  0  0  0  0  0  0  0  0  0  0  0
    1.4515   -3.7451    3.3075 C   0  0  0  0  0  0  0  0  0  0  0  0
    1.5856   -3.0621    4.1527 H   0  0  0  0  0  0  0  0  0  0  0  0
    0.5043   -4.2738    3.4509 H   0  0  0  0  0  0  0  0  0  0  0  0
    2.5753   -4.7137    3.2496 N   0  3  0  0  0  0  0  0  0  0  0  0
    3.4559   -4.2296    3.1275 H   0  0  0  0  0  0  0  0  0  0  0  0
    2.6242   -5.2537    4.1046 H   0  0  0  0  0  0  0  0  0  0  0  0
    2.4513   -5.3539    2.4739 H   0  0  0  0  0  0  0  0  0  0  0  0
   -1.0240    0.8512   -0.3738 C   0  0  0  0  0  0  0  0  0  0  0  0
    0.0111    0.9384   -1.0237 O   0  0  0  0  0  0  0  0  0  0  0  0
   -2.1116    1.5857   -0.6293 N   0  0  0  0  0  0  0  0  0  0  0  0
   -2.9295    1.4271   -0.0644 H   0  0  0  0  0  0  0  0  0  0  0  0
   -2.2124    2.5458   -1.7301 C   0  0  0  0  0  0  0  0  0  0  0  0
   -2.1014    2.0259   -2.6840 H   0  0  0  0  0  0  0  0  0  0  0  0
   -3.1804    3.0478   -1.7104 H   0  0  0  0  0  0  0  0  0  0  0  0
   -1.4181    3.2912   -1.6502 H   0  0  0  0  0  0  0  0  0  0  0  0
  5  6  2  0  0  0  0
  5  7  1  0  0  0  0
  2  3  1  0  0  0  0
  2  4  1  0  0  0  0
  2  5  1  0  0  0  0
  1  2  1  0  0  0  0
 27 28  2  0  0  0  0
 27 29  1  0  0  0  0
 23 24  1  0  0  0  0
 23 25  1  0  0  0  0
 23 26  1  0  0  0  0
 20 21  1  0  0  0  0
 20 22  1  0  0  0  0
 20 23  1  0  0  0  0
 17 18  1  0  0  0  0
 17 19  1  0  0  0  0
 17 20  1  0  0  0  0
 14 15  1  0  0  0  0
 14 16  1  0  0  0  0
 14 17  1  0  0  0  0
 11 12  1  0  0  0  0
 11 13  1  0  0  0  0
 11 14  1  0  0  0  0
  9 10  1  0  0  0  0
  9 11  1  0  0  0  0
  9 27  1  0  0  0  0
  7  8  1  0  0  0  0
  7  9  1  0  0  0  0
 31 32  1  0  0  0  0
 31 33  1  0  0  0  0
 31 34  1  0  0  0  0
 29 30  1  0  0  0  0
 29 31  1  0  0  0  0
M  CHG  1  23   1
M  END
$$$$
default_name
  -OEChem-01062215323D

 34 33  0     1  0  0  0  0  0999 V2000
   -3.8899   -3.6747    1.6490 H   0  0  0  0  0  0  0  0  0  0  0  0
   -3.9109   -2.6717    1.2250 C   0  0  0  0  0  0  0  0  0  0  0  0
   -4.6009   -2.0517    1.7950 H   0  0  0  0  0  0  0  0  0  0  0  0
   -4.2309   -2.7237    0.1860 H   0  0  0  0  0  0  0  0  0  0  0  0
   -2.5229   -2.0787    1.2980 C   0  0  0  0  0  0  0  0  0  0  0  0
   -1.5999   -2.7227    1.7810 O   0  0  0  0  0  0  0  0  0  0  0  0
   -2.3659   -0.8447    0.8120 N   0  0  0  0  0  0  0  0  0  0  0  0
   -3.1749   -0.3807    0.4220 H   0  0  0  0  0  0  0  0  0  0  0  0
   -1.0919   -0.1077    0.8170 C   0  0  1  0  0  0  0  0  0  0  0  0
   -1.0361    0.4736    1.7392 H   0  0  0  0  0  0  0  0  0  0  0  0
    0.0631   -1.1265    0.8008 C   0  0  0  0  0  0  0  0  0  0  0  0
   -0.0967   -1.8201   -0.0263 H   0  0  0  0  0  0  0  0  0  0  0  0
    1.0035   -0.6000    0.6262 H   0  0  0  0  0  0  0  0  0  0  0  0
    0.1724   -1.9403    2.0993 C   0  0  0  0  0  0  0  0  0  0  0  0
    0.3187   -1.2661    2.9442 H   0  0  0  0  0  0  0  0  0  0  0  0
   -0.7504   -2.5043    2.2488 H   0  0  0  0  0  0  0  0  0  0  0  0
    1.3562   -2.9144    2.0217 C   0  0  0  0  0  0  0  0  0  0  0  0
    1.2141   -3.5784    1.1657 H   0  0  0  0  0  0  0  0  0  0  0  0
    2.2772   -2.3450    1.8815 H   0  0  0  0  0  0  0  0  0  0  0  0
    1.4515   -3.7451    3.3075 C   0  0  0  0  0  0  0  0  0  0  0  0
    1.5856   -3.0621    4.1527 H   0  0  0  0  0  0  0  0  0  0  0  0
    0.5043   -4.2738    3.4509 H   0  0  0  0  0  0  0  0  0  0  0  0
    2.5753   -4.7137    3.2496 N   0  3  0  0  0  0  0  0  0  0  0  0
    3.4559   -4.2296    3.1275 H   0  0  0  0  0  0  0  0  0  0  0  0
    2.6242   -5.2537    4.1046 H   0  0  0  0  0  0  0  0  0  0  0  0
    2.4513   -5.3539    2.4739 H   0  0  0  0  0  0  0  0  0  0  0  0
   -1.0240    0.8512   -0.3738 C   0  0  0  0  0  0  0  0  0  0  0  0
   -0.1111    0.7474   -1.1845 O   0  0  0  0  0  0  0  0  0  0  0  0
   -1.9672    1.7957   -0.4520 N   0  0  0  0  0  0  0  0  0  0  0  0
   -2.6983    1.7884    0.2398 H   0  0  0  0  0  0  0  0  0  0  0  0
   -2.0475    2.7870   -1.5264 C   0  0  0  0  0  0  0  0  0  0  0  0
   -2.1991    2.2824   -2.4830 H   0  0  0  0  0  0  0  0  0  0  0  0
   -2.8778    3.4720   -1.3515 H   0  0  0  0  0  0  0  0  0  0  0  0
   -1.1166    3.3556   -1.5811 H   0  0  0  0  0  0  0  0  0  0  0  0
  5  6  2  0  0  0  0
  5  7  1  0  0  0  0
  2  3  1  0  0  0  0
  2  4  1  0  0  0  0
  2  5  1  0  0  0  0
  1  2  1  0  0  0  0
 27 28  2  0  0  0  0
 27 29  1  0  0  0  0
 23 24  1  0  0  0  0
 23 25  1  0  0  0  0
 23 26  1  0  0  0  0
 20 21  1  0  0  0  0
 20 22  1  0  0  0  0
 20 23  1  0  0  0  0
 17 18  1  0  0  0  0
 17 19  1  0  0  0  0
 17 20  1  0  0  0  0
 14 15  1  0  0  0  0
 14 16  1  0  0  0  0
 14 17  1  0  0  0  0
 11 12  1  0  0  0  0
 11 13  1  0  0  0  0
 11 14  1  0  0  0  0
  9 10  1  0  0  0  0
  9 11  1  0  0  0  0
  9 27  1  0  0  0  0
  7  8  1  0  0  0  0
  7  9  1  0  0  0  0
 31 32  1  0  0  0  0
 31 33  1  0  0  0  0
 31 34  1  0  0  0  0
 29 30  1  0  0  0  0
 29 31  1  0  0  0  0
M  CHG  1  23   1
M  END
$$$$
default_name
  -OEChem-01062215323D

 34 33  0     1  0  0  0  0  0999 V2000
   -3.8899   -3.6747    1.6490 H   0  0  0  0  0  0  0  0  0  0  0  0
   -3.9109   -2.6717    1.2250 C   0  0  0  0  0  0  0  0  0  0  0  0
   -4.6009   -2.0517    1.7950 H   0  0  0  0  0  0  0  0  0  0  0  0
   -4.2309   -2.7237    0.1860 H   0  0  0  0  0  0  0  0  0  0  0  0
   -2.5229   -2.0787    1.2980 C   0  0  0  0  0  0  0  0  0  0  0  0
   -1.5999   -2.7227    1.7810 O   0  0  0  0  0  0  0  0  0  0  0  0
   -2.3659   -0.8447    0.8120 N   0  0  0  0  0  0  0  0  0  0  0  0
   -3.1749   -0.3807    0.4220 H   0  0  0  0  0  0  0  0  0  0  0  0
   -1.0919   -0.1077    0.8170 C   0  0  1  0  0  0  0  0  0  0  0  0
   -1.0361    0.4736    1.7392 H   0  0  0  0  0  0  0  0  0  0  0  0
    0.0631   -1.1265    0.8008 C   0  0  0  0  0  0  0  0  0  0  0  0
   -0.0967   -1.8201   -0.0263 H   0  0  0  0  0  0  0  0  0  0  0  0
    1.0035   -0.6000    0.6262 H   0  0  0  0  0  0  0  0  0  0  0  0
    0.1724   -1.9403    2.0993 C   0  0  0  0  0  0  0  0  0  0  0  0
    0.3187   -1.2661    2.9442 H   0  0  0  0  0  0  0  0  0  0  0  0
   -0.7504   -2.5043    2.2488 H   0  0  0  0  0  0  0  0  0  0  0  0
    1.3562   -2.9144    2.0217 C   0  0  0  0  0  0  0  0  0  0  0  0
    1.2141   -3.5784    1.1657 H   0  0  0  0  0  0  0  0  0  0  0  0
    2.2772   -2.3450    1.8815 H   0  0  0  0  0  0  0  0  0  0  0  0
    1.4515   -3.7451    3.3075 C   0  0  0  0  0  0  0  0  0  0  0  0
    1.5856   -3.0621    4.1527 H   0  0  0  0  0  0  0  0  0  0  0  0
    0.5043   -4.2738    3.4509 H   0  0  0  0  0  0  0  0  0  0  0  0
    2.5753   -4.7137    3.2496 N   0  3  0  0  0  0  0  0  0  0  0  0
    3.4559   -4.2296    3.1275 H   0  0  0  0  0  0  0  0  0  0  0  0
    2.6242   -5.2537    4.1046 H   0  0  0  0  0  0  0  0  0  0  0  0
    2.4513   -5.3539    2.4739 H   0  0  0  0  0  0  0  0  0  0  0  0
   -1.0240    0.8512   -0.3738 C   0  0  0  0  0  0  0  0  0  0  0  0
   -0.2937    0.5893   -1.3222 O   0  0  0  0  0  0  0  0  0  0  0  0
   -1.7566    1.9674   -0.3017 N   0  0  0  0  0  0  0  0  0  0  0  0
   -2.3530    2.0874    0.5002 H   0  0  0  0  0  0  0  0  0  0  0  0
   -1.8066    2.9844   -1.3537 C   0  0  0  0  0  0  0  0  0  0  0  0
   -2.2091    2.5476   -2.2700 H   0  0  0  0  0  0  0  0  0  0  0  0
   -2.4419    3.8168   -1.0489 H   0  0  0  0  0  0  0  0  0  0  0  0
   -0.8011    3.3562   -1.5626 H   0  0  0  0  0  0  0  0  0  0  0  0
  5  6  2  0  0  0  0
  5  7  1  0  0  0  0
  2  3  1  0  0  0  0
  2  4  1  0  0  0  0
  2  5  1  0  0  0  0
  1  2  1  0  0  0  0
 27 28  2  0  0  0  0
 27 29  1  0  0  0  0
 23 24  1  0  0  0  0
 23 25  1  0  0  0  0
 23 26  1  0  0  0  0
 20 21  1  0  0  0  0
 20 22  1  0  0  0  0
 20 23  1  0  0  0  0
 17 18  1  0  0  0  0
 17 19  1  0  0  0  0
 17 20  1  0  0  0  0
 14 15  1  0  0  0  0
 14 16  1  0  0  0  0
 14 17  1  0  0  0  0
 11 12  1  0  0  0  0
 11 13  1  0  0  0  0
 11 14  1  0  0  0  0
  9 10  1  0  0  0  0
  9 11  1  0  0  0  0
  9 27  1  0  0  0  0
  7  8  1  0  0  0  0
  7  9  1  0  0  0  0
 31 32  1  0  0  0  0
 31 33  1  0  0  0  0
 31 34  1  0  0  0  0
 29 30  1  0  0  0  0
 29 31  1  0  0  0  0
M  CHG  1  23   1
M  END
$$$$
default_name
  -OEChem-01062215323D

 34 33  0     1  0  0  0  0  0999 V2000
   -3.8899   -3.6747    1.6490 H   0  0  0  0  0  0  0  0  0  0  0  0
   -3.9109   -2.6717    1.2250 C   0  0  0  0  0  0  0  0  0  0  0  0
   -4.6009   -2.0517    1.7950 H   0  0  0  0  0  0  0  0  0  0  0  0
   -4.2309   -2.7237    0.1860 H   0  0  0  0  0  0  0  0  0  0  0  0
   -2.5229   -2.0787    1.2980 C   0  0  0  0  0  0  0  0  0  0  0  0
   -1.5999   -2.7227    1.7810 O   0  0  0  0  0  0  0  0  0  0  0  0
   -2.3659   -0.8447    0.8120 N   0  0  0  0  0  0  0  0  0  0  0  0
   -3.1749   -0.3807    0.4220 H   0  0  0  0  0  0  0  0  0  0  0  0
   -1.0919   -0.1077    0.8170 C   0  0  1  0  0  0  0  0  0  0  0  0
   -1.0361    0.4736    1.7392 H   0  0  0  0  0  0  0  0  0  0  0  0
    0.0631   -1.1265    0.8008 C   0  0  0  0  0  0  0  0  0  0  0  0
   -0.0967   -1.8201   -0.0263 H   0  0  0  0  0  0  0  0  0  0  0  0
    1.0035   -0.6000    0.6262 H   0  0  0  0  0  0  0  0  0  0  0  0
    0.1724   -1.9403    2.0993 C   0  0  0  0  0  0  0  0  0  0  0  0
    0.3187   -1.2661    2.9442 H   0  0  0  0  0  0  0  0  0  0  0  0
   -0.7504   -2.5043    2.2488 H   0  0  0  0  0  0  0  0  0  0  0  0
    1.3562   -2.9144    2.0217 C   0  0  0  0  0  0  0  0  0  0  0  0
    1.2141   -3.5784    1.1657 H   0  0  0  0  0  0  0  0  0  0  0  0
    2.2772   -2.3450    1.8815 H   0  0  0  0  0  0  0  0  0  0  0  0
    1.4515   -3.7451    3.3075 C   0  0  0  0  0  0  0  0  0  0  0  0
    1.5856   -3.0621    4.1527 H   0  0  0  0  0  0  0  0  0  0  0  0
    0.5043   -4.2738    3.4509 H   0  0  0  0  0  0  0  0  0  0  0  0
    2.5753   -4.7137    3.2496 N   0  3  0  0  0  0  0  0  0  0  0  0
    3.4559   -4.2296    3.1275 H   0  0  0  0  0  0  0  0  0  0  0  0
    2.6242   -5.2537    4.1046 H   0  0  0  0  0  0  0  0  0  0  0  0
    2.4513   -5.3539    2.4739 H   0  0  0  0  0  0  0  0  0  0  0  0
   -1.0240    0.8512   -0.3738 C   0  0  0  0  0  0  0  0  0  0  0  0
   -0.5242    0.4750   -1.4274 O   0  0  0  0  0  0  0  0  0  0  0  0
   -1.4942    2.0891   -0.1887 N   0  0  0  0  0  0  0  0  0  0  0  0
   -1.9170    2.3036    0.6992 H   0  0  0  0  0  0  0  0  0  0  0  0
   -1.5061    3.1247   -1.2236 C   0  0  0  0  0  0  0  0  0  0  0  0
   -2.1309    2.8033   -2.0597 H   0  0  0  0  0  0  0  0  0  0  0  0
   -1.9023    4.0586   -0.8235 H   0  0  0  0  0  0  0  0  0  0  0  0
   -0.4932    3.2931   -1.5959 H   0  0  0  0  0  0  0  0  0  0  0  0
  5  6  2  0  0  0  0
  5  7  1  0  0  0  0
  2  3  1  0  0  0  0
  2  4  1  0  0  0  0
  2  5  1  0  0  0  0
  1  2  1  0  0  0  0
 27 28  2  0  0  0  0
 27 29  1  0  0  0  0
 23 24  1  0  0  0  0
 23 25  1  0  0  0  0
 23 26  1  0  0  0  0
 20 21  1  0  0  0  0
 20 22  1  0  0  0  0
 20 23  1  0  0  0  0
 17 18  1  0  0  0  0
 17 19  1  0  0  0  0
 17 20  1  0  0  0  0
 14 15  1  0  0  0  0
 14 16  1  0  0  0  0
 14 17  1  0  0  0  0
 11 12  1  0  0  0  0
 11 13  1  0  0  0  0
 11 14  1  0  0  0  0
  9 10  1  0  0  0  0
  9 11  1  0  0  0  0
  9 27  1  0  0  0  0
  7  8  1  0  0  0  0
  7  9  1  0  0  0  0
 31 32  1  0  0  0  0
 31 33  1  0  0  0  0
 31 34  1  0  0  0  0
 29 30  1  0  0  0  0
 29 31  1  0  0  0  0
M  CHG  1  23   1
M  END
$$$$
default_name
  -OEChem-01062215323D

 34 33  0     1  0  0  0  0  0999 V2000
   -3.8899   -3.6747    1.6490 H   0  0  0  0  0  0  0  0  0  0  0  0
   -3.9109   -2.6717    1.2250 C   0  0  0  0  0  0  0  0  0  0  0  0
   -4.6009   -2.0517    1.7950 H   0  0  0  0  0  0  0  0  0  0  0  0
   -4.2309   -2.7237    0.1860 H   0  0  0  0  0  0  0  0  0  0  0  0
   -2.5229   -2.0787    1.2980 C   0  0  0  0  0  0  0  0  0  0  0  0
   -1.5999   -2.7227    1.7810 O   0  0  0  0  0  0  0  0  0  0  0  0
   -2.3659   -0.8447    0.8120 N   0  0  0  0  0  0  0  0  0  0  0  0
   -3.1749   -0.3807    0.4220 H   0  0  0  0  0  0  0  0  0  0  0  0
   -1.0919   -0.1077    0.8170 C   0  0  1  0  0  0  0  0  0  0  0  0
   -1.0361    0.4736    1.7392 H   0  0  0  0  0  0  0  0  0  0  0  0
    0.0631   -1.1265    0.8008 C   0  0  0  0  0  0  0  0  0  0  0  0
   -0.0967   -1.8201   -0.0263 H   0  0  0  0  0  0  0  0  0  0  0  0
    1.0035   -0.6000    0.6262 H   0  0  0  0  0  0  0  0  0  0  0  0
    0.1724   -1.9403    2.0993 C   0  0  0  0  0  0  0  0  0  0  0  0
    0.3187   -1.2661    2.9442 H   0  0  0  0  0  0  0  0  0  0  0  0
   -0.7504   -2.5043    2.2488 H   0  0  0  0  0  0  0  0  0  0  0  0
    1.3562   -2.9144    2.0217 C   0  0  0  0  0  0  0  0  0  0  0  0
    1.2141   -3.5784    1.1657 H   0  0  0  0  0  0  0  0  0  0  0  0
    2.2772   -2.3450    1.8815 H   0  0  0  0  0  0  0  0  0  0  0  0
    1.4515   -3.7451    3.3075 C   0  0  0  0  0  0  0  0  0  0  0  0
    1.5856   -3.0621    4.1527 H   0  0  0  0  0  0  0  0  0  0  0  0
    0.5043   -4.2738    3.4509 H   0  0  0  0  0  0  0  0  0  0  0  0
    2.5753   -4.7137    3.2496 N   0  3  0  0  0  0  0  0  0  0  0  0
    3.4559   -4.2296    3.1275 H   0  0  0  0  0  0  0  0  0  0  0  0
    2.6242   -5.2537    4.1046 H   0  0  0  0  0  0  0  0  0  0  0  0
    2.4513   -5.3539    2.4739 H   0  0  0  0  0  0  0  0  0  0  0  0
   -1.0240    0.8512   -0.3738 C   0  0  0  0  0  0  0  0  0  0  0  0
   -0.7870    0.4122   -1.4930 O   0  0  0  0  0  0  0  0  0  0  0  0
   -1.1980    2.1525   -0.1208 N   0  0  0  0  0  0  0  0  0  0  0  0
   -1.4200    2.4224    0.8232 H   0  0  0  0  0  0  0  0  0  0  0  0
   -1.1665    3.1981   -1.1451 C   0  0  0  0  0  0  0  0  0  0  0  0
   -1.9697    3.0321   -1.8662 H   0  0  0  0  0  0  0  0  0  0  0  0
   -1.2959    4.1809   -0.6904 H   0  0  0  0  0  0  0  0  0  0  0  0
   -0.2140    3.1705   -1.6787 H   0  0  0  0  0  0  0  0  0  0  0  0
  5  6  2  0  0  0  0
  5  7  1  0  0  0  0
  2  3  1  0  0  0  0
  2  4  1  0  0  0  0
  2  5  1  0  0  0  0
  1  2  1  0  0  0  0
 27 28  2  0  0  0  0
 27 29  1  0  0  0  0
 23 24  1  0  0  0  0
 23 25  1  0  0  0  0
 23 26  1  0  0  0  0
 20 21  1  0  0  0  0
 20 22  1  0  0  0  0
 20 23  1  0  0  0  0
 17 18  1  0  0  0  0
 17 19  1  0  0  0  0
 17 20  1  0  0  0  0
 14 15  1  0  0  0  0
 14 16  1  0  0  0  0
 14 17  1  0  0  0  0
 11 12  1  0  0  0  0
 11 13  1  0  0  0  0
 11 14  1  0  0  0  0
  9 10  1  0  0  0  0
  9 11  1  0  0  0  0
  9 27  1  0  0  0  0
  7  8  1  0  0  0  0
  7  9  1  0  0  0  0
 31 32  1  0  0  0  0
 31 33  1  0  0  0  0
 31 34  1  0  0  0  0
 29 30  1  0  0  0  0
 29 31  1  0  0  0  0
M  CHG  1  23   1
M  END
$$$$
default_name
  -OEChem-01062215323D

 34 33  0     1  0  0  0  0  0999 V2000
   -3.8899   -3.6747    1.6490 H   0  0  0  0  0  0  0  0  0  0  0  0
   -3.9109   -2.6717    1.2250 C   0  0  0  0  0  0  0  0  0  0  0  0
   -4.6009   -2.0517    1.7950 H   0  0  0  0  0  0  0  0  0  0  0  0
   -4.2309   -2.7237    0.1860 H   0  0  0  0  0  0  0  0  0  0  0  0
   -2.5229   -2.0787    1.2980 C   0  0  0  0  0  0  0  0  0  0  0  0
   -1.5999   -2.7227    1.7810 O   0  0  0  0  0  0  0  0  0  0  0  0
   -2.3659   -0.8447    0.8120 N   0  0  0  0  0  0  0  0  0  0  0  0
   -3.1749   -0.3807    0.4220 H   0  0  0  0  0  0  0  0  0  0  0  0
   -1.0919   -0.1077    0.8170 C   0  0  1  0  0  0  0  0  0  0  0  0
   -1.0361    0.4736    1.7392 H   0  0  0  0  0  0  0  0  0  0  0  0
    0.0631   -1.1265    0.8008 C   0  0  0  0  0  0  0  0  0  0  0  0
   -0.0967   -1.8201   -0.0263 H   0  0  0  0  0  0  0  0  0  0  0  0
    1.0035   -0.6000    0.6262 H   0  0  0  0  0  0  0  0  0  0  0  0
    0.1724   -1.9403    2.0993 C   0  0  0  0  0  0  0  0  0  0  0  0
    0.3187   -1.2661    2.9442 H   0  0  0  0  0  0  0  0  0  0  0  0
   -0.7504   -2.5043    2.2488 H   0  0  0  0  0  0  0  0  0  0  0  0
    1.3562   -2.9144    2.0217 C   0  0  0  0  0  0  0  0  0  0  0  0
    1.2141   -3.5784    1.1657 H   0  0  0  0  0  0  0  0  0  0  0  0
    2.2772   -2.3450    1.8815 H   0  0  0  0  0  0  0  0  0  0  0  0
    1.4515   -3.7451    3.3075 C   0  0  0  0  0  0  0  0  0  0  0  0
    1.5856   -3.0621    4.1527 H   0  0  0  0  0  0  0  0  0  0  0  0
    0.5043   -4.2738    3.4509 H   0  0  0  0  0  0  0  0  0  0  0  0
    2.5753   -4.7137    3.2496 N   0  3  0  0  0  0  0  0  0  0  0  0
    3.4559   -4.2296    3.1275 H   0  0  0  0  0  0  0  0  0  0  0  0
    2.6242   -5.2537    4.1046 H   0  0  0  0  0  0  0  0  0  0  0  0
    2.4513   -5.3539    2.4739 H   0  0  0  0  0  0  0  0  0  0  0  0
   -1.0240    0.8512   -0.3738 C   0  0  0  0  0  0  0  0  0  0  0  0
   -1.0641    0.4052   -1.5144 O   0  0  0  0  0  0  0  0  0  0  0  0
   -0.8881    2.1534   -0.1024 N   0  0  0  0  0  0  0  0  0  0  0  0
   -0.8959    2.4356    0.8637 H   0  0  0  0  0  0  0  0  0  0  0  0
   -0.8110    3.1998   -1.1235 C   0  0  0  0  0  0  0  0  0  0  0  0
   -1.7366    3.2184   -1.7029 H   0  0  0  0  0  0  0  0  0  0  0  0
   -0.6640    4.1754   -0.6588 H   0  0  0  0  0  0  0  0  0  0  0  0
    0.0176    2.9968   -1.8054 H   0  0  0  0  0  0  0  0  0  0  0  0
  5  6  2  0  0  0  0
  5  7  1  0  0  0  0
  2  3  1  0  0  0  0
  2  4  1  0  0  0  0
  2  5  1  0  0  0  0
  1  2  1  0  0  0  0
 27 28  2  0  0  0  0
 27 29  1  0  0  0  0
 23 24  1  0  0  0  0
 23 25  1  0  0  0  0
 23 26  1  0  0  0  0
 20 21  1  0  0  0  0
 20 22  1  0  0  0  0
 20 23  1  0  0  0  0
 17 18  1  0  0  0  0
 17 19  1  0  0  0  0
 17 20  1  0  0  0  0
 14 15  1  0  0  0  0
 14 16  1  0  0  0  0
 14 17  1  0  0  0  0
 11 12  1  0  0  0  0
 11 13  1  0  0  0  0
 11 14  1  0  0  0  0
  9 10  1  0  0  0  0
  9 11  1  0  0  0  0
  9 27  1  0  0  0  0
  7  8  1  0  0  0  0
  7  9  1  0  0  0  0
 31 32  1  0  0  0  0
 31 33  1  0  0  0  0
 31 34  1  0  0  0  0
 29 30  1  0  0  0  0
 29 31  1  0  0  0  0
M  CHG  1  23   1
M  END
$$$$
default_name
  -OEChem-01062215323D

 34 33  0     1  0  0  0  0  0999 V2000
   -3.8899   -3.6747    1.6490 H   0  0  0  0  0  0  0  0  0  0  0  0
   -3.9109   -2.6717    1.2250 C   0  0  0  0  0  0  0  0  0  0  0  0
   -4.6009   -2.0517    1.7950 H   0  0  0  0  0  0  0  0  0  0  0  0
   -4.2309   -2.7237    0.1860 H   0  0  0  0  0  0  0  0  0  0  0  0
   -2.5229   -2.0787    1.2980 C   0  0  0  0  0  0  0  0  0  0  0  0
   -1.5999   -2.7227    1.7810 O   0  0  0  0  0  0  0  0  0  0  0  0
   -2.3659   -0.8447    0.8120 N   0  0  0  0  0  0  0  0  0  0  0  0
   -3.1749   -0.3807    0.4220 H   0  0  0  0  0  0  0  0  0  0  0  0
   -1.0919   -0.1077    0.8170 C   0  0  1  0  0  0  0  0  0  0  0  0
   -1.0361    0.4736    1.7392 H   0  0  0  0  0  0  0  0  0  0  0  0
    0.0631   -1.1265    0.8008 C   0  0  0  0  0  0  0  0  0  0  0  0
   -0.0967   -1.8201   -0.0263 H   0  0  0  0  0  0  0  0  0  0  0  0
    1.0035   -0.6000    0.6262 H   0  0  0  0  0  0  0  0  0  0  0  0
    0.1724   -1.9403    2.0993 C   0  0  0  0  0  0  0  0  0  0  0  0
    0.3187   -1.2661    2.9442 H   0  0  0  0  0  0  0  0  0  0  0  0
   -0.7504   -2.5043    2.2488 H   0  0  0  0  0  0  0  0  0  0  0  0
    1.3562   -2.9144    2.0217 C   0  0  0  0  0  0  0  0  0  0  0  0
    1.2141   -3.5784    1.1657 H   0  0  0  0  0  0  0  0  0  0  0  0
    2.2772   -2.3450    1.8815 H   0  0  0  0  0  0  0  0  0  0  0  0
    1.4515   -3.7451    3.3075 C   0  0  0  0  0  0  0  0  0  0  0  0
    1.5856   -3.0621    4.1527 H   0  0  0  0  0  0  0  0  0  0  0  0
    0.5043   -4.2738    3.4509 H   0  0  0  0  0  0  0  0  0  0  0  0
    2.5753   -4.7137    3.2496 N   0  3  0  0  0  0  0  0  0  0  0  0
    3.4559   -4.2296    3.1275 H   0  0  0  0  0  0  0  0  0  0  0  0
    2.6242   -5.2537    4.1046 H   0  0  0  0  0  0  0  0  0  0  0  0
    2.4513   -5.3539    2.4739 H   0  0  0  0  0  0  0  0  0  0  0  0
   -1.0240    0.8512   -0.3738 C   0  0  0  0  0  0  0  0  0  0  0  0
   -1.3366    0.4545   -1.4903 O   0  0  0  0  0  0  0  0  0  0  0  0
   -0.5855    2.0915   -0.1350 N   0  0  0  0  0  0  0  0  0  0  0  0
   -0.3805    2.3424    0.8180 H   0  0  0  0  0  0  0  0  0  0  0  0
   -0.4638    3.1295   -1.1603 C   0  0  0  0  0  0  0  0  0  0  0  0
   -1.4474    3.3496   -1.5807 H   0  0  0  0  0  0  0  0  0  0  0  0
   -0.0495    4.0424   -0.7309 H   0  0  0  0  0  0  0  0  0  0  0  0
    0.1858    2.7838   -1.9673 H   0  0  0  0  0  0  0  0  0  0  0  0
  5  6  2  0  0  0  0
  5  7  1  0  0  0  0
  2  3  1  0  0  0  0
  2  4  1  0  0  0  0
  2  5  1  0  0  0  0
  1  2  1  0  0  0  0
 27 28  2  0  0  0  0
 27 29  1  0  0  0  0
 23 24  1  0  0  0  0
 23 25  1  0  0  0  0
 23 26  1  0  0  0  0
 20 21  1  0  0  0  0
 20 22  1  0  0  0  0
 20 23  1  0  0  0  0
 17 18  1  0  0  0  0
 17 19  1  0  0  0  0
 17 20  1  0  0  0  0
 14 15  1  0  0  0  0
 14 16  1  0  0  0  0
 14 17  1  0  0  0  0
 11 12  1  0  0  0  0
 11 13  1  0  0  0  0
 11 14  1  0  0  0  0
  9 10  1  0  0  0  0
  9 11  1  0  0  0  0
  9 27  1  0  0  0  0
  7  8  1  0  0  0  0
  7  9  1  0  0  0  0
 31 32  1  0  0  0  0
 31 33  1  0  0  0  0
 31 34  1  0  0  0  0
 29 30  1  0  0  0  0
 29 31  1  0  0  0  0
M  CHG  1  23   1
M  END
$$$$
default_name
  -OEChem-01062215323D

 34 33  0     1  0  0  0  0  0999 V2000
   -3.8899   -3.6747    1.6490 H   0  0  0  0  0  0  0  0  0  0  0  0
   -3.9109   -2.6717    1.2250 C   0  0  0  0  0  0  0  0  0  0  0  0
   -4.6009   -2.0517    1.7950 H   0  0  0  0  0  0  0  0  0  0  0  0
   -4.2309   -2.7237    0.1860 H   0  0  0  0  0  0  0  0  0  0  0  0
   -2.5229   -2.0787    1.2980 C   0  0  0  0  0  0  0  0  0  0  0  0
   -1.5999   -2.7227    1.7810 O   0  0  0  0  0  0  0  0  0  0  0  0
   -2.3659   -0.8447    0.8120 N   0  0  0  0  0  0  0  0  0  0  0  0
   -3.1749   -0.3807    0.4220 H   0  0  0  0  0  0  0  0  0  0  0  0
   -1.0919   -0.1077    0.8170 C   0  0  1  0  0  0  0  0  0  0  0  0
   -1.0361    0.4736    1.7392 H   0  0  0  0  0  0  0  0  0  0  0  0
    0.0631   -1.1265    0.8008 C   0  0  0  0  0  0  0  0  0  0  0  0
   -0.0967   -1.8201   -0.0263 H   0  0  0  0  0  0  0  0  0  0  0  0
    1.0035   -0.6000    0.6262 H   0  0  0  0  0  0  0  0  0  0  0  0
    0.1724   -1.9403    2.0993 C   0  0  0  0  0  0  0  0  0  0  0  0
    0.3187   -1.2661    2.9442 H   0  0  0  0  0  0  0  0  0  0  0  0
   -0.7504   -2.5043    2.2488 H   0  0  0  0  0  0  0  0  0  0  0  0
    1.3562   -2.9144    2.0217 C   0  0  0  0  0  0  0  0  0  0  0  0
    1.2141   -3.5784    1.1657 H   0  0  0  0  0  0  0  0  0  0  0  0
    2.2772   -2.3450    1.8815 H   0  0  0  0  0  0  0  0  0  0  0  0
    1.4515   -3.7451    3.3075 C   0  0  0  0  0  0  0  0  0  0  0  0
    1.5856   -3.0621    4.1527 H   0  0  0  0  0  0  0  0  0  0  0  0
    0.5043   -4.2738    3.4509 H   0  0  0  0  0  0  0  0  0  0  0  0
    2.5753   -4.7137    3.2496 N   0  3  0  0  0  0  0  0  0  0  0  0
    3.4559   -4.2296    3.1275 H   0  0  0  0  0  0  0  0  0  0  0  0
    2.6242   -5.2537    4.1046 H   0  0  0  0  0  0  0  0  0  0  0  0
    2.4513   -5.3539    2.4739 H   0  0  0  0  0  0  0  0  0  0  0  0
   -1.0240    0.8512   -0.3738 C   0  0  0  0  0  0  0  0  0  0  0  0
   -1.5860    0.5567   -1.4222 O   0  0  0  0  0  0  0  0  0  0  0  0
   -0.3110    1.9713   -0.2162 N   0  0  0  0  0  0  0  0  0  0  0  0
    0.0912    2.1490    0.6892 H   0  0  0  0  0  0  0  0  0  0  0  0
   -0.1485    2.9922   -1.2529 C   0  0  0  0  0  0  0  0  0  0  0  0
   -1.1218    3.4166   -1.5082 H   0  0  0  0  0  0  0  0  0  0  0  0
    0.5055    3.7911   -0.9016 H   0  0  0  0  0  0  0  0  0  0  0  0
    0.2791    2.5461   -2.1534 H   0  0  0  0  0  0  0  0  0  0  0  0
  5  6  2  0  0  0  0
  5  7  1  0  0  0  0
  2  3  1  0  0  0  0
  2  4  1  0  0  0  0
  2  5  1  0  0  0  0
  1  2  1  0  0  0  0
 27 28  2  0  0  0  0
 27 29  1  0  0  0  0
 23 24  1  0  0  0  0
 23 25  1  0  0  0  0
 23 26  1  0  0  0  0
 20 21  1  0  0  0  0
 20 22  1  0  0  0  0
 20 23  1  0  0  0  0
 17 18  1  0  0  0  0
 17 19  1  0  0  0  0
 17 20  1  0  0  0  0
 14 15  1  0  0  0  0
 14 16  1  0  0  0  0
 14 17  1  0  0  0  0
 11 12  1  0  0  0  0
 11 13  1  0  0  0  0
 11 14  1  0  0  0  0
  9 10  1  0  0  0  0
  9 11  1  0  0  0  0
  9 27  1  0  0  0  0
  7  8  1  0  0  0  0
  7  9  1  0  0  0  0
 31 32  1  0  0  0  0
 31 33  1  0  0  0  0
 31 34  1  0  0  0  0
 29 30  1  0  0  0  0
 29 31  1  0  0  0  0
M  CHG  1  23   1
M  END
$$$$
default_name
  -OEChem-01062215323D

 34 33  0     1  0  0  0  0  0999 V2000
   -3.8899   -3.6747    1.6490 H   0  0  0  0  0  0  0  0  0  0  0  0
   -3.9109   -2.6717    1.2250 C   0  0  0  0  0  0  0  0  0  0  0  0
   -4.6009   -2.0517    1.7950 H   0  0  0  0  0  0  0  0  0  0  0  0
   -4.2309   -2.7237    0.1860 H   0  0  0  0  0  0  0  0  0  0  0  0
   -2.5229   -2.0787    1.2980 C   0  0  0  0  0  0  0  0  0  0  0  0
   -1.5999   -2.7227    1.7810 O   0  0  0  0  0  0  0  0  0  0  0  0
   -2.3659   -0.8447    0.8120 N   0  0  0  0  0  0  0  0  0  0  0  0
   -3.1749   -0.3807    0.4220 H   0  0  0  0  0  0  0  0  0  0  0  0
   -1.0919   -0.1077    0.8170 C   0  0  1  0  0  0  0  0  0  0  0  0
   -1.0361    0.4736    1.7392 H   0  0  0  0  0  0  0  0  0  0  0  0
    0.0631   -1.1265    0.8008 C   0  0  0  0  0  0  0  0  0  0  0  0
   -0.0967   -1.8201   -0.0263 H   0  0  0  0  0  0  0  0  0  0  0  0
    1.0035   -0.6000    0.6262 H   0  0  0  0  0  0  0  0  0  0  0  0
    0.1724   -1.9403    2.0993 C   0  0  0  0  0  0  0  0  0  0  0  0
    0.3187   -1.2661    2.9442 H   0  0  0  0  0  0  0  0  0  0  0  0
   -0.7504   -2.5043    2.2488 H   0  0  0  0  0  0  0  0  0  0  0  0
    1.3562   -2.9144    2.0217 C   0  0  0  0  0  0  0  0  0  0  0  0
    1.2141   -3.5784    1.1657 H   0  0  0  0  0  0  0  0  0  0  0  0
    2.2772   -2.3450    1.8815 H   0  0  0  0  0  0  0  0  0  0  0  0
    1.4515   -3.7451    3.3075 C   0  0  0  0  0  0  0  0  0  0  0  0
    1.5856   -3.0621    4.1527 H   0  0  0  0  0  0  0  0  0  0  0  0
    0.5043   -4.2738    3.4509 H   0  0  0  0  0  0  0  0  0  0  0  0
    2.5753   -4.7137    3.2496 N   0  3  0  0  0  0  0  0  0  0  0  0
    3.4559   -4.2296    3.1275 H   0  0  0  0  0  0  0  0  0  0  0  0
    2.6242   -5.2537    4.1046 H   0  0  0  0  0  0  0  0  0  0  0  0
    2.4513   -5.3539    2.4739 H   0  0  0  0  0  0  0  0  0  0  0  0
   -1.0240    0.8512   -0.3738 C   0  0  0  0  0  0  0  0  0  0  0  0
   -1.7952    0.7049   -1.3148 O   0  0  0  0  0  0  0  0  0  0  0  0
   -0.0833    1.8007   -0.3405 N   0  0  0  0  0  0  0  0  0  0  0  0
    0.4870    1.8688    0.4861 H   0  0  0  0  0  0  0  0  0  0  0  0
    0.1134    2.7971   -1.3951 C   0  0  0  0  0  0  0  0  0  0  0  0
   -0.7821    3.4150   -1.4901 H   0  0  0  0  0  0  0  0  0  0  0  0
    0.9633    3.4385   -1.1595 H   0  0  0  0  0  0  0  0  0  0  0  0
    0.2912    2.2998   -2.3511 H   0  0  0  0  0  0  0  0  0  0  0  0
  5  6  2  0  0  0  0
  5  7  1  0  0  0  0
  2  3  1  0  0  0  0
  2  4  1  0  0  0  0
  2  5  1  0  0  0  0
  1  2  1  0  0  0  0
 27 28  2  0  0  0  0
 27 29  1  0  0  0  0
 23 24  1  0  0  0  0
 23 25  1  0  0  0  0
 23 26  1  0  0  0  0
 20 21  1  0  0  0  0
 20 22  1  0  0  0  0
 20 23  1  0  0  0  0
 17 18  1  0  0  0  0
 17 19  1  0  0  0  0
 17 20  1  0  0  0  0
 14 15  1  0  0  0  0
 14 16  1  0  0  0  0
 14 17  1  0  0  0  0
 11 12  1  0  0  0  0
 11 13  1  0  0  0  0
 11 14  1  0  0  0  0
  9 10  1  0  0  0  0
  9 11  1  0  0  0  0
  9 27  1  0  0  0  0
  7  8  1  0  0  0  0
  7  9  1  0  0  0  0
 31 32  1  0  0  0  0
 31 33  1  0  0  0  0
 31 34  1  0  0  0  0
 29 30  1  0  0  0  0
 29 31  1  0  0  0  0
M  CHG  1  23   1
M  END
$$$$
default_name
  -OEChem-01062215323D

 34 33  0     1  0  0  0  0  0999 V2000
   -3.8899   -3.6747    1.6490 H   0  0  0  0  0  0  0  0  0  0  0  0
   -3.9109   -2.6717    1.2250 C   0  0  0  0  0  0  0  0  0  0  0  0
   -4.6009   -2.0517    1.7950 H   0  0  0  0  0  0  0  0  0  0  0  0
   -4.2309   -2.7237    0.1860 H   0  0  0  0  0  0  0  0  0  0  0  0
   -2.5229   -2.0787    1.2980 C   0  0  0  0  0  0  0  0  0  0  0  0
   -1.5999   -2.7227    1.7810 O   0  0  0  0  0  0  0  0  0  0  0  0
   -2.3659   -0.8447    0.8120 N   0  0  0  0  0  0  0  0  0  0  0  0
   -3.1749   -0.3807    0.4220 H   0  0  0  0  0  0  0  0  0  0  0  0
   -1.0919   -0.1077    0.8170 C   0  0  1  0  0  0  0  0  0  0  0  0
   -0.9089    0.2530    1.8308 H   0  0  0  0  0  0  0  0  0  0  0  0
    0.0370   -1.0788    0.4234 C   0  0  0  0  0  0  0  0  0  0  0  0
   -0.2384   -1.5719   -0.5101 H   0  0  0  0  0  0  0  0  0  0  0  0
    0.9540   -0.5119    0.2510 H   0  0  0  0  0  0  0  0  0  0  0  0
    0.3025   -2.1610    1.4812 C   0  0  0  0  0  0  0  0  0  0  0  0
    0.5664   -1.6909    2.4295 H   0  0  0  0  0  0  0  0  0  0  0  0
   -0.6009   -2.7584    1.6187 H   0  0  0  0  0  0  0  0  0  0  0  0
    1.4525   -3.0742    1.0346 C   0  0  0  0  0  0  0  0  0  0  0  0
    1.1915   -3.5318    0.0774 H   0  0  0  0  0  0  0  0  0  0  0  0
    2.3554   -2.4736    0.9075 H   0  0  0  0  0  0  0  0  0  0  0  0
    1.7022   -4.1702    2.0782 C   0  0  0  0  0  0  0  0  0  0  0  0
    1.9543   -3.6919    3.0303 H   0  0  0  0  0  0  0  0  0  0  0  0
    0.7744   -4.7323    2.2208 H   0  0  0  0  0  0  0  0  0  0  0  0
    2.7955   -5.0836    1.6596 N   0  3  0  0  0  0  0  0  0  0  0  0
    3.6595   -4.5707    1.5362 H   0  0  0  0  0  0  0  0  0  0  0  0
    2.9474   -5.8005    2.3581 H   0  0  0  0  0  0  0  0  0  0  0  0
    2.5631   -5.5356    0.7830 H   0  0  0  0  0  0  0  0  0  0  0  0
   -1.1658    1.0945   -0.1271 C   0  0  0  0  0  0  0  0  0  0  0  0
   -2.1873    1.2963   -0.7730 O   0  0  0  0  0  0  0  0  0  0  0  0
   -0.0750    1.8614   -0.2259 N   0  0  0  0  0  0  0  0  0  0  0  0
    0.7095    1.6416    0.3652 H   0  0  0  0  0  0  0  0  0  0  0  0
    0.0185    3.0475   -1.0791 C   0  0  0  0  0  0  0  0  0  0  0  0
   -0.7129    3.7919   -0.7572 H   0  0  0  0  0  0  0  0  0  0  0  0
    1.0169    3.4824   -1.0188 H   0  0  0  0  0  0  0  0  0  0  0  0
   -0.1961    2.7803   -2.1161 H   0  0  0  0  0  0  0  0  0  0  0  0
  5  6  2  0  0  0  0
  5  7  1  0  0  0  0
  2  3  1  0  0  0  0
  2  4  1  0  0  0  0
  2  5  1  0  0  0  0
  1  2  1  0  0  0  0
 27 28  2  0  0  0  0
 27 29  1  0  0  0  0
 23 24  1  0  0  0  0
 23 25  1  0  0  0  0
 23 26  1  0  0  0  0
 20 21  1  0  0  0  0
 20 22  1  0  0  0  0
 20 23  1  0  0  0  0
 17 18  1  0  0  0  0
 17 19  1  0  0  0  0
 17 20  1  0  0  0  0
 14 15  1  0  0  0  0
 14 16  1  0  0  0  0
 14 17  1  0  0  0  0
 11 12  1  0  0  0  0
 11 13  1  0  0  0  0
 11 14  1  0  0  0  0
  9 10  1  0  0  0  0
  9 11  1  0  0  0  0
  9 27  1  0  0  0  0
  7  8  1  0  0  0  0
  7  9  1  0  0  0  0
 31 32  1  0  0  0  0
 31 33  1  0  0  0  0
 31 34  1  0  0  0  0
 29 30  1  0  0  0  0
 29 31  1  0  0  0  0
M  CHG  1  23   1
M  END
$$$$
default_name
  -OEChem-01062215323D

 34 33  0     1  0  0  0  0  0999 V2000
   -3.8899   -3.6747    1.6490 H   0  0  0  0  0  0  0  0  0  0  0  0
   -3.9109   -2.6717    1.2250 C   0  0  0  0  0  0  0  0  0  0  0  0
   -4.6009   -2.0517    1.7950 H   0  0  0  0  0  0  0  0  0  0  0  0
   -4.2309   -2.7237    0.1860 H   0  0  0  0  0  0  0  0  0  0  0  0
   -2.5229   -2.0787    1.2980 C   0  0  0  0  0  0  0  0  0  0  0  0
   -1.5999   -2.7227    1.7810 O   0  0  0  0  0  0  0  0  0  0  0  0
   -2.3659   -0.8447    0.8120 N   0  0  0  0  0  0  0  0  0  0  0  0
   -3.1749   -0.3807    0.4220 H   0  0  0  0  0  0  0  0  0  0  0  0
   -1.0919   -0.1077    0.8170 C   0  0  1  0  0  0  0  0  0  0  0  0
   -0.9089    0.2530    1.8308 H   0  0  0  0  0  0  0  0  0  0  0  0
    0.0370   -1.0788    0.4234 C   0  0  0  0  0  0  0  0  0  0  0  0
   -0.2384   -1.5719   -0.5101 H   0  0  0  0  0  0  0  0  0  0  0  0
    0.9540   -0.5119    0.2510 H   0  0  0  0  0  0  0  0  0  0  0  0
    0.3025   -2.1610    1.4812 C   0  0  0  0  0  0  0  0  0  0  0  0
    0.5664   -1.6909    2.4295 H   0  0  0  0  0  0  0  0  0  0  0  0
   -0.6009   -2.7584    1.6187 H   0  0  0  0  0  0  0  0  0  0  0  0
    1.4525   -3.0742    1.0346 C   0  0  0  0  0  0  0  0  0  0  0  0
    1.1915   -3.5318    0.0774 H   0  0  0  0  0  0  0  0  0  0  0  0
    2.3554   -2.4736    0.9075 H   0  0  0  0  0  0  0  0  0  0  0  0
    1.7022   -4.1702    2.0782 C   0  0  0  0  0  0  0  0  0  0  0  0
    1.9543   -3.6919    3.0303 H   0  0  0  0  0  0  0  0  0  0  0  0
    0.7744   -4.7323    2.2208 H   0  0  0  0  0  0  0  0  0  0  0  0
    2.7955   -5.0836    1.6596 N   0  3  0  0  0  0  0  0  0  0  0  0
    3.6595   -4.5707    1.5362 H   0  0  0  0  0  0  0  0  0  0  0  0
    2.9474   -5.8005    2.3581 H   0  0  0  0  0  0  0  0  0  0  0  0
    2.5631   -5.5356    0.7830 H   0  0  0  0  0  0  0  0  0  0  0  0
   -1.1658    1.0945   -0.1271 C   0  0  0  0  0  0  0  0  0  0  0  0
   -2.2526    1.4607   -0.5586 O   0  0  0  0  0  0  0  0  0  0  0  0
   -0.0108    1.6763   -0.4667 N   0  0  0  0  0  0  0  0  0  0  0  0
    0.8329    1.3306   -0.0404 H   0  0  0  0  0  0  0  0  0  0  0  0
    0.0931    2.8353   -1.3552 C   0  0  0  0  0  0  0  0  0  0  0  0
   -0.4299    3.6863   -0.9137 H   0  0  0  0  0  0  0  0  0  0  0  0
    1.1386    3.1036   -1.5108 H   0  0  0  0  0  0  0  0  0  0  0  0
   -0.3685    2.6103   -2.3191 H   0  0  0  0  0  0  0  0  0  0  0  0
  5  6  2  0  0  0  0
  5  7  1  0  0  0  0
  2  3  1  0  0  0  0
  2  4  1  0  0  0  0
  2  5  1  0  0  0  0
  1  2  1  0  0  0  0
 27 28  2  0  0  0  0
 27 29  1  0  0  0  0
 23 24  1  0  0  0  0
 23 25  1  0  0  0  0
 23 26  1  0  0  0  0
 20 21  1  0  0  0  0
 20 22  1  0  0  0  0
 20 23  1  0  0  0  0
 17 18  1  0  0  0  0
 17 19  1  0  0  0  0
 17 20  1  0  0  0  0
 14 15  1  0  0  0  0
 14 16  1  0  0  0  0
 14 17  1  0  0  0  0
 11 12  1  0  0  0  0
 11 13  1  0  0  0  0
 11 14  1  0  0  0  0
  9 10  1  0  0  0  0
  9 11  1  0  0  0  0
  9 27  1  0  0  0  0
  7  8  1  0  0  0  0
  7  9  1  0  0  0  0
 31 32  1  0  0  0  0
 31 33  1  0  0  0  0
 31 34  1  0  0  0  0
 29 30  1  0  0  0  0
 29 31  1  0  0  0  0
M  CHG  1  23   1
M  END
$$$$
default_name
  -OEChem-01062215323D

 34 33  0     1  0  0  0  0  0999 V2000
   -3.8899   -3.6747    1.6490 H   0  0  0  0  0  0  0  0  0  0  0  0
   -3.9109   -2.6717    1.2250 C   0  0  0  0  0  0  0  0  0  0  0  0
   -4.6009   -2.0517    1.7950 H   0  0  0  0  0  0  0  0  0  0  0  0
   -4.2309   -2.7237    0.1860 H   0  0  0  0  0  0  0  0  0  0  0  0
   -2.5229   -2.0787    1.2980 C   0  0  0  0  0  0  0  0  0  0  0  0
   -1.5999   -2.7227    1.7810 O   0  0  0  0  0  0  0  0  0  0  0  0
   -2.3659   -0.8447    0.8120 N   0  0  0  0  0  0  0  0  0  0  0  0
   -3.1749   -0.3807    0.4220 H   0  0  0  0  0  0  0  0  0  0  0  0
   -1.0919   -0.1077    0.8170 C   0  0  1  0  0  0  0  0  0  0  0  0
   -0.9089    0.2530    1.8308 H   0  0  0  0  0  0  0  0  0  0  0  0
    0.0370   -1.0788    0.4234 C   0  0  0  0  0  0  0  0  0  0  0  0
   -0.2384   -1.5719   -0.5101 H   0  0  0  0  0  0  0  0  0  0  0  0
    0.9540   -0.5119    0.2510 H   0  0  0  0  0  0  0  0  0  0  0  0
    0.3025   -2.1610    1.4812 C   0  0  0  0  0  0  0  0  0  0  0  0
    0.5664   -1.6909    2.4295 H   0  0  0  0  0  0  0  0  0  0  0  0
   -0.6009   -2.7584    1.6187 H   0  0  0  0  0  0  0  0  0  0  0  0
    1.4525   -3.0742    1.0346 C   0  0  0  0  0  0  0  0  0  0  0  0
    1.1915   -3.5318    0.0774 H   0  0  0  0  0  0  0  0  0  0  0  0
    2.3554   -2.4736    0.9075 H   0  0  0  0  0  0  0  0  0  0  0  0
    1.7022   -4.1702    2.0782 C   0  0  0  0  0  0  0  0  0  0  0  0
    1.9543   -3.6919    3.0303 H   0  0  0  0  0  0  0  0  0  0  0  0
    0.7744   -4.7323    2.2208 H   0  0  0  0  0  0  0  0  0  0  0  0
    2.7955   -5.0836    1.6596 N   0  3  0  0  0  0  0  0  0  0  0  0
    3.6595   -4.5707    1.5362 H   0  0  0  0  0  0  0  0  0  0  0  0
    2.9474   -5.8005    2.3581 H   0  0  0  0  0  0  0  0  0  0  0  0
    2.5631   -5.5356    0.7830 H   0  0  0  0  0  0  0  0  0  0  0  0
   -1.1658    1.0945   -0.1271 C   0  0  0  0  0  0  0  0  0  0  0  0
   -2.2458    1.6326   -0.3402 O   0  0  0  0  0  0  0  0  0  0  0  0
   -0.0273    1.4841   -0.7101 N   0  0  0  0  0  0  0  0  0  0  0  0
    0.8201    1.0055   -0.4534 H   0  0  0  0  0  0  0  0  0  0  0  0
    0.0750    2.6149   -1.6344 C   0  0  0  0  0  0  0  0  0  0  0  0
   -0.2051    3.5372   -1.1211 H   0  0  0  0  0  0  0  0  0  0  0  0
    1.0958    2.7120   -2.0060 H   0  0  0  0  0  0  0  0  0  0  0  0
   -0.6035    2.4710   -2.4781 H   0  0  0  0  0  0  0  0  0  0  0  0
  5  6  2  0  0  0  0
  5  7  1  0  0  0  0
  2  3  1  0  0  0  0
  2  4  1  0  0  0  0
  2  5  1  0  0  0  0
  1  2  1  0  0  0  0
 27 28  2  0  0  0  0
 27 29  1  0  0  0  0
 23 24  1  0  0  0  0
 23 25  1  0  0  0  0
 23 26  1  0  0  0  0
 20 21  1  0  0  0  0
 20 22  1  0  0  0  0
 20 23  1  0  0  0  0
 17 18  1  0  0  0  0
 17 19  1  0  0  0  0
 17 20  1  0  0  0  0
 14 15  1  0  0  0  0
 14 16  1  0  0  0  0
 14 17  1  0  0  0  0
 11 12  1  0  0  0  0
 11 13  1  0  0  0  0
 11 14  1  0  0  0  0
  9 10  1  0  0  0  0
  9 11  1  0  0  0  0
  9 27  1  0  0  0  0
  7  8  1  0  0  0  0
  7  9  1  0  0  0  0
 31 32  1  0  0  0  0
 31 33  1  0  0  0  0
 31 34  1  0  0  0  0
 29 30  1  0  0  0  0
 29 31  1  0  0  0  0
M  CHG  1  23   1
M  END
$$$$
default_name
  -OEChem-01062215323D

 34 33  0     1  0  0  0  0  0999 V2000
   -3.8899   -3.6747    1.6490 H   0  0  0  0  0  0  0  0  0  0  0  0
   -3.9109   -2.6717    1.2250 C   0  0  0  0  0  0  0  0  0  0  0  0
   -4.6009   -2.0517    1.7950 H   0  0  0  0  0  0  0  0  0  0  0  0
   -4.2309   -2.7237    0.1860 H   0  0  0  0  0  0  0  0  0  0  0  0
   -2.5229   -2.0787    1.2980 C   0  0  0  0  0  0  0  0  0  0  0  0
   -1.5999   -2.7227    1.7810 O   0  0  0  0  0  0  0  0  0  0  0  0
   -2.3659   -0.8447    0.8120 N   0  0  0  0  0  0  0  0  0  0  0  0
   -3.1749   -0.3807    0.4220 H   0  0  0  0  0  0  0  0  0  0  0  0
   -1.0919   -0.1077    0.8170 C   0  0  1  0  0  0  0  0  0  0  0  0
   -0.9089    0.2530    1.8308 H   0  0  0  0  0  0  0  0  0  0  0  0
    0.0370   -1.0788    0.4234 C   0  0  0  0  0  0  0  0  0  0  0  0
   -0.2384   -1.5719   -0.5101 H   0  0  0  0  0  0  0  0  0  0  0  0
    0.9540   -0.5119    0.2510 H   0  0  0  0  0  0  0  0  0  0  0  0
    0.3025   -2.1610    1.4812 C   0  0  0  0  0  0  0  0  0  0  0  0
    0.5664   -1.6909    2.4295 H   0  0  0  0  0  0  0  0  0  0  0  0
   -0.6009   -2.7584    1.6187 H   0  0  0  0  0  0  0  0  0  0  0  0
    1.4525   -3.0742    1.0346 C   0  0  0  0  0  0  0  0  0  0  0  0
    1.1915   -3.5318    0.0774 H   0  0  0  0  0  0  0  0  0  0  0  0
    2.3554   -2.4736    0.9075 H   0  0  0  0  0  0  0  0  0  0  0  0
    1.7022   -4.1702    2.0782 C   0  0  0  0  0  0  0  0  0  0  0  0
    1.9543   -3.6919    3.0303 H   0  0  0  0  0  0  0  0  0  0  0  0
    0.7744   -4.7323    2.2208 H   0  0  0  0  0  0  0  0  0  0  0  0
    2.7955   -5.0836    1.6596 N   0  3  0  0  0  0  0  0  0  0  0  0
    3.6595   -4.5707    1.5362 H   0  0  0  0  0  0  0  0  0  0  0  0
    2.9474   -5.8005    2.3581 H   0  0  0  0  0  0  0  0  0  0  0  0
    2.5631   -5.5356    0.7830 H   0  0  0  0  0  0  0  0  0  0  0  0
   -1.1658    1.0945   -0.1271 C   0  0  0  0  0  0  0  0  0  0  0  0
   -2.1674    1.8003   -0.1328 O   0  0  0  0  0  0  0  0  0  0  0  0
   -0.1234    1.2982   -0.9394 N   0  0  0  0  0  0  0  0  0  0  0  0
    0.6718    0.6883   -0.8457 H   0  0  0  0  0  0  0  0  0  0  0  0
   -0.0343    2.4014   -1.8977 C   0  0  0  0  0  0  0  0  0  0  0  0
   -0.0540    3.3548   -1.3653 H   0  0  0  0  0  0  0  0  0  0  0  0
    0.8911    2.3345   -2.4707 H   0  0  0  0  0  0  0  0  0  0  0  0
   -0.8849    2.3720   -2.5821 H   0  0  0  0  0  0  0  0  0  0  0  0
  5  6  2  0  0  0  0
  5  7  1  0  0  0  0
  2  3  1  0  0  0  0
  2  4  1  0  0  0  0
  2  5  1  0  0  0  0
  1  2  1  0  0  0  0
 27 28  2  0  0  0  0
 27 29  1  0  0  0  0
 23 24  1  0  0  0  0
 23 25  1  0  0  0  0
 23 26  1  0  0  0  0
 20 21  1  0  0  0  0
 20 22  1  0  0  0  0
 20 23  1  0  0  0  0
 17 18  1  0  0  0  0
 17 19  1  0  0  0  0
 17 20  1  0  0  0  0
 14 15  1  0  0  0  0
 14 16  1  0  0  0  0
 14 17  1  0  0  0  0
 11 12  1  0  0  0  0
 11 13  1  0  0  0  0
 11 14  1  0  0  0  0
  9 10  1  0  0  0  0
  9 11  1  0  0  0  0
  9 27  1  0  0  0  0
  7  8  1  0  0  0  0
  7  9  1  0  0  0  0
 31 32  1  0  0  0  0
 31 33  1  0  0  0  0
 31 34  1  0  0  0  0
 29 30  1  0  0  0  0
 29 31  1  0  0  0  0
M  CHG  1  23   1
M  END
$$$$
default_name
  -OEChem-01062215323D

 34 33  0     1  0  0  0  0  0999 V2000
   -3.8899   -3.6747    1.6490 H   0  0  0  0  0  0  0  0  0  0  0  0
   -3.9109   -2.6717    1.2250 C   0  0  0  0  0  0  0  0  0  0  0  0
   -4.6009   -2.0517    1.7950 H   0  0  0  0  0  0  0  0  0  0  0  0
   -4.2309   -2.7237    0.1860 H   0  0  0  0  0  0  0  0  0  0  0  0
   -2.5229   -2.0787    1.2980 C   0  0  0  0  0  0  0  0  0  0  0  0
   -1.5999   -2.7227    1.7810 O   0  0  0  0  0  0  0  0  0  0  0  0
   -2.3659   -0.8447    0.8120 N   0  0  0  0  0  0  0  0  0  0  0  0
   -3.1749   -0.3807    0.4220 H   0  0  0  0  0  0  0  0  0  0  0  0
   -1.0919   -0.1077    0.8170 C   0  0  1  0  0  0  0  0  0  0  0  0
   -0.9089    0.2530    1.8308 H   0  0  0  0  0  0  0  0  0  0  0  0
    0.0370   -1.0788    0.4234 C   0  0  0  0  0  0  0  0  0  0  0  0
   -0.2384   -1.5719   -0.5101 H   0  0  0  0  0  0  0  0  0  0  0  0
    0.9540   -0.5119    0.2510 H   0  0  0  0  0  0  0  0  0  0  0  0
    0.3025   -2.1610    1.4812 C   0  0  0  0  0  0  0  0  0  0  0  0
    0.5664   -1.6909    2.4295 H   0  0  0  0  0  0  0  0  0  0  0  0
   -0.6009   -2.7584    1.6187 H   0  0  0  0  0  0  0  0  0  0  0  0
    1.4525   -3.0742    1.0346 C   0  0  0  0  0  0  0  0  0  0  0  0
    1.1915   -3.5318    0.0774 H   0  0  0  0  0  0  0  0  0  0  0  0
    2.3554   -2.4736    0.9075 H   0  0  0  0  0  0  0  0  0  0  0  0
    1.7022   -4.1702    2.0782 C   0  0  0  0  0  0  0  0  0  0  0  0
    1.9543   -3.6919    3.0303 H   0  0  0  0  0  0  0  0  0  0  0  0
    0.7744   -4.7323    2.2208 H   0  0  0  0  0  0  0  0  0  0  0  0
    2.7955   -5.0836    1.6596 N   0  3  0  0  0  0  0  0  0  0  0  0
    3.6595   -4.5707    1.5362 H   0  0  0  0  0  0  0  0  0  0  0  0
    2.9474   -5.8005    2.3581 H   0  0  0  0  0  0  0  0  0  0  0  0
    2.5631   -5.5356    0.7830 H   0  0  0  0  0  0  0  0  0  0  0  0
   -1.1658    1.0945   -0.1271 C   0  0  0  0  0  0  0  0  0  0  0  0
   -2.0228    1.9523    0.0495 O   0  0  0  0  0  0  0  0  0  0  0  0
   -0.2926    1.1310   -1.1390 N   0  0  0  0  0  0  0  0  0  0  0  0
    0.3982    0.4007   -1.1905 H   0  0  0  0  0  0  0  0  0  0  0  0
   -0.2276    2.2094   -2.1271 C   0  0  0  0  0  0  0  0  0  0  0  0
    0.0132    3.1513   -1.6296 H   0  0  0  0  0  0  0  0  0  0  0  0
    0.5387    1.9967   -2.8734 H   0  0  0  0  0  0  0  0  0  0  0  0
   -1.1938    2.3201   -2.6242 H   0  0  0  0  0  0  0  0  0  0  0  0
  5  6  2  0  0  0  0
  5  7  1  0  0  0  0
  2  3  1  0  0  0  0
  2  4  1  0  0  0  0
  2  5  1  0  0  0  0
  1  2  1  0  0  0  0
 27 28  2  0  0  0  0
 27 29  1  0  0  0  0
 23 24  1  0  0  0  0
 23 25  1  0  0  0  0
 23 26  1  0  0  0  0
 20 21  1  0  0  0  0
 20 22  1  0  0  0  0
 20 23  1  0  0  0  0
 17 18  1  0  0  0  0
 17 19  1  0  0  0  0
 17 20  1  0  0  0  0
 14 15  1  0  0  0  0
 14 16  1  0  0  0  0
 14 17  1  0  0  0  0
 11 12  1  0  0  0  0
 11 13  1  0  0  0  0
 11 14  1  0  0  0  0
  9 10  1  0  0  0  0
  9 11  1  0  0  0  0
  9 27  1  0  0  0  0
  7  8  1  0  0  0  0
  7  9  1  0  0  0  0
 31 32  1  0  0  0  0
 31 33  1  0  0  0  0
 31 34  1  0  0  0  0
 29 30  1  0  0  0  0
 29 31  1  0  0  0  0
M  CHG  1  23   1
M  END
$$$$
default_name
  -OEChem-01062215323D

 34 33  0     1  0  0  0  0  0999 V2000
   -3.8899   -3.6747    1.6490 H   0  0  0  0  0  0  0  0  0  0  0  0
   -3.9109   -2.6717    1.2250 C   0  0  0  0  0  0  0  0  0  0  0  0
   -4.6009   -2.0517    1.7950 H   0  0  0  0  0  0  0  0  0  0  0  0
   -4.2309   -2.7237    0.1860 H   0  0  0  0  0  0  0  0  0  0  0  0
   -2.5229   -2.0787    1.2980 C   0  0  0  0  0  0  0  0  0  0  0  0
   -1.5999   -2.7227    1.7810 O   0  0  0  0  0  0  0  0  0  0  0  0
   -2.3659   -0.8447    0.8120 N   0  0  0  0  0  0  0  0  0  0  0  0
   -3.1749   -0.3807    0.4220 H   0  0  0  0  0  0  0  0  0  0  0  0
   -1.0919   -0.1077    0.8170 C   0  0  1  0  0  0  0  0  0  0  0  0
   -0.9089    0.2530    1.8308 H   0  0  0  0  0  0  0  0  0  0  0  0
    0.0370   -1.0788    0.4234 C   0  0  0  0  0  0  0  0  0  0  0  0
   -0.2384   -1.5719   -0.5101 H   0  0  0  0  0  0  0  0  0  0  0  0
    0.9540   -0.5119    0.2510 H   0  0  0  0  0  0  0  0  0  0  0  0
    0.3025   -2.1610    1.4812 C   0  0  0  0  0  0  0  0  0  0  0  0
    0.5664   -1.6909    2.4295 H   0  0  0  0  0  0  0  0  0  0  0  0
   -0.6009   -2.7584    1.6187 H   0  0  0  0  0  0  0  0  0  0  0  0
    1.4525   -3.0742    1.0346 C   0  0  0  0  0  0  0  0  0  0  0  0
    1.1915   -3.5318    0.0774 H   0  0  0  0  0  0  0  0  0  0  0  0
    2.3554   -2.4736    0.9075 H   0  0  0  0  0  0  0  0  0  0  0  0
    1.7022   -4.1702    2.0782 C   0  0  0  0  0  0  0  0  0  0  0  0
    1.9543   -3.6919    3.0303 H   0  0  0  0  0  0  0  0  0  0  0  0
    0.7744   -4.7323    2.2208 H   0  0  0  0  0  0  0  0  0  0  0  0
    2.7955   -5.0836    1.6596 N   0  3  0  0  0  0  0  0  0  0  0  0
    3.6595   -4.5707    1.5362 H   0  0  0  0  0  0  0  0  0  0  0  0
    2.9474   -5.8005    2.3581 H   0  0  0  0  0  0  0  0  0  0  0  0
    2.5631   -5.5356    0.7830 H   0  0  0  0  0  0  0  0  0  0  0  0
   -1.1658    1.0945   -0.1271 C   0  0  0  0  0  0  0  0  0  0  0  0
   -1.8217    2.0784    0.1943 O   0  0  0  0  0  0  0  0  0  0  0  0
   -0.5232    0.9941   -1.2953 N   0  0  0  0  0  0  0  0  0  0  0  0
    0.0179    0.1623   -1.4643 H   0  0  0  0  0  0  0  0  0  0  0  0
   -0.4916    2.0519   -2.3070 C   0  0  0  0  0  0  0  0  0  0  0  0
   -0.0082    2.9408   -1.8960 H   0  0  0  0  0  0  0  0  0  0  0  0
    0.0625    1.7216   -3.1864 H   0  0  0  0  0  0  0  0  0  0  0  0
   -1.5090    2.3186   -2.6013 H   0  0  0  0  0  0  0  0  0  0  0  0
  5  6  2  0  0  0  0
  5  7  1  0  0  0  0
  2  3  1  0  0  0  0
  2  4  1  0  0  0  0
  2  5  1  0  0  0  0
  1  2  1  0  0  0  0
 27 28  2  0  0  0  0
 27 29  1  0  0  0  0
 23 24  1  0  0  0  0
 23 25  1  0  0  0  0
 23 26  1  0  0  0  0
 20 21  1  0  0  0  0
 20 22  1  0  0  0  0
 20 23  1  0  0  0  0
 17 18  1  0  0  0  0
 17 19  1  0  0  0  0
 17 20  1  0  0  0  0
 14 15  1  0  0  0  0
 14 16  1  0  0  0  0
 14 17  1  0  0  0  0
 11 12  1  0  0  0  0
 11 13  1  0  0  0  0
 11 14  1  0  0  0  0
  9 10  1  0  0  0  0
  9 11  1  0  0  0  0
  9 27  1  0  0  0  0
  7  8  1  0  0  0  0
  7  9  1  0  0  0  0
 31 32  1  0  0  0  0
 31 33  1  0  0  0  0
 31 34  1  0  0  0  0
 29 30  1  0  0  0  0
 29 31  1  0  0  0  0
M  CHG  1  23   1
M  END
$$$$
default_name
  -OEChem-01062215323D

 34 33  0     1  0  0  0  0  0999 V2000
   -3.8899   -3.6747    1.6490 H   0  0  0  0  0  0  0  0  0  0  0  0
   -3.9109   -2.6717    1.2250 C   0  0  0  0  0  0  0  0  0  0  0  0
   -4.6009   -2.0517    1.7950 H   0  0  0  0  0  0  0  0  0  0  0  0
   -4.2309   -2.7237    0.1860 H   0  0  0  0  0  0  0  0  0  0  0  0
   -2.5229   -2.0787    1.2980 C   0  0  0  0  0  0  0  0  0  0  0  0
   -1.5999   -2.7227    1.7810 O   0  0  0  0  0  0  0  0  0  0  0  0
   -2.3659   -0.8447    0.8120 N   0  0  0  0  0  0  0  0  0  0  0  0
   -3.1749   -0.3807    0.4220 H   0  0  0  0  0  0  0  0  0  0  0  0
   -1.0919   -0.1077    0.8170 C   0  0  1  0  0  0  0  0  0  0  0  0
   -0.9089    0.2530    1.8308 H   0  0  0  0  0  0  0  0  0  0  0  0
    0.0370   -1.0788    0.4234 C   0  0  0  0  0  0  0  0  0  0  0  0
   -0.2384   -1.5719   -0.5101 H   0  0  0  0  0  0  0  0  0  0  0  0
    0.9540   -0.5119    0.2510 H   0  0  0  0  0  0  0  0  0  0  0  0
    0.3025   -2.1610    1.4812 C   0  0  0  0  0  0  0  0  0  0  0  0
    0.5664   -1.6909    2.4295 H   0  0  0  0  0  0  0  0  0  0  0  0
   -0.6009   -2.7584    1.6187 H   0  0  0  0  0  0  0  0  0  0  0  0
    1.4525   -3.0742    1.0346 C   0  0  0  0  0  0  0  0  0  0  0  0
    1.1915   -3.5318    0.0774 H   0  0  0  0  0  0  0  0  0  0  0  0
    2.3554   -2.4736    0.9075 H   0  0  0  0  0  0  0  0  0  0  0  0
    1.7022   -4.1702    2.0782 C   0  0  0  0  0  0  0  0  0  0  0  0
    1.9543   -3.6919    3.0303 H   0  0  0  0  0  0  0  0  0  0  0  0
    0.7744   -4.7323    2.2208 H   0  0  0  0  0  0  0  0  0  0  0  0
    2.7955   -5.0836    1.6596 N   0  3  0  0  0  0  0  0  0  0  0  0
    3.6595   -4.5707    1.5362 H   0  0  0  0  0  0  0  0  0  0  0  0
    2.9474   -5.8005    2.3581 H   0  0  0  0  0  0  0  0  0  0  0  0
    2.5631   -5.5356    0.7830 H   0  0  0  0  0  0  0  0  0  0  0  0
   -1.1658    1.0945   -0.1271 C   0  0  0  0  0  0  0  0  0  0  0  0
   -1.5779    2.1698    0.2917 O   0  0  0  0  0  0  0  0  0  0  0  0
   -0.7997    0.8967   -1.3978 N   0  0  0  0  0  0  0  0  0  0  0  0
   -0.4432   -0.0106   -1.6485 H   0  0  0  0  0  0  0  0  0  0  0  0
   -0.8083    1.9397   -2.4252 C   0  0  0  0  0  0  0  0  0  0  0  0
   -0.1166    2.7375   -2.1464 H   0  0  0  0  0  0  0  0  0  0  0  0
   -0.5050    1.5281   -3.3885 H   0  0  0  0  0  0  0  0  0  0  0  0
   -1.8090    2.3679   -2.5152 H   0  0  0  0  0  0  0  0  0  0  0  0
  5  6  2  0  0  0  0
  5  7  1  0  0  0  0
  2  3  1  0  0  0  0
  2  4  1  0  0  0  0
  2  5  1  0  0  0  0
  1  2  1  0  0  0  0
 27 28  2  0  0  0  0
 27 29  1  0  0  0  0
 23 24  1  0  0  0  0
 23 25  1  0  0  0  0
 23 26  1  0  0  0  0
 20 21  1  0  0  0  0
 20 22  1  0  0  0  0
 20 23  1  0  0  0  0
 17 18  1  0  0  0  0
 17 19  1  0  0  0  0
 17 20  1  0  0  0  0
 14 15  1  0  0  0  0
 14 16  1  0  0  0  0
 14 17  1  0  0  0  0
 11 12  1  0  0  0  0
 11 13  1  0  0  0  0
 11 14  1  0  0  0  0
  9 10  1  0  0  0  0
  9 11  1  0  0  0  0
  9 27  1  0  0  0  0
  7  8  1  0  0  0  0
  7  9  1  0  0  0  0
 31 32  1  0  0  0  0
 31 33  1  0  0  0  0
 31 34  1  0  0  0  0
 29 30  1  0  0  0  0
 29 31  1  0  0  0  0
M  CHG  1  23   1
M  END
$$$$
default_name
  -OEChem-01062215323D

 34 33  0     1  0  0  0  0  0999 V2000
   -3.8899   -3.6747    1.6490 H   0  0  0  0  0  0  0  0  0  0  0  0
   -3.9109   -2.6717    1.2250 C   0  0  0  0  0  0  0  0  0  0  0  0
   -4.6009   -2.0517    1.7950 H   0  0  0  0  0  0  0  0  0  0  0  0
   -4.2309   -2.7237    0.1860 H   0  0  0  0  0  0  0  0  0  0  0  0
   -2.5229   -2.0787    1.2980 C   0  0  0  0  0  0  0  0  0  0  0  0
   -1.5999   -2.7227    1.7810 O   0  0  0  0  0  0  0  0  0  0  0  0
   -2.3659   -0.8447    0.8120 N   0  0  0  0  0  0  0  0  0  0  0  0
   -3.1749   -0.3807    0.4220 H   0  0  0  0  0  0  0  0  0  0  0  0
   -1.0919   -0.1077    0.8170 C   0  0  1  0  0  0  0  0  0  0  0  0
   -0.9089    0.2530    1.8308 H   0  0  0  0  0  0  0  0  0  0  0  0
    0.0370   -1.0788    0.4234 C   0  0  0  0  0  0  0  0  0  0  0  0
   -0.2384   -1.5719   -0.5101 H   0  0  0  0  0  0  0  0  0  0  0  0
    0.9540   -0.5119    0.2510 H   0  0  0  0  0  0  0  0  0  0  0  0
    0.3025   -2.1610    1.4812 C   0  0  0  0  0  0  0  0  0  0  0  0
    0.5664   -1.6909    2.4295 H   0  0  0  0  0  0  0  0  0  0  0  0
   -0.6009   -2.7584    1.6187 H   0  0  0  0  0  0  0  0  0  0  0  0
    1.4525   -3.0742    1.0346 C   0  0  0  0  0  0  0  0  0  0  0  0
    1.1915   -3.5318    0.0774 H   0  0  0  0  0  0  0  0  0  0  0  0
    2.3554   -2.4736    0.9075 H   0  0  0  0  0  0  0  0  0  0  0  0
    1.7022   -4.1702    2.0782 C   0  0  0  0  0  0  0  0  0  0  0  0
    1.9543   -3.6919    3.0303 H   0  0  0  0  0  0  0  0  0  0  0  0
    0.7744   -4.7323    2.2208 H   0  0  0  0  0  0  0  0  0  0  0  0
    2.7955   -5.0836    1.6596 N   0  3  0  0  0  0  0  0  0  0  0  0
    3.6595   -4.5707    1.5362 H   0  0  0  0  0  0  0  0  0  0  0  0
    2.9474   -5.8005    2.3581 H   0  0  0  0  0  0  0  0  0  0  0  0
    2.5631   -5.5356    0.7830 H   0  0  0  0  0  0  0  0  0  0  0  0
   -1.1658    1.0945   -0.1271 C   0  0  0  0  0  0  0  0  0  0  0  0
   -1.3080    2.2204    0.3350 O   0  0  0  0  0  0  0  0  0  0  0  0
   -1.1031    0.8455   -1.4393 N   0  0  0  0  0  0  0  0  0  0  0  0
   -0.9537   -0.1064   -1.7306 H   0  0  0  0  0  0  0  0  0  0  0  0
   -1.1562    1.8804   -2.4735 C   0  0  0  0  0  0  0  0  0  0  0  0
   -0.3046    2.5553   -2.3637 H   0  0  0  0  0  0  0  0  0  0  0  0
   -1.1252    1.4292   -3.4659 H   0  0  0  0  0  0  0  0  0  0  0  0
   -2.0734    2.4644   -2.3716 H   0  0  0  0  0  0  0  0  0  0  0  0
  5  6  2  0  0  0  0
  5  7  1  0  0  0  0
  2  3  1  0  0  0  0
  2  4  1  0  0  0  0
  2  5  1  0  0  0  0
  1  2  1  0  0  0  0
 27 28  2  0  0  0  0
 27 29  1  0  0  0  0
 23 24  1  0  0  0  0
 23 25  1  0  0  0  0
 23 26  1  0  0  0  0
 20 21  1  0  0  0  0
 20 22  1  0  0  0  0
 20 23  1  0  0  0  0
 17 18  1  0  0  0  0
 17 19  1  0  0  0  0
 17 20  1  0  0  0  0
 14 15  1  0  0  0  0
 14 16  1  0  0  0  0
 14 17  1  0  0  0  0
 11 12  1  0  0  0  0
 11 13  1  0  0  0  0
 11 14  1  0  0  0  0
  9 10  1  0  0  0  0
  9 11  1  0  0  0  0
  9 27  1  0  0  0  0
  7  8  1  0  0  0  0
  7  9  1  0  0  0  0
 31 32  1  0  0  0  0
 31 33  1  0  0  0  0
 31 34  1  0  0  0  0
 29 30  1  0  0  0  0
 29 31  1  0  0  0  0
M  CHG  1  23   1
M  END
$$$$
default_name
  -OEChem-01062215323D

 34 33  0     1  0  0  0  0  0999 V2000
   -3.8899   -3.6747    1.6490 H   0  0  0  0  0  0  0  0  0  0  0  0
   -3.9109   -2.6717    1.2250 C   0  0  0  0  0  0  0  0  0  0  0  0
   -4.6009   -2.0517    1.7950 H   0  0  0  0  0  0  0  0  0  0  0  0
   -4.2309   -2.7237    0.1860 H   0  0  0  0  0  0  0  0  0  0  0  0
   -2.5229   -2.0787    1.2980 C   0  0  0  0  0  0  0  0  0  0  0  0
   -1.5999   -2.7227    1.7810 O   0  0  0  0  0  0  0  0  0  0  0  0
   -2.3659   -0.8447    0.8120 N   0  0  0  0  0  0  0  0  0  0  0  0
   -3.1749   -0.3807    0.4220 H   0  0  0  0  0  0  0  0  0  0  0  0
   -1.0919   -0.1077    0.8170 C   0  0  1  0  0  0  0  0  0  0  0  0
   -0.9089    0.2530    1.8308 H   0  0  0  0  0  0  0  0  0  0  0  0
    0.0370   -1.0788    0.4234 C   0  0  0  0  0  0  0  0  0  0  0  0
   -0.2384   -1.5719   -0.5101 H   0  0  0  0  0  0  0  0  0  0  0  0
    0.9540   -0.5119    0.2510 H   0  0  0  0  0  0  0  0  0  0  0  0
    0.3025   -2.1610    1.4812 C   0  0  0  0  0  0  0  0  0  0  0  0
    0.5664   -1.6909    2.4295 H   0  0  0  0  0  0  0  0  0  0  0  0
   -0.6009   -2.7584    1.6187 H   0  0  0  0  0  0  0  0  0  0  0  0
    1.4525   -3.0742    1.0346 C   0  0  0  0  0  0  0  0  0  0  0  0
    1.1915   -3.5318    0.0774 H   0  0  0  0  0  0  0  0  0  0  0  0
    2.3554   -2.4736    0.9075 H   0  0  0  0  0  0  0  0  0  0  0  0
    1.7022   -4.1702    2.0782 C   0  0  0  0  0  0  0  0  0  0  0  0
    1.9543   -3.6919    3.0303 H   0  0  0  0  0  0  0  0  0  0  0  0
    0.7744   -4.7323    2.2208 H   0  0  0  0  0  0  0  0  0  0  0  0
    2.7955   -5.0836    1.6596 N   0  3  0  0  0  0  0  0  0  0  0  0
    3.6595   -4.5707    1.5362 H   0  0  0  0  0  0  0  0  0  0  0  0
    2.9474   -5.8005    2.3581 H   0  0  0  0  0  0  0  0  0  0  0  0
    2.5631   -5.5356    0.7830 H   0  0  0  0  0  0  0  0  0  0  0  0
   -1.1658    1.0945   -0.1271 C   0  0  0  0  0  0  0  0  0  0  0  0
   -1.0304    2.2268    0.3214 O   0  0  0  0  0  0  0  0  0  0  0  0
   -1.4128    0.8439   -1.4170 N   0  0  0  0  0  0  0  0  0  0  0  0
   -1.4787   -0.1184   -1.7048 H   0  0  0  0  0  0  0  0  0  0  0  0
   -1.5114    1.8781   -2.4487 C   0  0  0  0  0  0  0  0  0  0  0  0
   -0.5595    2.4067   -2.5330 H   0  0  0  0  0  0  0  0  0  0  0  0
   -1.7558    1.4318   -3.4133 H   0  0  0  0  0  0  0  0  0  0  0  0
   -2.2842    2.6017   -2.1803 H   0  0  0  0  0  0  0  0  0  0  0  0
  5  6  2  0  0  0  0
  5  7  1  0  0  0  0
  2  3  1  0  0  0  0
  2  4  1  0  0  0  0
  2  5  1  0  0  0  0
  1  2  1  0  0  0  0
 27 28  2  0  0  0  0
 27 29  1  0  0  0  0
 23 24  1  0  0  0  0
 23 25  1  0  0  0  0
 23 26  1  0  0  0  0
 20 21  1  0  0  0  0
 20 22  1  0  0  0  0
 20 23  1  0  0  0  0
 17 18  1  0  0  0  0
 17 19  1  0  0  0  0
 17 20  1  0  0  0  0
 14 15  1  0  0  0  0
 14 16  1  0  0  0  0
 14 17  1  0  0  0  0
 11 12  1  0  0  0  0
 11 13  1  0  0  0  0
 11 14  1  0  0  0  0
  9 10  1  0  0  0  0
  9 11  1  0  0  0  0
  9 27  1  0  0  0  0
  7  8  1  0  0  0  0
  7  9  1  0  0  0  0
 31 32  1  0  0  0  0
 31 33  1  0  0  0  0
 31 34  1  0  0  0  0
 29 30  1  0  0  0  0
 29 31  1  0  0  0  0
M  CHG  1  23   1
M  END
$$$$
default_name
  -OEChem-01062215323D

 34 33  0     1  0  0  0  0  0999 V2000
   -3.8899   -3.6747    1.6490 H   0  0  0  0  0  0  0  0  0  0  0  0
   -3.9109   -2.6717    1.2250 C   0  0  0  0  0  0  0  0  0  0  0  0
   -4.6009   -2.0517    1.7950 H   0  0  0  0  0  0  0  0  0  0  0  0
   -4.2309   -2.7237    0.1860 H   0  0  0  0  0  0  0  0  0  0  0  0
   -2.5229   -2.0787    1.2980 C   0  0  0  0  0  0  0  0  0  0  0  0
   -1.5999   -2.7227    1.7810 O   0  0  0  0  0  0  0  0  0  0  0  0
   -2.3659   -0.8447    0.8120 N   0  0  0  0  0  0  0  0  0  0  0  0
   -3.1749   -0.3807    0.4220 H   0  0  0  0  0  0  0  0  0  0  0  0
   -1.0919   -0.1077    0.8170 C   0  0  1  0  0  0  0  0  0  0  0  0
   -0.9089    0.2530    1.8308 H   0  0  0  0  0  0  0  0  0  0  0  0
    0.0370   -1.0788    0.4234 C   0  0  0  0  0  0  0  0  0  0  0  0
   -0.2384   -1.5719   -0.5101 H   0  0  0  0  0  0  0  0  0  0  0  0
    0.9540   -0.5119    0.2510 H   0  0  0  0  0  0  0  0  0  0  0  0
    0.3025   -2.1610    1.4812 C   0  0  0  0  0  0  0  0  0  0  0  0
    0.5664   -1.6909    2.4295 H   0  0  0  0  0  0  0  0  0  0  0  0
   -0.6009   -2.7584    1.6187 H   0  0  0  0  0  0  0  0  0  0  0  0
    1.4525   -3.0742    1.0346 C   0  0  0  0  0  0  0  0  0  0  0  0
    1.1915   -3.5318    0.0774 H   0  0  0  0  0  0  0  0  0  0  0  0
    2.3554   -2.4736    0.9075 H   0  0  0  0  0  0  0  0  0  0  0  0
    1.7022   -4.1702    2.0782 C   0  0  0  0  0  0  0  0  0  0  0  0
    1.9543   -3.6919    3.0303 H   0  0  0  0  0  0  0  0  0  0  0  0
    0.7744   -4.7323    2.2208 H   0  0  0  0  0  0  0  0  0  0  0  0
    2.7955   -5.0836    1.6596 N   0  3  0  0  0  0  0  0  0  0  0  0
    3.6595   -4.5707    1.5362 H   0  0  0  0  0  0  0  0  0  0  0  0
    2.9474   -5.8005    2.3581 H   0  0  0  0  0  0  0  0  0  0  0  0
    2.5631   -5.5356    0.7830 H   0  0  0  0  0  0  0  0  0  0  0  0
   -1.1658    1.0945   -0.1271 C   0  0  0  0  0  0  0  0  0  0  0  0
   -0.7641    2.1884    0.2517 O   0  0  0  0  0  0  0  0  0  0  0  0
   -1.7076    0.8921   -1.3326 N   0  0  0  0  0  0  0  0  0  0  0  0
   -1.9825   -0.0458   -1.5730 H   0  0  0  0  0  0  0  0  0  0  0  0
   -1.8500    1.9328   -2.3525 C   0  0  0  0  0  0  0  0  0  0  0  0
   -0.8639    2.3017   -2.6429 H   0  0  0  0  0  0  0  0  0  0  0  0
   -2.3538    1.5356   -3.2344 H   0  0  0  0  0  0  0  0  0  0  0  0
   -2.4270    2.7703   -1.9544 H   0  0  0  0  0  0  0  0  0  0  0  0
  5  6  2  0  0  0  0
  5  7  1  0  0  0  0
  2  3  1  0  0  0  0
  2  4  1  0  0  0  0
  2  5  1  0  0  0  0
  1  2  1  0  0  0  0
 27 28  2  0  0  0  0
 27 29  1  0  0  0  0
 23 24  1  0  0  0  0
 23 25  1  0  0  0  0
 23 26  1  0  0  0  0
 20 21  1  0  0  0  0
 20 22  1  0  0  0  0
 20 23  1  0  0  0  0
 17 18  1  0  0  0  0
 17 19  1  0  0  0  0
 17 20  1  0  0  0  0
 14 15  1  0  0  0  0
 14 16  1  0  0  0  0
 14 17  1  0  0  0  0
 11 12  1  0  0  0  0
 11 13  1  0  0  0  0
 11 14  1  0  0  0  0
  9 10  1  0  0  0  0
  9 11  1  0  0  0  0
  9 27  1  0  0  0  0
  7  8  1  0  0  0  0
  7  9  1  0  0  0  0
 31 32  1  0  0  0  0
 31 33  1  0  0  0  0
 31 34  1  0  0  0  0
 29 30  1  0  0  0  0
 29 31  1  0  0  0  0
M  CHG  1  23   1
M  END
$$$$
default_name
  -OEChem-01062215323D

 34 33  0     1  0  0  0  0  0999 V2000
   -3.8899   -3.6747    1.6490 H   0  0  0  0  0  0  0  0  0  0  0  0
   -3.9109   -2.6717    1.2250 C   0  0  0  0  0  0  0  0  0  0  0  0
   -4.6009   -2.0517    1.7950 H   0  0  0  0  0  0  0  0  0  0  0  0
   -4.2309   -2.7237    0.1860 H   0  0  0  0  0  0  0  0  0  0  0  0
   -2.5229   -2.0787    1.2980 C   0  0  0  0  0  0  0  0  0  0  0  0
   -1.5999   -2.7227    1.7810 O   0  0  0  0  0  0  0  0  0  0  0  0
   -2.3659   -0.8447    0.8120 N   0  0  0  0  0  0  0  0  0  0  0  0
   -3.1749   -0.3807    0.4220 H   0  0  0  0  0  0  0  0  0  0  0  0
   -1.0919   -0.1077    0.8170 C   0  0  1  0  0  0  0  0  0  0  0  0
   -0.9089    0.2530    1.8308 H   0  0  0  0  0  0  0  0  0  0  0  0
    0.0370   -1.0788    0.4234 C   0  0  0  0  0  0  0  0  0  0  0  0
   -0.2384   -1.5719   -0.5101 H   0  0  0  0  0  0  0  0  0  0  0  0
    0.9540   -0.5119    0.2510 H   0  0  0  0  0  0  0  0  0  0  0  0
    0.3025   -2.1610    1.4812 C   0  0  0  0  0  0  0  0  0  0  0  0
    0.5664   -1.6909    2.4295 H   0  0  0  0  0  0  0  0  0  0  0  0
   -0.6009   -2.7584    1.6187 H   0  0  0  0  0  0  0  0  0  0  0  0
    1.4525   -3.0742    1.0346 C   0  0  0  0  0  0  0  0  0  0  0  0
    1.1915   -3.5318    0.0774 H   0  0  0  0  0  0  0  0  0  0  0  0
    2.3554   -2.4736    0.9075 H   0  0  0  0  0  0  0  0  0  0  0  0
    1.7022   -4.1702    2.0782 C   0  0  0  0  0  0  0  0  0  0  0  0
    1.9543   -3.6919    3.0303 H   0  0  0  0  0  0  0  0  0  0  0  0
    0.7744   -4.7323    2.2208 H   0  0  0  0  0  0  0  0  0  0  0  0
    2.7955   -5.0836    1.6596 N   0  3  0  0  0  0  0  0  0  0  0  0
    3.6595   -4.5707    1.5362 H   0  0  0  0  0  0  0  0  0  0  0  0
    2.9474   -5.8005    2.3581 H   0  0  0  0  0  0  0  0  0  0  0  0
    2.5631   -5.5356    0.7830 H   0  0  0  0  0  0  0  0  0  0  0  0
   -1.1658    1.0945   -0.1271 C   0  0  0  0  0  0  0  0  0  0  0  0
   -0.5270    2.1080    0.1307 O   0  0  0  0  0  0  0  0  0  0  0  0
   -1.9676    0.9869   -1.1916 N   0  0  0  0  0  0  0  0  0  0  0  0
   -2.4308    0.1064   -1.3442 H   0  0  0  0  0  0  0  0  0  0  0  0
   -2.1487    2.0410   -2.1914 C   0  0  0  0  0  0  0  0  0  0  0  0
   -1.1971    2.2475   -2.6859 H   0  0  0  0  0  0  0  0  0  0  0  0
   -2.8785    1.7336   -2.9412 H   0  0  0  0  0  0  0  0  0  0  0  0
   -2.4921    2.9589   -1.7092 H   0  0  0  0  0  0  0  0  0  0  0  0
  5  6  2  0  0  0  0
  5  7  1  0  0  0  0
  2  3  1  0  0  0  0
  2  4  1  0  0  0  0
  2  5  1  0  0  0  0
  1  2  1  0  0  0  0
 27 28  2  0  0  0  0
 27 29  1  0  0  0  0
 23 24  1  0  0  0  0
 23 25  1  0  0  0  0
 23 26  1  0  0  0  0
 20 21  1  0  0  0  0
 20 22  1  0  0  0  0
 20 23  1  0  0  0  0
 17 18  1  0  0  0  0
 17 19  1  0  0  0  0
 17 20  1  0  0  0  0
 14 15  1  0  0  0  0
 14 16  1  0  0  0  0
 14 17  1  0  0  0  0
 11 12  1  0  0  0  0
 11 13  1  0  0  0  0
 11 14  1  0  0  0  0
  9 10  1  0  0  0  0
  9 11  1  0  0  0  0
  9 27  1  0  0  0  0
  7  8  1  0  0  0  0
  7  9  1  0  0  0  0
 31 32  1  0  0  0  0
 31 33  1  0  0  0  0
 31 34  1  0  0  0  0
 29 30  1  0  0  0  0
 29 31  1  0  0  0  0
M  CHG  1  23   1
M  END
$$$$
default_name
  -OEChem-01062215323D

 34 33  0     1  0  0  0  0  0999 V2000
   -3.8899   -3.6747    1.6490 H   0  0  0  0  0  0  0  0  0  0  0  0
   -3.9109   -2.6717    1.2250 C   0  0  0  0  0  0  0  0  0  0  0  0
   -4.6009   -2.0517    1.7950 H   0  0  0  0  0  0  0  0  0  0  0  0
   -4.2309   -2.7237    0.1860 H   0  0  0  0  0  0  0  0  0  0  0  0
   -2.5229   -2.0787    1.2980 C   0  0  0  0  0  0  0  0  0  0  0  0
   -1.5999   -2.7227    1.7810 O   0  0  0  0  0  0  0  0  0  0  0  0
   -2.3659   -0.8447    0.8120 N   0  0  0  0  0  0  0  0  0  0  0  0
   -3.1749   -0.3807    0.4220 H   0  0  0  0  0  0  0  0  0  0  0  0
   -1.0919   -0.1077    0.8170 C   0  0  1  0  0  0  0  0  0  0  0  0
   -0.9089    0.2530    1.8308 H   0  0  0  0  0  0  0  0  0  0  0  0
    0.0370   -1.0788    0.4234 C   0  0  0  0  0  0  0  0  0  0  0  0
   -0.2384   -1.5719   -0.5101 H   0  0  0  0  0  0  0  0  0  0  0  0
    0.9540   -0.5119    0.2510 H   0  0  0  0  0  0  0  0  0  0  0  0
    0.3025   -2.1610    1.4812 C   0  0  0  0  0  0  0  0  0  0  0  0
    0.5664   -1.6909    2.4295 H   0  0  0  0  0  0  0  0  0  0  0  0
   -0.6009   -2.7584    1.6187 H   0  0  0  0  0  0  0  0  0  0  0  0
    1.4525   -3.0742    1.0346 C   0  0  0  0  0  0  0  0  0  0  0  0
    1.1915   -3.5318    0.0774 H   0  0  0  0  0  0  0  0  0  0  0  0
    2.3554   -2.4736    0.9075 H   0  0  0  0  0  0  0  0  0  0  0  0
    1.7022   -4.1702    2.0782 C   0  0  0  0  0  0  0  0  0  0  0  0
    1.9543   -3.6919    3.0303 H   0  0  0  0  0  0  0  0  0  0  0  0
    0.7744   -4.7323    2.2208 H   0  0  0  0  0  0  0  0  0  0  0  0
    2.7955   -5.0836    1.6596 N   0  3  0  0  0  0  0  0  0  0  0  0
    3.6595   -4.5707    1.5362 H   0  0  0  0  0  0  0  0  0  0  0  0
    2.9474   -5.8005    2.3581 H   0  0  0  0  0  0  0  0  0  0  0  0
    2.5631   -5.5356    0.7830 H   0  0  0  0  0  0  0  0  0  0  0  0
   -1.1658    1.0945   -0.1271 C   0  0  0  0  0  0  0  0  0  0  0  0
   -0.3356    1.9909   -0.0333 O   0  0  0  0  0  0  0  0  0  0  0  0
   -2.1749    1.1216   -1.0038 N   0  0  0  0  0  0  0  0  0  0  0  0
   -2.7930    0.3278   -1.0339 H   0  0  0  0  0  0  0  0  0  0  0  0
   -2.3871    2.1952   -1.9764 C   0  0  0  0  0  0  0  0  0  0  0  0
   -1.5363    2.2478   -2.6590 H   0  0  0  0  0  0  0  0  0  0  0  0
   -3.2940    2.0123   -2.5539 H   0  0  0  0  0  0  0  0  0  0  0  0
   -2.4750    3.1544   -1.4616 H   0  0  0  0  0  0  0  0  0  0  0  0
  5  6  2  0  0  0  0
  5  7  1  0  0  0  0
  2  3  1  0  0  0  0
  2  4  1  0  0  0  0
  2  5  1  0  0  0  0
  1  2  1  0  0  0  0
 27 28  2  0  0  0  0
 27 29  1  0  0  0  0
 23 24  1  0  0  0  0
 23 25  1  0  0  0  0
 23 26  1  0  0  0  0
 20 21  1  0  0  0  0
 20 22  1  0  0  0  0
 20 23  1  0  0  0  0
 17 18  1  0  0  0  0
 17 19  1  0  0  0  0
 17 20  1  0  0  0  0
 14 15  1  0  0  0  0
 14 16  1  0  0  0  0
 14 17  1  0  0  0  0
 11 12  1  0  0  0  0
 11 13  1  0  0  0  0
 11 14  1  0  0  0  0
  9 10  1  0  0  0  0
  9 11  1  0  0  0  0
  9 27  1  0  0  0  0
  7  8  1  0  0  0  0
  7  9  1  0  0  0  0
 31 32  1  0  0  0  0
 31 33  1  0  0  0  0
 31 34  1  0  0  0  0
 29 30  1  0  0  0  0
 29 31  1  0  0  0  0
M  CHG  1  23   1
M  END
$$$$
default_name
  -OEChem-01062215323D

 34 33  0     1  0  0  0  0  0999 V2000
   -3.8899   -3.6747    1.6490 H   0  0  0  0  0  0  0  0  0  0  0  0
   -3.9109   -2.6717    1.2250 C   0  0  0  0  0  0  0  0  0  0  0  0
   -4.6009   -2.0517    1.7950 H   0  0  0  0  0  0  0  0  0  0  0  0
   -4.2309   -2.7237    0.1860 H   0  0  0  0  0  0  0  0  0  0  0  0
   -2.5229   -2.0787    1.2980 C   0  0  0  0  0  0  0  0  0  0  0  0
   -1.5999   -2.7227    1.7810 O   0  0  0  0  0  0  0  0  0  0  0  0
   -2.3659   -0.8447    0.8120 N   0  0  0  0  0  0  0  0  0  0  0  0
   -3.1749   -0.3807    0.4220 H   0  0  0  0  0  0  0  0  0  0  0  0
   -1.0919   -0.1077    0.8170 C   0  0  1  0  0  0  0  0  0  0  0  0
   -0.9089    0.2530    1.8308 H   0  0  0  0  0  0  0  0  0  0  0  0
    0.0370   -1.0788    0.4234 C   0  0  0  0  0  0  0  0  0  0  0  0
   -0.2384   -1.5719   -0.5101 H   0  0  0  0  0  0  0  0  0  0  0  0
    0.9540   -0.5119    0.2510 H   0  0  0  0  0  0  0  0  0  0  0  0
    0.3025   -2.1610    1.4812 C   0  0  0  0  0  0  0  0  0  0  0  0
    0.5664   -1.6909    2.4295 H   0  0  0  0  0  0  0  0  0  0  0  0
   -0.6009   -2.7584    1.6187 H   0  0  0  0  0  0  0  0  0  0  0  0
    1.4525   -3.0742    1.0346 C   0  0  0  0  0  0  0  0  0  0  0  0
    1.1915   -3.5318    0.0774 H   0  0  0  0  0  0  0  0  0  0  0  0
    2.3554   -2.4736    0.9075 H   0  0  0  0  0  0  0  0  0  0  0  0
    1.7022   -4.1702    2.0782 C   0  0  0  0  0  0  0  0  0  0  0  0
    1.9543   -3.6919    3.0303 H   0  0  0  0  0  0  0  0  0  0  0  0
    0.7744   -4.7323    2.2208 H   0  0  0  0  0  0  0  0  0  0  0  0
    2.7955   -5.0836    1.6596 N   0  3  0  0  0  0  0  0  0  0  0  0
    3.6595   -4.5707    1.5362 H   0  0  0  0  0  0  0  0  0  0  0  0
    2.9474   -5.8005    2.3581 H   0  0  0  0  0  0  0  0  0  0  0  0
    2.5631   -5.5356    0.7830 H   0  0  0  0  0  0  0  0  0  0  0  0
   -1.1658    1.0945   -0.1271 C   0  0  0  0  0  0  0  0  0  0  0  0
   -0.2026    1.8452   -0.2292 O   0  0  0  0  0  0  0  0  0  0  0  0
   -2.3154    1.2872   -0.7819 N   0  0  0  0  0  0  0  0  0  0  0  0
   -3.0444    0.6034   -0.6634 H   0  0  0  0  0  0  0  0  0  0  0  0
   -2.5492    2.3848   -1.7222 C   0  0  0  0  0  0  0  0  0  0  0  0
   -1.8583    2.3026   -2.5640 H   0  0  0  0  0  0  0  0  0  0  0  0
   -3.5722    2.3526   -2.0987 H   0  0  0  0  0  0  0  0  0  0  0  0
   -2.3770    3.3436   -1.2283 H   0  0  0  0  0  0  0  0  0  0  0  0
  5  6  2  0  0  0  0
  5  7  1  0  0  0  0
  2  3  1  0  0  0  0
  2  4  1  0  0  0  0
  2  5  1  0  0  0  0
  1  2  1  0  0  0  0
 27 28  2  0  0  0  0
 27 29  1  0  0  0  0
 23 24  1  0  0  0  0
 23 25  1  0  0  0  0
 23 26  1  0  0  0  0
 20 21  1  0  0  0  0
 20 22  1  0  0  0  0
 20 23  1  0  0  0  0
 17 18  1  0  0  0  0
 17 19  1  0  0  0  0
 17 20  1  0  0  0  0
 14 15  1  0  0  0  0
 14 16  1  0  0  0  0
 14 17  1  0  0  0  0
 11 12  1  0  0  0  0
 11 13  1  0  0  0  0
 11 14  1  0  0  0  0
  9 10  1  0  0  0  0
  9 11  1  0  0  0  0
  9 27  1  0  0  0  0
  7  8  1  0  0  0  0
  7  9  1  0  0  0  0
 31 32  1  0  0  0  0
 31 33  1  0  0  0  0
 31 34  1  0  0  0  0
 29 30  1  0  0  0  0
 29 31  1  0  0  0  0
M  CHG  1  23   1
M  END
$$$$
default_name
  -OEChem-01062215323D

 34 33  0     1  0  0  0  0  0999 V2000
   -3.8899   -3.6747    1.6490 H   0  0  0  0  0  0  0  0  0  0  0  0
   -3.9109   -2.6717    1.2250 C   0  0  0  0  0  0  0  0  0  0  0  0
   -4.6009   -2.0517    1.7950 H   0  0  0  0  0  0  0  0  0  0  0  0
   -4.2309   -2.7237    0.1860 H   0  0  0  0  0  0  0  0  0  0  0  0
   -2.5229   -2.0787    1.2980 C   0  0  0  0  0  0  0  0  0  0  0  0
   -1.5999   -2.7227    1.7810 O   0  0  0  0  0  0  0  0  0  0  0  0
   -2.3659   -0.8447    0.8120 N   0  0  0  0  0  0  0  0  0  0  0  0
   -3.1749   -0.3807    0.4220 H   0  0  0  0  0  0  0  0  0  0  0  0
   -1.0919   -0.1077    0.8170 C   0  0  1  0  0  0  0  0  0  0  0  0
   -0.9089    0.2530    1.8308 H   0  0  0  0  0  0  0  0  0  0  0  0
    0.0370   -1.0788    0.4234 C   0  0  0  0  0  0  0  0  0  0  0  0
   -0.2384   -1.5719   -0.5101 H   0  0  0  0  0  0  0  0  0  0  0  0
    0.9540   -0.5119    0.2510 H   0  0  0  0  0  0  0  0  0  0  0  0
    0.3025   -2.1610    1.4812 C   0  0  0  0  0  0  0  0  0  0  0  0
    0.5664   -1.6909    2.4295 H   0  0  0  0  0  0  0  0  0  0  0  0
   -0.6009   -2.7584    1.6187 H   0  0  0  0  0  0  0  0  0  0  0  0
    1.4525   -3.0742    1.0346 C   0  0  0  0  0  0  0  0  0  0  0  0
    1.1915   -3.5318    0.0774 H   0  0  0  0  0  0  0  0  0  0  0  0
    2.3554   -2.4736    0.9075 H   0  0  0  0  0  0  0  0  0  0  0  0
    1.7022   -4.1702    2.0782 C   0  0  0  0  0  0  0  0  0  0  0  0
    1.9543   -3.6919    3.0303 H   0  0  0  0  0  0  0  0  0  0  0  0
    0.7744   -4.7323    2.2208 H   0  0  0  0  0  0  0  0  0  0  0  0
    2.7955   -5.0836    1.6596 N   0  3  0  0  0  0  0  0  0  0  0  0
    3.6595   -4.5707    1.5362 H   0  0  0  0  0  0  0  0  0  0  0  0
    2.9474   -5.8005    2.3581 H   0  0  0  0  0  0  0  0  0  0  0  0
    2.5631   -5.5356    0.7830 H   0  0  0  0  0  0  0  0  0  0  0  0
   -1.1658    1.0945   -0.1271 C   0  0  0  0  0  0  0  0  0  0  0  0
   -0.1374    1.6808   -0.4437 O   0  0  0  0  0  0  0  0  0  0  0  0
   -2.3796    1.4724   -0.5411 N   0  0  0  0  0  0  0  0  0  0  0  0
   -3.1679    0.9143   -0.2577 H   0  0  0  0  0  0  0  0  0  0  0  0
   -2.6237    2.5971   -1.4461 C   0  0  0  0  0  0  0  0  0  0  0  0
   -2.1414    2.4082   -2.4075 H   0  0  0  0  0  0  0  0  0  0  0  0
   -3.6940    2.7315   -1.6067 H   0  0  0  0  0  0  0  0  0  0  0  0
   -2.2046    3.5137   -1.0252 H   0  0  0  0  0  0  0  0  0  0  0  0
  5  6  2  0  0  0  0
  5  7  1  0  0  0  0
  2  3  1  0  0  0  0
  2  4  1  0  0  0  0
  2  5  1  0  0  0  0
  1  2  1  0  0  0  0
 27 28  2  0  0  0  0
 27 29  1  0  0  0  0
 23 24  1  0  0  0  0
 23 25  1  0  0  0  0
 23 26  1  0  0  0  0
 20 21  1  0  0  0  0
 20 22  1  0  0  0  0
 20 23  1  0  0  0  0
 17 18  1  0  0  0  0
 17 19  1  0  0  0  0
 17 20  1  0  0  0  0
 14 15  1  0  0  0  0
 14 16  1  0  0  0  0
 14 17  1  0  0  0  0
 11 12  1  0  0  0  0
 11 13  1  0  0  0  0
 11 14  1  0  0  0  0
  9 10  1  0  0  0  0
  9 11  1  0  0  0  0
  9 27  1  0  0  0  0
  7  8  1  0  0  0  0
  7  9  1  0  0  0  0
 31 32  1  0  0  0  0
 31 33  1  0  0  0  0
 31 34  1  0  0  0  0
 29 30  1  0  0  0  0
 29 31  1  0  0  0  0
M  CHG  1  23   1
M  END
$$$$
default_name
  -OEChem-01062215323D

 34 33  0     1  0  0  0  0  0999 V2000
   -3.8899   -3.6747    1.6490 H   0  0  0  0  0  0  0  0  0  0  0  0
   -3.9109   -2.6717    1.2250 C   0  0  0  0  0  0  0  0  0  0  0  0
   -4.6009   -2.0517    1.7950 H   0  0  0  0  0  0  0  0  0  0  0  0
   -4.2309   -2.7237    0.1860 H   0  0  0  0  0  0  0  0  0  0  0  0
   -2.5229   -2.0787    1.2980 C   0  0  0  0  0  0  0  0  0  0  0  0
   -1.5999   -2.7227    1.7810 O   0  0  0  0  0  0  0  0  0  0  0  0
   -2.3659   -0.8447    0.8120 N   0  0  0  0  0  0  0  0  0  0  0  0
   -3.1749   -0.3807    0.4220 H   0  0  0  0  0  0  0  0  0  0  0  0
   -1.0919   -0.1077    0.8170 C   0  0  1  0  0  0  0  0  0  0  0  0
   -0.9089    0.2530    1.8308 H   0  0  0  0  0  0  0  0  0  0  0  0
    0.0370   -1.0788    0.4234 C   0  0  0  0  0  0  0  0  0  0  0  0
   -0.2384   -1.5719   -0.5101 H   0  0  0  0  0  0  0  0  0  0  0  0
    0.9540   -0.5119    0.2510 H   0  0  0  0  0  0  0  0  0  0  0  0
    0.3025   -2.1610    1.4812 C   0  0  0  0  0  0  0  0  0  0  0  0
    0.5664   -1.6909    2.4295 H   0  0  0  0  0  0  0  0  0  0  0  0
   -0.6009   -2.7584    1.6187 H   0  0  0  0  0  0  0  0  0  0  0  0
    1.4525   -3.0742    1.0346 C   0  0  0  0  0  0  0  0  0  0  0  0
    1.1915   -3.5318    0.0774 H   0  0  0  0  0  0  0  0  0  0  0  0
    2.3554   -2.4736    0.9075 H   0  0  0  0  0  0  0  0  0  0  0  0
    1.7022   -4.1702    2.0782 C   0  0  0  0  0  0  0  0  0  0  0  0
    1.9543   -3.6919    3.0303 H   0  0  0  0  0  0  0  0  0  0  0  0
    0.7744   -4.7323    2.2208 H   0  0  0  0  0  0  0  0  0  0  0  0
    2.7955   -5.0836    1.6596 N   0  3  0  0  0  0  0  0  0  0  0  0
    3.6595   -4.5707    1.5362 H   0  0  0  0  0  0  0  0  0  0  0  0
    2.9474   -5.8005    2.3581 H   0  0  0  0  0  0  0  0  0  0  0  0
    2.5631   -5.5356    0.7830 H   0  0  0  0  0  0  0  0  0  0  0  0
   -1.1658    1.0945   -0.1271 C   0  0  0  0  0  0  0  0  0  0  0  0
   -0.1441    1.5089   -0.6620 O   0  0  0  0  0  0  0  0  0  0  0  0
   -2.3631    1.6645   -0.2978 N   0  0  0  0  0  0  0  0  0  0  0  0
   -3.1551    1.2394    0.1553 H   0  0  0  0  0  0  0  0  0  0  0  0
   -2.6057    2.8175   -1.1669 C   0  0  0  0  0  0  0  0  0  0  0  0
   -2.3661    2.5572   -2.2001 H   0  0  0  0  0  0  0  0  0  0  0  0
   -3.6511    3.1230   -1.1115 H   0  0  0  0  0  0  0  0  0  0  0  0
   -1.9696    3.6529   -0.8662 H   0  0  0  0  0  0  0  0  0  0  0  0
  5  6  2  0  0  0  0
  5  7  1  0  0  0  0
  2  3  1  0  0  0  0
  2  4  1  0  0  0  0
  2  5  1  0  0  0  0
  1  2  1  0  0  0  0
 27 28  2  0  0  0  0
 27 29  1  0  0  0  0
 23 24  1  0  0  0  0
 23 25  1  0  0  0  0
 23 26  1  0  0  0  0
 20 21  1  0  0  0  0
 20 22  1  0  0  0  0
 20 23  1  0  0  0  0
 17 18  1  0  0  0  0
 17 19  1  0  0  0  0
 17 20  1  0  0  0  0
 14 15  1  0  0  0  0
 14 16  1  0  0  0  0
 14 17  1  0  0  0  0
 11 12  1  0  0  0  0
 11 13  1  0  0  0  0
 11 14  1  0  0  0  0
  9 10  1  0  0  0  0
  9 11  1  0  0  0  0
  9 27  1  0  0  0  0
  7  8  1  0  0  0  0
  7  9  1  0  0  0  0
 31 32  1  0  0  0  0
 31 33  1  0  0  0  0
 31 34  1  0  0  0  0
 29 30  1  0  0  0  0
 29 31  1  0  0  0  0
M  CHG  1  23   1
M  END
$$$$
default_name
  -OEChem-01062215323D

 34 33  0     1  0  0  0  0  0999 V2000
   -3.8899   -3.6747    1.6490 H   0  0  0  0  0  0  0  0  0  0  0  0
   -3.9109   -2.6717    1.2250 C   0  0  0  0  0  0  0  0  0  0  0  0
   -4.6009   -2.0517    1.7950 H   0  0  0  0  0  0  0  0  0  0  0  0
   -4.2309   -2.7237    0.1860 H   0  0  0  0  0  0  0  0  0  0  0  0
   -2.5229   -2.0787    1.2980 C   0  0  0  0  0  0  0  0  0  0  0  0
   -1.5999   -2.7227    1.7810 O   0  0  0  0  0  0  0  0  0  0  0  0
   -2.3659   -0.8447    0.8120 N   0  0  0  0  0  0  0  0  0  0  0  0
   -3.1749   -0.3807    0.4220 H   0  0  0  0  0  0  0  0  0  0  0  0
   -1.0919   -0.1077    0.8170 C   0  0  1  0  0  0  0  0  0  0  0  0
   -0.9089    0.2530    1.8308 H   0  0  0  0  0  0  0  0  0  0  0  0
    0.0370   -1.0788    0.4234 C   0  0  0  0  0  0  0  0  0  0  0  0
   -0.2384   -1.5719   -0.5101 H   0  0  0  0  0  0  0  0  0  0  0  0
    0.9540   -0.5119    0.2510 H   0  0  0  0  0  0  0  0  0  0  0  0
    0.3025   -2.1610    1.4812 C   0  0  0  0  0  0  0  0  0  0  0  0
    0.5664   -1.6909    2.4295 H   0  0  0  0  0  0  0  0  0  0  0  0
   -0.6009   -2.7584    1.6187 H   0  0  0  0  0  0  0  0  0  0  0  0
    1.4525   -3.0742    1.0346 C   0  0  0  0  0  0  0  0  0  0  0  0
    1.1915   -3.5318    0.0774 H   0  0  0  0  0  0  0  0  0  0  0  0
    2.3554   -2.4736    0.9075 H   0  0  0  0  0  0  0  0  0  0  0  0
    1.7022   -4.1702    2.0782 C   0  0  0  0  0  0  0  0  0  0  0  0
    1.9543   -3.6919    3.0303 H   0  0  0  0  0  0  0  0  0  0  0  0
    0.7744   -4.7323    2.2208 H   0  0  0  0  0  0  0  0  0  0  0  0
    2.7955   -5.0836    1.6596 N   0  3  0  0  0  0  0  0  0  0  0  0
    3.6595   -4.5707    1.5362 H   0  0  0  0  0  0  0  0  0  0  0  0
    2.9474   -5.8005    2.3581 H   0  0  0  0  0  0  0  0  0  0  0  0
    2.5631   -5.5356    0.7830 H   0  0  0  0  0  0  0  0  0  0  0  0
   -1.1658    1.0945   -0.1271 C   0  0  0  0  0  0  0  0  0  0  0  0
   -0.2225    1.3412   -0.8694 O   0  0  0  0  0  0  0  0  0  0  0  0
   -2.2670    1.8505   -0.0685 N   0  0  0  0  0  0  0  0  0  0  0  0
   -3.0068    1.5566    0.5476 H   0  0  0  0  0  0  0  0  0  0  0  0
   -2.4963    3.0310   -0.9036 C   0  0  0  0  0  0  0  0  0  0  0  0
   -2.5173    2.7397   -1.9559 H   0  0  0  0  0  0  0  0  0  0  0  0
   -3.4465    3.5006   -0.6467 H   0  0  0  0  0  0  0  0  0  0  0  0
   -1.6881    3.7519   -0.7622 H   0  0  0  0  0  0  0  0  0  0  0  0
  5  6  2  0  0  0  0
  5  7  1  0  0  0  0
  2  3  1  0  0  0  0
  2  4  1  0  0  0  0
  2  5  1  0  0  0  0
  1  2  1  0  0  0  0
 27 28  2  0  0  0  0
 27 29  1  0  0  0  0
 23 24  1  0  0  0  0
 23 25  1  0  0  0  0
 23 26  1  0  0  0  0
 20 21  1  0  0  0  0
 20 22  1  0  0  0  0
 20 23  1  0  0  0  0
 17 18  1  0  0  0  0
 17 19  1  0  0  0  0
 17 20  1  0  0  0  0
 14 15  1  0  0  0  0
 14 16  1  0  0  0  0
 14 17  1  0  0  0  0
 11 12  1  0  0  0  0
 11 13  1  0  0  0  0
 11 14  1  0  0  0  0
  9 10  1  0  0  0  0
  9 11  1  0  0  0  0
  9 27  1  0  0  0  0
  7  8  1  0  0  0  0
  7  9  1  0  0  0  0
 31 32  1  0  0  0  0
 31 33  1  0  0  0  0
 31 34  1  0  0  0  0
 29 30  1  0  0  0  0
 29 31  1  0  0  0  0
M  CHG  1  23   1
M  END
$$$$
default_name
  -OEChem-01062215323D

 34 33  0     1  0  0  0  0  0999 V2000
   -3.8899   -3.6747    1.6490 H   0  0  0  0  0  0  0  0  0  0  0  0
   -3.9109   -2.6717    1.2250 C   0  0  0  0  0  0  0  0  0  0  0  0
   -4.6009   -2.0517    1.7950 H   0  0  0  0  0  0  0  0  0  0  0  0
   -4.2309   -2.7237    0.1860 H   0  0  0  0  0  0  0  0  0  0  0  0
   -2.5229   -2.0787    1.2980 C   0  0  0  0  0  0  0  0  0  0  0  0
   -1.5999   -2.7227    1.7810 O   0  0  0  0  0  0  0  0  0  0  0  0
   -2.3659   -0.8447    0.8120 N   0  0  0  0  0  0  0  0  0  0  0  0
   -3.1749   -0.3807    0.4220 H   0  0  0  0  0  0  0  0  0  0  0  0
   -1.0919   -0.1077    0.8170 C   0  0  1  0  0  0  0  0  0  0  0  0
   -0.9089    0.2530    1.8308 H   0  0  0  0  0  0  0  0  0  0  0  0
    0.0370   -1.0788    0.4234 C   0  0  0  0  0  0  0  0  0  0  0  0
   -0.2384   -1.5719   -0.5101 H   0  0  0  0  0  0  0  0  0  0  0  0
    0.9540   -0.5119    0.2510 H   0  0  0  0  0  0  0  0  0  0  0  0
    0.3025   -2.1610    1.4812 C   0  0  0  0  0  0  0  0  0  0  0  0
    0.5664   -1.6909    2.4295 H   0  0  0  0  0  0  0  0  0  0  0  0
   -0.6009   -2.7584    1.6187 H   0  0  0  0  0  0  0  0  0  0  0  0
    1.4525   -3.0742    1.0346 C   0  0  0  0  0  0  0  0  0  0  0  0
    1.1915   -3.5318    0.0774 H   0  0  0  0  0  0  0  0  0  0  0  0
    2.3554   -2.4736    0.9075 H   0  0  0  0  0  0  0  0  0  0  0  0
    1.7022   -4.1702    2.0782 C   0  0  0  0  0  0  0  0  0  0  0  0
    1.9543   -3.6919    3.0303 H   0  0  0  0  0  0  0  0  0  0  0  0
    0.7744   -4.7323    2.2208 H   0  0  0  0  0  0  0  0  0  0  0  0
    2.7955   -5.0836    1.6596 N   0  3  0  0  0  0  0  0  0  0  0  0
    3.6595   -4.5707    1.5362 H   0  0  0  0  0  0  0  0  0  0  0  0
    2.9474   -5.8005    2.3581 H   0  0  0  0  0  0  0  0  0  0  0  0
    2.5631   -5.5356    0.7830 H   0  0  0  0  0  0  0  0  0  0  0  0
   -1.1658    1.0945   -0.1271 C   0  0  0  0  0  0  0  0  0  0  0  0
   -0.3672    1.1892   -1.0517 O   0  0  0  0  0  0  0  0  0  0  0  0
   -2.0978    2.0176    0.1312 N   0  0  0  0  0  0  0  0  0  0  0  0
   -2.7331    1.8442    0.8924 H   0  0  0  0  0  0  0  0  0  0  0  0
   -2.3030    3.2230   -0.6741 C   0  0  0  0  0  0  0  0  0  0  0  0
   -2.5844    2.9432   -1.6916 H   0  0  0  0  0  0  0  0  0  0  0  0
   -3.0941    3.8384   -0.2441 H   0  0  0  0  0  0  0  0  0  0  0  0
   -1.3793    3.8039   -0.7201 H   0  0  0  0  0  0  0  0  0  0  0  0
  5  6  2  0  0  0  0
  5  7  1  0  0  0  0
  2  3  1  0  0  0  0
  2  4  1  0  0  0  0
  2  5  1  0  0  0  0
  1  2  1  0  0  0  0
 27 28  2  0  0  0  0
 27 29  1  0  0  0  0
 23 24  1  0  0  0  0
 23 25  1  0  0  0  0
 23 26  1  0  0  0  0
 20 21  1  0  0  0  0
 20 22  1  0  0  0  0
 20 23  1  0  0  0  0
 17 18  1  0  0  0  0
 17 19  1  0  0  0  0
 17 20  1  0  0  0  0
 14 15  1  0  0  0  0
 14 16  1  0  0  0  0
 14 17  1  0  0  0  0
 11 12  1  0  0  0  0
 11 13  1  0  0  0  0
 11 14  1  0  0  0  0
  9 10  1  0  0  0  0
  9 11  1  0  0  0  0
  9 27  1  0  0  0  0
  7  8  1  0  0  0  0
  7  9  1  0  0  0  0
 31 32  1  0  0  0  0
 31 33  1  0  0  0  0
 31 34  1  0  0  0  0
 29 30  1  0  0  0  0
 29 31  1  0  0  0  0
M  CHG  1  23   1
M  END
$$$$
default_name
  -OEChem-01062215323D

 34 33  0     1  0  0  0  0  0999 V2000
   -3.8899   -3.6747    1.6490 H   0  0  0  0  0  0  0  0  0  0  0  0
   -3.9109   -2.6717    1.2250 C   0  0  0  0  0  0  0  0  0  0  0  0
   -4.6009   -2.0517    1.7950 H   0  0  0  0  0  0  0  0  0  0  0  0
   -4.2309   -2.7237    0.1860 H   0  0  0  0  0  0  0  0  0  0  0  0
   -2.5229   -2.0787    1.2980 C   0  0  0  0  0  0  0  0  0  0  0  0
   -1.5999   -2.7227    1.7810 O   0  0  0  0  0  0  0  0  0  0  0  0
   -2.3659   -0.8447    0.8120 N   0  0  0  0  0  0  0  0  0  0  0  0
   -3.1749   -0.3807    0.4220 H   0  0  0  0  0  0  0  0  0  0  0  0
   -1.0919   -0.1077    0.8170 C   0  0  1  0  0  0  0  0  0  0  0  0
   -0.9089    0.2530    1.8308 H   0  0  0  0  0  0  0  0  0  0  0  0
    0.0370   -1.0788    0.4234 C   0  0  0  0  0  0  0  0  0  0  0  0
   -0.2384   -1.5719   -0.5101 H   0  0  0  0  0  0  0  0  0  0  0  0
    0.9540   -0.5119    0.2510 H   0  0  0  0  0  0  0  0  0  0  0  0
    0.3025   -2.1610    1.4812 C   0  0  0  0  0  0  0  0  0  0  0  0
    0.5664   -1.6909    2.4295 H   0  0  0  0  0  0  0  0  0  0  0  0
   -0.6009   -2.7584    1.6187 H   0  0  0  0  0  0  0  0  0  0  0  0
    1.4525   -3.0742    1.0346 C   0  0  0  0  0  0  0  0  0  0  0  0
    1.1915   -3.5318    0.0774 H   0  0  0  0  0  0  0  0  0  0  0  0
    2.3554   -2.4736    0.9075 H   0  0  0  0  0  0  0  0  0  0  0  0
    1.7022   -4.1702    2.0782 C   0  0  0  0  0  0  0  0  0  0  0  0
    1.9543   -3.6919    3.0303 H   0  0  0  0  0  0  0  0  0  0  0  0
    0.7744   -4.7323    2.2208 H   0  0  0  0  0  0  0  0  0  0  0  0
    2.7955   -5.0836    1.6596 N   0  3  0  0  0  0  0  0  0  0  0  0
    3.6595   -4.5707    1.5362 H   0  0  0  0  0  0  0  0  0  0  0  0
    2.9474   -5.8005    2.3581 H   0  0  0  0  0  0  0  0  0  0  0  0
    2.5631   -5.5356    0.7830 H   0  0  0  0  0  0  0  0  0  0  0  0
   -1.1658    1.0945   -0.1271 C   0  0  0  0  0  0  0  0  0  0  0  0
   -0.5683    1.0631   -1.1965 O   0  0  0  0  0  0  0  0  0  0  0  0
   -1.8672    2.1546    0.2875 N   0  0  0  0  0  0  0  0  0  0  0  0
   -2.3528    2.0826    1.1662 H   0  0  0  0  0  0  0  0  0  0  0  0
   -2.0390    3.3805   -0.4942 C   0  0  0  0  0  0  0  0  0  0  0  0
   -2.5631    3.1537   -1.4252 H   0  0  0  0  0  0  0  0  0  0  0  0
   -2.6179    4.1134    0.0689 H   0  0  0  0  0  0  0  0  0  0  0  0
   -1.0641    3.8053   -0.7430 H   0  0  0  0  0  0  0  0  0  0  0  0
  5  6  2  0  0  0  0
  5  7  1  0  0  0  0
  2  3  1  0  0  0  0
  2  4  1  0  0  0  0
  2  5  1  0  0  0  0
  1  2  1  0  0  0  0
 27 28  2  0  0  0  0
 27 29  1  0  0  0  0
 23 24  1  0  0  0  0
 23 25  1  0  0  0  0
 23 26  1  0  0  0  0
 20 21  1  0  0  0  0
 20 22  1  0  0  0  0
 20 23  1  0  0  0  0
 17 18  1  0  0  0  0
 17 19  1  0  0  0  0
 17 20  1  0  0  0  0
 14 15  1  0  0  0  0
 14 16  1  0  0  0  0
 14 17  1  0  0  0  0
 11 12  1  0  0  0  0
 11 13  1  0  0  0  0
 11 14  1  0  0  0  0
  9 10  1  0  0  0  0
  9 11  1  0  0  0  0
  9 27  1  0  0  0  0
  7  8  1  0  0  0  0
  7  9  1  0  0  0  0
 31 32  1  0  0  0  0
 31 33  1  0  0  0  0
 31 34  1  0  0  0  0
 29 30  1  0  0  0  0
 29 31  1  0  0  0  0
M  CHG  1  23   1
M  END
$$$$
default_name
  -OEChem-01062215323D

 34 33  0     1  0  0  0  0  0999 V2000
   -3.8899   -3.6747    1.6490 H   0  0  0  0  0  0  0  0  0  0  0  0
   -3.9109   -2.6717    1.2250 C   0  0  0  0  0  0  0  0  0  0  0  0
   -4.6009   -2.0517    1.7950 H   0  0  0  0  0  0  0  0  0  0  0  0
   -4.2309   -2.7237    0.1860 H   0  0  0  0  0  0  0  0  0  0  0  0
   -2.5229   -2.0787    1.2980 C   0  0  0  0  0  0  0  0  0  0  0  0
   -1.5999   -2.7227    1.7810 O   0  0  0  0  0  0  0  0  0  0  0  0
   -2.3659   -0.8447    0.8120 N   0  0  0  0  0  0  0  0  0  0  0  0
   -3.1749   -0.3807    0.4220 H   0  0  0  0  0  0  0  0  0  0  0  0
   -1.0919   -0.1077    0.8170 C   0  0  1  0  0  0  0  0  0  0  0  0
   -0.9089    0.2530    1.8308 H   0  0  0  0  0  0  0  0  0  0  0  0
    0.0370   -1.0788    0.4234 C   0  0  0  0  0  0  0  0  0  0  0  0
   -0.2384   -1.5719   -0.5101 H   0  0  0  0  0  0  0  0  0  0  0  0
    0.9540   -0.5119    0.2510 H   0  0  0  0  0  0  0  0  0  0  0  0
    0.3025   -2.1610    1.4812 C   0  0  0  0  0  0  0  0  0  0  0  0
    0.5664   -1.6909    2.4295 H   0  0  0  0  0  0  0  0  0  0  0  0
   -0.6009   -2.7584    1.6187 H   0  0  0  0  0  0  0  0  0  0  0  0
    1.4525   -3.0742    1.0346 C   0  0  0  0  0  0  0  0  0  0  0  0
    1.1915   -3.5318    0.0774 H   0  0  0  0  0  0  0  0  0  0  0  0
    2.3554   -2.4736    0.9075 H   0  0  0  0  0  0  0  0  0  0  0  0
    1.7022   -4.1702    2.0782 C   0  0  0  0  0  0  0  0  0  0  0  0
    1.9543   -3.6919    3.0303 H   0  0  0  0  0  0  0  0  0  0  0  0
    0.7744   -4.7323    2.2208 H   0  0  0  0  0  0  0  0  0  0  0  0
    2.7955   -5.0836    1.6596 N   0  3  0  0  0  0  0  0  0  0  0  0
    3.6595   -4.5707    1.5362 H   0  0  0  0  0  0  0  0  0  0  0  0
    2.9474   -5.8005    2.3581 H   0  0  0  0  0  0  0  0  0  0  0  0
    2.5631   -5.5356    0.7830 H   0  0  0  0  0  0  0  0  0  0  0  0
   -1.1658    1.0945   -0.1271 C   0  0  0  0  0  0  0  0  0  0  0  0
   -0.8121    0.9717   -1.2939 O   0  0  0  0  0  0  0  0  0  0  0  0
   -1.5907    2.2520    0.3899 N   0  0  0  0  0  0  0  0  0  0  0  0
   -1.8917    2.2555    1.3504 H   0  0  0  0  0  0  0  0  0  0  0  0
   -1.7223    3.4927   -0.3761 C   0  0  0  0  0  0  0  0  0  0  0  0
   -2.4547    3.3570   -1.1748 H   0  0  0  0  0  0  0  0  0  0  0  0
   -2.0503    4.3070    0.2710 H   0  0  0  0  0  0  0  0  0  0  0  0
   -0.7641    3.7561   -0.8292 H   0  0  0  0  0  0  0  0  0  0  0  0
  5  6  2  0  0  0  0
  5  7  1  0  0  0  0
  2  3  1  0  0  0  0
  2  4  1  0  0  0  0
  2  5  1  0  0  0  0
  1  2  1  0  0  0  0
 27 28  2  0  0  0  0
 27 29  1  0  0  0  0
 23 24  1  0  0  0  0
 23 25  1  0  0  0  0
 23 26  1  0  0  0  0
 20 21  1  0  0  0  0
 20 22  1  0  0  0  0
 20 23  1  0  0  0  0
 17 18  1  0  0  0  0
 17 19  1  0  0  0  0
 17 20  1  0  0  0  0
 14 15  1  0  0  0  0
 14 16  1  0  0  0  0
 14 17  1  0  0  0  0
 11 12  1  0  0  0  0
 11 13  1  0  0  0  0
 11 14  1  0  0  0  0
  9 10  1  0  0  0  0
  9 11  1  0  0  0  0
  9 27  1  0  0  0  0
  7  8  1  0  0  0  0
  7  9  1  0  0  0  0
 31 32  1  0  0  0  0
 31 33  1  0  0  0  0
 31 34  1  0  0  0  0
 29 30  1  0  0  0  0
 29 31  1  0  0  0  0
M  CHG  1  23   1
M  END
$$$$
default_name
  -OEChem-01062215323D

 34 33  0     1  0  0  0  0  0999 V2000
   -3.8899   -3.6747    1.6490 H   0  0  0  0  0  0  0  0  0  0  0  0
   -3.9109   -2.6717    1.2250 C   0  0  0  0  0  0  0  0  0  0  0  0
   -4.6009   -2.0517    1.7950 H   0  0  0  0  0  0  0  0  0  0  0  0
   -4.2309   -2.7237    0.1860 H   0  0  0  0  0  0  0  0  0  0  0  0
   -2.5229   -2.0787    1.2980 C   0  0  0  0  0  0  0  0  0  0  0  0
   -1.5999   -2.7227    1.7810 O   0  0  0  0  0  0  0  0  0  0  0  0
   -2.3659   -0.8447    0.8120 N   0  0  0  0  0  0  0  0  0  0  0  0
   -3.1749   -0.3807    0.4220 H   0  0  0  0  0  0  0  0  0  0  0  0
   -1.0919   -0.1077    0.8170 C   0  0  1  0  0  0  0  0  0  0  0  0
   -0.9089    0.2530    1.8308 H   0  0  0  0  0  0  0  0  0  0  0  0
    0.0370   -1.0788    0.4234 C   0  0  0  0  0  0  0  0  0  0  0  0
   -0.2384   -1.5719   -0.5101 H   0  0  0  0  0  0  0  0  0  0  0  0
    0.9540   -0.5119    0.2510 H   0  0  0  0  0  0  0  0  0  0  0  0
    0.3025   -2.1610    1.4812 C   0  0  0  0  0  0  0  0  0  0  0  0
    0.5664   -1.6909    2.4295 H   0  0  0  0  0  0  0  0  0  0  0  0
   -0.6009   -2.7584    1.6187 H   0  0  0  0  0  0  0  0  0  0  0  0
    1.4525   -3.0742    1.0346 C   0  0  0  0  0  0  0  0  0  0  0  0
    1.1915   -3.5318    0.0774 H   0  0  0  0  0  0  0  0  0  0  0  0
    2.3554   -2.4736    0.9075 H   0  0  0  0  0  0  0  0  0  0  0  0
    1.7022   -4.1702    2.0782 C   0  0  0  0  0  0  0  0  0  0  0  0
    1.9543   -3.6919    3.0303 H   0  0  0  0  0  0  0  0  0  0  0  0
    0.7744   -4.7323    2.2208 H   0  0  0  0  0  0  0  0  0  0  0  0
    2.7955   -5.0836    1.6596 N   0  3  0  0  0  0  0  0  0  0  0  0
    3.6595   -4.5707    1.5362 H   0  0  0  0  0  0  0  0  0  0  0  0
    2.9474   -5.8005    2.3581 H   0  0  0  0  0  0  0  0  0  0  0  0
    2.5631   -5.5356    0.7830 H   0  0  0  0  0  0  0  0  0  0  0  0
   -1.1658    1.0945   -0.1271 C   0  0  0  0  0  0  0  0  0  0  0  0
   -1.0820    0.9211   -1.3373 O   0  0  0  0  0  0  0  0  0  0  0  0
   -1.2873    2.3032    0.4314 N   0  0  0  0  0  0  0  0  0  0  0  0
   -1.3812    2.3513    1.4324 H   0  0  0  0  0  0  0  0  0  0  0  0
   -1.3745    3.5520   -0.3278 C   0  0  0  0  0  0  0  0  0  0  0  0
   -2.2666    3.5391   -0.9575 H   0  0  0  0  0  0  0  0  0  0  0  0
   -1.4301    4.4058    0.3484 H   0  0  0  0  0  0  0  0  0  0  0  0
   -0.4997    3.6595   -0.9728 H   0  0  0  0  0  0  0  0  0  0  0  0
  5  6  2  0  0  0  0
  5  7  1  0  0  0  0
  2  3  1  0  0  0  0
  2  4  1  0  0  0  0
  2  5  1  0  0  0  0
  1  2  1  0  0  0  0
 27 28  2  0  0  0  0
 27 29  1  0  0  0  0
 23 24  1  0  0  0  0
 23 25  1  0  0  0  0
 23 26  1  0  0  0  0
 20 21  1  0  0  0  0
 20 22  1  0  0  0  0
 20 23  1  0  0  0  0
 17 18  1  0  0  0  0
 17 19  1  0  0  0  0
 17 20  1  0  0  0  0
 14 15  1  0  0  0  0
 14 16  1  0  0  0  0
 14 17  1  0  0  0  0
 11 12  1  0  0  0  0
 11 13  1  0  0  0  0
 11 14  1  0  0  0  0
  9 10  1  0  0  0  0
  9 11  1  0  0  0  0
  9 27  1  0  0  0  0
  7  8  1  0  0  0  0
  7  9  1  0  0  0  0
 31 32  1  0  0  0  0
 31 33  1  0  0  0  0
 31 34  1  0  0  0  0
 29 30  1  0  0  0  0
 29 31  1  0  0  0  0
M  CHG  1  23   1
M  END
$$$$
default_name
  -OEChem-01062215323D

 34 33  0     1  0  0  0  0  0999 V2000
   -3.8899   -3.6747    1.6490 H   0  0  0  0  0  0  0  0  0  0  0  0
   -3.9109   -2.6717    1.2250 C   0  0  0  0  0  0  0  0  0  0  0  0
   -4.6009   -2.0517    1.7950 H   0  0  0  0  0  0  0  0  0  0  0  0
   -4.2309   -2.7237    0.1860 H   0  0  0  0  0  0  0  0  0  0  0  0
   -2.5229   -2.0787    1.2980 C   0  0  0  0  0  0  0  0  0  0  0  0
   -1.5999   -2.7227    1.7810 O   0  0  0  0  0  0  0  0  0  0  0  0
   -2.3659   -0.8447    0.8120 N   0  0  0  0  0  0  0  0  0  0  0  0
   -3.1749   -0.3807    0.4220 H   0  0  0  0  0  0  0  0  0  0  0  0
   -1.0919   -0.1077    0.8170 C   0  0  1  0  0  0  0  0  0  0  0  0
   -0.9089    0.2530    1.8308 H   0  0  0  0  0  0  0  0  0  0  0  0
    0.0370   -1.0788    0.4234 C   0  0  0  0  0  0  0  0  0  0  0  0
   -0.2384   -1.5719   -0.5101 H   0  0  0  0  0  0  0  0  0  0  0  0
    0.9540   -0.5119    0.2510 H   0  0  0  0  0  0  0  0  0  0  0  0
    0.3025   -2.1610    1.4812 C   0  0  0  0  0  0  0  0  0  0  0  0
    0.5664   -1.6909    2.4295 H   0  0  0  0  0  0  0  0  0  0  0  0
   -0.6009   -2.7584    1.6187 H   0  0  0  0  0  0  0  0  0  0  0  0
    1.4525   -3.0742    1.0346 C   0  0  0  0  0  0  0  0  0  0  0  0
    1.1915   -3.5318    0.0774 H   0  0  0  0  0  0  0  0  0  0  0  0
    2.3554   -2.4736    0.9075 H   0  0  0  0  0  0  0  0  0  0  0  0
    1.7022   -4.1702    2.0782 C   0  0  0  0  0  0  0  0  0  0  0  0
    1.9543   -3.6919    3.0303 H   0  0  0  0  0  0  0  0  0  0  0  0
    0.7744   -4.7323    2.2208 H   0  0  0  0  0  0  0  0  0  0  0  0
    2.7955   -5.0836    1.6596 N   0  3  0  0  0  0  0  0  0  0  0  0
    3.6595   -4.5707    1.5362 H   0  0  0  0  0  0  0  0  0  0  0  0
    2.9474   -5.8005    2.3581 H   0  0  0  0  0  0  0  0  0  0  0  0
    2.5631   -5.5356    0.7830 H   0  0  0  0  0  0  0  0  0  0  0  0
   -1.1658    1.0945   -0.1271 C   0  0  0  0  0  0  0  0  0  0  0  0
   -1.3596    0.9147   -1.3236 O   0  0  0  0  0  0  0  0  0  0  0  0
   -0.9776    2.3047    0.4092 N   0  0  0  0  0  0  0  0  0  0  0  0
   -0.8562    2.3633    1.4067 H   0  0  0  0  0  0  0  0  0  0  0  0
   -1.0192    3.5543   -0.3526 C   0  0  0  0  0  0  0  0  0  0  0  0
   -2.0117    3.6878   -0.7882 H   0  0  0  0  0  0  0  0  0  0  0  0
   -0.7995    4.4033    0.2958 H   0  0  0  0  0  0  0  0  0  0  0  0
   -0.2889    3.5222   -1.1641 H   0  0  0  0  0  0  0  0  0  0  0  0
  5  6  2  0  0  0  0
  5  7  1  0  0  0  0
  2  3  1  0  0  0  0
  2  4  1  0  0  0  0
  2  5  1  0  0  0  0
  1  2  1  0  0  0  0
 27 28  2  0  0  0  0
 27 29  1  0  0  0  0
 23 24  1  0  0  0  0
 23 25  1  0  0  0  0
 23 26  1  0  0  0  0
 20 21  1  0  0  0  0
 20 22  1  0  0  0  0
 20 23  1  0  0  0  0
 17 18  1  0  0  0  0
 17 19  1  0  0  0  0
 17 20  1  0  0  0  0
 14 15  1  0  0  0  0
 14 16  1  0  0  0  0
 14 17  1  0  0  0  0
 11 12  1  0  0  0  0
 11 13  1  0  0  0  0
 11 14  1  0  0  0  0
  9 10  1  0  0  0  0
  9 11  1  0  0  0  0
  9 27  1  0  0  0  0
  7  8  1  0  0  0  0
  7  9  1  0  0  0  0
 31 32  1  0  0  0  0
 31 33  1  0  0  0  0
 31 34  1  0  0  0  0
 29 30  1  0  0  0  0
 29 31  1  0  0  0  0
M  CHG  1  23   1
M  END
$$$$
default_name
  -OEChem-01062215323D

 34 33  0     1  0  0  0  0  0999 V2000
   -3.8899   -3.6747    1.6490 H   0  0  0  0  0  0  0  0  0  0  0  0
   -3.9109   -2.6717    1.2250 C   0  0  0  0  0  0  0  0  0  0  0  0
   -4.6009   -2.0517    1.7950 H   0  0  0  0  0  0  0  0  0  0  0  0
   -4.2309   -2.7237    0.1860 H   0  0  0  0  0  0  0  0  0  0  0  0
   -2.5229   -2.0787    1.2980 C   0  0  0  0  0  0  0  0  0  0  0  0
   -1.5999   -2.7227    1.7810 O   0  0  0  0  0  0  0  0  0  0  0  0
   -2.3659   -0.8447    0.8120 N   0  0  0  0  0  0  0  0  0  0  0  0
   -3.1749   -0.3807    0.4220 H   0  0  0  0  0  0  0  0  0  0  0  0
   -1.0919   -0.1077    0.8170 C   0  0  1  0  0  0  0  0  0  0  0  0
   -0.9089    0.2530    1.8308 H   0  0  0  0  0  0  0  0  0  0  0  0
    0.0370   -1.0788    0.4234 C   0  0  0  0  0  0  0  0  0  0  0  0
   -0.2384   -1.5719   -0.5101 H   0  0  0  0  0  0  0  0  0  0  0  0
    0.9540   -0.5119    0.2510 H   0  0  0  0  0  0  0  0  0  0  0  0
    0.3025   -2.1610    1.4812 C   0  0  0  0  0  0  0  0  0  0  0  0
    0.5664   -1.6909    2.4295 H   0  0  0  0  0  0  0  0  0  0  0  0
   -0.6009   -2.7584    1.6187 H   0  0  0  0  0  0  0  0  0  0  0  0
    1.4525   -3.0742    1.0346 C   0  0  0  0  0  0  0  0  0  0  0  0
    1.1915   -3.5318    0.0774 H   0  0  0  0  0  0  0  0  0  0  0  0
    2.3554   -2.4736    0.9075 H   0  0  0  0  0  0  0  0  0  0  0  0
    1.7022   -4.1702    2.0782 C   0  0  0  0  0  0  0  0  0  0  0  0
    1.9543   -3.6919    3.0303 H   0  0  0  0  0  0  0  0  0  0  0  0
    0.7744   -4.7323    2.2208 H   0  0  0  0  0  0  0  0  0  0  0  0
    2.7955   -5.0836    1.6596 N   0  3  0  0  0  0  0  0  0  0  0  0
    3.6595   -4.5707    1.5362 H   0  0  0  0  0  0  0  0  0  0  0  0
    2.9474   -5.8005    2.3581 H   0  0  0  0  0  0  0  0  0  0  0  0
    2.5631   -5.5356    0.7830 H   0  0  0  0  0  0  0  0  0  0  0  0
   -1.1658    1.0945   -0.1271 C   0  0  0  0  0  0  0  0  0  0  0  0
   -1.6259    0.9531   -1.2540 O   0  0  0  0  0  0  0  0  0  0  0  0
   -0.6828    2.2565    0.3247 N   0  0  0  0  0  0  0  0  0  0  0  0
   -0.3524    2.2907    1.2749 H   0  0  0  0  0  0  0  0  0  0  0  0
   -0.6807    3.4996   -0.4488 C   0  0  0  0  0  0  0  0  0  0  0  0
   -1.7073    3.7928   -0.6783 H   0  0  0  0  0  0  0  0  0  0  0  0
   -0.2015    4.2995    0.1169 H   0  0  0  0  0  0  0  0  0  0  0  0
   -0.1461    3.3536   -1.3900 H   0  0  0  0  0  0  0  0  0  0  0  0
  5  6  2  0  0  0  0
  5  7  1  0  0  0  0
  2  3  1  0  0  0  0
  2  4  1  0  0  0  0
  2  5  1  0  0  0  0
  1  2  1  0  0  0  0
 27 28  2  0  0  0  0
 27 29  1  0  0  0  0
 23 24  1  0  0  0  0
 23 25  1  0  0  0  0
 23 26  1  0  0  0  0
 20 21  1  0  0  0  0
 20 22  1  0  0  0  0
 20 23  1  0  0  0  0
 17 18  1  0  0  0  0
 17 19  1  0  0  0  0
 17 20  1  0  0  0  0
 14 15  1  0  0  0  0
 14 16  1  0  0  0  0
 14 17  1  0  0  0  0
 11 12  1  0  0  0  0
 11 13  1  0  0  0  0
 11 14  1  0  0  0  0
  9 10  1  0  0  0  0
  9 11  1  0  0  0  0
  9 27  1  0  0  0  0
  7  8  1  0  0  0  0
  7  9  1  0  0  0  0
 31 32  1  0  0  0  0
 31 33  1  0  0  0  0
 31 34  1  0  0  0  0
 29 30  1  0  0  0  0
 29 31  1  0  0  0  0
M  CHG  1  23   1
M  END
$$$$
default_name
  -OEChem-01062215323D

 34 33  0     1  0  0  0  0  0999 V2000
   -3.8899   -3.6747    1.6490 H   0  0  0  0  0  0  0  0  0  0  0  0
   -3.9109   -2.6717    1.2250 C   0  0  0  0  0  0  0  0  0  0  0  0
   -4.6009   -2.0517    1.7950 H   0  0  0  0  0  0  0  0  0  0  0  0
   -4.2309   -2.7237    0.1860 H   0  0  0  0  0  0  0  0  0  0  0  0
   -2.5229   -2.0787    1.2980 C   0  0  0  0  0  0  0  0  0  0  0  0
   -1.5999   -2.7227    1.7810 O   0  0  0  0  0  0  0  0  0  0  0  0
   -2.3659   -0.8447    0.8120 N   0  0  0  0  0  0  0  0  0  0  0  0
   -3.1749   -0.3807    0.4220 H   0  0  0  0  0  0  0  0  0  0  0  0
   -1.0919   -0.1077    0.8170 C   0  0  1  0  0  0  0  0  0  0  0  0
   -0.9089    0.2530    1.8308 H   0  0  0  0  0  0  0  0  0  0  0  0
    0.0370   -1.0788    0.4234 C   0  0  0  0  0  0  0  0  0  0  0  0
   -0.2384   -1.5719   -0.5101 H   0  0  0  0  0  0  0  0  0  0  0  0
    0.9540   -0.5119    0.2510 H   0  0  0  0  0  0  0  0  0  0  0  0
    0.3025   -2.1610    1.4812 C   0  0  0  0  0  0  0  0  0  0  0  0
    0.5664   -1.6909    2.4295 H   0  0  0  0  0  0  0  0  0  0  0  0
   -0.6009   -2.7584    1.6187 H   0  0  0  0  0  0  0  0  0  0  0  0
    1.4525   -3.0742    1.0346 C   0  0  0  0  0  0  0  0  0  0  0  0
    1.1915   -3.5318    0.0774 H   0  0  0  0  0  0  0  0  0  0  0  0
    2.3554   -2.4736    0.9075 H   0  0  0  0  0  0  0  0  0  0  0  0
    1.7022   -4.1702    2.0782 C   0  0  0  0  0  0  0  0  0  0  0  0
    1.9543   -3.6919    3.0303 H   0  0  0  0  0  0  0  0  0  0  0  0
    0.7744   -4.7323    2.2208 H   0  0  0  0  0  0  0  0  0  0  0  0
    2.7955   -5.0836    1.6596 N   0  3  0  0  0  0  0  0  0  0  0  0
    3.6595   -4.5707    1.5362 H   0  0  0  0  0  0  0  0  0  0  0  0
    2.9474   -5.8005    2.3581 H   0  0  0  0  0  0  0  0  0  0  0  0
    2.5631   -5.5356    0.7830 H   0  0  0  0  0  0  0  0  0  0  0  0
   -1.1658    1.0945   -0.1271 C   0  0  0  0  0  0  0  0  0  0  0  0
   -1.8629    1.0336   -1.1330 O   0  0  0  0  0  0  0  0  0  0  0  0
   -0.4228    2.1618    0.1838 N   0  0  0  0  0  0  0  0  0  0  0  0
    0.0959    2.1385    1.0461 H   0  0  0  0  0  0  0  0  0  0  0  0
   -0.3820    3.3914   -0.6099 C   0  0  0  0  0  0  0  0  0  0  0  0
   -1.3742    3.8470   -0.6353 H   0  0  0  0  0  0  0  0  0  0  0  0
    0.3231    4.1015   -0.1763 H   0  0  0  0  0  0  0  0  0  0  0  0
   -0.0810    3.1651   -1.6351 H   0  0  0  0  0  0  0  0  0  0  0  0
  5  6  2  0  0  0  0
  5  7  1  0  0  0  0
  2  3  1  0  0  0  0
  2  4  1  0  0  0  0
  2  5  1  0  0  0  0
  1  2  1  0  0  0  0
 27 28  2  0  0  0  0
 27 29  1  0  0  0  0
 23 24  1  0  0  0  0
 23 25  1  0  0  0  0
 23 26  1  0  0  0  0
 20 21  1  0  0  0  0
 20 22  1  0  0  0  0
 20 23  1  0  0  0  0
 17 18  1  0  0  0  0
 17 19  1  0  0  0  0
 17 20  1  0  0  0  0
 14 15  1  0  0  0  0
 14 16  1  0  0  0  0
 14 17  1  0  0  0  0
 11 12  1  0  0  0  0
 11 13  1  0  0  0  0
 11 14  1  0  0  0  0
  9 10  1  0  0  0  0
  9 11  1  0  0  0  0
  9 27  1  0  0  0  0
  7  8  1  0  0  0  0
  7  9  1  0  0  0  0
 31 32  1  0  0  0  0
 31 33  1  0  0  0  0
 31 34  1  0  0  0  0
 29 30  1  0  0  0  0
 29 31  1  0  0  0  0
M  CHG  1  23   1
M  END
$$$$
default_name
  -OEChem-01062215323D

 34 33  0     1  0  0  0  0  0999 V2000
   -3.8899   -3.6747    1.6490 H   0  0  0  0  0  0  0  0  0  0  0  0
   -3.9109   -2.6717    1.2250 C   0  0  0  0  0  0  0  0  0  0  0  0
   -4.6009   -2.0517    1.7950 H   0  0  0  0  0  0  0  0  0  0  0  0
   -4.2309   -2.7237    0.1860 H   0  0  0  0  0  0  0  0  0  0  0  0
   -2.5229   -2.0787    1.2980 C   0  0  0  0  0  0  0  0  0  0  0  0
   -1.5999   -2.7227    1.7810 O   0  0  0  0  0  0  0  0  0  0  0  0
   -2.3659   -0.8447    0.8120 N   0  0  0  0  0  0  0  0  0  0  0  0
   -3.1749   -0.3807    0.4220 H   0  0  0  0  0  0  0  0  0  0  0  0
   -1.0919   -0.1077    0.8170 C   0  0  1  0  0  0  0  0  0  0  0  0
   -0.9089    0.2530    1.8308 H   0  0  0  0  0  0  0  0  0  0  0  0
    0.0370   -1.0788    0.4234 C   0  0  0  0  0  0  0  0  0  0  0  0
   -0.2384   -1.5719   -0.5101 H   0  0  0  0  0  0  0  0  0  0  0  0
    0.9540   -0.5119    0.2510 H   0  0  0  0  0  0  0  0  0  0  0  0
    0.3025   -2.1610    1.4812 C   0  0  0  0  0  0  0  0  0  0  0  0
    0.5664   -1.6909    2.4295 H   0  0  0  0  0  0  0  0  0  0  0  0
   -0.6009   -2.7584    1.6187 H   0  0  0  0  0  0  0  0  0  0  0  0
    1.4525   -3.0742    1.0346 C   0  0  0  0  0  0  0  0  0  0  0  0
    1.1915   -3.5318    0.0774 H   0  0  0  0  0  0  0  0  0  0  0  0
    2.3554   -2.4736    0.9075 H   0  0  0  0  0  0  0  0  0  0  0  0
    1.7022   -4.1702    2.0782 C   0  0  0  0  0  0  0  0  0  0  0  0
    1.9543   -3.6919    3.0303 H   0  0  0  0  0  0  0  0  0  0  0  0
    0.7744   -4.7323    2.2208 H   0  0  0  0  0  0  0  0  0  0  0  0
    2.7955   -5.0836    1.6596 N   0  3  0  0  0  0  0  0  0  0  0  0
    3.6595   -4.5707    1.5362 H   0  0  0  0  0  0  0  0  0  0  0  0
    2.9474   -5.8005    2.3581 H   0  0  0  0  0  0  0  0  0  0  0  0
    2.5631   -5.5356    0.7830 H   0  0  0  0  0  0  0  0  0  0  0  0
   -1.1658    1.0945   -0.1271 C   0  0  0  0  0  0  0  0  0  0  0  0
   -2.0544    1.1506   -0.9689 O   0  0  0  0  0  0  0  0  0  0  0  0
   -0.2155    2.0270   -0.0040 N   0  0  0  0  0  0  0  0  0  0  0  0
    0.4581    1.9171    0.7358 H   0  0  0  0  0  0  0  0  0  0  0  0
   -0.1435    3.2372   -0.8248 C   0  0  0  0  0  0  0  0  0  0  0  0
   -1.0350    3.8467   -0.6622 H   0  0  0  0  0  0  0  0  0  0  0  0
    0.7387    3.8228   -0.5636 H   0  0  0  0  0  0  0  0  0  0  0  0
   -0.0981    2.9696   -1.8828 H   0  0  0  0  0  0  0  0  0  0  0  0
  5  6  2  0  0  0  0
  5  7  1  0  0  0  0
  2  3  1  0  0  0  0
  2  4  1  0  0  0  0
  2  5  1  0  0  0  0
  1  2  1  0  0  0  0
 27 28  2  0  0  0  0
 27 29  1  0  0  0  0
 23 24  1  0  0  0  0
 23 25  1  0  0  0  0
 23 26  1  0  0  0  0
 20 21  1  0  0  0  0
 20 22  1  0  0  0  0
 20 23  1  0  0  0  0
 17 18  1  0  0  0  0
 17 19  1  0  0  0  0
 17 20  1  0  0  0  0
 14 15  1  0  0  0  0
 14 16  1  0  0  0  0
 14 17  1  0  0  0  0
 11 12  1  0  0  0  0
 11 13  1  0  0  0  0
 11 14  1  0  0  0  0
  9 10  1  0  0  0  0
  9 11  1  0  0  0  0
  9 27  1  0  0  0  0
  7  8  1  0  0  0  0
  7  9  1  0  0  0  0
 31 32  1  0  0  0  0
 31 33  1  0  0  0  0
 31 34  1  0  0  0  0
 29 30  1  0  0  0  0
 29 31  1  0  0  0  0
M  CHG  1  23   1
M  END
$$$$
