default_name
  -OEChem-01062215323D

 31 30  0     1  0  0  0  0  0999 V2000
   -3.0760   -3.6390    1.5496 H   0  0  0  0  0  0  0  0  0  0  0  0
   -3.0940   -2.6290    1.1426 C   0  0  0  0  0  0  0  0  0  0  0  0
   -3.7160   -1.9930    1.7706 H   0  0  0  0  0  0  0  0  0  0  0  0
   -3.4880   -2.6500    0.1286 H   0  0  0  0  0  0  0  0  0  0  0  0
   -1.6860   -2.0850    1.1196 C   0  0  0  0  0  0  0  0  0  0  0  0
   -0.7540   -2.7700    1.5226 O   0  0  0  0  0  0  0  0  0  0  0  0
   -1.5320   -0.8490    0.6496 N   0  0  0  0  0  0  0  0  0  0  0  0
   -2.3500   -0.3360    0.3566 H   0  0  0  0  0  0  0  0  0  0  0  0
   -0.2470   -0.1410    0.5576 C   0  0  1  0  0  0  0  0  0  0  0  0
    0.1334   -0.0166    1.5720 H   0  0  0  0  0  0  0  0  0  0  0  0
    0.7794   -0.9906   -0.2341 C   0  0  1  0  0  0  0  0  0  0  0  0
    0.3180   -1.2432   -1.1908 H   0  0  0  0  0  0  0  0  0  0  0  0
    2.0792   -0.2182   -0.5300 C   0  0  0  0  0  0  0  0  0  0  0  0
    2.6192   -0.0070    0.3947 H   0  0  0  0  0  0  0  0  0  0  0  0
    2.7208   -0.7971   -1.1923 H   0  0  0  0  0  0  0  0  0  0  0  0
    1.8517    0.7251   -1.0277 H   0  0  0  0  0  0  0  0  0  0  0  0
    1.0805   -2.3185    0.4965 C   0  0  0  0  0  0  0  0  0  0  0  0
    1.6354   -2.1206    1.4145 H   0  0  0  0  0  0  0  0  0  0  0  0
    0.1366   -2.7938    0.7631 H   0  0  0  0  0  0  0  0  0  0  0  0
    1.8755   -3.3222   -0.3496 C   0  0  0  0  0  0  0  0  0  0  0  0
    2.8751   -2.9405   -0.5566 H   0  0  0  0  0  0  0  0  0  0  0  0
    1.9691   -4.2598    0.1986 H   0  0  0  0  0  0  0  0  0  0  0  0
    1.3559   -3.5117   -1.2895 H   0  0  0  0  0  0  0  0  0  0  0  0
   -0.4551    1.2628   -0.0329 C   0  0  0  0  0  0  0  0  0  0  0  0
   -1.5826    1.6455   -0.3423 O   0  0  0  0  0  0  0  0  0  0  0  0
    0.6283    2.0358   -0.1806 N   0  0  0  0  0  0  0  0  0  0  0  0
    1.5180    1.6586    0.1054 H   0  0  0  0  0  0  0  0  0  0  0  0
    0.5994    3.3896   -0.7308 C   0  0  0  0  0  0  0  0  0  0  0  0
   -0.1375    3.9902   -0.1931 H   0  0  0  0  0  0  0  0  0  0  0  0
    1.5806    3.8574   -0.6374 H   0  0  0  0  0  0  0  0  0  0  0  0
    0.3139    3.3521   -1.7838 H   0  0  0  0  0  0  0  0  0  0  0  0
  5  6  2  0  0  0  0
  5  7  1  0  0  0  0
  2  3  1  0  0  0  0
  2  4  1  0  0  0  0
  2  5  1  0  0  0  0
  1  2  1  0  0  0  0
 24 25  2  0  0  0  0
 24 26  1  0  0  0  0
 20 21  1  0  0  0  0
 20 22  1  0  0  0  0
 20 23  1  0  0  0  0
 17 18  1  0  0  0  0
 17 19  1  0  0  0  0
 17 20  1  0  0  0  0
 13 14  1  0  0  0  0
 13 15  1  0  0  0  0
 13 16  1  0  0  0  0
 11 12  1  0  0  0  0
 11 13  1  0  0  0  0
 11 17  1  0  0  0  0
  9 10  1  0  0  0  0
  9 11  1  0  0  0  0
  9 24  1  0  0  0  0
  7  8  1  0  0  0  0
  7  9  1  0  0  0  0
 28 29  1  0  0  0  0
 28 30  1  0  0  0  0
 28 31  1  0  0  0  0
 26 27  1  0  0  0  0
 26 28  1  0  0  0  0
M  END
$$$$
default_name
  -OEChem-01062215323D

 31 30  0     1  0  0  0  0  0999 V2000
   -3.0760   -3.6390    1.5496 H   0  0  0  0  0  0  0  0  0  0  0  0
   -3.0940   -2.6290    1.1426 C   0  0  0  0  0  0  0  0  0  0  0  0
   -3.7160   -1.9930    1.7706 H   0  0  0  0  0  0  0  0  0  0  0  0
   -3.4880   -2.6500    0.1286 H   0  0  0  0  0  0  0  0  0  0  0  0
   -1.6860   -2.0850    1.1196 C   0  0  0  0  0  0  0  0  0  0  0  0
   -0.7540   -2.7700    1.5226 O   0  0  0  0  0  0  0  0  0  0  0  0
   -1.5320   -0.8490    0.6496 N   0  0  0  0  0  0  0  0  0  0  0  0
   -2.3500   -0.3360    0.3566 H   0  0  0  0  0  0  0  0  0  0  0  0
   -0.2470   -0.1410    0.5576 C   0  0  1  0  0  0  0  0  0  0  0  0
    0.1334   -0.0166    1.5720 H   0  0  0  0  0  0  0  0  0  0  0  0
    0.7794   -0.9906   -0.2341 C   0  0  1  0  0  0  0  0  0  0  0  0
    0.3180   -1.2432   -1.1908 H   0  0  0  0  0  0  0  0  0  0  0  0
    2.0792   -0.2182   -0.5300 C   0  0  0  0  0  0  0  0  0  0  0  0
    2.6192   -0.0070    0.3947 H   0  0  0  0  0  0  0  0  0  0  0  0
    2.7208   -0.7971   -1.1923 H   0  0  0  0  0  0  0  0  0  0  0  0
    1.8517    0.7251   -1.0277 H   0  0  0  0  0  0  0  0  0  0  0  0
    1.0805   -2.3185    0.4965 C   0  0  0  0  0  0  0  0  0  0  0  0
    1.6354   -2.1206    1.4145 H   0  0  0  0  0  0  0  0  0  0  0  0
    0.1366   -2.7938    0.7631 H   0  0  0  0  0  0  0  0  0  0  0  0
    1.8755   -3.3222   -0.3496 C   0  0  0  0  0  0  0  0  0  0  0  0
    2.8751   -2.9405   -0.5566 H   0  0  0  0  0  0  0  0  0  0  0  0
    1.9691   -4.2598    0.1986 H   0  0  0  0  0  0  0  0  0  0  0  0
    1.3559   -3.5117   -1.2895 H   0  0  0  0  0  0  0  0  0  0  0  0
   -0.4551    1.2628   -0.0329 C   0  0  0  0  0  0  0  0  0  0  0  0
   -1.5821    1.7531   -0.0868 O   0  0  0  0  0  0  0  0  0  0  0  0
    0.6305    1.9157   -0.4669 N   0  0  0  0  0  0  0  0  0  0  0  0
    1.5226    1.4550   -0.3801 H   0  0  0  0  0  0  0  0  0  0  0  0
    0.6004    3.2522   -1.0579 C   0  0  0  0  0  0  0  0  0  0  0  0
    0.0734    3.9382   -0.3911 H   0  0  0  0  0  0  0  0  0  0  0  0
    1.6156    3.6178   -1.2193 H   0  0  0  0  0  0  0  0  0  0  0  0
    0.0702    3.2201   -2.0116 H   0  0  0  0  0  0  0  0  0  0  0  0
  5  6  2  0  0  0  0
  5  7  1  0  0  0  0
  2  3  1  0  0  0  0
  2  4  1  0  0  0  0
  2  5  1  0  0  0  0
  1  2  1  0  0  0  0
 24 25  2  0  0  0  0
 24 26  1  0  0  0  0
 20 21  1  0  0  0  0
 20 22  1  0  0  0  0
 20 23  1  0  0  0  0
 17 18  1  0  0  0  0
 17 19  1  0  0  0  0
 17 20  1  0  0  0  0
 13 14  1  0  0  0  0
 13 15  1  0  0  0  0
 13 16  1  0  0  0  0
 11 12  1  0  0  0  0
 11 13  1  0  0  0  0
 11 17  1  0  0  0  0
  9 10  1  0  0  0  0
  9 11  1  0  0  0  0
  9 24  1  0  0  0  0
  7  8  1  0  0  0  0
  7  9  1  0  0  0  0
 28 29  1  0  0  0  0
 28 30  1  0  0  0  0
 28 31  1  0  0  0  0
 26 27  1  0  0  0  0
 26 28  1  0  0  0  0
M  END
$$$$
default_name
  -OEChem-01062215323D

 31 30  0     1  0  0  0  0  0999 V2000
   -3.0760   -3.6390    1.5496 H   0  0  0  0  0  0  0  0  0  0  0  0
   -3.0940   -2.6290    1.1426 C   0  0  0  0  0  0  0  0  0  0  0  0
   -3.7160   -1.9930    1.7706 H   0  0  0  0  0  0  0  0  0  0  0  0
   -3.4880   -2.6500    0.1286 H   0  0  0  0  0  0  0  0  0  0  0  0
   -1.6860   -2.0850    1.1196 C   0  0  0  0  0  0  0  0  0  0  0  0
   -0.7540   -2.7700    1.5226 O   0  0  0  0  0  0  0  0  0  0  0  0
   -1.5320   -0.8490    0.6496 N   0  0  0  0  0  0  0  0  0  0  0  0
   -2.3500   -0.3360    0.3566 H   0  0  0  0  0  0  0  0  0  0  0  0
   -0.2470   -0.1410    0.5576 C   0  0  1  0  0  0  0  0  0  0  0  0
    0.1334   -0.0166    1.5720 H   0  0  0  0  0  0  0  0  0  0  0  0
    0.7794   -0.9906   -0.2341 C   0  0  1  0  0  0  0  0  0  0  0  0
    0.3180   -1.2432   -1.1908 H   0  0  0  0  0  0  0  0  0  0  0  0
    2.0792   -0.2182   -0.5300 C   0  0  0  0  0  0  0  0  0  0  0  0
    2.6192   -0.0070    0.3947 H   0  0  0  0  0  0  0  0  0  0  0  0
    2.7208   -0.7971   -1.1923 H   0  0  0  0  0  0  0  0  0  0  0  0
    1.8517    0.7251   -1.0277 H   0  0  0  0  0  0  0  0  0  0  0  0
    1.0805   -2.3185    0.4965 C   0  0  0  0  0  0  0  0  0  0  0  0
    1.6354   -2.1206    1.4145 H   0  0  0  0  0  0  0  0  0  0  0  0
    0.1366   -2.7938    0.7631 H   0  0  0  0  0  0  0  0  0  0  0  0
    1.8755   -3.3222   -0.3496 C   0  0  0  0  0  0  0  0  0  0  0  0
    2.8751   -2.9405   -0.5566 H   0  0  0  0  0  0  0  0  0  0  0  0
    1.9691   -4.2598    0.1986 H   0  0  0  0  0  0  0  0  0  0  0  0
    1.3559   -3.5117   -1.2895 H   0  0  0  0  0  0  0  0  0  0  0  0
   -0.4551    1.2628   -0.0329 C   0  0  0  0  0  0  0  0  0  0  0  0
   -1.5105    1.8658    0.1561 O   0  0  0  0  0  0  0  0  0  0  0  0
    0.5530    1.7895   -0.7396 N   0  0  0  0  0  0  0  0  0  0  0  0
    1.3921    1.2409   -0.8430 H   0  0  0  0  0  0  0  0  0  0  0  0
    0.5105    3.1079   -1.3692 C   0  0  0  0  0  0  0  0  0  0  0  0
    0.2252    3.8600   -0.6304 H   0  0  0  0  0  0  0  0  0  0  0  0
    1.4880    3.3625   -1.7813 H   0  0  0  0  0  0  0  0  0  0  0  0
   -0.2322    3.1090   -2.1693 H   0  0  0  0  0  0  0  0  0  0  0  0
  5  6  2  0  0  0  0
  5  7  1  0  0  0  0
  2  3  1  0  0  0  0
  2  4  1  0  0  0  0
  2  5  1  0  0  0  0
  1  2  1  0  0  0  0
 24 25  2  0  0  0  0
 24 26  1  0  0  0  0
 20 21  1  0  0  0  0
 20 22  1  0  0  0  0
 20 23  1  0  0  0  0
 17 18  1  0  0  0  0
 17 19  1  0  0  0  0
 17 20  1  0  0  0  0
 13 14  1  0  0  0  0
 13 15  1  0  0  0  0
 13 16  1  0  0  0  0
 11 12  1  0  0  0  0
 11 13  1  0  0  0  0
 11 17  1  0  0  0  0
  9 10  1  0  0  0  0
  9 11  1  0  0  0  0
  9 24  1  0  0  0  0
  7  8  1  0  0  0  0
  7  9  1  0  0  0  0
 28 29  1  0  0  0  0
 28 30  1  0  0  0  0
 28 31  1  0  0  0  0
 26 27  1  0  0  0  0
 26 28  1  0  0  0  0
M  END
$$$$
default_name
  -OEChem-01062215323D

 31 30  0     1  0  0  0  0  0999 V2000
   -3.0760   -3.6390    1.5496 H   0  0  0  0  0  0  0  0  0  0  0  0
   -3.0940   -2.6290    1.1426 C   0  0  0  0  0  0  0  0  0  0  0  0
   -3.7160   -1.9930    1.7706 H   0  0  0  0  0  0  0  0  0  0  0  0
   -3.4880   -2.6500    0.1286 H   0  0  0  0  0  0  0  0  0  0  0  0
   -1.6860   -2.0850    1.1196 C   0  0  0  0  0  0  0  0  0  0  0  0
   -0.7540   -2.7700    1.5226 O   0  0  0  0  0  0  0  0  0  0  0  0
   -1.5320   -0.8490    0.6496 N   0  0  0  0  0  0  0  0  0  0  0  0
   -2.3500   -0.3360    0.3566 H   0  0  0  0  0  0  0  0  0  0  0  0
   -0.2470   -0.1410    0.5576 C   0  0  1  0  0  0  0  0  0  0  0  0
    0.1334   -0.0166    1.5720 H   0  0  0  0  0  0  0  0  0  0  0  0
    0.7794   -0.9906   -0.2341 C   0  0  1  0  0  0  0  0  0  0  0  0
    0.3180   -1.2432   -1.1908 H   0  0  0  0  0  0  0  0  0  0  0  0
    2.0792   -0.2182   -0.5300 C   0  0  0  0  0  0  0  0  0  0  0  0
    2.6192   -0.0070    0.3947 H   0  0  0  0  0  0  0  0  0  0  0  0
    2.7208   -0.7971   -1.1923 H   0  0  0  0  0  0  0  0  0  0  0  0
    1.8517    0.7251   -1.0277 H   0  0  0  0  0  0  0  0  0  0  0  0
    1.0805   -2.3185    0.4965 C   0  0  0  0  0  0  0  0  0  0  0  0
    1.6354   -2.1206    1.4145 H   0  0  0  0  0  0  0  0  0  0  0  0
    0.1366   -2.7938    0.7631 H   0  0  0  0  0  0  0  0  0  0  0  0
    1.8755   -3.3222   -0.3496 C   0  0  0  0  0  0  0  0  0  0  0  0
    2.8751   -2.9405   -0.5566 H   0  0  0  0  0  0  0  0  0  0  0  0
    1.9691   -4.2598    0.1986 H   0  0  0  0  0  0  0  0  0  0  0  0
    1.3559   -3.5117   -1.2895 H   0  0  0  0  0  0  0  0  0  0  0  0
   -0.4551    1.2628   -0.0329 C   0  0  0  0  0  0  0  0  0  0  0  0
   -1.3728    1.9762    0.3699 O   0  0  0  0  0  0  0  0  0  0  0  0
    0.4012    1.6657   -0.9804 N   0  0  0  0  0  0  0  0  0  0  0  0
    1.1353    1.0309   -1.2518 H   0  0  0  0  0  0  0  0  0  0  0  0
    0.3356    2.9665   -1.6436 C   0  0  0  0  0  0  0  0  0  0  0  0
    0.3075    3.7610   -0.8947 H   0  0  0  0  0  0  0  0  0  0  0  0
    1.2066    3.1089   -2.2851 H   0  0  0  0  0  0  0  0  0  0  0  0
   -0.5727    3.0261   -2.2463 H   0  0  0  0  0  0  0  0  0  0  0  0
  5  6  2  0  0  0  0
  5  7  1  0  0  0  0
  2  3  1  0  0  0  0
  2  4  1  0  0  0  0
  2  5  1  0  0  0  0
  1  2  1  0  0  0  0
 24 25  2  0  0  0  0
 24 26  1  0  0  0  0
 20 21  1  0  0  0  0
 20 22  1  0  0  0  0
 20 23  1  0  0  0  0
 17 18  1  0  0  0  0
 17 19  1  0  0  0  0
 17 20  1  0  0  0  0
 13 14  1  0  0  0  0
 13 15  1  0  0  0  0
 13 16  1  0  0  0  0
 11 12  1  0  0  0  0
 11 13  1  0  0  0  0
 11 17  1  0  0  0  0
  9 10  1  0  0  0  0
  9 11  1  0  0  0  0
  9 24  1  0  0  0  0
  7  8  1  0  0  0  0
  7  9  1  0  0  0  0
 28 29  1  0  0  0  0
 28 30  1  0  0  0  0
 28 31  1  0  0  0  0
 26 27  1  0  0  0  0
 26 28  1  0  0  0  0
M  END
$$$$
default_name
  -OEChem-01062215323D

 31 30  0     1  0  0  0  0  0999 V2000
   -3.0760   -3.6390    1.5496 H   0  0  0  0  0  0  0  0  0  0  0  0
   -3.0940   -2.6290    1.1426 C   0  0  0  0  0  0  0  0  0  0  0  0
   -3.7160   -1.9930    1.7706 H   0  0  0  0  0  0  0  0  0  0  0  0
   -3.4880   -2.6500    0.1286 H   0  0  0  0  0  0  0  0  0  0  0  0
   -1.6860   -2.0850    1.1196 C   0  0  0  0  0  0  0  0  0  0  0  0
   -0.7540   -2.7700    1.5226 O   0  0  0  0  0  0  0  0  0  0  0  0
   -1.5320   -0.8490    0.6496 N   0  0  0  0  0  0  0  0  0  0  0  0
   -2.3500   -0.3360    0.3566 H   0  0  0  0  0  0  0  0  0  0  0  0
   -0.2470   -0.1410    0.5576 C   0  0  1  0  0  0  0  0  0  0  0  0
    0.1334   -0.0166    1.5720 H   0  0  0  0  0  0  0  0  0  0  0  0
    0.7794   -0.9906   -0.2341 C   0  0  1  0  0  0  0  0  0  0  0  0
    0.3180   -1.2432   -1.1908 H   0  0  0  0  0  0  0  0  0  0  0  0
    2.0792   -0.2182   -0.5300 C   0  0  0  0  0  0  0  0  0  0  0  0
    2.6192   -0.0070    0.3947 H   0  0  0  0  0  0  0  0  0  0  0  0
    2.7208   -0.7971   -1.1923 H   0  0  0  0  0  0  0  0  0  0  0  0
    1.8517    0.7251   -1.0277 H   0  0  0  0  0  0  0  0  0  0  0  0
    1.0805   -2.3185    0.4965 C   0  0  0  0  0  0  0  0  0  0  0  0
    1.6354   -2.1206    1.4145 H   0  0  0  0  0  0  0  0  0  0  0  0
    0.1366   -2.7938    0.7631 H   0  0  0  0  0  0  0  0  0  0  0  0
    1.8755   -3.3222   -0.3496 C   0  0  0  0  0  0  0  0  0  0  0  0
    2.8751   -2.9405   -0.5566 H   0  0  0  0  0  0  0  0  0  0  0  0
    1.9691   -4.2598    0.1986 H   0  0  0  0  0  0  0  0  0  0  0  0
    1.3559   -3.5117   -1.2895 H   0  0  0  0  0  0  0  0  0  0  0  0
   -0.4551    1.2628   -0.0329 C   0  0  0  0  0  0  0  0  0  0  0  0
   -1.1782    2.0766    0.5400 O   0  0  0  0  0  0  0  0  0  0  0  0
    0.1852    1.5528   -1.1726 N   0  0  0  0  0  0  0  0  0  0  0  0
    0.7698    0.8393   -1.5786 H   0  0  0  0  0  0  0  0  0  0  0  0
    0.0878    2.8377   -1.8624 C   0  0  0  0  0  0  0  0  0  0  0  0
    0.3146    3.6480   -1.1659 H   0  0  0  0  0  0  0  0  0  0  0  0
    0.7904    2.8742   -2.6962 H   0  0  0  0  0  0  0  0  0  0  0  0
   -0.9280    2.9773   -2.2373 H   0  0  0  0  0  0  0  0  0  0  0  0
  5  6  2  0  0  0  0
  5  7  1  0  0  0  0
  2  3  1  0  0  0  0
  2  4  1  0  0  0  0
  2  5  1  0  0  0  0
  1  2  1  0  0  0  0
 24 25  2  0  0  0  0
 24 26  1  0  0  0  0
 20 21  1  0  0  0  0
 20 22  1  0  0  0  0
 20 23  1  0  0  0  0
 17 18  1  0  0  0  0
 17 19  1  0  0  0  0
 17 20  1  0  0  0  0
 13 14  1  0  0  0  0
 13 15  1  0  0  0  0
 13 16  1  0  0  0  0
 11 12  1  0  0  0  0
 11 13  1  0  0  0  0
 11 17  1  0  0  0  0
  9 10  1  0  0  0  0
  9 11  1  0  0  0  0
  9 24  1  0  0  0  0
  7  8  1  0  0  0  0
  7  9  1  0  0  0  0
 28 29  1  0  0  0  0
 28 30  1  0  0  0  0
 28 31  1  0  0  0  0
 26 27  1  0  0  0  0
 26 28  1  0  0  0  0
M  END
$$$$
default_name
  -OEChem-01062215323D

 31 30  0     1  0  0  0  0  0999 V2000
   -3.0760   -3.6390    1.5496 H   0  0  0  0  0  0  0  0  0  0  0  0
   -3.0940   -2.6290    1.1426 C   0  0  0  0  0  0  0  0  0  0  0  0
   -3.7160   -1.9930    1.7706 H   0  0  0  0  0  0  0  0  0  0  0  0
   -3.4880   -2.6500    0.1286 H   0  0  0  0  0  0  0  0  0  0  0  0
   -1.6860   -2.0850    1.1196 C   0  0  0  0  0  0  0  0  0  0  0  0
   -0.7540   -2.7700    1.5226 O   0  0  0  0  0  0  0  0  0  0  0  0
   -1.5320   -0.8490    0.6496 N   0  0  0  0  0  0  0  0  0  0  0  0
   -2.3500   -0.3360    0.3566 H   0  0  0  0  0  0  0  0  0  0  0  0
   -0.2470   -0.1410    0.5576 C   0  0  1  0  0  0  0  0  0  0  0  0
    0.1334   -0.0166    1.5720 H   0  0  0  0  0  0  0  0  0  0  0  0
    0.7794   -0.9906   -0.2341 C   0  0  1  0  0  0  0  0  0  0  0  0
    0.3180   -1.2432   -1.1908 H   0  0  0  0  0  0  0  0  0  0  0  0
    2.0792   -0.2182   -0.5300 C   0  0  0  0  0  0  0  0  0  0  0  0
    2.6192   -0.0070    0.3947 H   0  0  0  0  0  0  0  0  0  0  0  0
    2.7208   -0.7971   -1.1923 H   0  0  0  0  0  0  0  0  0  0  0  0
    1.8517    0.7251   -1.0277 H   0  0  0  0  0  0  0  0  0  0  0  0
    1.0805   -2.3185    0.4965 C   0  0  0  0  0  0  0  0  0  0  0  0
    1.6354   -2.1206    1.4145 H   0  0  0  0  0  0  0  0  0  0  0  0
    0.1366   -2.7938    0.7631 H   0  0  0  0  0  0  0  0  0  0  0  0
    1.8755   -3.3222   -0.3496 C   0  0  0  0  0  0  0  0  0  0  0  0
    2.8751   -2.9405   -0.5566 H   0  0  0  0  0  0  0  0  0  0  0  0
    1.9691   -4.2598    0.1986 H   0  0  0  0  0  0  0  0  0  0  0  0
    1.3559   -3.5117   -1.2895 H   0  0  0  0  0  0  0  0  0  0  0  0
   -0.4551    1.2628   -0.0329 C   0  0  0  0  0  0  0  0  0  0  0  0
   -0.9401    2.1601    0.6548 O   0  0  0  0  0  0  0  0  0  0  0  0
   -0.0800    1.4585   -1.3034 N   0  0  0  0  0  0  0  0  0  0  0  0
    0.3203    0.6790   -1.8012 H   0  0  0  0  0  0  0  0  0  0  0  0
   -0.2161    2.7303   -2.0106 C   0  0  0  0  0  0  0  0  0  0  0  0
    0.2462    3.5286   -1.4257 H   0  0  0  0  0  0  0  0  0  0  0  0
    0.2679    2.6745   -2.9868 H   0  0  0  0  0  0  0  0  0  0  0  0
   -1.2739    2.9657   -2.1429 H   0  0  0  0  0  0  0  0  0  0  0  0
  5  6  2  0  0  0  0
  5  7  1  0  0  0  0
  2  3  1  0  0  0  0
  2  4  1  0  0  0  0
  2  5  1  0  0  0  0
  1  2  1  0  0  0  0
 24 25  2  0  0  0  0
 24 26  1  0  0  0  0
 20 21  1  0  0  0  0
 20 22  1  0  0  0  0
 20 23  1  0  0  0  0
 17 18  1  0  0  0  0
 17 19  1  0  0  0  0
 17 20  1  0  0  0  0
 13 14  1  0  0  0  0
 13 15  1  0  0  0  0
 13 16  1  0  0  0  0
 11 12  1  0  0  0  0
 11 13  1  0  0  0  0
 11 17  1  0  0  0  0
  9 10  1  0  0  0  0
  9 11  1  0  0  0  0
  9 24  1  0  0  0  0
  7  8  1  0  0  0  0
  7  9  1  0  0  0  0
 28 29  1  0  0  0  0
 28 30  1  0  0  0  0
 28 31  1  0  0  0  0
 26 27  1  0  0  0  0
 26 28  1  0  0  0  0
M  END
$$$$
default_name
  -OEChem-01062215323D

 31 30  0     1  0  0  0  0  0999 V2000
   -3.0760   -3.6390    1.5496 H   0  0  0  0  0  0  0  0  0  0  0  0
   -3.0940   -2.6290    1.1426 C   0  0  0  0  0  0  0  0  0  0  0  0
   -3.7160   -1.9930    1.7706 H   0  0  0  0  0  0  0  0  0  0  0  0
   -3.4880   -2.6500    0.1286 H   0  0  0  0  0  0  0  0  0  0  0  0
   -1.6860   -2.0850    1.1196 C   0  0  0  0  0  0  0  0  0  0  0  0
   -0.7540   -2.7700    1.5226 O   0  0  0  0  0  0  0  0  0  0  0  0
   -1.5320   -0.8490    0.6496 N   0  0  0  0  0  0  0  0  0  0  0  0
   -2.3500   -0.3360    0.3566 H   0  0  0  0  0  0  0  0  0  0  0  0
   -0.2470   -0.1410    0.5576 C   0  0  1  0  0  0  0  0  0  0  0  0
    0.1334   -0.0166    1.5720 H   0  0  0  0  0  0  0  0  0  0  0  0
    0.7794   -0.9906   -0.2341 C   0  0  1  0  0  0  0  0  0  0  0  0
    0.3180   -1.2432   -1.1908 H   0  0  0  0  0  0  0  0  0  0  0  0
    2.0792   -0.2182   -0.5300 C   0  0  0  0  0  0  0  0  0  0  0  0
    2.6192   -0.0070    0.3947 H   0  0  0  0  0  0  0  0  0  0  0  0
    2.7208   -0.7971   -1.1923 H   0  0  0  0  0  0  0  0  0  0  0  0
    1.8517    0.7251   -1.0277 H   0  0  0  0  0  0  0  0  0  0  0  0
    1.0805   -2.3185    0.4965 C   0  0  0  0  0  0  0  0  0  0  0  0
    1.6354   -2.1206    1.4145 H   0  0  0  0  0  0  0  0  0  0  0  0
    0.1366   -2.7938    0.7631 H   0  0  0  0  0  0  0  0  0  0  0  0
    1.8755   -3.3222   -0.3496 C   0  0  0  0  0  0  0  0  0  0  0  0
    2.8751   -2.9405   -0.5566 H   0  0  0  0  0  0  0  0  0  0  0  0
    1.9691   -4.2598    0.1986 H   0  0  0  0  0  0  0  0  0  0  0  0
    1.3559   -3.5117   -1.2895 H   0  0  0  0  0  0  0  0  0  0  0  0
   -0.4551    1.2628   -0.0329 C   0  0  0  0  0  0  0  0  0  0  0  0
   -0.6747    2.2212    0.7064 O   0  0  0  0  0  0  0  0  0  0  0  0
   -0.3765    1.3892   -1.3637 N   0  0  0  0  0  0  0  0  0  0  0  0
   -0.1823    0.5611   -1.9043 H   0  0  0  0  0  0  0  0  0  0  0  0
   -0.5553    2.6516   -2.0782 C   0  0  0  0  0  0  0  0  0  0  0  0
    0.1068    3.4109   -1.6562 H   0  0  0  0  0  0  0  0  0  0  0  0
   -0.3253    2.5235   -3.1369 H   0  0  0  0  0  0  0  0  0  0  0  0
   -1.5868    2.9922   -1.9695 H   0  0  0  0  0  0  0  0  0  0  0  0
  5  6  2  0  0  0  0
  5  7  1  0  0  0  0
  2  3  1  0  0  0  0
  2  4  1  0  0  0  0
  2  5  1  0  0  0  0
  1  2  1  0  0  0  0
 24 25  2  0  0  0  0
 24 26  1  0  0  0  0
 20 21  1  0  0  0  0
 20 22  1  0  0  0  0
 20 23  1  0  0  0  0
 17 18  1  0  0  0  0
 17 19  1  0  0  0  0
 17 20  1  0  0  0  0
 13 14  1  0  0  0  0
 13 15  1  0  0  0  0
 13 16  1  0  0  0  0
 11 12  1  0  0  0  0
 11 13  1  0  0  0  0
 11 17  1  0  0  0  0
  9 10  1  0  0  0  0
  9 11  1  0  0  0  0
  9 24  1  0  0  0  0
  7  8  1  0  0  0  0
  7  9  1  0  0  0  0
 28 29  1  0  0  0  0
 28 30  1  0  0  0  0
 28 31  1  0  0  0  0
 26 27  1  0  0  0  0
 26 28  1  0  0  0  0
M  END
$$$$
default_name
  -OEChem-01062215323D

 31 30  0     1  0  0  0  0  0999 V2000
   -3.0760   -3.6390    1.5496 H   0  0  0  0  0  0  0  0  0  0  0  0
   -3.0940   -2.6290    1.1426 C   0  0  0  0  0  0  0  0  0  0  0  0
   -3.7160   -1.9930    1.7706 H   0  0  0  0  0  0  0  0  0  0  0  0
   -3.4880   -2.6500    0.1286 H   0  0  0  0  0  0  0  0  0  0  0  0
   -1.6860   -2.0850    1.1196 C   0  0  0  0  0  0  0  0  0  0  0  0
   -0.7540   -2.7700    1.5226 O   0  0  0  0  0  0  0  0  0  0  0  0
   -1.5320   -0.8490    0.6496 N   0  0  0  0  0  0  0  0  0  0  0  0
   -2.3500   -0.3360    0.3566 H   0  0  0  0  0  0  0  0  0  0  0  0
   -0.2470   -0.1410    0.5576 C   0  0  1  0  0  0  0  0  0  0  0  0
    0.1334   -0.0166    1.5720 H   0  0  0  0  0  0  0  0  0  0  0  0
    0.7794   -0.9906   -0.2341 C   0  0  1  0  0  0  0  0  0  0  0  0
    0.3180   -1.2432   -1.1908 H   0  0  0  0  0  0  0  0  0  0  0  0
    2.0792   -0.2182   -0.5300 C   0  0  0  0  0  0  0  0  0  0  0  0
    2.6192   -0.0070    0.3947 H   0  0  0  0  0  0  0  0  0  0  0  0
    2.7208   -0.7971   -1.1923 H   0  0  0  0  0  0  0  0  0  0  0  0
    1.8517    0.7251   -1.0277 H   0  0  0  0  0  0  0  0  0  0  0  0
    1.0805   -2.3185    0.4965 C   0  0  0  0  0  0  0  0  0  0  0  0
    1.6354   -2.1206    1.4145 H   0  0  0  0  0  0  0  0  0  0  0  0
    0.1366   -2.7938    0.7631 H   0  0  0  0  0  0  0  0  0  0  0  0
    1.8755   -3.3222   -0.3496 C   0  0  0  0  0  0  0  0  0  0  0  0
    2.8751   -2.9405   -0.5566 H   0  0  0  0  0  0  0  0  0  0  0  0
    1.9691   -4.2598    0.1986 H   0  0  0  0  0  0  0  0  0  0  0  0
    1.3559   -3.5117   -1.2895 H   0  0  0  0  0  0  0  0  0  0  0  0
   -0.4551    1.2628   -0.0329 C   0  0  0  0  0  0  0  0  0  0  0  0
   -0.4000    2.2556    0.6914 O   0  0  0  0  0  0  0  0  0  0  0  0
   -0.6840    1.3496   -1.3494 N   0  0  0  0  0  0  0  0  0  0  0  0
   -0.7039    0.4936   -1.8810 H   0  0  0  0  0  0  0  0  0  0  0  0
   -0.9068    2.6070   -2.0606 C   0  0  0  0  0  0  0  0  0  0  0  0
   -0.0941    3.3031   -1.8418 H   0  0  0  0  0  0  0  0  0  0  0  0
   -0.9488    2.4312   -3.1365 H   0  0  0  0  0  0  0  0  0  0  0  0
   -1.8455    3.0551   -1.7290 H   0  0  0  0  0  0  0  0  0  0  0  0
  5  6  2  0  0  0  0
  5  7  1  0  0  0  0
  2  3  1  0  0  0  0
  2  4  1  0  0  0  0
  2  5  1  0  0  0  0
  1  2  1  0  0  0  0
 24 25  2  0  0  0  0
 24 26  1  0  0  0  0
 20 21  1  0  0  0  0
 20 22  1  0  0  0  0
 20 23  1  0  0  0  0
 17 18  1  0  0  0  0
 17 19  1  0  0  0  0
 17 20  1  0  0  0  0
 13 14  1  0  0  0  0
 13 15  1  0  0  0  0
 13 16  1  0  0  0  0
 11 12  1  0  0  0  0
 11 13  1  0  0  0  0
 11 17  1  0  0  0  0
  9 10  1  0  0  0  0
  9 11  1  0  0  0  0
  9 24  1  0  0  0  0
  7  8  1  0  0  0  0
  7  9  1  0  0  0  0
 28 29  1  0  0  0  0
 28 30  1  0  0  0  0
 28 31  1  0  0  0  0
 26 27  1  0  0  0  0
 26 28  1  0  0  0  0
M  END
$$$$
default_name
  -OEChem-01062215323D

 31 30  0     1  0  0  0  0  0999 V2000
   -3.0760   -3.6390    1.5496 H   0  0  0  0  0  0  0  0  0  0  0  0
   -3.0940   -2.6290    1.1426 C   0  0  0  0  0  0  0  0  0  0  0  0
   -3.7160   -1.9930    1.7706 H   0  0  0  0  0  0  0  0  0  0  0  0
   -3.4880   -2.6500    0.1286 H   0  0  0  0  0  0  0  0  0  0  0  0
   -1.6860   -2.0850    1.1196 C   0  0  0  0  0  0  0  0  0  0  0  0
   -0.7540   -2.7700    1.5226 O   0  0  0  0  0  0  0  0  0  0  0  0
   -1.5320   -0.8490    0.6496 N   0  0  0  0  0  0  0  0  0  0  0  0
   -2.3500   -0.3360    0.3566 H   0  0  0  0  0  0  0  0  0  0  0  0
   -0.2470   -0.1410    0.5576 C   0  0  1  0  0  0  0  0  0  0  0  0
    0.1334   -0.0166    1.5720 H   0  0  0  0  0  0  0  0  0  0  0  0
    0.7794   -0.9906   -0.2341 C   0  0  1  0  0  0  0  0  0  0  0  0
    0.3180   -1.2432   -1.1908 H   0  0  0  0  0  0  0  0  0  0  0  0
    2.0792   -0.2182   -0.5300 C   0  0  0  0  0  0  0  0  0  0  0  0
    2.6192   -0.0070    0.3947 H   0  0  0  0  0  0  0  0  0  0  0  0
    2.7208   -0.7971   -1.1923 H   0  0  0  0  0  0  0  0  0  0  0  0
    1.8517    0.7251   -1.0277 H   0  0  0  0  0  0  0  0  0  0  0  0
    1.0805   -2.3185    0.4965 C   0  0  0  0  0  0  0  0  0  0  0  0
    1.6354   -2.1206    1.4145 H   0  0  0  0  0  0  0  0  0  0  0  0
    0.1366   -2.7938    0.7631 H   0  0  0  0  0  0  0  0  0  0  0  0
    1.8755   -3.3222   -0.3496 C   0  0  0  0  0  0  0  0  0  0  0  0
    2.8751   -2.9405   -0.5566 H   0  0  0  0  0  0  0  0  0  0  0  0
    1.9691   -4.2598    0.1986 H   0  0  0  0  0  0  0  0  0  0  0  0
    1.3559   -3.5117   -1.2895 H   0  0  0  0  0  0  0  0  0  0  0  0
   -0.4551    1.2628   -0.0329 C   0  0  0  0  0  0  0  0  0  0  0  0
   -0.1348    2.2610    0.6108 O   0  0  0  0  0  0  0  0  0  0  0  0
   -0.9816    1.3425   -1.2616 N   0  0  0  0  0  0  0  0  0  0  0  0
   -1.2089    0.4811   -1.7328 H   0  0  0  0  0  0  0  0  0  0  0  0
   -1.2466    2.5994   -1.9589 C   0  0  0  0  0  0  0  0  0  0  0  0
   -0.3427    3.2124   -1.9699 H   0  0  0  0  0  0  0  0  0  0  0  0
   -1.5601    2.4042   -2.9854 H   0  0  0  0  0  0  0  0  0  0  0  0
   -2.0322    3.1499   -1.4378 H   0  0  0  0  0  0  0  0  0  0  0  0
  5  6  2  0  0  0  0
  5  7  1  0  0  0  0
  2  3  1  0  0  0  0
  2  4  1  0  0  0  0
  2  5  1  0  0  0  0
  1  2  1  0  0  0  0
 24 25  2  0  0  0  0
 24 26  1  0  0  0  0
 20 21  1  0  0  0  0
 20 22  1  0  0  0  0
 20 23  1  0  0  0  0
 17 18  1  0  0  0  0
 17 19  1  0  0  0  0
 17 20  1  0  0  0  0
 13 14  1  0  0  0  0
 13 15  1  0  0  0  0
 13 16  1  0  0  0  0
 11 12  1  0  0  0  0
 11 13  1  0  0  0  0
 11 17  1  0  0  0  0
  9 10  1  0  0  0  0
  9 11  1  0  0  0  0
  9 24  1  0  0  0  0
  7  8  1  0  0  0  0
  7  9  1  0  0  0  0
 28 29  1  0  0  0  0
 28 30  1  0  0  0  0
 28 31  1  0  0  0  0
 26 27  1  0  0  0  0
 26 28  1  0  0  0  0
M  END
$$$$
default_name
  -OEChem-01062215323D

 31 30  0     1  0  0  0  0  0999 V2000
   -3.0760   -3.6390    1.5496 H   0  0  0  0  0  0  0  0  0  0  0  0
   -3.0940   -2.6290    1.1426 C   0  0  0  0  0  0  0  0  0  0  0  0
   -3.7160   -1.9930    1.7706 H   0  0  0  0  0  0  0  0  0  0  0  0
   -3.4880   -2.6500    0.1286 H   0  0  0  0  0  0  0  0  0  0  0  0
   -1.6860   -2.0850    1.1196 C   0  0  0  0  0  0  0  0  0  0  0  0
   -0.7540   -2.7700    1.5226 O   0  0  0  0  0  0  0  0  0  0  0  0
   -1.5320   -0.8490    0.6496 N   0  0  0  0  0  0  0  0  0  0  0  0
   -2.3500   -0.3360    0.3566 H   0  0  0  0  0  0  0  0  0  0  0  0
   -0.2470   -0.1410    0.5576 C   0  0  1  0  0  0  0  0  0  0  0  0
    0.1334   -0.0166    1.5720 H   0  0  0  0  0  0  0  0  0  0  0  0
    0.7794   -0.9906   -0.2341 C   0  0  1  0  0  0  0  0  0  0  0  0
    0.3180   -1.2432   -1.1908 H   0  0  0  0  0  0  0  0  0  0  0  0
    2.0792   -0.2182   -0.5300 C   0  0  0  0  0  0  0  0  0  0  0  0
    2.6192   -0.0070    0.3947 H   0  0  0  0  0  0  0  0  0  0  0  0
    2.7208   -0.7971   -1.1923 H   0  0  0  0  0  0  0  0  0  0  0  0
    1.8517    0.7251   -1.0277 H   0  0  0  0  0  0  0  0  0  0  0  0
    1.0805   -2.3185    0.4965 C   0  0  0  0  0  0  0  0  0  0  0  0
    1.6354   -2.1206    1.4145 H   0  0  0  0  0  0  0  0  0  0  0  0
    0.1366   -2.7938    0.7631 H   0  0  0  0  0  0  0  0  0  0  0  0
    1.8755   -3.3222   -0.3496 C   0  0  0  0  0  0  0  0  0  0  0  0
    2.8751   -2.9405   -0.5566 H   0  0  0  0  0  0  0  0  0  0  0  0
    1.9691   -4.2598    0.1986 H   0  0  0  0  0  0  0  0  0  0  0  0
    1.3559   -3.5117   -1.2895 H   0  0  0  0  0  0  0  0  0  0  0  0
   -0.4551    1.2628   -0.0329 C   0  0  0  0  0  0  0  0  0  0  0  0
    0.1028    2.2370    0.4701 O   0  0  0  0  0  0  0  0  0  0  0  0
   -1.2490    1.3682   -1.1061 N   0  0  0  0  0  0  0  0  0  0  0  0
   -1.6630    0.5244   -1.4698 H   0  0  0  0  0  0  0  0  0  0  0  0
   -1.5515    2.6294   -1.7800 C   0  0  0  0  0  0  0  0  0  0  0  0
   -0.6221    3.1450   -2.0316 H   0  0  0  0  0  0  0  0  0  0  0  0
   -2.1176    2.4441   -2.6940 H   0  0  0  0  0  0  0  0  0  0  0  0
   -2.1344    3.2702   -1.1157 H   0  0  0  0  0  0  0  0  0  0  0  0
  5  6  2  0  0  0  0
  5  7  1  0  0  0  0
  2  3  1  0  0  0  0
  2  4  1  0  0  0  0
  2  5  1  0  0  0  0
  1  2  1  0  0  0  0
 24 25  2  0  0  0  0
 24 26  1  0  0  0  0
 20 21  1  0  0  0  0
 20 22  1  0  0  0  0
 20 23  1  0  0  0  0
 17 18  1  0  0  0  0
 17 19  1  0  0  0  0
 17 20  1  0  0  0  0
 13 14  1  0  0  0  0
 13 15  1  0  0  0  0
 13 16  1  0  0  0  0
 11 12  1  0  0  0  0
 11 13  1  0  0  0  0
 11 17  1  0  0  0  0
  9 10  1  0  0  0  0
  9 11  1  0  0  0  0
  9 24  1  0  0  0  0
  7  8  1  0  0  0  0
  7  9  1  0  0  0  0
 28 29  1  0  0  0  0
 28 30  1  0  0  0  0
 28 31  1  0  0  0  0
 26 27  1  0  0  0  0
 26 28  1  0  0  0  0
M  END
$$$$
default_name
  -OEChem-01062215323D

 31 30  0     1  0  0  0  0  0999 V2000
   -3.0760   -3.6390    1.5496 H   0  0  0  0  0  0  0  0  0  0  0  0
   -3.0940   -2.6290    1.1426 C   0  0  0  0  0  0  0  0  0  0  0  0
   -3.7160   -1.9930    1.7706 H   0  0  0  0  0  0  0  0  0  0  0  0
   -3.4880   -2.6500    0.1286 H   0  0  0  0  0  0  0  0  0  0  0  0
   -1.6860   -2.0850    1.1196 C   0  0  0  0  0  0  0  0  0  0  0  0
   -0.7540   -2.7700    1.5226 O   0  0  0  0  0  0  0  0  0  0  0  0
   -1.5320   -0.8490    0.6496 N   0  0  0  0  0  0  0  0  0  0  0  0
   -2.3500   -0.3360    0.3566 H   0  0  0  0  0  0  0  0  0  0  0  0
   -0.2470   -0.1410    0.5576 C   0  0  1  0  0  0  0  0  0  0  0  0
    0.1334   -0.0166    1.5720 H   0  0  0  0  0  0  0  0  0  0  0  0
    0.7794   -0.9906   -0.2341 C   0  0  1  0  0  0  0  0  0  0  0  0
    0.3180   -1.2432   -1.1908 H   0  0  0  0  0  0  0  0  0  0  0  0
    2.0792   -0.2182   -0.5300 C   0  0  0  0  0  0  0  0  0  0  0  0
    2.6192   -0.0070    0.3947 H   0  0  0  0  0  0  0  0  0  0  0  0
    2.7208   -0.7971   -1.1923 H   0  0  0  0  0  0  0  0  0  0  0  0
    1.8517    0.7251   -1.0277 H   0  0  0  0  0  0  0  0  0  0  0  0
    1.0805   -2.3185    0.4965 C   0  0  0  0  0  0  0  0  0  0  0  0
    1.6354   -2.1206    1.4145 H   0  0  0  0  0  0  0  0  0  0  0  0
    0.1366   -2.7938    0.7631 H   0  0  0  0  0  0  0  0  0  0  0  0
    1.8755   -3.3222   -0.3496 C   0  0  0  0  0  0  0  0  0  0  0  0
    2.8751   -2.9405   -0.5566 H   0  0  0  0  0  0  0  0  0  0  0  0
    1.9691   -4.2598    0.1986 H   0  0  0  0  0  0  0  0  0  0  0  0
    1.3559   -3.5117   -1.2895 H   0  0  0  0  0  0  0  0  0  0  0  0
   -0.4551    1.2628   -0.0329 C   0  0  0  0  0  0  0  0  0  0  0  0
    0.2967    2.1853    0.2788 O   0  0  0  0  0  0  0  0  0  0  0  0
   -1.4680    1.4251   -0.8936 N   0  0  0  0  0  0  0  0  0  0  0  0
   -2.0351    0.6206   -1.1100 H   0  0  0  0  0  0  0  0  0  0  0  0
   -1.8008    2.6950   -1.5363 C   0  0  0  0  0  0  0  0  0  0  0  0
   -0.9132    3.1055   -2.0228 H   0  0  0  0  0  0  0  0  0  0  0  0
   -2.5833    2.5483   -2.2822 H   0  0  0  0  0  0  0  0  0  0  0  0
   -2.1449    3.4080   -0.7846 H   0  0  0  0  0  0  0  0  0  0  0  0
  5  6  2  0  0  0  0
  5  7  1  0  0  0  0
  2  3  1  0  0  0  0
  2  4  1  0  0  0  0
  2  5  1  0  0  0  0
  1  2  1  0  0  0  0
 24 25  2  0  0  0  0
 24 26  1  0  0  0  0
 20 21  1  0  0  0  0
 20 22  1  0  0  0  0
 20 23  1  0  0  0  0
 17 18  1  0  0  0  0
 17 19  1  0  0  0  0
 17 20  1  0  0  0  0
 13 14  1  0  0  0  0
 13 15  1  0  0  0  0
 13 16  1  0  0  0  0
 11 12  1  0  0  0  0
 11 13  1  0  0  0  0
 11 17  1  0  0  0  0
  9 10  1  0  0  0  0
  9 11  1  0  0  0  0
  9 24  1  0  0  0  0
  7  8  1  0  0  0  0
  7  9  1  0  0  0  0
 28 29  1  0  0  0  0
 28 30  1  0  0  0  0
 28 31  1  0  0  0  0
 26 27  1  0  0  0  0
 26 28  1  0  0  0  0
M  END
$$$$
default_name
  -OEChem-01062215323D

 31 30  0     1  0  0  0  0  0999 V2000
   -3.0760   -3.6390    1.5496 H   0  0  0  0  0  0  0  0  0  0  0  0
   -3.0940   -2.6290    1.1426 C   0  0  0  0  0  0  0  0  0  0  0  0
   -3.7160   -1.9930    1.7706 H   0  0  0  0  0  0  0  0  0  0  0  0
   -3.4880   -2.6500    0.1286 H   0  0  0  0  0  0  0  0  0  0  0  0
   -1.6860   -2.0850    1.1196 C   0  0  0  0  0  0  0  0  0  0  0  0
   -0.7540   -2.7700    1.5226 O   0  0  0  0  0  0  0  0  0  0  0  0
   -1.5320   -0.8490    0.6496 N   0  0  0  0  0  0  0  0  0  0  0  0
   -2.3500   -0.3360    0.3566 H   0  0  0  0  0  0  0  0  0  0  0  0
   -0.2470   -0.1410    0.5576 C   0  0  1  0  0  0  0  0  0  0  0  0
    0.1334   -0.0166    1.5720 H   0  0  0  0  0  0  0  0  0  0  0  0
    0.7794   -0.9906   -0.2341 C   0  0  1  0  0  0  0  0  0  0  0  0
    0.3180   -1.2432   -1.1908 H   0  0  0  0  0  0  0  0  0  0  0  0
    2.0792   -0.2182   -0.5300 C   0  0  0  0  0  0  0  0  0  0  0  0
    2.6192   -0.0070    0.3947 H   0  0  0  0  0  0  0  0  0  0  0  0
    2.7208   -0.7971   -1.1923 H   0  0  0  0  0  0  0  0  0  0  0  0
    1.8517    0.7251   -1.0277 H   0  0  0  0  0  0  0  0  0  0  0  0
    1.0805   -2.3185    0.4965 C   0  0  0  0  0  0  0  0  0  0  0  0
    1.6354   -2.1206    1.4145 H   0  0  0  0  0  0  0  0  0  0  0  0
    0.1366   -2.7938    0.7631 H   0  0  0  0  0  0  0  0  0  0  0  0
    1.8755   -3.3222   -0.3496 C   0  0  0  0  0  0  0  0  0  0  0  0
    2.8751   -2.9405   -0.5566 H   0  0  0  0  0  0  0  0  0  0  0  0
    1.9691   -4.2598    0.1986 H   0  0  0  0  0  0  0  0  0  0  0  0
    1.3559   -3.5117   -1.2895 H   0  0  0  0  0  0  0  0  0  0  0  0
   -0.4551    1.2628   -0.0329 C   0  0  0  0  0  0  0  0  0  0  0  0
    0.4336    2.1094    0.0500 O   0  0  0  0  0  0  0  0  0  0  0  0
   -1.6236    1.5093   -0.6386 N   0  0  0  0  0  0  0  0  0  0  0  0
   -2.2999    0.7632   -0.6779 H   0  0  0  0  0  0  0  0  0  0  0  0
   -1.9774    2.7917   -1.2442 C   0  0  0  0  0  0  0  0  0  0  0  0
   -1.1963    3.0967   -1.9441 H   0  0  0  0  0  0  0  0  0  0  0  0
   -2.9254    2.7097   -1.7780 H   0  0  0  0  0  0  0  0  0  0  0  0
   -2.0631    3.5536   -0.4671 H   0  0  0  0  0  0  0  0  0  0  0  0
  5  6  2  0  0  0  0
  5  7  1  0  0  0  0
  2  3  1  0  0  0  0
  2  4  1  0  0  0  0
  2  5  1  0  0  0  0
  1  2  1  0  0  0  0
 24 25  2  0  0  0  0
 24 26  1  0  0  0  0
 20 21  1  0  0  0  0
 20 22  1  0  0  0  0
 20 23  1  0  0  0  0
 17 18  1  0  0  0  0
 17 19  1  0  0  0  0
 17 20  1  0  0  0  0
 13 14  1  0  0  0  0
 13 15  1  0  0  0  0
 13 16  1  0  0  0  0
 11 12  1  0  0  0  0
 11 13  1  0  0  0  0
 11 17  1  0  0  0  0
  9 10  1  0  0  0  0
  9 11  1  0  0  0  0
  9 24  1  0  0  0  0
  7  8  1  0  0  0  0
  7  9  1  0  0  0  0
 28 29  1  0  0  0  0
 28 30  1  0  0  0  0
 28 31  1  0  0  0  0
 26 27  1  0  0  0  0
 26 28  1  0  0  0  0
M  END
$$$$
default_name
  -OEChem-01062215323D

 31 30  0     1  0  0  0  0  0999 V2000
   -3.0760   -3.6390    1.5496 H   0  0  0  0  0  0  0  0  0  0  0  0
   -3.0940   -2.6290    1.1426 C   0  0  0  0  0  0  0  0  0  0  0  0
   -3.7160   -1.9930    1.7706 H   0  0  0  0  0  0  0  0  0  0  0  0
   -3.4880   -2.6500    0.1286 H   0  0  0  0  0  0  0  0  0  0  0  0
   -1.6860   -2.0850    1.1196 C   0  0  0  0  0  0  0  0  0  0  0  0
   -0.7540   -2.7700    1.5226 O   0  0  0  0  0  0  0  0  0  0  0  0
   -1.5320   -0.8490    0.6496 N   0  0  0  0  0  0  0  0  0  0  0  0
   -2.3500   -0.3360    0.3566 H   0  0  0  0  0  0  0  0  0  0  0  0
   -0.2470   -0.1410    0.5576 C   0  0  1  0  0  0  0  0  0  0  0  0
    0.1334   -0.0166    1.5720 H   0  0  0  0  0  0  0  0  0  0  0  0
    0.7794   -0.9906   -0.2341 C   0  0  1  0  0  0  0  0  0  0  0  0
    0.3180   -1.2432   -1.1908 H   0  0  0  0  0  0  0  0  0  0  0  0
    2.0792   -0.2182   -0.5300 C   0  0  0  0  0  0  0  0  0  0  0  0
    2.6192   -0.0070    0.3947 H   0  0  0  0  0  0  0  0  0  0  0  0
    2.7208   -0.7971   -1.1923 H   0  0  0  0  0  0  0  0  0  0  0  0
    1.8517    0.7251   -1.0277 H   0  0  0  0  0  0  0  0  0  0  0  0
    1.0805   -2.3185    0.4965 C   0  0  0  0  0  0  0  0  0  0  0  0
    1.6354   -2.1206    1.4145 H   0  0  0  0  0  0  0  0  0  0  0  0
    0.1366   -2.7938    0.7631 H   0  0  0  0  0  0  0  0  0  0  0  0
    1.8755   -3.3222   -0.3496 C   0  0  0  0  0  0  0  0  0  0  0  0
    2.8751   -2.9405   -0.5566 H   0  0  0  0  0  0  0  0  0  0  0  0
    1.9691   -4.2598    0.1986 H   0  0  0  0  0  0  0  0  0  0  0  0
    1.3559   -3.5117   -1.2895 H   0  0  0  0  0  0  0  0  0  0  0  0
   -0.4551    1.2628   -0.0329 C   0  0  0  0  0  0  0  0  0  0  0  0
    0.5042    2.0144   -0.2006 O   0  0  0  0  0  0  0  0  0  0  0  0
   -1.7053    1.6151   -0.3585 N   0  0  0  0  0  0  0  0  0  0  0  0
   -2.4394    0.9423   -0.2029 H   0  0  0  0  0  0  0  0  0  0  0  0
   -2.0694    2.9129   -0.9237 C   0  0  0  0  0  0  0  0  0  0  0  0
   -1.4521    3.1190   -1.8009 H   0  0  0  0  0  0  0  0  0  0  0  0
   -3.1206    2.9173   -1.2158 H   0  0  0  0  0  0  0  0  0  0  0  0
   -1.8946    3.6973   -0.1849 H   0  0  0  0  0  0  0  0  0  0  0  0
  5  6  2  0  0  0  0
  5  7  1  0  0  0  0
  2  3  1  0  0  0  0
  2  4  1  0  0  0  0
  2  5  1  0  0  0  0
  1  2  1  0  0  0  0
 24 25  2  0  0  0  0
 24 26  1  0  0  0  0
 20 21  1  0  0  0  0
 20 22  1  0  0  0  0
 20 23  1  0  0  0  0
 17 18  1  0  0  0  0
 17 19  1  0  0  0  0
 17 20  1  0  0  0  0
 13 14  1  0  0  0  0
 13 15  1  0  0  0  0
 13 16  1  0  0  0  0
 11 12  1  0  0  0  0
 11 13  1  0  0  0  0
 11 17  1  0  0  0  0
  9 10  1  0  0  0  0
  9 11  1  0  0  0  0
  9 24  1  0  0  0  0
  7  8  1  0  0  0  0
  7  9  1  0  0  0  0
 28 29  1  0  0  0  0
 28 30  1  0  0  0  0
 28 31  1  0  0  0  0
 26 27  1  0  0  0  0
 26 28  1  0  0  0  0
M  END
$$$$
default_name
  -OEChem-01062215323D

 31 30  0     1  0  0  0  0  0999 V2000
   -3.0760   -3.6390    1.5496 H   0  0  0  0  0  0  0  0  0  0  0  0
   -3.0940   -2.6290    1.1426 C   0  0  0  0  0  0  0  0  0  0  0  0
   -3.7160   -1.9930    1.7706 H   0  0  0  0  0  0  0  0  0  0  0  0
   -3.4880   -2.6500    0.1286 H   0  0  0  0  0  0  0  0  0  0  0  0
   -1.6860   -2.0850    1.1196 C   0  0  0  0  0  0  0  0  0  0  0  0
   -0.7540   -2.7700    1.5226 O   0  0  0  0  0  0  0  0  0  0  0  0
   -1.5320   -0.8490    0.6496 N   0  0  0  0  0  0  0  0  0  0  0  0
   -2.3500   -0.3360    0.3566 H   0  0  0  0  0  0  0  0  0  0  0  0
   -0.2470   -0.1410    0.5576 C   0  0  1  0  0  0  0  0  0  0  0  0
    0.1334   -0.0166    1.5720 H   0  0  0  0  0  0  0  0  0  0  0  0
    0.7794   -0.9906   -0.2341 C   0  0  1  0  0  0  0  0  0  0  0  0
    0.3180   -1.2432   -1.1908 H   0  0  0  0  0  0  0  0  0  0  0  0
    2.0792   -0.2182   -0.5300 C   0  0  0  0  0  0  0  0  0  0  0  0
    2.6192   -0.0070    0.3947 H   0  0  0  0  0  0  0  0  0  0  0  0
    2.7208   -0.7971   -1.1923 H   0  0  0  0  0  0  0  0  0  0  0  0
    1.8517    0.7251   -1.0277 H   0  0  0  0  0  0  0  0  0  0  0  0
    1.0805   -2.3185    0.4965 C   0  0  0  0  0  0  0  0  0  0  0  0
    1.6354   -2.1206    1.4145 H   0  0  0  0  0  0  0  0  0  0  0  0
    0.1366   -2.7938    0.7631 H   0  0  0  0  0  0  0  0  0  0  0  0
    1.8755   -3.3222   -0.3496 C   0  0  0  0  0  0  0  0  0  0  0  0
    2.8751   -2.9405   -0.5566 H   0  0  0  0  0  0  0  0  0  0  0  0
    1.9691   -4.2598    0.1986 H   0  0  0  0  0  0  0  0  0  0  0  0
    1.3559   -3.5117   -1.2895 H   0  0  0  0  0  0  0  0  0  0  0  0
   -0.4551    1.2628   -0.0329 C   0  0  0  0  0  0  0  0  0  0  0  0
    0.5038    1.9068   -0.4562 O   0  0  0  0  0  0  0  0  0  0  0  0
   -1.7075    1.7352   -0.0723 N   0  0  0  0  0  0  0  0  0  0  0  0
   -2.4440    1.1459    0.2826 H   0  0  0  0  0  0  0  0  0  0  0  0
   -2.0705    3.0503   -0.5967 C   0  0  0  0  0  0  0  0  0  0  0  0
   -1.6630    3.1711   -1.6029 H   0  0  0  0  0  0  0  0  0  0  0  0
   -3.1556    3.1569   -0.6339 H   0  0  0  0  0  0  0  0  0  0  0  0
   -1.6509    3.8292    0.0428 H   0  0  0  0  0  0  0  0  0  0  0  0
  5  6  2  0  0  0  0
  5  7  1  0  0  0  0
  2  3  1  0  0  0  0
  2  4  1  0  0  0  0
  2  5  1  0  0  0  0
  1  2  1  0  0  0  0
 24 25  2  0  0  0  0
 24 26  1  0  0  0  0
 20 21  1  0  0  0  0
 20 22  1  0  0  0  0
 20 23  1  0  0  0  0
 17 18  1  0  0  0  0
 17 19  1  0  0  0  0
 17 20  1  0  0  0  0
 13 14  1  0  0  0  0
 13 15  1  0  0  0  0
 13 16  1  0  0  0  0
 11 12  1  0  0  0  0
 11 13  1  0  0  0  0
 11 17  1  0  0  0  0
  9 10  1  0  0  0  0
  9 11  1  0  0  0  0
  9 24  1  0  0  0  0
  7  8  1  0  0  0  0
  7  9  1  0  0  0  0
 28 29  1  0  0  0  0
 28 30  1  0  0  0  0
 28 31  1  0  0  0  0
 26 27  1  0  0  0  0
 26 28  1  0  0  0  0
M  END
$$$$
default_name
  -OEChem-01062215323D

 31 30  0     1  0  0  0  0  0999 V2000
   -3.0760   -3.6390    1.5496 H   0  0  0  0  0  0  0  0  0  0  0  0
   -3.0940   -2.6290    1.1426 C   0  0  0  0  0  0  0  0  0  0  0  0
   -3.7160   -1.9930    1.7706 H   0  0  0  0  0  0  0  0  0  0  0  0
   -3.4880   -2.6500    0.1286 H   0  0  0  0  0  0  0  0  0  0  0  0
   -1.6860   -2.0850    1.1196 C   0  0  0  0  0  0  0  0  0  0  0  0
   -0.7540   -2.7700    1.5226 O   0  0  0  0  0  0  0  0  0  0  0  0
   -1.5320   -0.8490    0.6496 N   0  0  0  0  0  0  0  0  0  0  0  0
   -2.3500   -0.3360    0.3566 H   0  0  0  0  0  0  0  0  0  0  0  0
   -0.2470   -0.1410    0.5576 C   0  0  1  0  0  0  0  0  0  0  0  0
    0.1334   -0.0166    1.5720 H   0  0  0  0  0  0  0  0  0  0  0  0
    0.7794   -0.9906   -0.2341 C   0  0  1  0  0  0  0  0  0  0  0  0
    0.3180   -1.2432   -1.1908 H   0  0  0  0  0  0  0  0  0  0  0  0
    2.0792   -0.2182   -0.5300 C   0  0  0  0  0  0  0  0  0  0  0  0
    2.6192   -0.0070    0.3947 H   0  0  0  0  0  0  0  0  0  0  0  0
    2.7208   -0.7971   -1.1923 H   0  0  0  0  0  0  0  0  0  0  0  0
    1.8517    0.7251   -1.0277 H   0  0  0  0  0  0  0  0  0  0  0  0
    1.0805   -2.3185    0.4965 C   0  0  0  0  0  0  0  0  0  0  0  0
    1.6354   -2.1206    1.4145 H   0  0  0  0  0  0  0  0  0  0  0  0
    0.1366   -2.7938    0.7631 H   0  0  0  0  0  0  0  0  0  0  0  0
    1.8755   -3.3222   -0.3496 C   0  0  0  0  0  0  0  0  0  0  0  0
    2.8751   -2.9405   -0.5566 H   0  0  0  0  0  0  0  0  0  0  0  0
    1.9691   -4.2598    0.1986 H   0  0  0  0  0  0  0  0  0  0  0  0
    1.3559   -3.5117   -1.2895 H   0  0  0  0  0  0  0  0  0  0  0  0
   -0.4551    1.2628   -0.0329 C   0  0  0  0  0  0  0  0  0  0  0  0
    0.4322    1.7941   -0.6991 O   0  0  0  0  0  0  0  0  0  0  0  0
   -1.6300    1.8614    0.2005 N   0  0  0  0  0  0  0  0  0  0  0  0
   -2.3135    1.3599    0.7455 H   0  0  0  0  0  0  0  0  0  0  0  0
   -1.9805    3.1946   -0.2853 C   0  0  0  0  0  0  0  0  0  0  0  0
   -1.8148    3.2492   -1.3636 H   0  0  0  0  0  0  0  0  0  0  0  0
   -3.0280    3.4122   -0.0719 H   0  0  0  0  0  0  0  0  0  0  0  0
   -1.3485    3.9404    0.2006 H   0  0  0  0  0  0  0  0  0  0  0  0
  5  6  2  0  0  0  0
  5  7  1  0  0  0  0
  2  3  1  0  0  0  0
  2  4  1  0  0  0  0
  2  5  1  0  0  0  0
  1  2  1  0  0  0  0
 24 25  2  0  0  0  0
 24 26  1  0  0  0  0
 20 21  1  0  0  0  0
 20 22  1  0  0  0  0
 20 23  1  0  0  0  0
 17 18  1  0  0  0  0
 17 19  1  0  0  0  0
 17 20  1  0  0  0  0
 13 14  1  0  0  0  0
 13 15  1  0  0  0  0
 13 16  1  0  0  0  0
 11 12  1  0  0  0  0
 11 13  1  0  0  0  0
 11 17  1  0  0  0  0
  9 10  1  0  0  0  0
  9 11  1  0  0  0  0
  9 24  1  0  0  0  0
  7  8  1  0  0  0  0
  7  9  1  0  0  0  0
 28 29  1  0  0  0  0
 28 30  1  0  0  0  0
 28 31  1  0  0  0  0
 26 27  1  0  0  0  0
 26 28  1  0  0  0  0
M  END
$$$$
default_name
  -OEChem-01062215323D

 31 30  0     1  0  0  0  0  0999 V2000
   -3.0760   -3.6390    1.5496 H   0  0  0  0  0  0  0  0  0  0  0  0
   -3.0940   -2.6290    1.1426 C   0  0  0  0  0  0  0  0  0  0  0  0
   -3.7160   -1.9930    1.7706 H   0  0  0  0  0  0  0  0  0  0  0  0
   -3.4880   -2.6500    0.1286 H   0  0  0  0  0  0  0  0  0  0  0  0
   -1.6860   -2.0850    1.1196 C   0  0  0  0  0  0  0  0  0  0  0  0
   -0.7540   -2.7700    1.5226 O   0  0  0  0  0  0  0  0  0  0  0  0
   -1.5320   -0.8490    0.6496 N   0  0  0  0  0  0  0  0  0  0  0  0
   -2.3500   -0.3360    0.3566 H   0  0  0  0  0  0  0  0  0  0  0  0
   -0.2470   -0.1410    0.5576 C   0  0  1  0  0  0  0  0  0  0  0  0
    0.1334   -0.0166    1.5720 H   0  0  0  0  0  0  0  0  0  0  0  0
    0.7794   -0.9906   -0.2341 C   0  0  1  0  0  0  0  0  0  0  0  0
    0.3180   -1.2432   -1.1908 H   0  0  0  0  0  0  0  0  0  0  0  0
    2.0792   -0.2182   -0.5300 C   0  0  0  0  0  0  0  0  0  0  0  0
    2.6192   -0.0070    0.3947 H   0  0  0  0  0  0  0  0  0  0  0  0
    2.7208   -0.7971   -1.1923 H   0  0  0  0  0  0  0  0  0  0  0  0
    1.8517    0.7251   -1.0277 H   0  0  0  0  0  0  0  0  0  0  0  0
    1.0805   -2.3185    0.4965 C   0  0  0  0  0  0  0  0  0  0  0  0
    1.6354   -2.1206    1.4145 H   0  0  0  0  0  0  0  0  0  0  0  0
    0.1366   -2.7938    0.7631 H   0  0  0  0  0  0  0  0  0  0  0  0
    1.8755   -3.3222   -0.3496 C   0  0  0  0  0  0  0  0  0  0  0  0
    2.8751   -2.9405   -0.5566 H   0  0  0  0  0  0  0  0  0  0  0  0
    1.9691   -4.2598    0.1986 H   0  0  0  0  0  0  0  0  0  0  0  0
    1.3559   -3.5117   -1.2895 H   0  0  0  0  0  0  0  0  0  0  0  0
   -0.4551    1.2628   -0.0329 C   0  0  0  0  0  0  0  0  0  0  0  0
    0.2945    1.6837   -0.9129 O   0  0  0  0  0  0  0  0  0  0  0  0
   -1.4781    1.9852    0.4412 N   0  0  0  0  0  0  0  0  0  0  0  0
   -2.0567    1.5700    1.1543 H   0  0  0  0  0  0  0  0  0  0  0  0
   -1.8056    3.3359   -0.0109 C   0  0  0  0  0  0  0  0  0  0  0  0
   -1.8971    3.3482   -1.0993 H   0  0  0  0  0  0  0  0  0  0  0  0
   -2.7466    3.6658    0.4319 H   0  0  0  0  0  0  0  0  0  0  0  0
   -1.0080    4.0233    0.2775 H   0  0  0  0  0  0  0  0  0  0  0  0
  5  6  2  0  0  0  0
  5  7  1  0  0  0  0
  2  3  1  0  0  0  0
  2  4  1  0  0  0  0
  2  5  1  0  0  0  0
  1  2  1  0  0  0  0
 24 25  2  0  0  0  0
 24 26  1  0  0  0  0
 20 21  1  0  0  0  0
 20 22  1  0  0  0  0
 20 23  1  0  0  0  0
 17 18  1  0  0  0  0
 17 19  1  0  0  0  0
 17 20  1  0  0  0  0
 13 14  1  0  0  0  0
 13 15  1  0  0  0  0
 13 16  1  0  0  0  0
 11 12  1  0  0  0  0
 11 13  1  0  0  0  0
 11 17  1  0  0  0  0
  9 10  1  0  0  0  0
  9 11  1  0  0  0  0
  9 24  1  0  0  0  0
  7  8  1  0  0  0  0
  7  9  1  0  0  0  0
 28 29  1  0  0  0  0
 28 30  1  0  0  0  0
 28 31  1  0  0  0  0
 26 27  1  0  0  0  0
 26 28  1  0  0  0  0
M  END
$$$$
default_name
  -OEChem-01062215323D

 31 30  0     1  0  0  0  0  0999 V2000
   -3.0760   -3.6390    1.5496 H   0  0  0  0  0  0  0  0  0  0  0  0
   -3.0940   -2.6290    1.1426 C   0  0  0  0  0  0  0  0  0  0  0  0
   -3.7160   -1.9930    1.7706 H   0  0  0  0  0  0  0  0  0  0  0  0
   -3.4880   -2.6500    0.1286 H   0  0  0  0  0  0  0  0  0  0  0  0
   -1.6860   -2.0850    1.1196 C   0  0  0  0  0  0  0  0  0  0  0  0
   -0.7540   -2.7700    1.5226 O   0  0  0  0  0  0  0  0  0  0  0  0
   -1.5320   -0.8490    0.6496 N   0  0  0  0  0  0  0  0  0  0  0  0
   -2.3500   -0.3360    0.3566 H   0  0  0  0  0  0  0  0  0  0  0  0
   -0.2470   -0.1410    0.5576 C   0  0  1  0  0  0  0  0  0  0  0  0
    0.1334   -0.0166    1.5720 H   0  0  0  0  0  0  0  0  0  0  0  0
    0.7794   -0.9906   -0.2341 C   0  0  1  0  0  0  0  0  0  0  0  0
    0.3180   -1.2432   -1.1908 H   0  0  0  0  0  0  0  0  0  0  0  0
    2.0792   -0.2182   -0.5300 C   0  0  0  0  0  0  0  0  0  0  0  0
    2.6192   -0.0070    0.3947 H   0  0  0  0  0  0  0  0  0  0  0  0
    2.7208   -0.7971   -1.1923 H   0  0  0  0  0  0  0  0  0  0  0  0
    1.8517    0.7251   -1.0277 H   0  0  0  0  0  0  0  0  0  0  0  0
    1.0805   -2.3185    0.4965 C   0  0  0  0  0  0  0  0  0  0  0  0
    1.6354   -2.1206    1.4145 H   0  0  0  0  0  0  0  0  0  0  0  0
    0.1366   -2.7938    0.7631 H   0  0  0  0  0  0  0  0  0  0  0  0
    1.8755   -3.3222   -0.3496 C   0  0  0  0  0  0  0  0  0  0  0  0
    2.8751   -2.9405   -0.5566 H   0  0  0  0  0  0  0  0  0  0  0  0
    1.9691   -4.2598    0.1986 H   0  0  0  0  0  0  0  0  0  0  0  0
    1.3559   -3.5117   -1.2895 H   0  0  0  0  0  0  0  0  0  0  0  0
   -0.4551    1.2628   -0.0329 C   0  0  0  0  0  0  0  0  0  0  0  0
    0.0999    1.5833   -1.0829 O   0  0  0  0  0  0  0  0  0  0  0  0
   -1.2622    2.0980    0.6335 N   0  0  0  0  0  0  0  0  0  0  0  0
   -1.6911    1.7616    1.4812 H   0  0  0  0  0  0  0  0  0  0  0  0
   -1.5578    3.4647    0.2079 C   0  0  0  0  0  0  0  0  0  0  0  0
   -1.9042    3.4613   -0.8280 H   0  0  0  0  0  0  0  0  0  0  0  0
   -2.3304    3.9005    0.8430 H   0  0  0  0  0  0  0  0  0  0  0  0
   -0.6528    4.0721    0.2685 H   0  0  0  0  0  0  0  0  0  0  0  0
  5  6  2  0  0  0  0
  5  7  1  0  0  0  0
  2  3  1  0  0  0  0
  2  4  1  0  0  0  0
  2  5  1  0  0  0  0
  1  2  1  0  0  0  0
 24 25  2  0  0  0  0
 24 26  1  0  0  0  0
 20 21  1  0  0  0  0
 20 22  1  0  0  0  0
 20 23  1  0  0  0  0
 17 18  1  0  0  0  0
 17 19  1  0  0  0  0
 17 20  1  0  0  0  0
 13 14  1  0  0  0  0
 13 15  1  0  0  0  0
 13 16  1  0  0  0  0
 11 12  1  0  0  0  0
 11 13  1  0  0  0  0
 11 17  1  0  0  0  0
  9 10  1  0  0  0  0
  9 11  1  0  0  0  0
  9 24  1  0  0  0  0
  7  8  1  0  0  0  0
  7  9  1  0  0  0  0
 28 29  1  0  0  0  0
 28 30  1  0  0  0  0
 28 31  1  0  0  0  0
 26 27  1  0  0  0  0
 26 28  1  0  0  0  0
M  END
$$$$
default_name
  -OEChem-01062215323D

 31 30  0     1  0  0  0  0  0999 V2000
   -3.0760   -3.6390    1.5496 H   0  0  0  0  0  0  0  0  0  0  0  0
   -3.0940   -2.6290    1.1426 C   0  0  0  0  0  0  0  0  0  0  0  0
   -3.7160   -1.9930    1.7706 H   0  0  0  0  0  0  0  0  0  0  0  0
   -3.4880   -2.6500    0.1286 H   0  0  0  0  0  0  0  0  0  0  0  0
   -1.6860   -2.0850    1.1196 C   0  0  0  0  0  0  0  0  0  0  0  0
   -0.7540   -2.7700    1.5226 O   0  0  0  0  0  0  0  0  0  0  0  0
   -1.5320   -0.8490    0.6496 N   0  0  0  0  0  0  0  0  0  0  0  0
   -2.3500   -0.3360    0.3566 H   0  0  0  0  0  0  0  0  0  0  0  0
   -0.2470   -0.1410    0.5576 C   0  0  1  0  0  0  0  0  0  0  0  0
    0.1334   -0.0166    1.5720 H   0  0  0  0  0  0  0  0  0  0  0  0
    0.7794   -0.9906   -0.2341 C   0  0  1  0  0  0  0  0  0  0  0  0
    0.3180   -1.2432   -1.1908 H   0  0  0  0  0  0  0  0  0  0  0  0
    2.0792   -0.2182   -0.5300 C   0  0  0  0  0  0  0  0  0  0  0  0
    2.6192   -0.0070    0.3947 H   0  0  0  0  0  0  0  0  0  0  0  0
    2.7208   -0.7971   -1.1923 H   0  0  0  0  0  0  0  0  0  0  0  0
    1.8517    0.7251   -1.0277 H   0  0  0  0  0  0  0  0  0  0  0  0
    1.0805   -2.3185    0.4965 C   0  0  0  0  0  0  0  0  0  0  0  0
    1.6354   -2.1206    1.4145 H   0  0  0  0  0  0  0  0  0  0  0  0
    0.1366   -2.7938    0.7631 H   0  0  0  0  0  0  0  0  0  0  0  0
    1.8755   -3.3222   -0.3496 C   0  0  0  0  0  0  0  0  0  0  0  0
    2.8751   -2.9405   -0.5566 H   0  0  0  0  0  0  0  0  0  0  0  0
    1.9691   -4.2598    0.1986 H   0  0  0  0  0  0  0  0  0  0  0  0
    1.3559   -3.5117   -1.2895 H   0  0  0  0  0  0  0  0  0  0  0  0
   -0.4551    1.2628   -0.0329 C   0  0  0  0  0  0  0  0  0  0  0  0
   -0.1382    1.4998   -1.1977 O   0  0  0  0  0  0  0  0  0  0  0  0
   -0.9970    2.1924    0.7643 N   0  0  0  0  0  0  0  0  0  0  0  0
   -1.2417    1.9219    1.7037 H   0  0  0  0  0  0  0  0  0  0  0  0
   -1.2539    3.5721    0.3561 C   0  0  0  0  0  0  0  0  0  0  0  0
   -1.8357    3.5807   -0.5682 H   0  0  0  0  0  0  0  0  0  0  0  0
   -1.8079    4.1001    1.1336 H   0  0  0  0  0  0  0  0  0  0  0  0
   -0.3069    4.0837    0.1741 H   0  0  0  0  0  0  0  0  0  0  0  0
  5  6  2  0  0  0  0
  5  7  1  0  0  0  0
  2  3  1  0  0  0  0
  2  4  1  0  0  0  0
  2  5  1  0  0  0  0
  1  2  1  0  0  0  0
 24 25  2  0  0  0  0
 24 26  1  0  0  0  0
 20 21  1  0  0  0  0
 20 22  1  0  0  0  0
 20 23  1  0  0  0  0
 17 18  1  0  0  0  0
 17 19  1  0  0  0  0
 17 20  1  0  0  0  0
 13 14  1  0  0  0  0
 13 15  1  0  0  0  0
 13 16  1  0  0  0  0
 11 12  1  0  0  0  0
 11 13  1  0  0  0  0
 11 17  1  0  0  0  0
  9 10  1  0  0  0  0
  9 11  1  0  0  0  0
  9 24  1  0  0  0  0
  7  8  1  0  0  0  0
  7  9  1  0  0  0  0
 28 29  1  0  0  0  0
 28 30  1  0  0  0  0
 28 31  1  0  0  0  0
 26 27  1  0  0  0  0
 26 28  1  0  0  0  0
M  END
$$$$
default_name
  -OEChem-01062215323D

 31 30  0     1  0  0  0  0  0999 V2000
   -3.0760   -3.6390    1.5496 H   0  0  0  0  0  0  0  0  0  0  0  0
   -3.0940   -2.6290    1.1426 C   0  0  0  0  0  0  0  0  0  0  0  0
   -3.7160   -1.9930    1.7706 H   0  0  0  0  0  0  0  0  0  0  0  0
   -3.4880   -2.6500    0.1286 H   0  0  0  0  0  0  0  0  0  0  0  0
   -1.6860   -2.0850    1.1196 C   0  0  0  0  0  0  0  0  0  0  0  0
   -0.7540   -2.7700    1.5226 O   0  0  0  0  0  0  0  0  0  0  0  0
   -1.5320   -0.8490    0.6496 N   0  0  0  0  0  0  0  0  0  0  0  0
   -2.3500   -0.3360    0.3566 H   0  0  0  0  0  0  0  0  0  0  0  0
   -0.2470   -0.1410    0.5576 C   0  0  1  0  0  0  0  0  0  0  0  0
    0.1334   -0.0166    1.5720 H   0  0  0  0  0  0  0  0  0  0  0  0
    0.7794   -0.9906   -0.2341 C   0  0  1  0  0  0  0  0  0  0  0  0
    0.3180   -1.2432   -1.1908 H   0  0  0  0  0  0  0  0  0  0  0  0
    2.0792   -0.2182   -0.5300 C   0  0  0  0  0  0  0  0  0  0  0  0
    2.6192   -0.0070    0.3947 H   0  0  0  0  0  0  0  0  0  0  0  0
    2.7208   -0.7971   -1.1923 H   0  0  0  0  0  0  0  0  0  0  0  0
    1.8517    0.7251   -1.0277 H   0  0  0  0  0  0  0  0  0  0  0  0
    1.0805   -2.3185    0.4965 C   0  0  0  0  0  0  0  0  0  0  0  0
    1.6354   -2.1206    1.4145 H   0  0  0  0  0  0  0  0  0  0  0  0
    0.1366   -2.7938    0.7631 H   0  0  0  0  0  0  0  0  0  0  0  0
    1.8755   -3.3222   -0.3496 C   0  0  0  0  0  0  0  0  0  0  0  0
    2.8751   -2.9405   -0.5566 H   0  0  0  0  0  0  0  0  0  0  0  0
    1.9691   -4.2598    0.1986 H   0  0  0  0  0  0  0  0  0  0  0  0
    1.3559   -3.5117   -1.2895 H   0  0  0  0  0  0  0  0  0  0  0  0
   -0.4551    1.2628   -0.0329 C   0  0  0  0  0  0  0  0  0  0  0  0
   -0.4036    1.4387   -1.2494 O   0  0  0  0  0  0  0  0  0  0  0  0
   -0.7005    2.2617    0.8246 N   0  0  0  0  0  0  0  0  0  0  0  0
   -0.7391    2.0397    1.8068 H   0  0  0  0  0  0  0  0  0  0  0  0
   -0.9147    3.6508    0.4237 C   0  0  0  0  0  0  0  0  0  0  0  0
   -1.6963    3.6983   -0.3377 H   0  0  0  0  0  0  0  0  0  0  0  0
   -1.2147    4.2512    1.2838 H   0  0  0  0  0  0  0  0  0  0  0  0
    0.0061    4.0572    0.0008 H   0  0  0  0  0  0  0  0  0  0  0  0
  5  6  2  0  0  0  0
  5  7  1  0  0  0  0
  2  3  1  0  0  0  0
  2  4  1  0  0  0  0
  2  5  1  0  0  0  0
  1  2  1  0  0  0  0
 24 25  2  0  0  0  0
 24 26  1  0  0  0  0
 20 21  1  0  0  0  0
 20 22  1  0  0  0  0
 20 23  1  0  0  0  0
 17 18  1  0  0  0  0
 17 19  1  0  0  0  0
 17 20  1  0  0  0  0
 13 14  1  0  0  0  0
 13 15  1  0  0  0  0
 13 16  1  0  0  0  0
 11 12  1  0  0  0  0
 11 13  1  0  0  0  0
 11 17  1  0  0  0  0
  9 10  1  0  0  0  0
  9 11  1  0  0  0  0
  9 24  1  0  0  0  0
  7  8  1  0  0  0  0
  7  9  1  0  0  0  0
 28 29  1  0  0  0  0
 28 30  1  0  0  0  0
 28 31  1  0  0  0  0
 26 27  1  0  0  0  0
 26 28  1  0  0  0  0
M  END
$$$$
default_name
  -OEChem-01062215323D

 31 30  0     1  0  0  0  0  0999 V2000
   -3.0760   -3.6390    1.5496 H   0  0  0  0  0  0  0  0  0  0  0  0
   -3.0940   -2.6290    1.1426 C   0  0  0  0  0  0  0  0  0  0  0  0
   -3.7160   -1.9930    1.7706 H   0  0  0  0  0  0  0  0  0  0  0  0
   -3.4880   -2.6500    0.1286 H   0  0  0  0  0  0  0  0  0  0  0  0
   -1.6860   -2.0850    1.1196 C   0  0  0  0  0  0  0  0  0  0  0  0
   -0.7540   -2.7700    1.5226 O   0  0  0  0  0  0  0  0  0  0  0  0
   -1.5320   -0.8490    0.6496 N   0  0  0  0  0  0  0  0  0  0  0  0
   -2.3500   -0.3360    0.3566 H   0  0  0  0  0  0  0  0  0  0  0  0
   -0.2470   -0.1410    0.5576 C   0  0  1  0  0  0  0  0  0  0  0  0
    0.1334   -0.0166    1.5720 H   0  0  0  0  0  0  0  0  0  0  0  0
    0.7794   -0.9906   -0.2341 C   0  0  1  0  0  0  0  0  0  0  0  0
    0.3180   -1.2432   -1.1908 H   0  0  0  0  0  0  0  0  0  0  0  0
    2.0792   -0.2182   -0.5300 C   0  0  0  0  0  0  0  0  0  0  0  0
    2.6192   -0.0070    0.3947 H   0  0  0  0  0  0  0  0  0  0  0  0
    2.7208   -0.7971   -1.1923 H   0  0  0  0  0  0  0  0  0  0  0  0
    1.8517    0.7251   -1.0277 H   0  0  0  0  0  0  0  0  0  0  0  0
    1.0805   -2.3185    0.4965 C   0  0  0  0  0  0  0  0  0  0  0  0
    1.6354   -2.1206    1.4145 H   0  0  0  0  0  0  0  0  0  0  0  0
    0.1366   -2.7938    0.7631 H   0  0  0  0  0  0  0  0  0  0  0  0
    1.8755   -3.3222   -0.3496 C   0  0  0  0  0  0  0  0  0  0  0  0
    2.8751   -2.9405   -0.5566 H   0  0  0  0  0  0  0  0  0  0  0  0
    1.9691   -4.2598    0.1986 H   0  0  0  0  0  0  0  0  0  0  0  0
    1.3559   -3.5117   -1.2895 H   0  0  0  0  0  0  0  0  0  0  0  0
   -0.4551    1.2628   -0.0329 C   0  0  0  0  0  0  0  0  0  0  0  0
   -0.6783    1.4043   -1.2344 O   0  0  0  0  0  0  0  0  0  0  0  0
   -0.3930    2.3012    0.8103 N   0  0  0  0  0  0  0  0  0  0  0  0
   -0.2175    2.1072    1.7835 H   0  0  0  0  0  0  0  0  0  0  0  0
   -0.5632    3.6955    0.4060 C   0  0  0  0  0  0  0  0  0  0  0  0
   -1.4955    3.8062   -0.1521 H   0  0  0  0  0  0  0  0  0  0  0  0
   -0.5912    4.3434    1.2833 H   0  0  0  0  0  0  0  0  0  0  0  0
    0.2648    3.9943   -0.2397 H   0  0  0  0  0  0  0  0  0  0  0  0
  5  6  2  0  0  0  0
  5  7  1  0  0  0  0
  2  3  1  0  0  0  0
  2  4  1  0  0  0  0
  2  5  1  0  0  0  0
  1  2  1  0  0  0  0
 24 25  2  0  0  0  0
 24 26  1  0  0  0  0
 20 21  1  0  0  0  0
 20 22  1  0  0  0  0
 20 23  1  0  0  0  0
 17 18  1  0  0  0  0
 17 19  1  0  0  0  0
 17 20  1  0  0  0  0
 13 14  1  0  0  0  0
 13 15  1  0  0  0  0
 13 16  1  0  0  0  0
 11 12  1  0  0  0  0
 11 13  1  0  0  0  0
 11 17  1  0  0  0  0
  9 10  1  0  0  0  0
  9 11  1  0  0  0  0
  9 24  1  0  0  0  0
  7  8  1  0  0  0  0
  7  9  1  0  0  0  0
 28 29  1  0  0  0  0
 28 30  1  0  0  0  0
 28 31  1  0  0  0  0
 26 27  1  0  0  0  0
 26 28  1  0  0  0  0
M  END
$$$$
default_name
  -OEChem-01062215323D

 31 30  0     1  0  0  0  0  0999 V2000
   -3.0760   -3.6390    1.5496 H   0  0  0  0  0  0  0  0  0  0  0  0
   -3.0940   -2.6290    1.1426 C   0  0  0  0  0  0  0  0  0  0  0  0
   -3.7160   -1.9930    1.7706 H   0  0  0  0  0  0  0  0  0  0  0  0
   -3.4880   -2.6500    0.1286 H   0  0  0  0  0  0  0  0  0  0  0  0
   -1.6860   -2.0850    1.1196 C   0  0  0  0  0  0  0  0  0  0  0  0
   -0.7540   -2.7700    1.5226 O   0  0  0  0  0  0  0  0  0  0  0  0
   -1.5320   -0.8490    0.6496 N   0  0  0  0  0  0  0  0  0  0  0  0
   -2.3500   -0.3360    0.3566 H   0  0  0  0  0  0  0  0  0  0  0  0
   -0.2470   -0.1410    0.5576 C   0  0  1  0  0  0  0  0  0  0  0  0
    0.1334   -0.0166    1.5720 H   0  0  0  0  0  0  0  0  0  0  0  0
    0.7794   -0.9906   -0.2341 C   0  0  1  0  0  0  0  0  0  0  0  0
    0.3180   -1.2432   -1.1908 H   0  0  0  0  0  0  0  0  0  0  0  0
    2.0792   -0.2182   -0.5300 C   0  0  0  0  0  0  0  0  0  0  0  0
    2.6192   -0.0070    0.3947 H   0  0  0  0  0  0  0  0  0  0  0  0
    2.7208   -0.7971   -1.1923 H   0  0  0  0  0  0  0  0  0  0  0  0
    1.8517    0.7251   -1.0277 H   0  0  0  0  0  0  0  0  0  0  0  0
    1.0805   -2.3185    0.4965 C   0  0  0  0  0  0  0  0  0  0  0  0
    1.6354   -2.1206    1.4145 H   0  0  0  0  0  0  0  0  0  0  0  0
    0.1366   -2.7938    0.7631 H   0  0  0  0  0  0  0  0  0  0  0  0
    1.8755   -3.3222   -0.3496 C   0  0  0  0  0  0  0  0  0  0  0  0
    2.8751   -2.9405   -0.5566 H   0  0  0  0  0  0  0  0  0  0  0  0
    1.9691   -4.2598    0.1986 H   0  0  0  0  0  0  0  0  0  0  0  0
    1.3559   -3.5117   -1.2895 H   0  0  0  0  0  0  0  0  0  0  0  0
   -0.4551    1.2628   -0.0329 C   0  0  0  0  0  0  0  0  0  0  0  0
   -0.9435    1.3989   -1.1537 O   0  0  0  0  0  0  0  0  0  0  0  0
   -0.0954    2.3084    0.7224 N   0  0  0  0  0  0  0  0  0  0  0  0
    0.2876    2.1198    1.6353 H   0  0  0  0  0  0  0  0  0  0  0  0
   -0.2234    3.7031    0.3043 C   0  0  0  0  0  0  0  0  0  0  0  0
   -1.2469    3.8969   -0.0241 H   0  0  0  0  0  0  0  0  0  0  0  0
    0.0202    4.3705    1.1322 H   0  0  0  0  0  0  0  0  0  0  0  0
    0.4515    3.8995   -0.5309 H   0  0  0  0  0  0  0  0  0  0  0  0
  5  6  2  0  0  0  0
  5  7  1  0  0  0  0
  2  3  1  0  0  0  0
  2  4  1  0  0  0  0
  2  5  1  0  0  0  0
  1  2  1  0  0  0  0
 24 25  2  0  0  0  0
 24 26  1  0  0  0  0
 20 21  1  0  0  0  0
 20 22  1  0  0  0  0
 20 23  1  0  0  0  0
 17 18  1  0  0  0  0
 17 19  1  0  0  0  0
 17 20  1  0  0  0  0
 13 14  1  0  0  0  0
 13 15  1  0  0  0  0
 13 16  1  0  0  0  0
 11 12  1  0  0  0  0
 11 13  1  0  0  0  0
 11 17  1  0  0  0  0
  9 10  1  0  0  0  0
  9 11  1  0  0  0  0
  9 24  1  0  0  0  0
  7  8  1  0  0  0  0
  7  9  1  0  0  0  0
 28 29  1  0  0  0  0
 28 30  1  0  0  0  0
 28 31  1  0  0  0  0
 26 27  1  0  0  0  0
 26 28  1  0  0  0  0
M  END
$$$$
default_name
  -OEChem-01062215323D

 31 30  0     1  0  0  0  0  0999 V2000
   -3.0760   -3.6390    1.5496 H   0  0  0  0  0  0  0  0  0  0  0  0
   -3.0940   -2.6290    1.1426 C   0  0  0  0  0  0  0  0  0  0  0  0
   -3.7160   -1.9930    1.7706 H   0  0  0  0  0  0  0  0  0  0  0  0
   -3.4880   -2.6500    0.1286 H   0  0  0  0  0  0  0  0  0  0  0  0
   -1.6860   -2.0850    1.1196 C   0  0  0  0  0  0  0  0  0  0  0  0
   -0.7540   -2.7700    1.5226 O   0  0  0  0  0  0  0  0  0  0  0  0
   -1.5320   -0.8490    0.6496 N   0  0  0  0  0  0  0  0  0  0  0  0
   -2.3500   -0.3360    0.3566 H   0  0  0  0  0  0  0  0  0  0  0  0
   -0.2470   -0.1410    0.5576 C   0  0  1  0  0  0  0  0  0  0  0  0
    0.1334   -0.0166    1.5720 H   0  0  0  0  0  0  0  0  0  0  0  0
    0.7794   -0.9906   -0.2341 C   0  0  1  0  0  0  0  0  0  0  0  0
    0.3180   -1.2432   -1.1908 H   0  0  0  0  0  0  0  0  0  0  0  0
    2.0792   -0.2182   -0.5300 C   0  0  0  0  0  0  0  0  0  0  0  0
    2.6192   -0.0070    0.3947 H   0  0  0  0  0  0  0  0  0  0  0  0
    2.7208   -0.7971   -1.1923 H   0  0  0  0  0  0  0  0  0  0  0  0
    1.8517    0.7251   -1.0277 H   0  0  0  0  0  0  0  0  0  0  0  0
    1.0805   -2.3185    0.4965 C   0  0  0  0  0  0  0  0  0  0  0  0
    1.6354   -2.1206    1.4145 H   0  0  0  0  0  0  0  0  0  0  0  0
    0.1366   -2.7938    0.7631 H   0  0  0  0  0  0  0  0  0  0  0  0
    1.8755   -3.3222   -0.3496 C   0  0  0  0  0  0  0  0  0  0  0  0
    2.8751   -2.9405   -0.5566 H   0  0  0  0  0  0  0  0  0  0  0  0
    1.9691   -4.2598    0.1986 H   0  0  0  0  0  0  0  0  0  0  0  0
    1.3559   -3.5117   -1.2895 H   0  0  0  0  0  0  0  0  0  0  0  0
   -0.4551    1.2628   -0.0329 C   0  0  0  0  0  0  0  0  0  0  0  0
   -1.1811    1.4229   -1.0130 O   0  0  0  0  0  0  0  0  0  0  0  0
    0.1720    2.2826    0.5670 N   0  0  0  0  0  0  0  0  0  0  0  0
    0.7416    2.0764    1.3724 H   0  0  0  0  0  0  0  0  0  0  0  0
    0.0815    3.6730    0.1255 C   0  0  0  0  0  0  0  0  0  0  0  0
   -0.9675    3.9642    0.0376 H   0  0  0  0  0  0  0  0  0  0  0  0
    0.5776    4.3306    0.8409 H   0  0  0  0  0  0  0  0  0  0  0  0
    0.5537    3.7791   -0.8531 H   0  0  0  0  0  0  0  0  0  0  0  0
  5  6  2  0  0  0  0
  5  7  1  0  0  0  0
  2  3  1  0  0  0  0
  2  4  1  0  0  0  0
  2  5  1  0  0  0  0
  1  2  1  0  0  0  0
 24 25  2  0  0  0  0
 24 26  1  0  0  0  0
 20 21  1  0  0  0  0
 20 22  1  0  0  0  0
 20 23  1  0  0  0  0
 17 18  1  0  0  0  0
 17 19  1  0  0  0  0
 17 20  1  0  0  0  0
 13 14  1  0  0  0  0
 13 15  1  0  0  0  0
 13 16  1  0  0  0  0
 11 12  1  0  0  0  0
 11 13  1  0  0  0  0
 11 17  1  0  0  0  0
  9 10  1  0  0  0  0
  9 11  1  0  0  0  0
  9 24  1  0  0  0  0
  7  8  1  0  0  0  0
  7  9  1  0  0  0  0
 28 29  1  0  0  0  0
 28 30  1  0  0  0  0
 28 31  1  0  0  0  0
 26 27  1  0  0  0  0
 26 28  1  0  0  0  0
M  END
$$$$
default_name
  -OEChem-01062215323D

 31 30  0     1  0  0  0  0  0999 V2000
   -3.0760   -3.6390    1.5496 H   0  0  0  0  0  0  0  0  0  0  0  0
   -3.0940   -2.6290    1.1426 C   0  0  0  0  0  0  0  0  0  0  0  0
   -3.7160   -1.9930    1.7706 H   0  0  0  0  0  0  0  0  0  0  0  0
   -3.4880   -2.6500    0.1286 H   0  0  0  0  0  0  0  0  0  0  0  0
   -1.6860   -2.0850    1.1196 C   0  0  0  0  0  0  0  0  0  0  0  0
   -0.7540   -2.7700    1.5226 O   0  0  0  0  0  0  0  0  0  0  0  0
   -1.5320   -0.8490    0.6496 N   0  0  0  0  0  0  0  0  0  0  0  0
   -2.3500   -0.3360    0.3566 H   0  0  0  0  0  0  0  0  0  0  0  0
   -0.2470   -0.1410    0.5576 C   0  0  1  0  0  0  0  0  0  0  0  0
    0.1334   -0.0166    1.5720 H   0  0  0  0  0  0  0  0  0  0  0  0
    0.7794   -0.9906   -0.2341 C   0  0  1  0  0  0  0  0  0  0  0  0
    0.3180   -1.2432   -1.1908 H   0  0  0  0  0  0  0  0  0  0  0  0
    2.0792   -0.2182   -0.5300 C   0  0  0  0  0  0  0  0  0  0  0  0
    2.6192   -0.0070    0.3947 H   0  0  0  0  0  0  0  0  0  0  0  0
    2.7208   -0.7971   -1.1923 H   0  0  0  0  0  0  0  0  0  0  0  0
    1.8517    0.7251   -1.0277 H   0  0  0  0  0  0  0  0  0  0  0  0
    1.0805   -2.3185    0.4965 C   0  0  0  0  0  0  0  0  0  0  0  0
    1.6354   -2.1206    1.4145 H   0  0  0  0  0  0  0  0  0  0  0  0
    0.1366   -2.7938    0.7631 H   0  0  0  0  0  0  0  0  0  0  0  0
    1.8755   -3.3222   -0.3496 C   0  0  0  0  0  0  0  0  0  0  0  0
    2.8751   -2.9405   -0.5566 H   0  0  0  0  0  0  0  0  0  0  0  0
    1.9691   -4.2598    0.1986 H   0  0  0  0  0  0  0  0  0  0  0  0
    1.3559   -3.5117   -1.2895 H   0  0  0  0  0  0  0  0  0  0  0  0
   -0.4551    1.2628   -0.0329 C   0  0  0  0  0  0  0  0  0  0  0  0
   -1.3750    1.4746   -0.8217 O   0  0  0  0  0  0  0  0  0  0  0  0
    0.3910    2.2257    0.3545 N   0  0  0  0  0  0  0  0  0  0  0  0
    1.1137    1.9802    1.0126 H   0  0  0  0  0  0  0  0  0  0  0  0
    0.3308    3.6074   -0.1182 C   0  0  0  0  0  0  0  0  0  0  0  0
   -0.6763    4.0037    0.0289 H   0  0  0  0  0  0  0  0  0  0  0  0
    1.0433    4.2264    0.4290 H   0  0  0  0  0  0  0  0  0  0  0  0
    0.5642    3.6414   -1.1841 H   0  0  0  0  0  0  0  0  0  0  0  0
  5  6  2  0  0  0  0
  5  7  1  0  0  0  0
  2  3  1  0  0  0  0
  2  4  1  0  0  0  0
  2  5  1  0  0  0  0
  1  2  1  0  0  0  0
 24 25  2  0  0  0  0
 24 26  1  0  0  0  0
 20 21  1  0  0  0  0
 20 22  1  0  0  0  0
 20 23  1  0  0  0  0
 17 18  1  0  0  0  0
 17 19  1  0  0  0  0
 17 20  1  0  0  0  0
 13 14  1  0  0  0  0
 13 15  1  0  0  0  0
 13 16  1  0  0  0  0
 11 12  1  0  0  0  0
 11 13  1  0  0  0  0
 11 17  1  0  0  0  0
  9 10  1  0  0  0  0
  9 11  1  0  0  0  0
  9 24  1  0  0  0  0
  7  8  1  0  0  0  0
  7  9  1  0  0  0  0
 28 29  1  0  0  0  0
 28 30  1  0  0  0  0
 28 31  1  0  0  0  0
 26 27  1  0  0  0  0
 26 28  1  0  0  0  0
M  END
$$$$
default_name
  -OEChem-01062215323D

 31 30  0     1  0  0  0  0  0999 V2000
   -3.0760   -3.6390    1.5496 H   0  0  0  0  0  0  0  0  0  0  0  0
   -3.0940   -2.6290    1.1426 C   0  0  0  0  0  0  0  0  0  0  0  0
   -3.7160   -1.9930    1.7706 H   0  0  0  0  0  0  0  0  0  0  0  0
   -3.4880   -2.6500    0.1286 H   0  0  0  0  0  0  0  0  0  0  0  0
   -1.6860   -2.0850    1.1196 C   0  0  0  0  0  0  0  0  0  0  0  0
   -0.7540   -2.7700    1.5226 O   0  0  0  0  0  0  0  0  0  0  0  0
   -1.5320   -0.8490    0.6496 N   0  0  0  0  0  0  0  0  0  0  0  0
   -2.3500   -0.3360    0.3566 H   0  0  0  0  0  0  0  0  0  0  0  0
   -0.2470   -0.1410    0.5576 C   0  0  1  0  0  0  0  0  0  0  0  0
    0.1334   -0.0166    1.5720 H   0  0  0  0  0  0  0  0  0  0  0  0
    0.7794   -0.9906   -0.2341 C   0  0  1  0  0  0  0  0  0  0  0  0
    0.3180   -1.2432   -1.1908 H   0  0  0  0  0  0  0  0  0  0  0  0
    2.0792   -0.2182   -0.5300 C   0  0  0  0  0  0  0  0  0  0  0  0
    2.6192   -0.0070    0.3947 H   0  0  0  0  0  0  0  0  0  0  0  0
    2.7208   -0.7971   -1.1923 H   0  0  0  0  0  0  0  0  0  0  0  0
    1.8517    0.7251   -1.0277 H   0  0  0  0  0  0  0  0  0  0  0  0
    1.0805   -2.3185    0.4965 C   0  0  0  0  0  0  0  0  0  0  0  0
    1.6354   -2.1206    1.4145 H   0  0  0  0  0  0  0  0  0  0  0  0
    0.1366   -2.7938    0.7631 H   0  0  0  0  0  0  0  0  0  0  0  0
    1.8755   -3.3222   -0.3496 C   0  0  0  0  0  0  0  0  0  0  0  0
    2.8751   -2.9405   -0.5566 H   0  0  0  0  0  0  0  0  0  0  0  0
    1.9691   -4.2598    0.1986 H   0  0  0  0  0  0  0  0  0  0  0  0
    1.3559   -3.5117   -1.2895 H   0  0  0  0  0  0  0  0  0  0  0  0
   -0.4551    1.2628   -0.0329 C   0  0  0  0  0  0  0  0  0  0  0  0
   -1.5119    1.5505   -0.5930 O   0  0  0  0  0  0  0  0  0  0  0  0
    0.5467    2.1415    0.0995 N   0  0  0  0  0  0  0  0  0  0  0  0
    1.3785    1.8377    0.5805 H   0  0  0  0  0  0  0  0  0  0  0  0
    0.5074    3.5108   -0.4103 C   0  0  0  0  0  0  0  0  0  0  0  0
   -0.3932    4.0126   -0.0498 H   0  0  0  0  0  0  0  0  0  0  0  0
    1.3854    4.0650   -0.0752 H   0  0  0  0  0  0  0  0  0  0  0  0
    0.4824    3.4958   -1.5016 H   0  0  0  0  0  0  0  0  0  0  0  0
  5  6  2  0  0  0  0
  5  7  1  0  0  0  0
  2  3  1  0  0  0  0
  2  4  1  0  0  0  0
  2  5  1  0  0  0  0
  1  2  1  0  0  0  0
 24 25  2  0  0  0  0
 24 26  1  0  0  0  0
 20 21  1  0  0  0  0
 20 22  1  0  0  0  0
 20 23  1  0  0  0  0
 17 18  1  0  0  0  0
 17 19  1  0  0  0  0
 17 20  1  0  0  0  0
 13 14  1  0  0  0  0
 13 15  1  0  0  0  0
 13 16  1  0  0  0  0
 11 12  1  0  0  0  0
 11 13  1  0  0  0  0
 11 17  1  0  0  0  0
  9 10  1  0  0  0  0
  9 11  1  0  0  0  0
  9 24  1  0  0  0  0
  7  8  1  0  0  0  0
  7  9  1  0  0  0  0
 28 29  1  0  0  0  0
 28 30  1  0  0  0  0
 28 31  1  0  0  0  0
 26 27  1  0  0  0  0
 26 28  1  0  0  0  0
M  END
$$$$
default_name
  -OEChem-01062215323D

 31 30  0     1  0  0  0  0  0999 V2000
   -3.0760   -3.6390    1.5496 H   0  0  0  0  0  0  0  0  0  0  0  0
   -3.0940   -2.6290    1.1426 C   0  0  0  0  0  0  0  0  0  0  0  0
   -3.7160   -1.9930    1.7706 H   0  0  0  0  0  0  0  0  0  0  0  0
   -3.4880   -2.6500    0.1286 H   0  0  0  0  0  0  0  0  0  0  0  0
   -1.6860   -2.0850    1.1196 C   0  0  0  0  0  0  0  0  0  0  0  0
   -0.7540   -2.7700    1.5226 O   0  0  0  0  0  0  0  0  0  0  0  0
   -1.5320   -0.8490    0.6496 N   0  0  0  0  0  0  0  0  0  0  0  0
   -2.3500   -0.3360    0.3566 H   0  0  0  0  0  0  0  0  0  0  0  0
   -0.2470   -0.1410    0.5576 C   0  0  1  0  0  0  0  0  0  0  0  0
    0.2587   -0.2511    1.5175 H   0  0  0  0  0  0  0  0  0  0  0  0
    0.6480   -0.7904   -0.5285 C   0  0  1  0  0  0  0  0  0  0  0  0
    0.0651   -0.8180   -1.4512 H   0  0  0  0  0  0  0  0  0  0  0  0
    1.9246    0.0267   -0.8048 C   0  0  0  0  0  0  0  0  0  0  0  0
    2.5803    0.0212    0.0678 H   0  0  0  0  0  0  0  0  0  0  0  0
    2.4621   -0.3878   -1.6562 H   0  0  0  0  0  0  0  0  0  0  0  0
    1.6666    1.0589   -1.0444 H   0  0  0  0  0  0  0  0  0  0  0  0
    0.9958   -2.2500   -0.1598 C   0  0  0  0  0  0  0  0  0  0  0  0
    1.6650   -2.2670    0.7014 H   0  0  0  0  0  0  0  0  0  0  0  0
    0.0777   -2.7718    0.1102 H   0  0  0  0  0  0  0  0  0  0  0  0
    1.6498   -3.0366   -1.3038 C   0  0  0  0  0  0  0  0  0  0  0  0
    2.6277   -2.6197   -1.5443 H   0  0  0  0  0  0  0  0  0  0  0  0
    1.7814   -4.0746   -0.9972 H   0  0  0  0  0  0  0  0  0  0  0  0
    1.0133   -3.0067   -2.1888 H   0  0  0  0  0  0  0  0  0  0  0  0
   -0.4831    1.3607    0.3296 C   0  0  0  0  0  0  0  0  0  0  0  0
   -1.6278    1.8057    0.2596 O   0  0  0  0  0  0  0  0  0  0  0  0
    0.5971    2.1450    0.2239 N   0  0  0  0  0  0  0  0  0  0  0  0
    1.5033    1.7110    0.3028 H   0  0  0  0  0  0  0  0  0  0  0  0
    0.5422    3.5884    0.0010 C   0  0  0  0  0  0  0  0  0  0  0  0
   -0.1044    4.0525    0.7490 H   0  0  0  0  0  0  0  0  0  0  0  0
    1.5413    4.0210    0.0724 H   0  0  0  0  0  0  0  0  0  0  0  0
    0.1286    3.7918   -0.9886 H   0  0  0  0  0  0  0  0  0  0  0  0
  5  6  2  0  0  0  0
  5  7  1  0  0  0  0
  2  3  1  0  0  0  0
  2  4  1  0  0  0  0
  2  5  1  0  0  0  0
  1  2  1  0  0  0  0
 24 25  2  0  0  0  0
 24 26  1  0  0  0  0
 20 21  1  0  0  0  0
 20 22  1  0  0  0  0
 20 23  1  0  0  0  0
 17 18  1  0  0  0  0
 17 19  1  0  0  0  0
 17 20  1  0  0  0  0
 13 14  1  0  0  0  0
 13 15  1  0  0  0  0
 13 16  1  0  0  0  0
 11 12  1  0  0  0  0
 11 13  1  0  0  0  0
 11 17  1  0  0  0  0
  9 10  1  0  0  0  0
  9 11  1  0  0  0  0
  9 24  1  0  0  0  0
  7  8  1  0  0  0  0
  7  9  1  0  0  0  0
 28 29  1  0  0  0  0
 28 30  1  0  0  0  0
 28 31  1  0  0  0  0
 26 27  1  0  0  0  0
 26 28  1  0  0  0  0
M  END
$$$$
default_name
  -OEChem-01062215323D

 31 30  0     1  0  0  0  0  0999 V2000
   -3.0760   -3.6390    1.5496 H   0  0  0  0  0  0  0  0  0  0  0  0
   -3.0940   -2.6290    1.1426 C   0  0  0  0  0  0  0  0  0  0  0  0
   -3.7160   -1.9930    1.7706 H   0  0  0  0  0  0  0  0  0  0  0  0
   -3.4880   -2.6500    0.1286 H   0  0  0  0  0  0  0  0  0  0  0  0
   -1.6860   -2.0850    1.1196 C   0  0  0  0  0  0  0  0  0  0  0  0
   -0.7540   -2.7700    1.5226 O   0  0  0  0  0  0  0  0  0  0  0  0
   -1.5320   -0.8490    0.6496 N   0  0  0  0  0  0  0  0  0  0  0  0
   -2.3500   -0.3360    0.3566 H   0  0  0  0  0  0  0  0  0  0  0  0
   -0.2470   -0.1410    0.5576 C   0  0  1  0  0  0  0  0  0  0  0  0
    0.2587   -0.2511    1.5175 H   0  0  0  0  0  0  0  0  0  0  0  0
    0.6480   -0.7904   -0.5285 C   0  0  1  0  0  0  0  0  0  0  0  0
    0.0651   -0.8180   -1.4512 H   0  0  0  0  0  0  0  0  0  0  0  0
    1.9246    0.0267   -0.8048 C   0  0  0  0  0  0  0  0  0  0  0  0
    2.5803    0.0212    0.0678 H   0  0  0  0  0  0  0  0  0  0  0  0
    2.4621   -0.3878   -1.6562 H   0  0  0  0  0  0  0  0  0  0  0  0
    1.6666    1.0589   -1.0444 H   0  0  0  0  0  0  0  0  0  0  0  0
    0.9958   -2.2500   -0.1598 C   0  0  0  0  0  0  0  0  0  0  0  0
    1.6650   -2.2670    0.7014 H   0  0  0  0  0  0  0  0  0  0  0  0
    0.0777   -2.7718    0.1102 H   0  0  0  0  0  0  0  0  0  0  0  0
    1.6498   -3.0366   -1.3038 C   0  0  0  0  0  0  0  0  0  0  0  0
    2.6277   -2.6197   -1.5443 H   0  0  0  0  0  0  0  0  0  0  0  0
    1.7814   -4.0746   -0.9972 H   0  0  0  0  0  0  0  0  0  0  0  0
    1.0133   -3.0067   -2.1888 H   0  0  0  0  0  0  0  0  0  0  0  0
   -0.4831    1.3607    0.3296 C   0  0  0  0  0  0  0  0  0  0  0  0
   -1.5926    1.8524    0.5306 O   0  0  0  0  0  0  0  0  0  0  0  0
    0.5605    2.0931   -0.0799 N   0  0  0  0  0  0  0  0  0  0  0  0
    1.4420    1.6231   -0.2127 H   0  0  0  0  0  0  0  0  0  0  0  0
    0.4989    3.5289   -0.3461 C   0  0  0  0  0  0  0  0  0  0  0  0
    0.0790    4.0465    0.5193 H   0  0  0  0  0  0  0  0  0  0  0  0
    1.4972    3.9198   -0.5481 H   0  0  0  0  0  0  0  0  0  0  0  0
   -0.1452    3.7155   -1.2075 H   0  0  0  0  0  0  0  0  0  0  0  0
  5  6  2  0  0  0  0
  5  7  1  0  0  0  0
  2  3  1  0  0  0  0
  2  4  1  0  0  0  0
  2  5  1  0  0  0  0
  1  2  1  0  0  0  0
 24 25  2  0  0  0  0
 24 26  1  0  0  0  0
 20 21  1  0  0  0  0
 20 22  1  0  0  0  0
 20 23  1  0  0  0  0
 17 18  1  0  0  0  0
 17 19  1  0  0  0  0
 17 20  1  0  0  0  0
 13 14  1  0  0  0  0
 13 15  1  0  0  0  0
 13 16  1  0  0  0  0
 11 12  1  0  0  0  0
 11 13  1  0  0  0  0
 11 17  1  0  0  0  0
  9 10  1  0  0  0  0
  9 11  1  0  0  0  0
  9 24  1  0  0  0  0
  7  8  1  0  0  0  0
  7  9  1  0  0  0  0
 28 29  1  0  0  0  0
 28 30  1  0  0  0  0
 28 31  1  0  0  0  0
 26 27  1  0  0  0  0
 26 28  1  0  0  0  0
M  END
$$$$
default_name
  -OEChem-01062215323D

 31 30  0     1  0  0  0  0  0999 V2000
   -3.0760   -3.6390    1.5496 H   0  0  0  0  0  0  0  0  0  0  0  0
   -3.0940   -2.6290    1.1426 C   0  0  0  0  0  0  0  0  0  0  0  0
   -3.7160   -1.9930    1.7706 H   0  0  0  0  0  0  0  0  0  0  0  0
   -3.4880   -2.6500    0.1286 H   0  0  0  0  0  0  0  0  0  0  0  0
   -1.6860   -2.0850    1.1196 C   0  0  0  0  0  0  0  0  0  0  0  0
   -0.7540   -2.7700    1.5226 O   0  0  0  0  0  0  0  0  0  0  0  0
   -1.5320   -0.8490    0.6496 N   0  0  0  0  0  0  0  0  0  0  0  0
   -2.3500   -0.3360    0.3566 H   0  0  0  0  0  0  0  0  0  0  0  0
   -0.2470   -0.1410    0.5576 C   0  0  1  0  0  0  0  0  0  0  0  0
    0.2587   -0.2511    1.5175 H   0  0  0  0  0  0  0  0  0  0  0  0
    0.6480   -0.7904   -0.5285 C   0  0  1  0  0  0  0  0  0  0  0  0
    0.0651   -0.8180   -1.4512 H   0  0  0  0  0  0  0  0  0  0  0  0
    1.9246    0.0267   -0.8048 C   0  0  0  0  0  0  0  0  0  0  0  0
    2.5803    0.0212    0.0678 H   0  0  0  0  0  0  0  0  0  0  0  0
    2.4621   -0.3878   -1.6562 H   0  0  0  0  0  0  0  0  0  0  0  0
    1.6666    1.0589   -1.0444 H   0  0  0  0  0  0  0  0  0  0  0  0
    0.9958   -2.2500   -0.1598 C   0  0  0  0  0  0  0  0  0  0  0  0
    1.6650   -2.2670    0.7014 H   0  0  0  0  0  0  0  0  0  0  0  0
    0.0777   -2.7718    0.1102 H   0  0  0  0  0  0  0  0  0  0  0  0
    1.6498   -3.0366   -1.3038 C   0  0  0  0  0  0  0  0  0  0  0  0
    2.6277   -2.6197   -1.5443 H   0  0  0  0  0  0  0  0  0  0  0  0
    1.7814   -4.0746   -0.9972 H   0  0  0  0  0  0  0  0  0  0  0  0
    1.0133   -3.0067   -2.1888 H   0  0  0  0  0  0  0  0  0  0  0  0
   -0.4831    1.3607    0.3296 C   0  0  0  0  0  0  0  0  0  0  0  0
   -1.4884    1.9069    0.7816 O   0  0  0  0  0  0  0  0  0  0  0  0
    0.4463    2.0323   -0.3620 N   0  0  0  0  0  0  0  0  0  0  0  0
    1.2492    1.5201   -0.6916 H   0  0  0  0  0  0  0  0  0  0  0  0
    0.3670    3.4593   -0.6680 C   0  0  0  0  0  0  0  0  0  0  0  0
    0.1977    4.0244    0.2513 H   0  0  0  0  0  0  0  0  0  0  0  0
    1.2939    3.7991   -1.1324 H   0  0  0  0  0  0  0  0  0  0  0  0
   -0.4679    3.6436   -1.3467 H   0  0  0  0  0  0  0  0  0  0  0  0
  5  6  2  0  0  0  0
  5  7  1  0  0  0  0
  2  3  1  0  0  0  0
  2  4  1  0  0  0  0
  2  5  1  0  0  0  0
  1  2  1  0  0  0  0
 24 25  2  0  0  0  0
 24 26  1  0  0  0  0
 20 21  1  0  0  0  0
 20 22  1  0  0  0  0
 20 23  1  0  0  0  0
 17 18  1  0  0  0  0
 17 19  1  0  0  0  0
 17 20  1  0  0  0  0
 13 14  1  0  0  0  0
 13 15  1  0  0  0  0
 13 16  1  0  0  0  0
 11 12  1  0  0  0  0
 11 13  1  0  0  0  0
 11 17  1  0  0  0  0
  9 10  1  0  0  0  0
  9 11  1  0  0  0  0
  9 24  1  0  0  0  0
  7  8  1  0  0  0  0
  7  9  1  0  0  0  0
 28 29  1  0  0  0  0
 28 30  1  0  0  0  0
 28 31  1  0  0  0  0
 26 27  1  0  0  0  0
 26 28  1  0  0  0  0
M  END
$$$$
default_name
  -OEChem-01062215323D

 31 30  0     1  0  0  0  0  0999 V2000
   -3.0760   -3.6390    1.5496 H   0  0  0  0  0  0  0  0  0  0  0  0
   -3.0940   -2.6290    1.1426 C   0  0  0  0  0  0  0  0  0  0  0  0
   -3.7160   -1.9930    1.7706 H   0  0  0  0  0  0  0  0  0  0  0  0
   -3.4880   -2.6500    0.1286 H   0  0  0  0  0  0  0  0  0  0  0  0
   -1.6860   -2.0850    1.1196 C   0  0  0  0  0  0  0  0  0  0  0  0
   -0.7540   -2.7700    1.5226 O   0  0  0  0  0  0  0  0  0  0  0  0
   -1.5320   -0.8490    0.6496 N   0  0  0  0  0  0  0  0  0  0  0  0
   -2.3500   -0.3360    0.3566 H   0  0  0  0  0  0  0  0  0  0  0  0
   -0.2470   -0.1410    0.5576 C   0  0  1  0  0  0  0  0  0  0  0  0
    0.2587   -0.2511    1.5175 H   0  0  0  0  0  0  0  0  0  0  0  0
    0.6480   -0.7904   -0.5285 C   0  0  1  0  0  0  0  0  0  0  0  0
    0.0651   -0.8180   -1.4512 H   0  0  0  0  0  0  0  0  0  0  0  0
    1.9246    0.0267   -0.8048 C   0  0  0  0  0  0  0  0  0  0  0  0
    2.5803    0.0212    0.0678 H   0  0  0  0  0  0  0  0  0  0  0  0
    2.4621   -0.3878   -1.6562 H   0  0  0  0  0  0  0  0  0  0  0  0
    1.6666    1.0589   -1.0444 H   0  0  0  0  0  0  0  0  0  0  0  0
    0.9958   -2.2500   -0.1598 C   0  0  0  0  0  0  0  0  0  0  0  0
    1.6650   -2.2670    0.7014 H   0  0  0  0  0  0  0  0  0  0  0  0
    0.0777   -2.7718    0.1102 H   0  0  0  0  0  0  0  0  0  0  0  0
    1.6498   -3.0366   -1.3038 C   0  0  0  0  0  0  0  0  0  0  0  0
    2.6277   -2.6197   -1.5443 H   0  0  0  0  0  0  0  0  0  0  0  0
    1.7814   -4.0746   -0.9972 H   0  0  0  0  0  0  0  0  0  0  0  0
    1.0133   -3.0067   -2.1888 H   0  0  0  0  0  0  0  0  0  0  0  0
   -0.4831    1.3607    0.3296 C   0  0  0  0  0  0  0  0  0  0  0  0
   -1.3221    1.9655    0.9955 O   0  0  0  0  0  0  0  0  0  0  0  0
    0.2623    1.9668   -0.6033 N   0  0  0  0  0  0  0  0  0  0  0  0
    0.9378    1.4089   -1.1013 H   0  0  0  0  0  0  0  0  0  0  0  0
    0.1556    3.3844   -0.9428 C   0  0  0  0  0  0  0  0  0  0  0  0
    0.2439    3.9880   -0.0367 H   0  0  0  0  0  0  0  0  0  0  0  0
    0.9451    3.6672   -1.6406 H   0  0  0  0  0  0  0  0  0  0  0  0
   -0.8176    3.5811   -1.3966 H   0  0  0  0  0  0  0  0  0  0  0  0
  5  6  2  0  0  0  0
  5  7  1  0  0  0  0
  2  3  1  0  0  0  0
  2  4  1  0  0  0  0
  2  5  1  0  0  0  0
  1  2  1  0  0  0  0
 24 25  2  0  0  0  0
 24 26  1  0  0  0  0
 20 21  1  0  0  0  0
 20 22  1  0  0  0  0
 20 23  1  0  0  0  0
 17 18  1  0  0  0  0
 17 19  1  0  0  0  0
 17 20  1  0  0  0  0
 13 14  1  0  0  0  0
 13 15  1  0  0  0  0
 13 16  1  0  0  0  0
 11 12  1  0  0  0  0
 11 13  1  0  0  0  0
 11 17  1  0  0  0  0
  9 10  1  0  0  0  0
  9 11  1  0  0  0  0
  9 24  1  0  0  0  0
  7  8  1  0  0  0  0
  7  9  1  0  0  0  0
 28 29  1  0  0  0  0
 28 30  1  0  0  0  0
 28 31  1  0  0  0  0
 26 27  1  0  0  0  0
 26 28  1  0  0  0  0
M  END
$$$$
default_name
  -OEChem-01062215323D

 31 30  0     1  0  0  0  0  0999 V2000
   -3.0760   -3.6390    1.5496 H   0  0  0  0  0  0  0  0  0  0  0  0
   -3.0940   -2.6290    1.1426 C   0  0  0  0  0  0  0  0  0  0  0  0
   -3.7160   -1.9930    1.7706 H   0  0  0  0  0  0  0  0  0  0  0  0
   -3.4880   -2.6500    0.1286 H   0  0  0  0  0  0  0  0  0  0  0  0
   -1.6860   -2.0850    1.1196 C   0  0  0  0  0  0  0  0  0  0  0  0
   -0.7540   -2.7700    1.5226 O   0  0  0  0  0  0  0  0  0  0  0  0
   -1.5320   -0.8490    0.6496 N   0  0  0  0  0  0  0  0  0  0  0  0
   -2.3500   -0.3360    0.3566 H   0  0  0  0  0  0  0  0  0  0  0  0
   -0.2470   -0.1410    0.5576 C   0  0  1  0  0  0  0  0  0  0  0  0
    0.2587   -0.2511    1.5175 H   0  0  0  0  0  0  0  0  0  0  0  0
    0.6480   -0.7904   -0.5285 C   0  0  1  0  0  0  0  0  0  0  0  0
    0.0651   -0.8180   -1.4512 H   0  0  0  0  0  0  0  0  0  0  0  0
    1.9246    0.0267   -0.8048 C   0  0  0  0  0  0  0  0  0  0  0  0
    2.5803    0.0212    0.0678 H   0  0  0  0  0  0  0  0  0  0  0  0
    2.4621   -0.3878   -1.6562 H   0  0  0  0  0  0  0  0  0  0  0  0
    1.6666    1.0589   -1.0444 H   0  0  0  0  0  0  0  0  0  0  0  0
    0.9958   -2.2500   -0.1598 C   0  0  0  0  0  0  0  0  0  0  0  0
    1.6650   -2.2670    0.7014 H   0  0  0  0  0  0  0  0  0  0  0  0
    0.0777   -2.7718    0.1102 H   0  0  0  0  0  0  0  0  0  0  0  0
    1.6498   -3.0366   -1.3038 C   0  0  0  0  0  0  0  0  0  0  0  0
    2.6277   -2.6197   -1.5443 H   0  0  0  0  0  0  0  0  0  0  0  0
    1.7814   -4.0746   -0.9972 H   0  0  0  0  0  0  0  0  0  0  0  0
    1.0133   -3.0067   -2.1888 H   0  0  0  0  0  0  0  0  0  0  0  0
   -0.4831    1.3607    0.3296 C   0  0  0  0  0  0  0  0  0  0  0  0
   -1.1052    2.0243    1.1578 O   0  0  0  0  0  0  0  0  0  0  0  0
    0.0210    1.9009   -0.7871 N   0  0  0  0  0  0  0  0  0  0  0  0
    0.5292    1.2972   -1.4140 H   0  0  0  0  0  0  0  0  0  0  0  0
   -0.1211    3.3092   -1.1518 C   0  0  0  0  0  0  0  0  0  0  0  0
    0.2142    3.9395   -0.3252 H   0  0  0  0  0  0  0  0  0  0  0  0
    0.4746    3.5329   -2.0380 H   0  0  0  0  0  0  0  0  0  0  0  0
   -1.1704    3.5321   -1.3540 H   0  0  0  0  0  0  0  0  0  0  0  0
  5  6  2  0  0  0  0
  5  7  1  0  0  0  0
  2  3  1  0  0  0  0
  2  4  1  0  0  0  0
  2  5  1  0  0  0  0
  1  2  1  0  0  0  0
 24 25  2  0  0  0  0
 24 26  1  0  0  0  0
 20 21  1  0  0  0  0
 20 22  1  0  0  0  0
 20 23  1  0  0  0  0
 17 18  1  0  0  0  0
 17 19  1  0  0  0  0
 17 20  1  0  0  0  0
 13 14  1  0  0  0  0
 13 15  1  0  0  0  0
 13 16  1  0  0  0  0
 11 12  1  0  0  0  0
 11 13  1  0  0  0  0
 11 17  1  0  0  0  0
  9 10  1  0  0  0  0
  9 11  1  0  0  0  0
  9 24  1  0  0  0  0
  7  8  1  0  0  0  0
  7  9  1  0  0  0  0
 28 29  1  0  0  0  0
 28 30  1  0  0  0  0
 28 31  1  0  0  0  0
 26 27  1  0  0  0  0
 26 28  1  0  0  0  0
M  END
$$$$
default_name
  -OEChem-01062215323D

 31 30  0     1  0  0  0  0  0999 V2000
   -3.0760   -3.6390    1.5496 H   0  0  0  0  0  0  0  0  0  0  0  0
   -3.0940   -2.6290    1.1426 C   0  0  0  0  0  0  0  0  0  0  0  0
   -3.7160   -1.9930    1.7706 H   0  0  0  0  0  0  0  0  0  0  0  0
   -3.4880   -2.6500    0.1286 H   0  0  0  0  0  0  0  0  0  0  0  0
   -1.6860   -2.0850    1.1196 C   0  0  0  0  0  0  0  0  0  0  0  0
   -0.7540   -2.7700    1.5226 O   0  0  0  0  0  0  0  0  0  0  0  0
   -1.5320   -0.8490    0.6496 N   0  0  0  0  0  0  0  0  0  0  0  0
   -2.3500   -0.3360    0.3566 H   0  0  0  0  0  0  0  0  0  0  0  0
   -0.2470   -0.1410    0.5576 C   0  0  1  0  0  0  0  0  0  0  0  0
    0.2587   -0.2511    1.5175 H   0  0  0  0  0  0  0  0  0  0  0  0
    0.6480   -0.7904   -0.5285 C   0  0  1  0  0  0  0  0  0  0  0  0
    0.0651   -0.8180   -1.4512 H   0  0  0  0  0  0  0  0  0  0  0  0
    1.9246    0.0267   -0.8048 C   0  0  0  0  0  0  0  0  0  0  0  0
    2.5803    0.0212    0.0678 H   0  0  0  0  0  0  0  0  0  0  0  0
    2.4621   -0.3878   -1.6562 H   0  0  0  0  0  0  0  0  0  0  0  0
    1.6666    1.0589   -1.0444 H   0  0  0  0  0  0  0  0  0  0  0  0
    0.9958   -2.2500   -0.1598 C   0  0  0  0  0  0  0  0  0  0  0  0
    1.6650   -2.2670    0.7014 H   0  0  0  0  0  0  0  0  0  0  0  0
    0.0777   -2.7718    0.1102 H   0  0  0  0  0  0  0  0  0  0  0  0
    1.6498   -3.0366   -1.3038 C   0  0  0  0  0  0  0  0  0  0  0  0
    2.6277   -2.6197   -1.5443 H   0  0  0  0  0  0  0  0  0  0  0  0
    1.7814   -4.0746   -0.9972 H   0  0  0  0  0  0  0  0  0  0  0  0
    1.0133   -3.0067   -2.1888 H   0  0  0  0  0  0  0  0  0  0  0  0
   -0.4831    1.3607    0.3296 C   0  0  0  0  0  0  0  0  0  0  0  0
   -0.8523    2.0791    1.2574 O   0  0  0  0  0  0  0  0  0  0  0  0
   -0.2610    1.8393   -0.9011 N   0  0  0  0  0  0  0  0  0  0  0  0
    0.0512    1.1926   -1.6082 H   0  0  0  0  0  0  0  0  0  0  0  0
   -0.4440    3.2388   -1.2807 C   0  0  0  0  0  0  0  0  0  0  0  0
    0.1107    3.8824   -0.5943 H   0  0  0  0  0  0  0  0  0  0  0  0
   -0.0854    3.4055   -2.2975 H   0  0  0  0  0  0  0  0  0  0  0  0
   -1.5023    3.5000   -1.2216 H   0  0  0  0  0  0  0  0  0  0  0  0
  5  6  2  0  0  0  0
  5  7  1  0  0  0  0
  2  3  1  0  0  0  0
  2  4  1  0  0  0  0
  2  5  1  0  0  0  0
  1  2  1  0  0  0  0
 24 25  2  0  0  0  0
 24 26  1  0  0  0  0
 20 21  1  0  0  0  0
 20 22  1  0  0  0  0
 20 23  1  0  0  0  0
 17 18  1  0  0  0  0
 17 19  1  0  0  0  0
 17 20  1  0  0  0  0
 13 14  1  0  0  0  0
 13 15  1  0  0  0  0
 13 16  1  0  0  0  0
 11 12  1  0  0  0  0
 11 13  1  0  0  0  0
 11 17  1  0  0  0  0
  9 10  1  0  0  0  0
  9 11  1  0  0  0  0
  9 24  1  0  0  0  0
  7  8  1  0  0  0  0
  7  9  1  0  0  0  0
 28 29  1  0  0  0  0
 28 30  1  0  0  0  0
 28 31  1  0  0  0  0
 26 27  1  0  0  0  0
 26 28  1  0  0  0  0
M  END
$$$$
default_name
  -OEChem-01062215323D

 31 30  0     1  0  0  0  0  0999 V2000
   -3.0760   -3.6390    1.5496 H   0  0  0  0  0  0  0  0  0  0  0  0
   -3.0940   -2.6290    1.1426 C   0  0  0  0  0  0  0  0  0  0  0  0
   -3.7160   -1.9930    1.7706 H   0  0  0  0  0  0  0  0  0  0  0  0
   -3.4880   -2.6500    0.1286 H   0  0  0  0  0  0  0  0  0  0  0  0
   -1.6860   -2.0850    1.1196 C   0  0  0  0  0  0  0  0  0  0  0  0
   -0.7540   -2.7700    1.5226 O   0  0  0  0  0  0  0  0  0  0  0  0
   -1.5320   -0.8490    0.6496 N   0  0  0  0  0  0  0  0  0  0  0  0
   -2.3500   -0.3360    0.3566 H   0  0  0  0  0  0  0  0  0  0  0  0
   -0.2470   -0.1410    0.5576 C   0  0  1  0  0  0  0  0  0  0  0  0
    0.2587   -0.2511    1.5175 H   0  0  0  0  0  0  0  0  0  0  0  0
    0.6480   -0.7904   -0.5285 C   0  0  1  0  0  0  0  0  0  0  0  0
    0.0651   -0.8180   -1.4512 H   0  0  0  0  0  0  0  0  0  0  0  0
    1.9246    0.0267   -0.8048 C   0  0  0  0  0  0  0  0  0  0  0  0
    2.5803    0.0212    0.0678 H   0  0  0  0  0  0  0  0  0  0  0  0
    2.4621   -0.3878   -1.6562 H   0  0  0  0  0  0  0  0  0  0  0  0
    1.6666    1.0589   -1.0444 H   0  0  0  0  0  0  0  0  0  0  0  0
    0.9958   -2.2500   -0.1598 C   0  0  0  0  0  0  0  0  0  0  0  0
    1.6650   -2.2670    0.7014 H   0  0  0  0  0  0  0  0  0  0  0  0
    0.0777   -2.7718    0.1102 H   0  0  0  0  0  0  0  0  0  0  0  0
    1.6498   -3.0366   -1.3038 C   0  0  0  0  0  0  0  0  0  0  0  0
    2.6277   -2.6197   -1.5443 H   0  0  0  0  0  0  0  0  0  0  0  0
    1.7814   -4.0746   -0.9972 H   0  0  0  0  0  0  0  0  0  0  0  0
    1.0133   -3.0067   -2.1888 H   0  0  0  0  0  0  0  0  0  0  0  0
   -0.4831    1.3607    0.3296 C   0  0  0  0  0  0  0  0  0  0  0  0
   -0.5808    2.1264    1.2875 O   0  0  0  0  0  0  0  0  0  0  0  0
   -0.5646    1.7860   -0.9375 N   0  0  0  0  0  0  0  0  0  0  0  0
   -0.4637    1.1022   -1.6708 H   0  0  0  0  0  0  0  0  0  0  0  0
   -0.7912    3.1782   -1.3208 C   0  0  0  0  0  0  0  0  0  0  0  0
   -0.0594    3.8205   -0.8259 H   0  0  0  0  0  0  0  0  0  0  0  0
   -0.6969    3.2935   -2.4016 H   0  0  0  0  0  0  0  0  0  0  0  0
   -1.7906    3.4871   -1.0086 H   0  0  0  0  0  0  0  0  0  0  0  0
  5  6  2  0  0  0  0
  5  7  1  0  0  0  0
  2  3  1  0  0  0  0
  2  4  1  0  0  0  0
  2  5  1  0  0  0  0
  1  2  1  0  0  0  0
 24 25  2  0  0  0  0
 24 26  1  0  0  0  0
 20 21  1  0  0  0  0
 20 22  1  0  0  0  0
 20 23  1  0  0  0  0
 17 18  1  0  0  0  0
 17 19  1  0  0  0  0
 17 20  1  0  0  0  0
 13 14  1  0  0  0  0
 13 15  1  0  0  0  0
 13 16  1  0  0  0  0
 11 12  1  0  0  0  0
 11 13  1  0  0  0  0
 11 17  1  0  0  0  0
  9 10  1  0  0  0  0
  9 11  1  0  0  0  0
  9 24  1  0  0  0  0
  7  8  1  0  0  0  0
  7  9  1  0  0  0  0
 28 29  1  0  0  0  0
 28 30  1  0  0  0  0
 28 31  1  0  0  0  0
 26 27  1  0  0  0  0
 26 28  1  0  0  0  0
M  END
$$$$
default_name
  -OEChem-01062215323D

 31 30  0     1  0  0  0  0  0999 V2000
   -3.0760   -3.6390    1.5496 H   0  0  0  0  0  0  0  0  0  0  0  0
   -3.0940   -2.6290    1.1426 C   0  0  0  0  0  0  0  0  0  0  0  0
   -3.7160   -1.9930    1.7706 H   0  0  0  0  0  0  0  0  0  0  0  0
   -3.4880   -2.6500    0.1286 H   0  0  0  0  0  0  0  0  0  0  0  0
   -1.6860   -2.0850    1.1196 C   0  0  0  0  0  0  0  0  0  0  0  0
   -0.7540   -2.7700    1.5226 O   0  0  0  0  0  0  0  0  0  0  0  0
   -1.5320   -0.8490    0.6496 N   0  0  0  0  0  0  0  0  0  0  0  0
   -2.3500   -0.3360    0.3566 H   0  0  0  0  0  0  0  0  0  0  0  0
   -0.2470   -0.1410    0.5576 C   0  0  1  0  0  0  0  0  0  0  0  0
    0.2587   -0.2511    1.5175 H   0  0  0  0  0  0  0  0  0  0  0  0
    0.6480   -0.7904   -0.5285 C   0  0  1  0  0  0  0  0  0  0  0  0
    0.0651   -0.8180   -1.4512 H   0  0  0  0  0  0  0  0  0  0  0  0
    1.9246    0.0267   -0.8048 C   0  0  0  0  0  0  0  0  0  0  0  0
    2.5803    0.0212    0.0678 H   0  0  0  0  0  0  0  0  0  0  0  0
    2.4621   -0.3878   -1.6562 H   0  0  0  0  0  0  0  0  0  0  0  0
    1.6666    1.0589   -1.0444 H   0  0  0  0  0  0  0  0  0  0  0  0
    0.9958   -2.2500   -0.1598 C   0  0  0  0  0  0  0  0  0  0  0  0
    1.6650   -2.2670    0.7014 H   0  0  0  0  0  0  0  0  0  0  0  0
    0.0777   -2.7718    0.1102 H   0  0  0  0  0  0  0  0  0  0  0  0
    1.6498   -3.0366   -1.3038 C   0  0  0  0  0  0  0  0  0  0  0  0
    2.6277   -2.6197   -1.5443 H   0  0  0  0  0  0  0  0  0  0  0  0
    1.7814   -4.0746   -0.9972 H   0  0  0  0  0  0  0  0  0  0  0  0
    1.0133   -3.0067   -2.1888 H   0  0  0  0  0  0  0  0  0  0  0  0
   -0.4831    1.3607    0.3296 C   0  0  0  0  0  0  0  0  0  0  0  0
   -0.3092    2.1628    1.2460 O   0  0  0  0  0  0  0  0  0  0  0  0
   -0.8691    1.7448   -0.8937 N   0  0  0  0  0  0  0  0  0  0  0  0
   -0.9803    1.0321   -1.5975 H   0  0  0  0  0  0  0  0  0  0  0  0
   -1.1391    3.1313   -1.2694 C   0  0  0  0  0  0  0  0  0  0  0  0
   -0.2847    3.7580   -1.0041 H   0  0  0  0  0  0  0  0  0  0  0  0
   -1.3182    3.2048   -2.3430 H   0  0  0  0  0  0  0  0  0  0  0  0
   -2.0158    3.4941   -0.7294 H   0  0  0  0  0  0  0  0  0  0  0  0
  5  6  2  0  0  0  0
  5  7  1  0  0  0  0
  2  3  1  0  0  0  0
  2  4  1  0  0  0  0
  2  5  1  0  0  0  0
  1  2  1  0  0  0  0
 24 25  2  0  0  0  0
 24 26  1  0  0  0  0
 20 21  1  0  0  0  0
 20 22  1  0  0  0  0
 20 23  1  0  0  0  0
 17 18  1  0  0  0  0
 17 19  1  0  0  0  0
 17 20  1  0  0  0  0
 13 14  1  0  0  0  0
 13 15  1  0  0  0  0
 13 16  1  0  0  0  0
 11 12  1  0  0  0  0
 11 13  1  0  0  0  0
 11 17  1  0  0  0  0
  9 10  1  0  0  0  0
  9 11  1  0  0  0  0
  9 24  1  0  0  0  0
  7  8  1  0  0  0  0
  7  9  1  0  0  0  0
 28 29  1  0  0  0  0
 28 30  1  0  0  0  0
 28 31  1  0  0  0  0
 26 27  1  0  0  0  0
 26 28  1  0  0  0  0
M  END
$$$$
default_name
  -OEChem-01062215323D

 31 30  0     1  0  0  0  0  0999 V2000
   -3.0760   -3.6390    1.5496 H   0  0  0  0  0  0  0  0  0  0  0  0
   -3.0940   -2.6290    1.1426 C   0  0  0  0  0  0  0  0  0  0  0  0
   -3.7160   -1.9930    1.7706 H   0  0  0  0  0  0  0  0  0  0  0  0
   -3.4880   -2.6500    0.1286 H   0  0  0  0  0  0  0  0  0  0  0  0
   -1.6860   -2.0850    1.1196 C   0  0  0  0  0  0  0  0  0  0  0  0
   -0.7540   -2.7700    1.5226 O   0  0  0  0  0  0  0  0  0  0  0  0
   -1.5320   -0.8490    0.6496 N   0  0  0  0  0  0  0  0  0  0  0  0
   -2.3500   -0.3360    0.3566 H   0  0  0  0  0  0  0  0  0  0  0  0
   -0.2470   -0.1410    0.5576 C   0  0  1  0  0  0  0  0  0  0  0  0
    0.2587   -0.2511    1.5175 H   0  0  0  0  0  0  0  0  0  0  0  0
    0.6480   -0.7904   -0.5285 C   0  0  1  0  0  0  0  0  0  0  0  0
    0.0651   -0.8180   -1.4512 H   0  0  0  0  0  0  0  0  0  0  0  0
    1.9246    0.0267   -0.8048 C   0  0  0  0  0  0  0  0  0  0  0  0
    2.5803    0.0212    0.0678 H   0  0  0  0  0  0  0  0  0  0  0  0
    2.4621   -0.3878   -1.6562 H   0  0  0  0  0  0  0  0  0  0  0  0
    1.6666    1.0589   -1.0444 H   0  0  0  0  0  0  0  0  0  0  0  0
    0.9958   -2.2500   -0.1598 C   0  0  0  0  0  0  0  0  0  0  0  0
    1.6650   -2.2670    0.7014 H   0  0  0  0  0  0  0  0  0  0  0  0
    0.0777   -2.7718    0.1102 H   0  0  0  0  0  0  0  0  0  0  0  0
    1.6498   -3.0366   -1.3038 C   0  0  0  0  0  0  0  0  0  0  0  0
    2.6277   -2.6197   -1.5443 H   0  0  0  0  0  0  0  0  0  0  0  0
    1.7814   -4.0746   -0.9972 H   0  0  0  0  0  0  0  0  0  0  0  0
    1.0133   -3.0067   -2.1888 H   0  0  0  0  0  0  0  0  0  0  0  0
   -0.4831    1.3607    0.3296 C   0  0  0  0  0  0  0  0  0  0  0  0
   -0.0558    2.1859    1.1358 O   0  0  0  0  0  0  0  0  0  0  0  0
   -1.1538    1.7184   -0.7728 N   0  0  0  0  0  0  0  0  0  0  0  0
   -1.4634    0.9872   -1.3932 H   0  0  0  0  0  0  0  0  0  0  0  0
   -1.4639    3.1014   -1.1298 C   0  0  0  0  0  0  0  0  0  0  0  0
   -0.5498    3.6992   -1.1167 H   0  0  0  0  0  0  0  0  0  0  0  0
   -1.9069    3.1452   -2.1258 H   0  0  0  0  0  0  0  0  0  0  0  0
   -2.1624    3.5206   -0.4031 H   0  0  0  0  0  0  0  0  0  0  0  0
  5  6  2  0  0  0  0
  5  7  1  0  0  0  0
  2  3  1  0  0  0  0
  2  4  1  0  0  0  0
  2  5  1  0  0  0  0
  1  2  1  0  0  0  0
 24 25  2  0  0  0  0
 24 26  1  0  0  0  0
 20 21  1  0  0  0  0
 20 22  1  0  0  0  0
 20 23  1  0  0  0  0
 17 18  1  0  0  0  0
 17 19  1  0  0  0  0
 17 20  1  0  0  0  0
 13 14  1  0  0  0  0
 13 15  1  0  0  0  0
 13 16  1  0  0  0  0
 11 12  1  0  0  0  0
 11 13  1  0  0  0  0
 11 17  1  0  0  0  0
  9 10  1  0  0  0  0
  9 11  1  0  0  0  0
  9 24  1  0  0  0  0
  7  8  1  0  0  0  0
  7  9  1  0  0  0  0
 28 29  1  0  0  0  0
 28 30  1  0  0  0  0
 28 31  1  0  0  0  0
 26 27  1  0  0  0  0
 26 28  1  0  0  0  0
M  END
$$$$
default_name
  -OEChem-01062215323D

 31 30  0     1  0  0  0  0  0999 V2000
   -3.0760   -3.6390    1.5496 H   0  0  0  0  0  0  0  0  0  0  0  0
   -3.0940   -2.6290    1.1426 C   0  0  0  0  0  0  0  0  0  0  0  0
   -3.7160   -1.9930    1.7706 H   0  0  0  0  0  0  0  0  0  0  0  0
   -3.4880   -2.6500    0.1286 H   0  0  0  0  0  0  0  0  0  0  0  0
   -1.6860   -2.0850    1.1196 C   0  0  0  0  0  0  0  0  0  0  0  0
   -0.7540   -2.7700    1.5226 O   0  0  0  0  0  0  0  0  0  0  0  0
   -1.5320   -0.8490    0.6496 N   0  0  0  0  0  0  0  0  0  0  0  0
   -2.3500   -0.3360    0.3566 H   0  0  0  0  0  0  0  0  0  0  0  0
   -0.2470   -0.1410    0.5576 C   0  0  1  0  0  0  0  0  0  0  0  0
    0.2587   -0.2511    1.5175 H   0  0  0  0  0  0  0  0  0  0  0  0
    0.6480   -0.7904   -0.5285 C   0  0  1  0  0  0  0  0  0  0  0  0
    0.0651   -0.8180   -1.4512 H   0  0  0  0  0  0  0  0  0  0  0  0
    1.9246    0.0267   -0.8048 C   0  0  0  0  0  0  0  0  0  0  0  0
    2.5803    0.0212    0.0678 H   0  0  0  0  0  0  0  0  0  0  0  0
    2.4621   -0.3878   -1.6562 H   0  0  0  0  0  0  0  0  0  0  0  0
    1.6666    1.0589   -1.0444 H   0  0  0  0  0  0  0  0  0  0  0  0
    0.9958   -2.2500   -0.1598 C   0  0  0  0  0  0  0  0  0  0  0  0
    1.6650   -2.2670    0.7014 H   0  0  0  0  0  0  0  0  0  0  0  0
    0.0777   -2.7718    0.1102 H   0  0  0  0  0  0  0  0  0  0  0  0
    1.6498   -3.0366   -1.3038 C   0  0  0  0  0  0  0  0  0  0  0  0
    2.6277   -2.6197   -1.5443 H   0  0  0  0  0  0  0  0  0  0  0  0
    1.7814   -4.0746   -0.9972 H   0  0  0  0  0  0  0  0  0  0  0  0
    1.0133   -3.0067   -2.1888 H   0  0  0  0  0  0  0  0  0  0  0  0
   -0.4831    1.3607    0.3296 C   0  0  0  0  0  0  0  0  0  0  0  0
    0.1619    2.1941    0.9644 O   0  0  0  0  0  0  0  0  0  0  0  0
   -1.3991    1.7087   -0.5830 N   0  0  0  0  0  0  0  0  0  0  0  0
   -1.8802    0.9704   -1.0720 H   0  0  0  0  0  0  0  0  0  0  0  0
   -1.7435    3.0906   -0.9117 C   0  0  0  0  0  0  0  0  0  0  0  0
   -0.8366    3.6482   -1.1562 H   0  0  0  0  0  0  0  0  0  0  0  0
   -2.4229    3.1189   -1.7648 H   0  0  0  0  0  0  0  0  0  0  0  0
   -2.2205    3.5648   -0.0518 H   0  0  0  0  0  0  0  0  0  0  0  0
  5  6  2  0  0  0  0
  5  7  1  0  0  0  0
  2  3  1  0  0  0  0
  2  4  1  0  0  0  0
  2  5  1  0  0  0  0
  1  2  1  0  0  0  0
 24 25  2  0  0  0  0
 24 26  1  0  0  0  0
 20 21  1  0  0  0  0
 20 22  1  0  0  0  0
 20 23  1  0  0  0  0
 17 18  1  0  0  0  0
 17 19  1  0  0  0  0
 17 20  1  0  0  0  0
 13 14  1  0  0  0  0
 13 15  1  0  0  0  0
 13 16  1  0  0  0  0
 11 12  1  0  0  0  0
 11 13  1  0  0  0  0
 11 17  1  0  0  0  0
  9 10  1  0  0  0  0
  9 11  1  0  0  0  0
  9 24  1  0  0  0  0
  7  8  1  0  0  0  0
  7  9  1  0  0  0  0
 28 29  1  0  0  0  0
 28 30  1  0  0  0  0
 28 31  1  0  0  0  0
 26 27  1  0  0  0  0
 26 28  1  0  0  0  0
M  END
$$$$
default_name
  -OEChem-01062215323D

 31 30  0     1  0  0  0  0  0999 V2000
   -3.0760   -3.6390    1.5496 H   0  0  0  0  0  0  0  0  0  0  0  0
   -3.0940   -2.6290    1.1426 C   0  0  0  0  0  0  0  0  0  0  0  0
   -3.7160   -1.9930    1.7706 H   0  0  0  0  0  0  0  0  0  0  0  0
   -3.4880   -2.6500    0.1286 H   0  0  0  0  0  0  0  0  0  0  0  0
   -1.6860   -2.0850    1.1196 C   0  0  0  0  0  0  0  0  0  0  0  0
   -0.7540   -2.7700    1.5226 O   0  0  0  0  0  0  0  0  0  0  0  0
   -1.5320   -0.8490    0.6496 N   0  0  0  0  0  0  0  0  0  0  0  0
   -2.3500   -0.3360    0.3566 H   0  0  0  0  0  0  0  0  0  0  0  0
   -0.2470   -0.1410    0.5576 C   0  0  1  0  0  0  0  0  0  0  0  0
    0.2587   -0.2511    1.5175 H   0  0  0  0  0  0  0  0  0  0  0  0
    0.6480   -0.7904   -0.5285 C   0  0  1  0  0  0  0  0  0  0  0  0
    0.0651   -0.8180   -1.4512 H   0  0  0  0  0  0  0  0  0  0  0  0
    1.9246    0.0267   -0.8048 C   0  0  0  0  0  0  0  0  0  0  0  0
    2.5803    0.0212    0.0678 H   0  0  0  0  0  0  0  0  0  0  0  0
    2.4621   -0.3878   -1.6562 H   0  0  0  0  0  0  0  0  0  0  0  0
    1.6666    1.0589   -1.0444 H   0  0  0  0  0  0  0  0  0  0  0  0
    0.9958   -2.2500   -0.1598 C   0  0  0  0  0  0  0  0  0  0  0  0
    1.6650   -2.2670    0.7014 H   0  0  0  0  0  0  0  0  0  0  0  0
    0.0777   -2.7718    0.1102 H   0  0  0  0  0  0  0  0  0  0  0  0
    1.6498   -3.0366   -1.3038 C   0  0  0  0  0  0  0  0  0  0  0  0
    2.6277   -2.6197   -1.5443 H   0  0  0  0  0  0  0  0  0  0  0  0
    1.7814   -4.0746   -0.9972 H   0  0  0  0  0  0  0  0  0  0  0  0
    1.0133   -3.0067   -2.1888 H   0  0  0  0  0  0  0  0  0  0  0  0
   -0.4831    1.3607    0.3296 C   0  0  0  0  0  0  0  0  0  0  0  0
    0.3291    2.1868    0.7434 O   0  0  0  0  0  0  0  0  0  0  0  0
   -1.5885    1.7162   -0.3372 N   0  0  0  0  0  0  0  0  0  0  0  0
   -2.2022    0.9830   -0.6557 H   0  0  0  0  0  0  0  0  0  0  0  0
   -1.9588    3.0995   -0.6299 C   0  0  0  0  0  0  0  0  0  0  0  0
   -1.1256    3.6083   -1.1198 H   0  0  0  0  0  0  0  0  0  0  0  0
   -2.8311    3.1277   -1.2846 H   0  0  0  0  0  0  0  0  0  0  0  0
   -2.1861    3.6236    0.3004 H   0  0  0  0  0  0  0  0  0  0  0  0
  5  6  2  0  0  0  0
  5  7  1  0  0  0  0
  2  3  1  0  0  0  0
  2  4  1  0  0  0  0
  2  5  1  0  0  0  0
  1  2  1  0  0  0  0
 24 25  2  0  0  0  0
 24 26  1  0  0  0  0
 20 21  1  0  0  0  0
 20 22  1  0  0  0  0
 20 23  1  0  0  0  0
 17 18  1  0  0  0  0
 17 19  1  0  0  0  0
 17 20  1  0  0  0  0
 13 14  1  0  0  0  0
 13 15  1  0  0  0  0
 13 16  1  0  0  0  0
 11 12  1  0  0  0  0
 11 13  1  0  0  0  0
 11 17  1  0  0  0  0
  9 10  1  0  0  0  0
  9 11  1  0  0  0  0
  9 24  1  0  0  0  0
  7  8  1  0  0  0  0
  7  9  1  0  0  0  0
 28 29  1  0  0  0  0
 28 30  1  0  0  0  0
 28 31  1  0  0  0  0
 26 27  1  0  0  0  0
 26 28  1  0  0  0  0
M  END
$$$$
default_name
  -OEChem-01062215323D

 31 30  0     1  0  0  0  0  0999 V2000
   -3.0760   -3.6390    1.5496 H   0  0  0  0  0  0  0  0  0  0  0  0
   -3.0940   -2.6290    1.1426 C   0  0  0  0  0  0  0  0  0  0  0  0
   -3.7160   -1.9930    1.7706 H   0  0  0  0  0  0  0  0  0  0  0  0
   -3.4880   -2.6500    0.1286 H   0  0  0  0  0  0  0  0  0  0  0  0
   -1.6860   -2.0850    1.1196 C   0  0  0  0  0  0  0  0  0  0  0  0
   -0.7540   -2.7700    1.5226 O   0  0  0  0  0  0  0  0  0  0  0  0
   -1.5320   -0.8490    0.6496 N   0  0  0  0  0  0  0  0  0  0  0  0
   -2.3500   -0.3360    0.3566 H   0  0  0  0  0  0  0  0  0  0  0  0
   -0.2470   -0.1410    0.5576 C   0  0  1  0  0  0  0  0  0  0  0  0
    0.2587   -0.2511    1.5175 H   0  0  0  0  0  0  0  0  0  0  0  0
    0.6480   -0.7904   -0.5285 C   0  0  1  0  0  0  0  0  0  0  0  0
    0.0651   -0.8180   -1.4512 H   0  0  0  0  0  0  0  0  0  0  0  0
    1.9246    0.0267   -0.8048 C   0  0  0  0  0  0  0  0  0  0  0  0
    2.5803    0.0212    0.0678 H   0  0  0  0  0  0  0  0  0  0  0  0
    2.4621   -0.3878   -1.6562 H   0  0  0  0  0  0  0  0  0  0  0  0
    1.6666    1.0589   -1.0444 H   0  0  0  0  0  0  0  0  0  0  0  0
    0.9958   -2.2500   -0.1598 C   0  0  0  0  0  0  0  0  0  0  0  0
    1.6650   -2.2670    0.7014 H   0  0  0  0  0  0  0  0  0  0  0  0
    0.0777   -2.7718    0.1102 H   0  0  0  0  0  0  0  0  0  0  0  0
    1.6498   -3.0366   -1.3038 C   0  0  0  0  0  0  0  0  0  0  0  0
    2.6277   -2.6197   -1.5443 H   0  0  0  0  0  0  0  0  0  0  0  0
    1.7814   -4.0746   -0.9972 H   0  0  0  0  0  0  0  0  0  0  0  0
    1.0133   -3.0067   -2.1888 H   0  0  0  0  0  0  0  0  0  0  0  0
   -0.4831    1.3607    0.3296 C   0  0  0  0  0  0  0  0  0  0  0  0
    0.4345    2.1646    0.4880 O   0  0  0  0  0  0  0  0  0  0  0  0
   -1.7091    1.7406   -0.0522 N   0  0  0  0  0  0  0  0  0  0  0  0
   -2.4075    1.0241   -0.1726 H   0  0  0  0  0  0  0  0  0  0  0  0
   -2.0952    3.1276   -0.3037 C   0  0  0  0  0  0  0  0  0  0  0  0
   -1.3970    3.5823   -1.0099 H   0  0  0  0  0  0  0  0  0  0  0  0
   -3.1036    3.1709   -0.7179 H   0  0  0  0  0  0  0  0  0  0  0  0
   -2.0615    3.6932    0.6295 H   0  0  0  0  0  0  0  0  0  0  0  0
  5  6  2  0  0  0  0
  5  7  1  0  0  0  0
  2  3  1  0  0  0  0
  2  4  1  0  0  0  0
  2  5  1  0  0  0  0
  1  2  1  0  0  0  0
 24 25  2  0  0  0  0
 24 26  1  0  0  0  0
 20 21  1  0  0  0  0
 20 22  1  0  0  0  0
 20 23  1  0  0  0  0
 17 18  1  0  0  0  0
 17 19  1  0  0  0  0
 17 20  1  0  0  0  0
 13 14  1  0  0  0  0
 13 15  1  0  0  0  0
 13 16  1  0  0  0  0
 11 12  1  0  0  0  0
 11 13  1  0  0  0  0
 11 17  1  0  0  0  0
  9 10  1  0  0  0  0
  9 11  1  0  0  0  0
  9 24  1  0  0  0  0
  7  8  1  0  0  0  0
  7  9  1  0  0  0  0
 28 29  1  0  0  0  0
 28 30  1  0  0  0  0
 28 31  1  0  0  0  0
 26 27  1  0  0  0  0
 26 28  1  0  0  0  0
M  END
$$$$
default_name
  -OEChem-01062215323D

 31 30  0     1  0  0  0  0  0999 V2000
   -3.0760   -3.6390    1.5496 H   0  0  0  0  0  0  0  0  0  0  0  0
   -3.0940   -2.6290    1.1426 C   0  0  0  0  0  0  0  0  0  0  0  0
   -3.7160   -1.9930    1.7706 H   0  0  0  0  0  0  0  0  0  0  0  0
   -3.4880   -2.6500    0.1286 H   0  0  0  0  0  0  0  0  0  0  0  0
   -1.6860   -2.0850    1.1196 C   0  0  0  0  0  0  0  0  0  0  0  0
   -0.7540   -2.7700    1.5226 O   0  0  0  0  0  0  0  0  0  0  0  0
   -1.5320   -0.8490    0.6496 N   0  0  0  0  0  0  0  0  0  0  0  0
   -2.3500   -0.3360    0.3566 H   0  0  0  0  0  0  0  0  0  0  0  0
   -0.2470   -0.1410    0.5576 C   0  0  1  0  0  0  0  0  0  0  0  0
    0.2587   -0.2511    1.5175 H   0  0  0  0  0  0  0  0  0  0  0  0
    0.6480   -0.7904   -0.5285 C   0  0  1  0  0  0  0  0  0  0  0  0
    0.0651   -0.8180   -1.4512 H   0  0  0  0  0  0  0  0  0  0  0  0
    1.9246    0.0267   -0.8048 C   0  0  0  0  0  0  0  0  0  0  0  0
    2.5803    0.0212    0.0678 H   0  0  0  0  0  0  0  0  0  0  0  0
    2.4621   -0.3878   -1.6562 H   0  0  0  0  0  0  0  0  0  0  0  0
    1.6666    1.0589   -1.0444 H   0  0  0  0  0  0  0  0  0  0  0  0
    0.9958   -2.2500   -0.1598 C   0  0  0  0  0  0  0  0  0  0  0  0
    1.6650   -2.2670    0.7014 H   0  0  0  0  0  0  0  0  0  0  0  0
    0.0777   -2.7718    0.1102 H   0  0  0  0  0  0  0  0  0  0  0  0
    1.6498   -3.0366   -1.3038 C   0  0  0  0  0  0  0  0  0  0  0  0
    2.6277   -2.6197   -1.5443 H   0  0  0  0  0  0  0  0  0  0  0  0
    1.7814   -4.0746   -0.9972 H   0  0  0  0  0  0  0  0  0  0  0  0
    1.0133   -3.0067   -2.1888 H   0  0  0  0  0  0  0  0  0  0  0  0
   -0.4831    1.3607    0.3296 C   0  0  0  0  0  0  0  0  0  0  0  0
    0.4709    2.1289    0.2155 O   0  0  0  0  0  0  0  0  0  0  0  0
   -1.7525    1.7800    0.2526 N   0  0  0  0  0  0  0  0  0  0  0  0
   -2.4820    1.0909    0.3443 H   0  0  0  0  0  0  0  0  0  0  0  0
   -2.1434    3.1730    0.0449 C   0  0  0  0  0  0  0  0  0  0  0  0
   -1.6324    3.5720   -0.8342 H   0  0  0  0  0  0  0  0  0  0  0  0
   -3.2218    3.2456   -0.1033 H   0  0  0  0  0  0  0  0  0  0  0  0
   -1.8553    3.7687    0.9132 H   0  0  0  0  0  0  0  0  0  0  0  0
  5  6  2  0  0  0  0
  5  7  1  0  0  0  0
  2  3  1  0  0  0  0
  2  4  1  0  0  0  0
  2  5  1  0  0  0  0
  1  2  1  0  0  0  0
 24 25  2  0  0  0  0
 24 26  1  0  0  0  0
 20 21  1  0  0  0  0
 20 22  1  0  0  0  0
 20 23  1  0  0  0  0
 17 18  1  0  0  0  0
 17 19  1  0  0  0  0
 17 20  1  0  0  0  0
 13 14  1  0  0  0  0
 13 15  1  0  0  0  0
 13 16  1  0  0  0  0
 11 12  1  0  0  0  0
 11 13  1  0  0  0  0
 11 17  1  0  0  0  0
  9 10  1  0  0  0  0
  9 11  1  0  0  0  0
  9 24  1  0  0  0  0
  7  8  1  0  0  0  0
  7  9  1  0  0  0  0
 28 29  1  0  0  0  0
 28 30  1  0  0  0  0
 28 31  1  0  0  0  0
 26 27  1  0  0  0  0
 26 28  1  0  0  0  0
M  END
$$$$
default_name
  -OEChem-01062215323D

 31 30  0     1  0  0  0  0  0999 V2000
   -3.0760   -3.6390    1.5496 H   0  0  0  0  0  0  0  0  0  0  0  0
   -3.0940   -2.6290    1.1426 C   0  0  0  0  0  0  0  0  0  0  0  0
   -3.7160   -1.9930    1.7706 H   0  0  0  0  0  0  0  0  0  0  0  0
   -3.4880   -2.6500    0.1286 H   0  0  0  0  0  0  0  0  0  0  0  0
   -1.6860   -2.0850    1.1196 C   0  0  0  0  0  0  0  0  0  0  0  0
   -0.7540   -2.7700    1.5226 O   0  0  0  0  0  0  0  0  0  0  0  0
   -1.5320   -0.8490    0.6496 N   0  0  0  0  0  0  0  0  0  0  0  0
   -2.3500   -0.3360    0.3566 H   0  0  0  0  0  0  0  0  0  0  0  0
   -0.2470   -0.1410    0.5576 C   0  0  1  0  0  0  0  0  0  0  0  0
    0.2587   -0.2511    1.5175 H   0  0  0  0  0  0  0  0  0  0  0  0
    0.6480   -0.7904   -0.5285 C   0  0  1  0  0  0  0  0  0  0  0  0
    0.0651   -0.8180   -1.4512 H   0  0  0  0  0  0  0  0  0  0  0  0
    1.9246    0.0267   -0.8048 C   0  0  0  0  0  0  0  0  0  0  0  0
    2.5803    0.0212    0.0678 H   0  0  0  0  0  0  0  0  0  0  0  0
    2.4621   -0.3878   -1.6562 H   0  0  0  0  0  0  0  0  0  0  0  0
    1.6666    1.0589   -1.0444 H   0  0  0  0  0  0  0  0  0  0  0  0
    0.9958   -2.2500   -0.1598 C   0  0  0  0  0  0  0  0  0  0  0  0
    1.6650   -2.2670    0.7014 H   0  0  0  0  0  0  0  0  0  0  0  0
    0.0777   -2.7718    0.1102 H   0  0  0  0  0  0  0  0  0  0  0  0
    1.6498   -3.0366   -1.3038 C   0  0  0  0  0  0  0  0  0  0  0  0
    2.6277   -2.6197   -1.5443 H   0  0  0  0  0  0  0  0  0  0  0  0
    1.7814   -4.0746   -0.9972 H   0  0  0  0  0  0  0  0  0  0  0  0
    1.0133   -3.0067   -2.1888 H   0  0  0  0  0  0  0  0  0  0  0  0
   -0.4831    1.3607    0.3296 C   0  0  0  0  0  0  0  0  0  0  0  0
    0.4358    2.0823   -0.0555 O   0  0  0  0  0  0  0  0  0  0  0  0
   -1.7158    1.8319    0.5564 N   0  0  0  0  0  0  0  0  0  0  0  0
   -2.4208    1.1787    0.8597 H   0  0  0  0  0  0  0  0  0  0  0  0
   -2.1001    3.2325    0.3919 C   0  0  0  0  0  0  0  0  0  0  0  0
   -1.8158    3.5780   -0.6045 H   0  0  0  0  0  0  0  0  0  0  0  0
   -3.1778    3.3468    0.5173 H   0  0  0  0  0  0  0  0  0  0  0  0
   -1.5815    3.8449    1.1321 H   0  0  0  0  0  0  0  0  0  0  0  0
  5  6  2  0  0  0  0
  5  7  1  0  0  0  0
  2  3  1  0  0  0  0
  2  4  1  0  0  0  0
  2  5  1  0  0  0  0
  1  2  1  0  0  0  0
 24 25  2  0  0  0  0
 24 26  1  0  0  0  0
 20 21  1  0  0  0  0
 20 22  1  0  0  0  0
 20 23  1  0  0  0  0
 17 18  1  0  0  0  0
 17 19  1  0  0  0  0
 17 20  1  0  0  0  0
 13 14  1  0  0  0  0
 13 15  1  0  0  0  0
 13 16  1  0  0  0  0
 11 12  1  0  0  0  0
 11 13  1  0  0  0  0
 11 17  1  0  0  0  0
  9 10  1  0  0  0  0
  9 11  1  0  0  0  0
  9 24  1  0  0  0  0
  7  8  1  0  0  0  0
  7  9  1  0  0  0  0
 28 29  1  0  0  0  0
 28 30  1  0  0  0  0
 28 31  1  0  0  0  0
 26 27  1  0  0  0  0
 26 28  1  0  0  0  0
M  END
$$$$
default_name
  -OEChem-01062215323D

 31 30  0     1  0  0  0  0  0999 V2000
   -3.0760   -3.6390    1.5496 H   0  0  0  0  0  0  0  0  0  0  0  0
   -3.0940   -2.6290    1.1426 C   0  0  0  0  0  0  0  0  0  0  0  0
   -3.7160   -1.9930    1.7706 H   0  0  0  0  0  0  0  0  0  0  0  0
   -3.4880   -2.6500    0.1286 H   0  0  0  0  0  0  0  0  0  0  0  0
   -1.6860   -2.0850    1.1196 C   0  0  0  0  0  0  0  0  0  0  0  0
   -0.7540   -2.7700    1.5226 O   0  0  0  0  0  0  0  0  0  0  0  0
   -1.5320   -0.8490    0.6496 N   0  0  0  0  0  0  0  0  0  0  0  0
   -2.3500   -0.3360    0.3566 H   0  0  0  0  0  0  0  0  0  0  0  0
   -0.2470   -0.1410    0.5576 C   0  0  1  0  0  0  0  0  0  0  0  0
    0.2587   -0.2511    1.5175 H   0  0  0  0  0  0  0  0  0  0  0  0
    0.6480   -0.7904   -0.5285 C   0  0  1  0  0  0  0  0  0  0  0  0
    0.0651   -0.8180   -1.4512 H   0  0  0  0  0  0  0  0  0  0  0  0
    1.9246    0.0267   -0.8048 C   0  0  0  0  0  0  0  0  0  0  0  0
    2.5803    0.0212    0.0678 H   0  0  0  0  0  0  0  0  0  0  0  0
    2.4621   -0.3878   -1.6562 H   0  0  0  0  0  0  0  0  0  0  0  0
    1.6666    1.0589   -1.0444 H   0  0  0  0  0  0  0  0  0  0  0  0
    0.9958   -2.2500   -0.1598 C   0  0  0  0  0  0  0  0  0  0  0  0
    1.6650   -2.2670    0.7014 H   0  0  0  0  0  0  0  0  0  0  0  0
    0.0777   -2.7718    0.1102 H   0  0  0  0  0  0  0  0  0  0  0  0
    1.6498   -3.0366   -1.3038 C   0  0  0  0  0  0  0  0  0  0  0  0
    2.6277   -2.6197   -1.5443 H   0  0  0  0  0  0  0  0  0  0  0  0
    1.7814   -4.0746   -0.9972 H   0  0  0  0  0  0  0  0  0  0  0  0
    1.0133   -3.0067   -2.1888 H   0  0  0  0  0  0  0  0  0  0  0  0
   -0.4831    1.3607    0.3296 C   0  0  0  0  0  0  0  0  0  0  0  0
    0.3315    2.0278   -0.3066 O   0  0  0  0  0  0  0  0  0  0  0  0
   -1.6016    1.8927    0.8385 N   0  0  0  0  0  0  0  0  0  0  0  0
   -2.2279    1.2818    1.3386 H   0  0  0  0  0  0  0  0  0  0  0  0
   -1.9682    3.3021    0.7138 C   0  0  0  0  0  0  0  0  0  0  0  0
   -1.9345    3.6000   -0.3365 H   0  0  0  0  0  0  0  0  0  0  0  0
   -2.9744    3.4674    1.1016 H   0  0  0  0  0  0  0  0  0  0  0  0
   -1.2588    3.9168    1.2712 H   0  0  0  0  0  0  0  0  0  0  0  0
  5  6  2  0  0  0  0
  5  7  1  0  0  0  0
  2  3  1  0  0  0  0
  2  4  1  0  0  0  0
  2  5  1  0  0  0  0
  1  2  1  0  0  0  0
 24 25  2  0  0  0  0
 24 26  1  0  0  0  0
 20 21  1  0  0  0  0
 20 22  1  0  0  0  0
 20 23  1  0  0  0  0
 17 18  1  0  0  0  0
 17 19  1  0  0  0  0
 17 20  1  0  0  0  0
 13 14  1  0  0  0  0
 13 15  1  0  0  0  0
 13 16  1  0  0  0  0
 11 12  1  0  0  0  0
 11 13  1  0  0  0  0
 11 17  1  0  0  0  0
  9 10  1  0  0  0  0
  9 11  1  0  0  0  0
  9 24  1  0  0  0  0
  7  8  1  0  0  0  0
  7  9  1  0  0  0  0
 28 29  1  0  0  0  0
 28 30  1  0  0  0  0
 28 31  1  0  0  0  0
 26 27  1  0  0  0  0
 26 28  1  0  0  0  0
M  END
$$$$
default_name
  -OEChem-01062215323D

 31 30  0     1  0  0  0  0  0999 V2000
   -3.0760   -3.6390    1.5496 H   0  0  0  0  0  0  0  0  0  0  0  0
   -3.0940   -2.6290    1.1426 C   0  0  0  0  0  0  0  0  0  0  0  0
   -3.7160   -1.9930    1.7706 H   0  0  0  0  0  0  0  0  0  0  0  0
   -3.4880   -2.6500    0.1286 H   0  0  0  0  0  0  0  0  0  0  0  0
   -1.6860   -2.0850    1.1196 C   0  0  0  0  0  0  0  0  0  0  0  0
   -0.7540   -2.7700    1.5226 O   0  0  0  0  0  0  0  0  0  0  0  0
   -1.5320   -0.8490    0.6496 N   0  0  0  0  0  0  0  0  0  0  0  0
   -2.3500   -0.3360    0.3566 H   0  0  0  0  0  0  0  0  0  0  0  0
   -0.2470   -0.1410    0.5576 C   0  0  1  0  0  0  0  0  0  0  0  0
    0.2587   -0.2511    1.5175 H   0  0  0  0  0  0  0  0  0  0  0  0
    0.6480   -0.7904   -0.5285 C   0  0  1  0  0  0  0  0  0  0  0  0
    0.0651   -0.8180   -1.4512 H   0  0  0  0  0  0  0  0  0  0  0  0
    1.9246    0.0267   -0.8048 C   0  0  0  0  0  0  0  0  0  0  0  0
    2.5803    0.0212    0.0678 H   0  0  0  0  0  0  0  0  0  0  0  0
    2.4621   -0.3878   -1.6562 H   0  0  0  0  0  0  0  0  0  0  0  0
    1.6666    1.0589   -1.0444 H   0  0  0  0  0  0  0  0  0  0  0  0
    0.9958   -2.2500   -0.1598 C   0  0  0  0  0  0  0  0  0  0  0  0
    1.6650   -2.2670    0.7014 H   0  0  0  0  0  0  0  0  0  0  0  0
    0.0777   -2.7718    0.1102 H   0  0  0  0  0  0  0  0  0  0  0  0
    1.6498   -3.0366   -1.3038 C   0  0  0  0  0  0  0  0  0  0  0  0
    2.6277   -2.6197   -1.5443 H   0  0  0  0  0  0  0  0  0  0  0  0
    1.7814   -4.0746   -0.9972 H   0  0  0  0  0  0  0  0  0  0  0  0
    1.0133   -3.0067   -2.1888 H   0  0  0  0  0  0  0  0  0  0  0  0
   -0.4831    1.3607    0.3296 C   0  0  0  0  0  0  0  0  0  0  0  0
    0.1653    1.9691   -0.5205 O   0  0  0  0  0  0  0  0  0  0  0  0
   -1.4176    1.9582    1.0798 N   0  0  0  0  0  0  0  0  0  0  0  0
   -1.9166    1.3929    1.7484 H   0  0  0  0  0  0  0  0  0  0  0  0
   -1.7567    3.3770    0.9886 C   0  0  0  0  0  0  0  0  0  0  0  0
   -1.9807    3.6365   -0.0484 H   0  0  0  0  0  0  0  0  0  0  0  0
   -2.6256    3.5994    1.6097 H   0  0  0  0  0  0  0  0  0  0  0  0
   -0.9091    3.9793    1.3212 H   0  0  0  0  0  0  0  0  0  0  0  0
  5  6  2  0  0  0  0
  5  7  1  0  0  0  0
  2  3  1  0  0  0  0
  2  4  1  0  0  0  0
  2  5  1  0  0  0  0
  1  2  1  0  0  0  0
 24 25  2  0  0  0  0
 24 26  1  0  0  0  0
 20 21  1  0  0  0  0
 20 22  1  0  0  0  0
 20 23  1  0  0  0  0
 17 18  1  0  0  0  0
 17 19  1  0  0  0  0
 17 20  1  0  0  0  0
 13 14  1  0  0  0  0
 13 15  1  0  0  0  0
 13 16  1  0  0  0  0
 11 12  1  0  0  0  0
 11 13  1  0  0  0  0
 11 17  1  0  0  0  0
  9 10  1  0  0  0  0
  9 11  1  0  0  0  0
  9 24  1  0  0  0  0
  7  8  1  0  0  0  0
  7  9  1  0  0  0  0
 28 29  1  0  0  0  0
 28 30  1  0  0  0  0
 28 31  1  0  0  0  0
 26 27  1  0  0  0  0
 26 28  1  0  0  0  0
M  END
$$$$
default_name
  -OEChem-01062215323D

 31 30  0     1  0  0  0  0  0999 V2000
   -3.0760   -3.6390    1.5496 H   0  0  0  0  0  0  0  0  0  0  0  0
   -3.0940   -2.6290    1.1426 C   0  0  0  0  0  0  0  0  0  0  0  0
   -3.7160   -1.9930    1.7706 H   0  0  0  0  0  0  0  0  0  0  0  0
   -3.4880   -2.6500    0.1286 H   0  0  0  0  0  0  0  0  0  0  0  0
   -1.6860   -2.0850    1.1196 C   0  0  0  0  0  0  0  0  0  0  0  0
   -0.7540   -2.7700    1.5226 O   0  0  0  0  0  0  0  0  0  0  0  0
   -1.5320   -0.8490    0.6496 N   0  0  0  0  0  0  0  0  0  0  0  0
   -2.3500   -0.3360    0.3566 H   0  0  0  0  0  0  0  0  0  0  0  0
   -0.2470   -0.1410    0.5576 C   0  0  1  0  0  0  0  0  0  0  0  0
    0.2587   -0.2511    1.5175 H   0  0  0  0  0  0  0  0  0  0  0  0
    0.6480   -0.7904   -0.5285 C   0  0  1  0  0  0  0  0  0  0  0  0
    0.0651   -0.8180   -1.4512 H   0  0  0  0  0  0  0  0  0  0  0  0
    1.9246    0.0267   -0.8048 C   0  0  0  0  0  0  0  0  0  0  0  0
    2.5803    0.0212    0.0678 H   0  0  0  0  0  0  0  0  0  0  0  0
    2.4621   -0.3878   -1.6562 H   0  0  0  0  0  0  0  0  0  0  0  0
    1.6666    1.0589   -1.0444 H   0  0  0  0  0  0  0  0  0  0  0  0
    0.9958   -2.2500   -0.1598 C   0  0  0  0  0  0  0  0  0  0  0  0
    1.6650   -2.2670    0.7014 H   0  0  0  0  0  0  0  0  0  0  0  0
    0.0777   -2.7718    0.1102 H   0  0  0  0  0  0  0  0  0  0  0  0
    1.6498   -3.0366   -1.3038 C   0  0  0  0  0  0  0  0  0  0  0  0
    2.6277   -2.6197   -1.5443 H   0  0  0  0  0  0  0  0  0  0  0  0
    1.7814   -4.0746   -0.9972 H   0  0  0  0  0  0  0  0  0  0  0  0
    1.0133   -3.0067   -2.1888 H   0  0  0  0  0  0  0  0  0  0  0  0
   -0.4831    1.3607    0.3296 C   0  0  0  0  0  0  0  0  0  0  0  0
   -0.0517    1.9104   -0.6828 O   0  0  0  0  0  0  0  0  0  0  0  0
   -1.1764    2.0241    1.2636 N   0  0  0  0  0  0  0  0  0  0  0  0
   -1.5080    1.5046    2.0610 H   0  0  0  0  0  0  0  0  0  0  0  0
   -1.4801    3.4523    1.1976 C   0  0  0  0  0  0  0  0  0  0  0  0
   -1.9510    3.6850    0.2400 H   0  0  0  0  0  0  0  0  0  0  0  0
   -2.1552    3.7337    2.0071 H   0  0  0  0  0  0  0  0  0  0  0  0
   -0.5563    4.0283    1.2785 H   0  0  0  0  0  0  0  0  0  0  0  0
  5  6  2  0  0  0  0
  5  7  1  0  0  0  0
  2  3  1  0  0  0  0
  2  4  1  0  0  0  0
  2  5  1  0  0  0  0
  1  2  1  0  0  0  0
 24 25  2  0  0  0  0
 24 26  1  0  0  0  0
 20 21  1  0  0  0  0
 20 22  1  0  0  0  0
 20 23  1  0  0  0  0
 17 18  1  0  0  0  0
 17 19  1  0  0  0  0
 17 20  1  0  0  0  0
 13 14  1  0  0  0  0
 13 15  1  0  0  0  0
 13 16  1  0  0  0  0
 11 12  1  0  0  0  0
 11 13  1  0  0  0  0
 11 17  1  0  0  0  0
  9 10  1  0  0  0  0
  9 11  1  0  0  0  0
  9 24  1  0  0  0  0
  7  8  1  0  0  0  0
  7  9  1  0  0  0  0
 28 29  1  0  0  0  0
 28 30  1  0  0  0  0
 28 31  1  0  0  0  0
 26 27  1  0  0  0  0
 26 28  1  0  0  0  0
M  END
$$$$
default_name
  -OEChem-01062215323D

 31 30  0     1  0  0  0  0  0999 V2000
   -3.0760   -3.6390    1.5496 H   0  0  0  0  0  0  0  0  0  0  0  0
   -3.0940   -2.6290    1.1426 C   0  0  0  0  0  0  0  0  0  0  0  0
   -3.7160   -1.9930    1.7706 H   0  0  0  0  0  0  0  0  0  0  0  0
   -3.4880   -2.6500    0.1286 H   0  0  0  0  0  0  0  0  0  0  0  0
   -1.6860   -2.0850    1.1196 C   0  0  0  0  0  0  0  0  0  0  0  0
   -0.7540   -2.7700    1.5226 O   0  0  0  0  0  0  0  0  0  0  0  0
   -1.5320   -0.8490    0.6496 N   0  0  0  0  0  0  0  0  0  0  0  0
   -2.3500   -0.3360    0.3566 H   0  0  0  0  0  0  0  0  0  0  0  0
   -0.2470   -0.1410    0.5576 C   0  0  1  0  0  0  0  0  0  0  0  0
    0.2587   -0.2511    1.5175 H   0  0  0  0  0  0  0  0  0  0  0  0
    0.6480   -0.7904   -0.5285 C   0  0  1  0  0  0  0  0  0  0  0  0
    0.0651   -0.8180   -1.4512 H   0  0  0  0  0  0  0  0  0  0  0  0
    1.9246    0.0267   -0.8048 C   0  0  0  0  0  0  0  0  0  0  0  0
    2.5803    0.0212    0.0678 H   0  0  0  0  0  0  0  0  0  0  0  0
    2.4621   -0.3878   -1.6562 H   0  0  0  0  0  0  0  0  0  0  0  0
    1.6666    1.0589   -1.0444 H   0  0  0  0  0  0  0  0  0  0  0  0
    0.9958   -2.2500   -0.1598 C   0  0  0  0  0  0  0  0  0  0  0  0
    1.6650   -2.2670    0.7014 H   0  0  0  0  0  0  0  0  0  0  0  0
    0.0777   -2.7718    0.1102 H   0  0  0  0  0  0  0  0  0  0  0  0
    1.6498   -3.0366   -1.3038 C   0  0  0  0  0  0  0  0  0  0  0  0
    2.6277   -2.6197   -1.5443 H   0  0  0  0  0  0  0  0  0  0  0  0
    1.7814   -4.0746   -0.9972 H   0  0  0  0  0  0  0  0  0  0  0  0
    1.0133   -3.0067   -2.1888 H   0  0  0  0  0  0  0  0  0  0  0  0
   -0.4831    1.3607    0.3296 C   0  0  0  0  0  0  0  0  0  0  0  0
   -0.3045    1.8555   -0.7824 O   0  0  0  0  0  0  0  0  0  0  0  0
   -0.8943    2.0857    1.3776 N   0  0  0  0  0  0  0  0  0  0  0  0
   -1.0300    1.6092    2.2552 H   0  0  0  0  0  0  0  0  0  0  0  0
   -1.1572    3.5226    1.3266 C   0  0  0  0  0  0  0  0  0  0  0  0
   -1.8475    3.7421    0.5091 H   0  0  0  0  0  0  0  0  0  0  0  0
   -1.5951    3.8611    2.2667 H   0  0  0  0  0  0  0  0  0  0  0  0
   -0.2244    4.0604    1.1462 H   0  0  0  0  0  0  0  0  0  0  0  0
  5  6  2  0  0  0  0
  5  7  1  0  0  0  0
  2  3  1  0  0  0  0
  2  4  1  0  0  0  0
  2  5  1  0  0  0  0
  1  2  1  0  0  0  0
 24 25  2  0  0  0  0
 24 26  1  0  0  0  0
 20 21  1  0  0  0  0
 20 22  1  0  0  0  0
 20 23  1  0  0  0  0
 17 18  1  0  0  0  0
 17 19  1  0  0  0  0
 17 20  1  0  0  0  0
 13 14  1  0  0  0  0
 13 15  1  0  0  0  0
 13 16  1  0  0  0  0
 11 12  1  0  0  0  0
 11 13  1  0  0  0  0
 11 17  1  0  0  0  0
  9 10  1  0  0  0  0
  9 11  1  0  0  0  0
  9 24  1  0  0  0  0
  7  8  1  0  0  0  0
  7  9  1  0  0  0  0
 28 29  1  0  0  0  0
 28 30  1  0  0  0  0
 28 31  1  0  0  0  0
 26 27  1  0  0  0  0
 26 28  1  0  0  0  0
M  END
$$$$
default_name
  -OEChem-01062215323D

 31 30  0     1  0  0  0  0  0999 V2000
   -3.0760   -3.6390    1.5496 H   0  0  0  0  0  0  0  0  0  0  0  0
   -3.0940   -2.6290    1.1426 C   0  0  0  0  0  0  0  0  0  0  0  0
   -3.7160   -1.9930    1.7706 H   0  0  0  0  0  0  0  0  0  0  0  0
   -3.4880   -2.6500    0.1286 H   0  0  0  0  0  0  0  0  0  0  0  0
   -1.6860   -2.0850    1.1196 C   0  0  0  0  0  0  0  0  0  0  0  0
   -0.7540   -2.7700    1.5226 O   0  0  0  0  0  0  0  0  0  0  0  0
   -1.5320   -0.8490    0.6496 N   0  0  0  0  0  0  0  0  0  0  0  0
   -2.3500   -0.3360    0.3566 H   0  0  0  0  0  0  0  0  0  0  0  0
   -0.2470   -0.1410    0.5576 C   0  0  1  0  0  0  0  0  0  0  0  0
    0.2587   -0.2511    1.5175 H   0  0  0  0  0  0  0  0  0  0  0  0
    0.6480   -0.7904   -0.5285 C   0  0  1  0  0  0  0  0  0  0  0  0
    0.0651   -0.8180   -1.4512 H   0  0  0  0  0  0  0  0  0  0  0  0
    1.9246    0.0267   -0.8048 C   0  0  0  0  0  0  0  0  0  0  0  0
    2.5803    0.0212    0.0678 H   0  0  0  0  0  0  0  0  0  0  0  0
    2.4621   -0.3878   -1.6562 H   0  0  0  0  0  0  0  0  0  0  0  0
    1.6666    1.0589   -1.0444 H   0  0  0  0  0  0  0  0  0  0  0  0
    0.9958   -2.2500   -0.1598 C   0  0  0  0  0  0  0  0  0  0  0  0
    1.6650   -2.2670    0.7014 H   0  0  0  0  0  0  0  0  0  0  0  0
    0.0777   -2.7718    0.1102 H   0  0  0  0  0  0  0  0  0  0  0  0
    1.6498   -3.0366   -1.3038 C   0  0  0  0  0  0  0  0  0  0  0  0
    2.6277   -2.6197   -1.5443 H   0  0  0  0  0  0  0  0  0  0  0  0
    1.7814   -4.0746   -0.9972 H   0  0  0  0  0  0  0  0  0  0  0  0
    1.0133   -3.0067   -2.1888 H   0  0  0  0  0  0  0  0  0  0  0  0
   -0.4831    1.3607    0.3296 C   0  0  0  0  0  0  0  0  0  0  0  0
   -0.5760    1.8083   -0.8124 O   0  0  0  0  0  0  0  0  0  0  0  0
   -0.5907    2.1390    1.4140 N   0  0  0  0  0  0  0  0  0  0  0  0
   -0.5151    1.6997    2.3178 H   0  0  0  0  0  0  0  0  0  0  0  0
   -0.8099    3.5833    1.3667 C   0  0  0  0  0  0  0  0  0  0  0  0
   -1.6774    3.8040    0.7407 H   0  0  0  0  0  0  0  0  0  0  0  0
   -0.9836    3.9730    2.3707 H   0  0  0  0  0  0  0  0  0  0  0  0
    0.0639    4.0734    0.9331 H   0  0  0  0  0  0  0  0  0  0  0  0
  5  6  2  0  0  0  0
  5  7  1  0  0  0  0
  2  3  1  0  0  0  0
  2  4  1  0  0  0  0
  2  5  1  0  0  0  0
  1  2  1  0  0  0  0
 24 25  2  0  0  0  0
 24 26  1  0  0  0  0
 20 21  1  0  0  0  0
 20 22  1  0  0  0  0
 20 23  1  0  0  0  0
 17 18  1  0  0  0  0
 17 19  1  0  0  0  0
 17 20  1  0  0  0  0
 13 14  1  0  0  0  0
 13 15  1  0  0  0  0
 13 16  1  0  0  0  0
 11 12  1  0  0  0  0
 11 13  1  0  0  0  0
 11 17  1  0  0  0  0
  9 10  1  0  0  0  0
  9 11  1  0  0  0  0
  9 24  1  0  0  0  0
  7  8  1  0  0  0  0
  7  9  1  0  0  0  0
 28 29  1  0  0  0  0
 28 30  1  0  0  0  0
 28 31  1  0  0  0  0
 26 27  1  0  0  0  0
 26 28  1  0  0  0  0
M  END
$$$$
default_name
  -OEChem-01062215323D

 31 30  0     1  0  0  0  0  0999 V2000
   -3.0760   -3.6390    1.5496 H   0  0  0  0  0  0  0  0  0  0  0  0
   -3.0940   -2.6290    1.1426 C   0  0  0  0  0  0  0  0  0  0  0  0
   -3.7160   -1.9930    1.7706 H   0  0  0  0  0  0  0  0  0  0  0  0
   -3.4880   -2.6500    0.1286 H   0  0  0  0  0  0  0  0  0  0  0  0
   -1.6860   -2.0850    1.1196 C   0  0  0  0  0  0  0  0  0  0  0  0
   -0.7540   -2.7700    1.5226 O   0  0  0  0  0  0  0  0  0  0  0  0
   -1.5320   -0.8490    0.6496 N   0  0  0  0  0  0  0  0  0  0  0  0
   -2.3500   -0.3360    0.3566 H   0  0  0  0  0  0  0  0  0  0  0  0
   -0.2470   -0.1410    0.5576 C   0  0  1  0  0  0  0  0  0  0  0  0
    0.2587   -0.2511    1.5175 H   0  0  0  0  0  0  0  0  0  0  0  0
    0.6480   -0.7904   -0.5285 C   0  0  1  0  0  0  0  0  0  0  0  0
    0.0651   -0.8180   -1.4512 H   0  0  0  0  0  0  0  0  0  0  0  0
    1.9246    0.0267   -0.8048 C   0  0  0  0  0  0  0  0  0  0  0  0
    2.5803    0.0212    0.0678 H   0  0  0  0  0  0  0  0  0  0  0  0
    2.4621   -0.3878   -1.6562 H   0  0  0  0  0  0  0  0  0  0  0  0
    1.6666    1.0589   -1.0444 H   0  0  0  0  0  0  0  0  0  0  0  0
    0.9958   -2.2500   -0.1598 C   0  0  0  0  0  0  0  0  0  0  0  0
    1.6650   -2.2670    0.7014 H   0  0  0  0  0  0  0  0  0  0  0  0
    0.0777   -2.7718    0.1102 H   0  0  0  0  0  0  0  0  0  0  0  0
    1.6498   -3.0366   -1.3038 C   0  0  0  0  0  0  0  0  0  0  0  0
    2.6277   -2.6197   -1.5443 H   0  0  0  0  0  0  0  0  0  0  0  0
    1.7814   -4.0746   -0.9972 H   0  0  0  0  0  0  0  0  0  0  0  0
    1.0133   -3.0067   -2.1888 H   0  0  0  0  0  0  0  0  0  0  0  0
   -0.4831    1.3607    0.3296 C   0  0  0  0  0  0  0  0  0  0  0  0
   -0.8477    1.7719   -0.7710 O   0  0  0  0  0  0  0  0  0  0  0  0
   -0.2862    2.1802    1.3702 N   0  0  0  0  0  0  0  0  0  0  0  0
    0.0015    1.7697    2.2445 H   0  0  0  0  0  0  0  0  0  0  0  0
   -0.4621    3.6301    1.3152 C   0  0  0  0  0  0  0  0  0  0  0  0
   -1.4521    3.8665    0.9189 H   0  0  0  0  0  0  0  0  0  0  0  0
   -0.3623    4.0618    2.3122 H   0  0  0  0  0  0  0  0  0  0  0  0
    0.2890    4.0664    0.6539 H   0  0  0  0  0  0  0  0  0  0  0  0
  5  6  2  0  0  0  0
  5  7  1  0  0  0  0
  2  3  1  0  0  0  0
  2  4  1  0  0  0  0
  2  5  1  0  0  0  0
  1  2  1  0  0  0  0
 24 25  2  0  0  0  0
 24 26  1  0  0  0  0
 20 21  1  0  0  0  0
 20 22  1  0  0  0  0
 20 23  1  0  0  0  0
 17 18  1  0  0  0  0
 17 19  1  0  0  0  0
 17 20  1  0  0  0  0
 13 14  1  0  0  0  0
 13 15  1  0  0  0  0
 13 16  1  0  0  0  0
 11 12  1  0  0  0  0
 11 13  1  0  0  0  0
 11 17  1  0  0  0  0
  9 10  1  0  0  0  0
  9 11  1  0  0  0  0
  9 24  1  0  0  0  0
  7  8  1  0  0  0  0
  7  9  1  0  0  0  0
 28 29  1  0  0  0  0
 28 30  1  0  0  0  0
 28 31  1  0  0  0  0
 26 27  1  0  0  0  0
 26 28  1  0  0  0  0
M  END
$$$$
default_name
  -OEChem-01062215323D

 31 30  0     1  0  0  0  0  0999 V2000
   -3.0760   -3.6390    1.5496 H   0  0  0  0  0  0  0  0  0  0  0  0
   -3.0940   -2.6290    1.1426 C   0  0  0  0  0  0  0  0  0  0  0  0
   -3.7160   -1.9930    1.7706 H   0  0  0  0  0  0  0  0  0  0  0  0
   -3.4880   -2.6500    0.1286 H   0  0  0  0  0  0  0  0  0  0  0  0
   -1.6860   -2.0850    1.1196 C   0  0  0  0  0  0  0  0  0  0  0  0
   -0.7540   -2.7700    1.5226 O   0  0  0  0  0  0  0  0  0  0  0  0
   -1.5320   -0.8490    0.6496 N   0  0  0  0  0  0  0  0  0  0  0  0
   -2.3500   -0.3360    0.3566 H   0  0  0  0  0  0  0  0  0  0  0  0
   -0.2470   -0.1410    0.5576 C   0  0  1  0  0  0  0  0  0  0  0  0
    0.2587   -0.2511    1.5175 H   0  0  0  0  0  0  0  0  0  0  0  0
    0.6480   -0.7904   -0.5285 C   0  0  1  0  0  0  0  0  0  0  0  0
    0.0651   -0.8180   -1.4512 H   0  0  0  0  0  0  0  0  0  0  0  0
    1.9246    0.0267   -0.8048 C   0  0  0  0  0  0  0  0  0  0  0  0
    2.5803    0.0212    0.0678 H   0  0  0  0  0  0  0  0  0  0  0  0
    2.4621   -0.3878   -1.6562 H   0  0  0  0  0  0  0  0  0  0  0  0
    1.6666    1.0589   -1.0444 H   0  0  0  0  0  0  0  0  0  0  0  0
    0.9958   -2.2500   -0.1598 C   0  0  0  0  0  0  0  0  0  0  0  0
    1.6650   -2.2670    0.7014 H   0  0  0  0  0  0  0  0  0  0  0  0
    0.0777   -2.7718    0.1102 H   0  0  0  0  0  0  0  0  0  0  0  0
    1.6498   -3.0366   -1.3038 C   0  0  0  0  0  0  0  0  0  0  0  0
    2.6277   -2.6197   -1.5443 H   0  0  0  0  0  0  0  0  0  0  0  0
    1.7814   -4.0746   -0.9972 H   0  0  0  0  0  0  0  0  0  0  0  0
    1.0133   -3.0067   -2.1888 H   0  0  0  0  0  0  0  0  0  0  0  0
   -0.4831    1.3607    0.3296 C   0  0  0  0  0  0  0  0  0  0  0  0
   -1.1010    1.7488   -0.6608 O   0  0  0  0  0  0  0  0  0  0  0  0
   -0.0016    2.2066    1.2493 N   0  0  0  0  0  0  0  0  0  0  0  0
    0.4847    1.8147    2.0403 H   0  0  0  0  0  0  0  0  0  0  0  0
   -0.1373    3.6600    1.1757 C   0  0  0  0  0  0  0  0  0  0  0  0
   -1.1870    3.9252    1.0316 H   0  0  0  0  0  0  0  0  0  0  0  0
    0.2264    4.1214    2.0950 H   0  0  0  0  0  0  0  0  0  0  0  0
    0.4357    4.0399    0.3276 H   0  0  0  0  0  0  0  0  0  0  0  0
  5  6  2  0  0  0  0
  5  7  1  0  0  0  0
  2  3  1  0  0  0  0
  2  4  1  0  0  0  0
  2  5  1  0  0  0  0
  1  2  1  0  0  0  0
 24 25  2  0  0  0  0
 24 26  1  0  0  0  0
 20 21  1  0  0  0  0
 20 22  1  0  0  0  0
 20 23  1  0  0  0  0
 17 18  1  0  0  0  0
 17 19  1  0  0  0  0
 17 20  1  0  0  0  0
 13 14  1  0  0  0  0
 13 15  1  0  0  0  0
 13 16  1  0  0  0  0
 11 12  1  0  0  0  0
 11 13  1  0  0  0  0
 11 17  1  0  0  0  0
  9 10  1  0  0  0  0
  9 11  1  0  0  0  0
  9 24  1  0  0  0  0
  7  8  1  0  0  0  0
  7  9  1  0  0  0  0
 28 29  1  0  0  0  0
 28 30  1  0  0  0  0
 28 31  1  0  0  0  0
 26 27  1  0  0  0  0
 26 28  1  0  0  0  0
M  END
$$$$
default_name
  -OEChem-01062215323D

 31 30  0     1  0  0  0  0  0999 V2000
   -3.0760   -3.6390    1.5496 H   0  0  0  0  0  0  0  0  0  0  0  0
   -3.0940   -2.6290    1.1426 C   0  0  0  0  0  0  0  0  0  0  0  0
   -3.7160   -1.9930    1.7706 H   0  0  0  0  0  0  0  0  0  0  0  0
   -3.4880   -2.6500    0.1286 H   0  0  0  0  0  0  0  0  0  0  0  0
   -1.6860   -2.0850    1.1196 C   0  0  0  0  0  0  0  0  0  0  0  0
   -0.7540   -2.7700    1.5226 O   0  0  0  0  0  0  0  0  0  0  0  0
   -1.5320   -0.8490    0.6496 N   0  0  0  0  0  0  0  0  0  0  0  0
   -2.3500   -0.3360    0.3566 H   0  0  0  0  0  0  0  0  0  0  0  0
   -0.2470   -0.1410    0.5576 C   0  0  1  0  0  0  0  0  0  0  0  0
    0.2587   -0.2511    1.5175 H   0  0  0  0  0  0  0  0  0  0  0  0
    0.6480   -0.7904   -0.5285 C   0  0  1  0  0  0  0  0  0  0  0  0
    0.0651   -0.8180   -1.4512 H   0  0  0  0  0  0  0  0  0  0  0  0
    1.9246    0.0267   -0.8048 C   0  0  0  0  0  0  0  0  0  0  0  0
    2.5803    0.0212    0.0678 H   0  0  0  0  0  0  0  0  0  0  0  0
    2.4621   -0.3878   -1.6562 H   0  0  0  0  0  0  0  0  0  0  0  0
    1.6666    1.0589   -1.0444 H   0  0  0  0  0  0  0  0  0  0  0  0
    0.9958   -2.2500   -0.1598 C   0  0  0  0  0  0  0  0  0  0  0  0
    1.6650   -2.2670    0.7014 H   0  0  0  0  0  0  0  0  0  0  0  0
    0.0777   -2.7718    0.1102 H   0  0  0  0  0  0  0  0  0  0  0  0
    1.6498   -3.0366   -1.3038 C   0  0  0  0  0  0  0  0  0  0  0  0
    2.6277   -2.6197   -1.5443 H   0  0  0  0  0  0  0  0  0  0  0  0
    1.7814   -4.0746   -0.9972 H   0  0  0  0  0  0  0  0  0  0  0  0
    1.0133   -3.0067   -2.1888 H   0  0  0  0  0  0  0  0  0  0  0  0
   -0.4831    1.3607    0.3296 C   0  0  0  0  0  0  0  0  0  0  0  0
   -1.3187    1.7406   -0.4893 O   0  0  0  0  0  0  0  0  0  0  0  0
    0.2438    2.2163    1.0595 N   0  0  0  0  0  0  0  0  0  0  0  0
    0.9014    1.8314    1.7190 H   0  0  0  0  0  0  0  0  0  0  0  0
    0.1423    3.6708    0.9576 C   0  0  0  0  0  0  0  0  0  0  0  0
   -0.9002    3.9763    1.0710 H   0  0  0  0  0  0  0  0  0  0  0  0
    0.7424    4.1477    1.7340 H   0  0  0  0  0  0  0  0  0  0  0  0
    0.4937    3.9957   -0.0236 H   0  0  0  0  0  0  0  0  0  0  0  0
  5  6  2  0  0  0  0
  5  7  1  0  0  0  0
  2  3  1  0  0  0  0
  2  4  1  0  0  0  0
  2  5  1  0  0  0  0
  1  2  1  0  0  0  0
 24 25  2  0  0  0  0
 24 26  1  0  0  0  0
 20 21  1  0  0  0  0
 20 22  1  0  0  0  0
 20 23  1  0  0  0  0
 17 18  1  0  0  0  0
 17 19  1  0  0  0  0
 17 20  1  0  0  0  0
 13 14  1  0  0  0  0
 13 15  1  0  0  0  0
 13 16  1  0  0  0  0
 11 12  1  0  0  0  0
 11 13  1  0  0  0  0
 11 17  1  0  0  0  0
  9 10  1  0  0  0  0
  9 11  1  0  0  0  0
  9 24  1  0  0  0  0
  7  8  1  0  0  0  0
  7  9  1  0  0  0  0
 28 29  1  0  0  0  0
 28 30  1  0  0  0  0
 28 31  1  0  0  0  0
 26 27  1  0  0  0  0
 26 28  1  0  0  0  0
M  END
$$$$
default_name
  -OEChem-01062215323D

 31 30  0     1  0  0  0  0  0999 V2000
   -3.0760   -3.6390    1.5496 H   0  0  0  0  0  0  0  0  0  0  0  0
   -3.0940   -2.6290    1.1426 C   0  0  0  0  0  0  0  0  0  0  0  0
   -3.7160   -1.9930    1.7706 H   0  0  0  0  0  0  0  0  0  0  0  0
   -3.4880   -2.6500    0.1286 H   0  0  0  0  0  0  0  0  0  0  0  0
   -1.6860   -2.0850    1.1196 C   0  0  0  0  0  0  0  0  0  0  0  0
   -0.7540   -2.7700    1.5226 O   0  0  0  0  0  0  0  0  0  0  0  0
   -1.5320   -0.8490    0.6496 N   0  0  0  0  0  0  0  0  0  0  0  0
   -2.3500   -0.3360    0.3566 H   0  0  0  0  0  0  0  0  0  0  0  0
   -0.2470   -0.1410    0.5576 C   0  0  1  0  0  0  0  0  0  0  0  0
    0.2587   -0.2511    1.5175 H   0  0  0  0  0  0  0  0  0  0  0  0
    0.6480   -0.7904   -0.5285 C   0  0  1  0  0  0  0  0  0  0  0  0
    0.0651   -0.8180   -1.4512 H   0  0  0  0  0  0  0  0  0  0  0  0
    1.9246    0.0267   -0.8048 C   0  0  0  0  0  0  0  0  0  0  0  0
    2.5803    0.0212    0.0678 H   0  0  0  0  0  0  0  0  0  0  0  0
    2.4621   -0.3878   -1.6562 H   0  0  0  0  0  0  0  0  0  0  0  0
    1.6666    1.0589   -1.0444 H   0  0  0  0  0  0  0  0  0  0  0  0
    0.9958   -2.2500   -0.1598 C   0  0  0  0  0  0  0  0  0  0  0  0
    1.6650   -2.2670    0.7014 H   0  0  0  0  0  0  0  0  0  0  0  0
    0.0777   -2.7718    0.1102 H   0  0  0  0  0  0  0  0  0  0  0  0
    1.6498   -3.0366   -1.3038 C   0  0  0  0  0  0  0  0  0  0  0  0
    2.6277   -2.6197   -1.5443 H   0  0  0  0  0  0  0  0  0  0  0  0
    1.7814   -4.0746   -0.9972 H   0  0  0  0  0  0  0  0  0  0  0  0
    1.0133   -3.0067   -2.1888 H   0  0  0  0  0  0  0  0  0  0  0  0
   -0.4831    1.3607    0.3296 C   0  0  0  0  0  0  0  0  0  0  0  0
   -1.4860    1.7479   -0.2684 O   0  0  0  0  0  0  0  0  0  0  0  0
    0.4332    2.2088    0.8137 N   0  0  0  0  0  0  0  0  0  0  0  0
    1.2234    1.8188    1.3027 H   0  0  0  0  0  0  0  0  0  0  0  0
    0.3577    3.6619    0.6758 C   0  0  0  0  0  0  0  0  0  0  0  0
   -0.6112    4.0162    1.0346 H   0  0  0  0  0  0  0  0  0  0  0  0
    1.1505    4.1389    1.2537 H   0  0  0  0  0  0  0  0  0  0  0  0
    0.4593    3.9368   -0.3758 H   0  0  0  0  0  0  0  0  0  0  0  0
  5  6  2  0  0  0  0
  5  7  1  0  0  0  0
  2  3  1  0  0  0  0
  2  4  1  0  0  0  0
  2  5  1  0  0  0  0
  1  2  1  0  0  0  0
 24 25  2  0  0  0  0
 24 26  1  0  0  0  0
 20 21  1  0  0  0  0
 20 22  1  0  0  0  0
 20 23  1  0  0  0  0
 17 18  1  0  0  0  0
 17 19  1  0  0  0  0
 17 20  1  0  0  0  0
 13 14  1  0  0  0  0
 13 15  1  0  0  0  0
 13 16  1  0  0  0  0
 11 12  1  0  0  0  0
 11 13  1  0  0  0  0
 11 17  1  0  0  0  0
  9 10  1  0  0  0  0
  9 11  1  0  0  0  0
  9 24  1  0  0  0  0
  7  8  1  0  0  0  0
  7  9  1  0  0  0  0
 28 29  1  0  0  0  0
 28 30  1  0  0  0  0
 28 31  1  0  0  0  0
 26 27  1  0  0  0  0
 26 28  1  0  0  0  0
M  END
$$$$
default_name
  -OEChem-01062215323D

 31 30  0     1  0  0  0  0  0999 V2000
   -3.0760   -3.6390    1.5496 H   0  0  0  0  0  0  0  0  0  0  0  0
   -3.0940   -2.6290    1.1426 C   0  0  0  0  0  0  0  0  0  0  0  0
   -3.7160   -1.9930    1.7706 H   0  0  0  0  0  0  0  0  0  0  0  0
   -3.4880   -2.6500    0.1286 H   0  0  0  0  0  0  0  0  0  0  0  0
   -1.6860   -2.0850    1.1196 C   0  0  0  0  0  0  0  0  0  0  0  0
   -0.7540   -2.7700    1.5226 O   0  0  0  0  0  0  0  0  0  0  0  0
   -1.5320   -0.8490    0.6496 N   0  0  0  0  0  0  0  0  0  0  0  0
   -2.3500   -0.3360    0.3566 H   0  0  0  0  0  0  0  0  0  0  0  0
   -0.2470   -0.1410    0.5576 C   0  0  1  0  0  0  0  0  0  0  0  0
    0.2587   -0.2511    1.5175 H   0  0  0  0  0  0  0  0  0  0  0  0
    0.6480   -0.7904   -0.5285 C   0  0  1  0  0  0  0  0  0  0  0  0
    0.0651   -0.8180   -1.4512 H   0  0  0  0  0  0  0  0  0  0  0  0
    1.9246    0.0267   -0.8048 C   0  0  0  0  0  0  0  0  0  0  0  0
    2.5803    0.0212    0.0678 H   0  0  0  0  0  0  0  0  0  0  0  0
    2.4621   -0.3878   -1.6562 H   0  0  0  0  0  0  0  0  0  0  0  0
    1.6666    1.0589   -1.0444 H   0  0  0  0  0  0  0  0  0  0  0  0
    0.9958   -2.2500   -0.1598 C   0  0  0  0  0  0  0  0  0  0  0  0
    1.6650   -2.2670    0.7014 H   0  0  0  0  0  0  0  0  0  0  0  0
    0.0777   -2.7718    0.1102 H   0  0  0  0  0  0  0  0  0  0  0  0
    1.6498   -3.0366   -1.3038 C   0  0  0  0  0  0  0  0  0  0  0  0
    2.6277   -2.6197   -1.5443 H   0  0  0  0  0  0  0  0  0  0  0  0
    1.7814   -4.0746   -0.9972 H   0  0  0  0  0  0  0  0  0  0  0  0
    1.0133   -3.0067   -2.1888 H   0  0  0  0  0  0  0  0  0  0  0  0
   -0.4831    1.3607    0.3296 C   0  0  0  0  0  0  0  0  0  0  0  0
   -1.5914    1.7701   -0.0129 O   0  0  0  0  0  0  0  0  0  0  0  0
    0.5537    2.1844    0.5287 N   0  0  0  0  0  0  0  0  0  0  0  0
    1.4287    1.7777    0.8196 H   0  0  0  0  0  0  0  0  0  0  0  0
    0.4941    3.6338    0.3495 C   0  0  0  0  0  0  0  0  0  0  0  0
   -0.3398    4.0422    0.9247 H   0  0  0  0  0  0  0  0  0  0  0  0
    1.4230    4.0957    0.6870 H   0  0  0  0  0  0  0  0  0  0  0  0
    0.3348    3.8672   -0.7050 H   0  0  0  0  0  0  0  0  0  0  0  0
  5  6  2  0  0  0  0
  5  7  1  0  0  0  0
  2  3  1  0  0  0  0
  2  4  1  0  0  0  0
  2  5  1  0  0  0  0
  1  2  1  0  0  0  0
 24 25  2  0  0  0  0
 24 26  1  0  0  0  0
 20 21  1  0  0  0  0
 20 22  1  0  0  0  0
 20 23  1  0  0  0  0
 17 18  1  0  0  0  0
 17 19  1  0  0  0  0
 17 20  1  0  0  0  0
 13 14  1  0  0  0  0
 13 15  1  0  0  0  0
 13 16  1  0  0  0  0
 11 12  1  0  0  0  0
 11 13  1  0  0  0  0
 11 17  1  0  0  0  0
  9 10  1  0  0  0  0
  9 11  1  0  0  0  0
  9 24  1  0  0  0  0
  7  8  1  0  0  0  0
  7  9  1  0  0  0  0
 28 29  1  0  0  0  0
 28 30  1  0  0  0  0
 28 31  1  0  0  0  0
 26 27  1  0  0  0  0
 26 28  1  0  0  0  0
M  END
$$$$
default_name
  -OEChem-01062215323D

 31 30  0     1  0  0  0  0  0999 V2000
   -3.0760   -3.6390    1.5496 H   0  0  0  0  0  0  0  0  0  0  0  0
   -3.0940   -2.6290    1.1426 C   0  0  0  0  0  0  0  0  0  0  0  0
   -3.7160   -1.9930    1.7706 H   0  0  0  0  0  0  0  0  0  0  0  0
   -3.4880   -2.6500    0.1286 H   0  0  0  0  0  0  0  0  0  0  0  0
   -1.6860   -2.0850    1.1196 C   0  0  0  0  0  0  0  0  0  0  0  0
   -0.7540   -2.7700    1.5226 O   0  0  0  0  0  0  0  0  0  0  0  0
   -1.5320   -0.8490    0.6496 N   0  0  0  0  0  0  0  0  0  0  0  0
   -2.3500   -0.3360    0.3566 H   0  0  0  0  0  0  0  0  0  0  0  0
   -0.2470   -0.1410    0.5576 C   0  0  1  0  0  0  0  0  0  0  0  0
    0.3691   -0.4673    1.3961 H   0  0  0  0  0  0  0  0  0  0  0  0
    0.4876   -0.5282   -0.7511 C   0  0  1  0  0  0  0  0  0  0  0  0
   -0.2047   -0.3444   -1.5750 H   0  0  0  0  0  0  0  0  0  0  0  0
    1.7450    0.3279   -0.9955 C   0  0  0  0  0  0  0  0  0  0  0  0
    2.5023    0.1231   -0.2368 H   0  0  0  0  0  0  0  0  0  0  0  0
    2.1609    0.1168   -1.9794 H   0  0  0  0  0  0  0  0  0  0  0  0
    1.4911    1.3880   -0.9619 H   0  0  0  0  0  0  0  0  0  0  0  0
    0.8333   -2.0341   -0.7677 C   0  0  0  0  0  0  0  0  0  0  0  0
    1.6024   -2.2476   -0.0242 H   0  0  0  0  0  0  0  0  0  0  0  0
   -0.0602   -2.6019   -0.5082 H   0  0  0  0  0  0  0  0  0  0  0  0
    1.3176   -2.5413   -2.1328 C   0  0  0  0  0  0  0  0  0  0  0  0
    2.2708   -2.0825   -2.3949 H   0  0  0  0  0  0  0  0  0  0  0  0
    1.4541   -3.6220   -2.0870 H   0  0  0  0  0  0  0  0  0  0  0  0
    0.5784   -2.3099   -2.9004 H   0  0  0  0  0  0  0  0  0  0  0  0
   -0.4633    1.3736    0.7054 C   0  0  0  0  0  0  0  0  0  0  0  0
   -1.5938    1.8251    0.8828 O   0  0  0  0  0  0  0  0  0  0  0  0
    0.6192    2.1594    0.6433 N   0  0  0  0  0  0  0  0  0  0  0  0
    1.5145    1.7172    0.5071 H   0  0  0  0  0  0  0  0  0  0  0  0
    0.5815    3.6159    0.7599 C   0  0  0  0  0  0  0  0  0  0  0  0
    0.0461    3.8990    1.6689 H   0  0  0  0  0  0  0  0  0  0  0  0
    1.5944    4.0190    0.8000 H   0  0  0  0  0  0  0  0  0  0  0  0
    0.0558    4.0396   -0.0980 H   0  0  0  0  0  0  0  0  0  0  0  0
  5  6  2  0  0  0  0
  5  7  1  0  0  0  0
  2  3  1  0  0  0  0
  2  4  1  0  0  0  0
  2  5  1  0  0  0  0
  1  2  1  0  0  0  0
 24 25  2  0  0  0  0
 24 26  1  0  0  0  0
 20 21  1  0  0  0  0
 20 22  1  0  0  0  0
 20 23  1  0  0  0  0
 17 18  1  0  0  0  0
 17 19  1  0  0  0  0
 17 20  1  0  0  0  0
 13 14  1  0  0  0  0
 13 15  1  0  0  0  0
 13 16  1  0  0  0  0
 11 12  1  0  0  0  0
 11 13  1  0  0  0  0
 11 17  1  0  0  0  0
  9 10  1  0  0  0  0
  9 11  1  0  0  0  0
  9 24  1  0  0  0  0
  7  8  1  0  0  0  0
  7  9  1  0  0  0  0
 28 29  1  0  0  0  0
 28 30  1  0  0  0  0
 28 31  1  0  0  0  0
 26 27  1  0  0  0  0
 26 28  1  0  0  0  0
M  END
$$$$
default_name
  -OEChem-01062215323D

 31 30  0     1  0  0  0  0  0999 V2000
   -3.0760   -3.6390    1.5496 H   0  0  0  0  0  0  0  0  0  0  0  0
   -3.0940   -2.6290    1.1426 C   0  0  0  0  0  0  0  0  0  0  0  0
   -3.7160   -1.9930    1.7706 H   0  0  0  0  0  0  0  0  0  0  0  0
   -3.4880   -2.6500    0.1286 H   0  0  0  0  0  0  0  0  0  0  0  0
   -1.6860   -2.0850    1.1196 C   0  0  0  0  0  0  0  0  0  0  0  0
   -0.7540   -2.7700    1.5226 O   0  0  0  0  0  0  0  0  0  0  0  0
   -1.5320   -0.8490    0.6496 N   0  0  0  0  0  0  0  0  0  0  0  0
   -2.3500   -0.3360    0.3566 H   0  0  0  0  0  0  0  0  0  0  0  0
   -0.2470   -0.1410    0.5576 C   0  0  1  0  0  0  0  0  0  0  0  0
    0.3691   -0.4673    1.3961 H   0  0  0  0  0  0  0  0  0  0  0  0
    0.4876   -0.5282   -0.7511 C   0  0  1  0  0  0  0  0  0  0  0  0
   -0.2047   -0.3444   -1.5750 H   0  0  0  0  0  0  0  0  0  0  0  0
    1.7450    0.3279   -0.9955 C   0  0  0  0  0  0  0  0  0  0  0  0
    2.5023    0.1231   -0.2368 H   0  0  0  0  0  0  0  0  0  0  0  0
    2.1609    0.1168   -1.9794 H   0  0  0  0  0  0  0  0  0  0  0  0
    1.4911    1.3880   -0.9619 H   0  0  0  0  0  0  0  0  0  0  0  0
    0.8333   -2.0341   -0.7677 C   0  0  0  0  0  0  0  0  0  0  0  0
    1.6024   -2.2476   -0.0242 H   0  0  0  0  0  0  0  0  0  0  0  0
   -0.0602   -2.6019   -0.5082 H   0  0  0  0  0  0  0  0  0  0  0  0
    1.3176   -2.5413   -2.1328 C   0  0  0  0  0  0  0  0  0  0  0  0
    2.2708   -2.0825   -2.3949 H   0  0  0  0  0  0  0  0  0  0  0  0
    1.4541   -3.6220   -2.0870 H   0  0  0  0  0  0  0  0  0  0  0  0
    0.5784   -2.3099   -2.9004 H   0  0  0  0  0  0  0  0  0  0  0  0
   -0.4633    1.3736    0.7054 C   0  0  0  0  0  0  0  0  0  0  0  0
   -1.5243    1.8089    1.1507 O   0  0  0  0  0  0  0  0  0  0  0  0
    0.5440    2.1780    0.3427 N   0  0  0  0  0  0  0  0  0  0  0  0
    1.3877    1.7489   -0.0029 H   0  0  0  0  0  0  0  0  0  0  0  0
    0.4940    3.6369    0.4168 C   0  0  0  0  0  0  0  0  0  0  0  0
    0.1995    3.9450    1.4224 H   0  0  0  0  0  0  0  0  0  0  0  0
    1.4714    4.0616    0.1833 H   0  0  0  0  0  0  0  0  0  0  0  0
   -0.2450    4.0155   -0.2920 H   0  0  0  0  0  0  0  0  0  0  0  0
  5  6  2  0  0  0  0
  5  7  1  0  0  0  0
  2  3  1  0  0  0  0
  2  4  1  0  0  0  0
  2  5  1  0  0  0  0
  1  2  1  0  0  0  0
 24 25  2  0  0  0  0
 24 26  1  0  0  0  0
 20 21  1  0  0  0  0
 20 22  1  0  0  0  0
 20 23  1  0  0  0  0
 17 18  1  0  0  0  0
 17 19  1  0  0  0  0
 17 20  1  0  0  0  0
 13 14  1  0  0  0  0
 13 15  1  0  0  0  0
 13 16  1  0  0  0  0
 11 12  1  0  0  0  0
 11 13  1  0  0  0  0
 11 17  1  0  0  0  0
  9 10  1  0  0  0  0
  9 11  1  0  0  0  0
  9 24  1  0  0  0  0
  7  8  1  0  0  0  0
  7  9  1  0  0  0  0
 28 29  1  0  0  0  0
 28 30  1  0  0  0  0
 28 31  1  0  0  0  0
 26 27  1  0  0  0  0
 26 28  1  0  0  0  0
M  END
$$$$
default_name
  -OEChem-01062215323D

 31 30  0     1  0  0  0  0  0999 V2000
   -3.0760   -3.6390    1.5496 H   0  0  0  0  0  0  0  0  0  0  0  0
   -3.0940   -2.6290    1.1426 C   0  0  0  0  0  0  0  0  0  0  0  0
   -3.7160   -1.9930    1.7706 H   0  0  0  0  0  0  0  0  0  0  0  0
   -3.4880   -2.6500    0.1286 H   0  0  0  0  0  0  0  0  0  0  0  0
   -1.6860   -2.0850    1.1196 C   0  0  0  0  0  0  0  0  0  0  0  0
   -0.7540   -2.7700    1.5226 O   0  0  0  0  0  0  0  0  0  0  0  0
   -1.5320   -0.8490    0.6496 N   0  0  0  0  0  0  0  0  0  0  0  0
   -2.3500   -0.3360    0.3566 H   0  0  0  0  0  0  0  0  0  0  0  0
   -0.2470   -0.1410    0.5576 C   0  0  1  0  0  0  0  0  0  0  0  0
    0.3691   -0.4673    1.3961 H   0  0  0  0  0  0  0  0  0  0  0  0
    0.4876   -0.5282   -0.7511 C   0  0  1  0  0  0  0  0  0  0  0  0
   -0.2047   -0.3444   -1.5750 H   0  0  0  0  0  0  0  0  0  0  0  0
    1.7450    0.3279   -0.9955 C   0  0  0  0  0  0  0  0  0  0  0  0
    2.5023    0.1231   -0.2368 H   0  0  0  0  0  0  0  0  0  0  0  0
    2.1609    0.1168   -1.9794 H   0  0  0  0  0  0  0  0  0  0  0  0
    1.4911    1.3880   -0.9619 H   0  0  0  0  0  0  0  0  0  0  0  0
    0.8333   -2.0341   -0.7677 C   0  0  0  0  0  0  0  0  0  0  0  0
    1.6024   -2.2476   -0.0242 H   0  0  0  0  0  0  0  0  0  0  0  0
   -0.0602   -2.6019   -0.5082 H   0  0  0  0  0  0  0  0  0  0  0  0
    1.3176   -2.5413   -2.1328 C   0  0  0  0  0  0  0  0  0  0  0  0
    2.2708   -2.0825   -2.3949 H   0  0  0  0  0  0  0  0  0  0  0  0
    1.4541   -3.6220   -2.0870 H   0  0  0  0  0  0  0  0  0  0  0  0
    0.5784   -2.3099   -2.9004 H   0  0  0  0  0  0  0  0  0  0  0  0
   -0.4633    1.3736    0.7054 C   0  0  0  0  0  0  0  0  0  0  0  0
   -1.3884    1.8047    1.3923 O   0  0  0  0  0  0  0  0  0  0  0  0
    0.3942    2.1832    0.0709 N   0  0  0  0  0  0  0  0  0  0  0  0
    1.1345    1.7577   -0.4644 H   0  0  0  0  0  0  0  0  0  0  0  0
    0.3216    3.6425    0.1068 C   0  0  0  0  0  0  0  0  0  0  0  0
    0.2838    3.9842    1.1435 H   0  0  0  0  0  0  0  0  0  0  0  0
    1.1943    4.0773   -0.3826 H   0  0  0  0  0  0  0  0  0  0  0  0
   -0.5844    3.9778   -0.4017 H   0  0  0  0  0  0  0  0  0  0  0  0
  5  6  2  0  0  0  0
  5  7  1  0  0  0  0
  2  3  1  0  0  0  0
  2  4  1  0  0  0  0
  2  5  1  0  0  0  0
  1  2  1  0  0  0  0
 24 25  2  0  0  0  0
 24 26  1  0  0  0  0
 20 21  1  0  0  0  0
 20 22  1  0  0  0  0
 20 23  1  0  0  0  0
 17 18  1  0  0  0  0
 17 19  1  0  0  0  0
 17 20  1  0  0  0  0
 13 14  1  0  0  0  0
 13 15  1  0  0  0  0
 13 16  1  0  0  0  0
 11 12  1  0  0  0  0
 11 13  1  0  0  0  0
 11 17  1  0  0  0  0
  9 10  1  0  0  0  0
  9 11  1  0  0  0  0
  9 24  1  0  0  0  0
  7  8  1  0  0  0  0
  7  9  1  0  0  0  0
 28 29  1  0  0  0  0
 28 30  1  0  0  0  0
 28 31  1  0  0  0  0
 26 27  1  0  0  0  0
 26 28  1  0  0  0  0
M  END
$$$$
default_name
  -OEChem-01062215323D

 31 30  0     1  0  0  0  0  0999 V2000
   -3.0760   -3.6390    1.5496 H   0  0  0  0  0  0  0  0  0  0  0  0
   -3.0940   -2.6290    1.1426 C   0  0  0  0  0  0  0  0  0  0  0  0
   -3.7160   -1.9930    1.7706 H   0  0  0  0  0  0  0  0  0  0  0  0
   -3.4880   -2.6500    0.1286 H   0  0  0  0  0  0  0  0  0  0  0  0
   -1.6860   -2.0850    1.1196 C   0  0  0  0  0  0  0  0  0  0  0  0
   -0.7540   -2.7700    1.5226 O   0  0  0  0  0  0  0  0  0  0  0  0
   -1.5320   -0.8490    0.6496 N   0  0  0  0  0  0  0  0  0  0  0  0
   -2.3500   -0.3360    0.3566 H   0  0  0  0  0  0  0  0  0  0  0  0
   -0.2470   -0.1410    0.5576 C   0  0  1  0  0  0  0  0  0  0  0  0
    0.3691   -0.4673    1.3961 H   0  0  0  0  0  0  0  0  0  0  0  0
    0.4876   -0.5282   -0.7511 C   0  0  1  0  0  0  0  0  0  0  0  0
   -0.2047   -0.3444   -1.5750 H   0  0  0  0  0  0  0  0  0  0  0  0
    1.7450    0.3279   -0.9955 C   0  0  0  0  0  0  0  0  0  0  0  0
    2.5023    0.1231   -0.2368 H   0  0  0  0  0  0  0  0  0  0  0  0
    2.1609    0.1168   -1.9794 H   0  0  0  0  0  0  0  0  0  0  0  0
    1.4911    1.3880   -0.9619 H   0  0  0  0  0  0  0  0  0  0  0  0
    0.8333   -2.0341   -0.7677 C   0  0  0  0  0  0  0  0  0  0  0  0
    1.6024   -2.2476   -0.0242 H   0  0  0  0  0  0  0  0  0  0  0  0
   -0.0602   -2.6019   -0.5082 H   0  0  0  0  0  0  0  0  0  0  0  0
    1.3176   -2.5413   -2.1328 C   0  0  0  0  0  0  0  0  0  0  0  0
    2.2708   -2.0825   -2.3949 H   0  0  0  0  0  0  0  0  0  0  0  0
    1.4541   -3.6220   -2.0870 H   0  0  0  0  0  0  0  0  0  0  0  0
    0.5784   -2.3099   -2.9004 H   0  0  0  0  0  0  0  0  0  0  0  0
   -0.4633    1.3736    0.7054 C   0  0  0  0  0  0  0  0  0  0  0  0
   -1.1954    1.8129    1.5911 O   0  0  0  0  0  0  0  0  0  0  0  0
    0.1800    2.1745   -0.1536 N   0  0  0  0  0  0  0  0  0  0  0  0
    0.7719    1.7432   -0.8459 H   0  0  0  0  0  0  0  0  0  0  0  0
    0.0758    3.6324   -0.1488 C   0  0  0  0  0  0  0  0  0  0  0  0
    0.2930    4.0141    0.8512 H   0  0  0  0  0  0  0  0  0  0  0  0
    0.7819    4.0649   -0.8591 H   0  0  0  0  0  0  0  0  0  0  0  0
   -0.9393    3.9289   -0.4198 H   0  0  0  0  0  0  0  0  0  0  0  0
  5  6  2  0  0  0  0
  5  7  1  0  0  0  0
  2  3  1  0  0  0  0
  2  4  1  0  0  0  0
  2  5  1  0  0  0  0
  1  2  1  0  0  0  0
 24 25  2  0  0  0  0
 24 26  1  0  0  0  0
 20 21  1  0  0  0  0
 20 22  1  0  0  0  0
 20 23  1  0  0  0  0
 17 18  1  0  0  0  0
 17 19  1  0  0  0  0
 17 20  1  0  0  0  0
 13 14  1  0  0  0  0
 13 15  1  0  0  0  0
 13 16  1  0  0  0  0
 11 12  1  0  0  0  0
 11 13  1  0  0  0  0
 11 17  1  0  0  0  0
  9 10  1  0  0  0  0
  9 11  1  0  0  0  0
  9 24  1  0  0  0  0
  7  8  1  0  0  0  0
  7  9  1  0  0  0  0
 28 29  1  0  0  0  0
 28 30  1  0  0  0  0
 28 31  1  0  0  0  0
 26 27  1  0  0  0  0
 26 28  1  0  0  0  0
M  END
$$$$
default_name
  -OEChem-01062215323D

 31 30  0     1  0  0  0  0  0999 V2000
   -3.0760   -3.6390    1.5496 H   0  0  0  0  0  0  0  0  0  0  0  0
   -3.0940   -2.6290    1.1426 C   0  0  0  0  0  0  0  0  0  0  0  0
   -3.7160   -1.9930    1.7706 H   0  0  0  0  0  0  0  0  0  0  0  0
   -3.4880   -2.6500    0.1286 H   0  0  0  0  0  0  0  0  0  0  0  0
   -1.6860   -2.0850    1.1196 C   0  0  0  0  0  0  0  0  0  0  0  0
   -0.7540   -2.7700    1.5226 O   0  0  0  0  0  0  0  0  0  0  0  0
   -1.5320   -0.8490    0.6496 N   0  0  0  0  0  0  0  0  0  0  0  0
   -2.3500   -0.3360    0.3566 H   0  0  0  0  0  0  0  0  0  0  0  0
   -0.2470   -0.1410    0.5576 C   0  0  1  0  0  0  0  0  0  0  0  0
    0.3691   -0.4673    1.3961 H   0  0  0  0  0  0  0  0  0  0  0  0
    0.4876   -0.5282   -0.7511 C   0  0  1  0  0  0  0  0  0  0  0  0
   -0.2047   -0.3444   -1.5750 H   0  0  0  0  0  0  0  0  0  0  0  0
    1.7450    0.3279   -0.9955 C   0  0  0  0  0  0  0  0  0  0  0  0
    2.5023    0.1231   -0.2368 H   0  0  0  0  0  0  0  0  0  0  0  0
    2.1609    0.1168   -1.9794 H   0  0  0  0  0  0  0  0  0  0  0  0
    1.4911    1.3880   -0.9619 H   0  0  0  0  0  0  0  0  0  0  0  0
    0.8333   -2.0341   -0.7677 C   0  0  0  0  0  0  0  0  0  0  0  0
    1.6024   -2.2476   -0.0242 H   0  0  0  0  0  0  0  0  0  0  0  0
   -0.0602   -2.6019   -0.5082 H   0  0  0  0  0  0  0  0  0  0  0  0
    1.3176   -2.5413   -2.1328 C   0  0  0  0  0  0  0  0  0  0  0  0
    2.2708   -2.0825   -2.3949 H   0  0  0  0  0  0  0  0  0  0  0  0
    1.4541   -3.6220   -2.0870 H   0  0  0  0  0  0  0  0  0  0  0  0
    0.5784   -2.3099   -2.9004 H   0  0  0  0  0  0  0  0  0  0  0  0
   -0.4633    1.3736    0.7054 C   0  0  0  0  0  0  0  0  0  0  0  0
   -0.9585    1.8328    1.7337 O   0  0  0  0  0  0  0  0  0  0  0  0
   -0.0839    2.1526   -0.3156 N   0  0  0  0  0  0  0  0  0  0  0  0
    0.3248    1.7062   -1.1214 H   0  0  0  0  0  0  0  0  0  0  0  0
   -0.2266    3.6071   -0.3327 C   0  0  0  0  0  0  0  0  0  0  0  0
    0.2267    4.0325    0.5654 H   0  0  0  0  0  0  0  0  0  0  0  0
    0.2623    4.0253   -1.2138 H   0  0  0  0  0  0  0  0  0  0  0  0
   -1.2855    3.8721   -0.3450 H   0  0  0  0  0  0  0  0  0  0  0  0
  5  6  2  0  0  0  0
  5  7  1  0  0  0  0
  2  3  1  0  0  0  0
  2  4  1  0  0  0  0
  2  5  1  0  0  0  0
  1  2  1  0  0  0  0
 24 25  2  0  0  0  0
 24 26  1  0  0  0  0
 20 21  1  0  0  0  0
 20 22  1  0  0  0  0
 20 23  1  0  0  0  0
 17 18  1  0  0  0  0
 17 19  1  0  0  0  0
 17 20  1  0  0  0  0
 13 14  1  0  0  0  0
 13 15  1  0  0  0  0
 13 16  1  0  0  0  0
 11 12  1  0  0  0  0
 11 13  1  0  0  0  0
 11 17  1  0  0  0  0
  9 10  1  0  0  0  0
  9 11  1  0  0  0  0
  9 24  1  0  0  0  0
  7  8  1  0  0  0  0
  7  9  1  0  0  0  0
 28 29  1  0  0  0  0
 28 30  1  0  0  0  0
 28 31  1  0  0  0  0
 26 27  1  0  0  0  0
 26 28  1  0  0  0  0
M  END
$$$$
default_name
  -OEChem-01062215323D

 31 30  0     1  0  0  0  0  0999 V2000
   -3.0760   -3.6390    1.5496 H   0  0  0  0  0  0  0  0  0  0  0  0
   -3.0940   -2.6290    1.1426 C   0  0  0  0  0  0  0  0  0  0  0  0
   -3.7160   -1.9930    1.7706 H   0  0  0  0  0  0  0  0  0  0  0  0
   -3.4880   -2.6500    0.1286 H   0  0  0  0  0  0  0  0  0  0  0  0
   -1.6860   -2.0850    1.1196 C   0  0  0  0  0  0  0  0  0  0  0  0
   -0.7540   -2.7700    1.5226 O   0  0  0  0  0  0  0  0  0  0  0  0
   -1.5320   -0.8490    0.6496 N   0  0  0  0  0  0  0  0  0  0  0  0
   -2.3500   -0.3360    0.3566 H   0  0  0  0  0  0  0  0  0  0  0  0
   -0.2470   -0.1410    0.5576 C   0  0  1  0  0  0  0  0  0  0  0  0
    0.3691   -0.4673    1.3961 H   0  0  0  0  0  0  0  0  0  0  0  0
    0.4876   -0.5282   -0.7511 C   0  0  1  0  0  0  0  0  0  0  0  0
   -0.2047   -0.3444   -1.5750 H   0  0  0  0  0  0  0  0  0  0  0  0
    1.7450    0.3279   -0.9955 C   0  0  0  0  0  0  0  0  0  0  0  0
    2.5023    0.1231   -0.2368 H   0  0  0  0  0  0  0  0  0  0  0  0
    2.1609    0.1168   -1.9794 H   0  0  0  0  0  0  0  0  0  0  0  0
    1.4911    1.3880   -0.9619 H   0  0  0  0  0  0  0  0  0  0  0  0
    0.8333   -2.0341   -0.7677 C   0  0  0  0  0  0  0  0  0  0  0  0
    1.6024   -2.2476   -0.0242 H   0  0  0  0  0  0  0  0  0  0  0  0
   -0.0602   -2.6019   -0.5082 H   0  0  0  0  0  0  0  0  0  0  0  0
    1.3176   -2.5413   -2.1328 C   0  0  0  0  0  0  0  0  0  0  0  0
    2.2708   -2.0825   -2.3949 H   0  0  0  0  0  0  0  0  0  0  0  0
    1.4541   -3.6220   -2.0870 H   0  0  0  0  0  0  0  0  0  0  0  0
    0.5784   -2.3099   -2.9004 H   0  0  0  0  0  0  0  0  0  0  0  0
   -0.4633    1.3736    0.7054 C   0  0  0  0  0  0  0  0  0  0  0  0
   -0.6937    1.8631    1.8102 O   0  0  0  0  0  0  0  0  0  0  0  0
   -0.3795    2.1190   -0.4039 N   0  0  0  0  0  0  0  0  0  0  0  0
   -0.1764    1.6494   -1.2721 H   0  0  0  0  0  0  0  0  0  0  0  0
   -0.5649    3.5685   -0.4322 C   0  0  0  0  0  0  0  0  0  0  0  0
    0.0893    4.0382    0.3056 H   0  0  0  0  0  0  0  0  0  0  0  0
   -0.3290    3.9612   -1.4224 H   0  0  0  0  0  0  0  0  0  0  0  0
   -1.5995    3.8114   -0.1824 H   0  0  0  0  0  0  0  0  0  0  0  0
  5  6  2  0  0  0  0
  5  7  1  0  0  0  0
  2  3  1  0  0  0  0
  2  4  1  0  0  0  0
  2  5  1  0  0  0  0
  1  2  1  0  0  0  0
 24 25  2  0  0  0  0
 24 26  1  0  0  0  0
 20 21  1  0  0  0  0
 20 22  1  0  0  0  0
 20 23  1  0  0  0  0
 17 18  1  0  0  0  0
 17 19  1  0  0  0  0
 17 20  1  0  0  0  0
 13 14  1  0  0  0  0
 13 15  1  0  0  0  0
 13 16  1  0  0  0  0
 11 12  1  0  0  0  0
 11 13  1  0  0  0  0
 11 17  1  0  0  0  0
  9 10  1  0  0  0  0
  9 11  1  0  0  0  0
  9 24  1  0  0  0  0
  7  8  1  0  0  0  0
  7  9  1  0  0  0  0
 28 29  1  0  0  0  0
 28 30  1  0  0  0  0
 28 31  1  0  0  0  0
 26 27  1  0  0  0  0
 26 28  1  0  0  0  0
M  END
$$$$
default_name
  -OEChem-01062215323D

 31 30  0     1  0  0  0  0  0999 V2000
   -3.0760   -3.6390    1.5496 H   0  0  0  0  0  0  0  0  0  0  0  0
   -3.0940   -2.6290    1.1426 C   0  0  0  0  0  0  0  0  0  0  0  0
   -3.7160   -1.9930    1.7706 H   0  0  0  0  0  0  0  0  0  0  0  0
   -3.4880   -2.6500    0.1286 H   0  0  0  0  0  0  0  0  0  0  0  0
   -1.6860   -2.0850    1.1196 C   0  0  0  0  0  0  0  0  0  0  0  0
   -0.7540   -2.7700    1.5226 O   0  0  0  0  0  0  0  0  0  0  0  0
   -1.5320   -0.8490    0.6496 N   0  0  0  0  0  0  0  0  0  0  0  0
   -2.3500   -0.3360    0.3566 H   0  0  0  0  0  0  0  0  0  0  0  0
   -0.2470   -0.1410    0.5576 C   0  0  1  0  0  0  0  0  0  0  0  0
    0.3691   -0.4673    1.3961 H   0  0  0  0  0  0  0  0  0  0  0  0
    0.4876   -0.5282   -0.7511 C   0  0  1  0  0  0  0  0  0  0  0  0
   -0.2047   -0.3444   -1.5750 H   0  0  0  0  0  0  0  0  0  0  0  0
    1.7450    0.3279   -0.9955 C   0  0  0  0  0  0  0  0  0  0  0  0
    2.5023    0.1231   -0.2368 H   0  0  0  0  0  0  0  0  0  0  0  0
    2.1609    0.1168   -1.9794 H   0  0  0  0  0  0  0  0  0  0  0  0
    1.4911    1.3880   -0.9619 H   0  0  0  0  0  0  0  0  0  0  0  0
    0.8333   -2.0341   -0.7677 C   0  0  0  0  0  0  0  0  0  0  0  0
    1.6024   -2.2476   -0.0242 H   0  0  0  0  0  0  0  0  0  0  0  0
   -0.0602   -2.6019   -0.5082 H   0  0  0  0  0  0  0  0  0  0  0  0
    1.3176   -2.5413   -2.1328 C   0  0  0  0  0  0  0  0  0  0  0  0
    2.2708   -2.0825   -2.3949 H   0  0  0  0  0  0  0  0  0  0  0  0
    1.4541   -3.6220   -2.0870 H   0  0  0  0  0  0  0  0  0  0  0  0
    0.5784   -2.3099   -2.9004 H   0  0  0  0  0  0  0  0  0  0  0  0
   -0.4633    1.3736    0.7054 C   0  0  0  0  0  0  0  0  0  0  0  0
   -0.4193    1.9018    1.8156 O   0  0  0  0  0  0  0  0  0  0  0  0
   -0.6868    2.0760   -0.4126 N   0  0  0  0  0  0  0  0  0  0  0  0
   -0.6976    1.5765   -1.2878 H   0  0  0  0  0  0  0  0  0  0  0  0
   -0.9161    3.5192   -0.4407 C   0  0  0  0  0  0  0  0  0  0  0  0
   -0.1098    4.0309    0.0895 H   0  0  0  0  0  0  0  0  0  0  0  0
   -0.9518    3.8770   -1.4707 H   0  0  0  0  0  0  0  0  0  0  0  0
   -1.8597    3.7509    0.0569 H   0  0  0  0  0  0  0  0  0  0  0  0
  5  6  2  0  0  0  0
  5  7  1  0  0  0  0
  2  3  1  0  0  0  0
  2  4  1  0  0  0  0
  2  5  1  0  0  0  0
  1  2  1  0  0  0  0
 24 25  2  0  0  0  0
 24 26  1  0  0  0  0
 20 21  1  0  0  0  0
 20 22  1  0  0  0  0
 20 23  1  0  0  0  0
 17 18  1  0  0  0  0
 17 19  1  0  0  0  0
 17 20  1  0  0  0  0
 13 14  1  0  0  0  0
 13 15  1  0  0  0  0
 13 16  1  0  0  0  0
 11 12  1  0  0  0  0
 11 13  1  0  0  0  0
 11 17  1  0  0  0  0
  9 10  1  0  0  0  0
  9 11  1  0  0  0  0
  9 24  1  0  0  0  0
  7  8  1  0  0  0  0
  7  9  1  0  0  0  0
 28 29  1  0  0  0  0
 28 30  1  0  0  0  0
 28 31  1  0  0  0  0
 26 27  1  0  0  0  0
 26 28  1  0  0  0  0
M  END
$$$$
default_name
  -OEChem-01062215323D

 31 30  0     1  0  0  0  0  0999 V2000
   -3.0760   -3.6390    1.5496 H   0  0  0  0  0  0  0  0  0  0  0  0
   -3.0940   -2.6290    1.1426 C   0  0  0  0  0  0  0  0  0  0  0  0
   -3.7160   -1.9930    1.7706 H   0  0  0  0  0  0  0  0  0  0  0  0
   -3.4880   -2.6500    0.1286 H   0  0  0  0  0  0  0  0  0  0  0  0
   -1.6860   -2.0850    1.1196 C   0  0  0  0  0  0  0  0  0  0  0  0
   -0.7540   -2.7700    1.5226 O   0  0  0  0  0  0  0  0  0  0  0  0
   -1.5320   -0.8490    0.6496 N   0  0  0  0  0  0  0  0  0  0  0  0
   -2.3500   -0.3360    0.3566 H   0  0  0  0  0  0  0  0  0  0  0  0
   -0.2470   -0.1410    0.5576 C   0  0  1  0  0  0  0  0  0  0  0  0
    0.3691   -0.4673    1.3961 H   0  0  0  0  0  0  0  0  0  0  0  0
    0.4876   -0.5282   -0.7511 C   0  0  1  0  0  0  0  0  0  0  0  0
   -0.2047   -0.3444   -1.5750 H   0  0  0  0  0  0  0  0  0  0  0  0
    1.7450    0.3279   -0.9955 C   0  0  0  0  0  0  0  0  0  0  0  0
    2.5023    0.1231   -0.2368 H   0  0  0  0  0  0  0  0  0  0  0  0
    2.1609    0.1168   -1.9794 H   0  0  0  0  0  0  0  0  0  0  0  0
    1.4911    1.3880   -0.9619 H   0  0  0  0  0  0  0  0  0  0  0  0
    0.8333   -2.0341   -0.7677 C   0  0  0  0  0  0  0  0  0  0  0  0
    1.6024   -2.2476   -0.0242 H   0  0  0  0  0  0  0  0  0  0  0  0
   -0.0602   -2.6019   -0.5082 H   0  0  0  0  0  0  0  0  0  0  0  0
    1.3176   -2.5413   -2.1328 C   0  0  0  0  0  0  0  0  0  0  0  0
    2.2708   -2.0825   -2.3949 H   0  0  0  0  0  0  0  0  0  0  0  0
    1.4541   -3.6220   -2.0870 H   0  0  0  0  0  0  0  0  0  0  0  0
    0.5784   -2.3099   -2.9004 H   0  0  0  0  0  0  0  0  0  0  0  0
   -0.4633    1.3736    0.7054 C   0  0  0  0  0  0  0  0  0  0  0  0
   -0.1538    1.9462    1.7493 O   0  0  0  0  0  0  0  0  0  0  0  0
   -0.9847    2.0265   -0.3410 N   0  0  0  0  0  0  0  0  0  0  0  0
   -1.2032    1.4925   -1.1674 H   0  0  0  0  0  0  0  0  0  0  0  0
   -1.2563    3.4625   -0.3575 C   0  0  0  0  0  0  0  0  0  0  0  0
   -0.3571    4.0110   -0.0682 H   0  0  0  0  0  0  0  0  0  0  0  0
   -1.5636    3.7784   -1.3555 H   0  0  0  0  0  0  0  0  0  0  0  0
   -2.0486    3.6947    0.3567 H   0  0  0  0  0  0  0  0  0  0  0  0
  5  6  2  0  0  0  0
  5  7  1  0  0  0  0
  2  3  1  0  0  0  0
  2  4  1  0  0  0  0
  2  5  1  0  0  0  0
  1  2  1  0  0  0  0
 24 25  2  0  0  0  0
 24 26  1  0  0  0  0
 20 21  1  0  0  0  0
 20 22  1  0  0  0  0
 20 23  1  0  0  0  0
 17 18  1  0  0  0  0
 17 19  1  0  0  0  0
 17 20  1  0  0  0  0
 13 14  1  0  0  0  0
 13 15  1  0  0  0  0
 13 16  1  0  0  0  0
 11 12  1  0  0  0  0
 11 13  1  0  0  0  0
 11 17  1  0  0  0  0
  9 10  1  0  0  0  0
  9 11  1  0  0  0  0
  9 24  1  0  0  0  0
  7  8  1  0  0  0  0
  7  9  1  0  0  0  0
 28 29  1  0  0  0  0
 28 30  1  0  0  0  0
 28 31  1  0  0  0  0
 26 27  1  0  0  0  0
 26 28  1  0  0  0  0
M  END
$$$$
default_name
  -OEChem-01062215323D

 31 30  0     1  0  0  0  0  0999 V2000
   -3.0760   -3.6390    1.5496 H   0  0  0  0  0  0  0  0  0  0  0  0
   -3.0940   -2.6290    1.1426 C   0  0  0  0  0  0  0  0  0  0  0  0
   -3.7160   -1.9930    1.7706 H   0  0  0  0  0  0  0  0  0  0  0  0
   -3.4880   -2.6500    0.1286 H   0  0  0  0  0  0  0  0  0  0  0  0
   -1.6860   -2.0850    1.1196 C   0  0  0  0  0  0  0  0  0  0  0  0
   -0.7540   -2.7700    1.5226 O   0  0  0  0  0  0  0  0  0  0  0  0
   -1.5320   -0.8490    0.6496 N   0  0  0  0  0  0  0  0  0  0  0  0
   -2.3500   -0.3360    0.3566 H   0  0  0  0  0  0  0  0  0  0  0  0
   -0.2470   -0.1410    0.5576 C   0  0  1  0  0  0  0  0  0  0  0  0
    0.3691   -0.4673    1.3961 H   0  0  0  0  0  0  0  0  0  0  0  0
    0.4876   -0.5282   -0.7511 C   0  0  1  0  0  0  0  0  0  0  0  0
   -0.2047   -0.3444   -1.5750 H   0  0  0  0  0  0  0  0  0  0  0  0
    1.7450    0.3279   -0.9955 C   0  0  0  0  0  0  0  0  0  0  0  0
    2.5023    0.1231   -0.2368 H   0  0  0  0  0  0  0  0  0  0  0  0
    2.1609    0.1168   -1.9794 H   0  0  0  0  0  0  0  0  0  0  0  0
    1.4911    1.3880   -0.9619 H   0  0  0  0  0  0  0  0  0  0  0  0
    0.8333   -2.0341   -0.7677 C   0  0  0  0  0  0  0  0  0  0  0  0
    1.6024   -2.2476   -0.0242 H   0  0  0  0  0  0  0  0  0  0  0  0
   -0.0602   -2.6019   -0.5082 H   0  0  0  0  0  0  0  0  0  0  0  0
    1.3176   -2.5413   -2.1328 C   0  0  0  0  0  0  0  0  0  0  0  0
    2.2708   -2.0825   -2.3949 H   0  0  0  0  0  0  0  0  0  0  0  0
    1.4541   -3.6220   -2.0870 H   0  0  0  0  0  0  0  0  0  0  0  0
    0.5784   -2.3099   -2.9004 H   0  0  0  0  0  0  0  0  0  0  0  0
   -0.4633    1.3736    0.7054 C   0  0  0  0  0  0  0  0  0  0  0  0
    0.0847    1.9932    1.6160 O   0  0  0  0  0  0  0  0  0  0  0  0
   -1.2530    1.9738   -0.1942 N   0  0  0  0  0  0  0  0  0  0  0  0
   -1.6587    1.4033   -0.9191 H   0  0  0  0  0  0  0  0  0  0  0  0
   -1.5623    3.4023   -0.1884 C   0  0  0  0  0  0  0  0  0  0  0  0
   -0.6357    3.9798   -0.1567 H   0  0  0  0  0  0  0  0  0  0  0  0
   -2.1227    3.6722   -1.0846 H   0  0  0  0  0  0  0  0  0  0  0  0
   -2.1531    3.6466    0.6965 H   0  0  0  0  0  0  0  0  0  0  0  0
  5  6  2  0  0  0  0
  5  7  1  0  0  0  0
  2  3  1  0  0  0  0
  2  4  1  0  0  0  0
  2  5  1  0  0  0  0
  1  2  1  0  0  0  0
 24 25  2  0  0  0  0
 24 26  1  0  0  0  0
 20 21  1  0  0  0  0
 20 22  1  0  0  0  0
 20 23  1  0  0  0  0
 17 18  1  0  0  0  0
 17 19  1  0  0  0  0
 17 20  1  0  0  0  0
 13 14  1  0  0  0  0
 13 15  1  0  0  0  0
 13 16  1  0  0  0  0
 11 12  1  0  0  0  0
 11 13  1  0  0  0  0
 11 17  1  0  0  0  0
  9 10  1  0  0  0  0
  9 11  1  0  0  0  0
  9 24  1  0  0  0  0
  7  8  1  0  0  0  0
  7  9  1  0  0  0  0
 28 29  1  0  0  0  0
 28 30  1  0  0  0  0
 28 31  1  0  0  0  0
 26 27  1  0  0  0  0
 26 28  1  0  0  0  0
M  END
$$$$
default_name
  -OEChem-01062215323D

 31 30  0     1  0  0  0  0  0999 V2000
   -3.0760   -3.6390    1.5496 H   0  0  0  0  0  0  0  0  0  0  0  0
   -3.0940   -2.6290    1.1426 C   0  0  0  0  0  0  0  0  0  0  0  0
   -3.7160   -1.9930    1.7706 H   0  0  0  0  0  0  0  0  0  0  0  0
   -3.4880   -2.6500    0.1286 H   0  0  0  0  0  0  0  0  0  0  0  0
   -1.6860   -2.0850    1.1196 C   0  0  0  0  0  0  0  0  0  0  0  0
   -0.7540   -2.7700    1.5226 O   0  0  0  0  0  0  0  0  0  0  0  0
   -1.5320   -0.8490    0.6496 N   0  0  0  0  0  0  0  0  0  0  0  0
   -2.3500   -0.3360    0.3566 H   0  0  0  0  0  0  0  0  0  0  0  0
   -0.2470   -0.1410    0.5576 C   0  0  1  0  0  0  0  0  0  0  0  0
    0.3691   -0.4673    1.3961 H   0  0  0  0  0  0  0  0  0  0  0  0
    0.4876   -0.5282   -0.7511 C   0  0  1  0  0  0  0  0  0  0  0  0
   -0.2047   -0.3444   -1.5750 H   0  0  0  0  0  0  0  0  0  0  0  0
    1.7450    0.3279   -0.9955 C   0  0  0  0  0  0  0  0  0  0  0  0
    2.5023    0.1231   -0.2368 H   0  0  0  0  0  0  0  0  0  0  0  0
    2.1609    0.1168   -1.9794 H   0  0  0  0  0  0  0  0  0  0  0  0
    1.4911    1.3880   -0.9619 H   0  0  0  0  0  0  0  0  0  0  0  0
    0.8333   -2.0341   -0.7677 C   0  0  0  0  0  0  0  0  0  0  0  0
    1.6024   -2.2476   -0.0242 H   0  0  0  0  0  0  0  0  0  0  0  0
   -0.0602   -2.6019   -0.5082 H   0  0  0  0  0  0  0  0  0  0  0  0
    1.3176   -2.5413   -2.1328 C   0  0  0  0  0  0  0  0  0  0  0  0
    2.2708   -2.0825   -2.3949 H   0  0  0  0  0  0  0  0  0  0  0  0
    1.4541   -3.6220   -2.0870 H   0  0  0  0  0  0  0  0  0  0  0  0
    0.5784   -2.3099   -2.9004 H   0  0  0  0  0  0  0  0  0  0  0  0
   -0.4633    1.3736    0.7054 C   0  0  0  0  0  0  0  0  0  0  0  0
    0.2798    2.0397    1.4247 O   0  0  0  0  0  0  0  0  0  0  0  0
   -1.4734    1.9216    0.0181 N   0  0  0  0  0  0  0  0  0  0  0  0
   -2.0332    1.3147   -0.5598 H   0  0  0  0  0  0  0  0  0  0  0  0
   -1.8132    3.3427    0.0553 C   0  0  0  0  0  0  0  0  0  0  0  0
   -0.9266    3.9396   -0.1701 H   0  0  0  0  0  0  0  0  0  0  0  0
   -2.5910    3.5655   -0.6765 H   0  0  0  0  0  0  0  0  0  0  0  0
   -2.1663    3.6099    1.0531 H   0  0  0  0  0  0  0  0  0  0  0  0
  5  6  2  0  0  0  0
  5  7  1  0  0  0  0
  2  3  1  0  0  0  0
  2  4  1  0  0  0  0
  2  5  1  0  0  0  0
  1  2  1  0  0  0  0
 24 25  2  0  0  0  0
 24 26  1  0  0  0  0
 20 21  1  0  0  0  0
 20 22  1  0  0  0  0
 20 23  1  0  0  0  0
 17 18  1  0  0  0  0
 17 19  1  0  0  0  0
 17 20  1  0  0  0  0
 13 14  1  0  0  0  0
 13 15  1  0  0  0  0
 13 16  1  0  0  0  0
 11 12  1  0  0  0  0
 11 13  1  0  0  0  0
 11 17  1  0  0  0  0
  9 10  1  0  0  0  0
  9 11  1  0  0  0  0
  9 24  1  0  0  0  0
  7  8  1  0  0  0  0
  7  9  1  0  0  0  0
 28 29  1  0  0  0  0
 28 30  1  0  0  0  0
 28 31  1  0  0  0  0
 26 27  1  0  0  0  0
 26 28  1  0  0  0  0
M  END
$$$$
default_name
  -OEChem-01062215323D

 31 30  0     1  0  0  0  0  0999 V2000
   -3.0760   -3.6390    1.5496 H   0  0  0  0  0  0  0  0  0  0  0  0
   -3.0940   -2.6290    1.1426 C   0  0  0  0  0  0  0  0  0  0  0  0
   -3.7160   -1.9930    1.7706 H   0  0  0  0  0  0  0  0  0  0  0  0
   -3.4880   -2.6500    0.1286 H   0  0  0  0  0  0  0  0  0  0  0  0
   -1.6860   -2.0850    1.1196 C   0  0  0  0  0  0  0  0  0  0  0  0
   -0.7540   -2.7700    1.5226 O   0  0  0  0  0  0  0  0  0  0  0  0
   -1.5320   -0.8490    0.6496 N   0  0  0  0  0  0  0  0  0  0  0  0
   -2.3500   -0.3360    0.3566 H   0  0  0  0  0  0  0  0  0  0  0  0
   -0.2470   -0.1410    0.5576 C   0  0  1  0  0  0  0  0  0  0  0  0
    0.3691   -0.4673    1.3961 H   0  0  0  0  0  0  0  0  0  0  0  0
    0.4876   -0.5282   -0.7511 C   0  0  1  0  0  0  0  0  0  0  0  0
   -0.2047   -0.3444   -1.5750 H   0  0  0  0  0  0  0  0  0  0  0  0
    1.7450    0.3279   -0.9955 C   0  0  0  0  0  0  0  0  0  0  0  0
    2.5023    0.1231   -0.2368 H   0  0  0  0  0  0  0  0  0  0  0  0
    2.1609    0.1168   -1.9794 H   0  0  0  0  0  0  0  0  0  0  0  0
    1.4911    1.3880   -0.9619 H   0  0  0  0  0  0  0  0  0  0  0  0
    0.8333   -2.0341   -0.7677 C   0  0  0  0  0  0  0  0  0  0  0  0
    1.6024   -2.2476   -0.0242 H   0  0  0  0  0  0  0  0  0  0  0  0
   -0.0602   -2.6019   -0.5082 H   0  0  0  0  0  0  0  0  0  0  0  0
    1.3176   -2.5413   -2.1328 C   0  0  0  0  0  0  0  0  0  0  0  0
    2.2708   -2.0825   -2.3949 H   0  0  0  0  0  0  0  0  0  0  0  0
    1.4541   -3.6220   -2.0870 H   0  0  0  0  0  0  0  0  0  0  0  0
    0.5784   -2.3099   -2.9004 H   0  0  0  0  0  0  0  0  0  0  0  0
   -0.4633    1.3736    0.7054 C   0  0  0  0  0  0  0  0  0  0  0  0
    0.4184    2.0826    1.1884 O   0  0  0  0  0  0  0  0  0  0  0  0
   -1.6309    1.8735    0.2812 N   0  0  0  0  0  0  0  0  0  0  0  0
   -2.3011    1.2330   -0.1140 H   0  0  0  0  0  0  0  0  0  0  0  0
   -1.9919    3.2878    0.3568 C   0  0  0  0  0  0  0  0  0  0  0  0
   -1.2100    3.8930   -0.1073 H   0  0  0  0  0  0  0  0  0  0  0  0
   -2.9367    3.4656   -0.1590 H   0  0  0  0  0  0  0  0  0  0  0  0
   -2.0871    3.5872    1.4023 H   0  0  0  0  0  0  0  0  0  0  0  0
  5  6  2  0  0  0  0
  5  7  1  0  0  0  0
  2  3  1  0  0  0  0
  2  4  1  0  0  0  0
  2  5  1  0  0  0  0
  1  2  1  0  0  0  0
 24 25  2  0  0  0  0
 24 26  1  0  0  0  0
 20 21  1  0  0  0  0
 20 22  1  0  0  0  0
 20 23  1  0  0  0  0
 17 18  1  0  0  0  0
 17 19  1  0  0  0  0
 17 20  1  0  0  0  0
 13 14  1  0  0  0  0
 13 15  1  0  0  0  0
 13 16  1  0  0  0  0
 11 12  1  0  0  0  0
 11 13  1  0  0  0  0
 11 17  1  0  0  0  0
  9 10  1  0  0  0  0
  9 11  1  0  0  0  0
  9 24  1  0  0  0  0
  7  8  1  0  0  0  0
  7  9  1  0  0  0  0
 28 29  1  0  0  0  0
 28 30  1  0  0  0  0
 28 31  1  0  0  0  0
 26 27  1  0  0  0  0
 26 28  1  0  0  0  0
M  END
$$$$
default_name
  -OEChem-01062215323D

 31 30  0     1  0  0  0  0  0999 V2000
   -3.0760   -3.6390    1.5496 H   0  0  0  0  0  0  0  0  0  0  0  0
   -3.0940   -2.6290    1.1426 C   0  0  0  0  0  0  0  0  0  0  0  0
   -3.7160   -1.9930    1.7706 H   0  0  0  0  0  0  0  0  0  0  0  0
   -3.4880   -2.6500    0.1286 H   0  0  0  0  0  0  0  0  0  0  0  0
   -1.6860   -2.0850    1.1196 C   0  0  0  0  0  0  0  0  0  0  0  0
   -0.7540   -2.7700    1.5226 O   0  0  0  0  0  0  0  0  0  0  0  0
   -1.5320   -0.8490    0.6496 N   0  0  0  0  0  0  0  0  0  0  0  0
   -2.3500   -0.3360    0.3566 H   0  0  0  0  0  0  0  0  0  0  0  0
   -0.2470   -0.1410    0.5576 C   0  0  1  0  0  0  0  0  0  0  0  0
    0.3691   -0.4673    1.3961 H   0  0  0  0  0  0  0  0  0  0  0  0
    0.4876   -0.5282   -0.7511 C   0  0  1  0  0  0  0  0  0  0  0  0
   -0.2047   -0.3444   -1.5750 H   0  0  0  0  0  0  0  0  0  0  0  0
    1.7450    0.3279   -0.9955 C   0  0  0  0  0  0  0  0  0  0  0  0
    2.5023    0.1231   -0.2368 H   0  0  0  0  0  0  0  0  0  0  0  0
    2.1609    0.1168   -1.9794 H   0  0  0  0  0  0  0  0  0  0  0  0
    1.4911    1.3880   -0.9619 H   0  0  0  0  0  0  0  0  0  0  0  0
    0.8333   -2.0341   -0.7677 C   0  0  0  0  0  0  0  0  0  0  0  0
    1.6024   -2.2476   -0.0242 H   0  0  0  0  0  0  0  0  0  0  0  0
   -0.0602   -2.6019   -0.5082 H   0  0  0  0  0  0  0  0  0  0  0  0
    1.3176   -2.5413   -2.1328 C   0  0  0  0  0  0  0  0  0  0  0  0
    2.2708   -2.0825   -2.3949 H   0  0  0  0  0  0  0  0  0  0  0  0
    1.4541   -3.6220   -2.0870 H   0  0  0  0  0  0  0  0  0  0  0  0
    0.5784   -2.3099   -2.9004 H   0  0  0  0  0  0  0  0  0  0  0  0
   -0.4633    1.3736    0.7054 C   0  0  0  0  0  0  0  0  0  0  0  0
    0.4909    2.1188    0.9233 O   0  0  0  0  0  0  0  0  0  0  0  0
   -1.7147    1.8326    0.5772 N   0  0  0  0  0  0  0  0  0  0  0  0
   -2.4442    1.1636    0.3879 H   0  0  0  0  0  0  0  0  0  0  0  0
   -2.0863    3.2413    0.6955 C   0  0  0  0  0  0  0  0  0  0  0  0
   -1.4665    3.8432    0.0273 H   0  0  0  0  0  0  0  0  0  0  0  0
   -3.1361    3.3794    0.4327 H   0  0  0  0  0  0  0  0  0  0  0  0
   -1.9210    3.5799    1.7201 H   0  0  0  0  0  0  0  0  0  0  0  0
  5  6  2  0  0  0  0
  5  7  1  0  0  0  0
  2  3  1  0  0  0  0
  2  4  1  0  0  0  0
  2  5  1  0  0  0  0
  1  2  1  0  0  0  0
 24 25  2  0  0  0  0
 24 26  1  0  0  0  0
 20 21  1  0  0  0  0
 20 22  1  0  0  0  0
 20 23  1  0  0  0  0
 17 18  1  0  0  0  0
 17 19  1  0  0  0  0
 17 20  1  0  0  0  0
 13 14  1  0  0  0  0
 13 15  1  0  0  0  0
 13 16  1  0  0  0  0
 11 12  1  0  0  0  0
 11 13  1  0  0  0  0
 11 17  1  0  0  0  0
  9 10  1  0  0  0  0
  9 11  1  0  0  0  0
  9 24  1  0  0  0  0
  7  8  1  0  0  0  0
  7  9  1  0  0  0  0
 28 29  1  0  0  0  0
 28 30  1  0  0  0  0
 28 31  1  0  0  0  0
 26 27  1  0  0  0  0
 26 28  1  0  0  0  0
M  END
$$$$
default_name
  -OEChem-01062215323D

 31 30  0     1  0  0  0  0  0999 V2000
   -3.0760   -3.6390    1.5496 H   0  0  0  0  0  0  0  0  0  0  0  0
   -3.0940   -2.6290    1.1426 C   0  0  0  0  0  0  0  0  0  0  0  0
   -3.7160   -1.9930    1.7706 H   0  0  0  0  0  0  0  0  0  0  0  0
   -3.4880   -2.6500    0.1286 H   0  0  0  0  0  0  0  0  0  0  0  0
   -1.6860   -2.0850    1.1196 C   0  0  0  0  0  0  0  0  0  0  0  0
   -0.7540   -2.7700    1.5226 O   0  0  0  0  0  0  0  0  0  0  0  0
   -1.5320   -0.8490    0.6496 N   0  0  0  0  0  0  0  0  0  0  0  0
   -2.3500   -0.3360    0.3566 H   0  0  0  0  0  0  0  0  0  0  0  0
   -0.2470   -0.1410    0.5576 C   0  0  1  0  0  0  0  0  0  0  0  0
    0.3691   -0.4673    1.3961 H   0  0  0  0  0  0  0  0  0  0  0  0
    0.4876   -0.5282   -0.7511 C   0  0  1  0  0  0  0  0  0  0  0  0
   -0.2047   -0.3444   -1.5750 H   0  0  0  0  0  0  0  0  0  0  0  0
    1.7450    0.3279   -0.9955 C   0  0  0  0  0  0  0  0  0  0  0  0
    2.5023    0.1231   -0.2368 H   0  0  0  0  0  0  0  0  0  0  0  0
    2.1609    0.1168   -1.9794 H   0  0  0  0  0  0  0  0  0  0  0  0
    1.4911    1.3880   -0.9619 H   0  0  0  0  0  0  0  0  0  0  0  0
    0.8333   -2.0341   -0.7677 C   0  0  0  0  0  0  0  0  0  0  0  0
    1.6024   -2.2476   -0.0242 H   0  0  0  0  0  0  0  0  0  0  0  0
   -0.0602   -2.6019   -0.5082 H   0  0  0  0  0  0  0  0  0  0  0  0
    1.3176   -2.5413   -2.1328 C   0  0  0  0  0  0  0  0  0  0  0  0
    2.2708   -2.0825   -2.3949 H   0  0  0  0  0  0  0  0  0  0  0  0
    1.4541   -3.6220   -2.0870 H   0  0  0  0  0  0  0  0  0  0  0  0
    0.5784   -2.3099   -2.9004 H   0  0  0  0  0  0  0  0  0  0  0  0
   -0.4633    1.3736    0.7054 C   0  0  0  0  0  0  0  0  0  0  0  0
    0.4925    2.1460    0.6475 O   0  0  0  0  0  0  0  0  0  0  0  0
   -1.7191    1.8019    0.8861 N   0  0  0  0  0  0  0  0  0  0  0  0
   -2.4526    1.1113    0.9117 H   0  0  0  0  0  0  0  0  0  0  0  0
   -2.0899    3.2063    1.0486 C   0  0  0  0  0  0  0  0  0  0  0  0
   -1.6788    3.7937    0.2246 H   0  0  0  0  0  0  0  0  0  0  0  0
   -3.1756    3.3127    1.0582 H   0  0  0  0  0  0  0  0  0  0  0  0
   -1.6793    3.5885    1.9851 H   0  0  0  0  0  0  0  0  0  0  0  0
  5  6  2  0  0  0  0
  5  7  1  0  0  0  0
  2  3  1  0  0  0  0
  2  4  1  0  0  0  0
  2  5  1  0  0  0  0
  1  2  1  0  0  0  0
 24 25  2  0  0  0  0
 24 26  1  0  0  0  0
 20 21  1  0  0  0  0
 20 22  1  0  0  0  0
 20 23  1  0  0  0  0
 17 18  1  0  0  0  0
 17 19  1  0  0  0  0
 17 20  1  0  0  0  0
 13 14  1  0  0  0  0
 13 15  1  0  0  0  0
 13 16  1  0  0  0  0
 11 12  1  0  0  0  0
 11 13  1  0  0  0  0
 11 17  1  0  0  0  0
  9 10  1  0  0  0  0
  9 11  1  0  0  0  0
  9 24  1  0  0  0  0
  7  8  1  0  0  0  0
  7  9  1  0  0  0  0
 28 29  1  0  0  0  0
 28 30  1  0  0  0  0
 28 31  1  0  0  0  0
 26 27  1  0  0  0  0
 26 28  1  0  0  0  0
M  END
$$$$
default_name
  -OEChem-01062215323D

 31 30  0     1  0  0  0  0  0999 V2000
   -3.0760   -3.6390    1.5496 H   0  0  0  0  0  0  0  0  0  0  0  0
   -3.0940   -2.6290    1.1426 C   0  0  0  0  0  0  0  0  0  0  0  0
   -3.7160   -1.9930    1.7706 H   0  0  0  0  0  0  0  0  0  0  0  0
   -3.4880   -2.6500    0.1286 H   0  0  0  0  0  0  0  0  0  0  0  0
   -1.6860   -2.0850    1.1196 C   0  0  0  0  0  0  0  0  0  0  0  0
   -0.7540   -2.7700    1.5226 O   0  0  0  0  0  0  0  0  0  0  0  0
   -1.5320   -0.8490    0.6496 N   0  0  0  0  0  0  0  0  0  0  0  0
   -2.3500   -0.3360    0.3566 H   0  0  0  0  0  0  0  0  0  0  0  0
   -0.2470   -0.1410    0.5576 C   0  0  1  0  0  0  0  0  0  0  0  0
    0.3691   -0.4673    1.3961 H   0  0  0  0  0  0  0  0  0  0  0  0
    0.4876   -0.5282   -0.7511 C   0  0  1  0  0  0  0  0  0  0  0  0
   -0.2047   -0.3444   -1.5750 H   0  0  0  0  0  0  0  0  0  0  0  0
    1.7450    0.3279   -0.9955 C   0  0  0  0  0  0  0  0  0  0  0  0
    2.5023    0.1231   -0.2368 H   0  0  0  0  0  0  0  0  0  0  0  0
    2.1609    0.1168   -1.9794 H   0  0  0  0  0  0  0  0  0  0  0  0
    1.4911    1.3880   -0.9619 H   0  0  0  0  0  0  0  0  0  0  0  0
    0.8333   -2.0341   -0.7677 C   0  0  0  0  0  0  0  0  0  0  0  0
    1.6024   -2.2476   -0.0242 H   0  0  0  0  0  0  0  0  0  0  0  0
   -0.0602   -2.6019   -0.5082 H   0  0  0  0  0  0  0  0  0  0  0  0
    1.3176   -2.5413   -2.1328 C   0  0  0  0  0  0  0  0  0  0  0  0
    2.2708   -2.0825   -2.3949 H   0  0  0  0  0  0  0  0  0  0  0  0
    1.4541   -3.6220   -2.0870 H   0  0  0  0  0  0  0  0  0  0  0  0
    0.5784   -2.3099   -2.9004 H   0  0  0  0  0  0  0  0  0  0  0  0
   -0.4633    1.3736    0.7054 C   0  0  0  0  0  0  0  0  0  0  0  0
    0.4229    2.1622    0.3796 O   0  0  0  0  0  0  0  0  0  0  0  0
   -1.6439    1.7833    1.1866 N   0  0  0  0  0  0  0  0  0  0  0  0
   -2.3259    1.0796    1.4217 H   0  0  0  0  0  0  0  0  0  0  0  0
   -2.0025    3.1853    1.3917 C   0  0  0  0  0  0  0  0  0  0  0  0
   -1.8323    3.7477    0.4710 H   0  0  0  0  0  0  0  0  0  0  0  0
   -3.0526    3.2701    1.6749 H   0  0  0  0  0  0  0  0  0  0  0  0
   -1.3785    3.6125    2.1791 H   0  0  0  0  0  0  0  0  0  0  0  0
  5  6  2  0  0  0  0
  5  7  1  0  0  0  0
  2  3  1  0  0  0  0
  2  4  1  0  0  0  0
  2  5  1  0  0  0  0
  1  2  1  0  0  0  0
 24 25  2  0  0  0  0
 24 26  1  0  0  0  0
 20 21  1  0  0  0  0
 20 22  1  0  0  0  0
 20 23  1  0  0  0  0
 17 18  1  0  0  0  0
 17 19  1  0  0  0  0
 17 20  1  0  0  0  0
 13 14  1  0  0  0  0
 13 15  1  0  0  0  0
 13 16  1  0  0  0  0
 11 12  1  0  0  0  0
 11 13  1  0  0  0  0
 11 17  1  0  0  0  0
  9 10  1  0  0  0  0
  9 11  1  0  0  0  0
  9 24  1  0  0  0  0
  7  8  1  0  0  0  0
  7  9  1  0  0  0  0
 28 29  1  0  0  0  0
 28 30  1  0  0  0  0
 28 31  1  0  0  0  0
 26 27  1  0  0  0  0
 26 28  1  0  0  0  0
M  END
$$$$
default_name
  -OEChem-01062215323D

 31 30  0     1  0  0  0  0  0999 V2000
   -3.0760   -3.6390    1.5496 H   0  0  0  0  0  0  0  0  0  0  0  0
   -3.0940   -2.6290    1.1426 C   0  0  0  0  0  0  0  0  0  0  0  0
   -3.7160   -1.9930    1.7706 H   0  0  0  0  0  0  0  0  0  0  0  0
   -3.4880   -2.6500    0.1286 H   0  0  0  0  0  0  0  0  0  0  0  0
   -1.6860   -2.0850    1.1196 C   0  0  0  0  0  0  0  0  0  0  0  0
   -0.7540   -2.7700    1.5226 O   0  0  0  0  0  0  0  0  0  0  0  0
   -1.5320   -0.8490    0.6496 N   0  0  0  0  0  0  0  0  0  0  0  0
   -2.3500   -0.3360    0.3566 H   0  0  0  0  0  0  0  0  0  0  0  0
   -0.2470   -0.1410    0.5576 C   0  0  1  0  0  0  0  0  0  0  0  0
    0.3691   -0.4673    1.3961 H   0  0  0  0  0  0  0  0  0  0  0  0
    0.4876   -0.5282   -0.7511 C   0  0  1  0  0  0  0  0  0  0  0  0
   -0.2047   -0.3444   -1.5750 H   0  0  0  0  0  0  0  0  0  0  0  0
    1.7450    0.3279   -0.9955 C   0  0  0  0  0  0  0  0  0  0  0  0
    2.5023    0.1231   -0.2368 H   0  0  0  0  0  0  0  0  0  0  0  0
    2.1609    0.1168   -1.9794 H   0  0  0  0  0  0  0  0  0  0  0  0
    1.4911    1.3880   -0.9619 H   0  0  0  0  0  0  0  0  0  0  0  0
    0.8333   -2.0341   -0.7677 C   0  0  0  0  0  0  0  0  0  0  0  0
    1.6024   -2.2476   -0.0242 H   0  0  0  0  0  0  0  0  0  0  0  0
   -0.0602   -2.6019   -0.5082 H   0  0  0  0  0  0  0  0  0  0  0  0
    1.3176   -2.5413   -2.1328 C   0  0  0  0  0  0  0  0  0  0  0  0
    2.2708   -2.0825   -2.3949 H   0  0  0  0  0  0  0  0  0  0  0  0
    1.4541   -3.6220   -2.0870 H   0  0  0  0  0  0  0  0  0  0  0  0
    0.5784   -2.3099   -2.9004 H   0  0  0  0  0  0  0  0  0  0  0  0
   -0.4633    1.3736    0.7054 C   0  0  0  0  0  0  0  0  0  0  0  0
    0.2870    2.1663    0.1380 O   0  0  0  0  0  0  0  0  0  0  0  0
   -1.4941    1.7781    1.4584 N   0  0  0  0  0  0  0  0  0  0  0  0
   -2.0727    1.0707    1.8832 H   0  0  0  0  0  0  0  0  0  0  0  0
   -1.8300    3.1797    1.7017 C   0  0  0  0  0  0  0  0  0  0  0  0
   -1.9165    3.7085    0.7499 H   0  0  0  0  0  0  0  0  0  0  0  0
   -2.7755    3.2544    2.2408 H   0  0  0  0  0  0  0  0  0  0  0  0
   -1.0391    3.6503    2.2889 H   0  0  0  0  0  0  0  0  0  0  0  0
  5  6  2  0  0  0  0
  5  7  1  0  0  0  0
  2  3  1  0  0  0  0
  2  4  1  0  0  0  0
  2  5  1  0  0  0  0
  1  2  1  0  0  0  0
 24 25  2  0  0  0  0
 24 26  1  0  0  0  0
 20 21  1  0  0  0  0
 20 22  1  0  0  0  0
 20 23  1  0  0  0  0
 17 18  1  0  0  0  0
 17 19  1  0  0  0  0
 17 20  1  0  0  0  0
 13 14  1  0  0  0  0
 13 15  1  0  0  0  0
 13 16  1  0  0  0  0
 11 12  1  0  0  0  0
 11 13  1  0  0  0  0
 11 17  1  0  0  0  0
  9 10  1  0  0  0  0
  9 11  1  0  0  0  0
  9 24  1  0  0  0  0
  7  8  1  0  0  0  0
  7  9  1  0  0  0  0
 28 29  1  0  0  0  0
 28 30  1  0  0  0  0
 28 31  1  0  0  0  0
 26 27  1  0  0  0  0
 26 28  1  0  0  0  0
M  END
$$$$
default_name
  -OEChem-01062215323D

 31 30  0     1  0  0  0  0  0999 V2000
   -3.0760   -3.6390    1.5496 H   0  0  0  0  0  0  0  0  0  0  0  0
   -3.0940   -2.6290    1.1426 C   0  0  0  0  0  0  0  0  0  0  0  0
   -3.7160   -1.9930    1.7706 H   0  0  0  0  0  0  0  0  0  0  0  0
   -3.4880   -2.6500    0.1286 H   0  0  0  0  0  0  0  0  0  0  0  0
   -1.6860   -2.0850    1.1196 C   0  0  0  0  0  0  0  0  0  0  0  0
   -0.7540   -2.7700    1.5226 O   0  0  0  0  0  0  0  0  0  0  0  0
   -1.5320   -0.8490    0.6496 N   0  0  0  0  0  0  0  0  0  0  0  0
   -2.3500   -0.3360    0.3566 H   0  0  0  0  0  0  0  0  0  0  0  0
   -0.2470   -0.1410    0.5576 C   0  0  1  0  0  0  0  0  0  0  0  0
    0.3691   -0.4673    1.3961 H   0  0  0  0  0  0  0  0  0  0  0  0
    0.4876   -0.5282   -0.7511 C   0  0  1  0  0  0  0  0  0  0  0  0
   -0.2047   -0.3444   -1.5750 H   0  0  0  0  0  0  0  0  0  0  0  0
    1.7450    0.3279   -0.9955 C   0  0  0  0  0  0  0  0  0  0  0  0
    2.5023    0.1231   -0.2368 H   0  0  0  0  0  0  0  0  0  0  0  0
    2.1609    0.1168   -1.9794 H   0  0  0  0  0  0  0  0  0  0  0  0
    1.4911    1.3880   -0.9619 H   0  0  0  0  0  0  0  0  0  0  0  0
    0.8333   -2.0341   -0.7677 C   0  0  0  0  0  0  0  0  0  0  0  0
    1.6024   -2.2476   -0.0242 H   0  0  0  0  0  0  0  0  0  0  0  0
   -0.0602   -2.6019   -0.5082 H   0  0  0  0  0  0  0  0  0  0  0  0
    1.3176   -2.5413   -2.1328 C   0  0  0  0  0  0  0  0  0  0  0  0
    2.2708   -2.0825   -2.3949 H   0  0  0  0  0  0  0  0  0  0  0  0
    1.4541   -3.6220   -2.0870 H   0  0  0  0  0  0  0  0  0  0  0  0
    0.5784   -2.3099   -2.9004 H   0  0  0  0  0  0  0  0  0  0  0  0
   -0.4633    1.3736    0.7054 C   0  0  0  0  0  0  0  0  0  0  0  0
    0.0940    2.1582   -0.0609 O   0  0  0  0  0  0  0  0  0  0  0  0
   -1.2800    1.7868    1.6829 N   0  0  0  0  0  0  0  0  0  0  0  0
   -1.7101    1.0852    2.2646 H   0  0  0  0  0  0  0  0  0  0  0  0
   -1.5842    3.1898    1.9573 C   0  0  0  0  0  0  0  0  0  0  0  0
   -1.9258    3.6786    1.0422 H   0  0  0  0  0  0  0  0  0  0  0  0
   -2.3631    3.2668    2.7173 H   0  0  0  0  0  0  0  0  0  0  0  0
   -0.6842    3.6992    2.3070 H   0  0  0  0  0  0  0  0  0  0  0  0
  5  6  2  0  0  0  0
  5  7  1  0  0  0  0
  2  3  1  0  0  0  0
  2  4  1  0  0  0  0
  2  5  1  0  0  0  0
  1  2  1  0  0  0  0
 24 25  2  0  0  0  0
 24 26  1  0  0  0  0
 20 21  1  0  0  0  0
 20 22  1  0  0  0  0
 20 23  1  0  0  0  0
 17 18  1  0  0  0  0
 17 19  1  0  0  0  0
 17 20  1  0  0  0  0
 13 14  1  0  0  0  0
 13 15  1  0  0  0  0
 13 16  1  0  0  0  0
 11 12  1  0  0  0  0
 11 13  1  0  0  0  0
 11 17  1  0  0  0  0
  9 10  1  0  0  0  0
  9 11  1  0  0  0  0
  9 24  1  0  0  0  0
  7  8  1  0  0  0  0
  7  9  1  0  0  0  0
 28 29  1  0  0  0  0
 28 30  1  0  0  0  0
 28 31  1  0  0  0  0
 26 27  1  0  0  0  0
 26 28  1  0  0  0  0
M  END
$$$$
default_name
  -OEChem-01062215323D

 31 30  0     1  0  0  0  0  0999 V2000
   -3.0760   -3.6390    1.5496 H   0  0  0  0  0  0  0  0  0  0  0  0
   -3.0940   -2.6290    1.1426 C   0  0  0  0  0  0  0  0  0  0  0  0
   -3.7160   -1.9930    1.7706 H   0  0  0  0  0  0  0  0  0  0  0  0
   -3.4880   -2.6500    0.1286 H   0  0  0  0  0  0  0  0  0  0  0  0
   -1.6860   -2.0850    1.1196 C   0  0  0  0  0  0  0  0  0  0  0  0
   -0.7540   -2.7700    1.5226 O   0  0  0  0  0  0  0  0  0  0  0  0
   -1.5320   -0.8490    0.6496 N   0  0  0  0  0  0  0  0  0  0  0  0
   -2.3500   -0.3360    0.3566 H   0  0  0  0  0  0  0  0  0  0  0  0
   -0.2470   -0.1410    0.5576 C   0  0  1  0  0  0  0  0  0  0  0  0
    0.3691   -0.4673    1.3961 H   0  0  0  0  0  0  0  0  0  0  0  0
    0.4876   -0.5282   -0.7511 C   0  0  1  0  0  0  0  0  0  0  0  0
   -0.2047   -0.3444   -1.5750 H   0  0  0  0  0  0  0  0  0  0  0  0
    1.7450    0.3279   -0.9955 C   0  0  0  0  0  0  0  0  0  0  0  0
    2.5023    0.1231   -0.2368 H   0  0  0  0  0  0  0  0  0  0  0  0
    2.1609    0.1168   -1.9794 H   0  0  0  0  0  0  0  0  0  0  0  0
    1.4911    1.3880   -0.9619 H   0  0  0  0  0  0  0  0  0  0  0  0
    0.8333   -2.0341   -0.7677 C   0  0  0  0  0  0  0  0  0  0  0  0
    1.6024   -2.2476   -0.0242 H   0  0  0  0  0  0  0  0  0  0  0  0
   -0.0602   -2.6019   -0.5082 H   0  0  0  0  0  0  0  0  0  0  0  0
    1.3176   -2.5413   -2.1328 C   0  0  0  0  0  0  0  0  0  0  0  0
    2.2708   -2.0825   -2.3949 H   0  0  0  0  0  0  0  0  0  0  0  0
    1.4541   -3.6220   -2.0870 H   0  0  0  0  0  0  0  0  0  0  0  0
    0.5784   -2.3099   -2.9004 H   0  0  0  0  0  0  0  0  0  0  0  0
   -0.4633    1.3736    0.7054 C   0  0  0  0  0  0  0  0  0  0  0  0
   -0.1429    2.1383   -0.2034 O   0  0  0  0  0  0  0  0  0  0  0  0
   -1.0161    1.8087    1.8449 N   0  0  0  0  0  0  0  0  0  0  0  0
   -1.2630    1.1222    2.5401 H   0  0  0  0  0  0  0  0  0  0  0  0
   -1.2818    3.2150    2.1412 C   0  0  0  0  0  0  0  0  0  0  0  0
   -1.8594    3.6602    1.3280 H   0  0  0  0  0  0  0  0  0  0  0  0
   -1.8435    3.3064    3.0720 H   0  0  0  0  0  0  0  0  0  0  0  0
   -0.3380    3.7559    2.2322 H   0  0  0  0  0  0  0  0  0  0  0  0
  5  6  2  0  0  0  0
  5  7  1  0  0  0  0
  2  3  1  0  0  0  0
  2  4  1  0  0  0  0
  2  5  1  0  0  0  0
  1  2  1  0  0  0  0
 24 25  2  0  0  0  0
 24 26  1  0  0  0  0
 20 21  1  0  0  0  0
 20 22  1  0  0  0  0
 20 23  1  0  0  0  0
 17 18  1  0  0  0  0
 17 19  1  0  0  0  0
 17 20  1  0  0  0  0
 13 14  1  0  0  0  0
 13 15  1  0  0  0  0
 13 16  1  0  0  0  0
 11 12  1  0  0  0  0
 11 13  1  0  0  0  0
 11 17  1  0  0  0  0
  9 10  1  0  0  0  0
  9 11  1  0  0  0  0
  9 24  1  0  0  0  0
  7  8  1  0  0  0  0
  7  9  1  0  0  0  0
 28 29  1  0  0  0  0
 28 30  1  0  0  0  0
 28 31  1  0  0  0  0
 26 27  1  0  0  0  0
 26 28  1  0  0  0  0
M  END
$$$$
default_name
  -OEChem-01062215323D

 31 30  0     1  0  0  0  0  0999 V2000
   -3.0760   -3.6390    1.5496 H   0  0  0  0  0  0  0  0  0  0  0  0
   -3.0940   -2.6290    1.1426 C   0  0  0  0  0  0  0  0  0  0  0  0
   -3.7160   -1.9930    1.7706 H   0  0  0  0  0  0  0  0  0  0  0  0
   -3.4880   -2.6500    0.1286 H   0  0  0  0  0  0  0  0  0  0  0  0
   -1.6860   -2.0850    1.1196 C   0  0  0  0  0  0  0  0  0  0  0  0
   -0.7540   -2.7700    1.5226 O   0  0  0  0  0  0  0  0  0  0  0  0
   -1.5320   -0.8490    0.6496 N   0  0  0  0  0  0  0  0  0  0  0  0
   -2.3500   -0.3360    0.3566 H   0  0  0  0  0  0  0  0  0  0  0  0
   -0.2470   -0.1410    0.5576 C   0  0  1  0  0  0  0  0  0  0  0  0
    0.3691   -0.4673    1.3961 H   0  0  0  0  0  0  0  0  0  0  0  0
    0.4876   -0.5282   -0.7511 C   0  0  1  0  0  0  0  0  0  0  0  0
   -0.2047   -0.3444   -1.5750 H   0  0  0  0  0  0  0  0  0  0  0  0
    1.7450    0.3279   -0.9955 C   0  0  0  0  0  0  0  0  0  0  0  0
    2.5023    0.1231   -0.2368 H   0  0  0  0  0  0  0  0  0  0  0  0
    2.1609    0.1168   -1.9794 H   0  0  0  0  0  0  0  0  0  0  0  0
    1.4911    1.3880   -0.9619 H   0  0  0  0  0  0  0  0  0  0  0  0
    0.8333   -2.0341   -0.7677 C   0  0  0  0  0  0  0  0  0  0  0  0
    1.6024   -2.2476   -0.0242 H   0  0  0  0  0  0  0  0  0  0  0  0
   -0.0602   -2.6019   -0.5082 H   0  0  0  0  0  0  0  0  0  0  0  0
    1.3176   -2.5413   -2.1328 C   0  0  0  0  0  0  0  0  0  0  0  0
    2.2708   -2.0825   -2.3949 H   0  0  0  0  0  0  0  0  0  0  0  0
    1.4541   -3.6220   -2.0870 H   0  0  0  0  0  0  0  0  0  0  0  0
    0.5784   -2.3099   -2.9004 H   0  0  0  0  0  0  0  0  0  0  0  0
   -0.4633    1.3736    0.7054 C   0  0  0  0  0  0  0  0  0  0  0  0
   -0.4076    2.1079   -0.2800 O   0  0  0  0  0  0  0  0  0  0  0  0
   -0.7204    1.8423    1.9332 N   0  0  0  0  0  0  0  0  0  0  0  0
   -0.7618    1.1791    2.6909 H   0  0  0  0  0  0  0  0  0  0  0  0
   -0.9435    3.2536    2.2407 C   0  0  0  0  0  0  0  0  0  0  0  0
   -1.7220    3.6545    1.5878 H   0  0  0  0  0  0  0  0  0  0  0  0
   -1.2522    3.3705    3.2806 H   0  0  0  0  0  0  0  0  0  0  0  0
   -0.0240    3.8166    2.0696 H   0  0  0  0  0  0  0  0  0  0  0  0
  5  6  2  0  0  0  0
  5  7  1  0  0  0  0
  2  3  1  0  0  0  0
  2  4  1  0  0  0  0
  2  5  1  0  0  0  0
  1  2  1  0  0  0  0
 24 25  2  0  0  0  0
 24 26  1  0  0  0  0
 20 21  1  0  0  0  0
 20 22  1  0  0  0  0
 20 23  1  0  0  0  0
 17 18  1  0  0  0  0
 17 19  1  0  0  0  0
 17 20  1  0  0  0  0
 13 14  1  0  0  0  0
 13 15  1  0  0  0  0
 13 16  1  0  0  0  0
 11 12  1  0  0  0  0
 11 13  1  0  0  0  0
 11 17  1  0  0  0  0
  9 10  1  0  0  0  0
  9 11  1  0  0  0  0
  9 24  1  0  0  0  0
  7  8  1  0  0  0  0
  7  9  1  0  0  0  0
 28 29  1  0  0  0  0
 28 30  1  0  0  0  0
 28 31  1  0  0  0  0
 26 27  1  0  0  0  0
 26 28  1  0  0  0  0
M  END
$$$$
default_name
  -OEChem-01062215323D

 31 30  0     1  0  0  0  0  0999 V2000
   -3.0760   -3.6390    1.5496 H   0  0  0  0  0  0  0  0  0  0  0  0
   -3.0940   -2.6290    1.1426 C   0  0  0  0  0  0  0  0  0  0  0  0
   -3.7160   -1.9930    1.7706 H   0  0  0  0  0  0  0  0  0  0  0  0
   -3.4880   -2.6500    0.1286 H   0  0  0  0  0  0  0  0  0  0  0  0
   -1.6860   -2.0850    1.1196 C   0  0  0  0  0  0  0  0  0  0  0  0
   -0.7540   -2.7700    1.5226 O   0  0  0  0  0  0  0  0  0  0  0  0
   -1.5320   -0.8490    0.6496 N   0  0  0  0  0  0  0  0  0  0  0  0
   -2.3500   -0.3360    0.3566 H   0  0  0  0  0  0  0  0  0  0  0  0
   -0.2470   -0.1410    0.5576 C   0  0  1  0  0  0  0  0  0  0  0  0
    0.3691   -0.4673    1.3961 H   0  0  0  0  0  0  0  0  0  0  0  0
    0.4876   -0.5282   -0.7511 C   0  0  1  0  0  0  0  0  0  0  0  0
   -0.2047   -0.3444   -1.5750 H   0  0  0  0  0  0  0  0  0  0  0  0
    1.7450    0.3279   -0.9955 C   0  0  0  0  0  0  0  0  0  0  0  0
    2.5023    0.1231   -0.2368 H   0  0  0  0  0  0  0  0  0  0  0  0
    2.1609    0.1168   -1.9794 H   0  0  0  0  0  0  0  0  0  0  0  0
    1.4911    1.3880   -0.9619 H   0  0  0  0  0  0  0  0  0  0  0  0
    0.8333   -2.0341   -0.7677 C   0  0  0  0  0  0  0  0  0  0  0  0
    1.6024   -2.2476   -0.0242 H   0  0  0  0  0  0  0  0  0  0  0  0
   -0.0602   -2.6019   -0.5082 H   0  0  0  0  0  0  0  0  0  0  0  0
    1.3176   -2.5413   -2.1328 C   0  0  0  0  0  0  0  0  0  0  0  0
    2.2708   -2.0825   -2.3949 H   0  0  0  0  0  0  0  0  0  0  0  0
    1.4541   -3.6220   -2.0870 H   0  0  0  0  0  0  0  0  0  0  0  0
    0.5784   -2.3099   -2.9004 H   0  0  0  0  0  0  0  0  0  0  0  0
   -0.4633    1.3736    0.7054 C   0  0  0  0  0  0  0  0  0  0  0  0
   -0.6820    2.0693   -0.2853 O   0  0  0  0  0  0  0  0  0  0  0  0
   -0.4132    1.8853    1.9419 N   0  0  0  0  0  0  0  0  0  0  0  0
   -0.2406    1.2519    2.7065 H   0  0  0  0  0  0  0  0  0  0  0  0
   -0.5923    3.3030    2.2492 C   0  0  0  0  0  0  0  0  0  0  0  0
   -1.5229    3.6618    1.8039 H   0  0  0  0  0  0  0  0  0  0  0  0
   -0.6294    3.4547    3.3289 H   0  0  0  0  0  0  0  0  0  0  0  0
    0.2362    3.8772    1.8302 H   0  0  0  0  0  0  0  0  0  0  0  0
  5  6  2  0  0  0  0
  5  7  1  0  0  0  0
  2  3  1  0  0  0  0
  2  4  1  0  0  0  0
  2  5  1  0  0  0  0
  1  2  1  0  0  0  0
 24 25  2  0  0  0  0
 24 26  1  0  0  0  0
 20 21  1  0  0  0  0
 20 22  1  0  0  0  0
 20 23  1  0  0  0  0
 17 18  1  0  0  0  0
 17 19  1  0  0  0  0
 17 20  1  0  0  0  0
 13 14  1  0  0  0  0
 13 15  1  0  0  0  0
 13 16  1  0  0  0  0
 11 12  1  0  0  0  0
 11 13  1  0  0  0  0
 11 17  1  0  0  0  0
  9 10  1  0  0  0  0
  9 11  1  0  0  0  0
  9 24  1  0  0  0  0
  7  8  1  0  0  0  0
  7  9  1  0  0  0  0
 28 29  1  0  0  0  0
 28 30  1  0  0  0  0
 28 31  1  0  0  0  0
 26 27  1  0  0  0  0
 26 28  1  0  0  0  0
M  END
$$$$
default_name
  -OEChem-01062215323D

 31 30  0     1  0  0  0  0  0999 V2000
   -3.0760   -3.6390    1.5496 H   0  0  0  0  0  0  0  0  0  0  0  0
   -3.0940   -2.6290    1.1426 C   0  0  0  0  0  0  0  0  0  0  0  0
   -3.7160   -1.9930    1.7706 H   0  0  0  0  0  0  0  0  0  0  0  0
   -3.4880   -2.6500    0.1286 H   0  0  0  0  0  0  0  0  0  0  0  0
   -1.6860   -2.0850    1.1196 C   0  0  0  0  0  0  0  0  0  0  0  0
   -0.7540   -2.7700    1.5226 O   0  0  0  0  0  0  0  0  0  0  0  0
   -1.5320   -0.8490    0.6496 N   0  0  0  0  0  0  0  0  0  0  0  0
   -2.3500   -0.3360    0.3566 H   0  0  0  0  0  0  0  0  0  0  0  0
   -0.2470   -0.1410    0.5576 C   0  0  1  0  0  0  0  0  0  0  0  0
    0.3691   -0.4673    1.3961 H   0  0  0  0  0  0  0  0  0  0  0  0
    0.4876   -0.5282   -0.7511 C   0  0  1  0  0  0  0  0  0  0  0  0
   -0.2047   -0.3444   -1.5750 H   0  0  0  0  0  0  0  0  0  0  0  0
    1.7450    0.3279   -0.9955 C   0  0  0  0  0  0  0  0  0  0  0  0
    2.5023    0.1231   -0.2368 H   0  0  0  0  0  0  0  0  0  0  0  0
    2.1609    0.1168   -1.9794 H   0  0  0  0  0  0  0  0  0  0  0  0
    1.4911    1.3880   -0.9619 H   0  0  0  0  0  0  0  0  0  0  0  0
    0.8333   -2.0341   -0.7677 C   0  0  0  0  0  0  0  0  0  0  0  0
    1.6024   -2.2476   -0.0242 H   0  0  0  0  0  0  0  0  0  0  0  0
   -0.0602   -2.6019   -0.5082 H   0  0  0  0  0  0  0  0  0  0  0  0
    1.3176   -2.5413   -2.1328 C   0  0  0  0  0  0  0  0  0  0  0  0
    2.2708   -2.0825   -2.3949 H   0  0  0  0  0  0  0  0  0  0  0  0
    1.4541   -3.6220   -2.0870 H   0  0  0  0  0  0  0  0  0  0  0  0
    0.5784   -2.3099   -2.9004 H   0  0  0  0  0  0  0  0  0  0  0  0
   -0.4633    1.3736    0.7054 C   0  0  0  0  0  0  0  0  0  0  0  0
   -0.9476    2.0249   -0.2191 O   0  0  0  0  0  0  0  0  0  0  0  0
   -0.1152    1.9348    1.8703 N   0  0  0  0  0  0  0  0  0  0  0  0
    0.2650    1.3359    2.5861 H   0  0  0  0  0  0  0  0  0  0  0  0
   -0.2521    3.3596    2.1660 C   0  0  0  0  0  0  0  0  0  0  0  0
   -1.2756    3.6817    1.9616 H   0  0  0  0  0  0  0  0  0  0  0  0
   -0.0176    3.5533    3.2137 H   0  0  0  0  0  0  0  0  0  0  0  0
    0.4251    3.9334    1.5304 H   0  0  0  0  0  0  0  0  0  0  0  0
  5  6  2  0  0  0  0
  5  7  1  0  0  0  0
  2  3  1  0  0  0  0
  2  4  1  0  0  0  0
  2  5  1  0  0  0  0
  1  2  1  0  0  0  0
 24 25  2  0  0  0  0
 24 26  1  0  0  0  0
 20 21  1  0  0  0  0
 20 22  1  0  0  0  0
 20 23  1  0  0  0  0
 17 18  1  0  0  0  0
 17 19  1  0  0  0  0
 17 20  1  0  0  0  0
 13 14  1  0  0  0  0
 13 15  1  0  0  0  0
 13 16  1  0  0  0  0
 11 12  1  0  0  0  0
 11 13  1  0  0  0  0
 11 17  1  0  0  0  0
  9 10  1  0  0  0  0
  9 11  1  0  0  0  0
  9 24  1  0  0  0  0
  7  8  1  0  0  0  0
  7  9  1  0  0  0  0
 28 29  1  0  0  0  0
 28 30  1  0  0  0  0
 28 31  1  0  0  0  0
 26 27  1  0  0  0  0
 26 28  1  0  0  0  0
M  END
$$$$
default_name
  -OEChem-01062215323D

 31 30  0     1  0  0  0  0  0999 V2000
   -3.0760   -3.6390    1.5496 H   0  0  0  0  0  0  0  0  0  0  0  0
   -3.0940   -2.6290    1.1426 C   0  0  0  0  0  0  0  0  0  0  0  0
   -3.7160   -1.9930    1.7706 H   0  0  0  0  0  0  0  0  0  0  0  0
   -3.4880   -2.6500    0.1286 H   0  0  0  0  0  0  0  0  0  0  0  0
   -1.6860   -2.0850    1.1196 C   0  0  0  0  0  0  0  0  0  0  0  0
   -0.7540   -2.7700    1.5226 O   0  0  0  0  0  0  0  0  0  0  0  0
   -1.5320   -0.8490    0.6496 N   0  0  0  0  0  0  0  0  0  0  0  0
   -2.3500   -0.3360    0.3566 H   0  0  0  0  0  0  0  0  0  0  0  0
   -0.2470   -0.1410    0.5576 C   0  0  1  0  0  0  0  0  0  0  0  0
    0.3691   -0.4673    1.3961 H   0  0  0  0  0  0  0  0  0  0  0  0
    0.4876   -0.5282   -0.7511 C   0  0  1  0  0  0  0  0  0  0  0  0
   -0.2047   -0.3444   -1.5750 H   0  0  0  0  0  0  0  0  0  0  0  0
    1.7450    0.3279   -0.9955 C   0  0  0  0  0  0  0  0  0  0  0  0
    2.5023    0.1231   -0.2368 H   0  0  0  0  0  0  0  0  0  0  0  0
    2.1609    0.1168   -1.9794 H   0  0  0  0  0  0  0  0  0  0  0  0
    1.4911    1.3880   -0.9619 H   0  0  0  0  0  0  0  0  0  0  0  0
    0.8333   -2.0341   -0.7677 C   0  0  0  0  0  0  0  0  0  0  0  0
    1.6024   -2.2476   -0.0242 H   0  0  0  0  0  0  0  0  0  0  0  0
   -0.0602   -2.6019   -0.5082 H   0  0  0  0  0  0  0  0  0  0  0  0
    1.3176   -2.5413   -2.1328 C   0  0  0  0  0  0  0  0  0  0  0  0
    2.2708   -2.0825   -2.3949 H   0  0  0  0  0  0  0  0  0  0  0  0
    1.4541   -3.6220   -2.0870 H   0  0  0  0  0  0  0  0  0  0  0  0
    0.5784   -2.3099   -2.9004 H   0  0  0  0  0  0  0  0  0  0  0  0
   -0.4633    1.3736    0.7054 C   0  0  0  0  0  0  0  0  0  0  0  0
   -1.1860    1.9778   -0.0857 O   0  0  0  0  0  0  0  0  0  0  0  0
    0.1531    1.9875    1.7235 N   0  0  0  0  0  0  0  0  0  0  0  0
    0.7206    1.4252    2.3378 H   0  0  0  0  0  0  0  0  0  0  0  0
    0.0538    3.4198    1.9969 C   0  0  0  0  0  0  0  0  0  0  0  0
   -0.9970    3.7129    2.0502 H   0  0  0  0  0  0  0  0  0  0  0  0
    0.5415    3.6595    2.9429 H   0  0  0  0  0  0  0  0  0  0  0  0
    0.5296    3.9815    1.1906 H   0  0  0  0  0  0  0  0  0  0  0  0
  5  6  2  0  0  0  0
  5  7  1  0  0  0  0
  2  3  1  0  0  0  0
  2  4  1  0  0  0  0
  2  5  1  0  0  0  0
  1  2  1  0  0  0  0
 24 25  2  0  0  0  0
 24 26  1  0  0  0  0
 20 21  1  0  0  0  0
 20 22  1  0  0  0  0
 20 23  1  0  0  0  0
 17 18  1  0  0  0  0
 17 19  1  0  0  0  0
 17 20  1  0  0  0  0
 13 14  1  0  0  0  0
 13 15  1  0  0  0  0
 13 16  1  0  0  0  0
 11 12  1  0  0  0  0
 11 13  1  0  0  0  0
 11 17  1  0  0  0  0
  9 10  1  0  0  0  0
  9 11  1  0  0  0  0
  9 24  1  0  0  0  0
  7  8  1  0  0  0  0
  7  9  1  0  0  0  0
 28 29  1  0  0  0  0
 28 30  1  0  0  0  0
 28 31  1  0  0  0  0
 26 27  1  0  0  0  0
 26 28  1  0  0  0  0
M  END
$$$$
default_name
  -OEChem-01062215323D

 31 30  0     1  0  0  0  0  0999 V2000
   -3.0760   -3.6390    1.5496 H   0  0  0  0  0  0  0  0  0  0  0  0
   -3.0940   -2.6290    1.1426 C   0  0  0  0  0  0  0  0  0  0  0  0
   -3.7160   -1.9930    1.7706 H   0  0  0  0  0  0  0  0  0  0  0  0
   -3.4880   -2.6500    0.1286 H   0  0  0  0  0  0  0  0  0  0  0  0
   -1.6860   -2.0850    1.1196 C   0  0  0  0  0  0  0  0  0  0  0  0
   -0.7540   -2.7700    1.5226 O   0  0  0  0  0  0  0  0  0  0  0  0
   -1.5320   -0.8490    0.6496 N   0  0  0  0  0  0  0  0  0  0  0  0
   -2.3500   -0.3360    0.3566 H   0  0  0  0  0  0  0  0  0  0  0  0
   -0.2470   -0.1410    0.5576 C   0  0  1  0  0  0  0  0  0  0  0  0
    0.3691   -0.4673    1.3961 H   0  0  0  0  0  0  0  0  0  0  0  0
    0.4876   -0.5282   -0.7511 C   0  0  1  0  0  0  0  0  0  0  0  0
   -0.2047   -0.3444   -1.5750 H   0  0  0  0  0  0  0  0  0  0  0  0
    1.7450    0.3279   -0.9955 C   0  0  0  0  0  0  0  0  0  0  0  0
    2.5023    0.1231   -0.2368 H   0  0  0  0  0  0  0  0  0  0  0  0
    2.1609    0.1168   -1.9794 H   0  0  0  0  0  0  0  0  0  0  0  0
    1.4911    1.3880   -0.9619 H   0  0  0  0  0  0  0  0  0  0  0  0
    0.8333   -2.0341   -0.7677 C   0  0  0  0  0  0  0  0  0  0  0  0
    1.6024   -2.2476   -0.0242 H   0  0  0  0  0  0  0  0  0  0  0  0
   -0.0602   -2.6019   -0.5082 H   0  0  0  0  0  0  0  0  0  0  0  0
    1.3176   -2.5413   -2.1328 C   0  0  0  0  0  0  0  0  0  0  0  0
    2.2708   -2.0825   -2.3949 H   0  0  0  0  0  0  0  0  0  0  0  0
    1.4541   -3.6220   -2.0870 H   0  0  0  0  0  0  0  0  0  0  0  0
    0.5784   -2.3099   -2.9004 H   0  0  0  0  0  0  0  0  0  0  0  0
   -0.4633    1.3736    0.7054 C   0  0  0  0  0  0  0  0  0  0  0  0
   -1.3812    1.9313    0.1056 O   0  0  0  0  0  0  0  0  0  0  0  0
    0.3735    2.0397    1.5112 N   0  0  0  0  0  0  0  0  0  0  0  0
    1.0951    1.5137    1.9785 H   0  0  0  0  0  0  0  0  0  0  0  0
    0.3047    3.4794    1.7532 C   0  0  0  0  0  0  0  0  0  0  0  0
   -0.7061    3.7531    2.0635 H   0  0  0  0  0  0  0  0  0  0  0  0
    1.0098    3.7662    2.5347 H   0  0  0  0  0  0  0  0  0  0  0  0
    0.5428    4.0181    0.8340 H   0  0  0  0  0  0  0  0  0  0  0  0
  5  6  2  0  0  0  0
  5  7  1  0  0  0  0
  2  3  1  0  0  0  0
  2  4  1  0  0  0  0
  2  5  1  0  0  0  0
  1  2  1  0  0  0  0
 24 25  2  0  0  0  0
 24 26  1  0  0  0  0
 20 21  1  0  0  0  0
 20 22  1  0  0  0  0
 20 23  1  0  0  0  0
 17 18  1  0  0  0  0
 17 19  1  0  0  0  0
 17 20  1  0  0  0  0
 13 14  1  0  0  0  0
 13 15  1  0  0  0  0
 13 16  1  0  0  0  0
 11 12  1  0  0  0  0
 11 13  1  0  0  0  0
 11 17  1  0  0  0  0
  9 10  1  0  0  0  0
  9 11  1  0  0  0  0
  9 24  1  0  0  0  0
  7  8  1  0  0  0  0
  7  9  1  0  0  0  0
 28 29  1  0  0  0  0
 28 30  1  0  0  0  0
 28 31  1  0  0  0  0
 26 27  1  0  0  0  0
 26 28  1  0  0  0  0
M  END
$$$$
default_name
  -OEChem-01062215323D

 31 30  0     1  0  0  0  0  0999 V2000
   -3.0760   -3.6390    1.5496 H   0  0  0  0  0  0  0  0  0  0  0  0
   -3.0940   -2.6290    1.1426 C   0  0  0  0  0  0  0  0  0  0  0  0
   -3.7160   -1.9930    1.7706 H   0  0  0  0  0  0  0  0  0  0  0  0
   -3.4880   -2.6500    0.1286 H   0  0  0  0  0  0  0  0  0  0  0  0
   -1.6860   -2.0850    1.1196 C   0  0  0  0  0  0  0  0  0  0  0  0
   -0.7540   -2.7700    1.5226 O   0  0  0  0  0  0  0  0  0  0  0  0
   -1.5320   -0.8490    0.6496 N   0  0  0  0  0  0  0  0  0  0  0  0
   -2.3500   -0.3360    0.3566 H   0  0  0  0  0  0  0  0  0  0  0  0
   -0.2470   -0.1410    0.5576 C   0  0  1  0  0  0  0  0  0  0  0  0
    0.3691   -0.4673    1.3961 H   0  0  0  0  0  0  0  0  0  0  0  0
    0.4876   -0.5282   -0.7511 C   0  0  1  0  0  0  0  0  0  0  0  0
   -0.2047   -0.3444   -1.5750 H   0  0  0  0  0  0  0  0  0  0  0  0
    1.7450    0.3279   -0.9955 C   0  0  0  0  0  0  0  0  0  0  0  0
    2.5023    0.1231   -0.2368 H   0  0  0  0  0  0  0  0  0  0  0  0
    2.1609    0.1168   -1.9794 H   0  0  0  0  0  0  0  0  0  0  0  0
    1.4911    1.3880   -0.9619 H   0  0  0  0  0  0  0  0  0  0  0  0
    0.8333   -2.0341   -0.7677 C   0  0  0  0  0  0  0  0  0  0  0  0
    1.6024   -2.2476   -0.0242 H   0  0  0  0  0  0  0  0  0  0  0  0
   -0.0602   -2.6019   -0.5082 H   0  0  0  0  0  0  0  0  0  0  0  0
    1.3176   -2.5413   -2.1328 C   0  0  0  0  0  0  0  0  0  0  0  0
    2.2708   -2.0825   -2.3949 H   0  0  0  0  0  0  0  0  0  0  0  0
    1.4541   -3.6220   -2.0870 H   0  0  0  0  0  0  0  0  0  0  0  0
    0.5784   -2.3099   -2.9004 H   0  0  0  0  0  0  0  0  0  0  0  0
   -0.4633    1.3736    0.7054 C   0  0  0  0  0  0  0  0  0  0  0  0
   -1.5197    1.8885    0.3418 O   0  0  0  0  0  0  0  0  0  0  0  0
    0.5310    2.0878    1.2481 N   0  0  0  0  0  0  0  0  0  0  0  0
    1.3630    1.5955    1.5328 H   0  0  0  0  0  0  0  0  0  0  0  0
    0.4835    3.5344    1.4517 C   0  0  0  0  0  0  0  0  0  0  0  0
   -0.4228    3.7997    2.0007 H   0  0  0  0  0  0  0  0  0  0  0  0
    1.3555    3.8661    2.0172 H   0  0  0  0  0  0  0  0  0  0  0  0
    0.4636    4.0409    0.4849 H   0  0  0  0  0  0  0  0  0  0  0  0
  5  6  2  0  0  0  0
  5  7  1  0  0  0  0
  2  3  1  0  0  0  0
  2  4  1  0  0  0  0
  2  5  1  0  0  0  0
  1  2  1  0  0  0  0
 24 25  2  0  0  0  0
 24 26  1  0  0  0  0
 20 21  1  0  0  0  0
 20 22  1  0  0  0  0
 20 23  1  0  0  0  0
 17 18  1  0  0  0  0
 17 19  1  0  0  0  0
 17 20  1  0  0  0  0
 13 14  1  0  0  0  0
 13 15  1  0  0  0  0
 13 16  1  0  0  0  0
 11 12  1  0  0  0  0
 11 13  1  0  0  0  0
 11 17  1  0  0  0  0
  9 10  1  0  0  0  0
  9 11  1  0  0  0  0
  9 24  1  0  0  0  0
  7  8  1  0  0  0  0
  7  9  1  0  0  0  0
 28 29  1  0  0  0  0
 28 30  1  0  0  0  0
 28 31  1  0  0  0  0
 26 27  1  0  0  0  0
 26 28  1  0  0  0  0
M  END
$$$$
default_name
  -OEChem-01062215323D

 31 30  0     1  0  0  0  0  0999 V2000
   -3.0760   -3.6390    1.5496 H   0  0  0  0  0  0  0  0  0  0  0  0
   -3.0940   -2.6290    1.1426 C   0  0  0  0  0  0  0  0  0  0  0  0
   -3.7160   -1.9930    1.7706 H   0  0  0  0  0  0  0  0  0  0  0  0
   -3.4880   -2.6500    0.1286 H   0  0  0  0  0  0  0  0  0  0  0  0
   -1.6860   -2.0850    1.1196 C   0  0  0  0  0  0  0  0  0  0  0  0
   -0.7540   -2.7700    1.5226 O   0  0  0  0  0  0  0  0  0  0  0  0
   -1.5320   -0.8490    0.6496 N   0  0  0  0  0  0  0  0  0  0  0  0
   -2.3500   -0.3360    0.3566 H   0  0  0  0  0  0  0  0  0  0  0  0
   -0.2470   -0.1410    0.5576 C   0  0  1  0  0  0  0  0  0  0  0  0
    0.3691   -0.4673    1.3961 H   0  0  0  0  0  0  0  0  0  0  0  0
    0.4876   -0.5282   -0.7511 C   0  0  1  0  0  0  0  0  0  0  0  0
   -0.2047   -0.3444   -1.5750 H   0  0  0  0  0  0  0  0  0  0  0  0
    1.7450    0.3279   -0.9955 C   0  0  0  0  0  0  0  0  0  0  0  0
    2.5023    0.1231   -0.2368 H   0  0  0  0  0  0  0  0  0  0  0  0
    2.1609    0.1168   -1.9794 H   0  0  0  0  0  0  0  0  0  0  0  0
    1.4911    1.3880   -0.9619 H   0  0  0  0  0  0  0  0  0  0  0  0
    0.8333   -2.0341   -0.7677 C   0  0  0  0  0  0  0  0  0  0  0  0
    1.6024   -2.2476   -0.0242 H   0  0  0  0  0  0  0  0  0  0  0  0
   -0.0602   -2.6019   -0.5082 H   0  0  0  0  0  0  0  0  0  0  0  0
    1.3176   -2.5413   -2.1328 C   0  0  0  0  0  0  0  0  0  0  0  0
    2.2708   -2.0825   -2.3949 H   0  0  0  0  0  0  0  0  0  0  0  0
    1.4541   -3.6220   -2.0870 H   0  0  0  0  0  0  0  0  0  0  0  0
    0.5784   -2.3099   -2.9004 H   0  0  0  0  0  0  0  0  0  0  0  0
   -0.4633    1.3736    0.7054 C   0  0  0  0  0  0  0  0  0  0  0  0
   -1.5923    1.8522    0.6069 O   0  0  0  0  0  0  0  0  0  0  0  0
    0.6148    2.1287    0.9521 N   0  0  0  0  0  0  0  0  0  0  0  0
    1.5060    1.6649    1.0309 H   0  0  0  0  0  0  0  0  0  0  0  0
    0.5778    3.5809    1.1130 C   0  0  0  0  0  0  0  0  0  0  0  0
   -0.1662    3.8495    1.8661 H   0  0  0  0  0  0  0  0  0  0  0  0
    1.5549    3.9523    1.4255 H   0  0  0  0  0  0  0  0  0  0  0  0
    0.2975    4.0482    0.1670 H   0  0  0  0  0  0  0  0  0  0  0  0
  5  6  2  0  0  0  0
  5  7  1  0  0  0  0
  2  3  1  0  0  0  0
  2  4  1  0  0  0  0
  2  5  1  0  0  0  0
  1  2  1  0  0  0  0
 24 25  2  0  0  0  0
 24 26  1  0  0  0  0
 20 21  1  0  0  0  0
 20 22  1  0  0  0  0
 20 23  1  0  0  0  0
 17 18  1  0  0  0  0
 17 19  1  0  0  0  0
 17 20  1  0  0  0  0
 13 14  1  0  0  0  0
 13 15  1  0  0  0  0
 13 16  1  0  0  0  0
 11 12  1  0  0  0  0
 11 13  1  0  0  0  0
 11 17  1  0  0  0  0
  9 10  1  0  0  0  0
  9 11  1  0  0  0  0
  9 24  1  0  0  0  0
  7  8  1  0  0  0  0
  7  9  1  0  0  0  0
 28 29  1  0  0  0  0
 28 30  1  0  0  0  0
 28 31  1  0  0  0  0
 26 27  1  0  0  0  0
 26 28  1  0  0  0  0
M  END
$$$$
default_name
  -OEChem-01062215323D

 31 30  0     1  0  0  0  0  0999 V2000
   -3.0760   -3.6390    1.5496 H   0  0  0  0  0  0  0  0  0  0  0  0
   -3.0940   -2.6290    1.1426 C   0  0  0  0  0  0  0  0  0  0  0  0
   -3.7160   -1.9930    1.7706 H   0  0  0  0  0  0  0  0  0  0  0  0
   -3.4880   -2.6500    0.1286 H   0  0  0  0  0  0  0  0  0  0  0  0
   -1.6860   -2.0850    1.1196 C   0  0  0  0  0  0  0  0  0  0  0  0
   -0.7540   -2.7700    1.5226 O   0  0  0  0  0  0  0  0  0  0  0  0
   -1.5320   -0.8490    0.6496 N   0  0  0  0  0  0  0  0  0  0  0  0
   -2.3500   -0.3360    0.3566 H   0  0  0  0  0  0  0  0  0  0  0  0
   -0.2470   -0.1410    0.5576 C   0  0  1  0  0  0  0  0  0  0  0  0
    0.4572   -0.6505    1.2162 H   0  0  0  0  0  0  0  0  0  0  0  0
    0.3091   -0.2220   -0.8868 C   0  0  1  0  0  0  0  0  0  0  0  0
   -0.4731    0.1456   -1.5538 H   0  0  0  0  0  0  0  0  0  0  0  0
    1.5526    0.6649   -1.0892 C   0  0  0  0  0  0  0  0  0  0  0  0
    2.3908    0.2916   -0.4982 H   0  0  0  0  0  0  0  0  0  0  0  0
    1.8379    0.6822   -2.1399 H   0  0  0  0  0  0  0  0  0  0  0  0
    1.3373    1.6901   -0.7859 H   0  0  0  0  0  0  0  0  0  0  0  0
    0.6041   -1.6854   -1.2858 C   0  0  0  0  0  0  0  0  0  0  0  0
    1.4517   -2.0637   -0.7129 H   0  0  0  0  0  0  0  0  0  0  0  0
   -0.2677   -2.2956   -1.0500 H   0  0  0  0  0  0  0  0  0  0  0  0
    0.9013   -1.8700   -2.7800 C   0  0  0  0  0  0  0  0  0  0  0  0
    1.8287   -1.3653   -3.0505 H   0  0  0  0  0  0  0  0  0  0  0  0
    1.0093   -2.9330   -2.9964 H   0  0  0  0  0  0  0  0  0  0  0  0
    0.0809   -1.4687   -3.3760 H   0  0  0  0  0  0  0  0  0  0  0  0
   -0.3971    1.3008    1.0689 C   0  0  0  0  0  0  0  0  0  0  0  0
   -1.4830    1.7022    1.4849 O   0  0  0  0  0  0  0  0  0  0  0  0
    0.6930    2.0782    1.0488 N   0  0  0  0  0  0  0  0  0  0  0  0
    1.5509    1.6768    0.7044 H   0  0  0  0  0  0  0  0  0  0  0  0
    0.7144    3.4701    1.4944 C   0  0  0  0  0  0  0  0  0  0  0  0
    0.3035    3.5402    2.5040 H   0  0  0  0  0  0  0  0  0  0  0  0
    1.7365    3.8516    1.4957 H   0  0  0  0  0  0  0  0  0  0  0  0
    0.1006    4.0786    0.8275 H   0  0  0  0  0  0  0  0  0  0  0  0
  5  6  2  0  0  0  0
  5  7  1  0  0  0  0
  2  3  1  0  0  0  0
  2  4  1  0  0  0  0
  2  5  1  0  0  0  0
  1  2  1  0  0  0  0
 24 25  2  0  0  0  0
 24 26  1  0  0  0  0
 20 21  1  0  0  0  0
 20 22  1  0  0  0  0
 20 23  1  0  0  0  0
 17 18  1  0  0  0  0
 17 19  1  0  0  0  0
 17 20  1  0  0  0  0
 13 14  1  0  0  0  0
 13 15  1  0  0  0  0
 13 16  1  0  0  0  0
 11 12  1  0  0  0  0
 11 13  1  0  0  0  0
 11 17  1  0  0  0  0
  9 10  1  0  0  0  0
  9 11  1  0  0  0  0
  9 24  1  0  0  0  0
  7  8  1  0  0  0  0
  7  9  1  0  0  0  0
 28 29  1  0  0  0  0
 28 30  1  0  0  0  0
 28 31  1  0  0  0  0
 26 27  1  0  0  0  0
 26 28  1  0  0  0  0
M  END
$$$$
default_name
  -OEChem-01062215323D

 31 30  0     1  0  0  0  0  0999 V2000
   -3.0760   -3.6390    1.5496 H   0  0  0  0  0  0  0  0  0  0  0  0
   -3.0940   -2.6290    1.1426 C   0  0  0  0  0  0  0  0  0  0  0  0
   -3.7160   -1.9930    1.7706 H   0  0  0  0  0  0  0  0  0  0  0  0
   -3.4880   -2.6500    0.1286 H   0  0  0  0  0  0  0  0  0  0  0  0
   -1.6860   -2.0850    1.1196 C   0  0  0  0  0  0  0  0  0  0  0  0
   -0.7540   -2.7700    1.5226 O   0  0  0  0  0  0  0  0  0  0  0  0
   -1.5320   -0.8490    0.6496 N   0  0  0  0  0  0  0  0  0  0  0  0
   -2.3500   -0.3360    0.3566 H   0  0  0  0  0  0  0  0  0  0  0  0
   -0.2470   -0.1410    0.5576 C   0  0  1  0  0  0  0  0  0  0  0  0
    0.4572   -0.6505    1.2162 H   0  0  0  0  0  0  0  0  0  0  0  0
    0.3091   -0.2220   -0.8868 C   0  0  1  0  0  0  0  0  0  0  0  0
   -0.4731    0.1456   -1.5538 H   0  0  0  0  0  0  0  0  0  0  0  0
    1.5526    0.6649   -1.0892 C   0  0  0  0  0  0  0  0  0  0  0  0
    2.3908    0.2916   -0.4982 H   0  0  0  0  0  0  0  0  0  0  0  0
    1.8379    0.6822   -2.1399 H   0  0  0  0  0  0  0  0  0  0  0  0
    1.3373    1.6901   -0.7859 H   0  0  0  0  0  0  0  0  0  0  0  0
    0.6041   -1.6854   -1.2858 C   0  0  0  0  0  0  0  0  0  0  0  0
    1.4517   -2.0637   -0.7129 H   0  0  0  0  0  0  0  0  0  0  0  0
   -0.2677   -2.2956   -1.0500 H   0  0  0  0  0  0  0  0  0  0  0  0
    0.9013   -1.8700   -2.7800 C   0  0  0  0  0  0  0  0  0  0  0  0
    1.8287   -1.3653   -3.0505 H   0  0  0  0  0  0  0  0  0  0  0  0
    1.0093   -2.9330   -2.9964 H   0  0  0  0  0  0  0  0  0  0  0  0
    0.0809   -1.4687   -3.3760 H   0  0  0  0  0  0  0  0  0  0  0  0
   -0.3971    1.3008    1.0689 C   0  0  0  0  0  0  0  0  0  0  0  0
   -1.3816    1.6254    1.7313 O   0  0  0  0  0  0  0  0  0  0  0  0
    0.5820    2.1647    0.7722 N   0  0  0  0  0  0  0  0  0  0  0  0
    1.3635    1.8238    0.2349 H   0  0  0  0  0  0  0  0  0  0  0  0
    0.5862    3.5687    1.1786 C   0  0  0  0  0  0  0  0  0  0  0  0
    0.4269    3.6407    2.2568 H   0  0  0  0  0  0  0  0  0  0  0  0
    1.5400    4.0335    0.9251 H   0  0  0  0  0  0  0  0  0  0  0  0
   -0.2224    4.0998    0.6727 H   0  0  0  0  0  0  0  0  0  0  0  0
  5  6  2  0  0  0  0
  5  7  1  0  0  0  0
  2  3  1  0  0  0  0
  2  4  1  0  0  0  0
  2  5  1  0  0  0  0
  1  2  1  0  0  0  0
 24 25  2  0  0  0  0
 24 26  1  0  0  0  0
 20 21  1  0  0  0  0
 20 22  1  0  0  0  0
 20 23  1  0  0  0  0
 17 18  1  0  0  0  0
 17 19  1  0  0  0  0
 17 20  1  0  0  0  0
 13 14  1  0  0  0  0
 13 15  1  0  0  0  0
 13 16  1  0  0  0  0
 11 12  1  0  0  0  0
 11 13  1  0  0  0  0
 11 17  1  0  0  0  0
  9 10  1  0  0  0  0
  9 11  1  0  0  0  0
  9 24  1  0  0  0  0
  7  8  1  0  0  0  0
  7  9  1  0  0  0  0
 28 29  1  0  0  0  0
 28 30  1  0  0  0  0
 28 31  1  0  0  0  0
 26 27  1  0  0  0  0
 26 28  1  0  0  0  0
M  END
$$$$
default_name
  -OEChem-01062215323D

 31 30  0     1  0  0  0  0  0999 V2000
   -3.0760   -3.6390    1.5496 H   0  0  0  0  0  0  0  0  0  0  0  0
   -3.0940   -2.6290    1.1426 C   0  0  0  0  0  0  0  0  0  0  0  0
   -3.7160   -1.9930    1.7706 H   0  0  0  0  0  0  0  0  0  0  0  0
   -3.4880   -2.6500    0.1286 H   0  0  0  0  0  0  0  0  0  0  0  0
   -1.6860   -2.0850    1.1196 C   0  0  0  0  0  0  0  0  0  0  0  0
   -0.7540   -2.7700    1.5226 O   0  0  0  0  0  0  0  0  0  0  0  0
   -1.5320   -0.8490    0.6496 N   0  0  0  0  0  0  0  0  0  0  0  0
   -2.3500   -0.3360    0.3566 H   0  0  0  0  0  0  0  0  0  0  0  0
   -0.2470   -0.1410    0.5576 C   0  0  1  0  0  0  0  0  0  0  0  0
    0.4572   -0.6505    1.2162 H   0  0  0  0  0  0  0  0  0  0  0  0
    0.3091   -0.2220   -0.8868 C   0  0  1  0  0  0  0  0  0  0  0  0
   -0.4731    0.1456   -1.5538 H   0  0  0  0  0  0  0  0  0  0  0  0
    1.5526    0.6649   -1.0892 C   0  0  0  0  0  0  0  0  0  0  0  0
    2.3908    0.2916   -0.4982 H   0  0  0  0  0  0  0  0  0  0  0  0
    1.8379    0.6822   -2.1399 H   0  0  0  0  0  0  0  0  0  0  0  0
    1.3373    1.6901   -0.7859 H   0  0  0  0  0  0  0  0  0  0  0  0
    0.6041   -1.6854   -1.2858 C   0  0  0  0  0  0  0  0  0  0  0  0
    1.4517   -2.0637   -0.7129 H   0  0  0  0  0  0  0  0  0  0  0  0
   -0.2677   -2.2956   -1.0500 H   0  0  0  0  0  0  0  0  0  0  0  0
    0.9013   -1.8700   -2.7800 C   0  0  0  0  0  0  0  0  0  0  0  0
    1.8287   -1.3653   -3.0505 H   0  0  0  0  0  0  0  0  0  0  0  0
    1.0093   -2.9330   -2.9964 H   0  0  0  0  0  0  0  0  0  0  0  0
    0.0809   -1.4687   -3.3760 H   0  0  0  0  0  0  0  0  0  0  0  0
   -0.3971    1.3008    1.0689 C   0  0  0  0  0  0  0  0  0  0  0  0
   -1.2173    1.5662    1.9465 O   0  0  0  0  0  0  0  0  0  0  0  0
    0.4002    2.2318    0.5297 N   0  0  0  0  0  0  0  0  0  0  0  0
    1.0559    1.9378   -0.1769 H   0  0  0  0  0  0  0  0  0  0  0  0
    0.3772    3.6449    0.9023 C   0  0  0  0  0  0  0  0  0  0  0  0
    0.4775    3.7421    1.9855 H   0  0  0  0  0  0  0  0  0  0  0  0
    1.1961    4.1779    0.4170 H   0  0  0  0  0  0  0  0  0  0  0  0
   -0.5737    4.0887    0.6011 H   0  0  0  0  0  0  0  0  0  0  0  0
  5  6  2  0  0  0  0
  5  7  1  0  0  0  0
  2  3  1  0  0  0  0
  2  4  1  0  0  0  0
  2  5  1  0  0  0  0
  1  2  1  0  0  0  0
 24 25  2  0  0  0  0
 24 26  1  0  0  0  0
 20 21  1  0  0  0  0
 20 22  1  0  0  0  0
 20 23  1  0  0  0  0
 17 18  1  0  0  0  0
 17 19  1  0  0  0  0
 17 20  1  0  0  0  0
 13 14  1  0  0  0  0
 13 15  1  0  0  0  0
 13 16  1  0  0  0  0
 11 12  1  0  0  0  0
 11 13  1  0  0  0  0
 11 17  1  0  0  0  0
  9 10  1  0  0  0  0
  9 11  1  0  0  0  0
  9 24  1  0  0  0  0
  7  8  1  0  0  0  0
  7  9  1  0  0  0  0
 28 29  1  0  0  0  0
 28 30  1  0  0  0  0
 28 31  1  0  0  0  0
 26 27  1  0  0  0  0
 26 28  1  0  0  0  0
M  END
$$$$
default_name
  -OEChem-01062215323D

 31 30  0     1  0  0  0  0  0999 V2000
   -3.0760   -3.6390    1.5496 H   0  0  0  0  0  0  0  0  0  0  0  0
   -3.0940   -2.6290    1.1426 C   0  0  0  0  0  0  0  0  0  0  0  0
   -3.7160   -1.9930    1.7706 H   0  0  0  0  0  0  0  0  0  0  0  0
   -3.4880   -2.6500    0.1286 H   0  0  0  0  0  0  0  0  0  0  0  0
   -1.6860   -2.0850    1.1196 C   0  0  0  0  0  0  0  0  0  0  0  0
   -0.7540   -2.7700    1.5226 O   0  0  0  0  0  0  0  0  0  0  0  0
   -1.5320   -0.8490    0.6496 N   0  0  0  0  0  0  0  0  0  0  0  0
   -2.3500   -0.3360    0.3566 H   0  0  0  0  0  0  0  0  0  0  0  0
   -0.2470   -0.1410    0.5576 C   0  0  1  0  0  0  0  0  0  0  0  0
    0.4572   -0.6505    1.2162 H   0  0  0  0  0  0  0  0  0  0  0  0
    0.3091   -0.2220   -0.8868 C   0  0  1  0  0  0  0  0  0  0  0  0
   -0.4731    0.1456   -1.5538 H   0  0  0  0  0  0  0  0  0  0  0  0
    1.5526    0.6649   -1.0892 C   0  0  0  0  0  0  0  0  0  0  0  0
    2.3908    0.2916   -0.4982 H   0  0  0  0  0  0  0  0  0  0  0  0
    1.8379    0.6822   -2.1399 H   0  0  0  0  0  0  0  0  0  0  0  0
    1.3373    1.6901   -0.7859 H   0  0  0  0  0  0  0  0  0  0  0  0
    0.6041   -1.6854   -1.2858 C   0  0  0  0  0  0  0  0  0  0  0  0
    1.4517   -2.0637   -0.7129 H   0  0  0  0  0  0  0  0  0  0  0  0
   -0.2677   -2.2956   -1.0500 H   0  0  0  0  0  0  0  0  0  0  0  0
    0.9013   -1.8700   -2.7800 C   0  0  0  0  0  0  0  0  0  0  0  0
    1.8287   -1.3653   -3.0505 H   0  0  0  0  0  0  0  0  0  0  0  0
    1.0093   -2.9330   -2.9964 H   0  0  0  0  0  0  0  0  0  0  0  0
    0.0809   -1.4687   -3.3760 H   0  0  0  0  0  0  0  0  0  0  0  0
   -0.3971    1.3008    1.0689 C   0  0  0  0  0  0  0  0  0  0  0  0
   -1.0012    1.5286    2.1161 O   0  0  0  0  0  0  0  0  0  0  0  0
    0.1600    2.2747    0.3380 N   0  0  0  0  0  0  0  0  0  0  0  0
    0.6490    2.0110   -0.5028 H   0  0  0  0  0  0  0  0  0  0  0  0
    0.1017    3.6936    0.6841 C   0  0  0  0  0  0  0  0  0  0  0  0
    0.4517    3.8376    1.7087 H   0  0  0  0  0  0  0  0  0  0  0  0
    0.7281    4.2749    0.0060 H   0  0  0  0  0  0  0  0  0  0  0  0
   -0.9295    4.0458    0.6175 H   0  0  0  0  0  0  0  0  0  0  0  0
  5  6  2  0  0  0  0
  5  7  1  0  0  0  0
  2  3  1  0  0  0  0
  2  4  1  0  0  0  0
  2  5  1  0  0  0  0
  1  2  1  0  0  0  0
 24 25  2  0  0  0  0
 24 26  1  0  0  0  0
 20 21  1  0  0  0  0
 20 22  1  0  0  0  0
 20 23  1  0  0  0  0
 17 18  1  0  0  0  0
 17 19  1  0  0  0  0
 17 20  1  0  0  0  0
 13 14  1  0  0  0  0
 13 15  1  0  0  0  0
 13 16  1  0  0  0  0
 11 12  1  0  0  0  0
 11 13  1  0  0  0  0
 11 17  1  0  0  0  0
  9 10  1  0  0  0  0
  9 11  1  0  0  0  0
  9 24  1  0  0  0  0
  7  8  1  0  0  0  0
  7  9  1  0  0  0  0
 28 29  1  0  0  0  0
 28 30  1  0  0  0  0
 28 31  1  0  0  0  0
 26 27  1  0  0  0  0
 26 28  1  0  0  0  0
M  END
$$$$
default_name
  -OEChem-01062215323D

 31 30  0     1  0  0  0  0  0999 V2000
   -3.0760   -3.6390    1.5496 H   0  0  0  0  0  0  0  0  0  0  0  0
   -3.0940   -2.6290    1.1426 C   0  0  0  0  0  0  0  0  0  0  0  0
   -3.7160   -1.9930    1.7706 H   0  0  0  0  0  0  0  0  0  0  0  0
   -3.4880   -2.6500    0.1286 H   0  0  0  0  0  0  0  0  0  0  0  0
   -1.6860   -2.0850    1.1196 C   0  0  0  0  0  0  0  0  0  0  0  0
   -0.7540   -2.7700    1.5226 O   0  0  0  0  0  0  0  0  0  0  0  0
   -1.5320   -0.8490    0.6496 N   0  0  0  0  0  0  0  0  0  0  0  0
   -2.3500   -0.3360    0.3566 H   0  0  0  0  0  0  0  0  0  0  0  0
   -0.2470   -0.1410    0.5576 C   0  0  1  0  0  0  0  0  0  0  0  0
    0.4572   -0.6505    1.2162 H   0  0  0  0  0  0  0  0  0  0  0  0
    0.3091   -0.2220   -0.8868 C   0  0  1  0  0  0  0  0  0  0  0  0
   -0.4731    0.1456   -1.5538 H   0  0  0  0  0  0  0  0  0  0  0  0
    1.5526    0.6649   -1.0892 C   0  0  0  0  0  0  0  0  0  0  0  0
    2.3908    0.2916   -0.4982 H   0  0  0  0  0  0  0  0  0  0  0  0
    1.8379    0.6822   -2.1399 H   0  0  0  0  0  0  0  0  0  0  0  0
    1.3373    1.6901   -0.7859 H   0  0  0  0  0  0  0  0  0  0  0  0
    0.6041   -1.6854   -1.2858 C   0  0  0  0  0  0  0  0  0  0  0  0
    1.4517   -2.0637   -0.7129 H   0  0  0  0  0  0  0  0  0  0  0  0
   -0.2677   -2.2956   -1.0500 H   0  0  0  0  0  0  0  0  0  0  0  0
    0.9013   -1.8700   -2.7800 C   0  0  0  0  0  0  0  0  0  0  0  0
    1.8287   -1.3653   -3.0505 H   0  0  0  0  0  0  0  0  0  0  0  0
    1.0093   -2.9330   -2.9964 H   0  0  0  0  0  0  0  0  0  0  0  0
    0.0809   -1.4687   -3.3760 H   0  0  0  0  0  0  0  0  0  0  0  0
   -0.3971    1.3008    1.0689 C   0  0  0  0  0  0  0  0  0  0  0  0
   -0.7480    1.5152    2.2283 O   0  0  0  0  0  0  0  0  0  0  0  0
   -0.1223    2.2907    0.2100 N   0  0  0  0  0  0  0  0  0  0  0  0
    0.1705    2.0384   -0.7207 H   0  0  0  0  0  0  0  0  0  0  0  0
   -0.2216    3.7113    0.5391 C   0  0  0  0  0  0  0  0  0  0  0  0
    0.3513    3.9206    1.4452 H   0  0  0  0  0  0  0  0  0  0  0  0
    0.1680    4.3179   -0.2798 H   0  0  0  0  0  0  0  0  0  0  0  0
   -1.2655    3.9742    0.7208 H   0  0  0  0  0  0  0  0  0  0  0  0
  5  6  2  0  0  0  0
  5  7  1  0  0  0  0
  2  3  1  0  0  0  0
  2  4  1  0  0  0  0
  2  5  1  0  0  0  0
  1  2  1  0  0  0  0
 24 25  2  0  0  0  0
 24 26  1  0  0  0  0
 20 21  1  0  0  0  0
 20 22  1  0  0  0  0
 20 23  1  0  0  0  0
 17 18  1  0  0  0  0
 17 19  1  0  0  0  0
 17 20  1  0  0  0  0
 13 14  1  0  0  0  0
 13 15  1  0  0  0  0
 13 16  1  0  0  0  0
 11 12  1  0  0  0  0
 11 13  1  0  0  0  0
 11 17  1  0  0  0  0
  9 10  1  0  0  0  0
  9 11  1  0  0  0  0
  9 24  1  0  0  0  0
  7  8  1  0  0  0  0
  7  9  1  0  0  0  0
 28 29  1  0  0  0  0
 28 30  1  0  0  0  0
 28 31  1  0  0  0  0
 26 27  1  0  0  0  0
 26 28  1  0  0  0  0
M  END
$$$$
default_name
  -OEChem-01062215323D

 31 30  0     1  0  0  0  0  0999 V2000
   -3.0760   -3.6390    1.5496 H   0  0  0  0  0  0  0  0  0  0  0  0
   -3.0940   -2.6290    1.1426 C   0  0  0  0  0  0  0  0  0  0  0  0
   -3.7160   -1.9930    1.7706 H   0  0  0  0  0  0  0  0  0  0  0  0
   -3.4880   -2.6500    0.1286 H   0  0  0  0  0  0  0  0  0  0  0  0
   -1.6860   -2.0850    1.1196 C   0  0  0  0  0  0  0  0  0  0  0  0
   -0.7540   -2.7700    1.5226 O   0  0  0  0  0  0  0  0  0  0  0  0
   -1.5320   -0.8490    0.6496 N   0  0  0  0  0  0  0  0  0  0  0  0
   -2.3500   -0.3360    0.3566 H   0  0  0  0  0  0  0  0  0  0  0  0
   -0.2470   -0.1410    0.5576 C   0  0  1  0  0  0  0  0  0  0  0  0
    0.4572   -0.6505    1.2162 H   0  0  0  0  0  0  0  0  0  0  0  0
    0.3091   -0.2220   -0.8868 C   0  0  1  0  0  0  0  0  0  0  0  0
   -0.4731    0.1456   -1.5538 H   0  0  0  0  0  0  0  0  0  0  0  0
    1.5526    0.6649   -1.0892 C   0  0  0  0  0  0  0  0  0  0  0  0
    2.3908    0.2916   -0.4982 H   0  0  0  0  0  0  0  0  0  0  0  0
    1.8379    0.6822   -2.1399 H   0  0  0  0  0  0  0  0  0  0  0  0
    1.3373    1.6901   -0.7859 H   0  0  0  0  0  0  0  0  0  0  0  0
    0.6041   -1.6854   -1.2858 C   0  0  0  0  0  0  0  0  0  0  0  0
    1.4517   -2.0637   -0.7129 H   0  0  0  0  0  0  0  0  0  0  0  0
   -0.2677   -2.2956   -1.0500 H   0  0  0  0  0  0  0  0  0  0  0  0
    0.9013   -1.8700   -2.7800 C   0  0  0  0  0  0  0  0  0  0  0  0
    1.8287   -1.3653   -3.0505 H   0  0  0  0  0  0  0  0  0  0  0  0
    1.0093   -2.9330   -2.9964 H   0  0  0  0  0  0  0  0  0  0  0  0
    0.0809   -1.4687   -3.3760 H   0  0  0  0  0  0  0  0  0  0  0  0
   -0.3971    1.3008    1.0689 C   0  0  0  0  0  0  0  0  0  0  0  0
   -0.4751    1.5268    2.2756 O   0  0  0  0  0  0  0  0  0  0  0  0
   -0.4275    2.2786    0.1545 N   0  0  0  0  0  0  0  0  0  0  0  0
   -0.3470    2.0182   -0.8157 H   0  0  0  0  0  0  0  0  0  0  0  0
   -0.5706    3.6970    0.4770 C   0  0  0  0  0  0  0  0  0  0  0  0
    0.1833    3.9855    1.2129 H   0  0  0  0  0  0  0  0  0  0  0  0
   -0.4462    4.3040   -0.4209 H   0  0  0  0  0  0  0  0  0  0  0  0
   -1.5588    3.8787    0.9040 H   0  0  0  0  0  0  0  0  0  0  0  0
  5  6  2  0  0  0  0
  5  7  1  0  0  0  0
  2  3  1  0  0  0  0
  2  4  1  0  0  0  0
  2  5  1  0  0  0  0
  1  2  1  0  0  0  0
 24 25  2  0  0  0  0
 24 26  1  0  0  0  0
 20 21  1  0  0  0  0
 20 22  1  0  0  0  0
 20 23  1  0  0  0  0
 17 18  1  0  0  0  0
 17 19  1  0  0  0  0
 17 20  1  0  0  0  0
 13 14  1  0  0  0  0
 13 15  1  0  0  0  0
 13 16  1  0  0  0  0
 11 12  1  0  0  0  0
 11 13  1  0  0  0  0
 11 17  1  0  0  0  0
  9 10  1  0  0  0  0
  9 11  1  0  0  0  0
  9 24  1  0  0  0  0
  7  8  1  0  0  0  0
  7  9  1  0  0  0  0
 28 29  1  0  0  0  0
 28 30  1  0  0  0  0
 28 31  1  0  0  0  0
 26 27  1  0  0  0  0
 26 28  1  0  0  0  0
M  END
$$$$
default_name
  -OEChem-01062215323D

 31 30  0     1  0  0  0  0  0999 V2000
   -3.0760   -3.6390    1.5496 H   0  0  0  0  0  0  0  0  0  0  0  0
   -3.0940   -2.6290    1.1426 C   0  0  0  0  0  0  0  0  0  0  0  0
   -3.7160   -1.9930    1.7706 H   0  0  0  0  0  0  0  0  0  0  0  0
   -3.4880   -2.6500    0.1286 H   0  0  0  0  0  0  0  0  0  0  0  0
   -1.6860   -2.0850    1.1196 C   0  0  0  0  0  0  0  0  0  0  0  0
   -0.7540   -2.7700    1.5226 O   0  0  0  0  0  0  0  0  0  0  0  0
   -1.5320   -0.8490    0.6496 N   0  0  0  0  0  0  0  0  0  0  0  0
   -2.3500   -0.3360    0.3566 H   0  0  0  0  0  0  0  0  0  0  0  0
   -0.2470   -0.1410    0.5576 C   0  0  1  0  0  0  0  0  0  0  0  0
    0.4572   -0.6505    1.2162 H   0  0  0  0  0  0  0  0  0  0  0  0
    0.3091   -0.2220   -0.8868 C   0  0  1  0  0  0  0  0  0  0  0  0
   -0.4731    0.1456   -1.5538 H   0  0  0  0  0  0  0  0  0  0  0  0
    1.5526    0.6649   -1.0892 C   0  0  0  0  0  0  0  0  0  0  0  0
    2.3908    0.2916   -0.4982 H   0  0  0  0  0  0  0  0  0  0  0  0
    1.8379    0.6822   -2.1399 H   0  0  0  0  0  0  0  0  0  0  0  0
    1.3373    1.6901   -0.7859 H   0  0  0  0  0  0  0  0  0  0  0  0
    0.6041   -1.6854   -1.2858 C   0  0  0  0  0  0  0  0  0  0  0  0
    1.4517   -2.0637   -0.7129 H   0  0  0  0  0  0  0  0  0  0  0  0
   -0.2677   -2.2956   -1.0500 H   0  0  0  0  0  0  0  0  0  0  0  0
    0.9013   -1.8700   -2.7800 C   0  0  0  0  0  0  0  0  0  0  0  0
    1.8287   -1.3653   -3.0505 H   0  0  0  0  0  0  0  0  0  0  0  0
    1.0093   -2.9330   -2.9964 H   0  0  0  0  0  0  0  0  0  0  0  0
    0.0809   -1.4687   -3.3760 H   0  0  0  0  0  0  0  0  0  0  0  0
   -0.3971    1.3008    1.0689 C   0  0  0  0  0  0  0  0  0  0  0  0
   -0.2010    1.5627    2.2547 O   0  0  0  0  0  0  0  0  0  0  0  0
   -0.7347    2.2393    0.1753 N   0  0  0  0  0  0  0  0  0  0  0  0
   -0.8681    1.9518   -0.7813 H   0  0  0  0  0  0  0  0  0  0  0  0
   -0.9215    3.6516    0.5022 C   0  0  0  0  0  0  0  0  0  0  0  0
   -0.0410    4.0278    1.0276 H   0  0  0  0  0  0  0  0  0  0  0  0
   -1.0724    4.2342   -0.4078 H   0  0  0  0  0  0  0  0  0  0  0  0
   -1.7894    3.7658    1.1545 H   0  0  0  0  0  0  0  0  0  0  0  0
  5  6  2  0  0  0  0
  5  7  1  0  0  0  0
  2  3  1  0  0  0  0
  2  4  1  0  0  0  0
  2  5  1  0  0  0  0
  1  2  1  0  0  0  0
 24 25  2  0  0  0  0
 24 26  1  0  0  0  0
 20 21  1  0  0  0  0
 20 22  1  0  0  0  0
 20 23  1  0  0  0  0
 17 18  1  0  0  0  0
 17 19  1  0  0  0  0
 17 20  1  0  0  0  0
 13 14  1  0  0  0  0
 13 15  1  0  0  0  0
 13 16  1  0  0  0  0
 11 12  1  0  0  0  0
 11 13  1  0  0  0  0
 11 17  1  0  0  0  0
  9 10  1  0  0  0  0
  9 11  1  0  0  0  0
  9 24  1  0  0  0  0
  7  8  1  0  0  0  0
  7  9  1  0  0  0  0
 28 29  1  0  0  0  0
 28 30  1  0  0  0  0
 28 31  1  0  0  0  0
 26 27  1  0  0  0  0
 26 28  1  0  0  0  0
M  END
$$$$
default_name
  -OEChem-01062215323D

 31 30  0     1  0  0  0  0  0999 V2000
   -3.0760   -3.6390    1.5496 H   0  0  0  0  0  0  0  0  0  0  0  0
   -3.0940   -2.6290    1.1426 C   0  0  0  0  0  0  0  0  0  0  0  0
   -3.7160   -1.9930    1.7706 H   0  0  0  0  0  0  0  0  0  0  0  0
   -3.4880   -2.6500    0.1286 H   0  0  0  0  0  0  0  0  0  0  0  0
   -1.6860   -2.0850    1.1196 C   0  0  0  0  0  0  0  0  0  0  0  0
   -0.7540   -2.7700    1.5226 O   0  0  0  0  0  0  0  0  0  0  0  0
   -1.5320   -0.8490    0.6496 N   0  0  0  0  0  0  0  0  0  0  0  0
   -2.3500   -0.3360    0.3566 H   0  0  0  0  0  0  0  0  0  0  0  0
   -0.2470   -0.1410    0.5576 C   0  0  1  0  0  0  0  0  0  0  0  0
    0.4572   -0.6505    1.2162 H   0  0  0  0  0  0  0  0  0  0  0  0
    0.3091   -0.2220   -0.8868 C   0  0  1  0  0  0  0  0  0  0  0  0
   -0.4731    0.1456   -1.5538 H   0  0  0  0  0  0  0  0  0  0  0  0
    1.5526    0.6649   -1.0892 C   0  0  0  0  0  0  0  0  0  0  0  0
    2.3908    0.2916   -0.4982 H   0  0  0  0  0  0  0  0  0  0  0  0
    1.8379    0.6822   -2.1399 H   0  0  0  0  0  0  0  0  0  0  0  0
    1.3373    1.6901   -0.7859 H   0  0  0  0  0  0  0  0  0  0  0  0
    0.6041   -1.6854   -1.2858 C   0  0  0  0  0  0  0  0  0  0  0  0
    1.4517   -2.0637   -0.7129 H   0  0  0  0  0  0  0  0  0  0  0  0
   -0.2677   -2.2956   -1.0500 H   0  0  0  0  0  0  0  0  0  0  0  0
    0.9013   -1.8700   -2.7800 C   0  0  0  0  0  0  0  0  0  0  0  0
    1.8287   -1.3653   -3.0505 H   0  0  0  0  0  0  0  0  0  0  0  0
    1.0093   -2.9330   -2.9964 H   0  0  0  0  0  0  0  0  0  0  0  0
    0.0809   -1.4687   -3.3760 H   0  0  0  0  0  0  0  0  0  0  0  0
   -0.3971    1.3008    1.0689 C   0  0  0  0  0  0  0  0  0  0  0  0
    0.0555    1.6205    2.1671 O   0  0  0  0  0  0  0  0  0  0  0  0
   -1.0229    2.1754    0.2709 N   0  0  0  0  0  0  0  0  0  0  0  0
   -1.3574    1.8436   -0.6200 H   0  0  0  0  0  0  0  0  0  0  0  0
   -1.2505    3.5781    0.6128 C   0  0  0  0  0  0  0  0  0  0  0  0
   -0.3063    4.0447    0.9021 H   0  0  0  0  0  0  0  0  0  0  0  0
   -1.6682    4.1131   -0.2413 H   0  0  0  0  0  0  0  0  0  0  0  0
   -1.9416    3.6433    1.4553 H   0  0  0  0  0  0  0  0  0  0  0  0
  5  6  2  0  0  0  0
  5  7  1  0  0  0  0
  2  3  1  0  0  0  0
  2  4  1  0  0  0  0
  2  5  1  0  0  0  0
  1  2  1  0  0  0  0
 24 25  2  0  0  0  0
 24 26  1  0  0  0  0
 20 21  1  0  0  0  0
 20 22  1  0  0  0  0
 20 23  1  0  0  0  0
 17 18  1  0  0  0  0
 17 19  1  0  0  0  0
 17 20  1  0  0  0  0
 13 14  1  0  0  0  0
 13 15  1  0  0  0  0
 13 16  1  0  0  0  0
 11 12  1  0  0  0  0
 11 13  1  0  0  0  0
 11 17  1  0  0  0  0
  9 10  1  0  0  0  0
  9 11  1  0  0  0  0
  9 24  1  0  0  0  0
  7  8  1  0  0  0  0
  7  9  1  0  0  0  0
 28 29  1  0  0  0  0
 28 30  1  0  0  0  0
 28 31  1  0  0  0  0
 26 27  1  0  0  0  0
 26 28  1  0  0  0  0
M  END
$$$$
default_name
  -OEChem-01062215323D

 31 30  0     1  0  0  0  0  0999 V2000
   -3.0760   -3.6390    1.5496 H   0  0  0  0  0  0  0  0  0  0  0  0
   -3.0940   -2.6290    1.1426 C   0  0  0  0  0  0  0  0  0  0  0  0
   -3.7160   -1.9930    1.7706 H   0  0  0  0  0  0  0  0  0  0  0  0
   -3.4880   -2.6500    0.1286 H   0  0  0  0  0  0  0  0  0  0  0  0
   -1.6860   -2.0850    1.1196 C   0  0  0  0  0  0  0  0  0  0  0  0
   -0.7540   -2.7700    1.5226 O   0  0  0  0  0  0  0  0  0  0  0  0
   -1.5320   -0.8490    0.6496 N   0  0  0  0  0  0  0  0  0  0  0  0
   -2.3500   -0.3360    0.3566 H   0  0  0  0  0  0  0  0  0  0  0  0
   -0.2470   -0.1410    0.5576 C   0  0  1  0  0  0  0  0  0  0  0  0
    0.4572   -0.6505    1.2162 H   0  0  0  0  0  0  0  0  0  0  0  0
    0.3091   -0.2220   -0.8868 C   0  0  1  0  0  0  0  0  0  0  0  0
   -0.4731    0.1456   -1.5538 H   0  0  0  0  0  0  0  0  0  0  0  0
    1.5526    0.6649   -1.0892 C   0  0  0  0  0  0  0  0  0  0  0  0
    2.3908    0.2916   -0.4982 H   0  0  0  0  0  0  0  0  0  0  0  0
    1.8379    0.6822   -2.1399 H   0  0  0  0  0  0  0  0  0  0  0  0
    1.3373    1.6901   -0.7859 H   0  0  0  0  0  0  0  0  0  0  0  0
    0.6041   -1.6854   -1.2858 C   0  0  0  0  0  0  0  0  0  0  0  0
    1.4517   -2.0637   -0.7129 H   0  0  0  0  0  0  0  0  0  0  0  0
   -0.2677   -2.2956   -1.0500 H   0  0  0  0  0  0  0  0  0  0  0  0
    0.9013   -1.8700   -2.7800 C   0  0  0  0  0  0  0  0  0  0  0  0
    1.8287   -1.3653   -3.0505 H   0  0  0  0  0  0  0  0  0  0  0  0
    1.0093   -2.9330   -2.9964 H   0  0  0  0  0  0  0  0  0  0  0  0
    0.0809   -1.4687   -3.3760 H   0  0  0  0  0  0  0  0  0  0  0  0
   -0.3971    1.3008    1.0689 C   0  0  0  0  0  0  0  0  0  0  0  0
    0.2772    1.6962    2.0188 O   0  0  0  0  0  0  0  0  0  0  0  0
   -1.2727    2.0912    0.4349 N   0  0  0  0  0  0  0  0  0  0  0  0
   -1.7816    1.7011   -0.3425 H   0  0  0  0  0  0  0  0  0  0  0  0
   -1.5351    3.4816    0.8014 C   0  0  0  0  0  0  0  0  0  0  0  0
   -0.5944    4.0350    0.8448 H   0  0  0  0  0  0  0  0  0  0  0  0
   -2.1928    3.9491    0.0672 H   0  0  0  0  0  0  0  0  0  0  0  0
   -2.0051    3.5195    1.7860 H   0  0  0  0  0  0  0  0  0  0  0  0
  5  6  2  0  0  0  0
  5  7  1  0  0  0  0
  2  3  1  0  0  0  0
  2  4  1  0  0  0  0
  2  5  1  0  0  0  0
  1  2  1  0  0  0  0
 24 25  2  0  0  0  0
 24 26  1  0  0  0  0
 20 21  1  0  0  0  0
 20 22  1  0  0  0  0
 20 23  1  0  0  0  0
 17 18  1  0  0  0  0
 17 19  1  0  0  0  0
 17 20  1  0  0  0  0
 13 14  1  0  0  0  0
 13 15  1  0  0  0  0
 13 16  1  0  0  0  0
 11 12  1  0  0  0  0
 11 13  1  0  0  0  0
 11 17  1  0  0  0  0
  9 10  1  0  0  0  0
  9 11  1  0  0  0  0
  9 24  1  0  0  0  0
  7  8  1  0  0  0  0
  7  9  1  0  0  0  0
 28 29  1  0  0  0  0
 28 30  1  0  0  0  0
 28 31  1  0  0  0  0
 26 27  1  0  0  0  0
 26 28  1  0  0  0  0
M  END
$$$$
default_name
  -OEChem-01062215323D

 31 30  0     1  0  0  0  0  0999 V2000
   -3.0760   -3.6390    1.5496 H   0  0  0  0  0  0  0  0  0  0  0  0
   -3.0940   -2.6290    1.1426 C   0  0  0  0  0  0  0  0  0  0  0  0
   -3.7160   -1.9930    1.7706 H   0  0  0  0  0  0  0  0  0  0  0  0
   -3.4880   -2.6500    0.1286 H   0  0  0  0  0  0  0  0  0  0  0  0
   -1.6860   -2.0850    1.1196 C   0  0  0  0  0  0  0  0  0  0  0  0
   -0.7540   -2.7700    1.5226 O   0  0  0  0  0  0  0  0  0  0  0  0
   -1.5320   -0.8490    0.6496 N   0  0  0  0  0  0  0  0  0  0  0  0
   -2.3500   -0.3360    0.3566 H   0  0  0  0  0  0  0  0  0  0  0  0
   -0.2470   -0.1410    0.5576 C   0  0  1  0  0  0  0  0  0  0  0  0
    0.4572   -0.6505    1.2162 H   0  0  0  0  0  0  0  0  0  0  0  0
    0.3091   -0.2220   -0.8868 C   0  0  1  0  0  0  0  0  0  0  0  0
   -0.4731    0.1456   -1.5538 H   0  0  0  0  0  0  0  0  0  0  0  0
    1.5526    0.6649   -1.0892 C   0  0  0  0  0  0  0  0  0  0  0  0
    2.3908    0.2916   -0.4982 H   0  0  0  0  0  0  0  0  0  0  0  0
    1.8379    0.6822   -2.1399 H   0  0  0  0  0  0  0  0  0  0  0  0
    1.3373    1.6901   -0.7859 H   0  0  0  0  0  0  0  0  0  0  0  0
    0.6041   -1.6854   -1.2858 C   0  0  0  0  0  0  0  0  0  0  0  0
    1.4517   -2.0637   -0.7129 H   0  0  0  0  0  0  0  0  0  0  0  0
   -0.2677   -2.2956   -1.0500 H   0  0  0  0  0  0  0  0  0  0  0  0
    0.9013   -1.8700   -2.7800 C   0  0  0  0  0  0  0  0  0  0  0  0
    1.8287   -1.3653   -3.0505 H   0  0  0  0  0  0  0  0  0  0  0  0
    1.0093   -2.9330   -2.9964 H   0  0  0  0  0  0  0  0  0  0  0  0
    0.0809   -1.4687   -3.3760 H   0  0  0  0  0  0  0  0  0  0  0  0
   -0.3971    1.3008    1.0689 C   0  0  0  0  0  0  0  0  0  0  0  0
    0.4487    1.7846    1.8197 O   0  0  0  0  0  0  0  0  0  0  0  0
   -1.4668    1.9926    0.6561 N   0  0  0  0  0  0  0  0  0  0  0  0
   -2.1116    1.5339    0.0320 H   0  0  0  0  0  0  0  0  0  0  0  0
   -1.7558    3.3686    1.0551 C   0  0  0  0  0  0  0  0  0  0  0  0
   -0.8858    3.9994    0.8596 H   0  0  0  0  0  0  0  0  0  0  0  0
   -2.6105    3.7533    0.4967 H   0  0  0  0  0  0  0  0  0  0  0  0
   -1.9754    3.4027    2.1239 H   0  0  0  0  0  0  0  0  0  0  0  0
  5  6  2  0  0  0  0
  5  7  1  0  0  0  0
  2  3  1  0  0  0  0
  2  4  1  0  0  0  0
  2  5  1  0  0  0  0
  1  2  1  0  0  0  0
 24 25  2  0  0  0  0
 24 26  1  0  0  0  0
 20 21  1  0  0  0  0
 20 22  1  0  0  0  0
 20 23  1  0  0  0  0
 17 18  1  0  0  0  0
 17 19  1  0  0  0  0
 17 20  1  0  0  0  0
 13 14  1  0  0  0  0
 13 15  1  0  0  0  0
 13 16  1  0  0  0  0
 11 12  1  0  0  0  0
 11 13  1  0  0  0  0
 11 17  1  0  0  0  0
  9 10  1  0  0  0  0
  9 11  1  0  0  0  0
  9 24  1  0  0  0  0
  7  8  1  0  0  0  0
  7  9  1  0  0  0  0
 28 29  1  0  0  0  0
 28 30  1  0  0  0  0
 28 31  1  0  0  0  0
 26 27  1  0  0  0  0
 26 28  1  0  0  0  0
M  END
$$$$
default_name
  -OEChem-01062215323D

 31 30  0     1  0  0  0  0  0999 V2000
   -3.0760   -3.6390    1.5496 H   0  0  0  0  0  0  0  0  0  0  0  0
   -3.0940   -2.6290    1.1426 C   0  0  0  0  0  0  0  0  0  0  0  0
   -3.7160   -1.9930    1.7706 H   0  0  0  0  0  0  0  0  0  0  0  0
   -3.4880   -2.6500    0.1286 H   0  0  0  0  0  0  0  0  0  0  0  0
   -1.6860   -2.0850    1.1196 C   0  0  0  0  0  0  0  0  0  0  0  0
   -0.7540   -2.7700    1.5226 O   0  0  0  0  0  0  0  0  0  0  0  0
   -1.5320   -0.8490    0.6496 N   0  0  0  0  0  0  0  0  0  0  0  0
   -2.3500   -0.3360    0.3566 H   0  0  0  0  0  0  0  0  0  0  0  0
   -0.2470   -0.1410    0.5576 C   0  0  1  0  0  0  0  0  0  0  0  0
    0.4572   -0.6505    1.2162 H   0  0  0  0  0  0  0  0  0  0  0  0
    0.3091   -0.2220   -0.8868 C   0  0  1  0  0  0  0  0  0  0  0  0
   -0.4731    0.1456   -1.5538 H   0  0  0  0  0  0  0  0  0  0  0  0
    1.5526    0.6649   -1.0892 C   0  0  0  0  0  0  0  0  0  0  0  0
    2.3908    0.2916   -0.4982 H   0  0  0  0  0  0  0  0  0  0  0  0
    1.8379    0.6822   -2.1399 H   0  0  0  0  0  0  0  0  0  0  0  0
    1.3373    1.6901   -0.7859 H   0  0  0  0  0  0  0  0  0  0  0  0
    0.6041   -1.6854   -1.2858 C   0  0  0  0  0  0  0  0  0  0  0  0
    1.4517   -2.0637   -0.7129 H   0  0  0  0  0  0  0  0  0  0  0  0
   -0.2677   -2.2956   -1.0500 H   0  0  0  0  0  0  0  0  0  0  0  0
    0.9013   -1.8700   -2.7800 C   0  0  0  0  0  0  0  0  0  0  0  0
    1.8287   -1.3653   -3.0505 H   0  0  0  0  0  0  0  0  0  0  0  0
    1.0093   -2.9330   -2.9964 H   0  0  0  0  0  0  0  0  0  0  0  0
    0.0809   -1.4687   -3.3760 H   0  0  0  0  0  0  0  0  0  0  0  0
   -0.3971    1.3008    1.0689 C   0  0  0  0  0  0  0  0  0  0  0  0
    0.5584    1.8798    1.5836 O   0  0  0  0  0  0  0  0  0  0  0  0
   -1.5922    1.8862    0.9193 N   0  0  0  0  0  0  0  0  0  0  0  0
   -2.3251    1.3535    0.4781 H   0  0  0  0  0  0  0  0  0  0  0  0
   -1.8978    3.2469    1.3565 C   0  0  0  0  0  0  0  0  0  0  0  0
   -1.1607    3.9403    0.9456 H   0  0  0  0  0  0  0  0  0  0  0  0
   -2.8929    3.5391    1.0179 H   0  0  0  0  0  0  0  0  0  0  0  0
   -1.8547    3.3011    2.4460 H   0  0  0  0  0  0  0  0  0  0  0  0
  5  6  2  0  0  0  0
  5  7  1  0  0  0  0
  2  3  1  0  0  0  0
  2  4  1  0  0  0  0
  2  5  1  0  0  0  0
  1  2  1  0  0  0  0
 24 25  2  0  0  0  0
 24 26  1  0  0  0  0
 20 21  1  0  0  0  0
 20 22  1  0  0  0  0
 20 23  1  0  0  0  0
 17 18  1  0  0  0  0
 17 19  1  0  0  0  0
 17 20  1  0  0  0  0
 13 14  1  0  0  0  0
 13 15  1  0  0  0  0
 13 16  1  0  0  0  0
 11 12  1  0  0  0  0
 11 13  1  0  0  0  0
 11 17  1  0  0  0  0
  9 10  1  0  0  0  0
  9 11  1  0  0  0  0
  9 24  1  0  0  0  0
  7  8  1  0  0  0  0
  7  9  1  0  0  0  0
 28 29  1  0  0  0  0
 28 30  1  0  0  0  0
 28 31  1  0  0  0  0
 26 27  1  0  0  0  0
 26 28  1  0  0  0  0
M  END
$$$$
default_name
  -OEChem-01062215323D

 31 30  0     1  0  0  0  0  0999 V2000
   -3.0760   -3.6390    1.5496 H   0  0  0  0  0  0  0  0  0  0  0  0
   -3.0940   -2.6290    1.1426 C   0  0  0  0  0  0  0  0  0  0  0  0
   -3.7160   -1.9930    1.7706 H   0  0  0  0  0  0  0  0  0  0  0  0
   -3.4880   -2.6500    0.1286 H   0  0  0  0  0  0  0  0  0  0  0  0
   -1.6860   -2.0850    1.1196 C   0  0  0  0  0  0  0  0  0  0  0  0
   -0.7540   -2.7700    1.5226 O   0  0  0  0  0  0  0  0  0  0  0  0
   -1.5320   -0.8490    0.6496 N   0  0  0  0  0  0  0  0  0  0  0  0
   -2.3500   -0.3360    0.3566 H   0  0  0  0  0  0  0  0  0  0  0  0
   -0.2470   -0.1410    0.5576 C   0  0  1  0  0  0  0  0  0  0  0  0
    0.4572   -0.6505    1.2162 H   0  0  0  0  0  0  0  0  0  0  0  0
    0.3091   -0.2220   -0.8868 C   0  0  1  0  0  0  0  0  0  0  0  0
   -0.4731    0.1456   -1.5538 H   0  0  0  0  0  0  0  0  0  0  0  0
    1.5526    0.6649   -1.0892 C   0  0  0  0  0  0  0  0  0  0  0  0
    2.3908    0.2916   -0.4982 H   0  0  0  0  0  0  0  0  0  0  0  0
    1.8379    0.6822   -2.1399 H   0  0  0  0  0  0  0  0  0  0  0  0
    1.3373    1.6901   -0.7859 H   0  0  0  0  0  0  0  0  0  0  0  0
    0.6041   -1.6854   -1.2858 C   0  0  0  0  0  0  0  0  0  0  0  0
    1.4517   -2.0637   -0.7129 H   0  0  0  0  0  0  0  0  0  0  0  0
   -0.2677   -2.2956   -1.0500 H   0  0  0  0  0  0  0  0  0  0  0  0
    0.9013   -1.8700   -2.7800 C   0  0  0  0  0  0  0  0  0  0  0  0
    1.8287   -1.3653   -3.0505 H   0  0  0  0  0  0  0  0  0  0  0  0
    1.0093   -2.9330   -2.9964 H   0  0  0  0  0  0  0  0  0  0  0  0
    0.0809   -1.4687   -3.3760 H   0  0  0  0  0  0  0  0  0  0  0  0
   -0.3971    1.3008    1.0689 C   0  0  0  0  0  0  0  0  0  0  0  0
    0.5989    1.9752    1.3265 O   0  0  0  0  0  0  0  0  0  0  0  0
   -1.6402    1.7792    1.2067 N   0  0  0  0  0  0  0  0  0  0  0  0
   -2.4075    1.1721    0.9654 H   0  0  0  0  0  0  0  0  0  0  0  0
   -1.9513    3.1248    1.6853 C   0  0  0  0  0  0  0  0  0  0  0  0
   -1.4002    3.8617    1.0969 H   0  0  0  0  0  0  0  0  0  0  0  0
   -3.0207    3.3210    1.5953 H   0  0  0  0  0  0  0  0  0  0  0  0
   -1.6512    3.2214    2.7305 H   0  0  0  0  0  0  0  0  0  0  0  0
  5  6  2  0  0  0  0
  5  7  1  0  0  0  0
  2  3  1  0  0  0  0
  2  4  1  0  0  0  0
  2  5  1  0  0  0  0
  1  2  1  0  0  0  0
 24 25  2  0  0  0  0
 24 26  1  0  0  0  0
 20 21  1  0  0  0  0
 20 22  1  0  0  0  0
 20 23  1  0  0  0  0
 17 18  1  0  0  0  0
 17 19  1  0  0  0  0
 17 20  1  0  0  0  0
 13 14  1  0  0  0  0
 13 15  1  0  0  0  0
 13 16  1  0  0  0  0
 11 12  1  0  0  0  0
 11 13  1  0  0  0  0
 11 17  1  0  0  0  0
  9 10  1  0  0  0  0
  9 11  1  0  0  0  0
  9 24  1  0  0  0  0
  7  8  1  0  0  0  0
  7  9  1  0  0  0  0
 28 29  1  0  0  0  0
 28 30  1  0  0  0  0
 28 31  1  0  0  0  0
 26 27  1  0  0  0  0
 26 28  1  0  0  0  0
M  END
$$$$
default_name
  -OEChem-01062215323D

 31 30  0     1  0  0  0  0  0999 V2000
   -3.0760   -3.6390    1.5496 H   0  0  0  0  0  0  0  0  0  0  0  0
   -3.0940   -2.6290    1.1426 C   0  0  0  0  0  0  0  0  0  0  0  0
   -3.7160   -1.9930    1.7706 H   0  0  0  0  0  0  0  0  0  0  0  0
   -3.4880   -2.6500    0.1286 H   0  0  0  0  0  0  0  0  0  0  0  0
   -1.6860   -2.0850    1.1196 C   0  0  0  0  0  0  0  0  0  0  0  0
   -0.7540   -2.7700    1.5226 O   0  0  0  0  0  0  0  0  0  0  0  0
   -1.5320   -0.8490    0.6496 N   0  0  0  0  0  0  0  0  0  0  0  0
   -2.3500   -0.3360    0.3566 H   0  0  0  0  0  0  0  0  0  0  0  0
   -0.2470   -0.1410    0.5576 C   0  0  1  0  0  0  0  0  0  0  0  0
    0.4572   -0.6505    1.2162 H   0  0  0  0  0  0  0  0  0  0  0  0
    0.3091   -0.2220   -0.8868 C   0  0  1  0  0  0  0  0  0  0  0  0
   -0.4731    0.1456   -1.5538 H   0  0  0  0  0  0  0  0  0  0  0  0
    1.5526    0.6649   -1.0892 C   0  0  0  0  0  0  0  0  0  0  0  0
    2.3908    0.2916   -0.4982 H   0  0  0  0  0  0  0  0  0  0  0  0
    1.8379    0.6822   -2.1399 H   0  0  0  0  0  0  0  0  0  0  0  0
    1.3373    1.6901   -0.7859 H   0  0  0  0  0  0  0  0  0  0  0  0
    0.6041   -1.6854   -1.2858 C   0  0  0  0  0  0  0  0  0  0  0  0
    1.4517   -2.0637   -0.7129 H   0  0  0  0  0  0  0  0  0  0  0  0
   -0.2677   -2.2956   -1.0500 H   0  0  0  0  0  0  0  0  0  0  0  0
    0.9013   -1.8700   -2.7800 C   0  0  0  0  0  0  0  0  0  0  0  0
    1.8287   -1.3653   -3.0505 H   0  0  0  0  0  0  0  0  0  0  0  0
    1.0093   -2.9330   -2.9964 H   0  0  0  0  0  0  0  0  0  0  0  0
    0.0809   -1.4687   -3.3760 H   0  0  0  0  0  0  0  0  0  0  0  0
   -0.3971    1.3008    1.0689 C   0  0  0  0  0  0  0  0  0  0  0  0
    0.5674    2.0643    1.0659 O   0  0  0  0  0  0  0  0  0  0  0  0
   -1.6076    1.6791    1.4987 N   0  0  0  0  0  0  0  0  0  0  0  0
   -2.3532    1.0021    1.4607 H   0  0  0  0  0  0  0  0  0  0  0  0
   -1.9126    3.0105    2.0189 C   0  0  0  0  0  0  0  0  0  0  0  0
   -1.5880    3.7690    1.3032 H   0  0  0  0  0  0  0  0  0  0  0  0
   -2.9851    3.1140    2.1896 H   0  0  0  0  0  0  0  0  0  0  0  0
   -1.3786    3.1691    2.9578 H   0  0  0  0  0  0  0  0  0  0  0  0
  5  6  2  0  0  0  0
  5  7  1  0  0  0  0
  2  3  1  0  0  0  0
  2  4  1  0  0  0  0
  2  5  1  0  0  0  0
  1  2  1  0  0  0  0
 24 25  2  0  0  0  0
 24 26  1  0  0  0  0
 20 21  1  0  0  0  0
 20 22  1  0  0  0  0
 20 23  1  0  0  0  0
 17 18  1  0  0  0  0
 17 19  1  0  0  0  0
 17 20  1  0  0  0  0
 13 14  1  0  0  0  0
 13 15  1  0  0  0  0
 13 16  1  0  0  0  0
 11 12  1  0  0  0  0
 11 13  1  0  0  0  0
 11 17  1  0  0  0  0
  9 10  1  0  0  0  0
  9 11  1  0  0  0  0
  9 24  1  0  0  0  0
  7  8  1  0  0  0  0
  7  9  1  0  0  0  0
 28 29  1  0  0  0  0
 28 30  1  0  0  0  0
 28 31  1  0  0  0  0
 26 27  1  0  0  0  0
 26 28  1  0  0  0  0
M  END
$$$$
default_name
  -OEChem-01062215323D

 31 30  0     1  0  0  0  0  0999 V2000
   -3.0760   -3.6390    1.5496 H   0  0  0  0  0  0  0  0  0  0  0  0
   -3.0940   -2.6290    1.1426 C   0  0  0  0  0  0  0  0  0  0  0  0
   -3.7160   -1.9930    1.7706 H   0  0  0  0  0  0  0  0  0  0  0  0
   -3.4880   -2.6500    0.1286 H   0  0  0  0  0  0  0  0  0  0  0  0
   -1.6860   -2.0850    1.1196 C   0  0  0  0  0  0  0  0  0  0  0  0
   -0.7540   -2.7700    1.5226 O   0  0  0  0  0  0  0  0  0  0  0  0
   -1.5320   -0.8490    0.6496 N   0  0  0  0  0  0  0  0  0  0  0  0
   -2.3500   -0.3360    0.3566 H   0  0  0  0  0  0  0  0  0  0  0  0
   -0.2470   -0.1410    0.5576 C   0  0  1  0  0  0  0  0  0  0  0  0
    0.4572   -0.6505    1.2162 H   0  0  0  0  0  0  0  0  0  0  0  0
    0.3091   -0.2220   -0.8868 C   0  0  1  0  0  0  0  0  0  0  0  0
   -0.4731    0.1456   -1.5538 H   0  0  0  0  0  0  0  0  0  0  0  0
    1.5526    0.6649   -1.0892 C   0  0  0  0  0  0  0  0  0  0  0  0
    2.3908    0.2916   -0.4982 H   0  0  0  0  0  0  0  0  0  0  0  0
    1.8379    0.6822   -2.1399 H   0  0  0  0  0  0  0  0  0  0  0  0
    1.3373    1.6901   -0.7859 H   0  0  0  0  0  0  0  0  0  0  0  0
    0.6041   -1.6854   -1.2858 C   0  0  0  0  0  0  0  0  0  0  0  0
    1.4517   -2.0637   -0.7129 H   0  0  0  0  0  0  0  0  0  0  0  0
   -0.2677   -2.2956   -1.0500 H   0  0  0  0  0  0  0  0  0  0  0  0
    0.9013   -1.8700   -2.7800 C   0  0  0  0  0  0  0  0  0  0  0  0
    1.8287   -1.3653   -3.0505 H   0  0  0  0  0  0  0  0  0  0  0  0
    1.0093   -2.9330   -2.9964 H   0  0  0  0  0  0  0  0  0  0  0  0
    0.0809   -1.4687   -3.3760 H   0  0  0  0  0  0  0  0  0  0  0  0
   -0.3971    1.3008    1.0689 C   0  0  0  0  0  0  0  0  0  0  0  0
    0.4660    2.1411    0.8196 O   0  0  0  0  0  0  0  0  0  0  0  0
   -1.4967    1.5926    1.7754 N   0  0  0  0  0  0  0  0  0  0  0  0
   -2.1658    0.8551    1.9303 H   0  0  0  0  0  0  0  0  0  0  0  0
   -1.7843    2.9119    2.3347 C   0  0  0  0  0  0  0  0  0  0  0  0
   -1.7114    3.6686    1.5503 H   0  0  0  0  0  0  0  0  0  0  0  0
   -2.7887    2.9321    2.7602 H   0  0  0  0  0  0  0  0  0  0  0  0
   -1.0557    3.1479    3.1126 H   0  0  0  0  0  0  0  0  0  0  0  0
  5  6  2  0  0  0  0
  5  7  1  0  0  0  0
  2  3  1  0  0  0  0
  2  4  1  0  0  0  0
  2  5  1  0  0  0  0
  1  2  1  0  0  0  0
 24 25  2  0  0  0  0
 24 26  1  0  0  0  0
 20 21  1  0  0  0  0
 20 22  1  0  0  0  0
 20 23  1  0  0  0  0
 17 18  1  0  0  0  0
 17 19  1  0  0  0  0
 17 20  1  0  0  0  0
 13 14  1  0  0  0  0
 13 15  1  0  0  0  0
 13 16  1  0  0  0  0
 11 12  1  0  0  0  0
 11 13  1  0  0  0  0
 11 17  1  0  0  0  0
  9 10  1  0  0  0  0
  9 11  1  0  0  0  0
  9 24  1  0  0  0  0
  7  8  1  0  0  0  0
  7  9  1  0  0  0  0
 28 29  1  0  0  0  0
 28 30  1  0  0  0  0
 28 31  1  0  0  0  0
 26 27  1  0  0  0  0
 26 28  1  0  0  0  0
M  END
$$$$
default_name
  -OEChem-01062215323D

 31 30  0     1  0  0  0  0  0999 V2000
   -3.0760   -3.6390    1.5496 H   0  0  0  0  0  0  0  0  0  0  0  0
   -3.0940   -2.6290    1.1426 C   0  0  0  0  0  0  0  0  0  0  0  0
   -3.7160   -1.9930    1.7706 H   0  0  0  0  0  0  0  0  0  0  0  0
   -3.4880   -2.6500    0.1286 H   0  0  0  0  0  0  0  0  0  0  0  0
   -1.6860   -2.0850    1.1196 C   0  0  0  0  0  0  0  0  0  0  0  0
   -0.7540   -2.7700    1.5226 O   0  0  0  0  0  0  0  0  0  0  0  0
   -1.5320   -0.8490    0.6496 N   0  0  0  0  0  0  0  0  0  0  0  0
   -2.3500   -0.3360    0.3566 H   0  0  0  0  0  0  0  0  0  0  0  0
   -0.2470   -0.1410    0.5576 C   0  0  1  0  0  0  0  0  0  0  0  0
    0.4572   -0.6505    1.2162 H   0  0  0  0  0  0  0  0  0  0  0  0
    0.3091   -0.2220   -0.8868 C   0  0  1  0  0  0  0  0  0  0  0  0
   -0.4731    0.1456   -1.5538 H   0  0  0  0  0  0  0  0  0  0  0  0
    1.5526    0.6649   -1.0892 C   0  0  0  0  0  0  0  0  0  0  0  0
    2.3908    0.2916   -0.4982 H   0  0  0  0  0  0  0  0  0  0  0  0
    1.8379    0.6822   -2.1399 H   0  0  0  0  0  0  0  0  0  0  0  0
    1.3373    1.6901   -0.7859 H   0  0  0  0  0  0  0  0  0  0  0  0
    0.6041   -1.6854   -1.2858 C   0  0  0  0  0  0  0  0  0  0  0  0
    1.4517   -2.0637   -0.7129 H   0  0  0  0  0  0  0  0  0  0  0  0
   -0.2677   -2.2956   -1.0500 H   0  0  0  0  0  0  0  0  0  0  0  0
    0.9013   -1.8700   -2.7800 C   0  0  0  0  0  0  0  0  0  0  0  0
    1.8287   -1.3653   -3.0505 H   0  0  0  0  0  0  0  0  0  0  0  0
    1.0093   -2.9330   -2.9964 H   0  0  0  0  0  0  0  0  0  0  0  0
    0.0809   -1.4687   -3.3760 H   0  0  0  0  0  0  0  0  0  0  0  0
   -0.3971    1.3008    1.0689 C   0  0  0  0  0  0  0  0  0  0  0  0
    0.3017    2.2003    0.6043 O   0  0  0  0  0  0  0  0  0  0  0  0
   -1.3148    1.5255    2.0178 N   0  0  0  0  0  0  0  0  0  0  0  0
   -1.8582    0.7411    2.3420 H   0  0  0  0  0  0  0  0  0  0  0  0
   -1.5754    2.8357    2.6110 C   0  0  0  0  0  0  0  0  0  0  0  0
   -1.7619    3.5671    1.8216 H   0  0  0  0  0  0  0  0  0  0  0  0
   -2.4448    2.7877    3.2683 H   0  0  0  0  0  0  0  0  0  0  0  0
   -0.7044    3.1591    3.1842 H   0  0  0  0  0  0  0  0  0  0  0  0
  5  6  2  0  0  0  0
  5  7  1  0  0  0  0
  2  3  1  0  0  0  0
  2  4  1  0  0  0  0
  2  5  1  0  0  0  0
  1  2  1  0  0  0  0
 24 25  2  0  0  0  0
 24 26  1  0  0  0  0
 20 21  1  0  0  0  0
 20 22  1  0  0  0  0
 20 23  1  0  0  0  0
 17 18  1  0  0  0  0
 17 19  1  0  0  0  0
 17 20  1  0  0  0  0
 13 14  1  0  0  0  0
 13 15  1  0  0  0  0
 13 16  1  0  0  0  0
 11 12  1  0  0  0  0
 11 13  1  0  0  0  0
 11 17  1  0  0  0  0
  9 10  1  0  0  0  0
  9 11  1  0  0  0  0
  9 24  1  0  0  0  0
  7  8  1  0  0  0  0
  7  9  1  0  0  0  0
 28 29  1  0  0  0  0
 28 30  1  0  0  0  0
 28 31  1  0  0  0  0
 26 27  1  0  0  0  0
 26 28  1  0  0  0  0
M  END
$$$$
default_name
  -OEChem-01062215323D

 31 30  0     1  0  0  0  0  0999 V2000
   -3.0760   -3.6390    1.5496 H   0  0  0  0  0  0  0  0  0  0  0  0
   -3.0940   -2.6290    1.1426 C   0  0  0  0  0  0  0  0  0  0  0  0
   -3.7160   -1.9930    1.7706 H   0  0  0  0  0  0  0  0  0  0  0  0
   -3.4880   -2.6500    0.1286 H   0  0  0  0  0  0  0  0  0  0  0  0
   -1.6860   -2.0850    1.1196 C   0  0  0  0  0  0  0  0  0  0  0  0
   -0.7540   -2.7700    1.5226 O   0  0  0  0  0  0  0  0  0  0  0  0
   -1.5320   -0.8490    0.6496 N   0  0  0  0  0  0  0  0  0  0  0  0
   -2.3500   -0.3360    0.3566 H   0  0  0  0  0  0  0  0  0  0  0  0
   -0.2470   -0.1410    0.5576 C   0  0  1  0  0  0  0  0  0  0  0  0
    0.4572   -0.6505    1.2162 H   0  0  0  0  0  0  0  0  0  0  0  0
    0.3091   -0.2220   -0.8868 C   0  0  1  0  0  0  0  0  0  0  0  0
   -0.4731    0.1456   -1.5538 H   0  0  0  0  0  0  0  0  0  0  0  0
    1.5526    0.6649   -1.0892 C   0  0  0  0  0  0  0  0  0  0  0  0
    2.3908    0.2916   -0.4982 H   0  0  0  0  0  0  0  0  0  0  0  0
    1.8379    0.6822   -2.1399 H   0  0  0  0  0  0  0  0  0  0  0  0
    1.3373    1.6901   -0.7859 H   0  0  0  0  0  0  0  0  0  0  0  0
    0.6041   -1.6854   -1.2858 C   0  0  0  0  0  0  0  0  0  0  0  0
    1.4517   -2.0637   -0.7129 H   0  0  0  0  0  0  0  0  0  0  0  0
   -0.2677   -2.2956   -1.0500 H   0  0  0  0  0  0  0  0  0  0  0  0
    0.9013   -1.8700   -2.7800 C   0  0  0  0  0  0  0  0  0  0  0  0
    1.8287   -1.3653   -3.0505 H   0  0  0  0  0  0  0  0  0  0  0  0
    1.0093   -2.9330   -2.9964 H   0  0  0  0  0  0  0  0  0  0  0  0
    0.0809   -1.4687   -3.3760 H   0  0  0  0  0  0  0  0  0  0  0  0
   -0.3971    1.3008    1.0689 C   0  0  0  0  0  0  0  0  0  0  0  0
    0.0856    2.2379    0.4348 O   0  0  0  0  0  0  0  0  0  0  0  0
   -1.0746    1.4825    2.2096 N   0  0  0  0  0  0  0  0  0  0  0  0
   -1.4513    0.6679    2.6680 H   0  0  0  0  0  0  0  0  0  0  0  0
   -1.2999    2.7870    2.8291 C   0  0  0  0  0  0  0  0  0  0  0  0
   -1.7361    3.4716    2.0984 H   0  0  0  0  0  0  0  0  0  0  0  0
   -1.9768    2.6907    3.6792 H   0  0  0  0  0  0  0  0  0  0  0  0
   -0.3486    3.2019    3.1678 H   0  0  0  0  0  0  0  0  0  0  0  0
  5  6  2  0  0  0  0
  5  7  1  0  0  0  0
  2  3  1  0  0  0  0
  2  4  1  0  0  0  0
  2  5  1  0  0  0  0
  1  2  1  0  0  0  0
 24 25  2  0  0  0  0
 24 26  1  0  0  0  0
 20 21  1  0  0  0  0
 20 22  1  0  0  0  0
 20 23  1  0  0  0  0
 17 18  1  0  0  0  0
 17 19  1  0  0  0  0
 17 20  1  0  0  0  0
 13 14  1  0  0  0  0
 13 15  1  0  0  0  0
 13 16  1  0  0  0  0
 11 12  1  0  0  0  0
 11 13  1  0  0  0  0
 11 17  1  0  0  0  0
  9 10  1  0  0  0  0
  9 11  1  0  0  0  0
  9 24  1  0  0  0  0
  7  8  1  0  0  0  0
  7  9  1  0  0  0  0
 28 29  1  0  0  0  0
 28 30  1  0  0  0  0
 28 31  1  0  0  0  0
 26 27  1  0  0  0  0
 26 28  1  0  0  0  0
M  END
$$$$
default_name
  -OEChem-01062215323D

 31 30  0     1  0  0  0  0  0999 V2000
   -3.0760   -3.6390    1.5496 H   0  0  0  0  0  0  0  0  0  0  0  0
   -3.0940   -2.6290    1.1426 C   0  0  0  0  0  0  0  0  0  0  0  0
   -3.7160   -1.9930    1.7706 H   0  0  0  0  0  0  0  0  0  0  0  0
   -3.4880   -2.6500    0.1286 H   0  0  0  0  0  0  0  0  0  0  0  0
   -1.6860   -2.0850    1.1196 C   0  0  0  0  0  0  0  0  0  0  0  0
   -0.7540   -2.7700    1.5226 O   0  0  0  0  0  0  0  0  0  0  0  0
   -1.5320   -0.8490    0.6496 N   0  0  0  0  0  0  0  0  0  0  0  0
   -2.3500   -0.3360    0.3566 H   0  0  0  0  0  0  0  0  0  0  0  0
   -0.2470   -0.1410    0.5576 C   0  0  1  0  0  0  0  0  0  0  0  0
    0.4572   -0.6505    1.2162 H   0  0  0  0  0  0  0  0  0  0  0  0
    0.3091   -0.2220   -0.8868 C   0  0  1  0  0  0  0  0  0  0  0  0
   -0.4731    0.1456   -1.5538 H   0  0  0  0  0  0  0  0  0  0  0  0
    1.5526    0.6649   -1.0892 C   0  0  0  0  0  0  0  0  0  0  0  0
    2.3908    0.2916   -0.4982 H   0  0  0  0  0  0  0  0  0  0  0  0
    1.8379    0.6822   -2.1399 H   0  0  0  0  0  0  0  0  0  0  0  0
    1.3373    1.6901   -0.7859 H   0  0  0  0  0  0  0  0  0  0  0  0
    0.6041   -1.6854   -1.2858 C   0  0  0  0  0  0  0  0  0  0  0  0
    1.4517   -2.0637   -0.7129 H   0  0  0  0  0  0  0  0  0  0  0  0
   -0.2677   -2.2956   -1.0500 H   0  0  0  0  0  0  0  0  0  0  0  0
    0.9013   -1.8700   -2.7800 C   0  0  0  0  0  0  0  0  0  0  0  0
    1.8287   -1.3653   -3.0505 H   0  0  0  0  0  0  0  0  0  0  0  0
    1.0093   -2.9330   -2.9964 H   0  0  0  0  0  0  0  0  0  0  0  0
    0.0809   -1.4687   -3.3760 H   0  0  0  0  0  0  0  0  0  0  0  0
   -0.3971    1.3008    1.0689 C   0  0  0  0  0  0  0  0  0  0  0  0
   -0.1675    2.2514    0.3226 O   0  0  0  0  0  0  0  0  0  0  0  0
   -0.7923    1.4665    2.3376 N   0  0  0  0  0  0  0  0  0  0  0  0
   -0.9728    0.6405    2.8859 H   0  0  0  0  0  0  0  0  0  0  0  0
   -0.9766    2.7692    2.9742 C   0  0  0  0  0  0  0  0  0  0  0  0
   -1.6358    3.3886    2.3619 H   0  0  0  0  0  0  0  0  0  0  0  0
   -1.4166    2.6477    3.9650 H   0  0  0  0  0  0  0  0  0  0  0  0
   -0.0126    3.2735    3.0645 H   0  0  0  0  0  0  0  0  0  0  0  0
  5  6  2  0  0  0  0
  5  7  1  0  0  0  0
  2  3  1  0  0  0  0
  2  4  1  0  0  0  0
  2  5  1  0  0  0  0
  1  2  1  0  0  0  0
 24 25  2  0  0  0  0
 24 26  1  0  0  0  0
 20 21  1  0  0  0  0
 20 22  1  0  0  0  0
 20 23  1  0  0  0  0
 17 18  1  0  0  0  0
 17 19  1  0  0  0  0
 17 20  1  0  0  0  0
 13 14  1  0  0  0  0
 13 15  1  0  0  0  0
 13 16  1  0  0  0  0
 11 12  1  0  0  0  0
 11 13  1  0  0  0  0
 11 17  1  0  0  0  0
  9 10  1  0  0  0  0
  9 11  1  0  0  0  0
  9 24  1  0  0  0  0
  7  8  1  0  0  0  0
  7  9  1  0  0  0  0
 28 29  1  0  0  0  0
 28 30  1  0  0  0  0
 28 31  1  0  0  0  0
 26 27  1  0  0  0  0
 26 28  1  0  0  0  0
M  END
$$$$
default_name
  -OEChem-01062215323D

 31 30  0     1  0  0  0  0  0999 V2000
   -3.0760   -3.6390    1.5496 H   0  0  0  0  0  0  0  0  0  0  0  0
   -3.0940   -2.6290    1.1426 C   0  0  0  0  0  0  0  0  0  0  0  0
   -3.7160   -1.9930    1.7706 H   0  0  0  0  0  0  0  0  0  0  0  0
   -3.4880   -2.6500    0.1286 H   0  0  0  0  0  0  0  0  0  0  0  0
   -1.6860   -2.0850    1.1196 C   0  0  0  0  0  0  0  0  0  0  0  0
   -0.7540   -2.7700    1.5226 O   0  0  0  0  0  0  0  0  0  0  0  0
   -1.5320   -0.8490    0.6496 N   0  0  0  0  0  0  0  0  0  0  0  0
   -2.3500   -0.3360    0.3566 H   0  0  0  0  0  0  0  0  0  0  0  0
   -0.2470   -0.1410    0.5576 C   0  0  1  0  0  0  0  0  0  0  0  0
    0.4572   -0.6505    1.2162 H   0  0  0  0  0  0  0  0  0  0  0  0
    0.3091   -0.2220   -0.8868 C   0  0  1  0  0  0  0  0  0  0  0  0
   -0.4731    0.1456   -1.5538 H   0  0  0  0  0  0  0  0  0  0  0  0
    1.5526    0.6649   -1.0892 C   0  0  0  0  0  0  0  0  0  0  0  0
    2.3908    0.2916   -0.4982 H   0  0  0  0  0  0  0  0  0  0  0  0
    1.8379    0.6822   -2.1399 H   0  0  0  0  0  0  0  0  0  0  0  0
    1.3373    1.6901   -0.7859 H   0  0  0  0  0  0  0  0  0  0  0  0
    0.6041   -1.6854   -1.2858 C   0  0  0  0  0  0  0  0  0  0  0  0
    1.4517   -2.0637   -0.7129 H   0  0  0  0  0  0  0  0  0  0  0  0
   -0.2677   -2.2956   -1.0500 H   0  0  0  0  0  0  0  0  0  0  0  0
    0.9013   -1.8700   -2.7800 C   0  0  0  0  0  0  0  0  0  0  0  0
    1.8287   -1.3653   -3.0505 H   0  0  0  0  0  0  0  0  0  0  0  0
    1.0093   -2.9330   -2.9964 H   0  0  0  0  0  0  0  0  0  0  0  0
    0.0809   -1.4687   -3.3760 H   0  0  0  0  0  0  0  0  0  0  0  0
   -0.3971    1.3008    1.0689 C   0  0  0  0  0  0  0  0  0  0  0  0
   -0.4405    2.2397    0.2753 O   0  0  0  0  0  0  0  0  0  0  0  0
   -0.4871    1.4786    2.3931 N   0  0  0  0  0  0  0  0  0  0  0  0
   -0.4554    0.6606    2.9809 H   0  0  0  0  0  0  0  0  0  0  0  0
   -0.6276    2.7836    3.0362 C   0  0  0  0  0  0  0  0  0  0  0  0
   -1.4678    3.3237    2.5943 H   0  0  0  0  0  0  0  0  0  0  0  0
   -0.8025    2.6616    4.1062 H   0  0  0  0  0  0  0  0  0  0  0  0
    0.2807    3.3690    2.8813 H   0  0  0  0  0  0  0  0  0  0  0  0
  5  6  2  0  0  0  0
  5  7  1  0  0  0  0
  2  3  1  0  0  0  0
  2  4  1  0  0  0  0
  2  5  1  0  0  0  0
  1  2  1  0  0  0  0
 24 25  2  0  0  0  0
 24 26  1  0  0  0  0
 20 21  1  0  0  0  0
 20 22  1  0  0  0  0
 20 23  1  0  0  0  0
 17 18  1  0  0  0  0
 17 19  1  0  0  0  0
 17 20  1  0  0  0  0
 13 14  1  0  0  0  0
 13 15  1  0  0  0  0
 13 16  1  0  0  0  0
 11 12  1  0  0  0  0
 11 13  1  0  0  0  0
 11 17  1  0  0  0  0
  9 10  1  0  0  0  0
  9 11  1  0  0  0  0
  9 24  1  0  0  0  0
  7  8  1  0  0  0  0
  7  9  1  0  0  0  0
 28 29  1  0  0  0  0
 28 30  1  0  0  0  0
 28 31  1  0  0  0  0
 26 27  1  0  0  0  0
 26 28  1  0  0  0  0
M  END
$$$$
default_name
  -OEChem-01062215323D

 31 30  0     1  0  0  0  0  0999 V2000
   -3.0760   -3.6390    1.5496 H   0  0  0  0  0  0  0  0  0  0  0  0
   -3.0940   -2.6290    1.1426 C   0  0  0  0  0  0  0  0  0  0  0  0
   -3.7160   -1.9930    1.7706 H   0  0  0  0  0  0  0  0  0  0  0  0
   -3.4880   -2.6500    0.1286 H   0  0  0  0  0  0  0  0  0  0  0  0
   -1.6860   -2.0850    1.1196 C   0  0  0  0  0  0  0  0  0  0  0  0
   -0.7540   -2.7700    1.5226 O   0  0  0  0  0  0  0  0  0  0  0  0
   -1.5320   -0.8490    0.6496 N   0  0  0  0  0  0  0  0  0  0  0  0
   -2.3500   -0.3360    0.3566 H   0  0  0  0  0  0  0  0  0  0  0  0
   -0.2470   -0.1410    0.5576 C   0  0  1  0  0  0  0  0  0  0  0  0
    0.4572   -0.6505    1.2162 H   0  0  0  0  0  0  0  0  0  0  0  0
    0.3091   -0.2220   -0.8868 C   0  0  1  0  0  0  0  0  0  0  0  0
   -0.4731    0.1456   -1.5538 H   0  0  0  0  0  0  0  0  0  0  0  0
    1.5526    0.6649   -1.0892 C   0  0  0  0  0  0  0  0  0  0  0  0
    2.3908    0.2916   -0.4982 H   0  0  0  0  0  0  0  0  0  0  0  0
    1.8379    0.6822   -2.1399 H   0  0  0  0  0  0  0  0  0  0  0  0
    1.3373    1.6901   -0.7859 H   0  0  0  0  0  0  0  0  0  0  0  0
    0.6041   -1.6854   -1.2858 C   0  0  0  0  0  0  0  0  0  0  0  0
    1.4517   -2.0637   -0.7129 H   0  0  0  0  0  0  0  0  0  0  0  0
   -0.2677   -2.2956   -1.0500 H   0  0  0  0  0  0  0  0  0  0  0  0
    0.9013   -1.8700   -2.7800 C   0  0  0  0  0  0  0  0  0  0  0  0
    1.8287   -1.3653   -3.0505 H   0  0  0  0  0  0  0  0  0  0  0  0
    1.0093   -2.9330   -2.9964 H   0  0  0  0  0  0  0  0  0  0  0  0
    0.0809   -1.4687   -3.3760 H   0  0  0  0  0  0  0  0  0  0  0  0
   -0.3971    1.3008    1.0689 C   0  0  0  0  0  0  0  0  0  0  0  0
   -0.7145    2.2038    0.2961 O   0  0  0  0  0  0  0  0  0  0  0  0
   -0.1800    1.5180    2.3723 N   0  0  0  0  0  0  0  0  0  0  0  0
    0.0658    0.7271    2.9465 H   0  0  0  0  0  0  0  0  0  0  0  0
   -0.2766    2.8290    3.0111 C   0  0  0  0  0  0  0  0  0  0  0  0
   -1.2435    3.2814    2.7795 H   0  0  0  0  0  0  0  0  0  0  0  0
   -0.1762    2.7314    4.0930 H   0  0  0  0  0  0  0  0  0  0  0  0
    0.5113    3.4819    2.6308 H   0  0  0  0  0  0  0  0  0  0  0  0
  5  6  2  0  0  0  0
  5  7  1  0  0  0  0
  2  3  1  0  0  0  0
  2  4  1  0  0  0  0
  2  5  1  0  0  0  0
  1  2  1  0  0  0  0
 24 25  2  0  0  0  0
 24 26  1  0  0  0  0
 20 21  1  0  0  0  0
 20 22  1  0  0  0  0
 20 23  1  0  0  0  0
 17 18  1  0  0  0  0
 17 19  1  0  0  0  0
 17 20  1  0  0  0  0
 13 14  1  0  0  0  0
 13 15  1  0  0  0  0
 13 16  1  0  0  0  0
 11 12  1  0  0  0  0
 11 13  1  0  0  0  0
 11 17  1  0  0  0  0
  9 10  1  0  0  0  0
  9 11  1  0  0  0  0
  9 24  1  0  0  0  0
  7  8  1  0  0  0  0
  7  9  1  0  0  0  0
 28 29  1  0  0  0  0
 28 30  1  0  0  0  0
 28 31  1  0  0  0  0
 26 27  1  0  0  0  0
 26 28  1  0  0  0  0
M  END
$$$$
default_name
  -OEChem-01062215323D

 31 30  0     1  0  0  0  0  0999 V2000
   -3.0760   -3.6390    1.5496 H   0  0  0  0  0  0  0  0  0  0  0  0
   -3.0940   -2.6290    1.1426 C   0  0  0  0  0  0  0  0  0  0  0  0
   -3.7160   -1.9930    1.7706 H   0  0  0  0  0  0  0  0  0  0  0  0
   -3.4880   -2.6500    0.1286 H   0  0  0  0  0  0  0  0  0  0  0  0
   -1.6860   -2.0850    1.1196 C   0  0  0  0  0  0  0  0  0  0  0  0
   -0.7540   -2.7700    1.5226 O   0  0  0  0  0  0  0  0  0  0  0  0
   -1.5320   -0.8490    0.6496 N   0  0  0  0  0  0  0  0  0  0  0  0
   -2.3500   -0.3360    0.3566 H   0  0  0  0  0  0  0  0  0  0  0  0
   -0.2470   -0.1410    0.5576 C   0  0  1  0  0  0  0  0  0  0  0  0
    0.4572   -0.6505    1.2162 H   0  0  0  0  0  0  0  0  0  0  0  0
    0.3091   -0.2220   -0.8868 C   0  0  1  0  0  0  0  0  0  0  0  0
   -0.4731    0.1456   -1.5538 H   0  0  0  0  0  0  0  0  0  0  0  0
    1.5526    0.6649   -1.0892 C   0  0  0  0  0  0  0  0  0  0  0  0
    2.3908    0.2916   -0.4982 H   0  0  0  0  0  0  0  0  0  0  0  0
    1.8379    0.6822   -2.1399 H   0  0  0  0  0  0  0  0  0  0  0  0
    1.3373    1.6901   -0.7859 H   0  0  0  0  0  0  0  0  0  0  0  0
    0.6041   -1.6854   -1.2858 C   0  0  0  0  0  0  0  0  0  0  0  0
    1.4517   -2.0637   -0.7129 H   0  0  0  0  0  0  0  0  0  0  0  0
   -0.2677   -2.2956   -1.0500 H   0  0  0  0  0  0  0  0  0  0  0  0
    0.9013   -1.8700   -2.7800 C   0  0  0  0  0  0  0  0  0  0  0  0
    1.8287   -1.3653   -3.0505 H   0  0  0  0  0  0  0  0  0  0  0  0
    1.0093   -2.9330   -2.9964 H   0  0  0  0  0  0  0  0  0  0  0  0
    0.0809   -1.4687   -3.3760 H   0  0  0  0  0  0  0  0  0  0  0  0
   -0.3971    1.3008    1.0689 C   0  0  0  0  0  0  0  0  0  0  0  0
   -0.9711    2.1460    0.3837 O   0  0  0  0  0  0  0  0  0  0  0  0
    0.1083    1.5819    2.2766 N   0  0  0  0  0  0  0  0  0  0  0  0
    0.5551    0.8353    2.7851 H   0  0  0  0  0  0  0  0  0  0  0  0
    0.0523    2.9025    2.9005 C   0  0  0  0  0  0  0  0  0  0  0  0
   -0.9782    3.2645    2.9050 H   0  0  0  0  0  0  0  0  0  0  0  0
    0.4195    2.8525    3.9266 H   0  0  0  0  0  0  0  0  0  0  0  0
    0.6636    3.6044    2.3300 H   0  0  0  0  0  0  0  0  0  0  0  0
  5  6  2  0  0  0  0
  5  7  1  0  0  0  0
  2  3  1  0  0  0  0
  2  4  1  0  0  0  0
  2  5  1  0  0  0  0
  1  2  1  0  0  0  0
 24 25  2  0  0  0  0
 24 26  1  0  0  0  0
 20 21  1  0  0  0  0
 20 22  1  0  0  0  0
 20 23  1  0  0  0  0
 17 18  1  0  0  0  0
 17 19  1  0  0  0  0
 17 20  1  0  0  0  0
 13 14  1  0  0  0  0
 13 15  1  0  0  0  0
 13 16  1  0  0  0  0
 11 12  1  0  0  0  0
 11 13  1  0  0  0  0
 11 17  1  0  0  0  0
  9 10  1  0  0  0  0
  9 11  1  0  0  0  0
  9 24  1  0  0  0  0
  7  8  1  0  0  0  0
  7  9  1  0  0  0  0
 28 29  1  0  0  0  0
 28 30  1  0  0  0  0
 28 31  1  0  0  0  0
 26 27  1  0  0  0  0
 26 28  1  0  0  0  0
M  END
$$$$
default_name
  -OEChem-01062215323D

 31 30  0     1  0  0  0  0  0999 V2000
   -3.0760   -3.6390    1.5496 H   0  0  0  0  0  0  0  0  0  0  0  0
   -3.0940   -2.6290    1.1426 C   0  0  0  0  0  0  0  0  0  0  0  0
   -3.7160   -1.9930    1.7706 H   0  0  0  0  0  0  0  0  0  0  0  0
   -3.4880   -2.6500    0.1286 H   0  0  0  0  0  0  0  0  0  0  0  0
   -1.6860   -2.0850    1.1196 C   0  0  0  0  0  0  0  0  0  0  0  0
   -0.7540   -2.7700    1.5226 O   0  0  0  0  0  0  0  0  0  0  0  0
   -1.5320   -0.8490    0.6496 N   0  0  0  0  0  0  0  0  0  0  0  0
   -2.3500   -0.3360    0.3566 H   0  0  0  0  0  0  0  0  0  0  0  0
   -0.2470   -0.1410    0.5576 C   0  0  1  0  0  0  0  0  0  0  0  0
    0.4572   -0.6505    1.2162 H   0  0  0  0  0  0  0  0  0  0  0  0
    0.3091   -0.2220   -0.8868 C   0  0  1  0  0  0  0  0  0  0  0  0
   -0.4731    0.1456   -1.5538 H   0  0  0  0  0  0  0  0  0  0  0  0
    1.5526    0.6649   -1.0892 C   0  0  0  0  0  0  0  0  0  0  0  0
    2.3908    0.2916   -0.4982 H   0  0  0  0  0  0  0  0  0  0  0  0
    1.8379    0.6822   -2.1399 H   0  0  0  0  0  0  0  0  0  0  0  0
    1.3373    1.6901   -0.7859 H   0  0  0  0  0  0  0  0  0  0  0  0
    0.6041   -1.6854   -1.2858 C   0  0  0  0  0  0  0  0  0  0  0  0
    1.4517   -2.0637   -0.7129 H   0  0  0  0  0  0  0  0  0  0  0  0
   -0.2677   -2.2956   -1.0500 H   0  0  0  0  0  0  0  0  0  0  0  0
    0.9013   -1.8700   -2.7800 C   0  0  0  0  0  0  0  0  0  0  0  0
    1.8287   -1.3653   -3.0505 H   0  0  0  0  0  0  0  0  0  0  0  0
    1.0093   -2.9330   -2.9964 H   0  0  0  0  0  0  0  0  0  0  0  0
    0.0809   -1.4687   -3.3760 H   0  0  0  0  0  0  0  0  0  0  0  0
   -0.3971    1.3008    1.0689 C   0  0  0  0  0  0  0  0  0  0  0  0
   -1.1927    2.0703    0.5321 O   0  0  0  0  0  0  0  0  0  0  0  0
    0.3581    1.6661    2.1126 N   0  0  0  0  0  0  0  0  0  0  0  0
    0.9792    0.9778    2.5077 H   0  0  0  0  0  0  0  0  0  0  0  0
    0.3369    2.9990    2.7119 C   0  0  0  0  0  0  0  0  0  0  0  0
   -0.6900    3.2742    2.9623 H   0  0  0  0  0  0  0  0  0  0  0  0
    0.9441    3.0165    3.6181 H   0  0  0  0  0  0  0  0  0  0  0  0
    0.7270    3.7283    1.9993 H   0  0  0  0  0  0  0  0  0  0  0  0
  5  6  2  0  0  0  0
  5  7  1  0  0  0  0
  2  3  1  0  0  0  0
  2  4  1  0  0  0  0
  2  5  1  0  0  0  0
  1  2  1  0  0  0  0
 24 25  2  0  0  0  0
 24 26  1  0  0  0  0
 20 21  1  0  0  0  0
 20 22  1  0  0  0  0
 20 23  1  0  0  0  0
 17 18  1  0  0  0  0
 17 19  1  0  0  0  0
 17 20  1  0  0  0  0
 13 14  1  0  0  0  0
 13 15  1  0  0  0  0
 13 16  1  0  0  0  0
 11 12  1  0  0  0  0
 11 13  1  0  0  0  0
 11 17  1  0  0  0  0
  9 10  1  0  0  0  0
  9 11  1  0  0  0  0
  9 24  1  0  0  0  0
  7  8  1  0  0  0  0
  7  9  1  0  0  0  0
 28 29  1  0  0  0  0
 28 30  1  0  0  0  0
 28 31  1  0  0  0  0
 26 27  1  0  0  0  0
 26 28  1  0  0  0  0
M  END
$$$$
default_name
  -OEChem-01062215323D

 31 30  0     1  0  0  0  0  0999 V2000
   -3.0760   -3.6390    1.5496 H   0  0  0  0  0  0  0  0  0  0  0  0
   -3.0940   -2.6290    1.1426 C   0  0  0  0  0  0  0  0  0  0  0  0
   -3.7160   -1.9930    1.7706 H   0  0  0  0  0  0  0  0  0  0  0  0
   -3.4880   -2.6500    0.1286 H   0  0  0  0  0  0  0  0  0  0  0  0
   -1.6860   -2.0850    1.1196 C   0  0  0  0  0  0  0  0  0  0  0  0
   -0.7540   -2.7700    1.5226 O   0  0  0  0  0  0  0  0  0  0  0  0
   -1.5320   -0.8490    0.6496 N   0  0  0  0  0  0  0  0  0  0  0  0
   -2.3500   -0.3360    0.3566 H   0  0  0  0  0  0  0  0  0  0  0  0
   -0.2470   -0.1410    0.5576 C   0  0  1  0  0  0  0  0  0  0  0  0
    0.4572   -0.6505    1.2162 H   0  0  0  0  0  0  0  0  0  0  0  0
    0.3091   -0.2220   -0.8868 C   0  0  1  0  0  0  0  0  0  0  0  0
   -0.4731    0.1456   -1.5538 H   0  0  0  0  0  0  0  0  0  0  0  0
    1.5526    0.6649   -1.0892 C   0  0  0  0  0  0  0  0  0  0  0  0
    2.3908    0.2916   -0.4982 H   0  0  0  0  0  0  0  0  0  0  0  0
    1.8379    0.6822   -2.1399 H   0  0  0  0  0  0  0  0  0  0  0  0
    1.3373    1.6901   -0.7859 H   0  0  0  0  0  0  0  0  0  0  0  0
    0.6041   -1.6854   -1.2858 C   0  0  0  0  0  0  0  0  0  0  0  0
    1.4517   -2.0637   -0.7129 H   0  0  0  0  0  0  0  0  0  0  0  0
   -0.2677   -2.2956   -1.0500 H   0  0  0  0  0  0  0  0  0  0  0  0
    0.9013   -1.8700   -2.7800 C   0  0  0  0  0  0  0  0  0  0  0  0
    1.8287   -1.3653   -3.0505 H   0  0  0  0  0  0  0  0  0  0  0  0
    1.0093   -2.9330   -2.9964 H   0  0  0  0  0  0  0  0  0  0  0  0
    0.0809   -1.4687   -3.3760 H   0  0  0  0  0  0  0  0  0  0  0  0
   -0.3971    1.3008    1.0689 C   0  0  0  0  0  0  0  0  0  0  0  0
   -1.3643    1.9819    0.7311 O   0  0  0  0  0  0  0  0  0  0  0  0
    0.5522    1.7647    1.8915 N   0  0  0  0  0  0  0  0  0  0  0  0
    1.3093    1.1450    2.1332 H   0  0  0  0  0  0  0  0  0  0  0  0
    0.5577    3.1119    2.4582 C   0  0  0  0  0  0  0  0  0  0  0  0
   -0.3986    3.3098    2.9475 H   0  0  0  0  0  0  0  0  0  0  0  0
    1.3619    3.2123    3.1886 H   0  0  0  0  0  0  0  0  0  0  0  0
    0.6974    3.8450    1.6614 H   0  0  0  0  0  0  0  0  0  0  0  0
  5  6  2  0  0  0  0
  5  7  1  0  0  0  0
  2  3  1  0  0  0  0
  2  4  1  0  0  0  0
  2  5  1  0  0  0  0
  1  2  1  0  0  0  0
 24 25  2  0  0  0  0
 24 26  1  0  0  0  0
 20 21  1  0  0  0  0
 20 22  1  0  0  0  0
 20 23  1  0  0  0  0
 17 18  1  0  0  0  0
 17 19  1  0  0  0  0
 17 20  1  0  0  0  0
 13 14  1  0  0  0  0
 13 15  1  0  0  0  0
 13 16  1  0  0  0  0
 11 12  1  0  0  0  0
 11 13  1  0  0  0  0
 11 17  1  0  0  0  0
  9 10  1  0  0  0  0
  9 11  1  0  0  0  0
  9 24  1  0  0  0  0
  7  8  1  0  0  0  0
  7  9  1  0  0  0  0
 28 29  1  0  0  0  0
 28 30  1  0  0  0  0
 28 31  1  0  0  0  0
 26 27  1  0  0  0  0
 26 28  1  0  0  0  0
M  END
$$$$
default_name
  -OEChem-01062215323D

 31 30  0     1  0  0  0  0  0999 V2000
   -3.0760   -3.6390    1.5496 H   0  0  0  0  0  0  0  0  0  0  0  0
   -3.0940   -2.6290    1.1426 C   0  0  0  0  0  0  0  0  0  0  0  0
   -3.7160   -1.9930    1.7706 H   0  0  0  0  0  0  0  0  0  0  0  0
   -3.4880   -2.6500    0.1286 H   0  0  0  0  0  0  0  0  0  0  0  0
   -1.6860   -2.0850    1.1196 C   0  0  0  0  0  0  0  0  0  0  0  0
   -0.7540   -2.7700    1.5226 O   0  0  0  0  0  0  0  0  0  0  0  0
   -1.5320   -0.8490    0.6496 N   0  0  0  0  0  0  0  0  0  0  0  0
   -2.3500   -0.3360    0.3566 H   0  0  0  0  0  0  0  0  0  0  0  0
   -0.2470   -0.1410    0.5576 C   0  0  1  0  0  0  0  0  0  0  0  0
    0.4572   -0.6505    1.2162 H   0  0  0  0  0  0  0  0  0  0  0  0
    0.3091   -0.2220   -0.8868 C   0  0  1  0  0  0  0  0  0  0  0  0
   -0.4731    0.1456   -1.5538 H   0  0  0  0  0  0  0  0  0  0  0  0
    1.5526    0.6649   -1.0892 C   0  0  0  0  0  0  0  0  0  0  0  0
    2.3908    0.2916   -0.4982 H   0  0  0  0  0  0  0  0  0  0  0  0
    1.8379    0.6822   -2.1399 H   0  0  0  0  0  0  0  0  0  0  0  0
    1.3373    1.6901   -0.7859 H   0  0  0  0  0  0  0  0  0  0  0  0
    0.6041   -1.6854   -1.2858 C   0  0  0  0  0  0  0  0  0  0  0  0
    1.4517   -2.0637   -0.7129 H   0  0  0  0  0  0  0  0  0  0  0  0
   -0.2677   -2.2956   -1.0500 H   0  0  0  0  0  0  0  0  0  0  0  0
    0.9013   -1.8700   -2.7800 C   0  0  0  0  0  0  0  0  0  0  0  0
    1.8287   -1.3653   -3.0505 H   0  0  0  0  0  0  0  0  0  0  0  0
    1.0093   -2.9330   -2.9964 H   0  0  0  0  0  0  0  0  0  0  0  0
    0.0809   -1.4687   -3.3760 H   0  0  0  0  0  0  0  0  0  0  0  0
   -0.3971    1.3008    1.0689 C   0  0  0  0  0  0  0  0  0  0  0  0
   -1.4740    1.8868    0.9672 O   0  0  0  0  0  0  0  0  0  0  0  0
    0.6776    1.8711    1.6282 N   0  0  0  0  0  0  0  0  0  0  0  0
    1.5228    1.3254    1.6870 H   0  0  0  0  0  0  0  0  0  0  0  0
    0.6996    3.2336    2.1567 C   0  0  0  0  0  0  0  0  0  0  0  0
   -0.1238    3.3689    2.8615 H   0  0  0  0  0  0  0  0  0  0  0  0
    1.6442    3.4265    2.6674 H   0  0  0  0  0  0  0  0  0  0  0  0
    0.5767    3.9467    1.3393 H   0  0  0  0  0  0  0  0  0  0  0  0
  5  6  2  0  0  0  0
  5  7  1  0  0  0  0
  2  3  1  0  0  0  0
  2  4  1  0  0  0  0
  2  5  1  0  0  0  0
  1  2  1  0  0  0  0
 24 25  2  0  0  0  0
 24 26  1  0  0  0  0
 20 21  1  0  0  0  0
 20 22  1  0  0  0  0
 20 23  1  0  0  0  0
 17 18  1  0  0  0  0
 17 19  1  0  0  0  0
 17 20  1  0  0  0  0
 13 14  1  0  0  0  0
 13 15  1  0  0  0  0
 13 16  1  0  0  0  0
 11 12  1  0  0  0  0
 11 13  1  0  0  0  0
 11 17  1  0  0  0  0
  9 10  1  0  0  0  0
  9 11  1  0  0  0  0
  9 24  1  0  0  0  0
  7  8  1  0  0  0  0
  7  9  1  0  0  0  0
 28 29  1  0  0  0  0
 28 30  1  0  0  0  0
 28 31  1  0  0  0  0
 26 27  1  0  0  0  0
 26 28  1  0  0  0  0
M  END
$$$$
default_name
  -OEChem-01062215323D

 31 30  0     1  0  0  0  0  0999 V2000
   -3.0760   -3.6390    1.5496 H   0  0  0  0  0  0  0  0  0  0  0  0
   -3.0940   -2.6290    1.1426 C   0  0  0  0  0  0  0  0  0  0  0  0
   -3.7160   -1.9930    1.7706 H   0  0  0  0  0  0  0  0  0  0  0  0
   -3.4880   -2.6500    0.1286 H   0  0  0  0  0  0  0  0  0  0  0  0
   -1.6860   -2.0850    1.1196 C   0  0  0  0  0  0  0  0  0  0  0  0
   -0.7540   -2.7700    1.5226 O   0  0  0  0  0  0  0  0  0  0  0  0
   -1.5320   -0.8490    0.6496 N   0  0  0  0  0  0  0  0  0  0  0  0
   -2.3500   -0.3360    0.3566 H   0  0  0  0  0  0  0  0  0  0  0  0
   -0.2470   -0.1410    0.5576 C   0  0  1  0  0  0  0  0  0  0  0  0
    0.4572   -0.6505    1.2162 H   0  0  0  0  0  0  0  0  0  0  0  0
    0.3091   -0.2220   -0.8868 C   0  0  1  0  0  0  0  0  0  0  0  0
   -0.4731    0.1456   -1.5538 H   0  0  0  0  0  0  0  0  0  0  0  0
    1.5526    0.6649   -1.0892 C   0  0  0  0  0  0  0  0  0  0  0  0
    2.3908    0.2916   -0.4982 H   0  0  0  0  0  0  0  0  0  0  0  0
    1.8379    0.6822   -2.1399 H   0  0  0  0  0  0  0  0  0  0  0  0
    1.3373    1.6901   -0.7859 H   0  0  0  0  0  0  0  0  0  0  0  0
    0.6041   -1.6854   -1.2858 C   0  0  0  0  0  0  0  0  0  0  0  0
    1.4517   -2.0637   -0.7129 H   0  0  0  0  0  0  0  0  0  0  0  0
   -0.2677   -2.2956   -1.0500 H   0  0  0  0  0  0  0  0  0  0  0  0
    0.9013   -1.8700   -2.7800 C   0  0  0  0  0  0  0  0  0  0  0  0
    1.8287   -1.3653   -3.0505 H   0  0  0  0  0  0  0  0  0  0  0  0
    1.0093   -2.9330   -2.9964 H   0  0  0  0  0  0  0  0  0  0  0  0
    0.0809   -1.4687   -3.3760 H   0  0  0  0  0  0  0  0  0  0  0  0
   -0.3971    1.3008    1.0689 C   0  0  0  0  0  0  0  0  0  0  0  0
   -1.5145    1.7914    1.2243 O   0  0  0  0  0  0  0  0  0  0  0  0
    0.7256    1.9780    1.3408 N   0  0  0  0  0  0  0  0  0  0  0  0
    1.6052    1.5068    1.1997 H   0  0  0  0  0  0  0  0  0  0  0  0
    0.7531    3.3558    1.8280 C   0  0  0  0  0  0  0  0  0  0  0  0
    0.1157    3.4475    2.7102 H   0  0  0  0  0  0  0  0  0  0  0  0
    1.7720    3.6446    2.0900 H   0  0  0  0  0  0  0  0  0  0  0  0
    0.3731    4.0263    1.0548 H   0  0  0  0  0  0  0  0  0  0  0  0
  5  6  2  0  0  0  0
  5  7  1  0  0  0  0
  2  3  1  0  0  0  0
  2  4  1  0  0  0  0
  2  5  1  0  0  0  0
  1  2  1  0  0  0  0
 24 25  2  0  0  0  0
 24 26  1  0  0  0  0
 20 21  1  0  0  0  0
 20 22  1  0  0  0  0
 20 23  1  0  0  0  0
 17 18  1  0  0  0  0
 17 19  1  0  0  0  0
 17 20  1  0  0  0  0
 13 14  1  0  0  0  0
 13 15  1  0  0  0  0
 13 16  1  0  0  0  0
 11 12  1  0  0  0  0
 11 13  1  0  0  0  0
 11 17  1  0  0  0  0
  9 10  1  0  0  0  0
  9 11  1  0  0  0  0
  9 24  1  0  0  0  0
  7  8  1  0  0  0  0
  7  9  1  0  0  0  0
 28 29  1  0  0  0  0
 28 30  1  0  0  0  0
 28 31  1  0  0  0  0
 26 27  1  0  0  0  0
 26 28  1  0  0  0  0
M  END
$$$$
default_name
  -OEChem-01062215323D

 31 30  0     1  0  0  0  0  0999 V2000
   -3.0760   -3.6390    1.5496 H   0  0  0  0  0  0  0  0  0  0  0  0
   -3.0940   -2.6290    1.1426 C   0  0  0  0  0  0  0  0  0  0  0  0
   -3.7160   -1.9930    1.7706 H   0  0  0  0  0  0  0  0  0  0  0  0
   -3.4880   -2.6500    0.1286 H   0  0  0  0  0  0  0  0  0  0  0  0
   -1.6860   -2.0850    1.1196 C   0  0  0  0  0  0  0  0  0  0  0  0
   -0.7540   -2.7700    1.5226 O   0  0  0  0  0  0  0  0  0  0  0  0
   -1.5320   -0.8490    0.6496 N   0  0  0  0  0  0  0  0  0  0  0  0
   -2.3500   -0.3360    0.3566 H   0  0  0  0  0  0  0  0  0  0  0  0
   -0.2470   -0.1410    0.5576 C   0  0  1  0  0  0  0  0  0  0  0  0
    0.5168   -0.7881    0.9900 H   0  0  0  0  0  0  0  0  0  0  0  0
    0.1248    0.1074   -0.9264 C   0  0  1  0  0  0  0  0  0  0  0  0
   -0.7218    0.6183   -1.3890 H   0  0  0  0  0  0  0  0  0  0  0  0
    1.3605    1.0148   -1.0795 C   0  0  0  0  0  0  0  0  0  0  0  0
    2.2531    0.5154   -0.6986 H   0  0  0  0  0  0  0  0  0  0  0  0
    1.5151    1.2698   -2.1267 H   0  0  0  0  0  0  0  0  0  0  0  0
    1.2155    1.9446   -0.5283 H   0  0  0  0  0  0  0  0  0  0  0  0
    0.3237   -1.2276   -1.6787 C   0  0  0  0  0  0  0  0  0  0  0  0
    1.2234   -1.7277   -1.3177 H   0  0  0  0  0  0  0  0  0  0  0  0
   -0.5308   -1.8738   -1.4780 H   0  0  0  0  0  0  0  0  0  0  0  0
    0.4295   -1.0683   -3.2014 C   0  0  0  0  0  0  0  0  0  0  0  0
    1.3316   -0.5171   -3.4664 H   0  0  0  0  0  0  0  0  0  0  0  0
    0.4776   -2.0546   -3.6636 H   0  0  0  0  0  0  0  0  0  0  0  0
   -0.4453   -0.5406   -3.5830 H   0  0  0  0  0  0  0  0  0  0  0  0
   -0.2891    1.1472    1.3952 C   0  0  0  0  0  0  0  0  0  0  0  0
   -1.3029    1.4455    2.0250 O   0  0  0  0  0  0  0  0  0  0  0  0
    0.8136    1.9067    1.4130 N   0  0  0  0  0  0  0  0  0  0  0  0
    1.6099    1.5925    0.8813 H   0  0  0  0  0  0  0  0  0  0  0  0
    0.9320    3.1609    2.1542 C   0  0  0  0  0  0  0  0  0  0  0  0
    0.6505    3.0005    3.1973 H   0  0  0  0  0  0  0  0  0  0  0  0
    1.9576    3.5303    2.1121 H   0  0  0  0  0  0  0  0  0  0  0  0
    0.2598    3.9062    1.7247 H   0  0  0  0  0  0  0  0  0  0  0  0
  5  6  2  0  0  0  0
  5  7  1  0  0  0  0
  2  3  1  0  0  0  0
  2  4  1  0  0  0  0
  2  5  1  0  0  0  0
  1  2  1  0  0  0  0
 24 25  2  0  0  0  0
 24 26  1  0  0  0  0
 20 21  1  0  0  0  0
 20 22  1  0  0  0  0
 20 23  1  0  0  0  0
 17 18  1  0  0  0  0
 17 19  1  0  0  0  0
 17 20  1  0  0  0  0
 13 14  1  0  0  0  0
 13 15  1  0  0  0  0
 13 16  1  0  0  0  0
 11 12  1  0  0  0  0
 11 13  1  0  0  0  0
 11 17  1  0  0  0  0
  9 10  1  0  0  0  0
  9 11  1  0  0  0  0
  9 24  1  0  0  0  0
  7  8  1  0  0  0  0
  7  9  1  0  0  0  0
 28 29  1  0  0  0  0
 28 30  1  0  0  0  0
 28 31  1  0  0  0  0
 26 27  1  0  0  0  0
 26 28  1  0  0  0  0
M  END
$$$$
default_name
  -OEChem-01062215323D

 31 30  0     1  0  0  0  0  0999 V2000
   -3.0760   -3.6390    1.5496 H   0  0  0  0  0  0  0  0  0  0  0  0
   -3.0940   -2.6290    1.1426 C   0  0  0  0  0  0  0  0  0  0  0  0
   -3.7160   -1.9930    1.7706 H   0  0  0  0  0  0  0  0  0  0  0  0
   -3.4880   -2.6500    0.1286 H   0  0  0  0  0  0  0  0  0  0  0  0
   -1.6860   -2.0850    1.1196 C   0  0  0  0  0  0  0  0  0  0  0  0
   -0.7540   -2.7700    1.5226 O   0  0  0  0  0  0  0  0  0  0  0  0
   -1.5320   -0.8490    0.6496 N   0  0  0  0  0  0  0  0  0  0  0  0
   -2.3500   -0.3360    0.3566 H   0  0  0  0  0  0  0  0  0  0  0  0
   -0.2470   -0.1410    0.5576 C   0  0  1  0  0  0  0  0  0  0  0  0
    0.5168   -0.7881    0.9900 H   0  0  0  0  0  0  0  0  0  0  0  0
    0.1248    0.1074   -0.9264 C   0  0  1  0  0  0  0  0  0  0  0  0
   -0.7218    0.6183   -1.3890 H   0  0  0  0  0  0  0  0  0  0  0  0
    1.3605    1.0148   -1.0795 C   0  0  0  0  0  0  0  0  0  0  0  0
    2.2531    0.5154   -0.6986 H   0  0  0  0  0  0  0  0  0  0  0  0
    1.5151    1.2698   -2.1267 H   0  0  0  0  0  0  0  0  0  0  0  0
    1.2155    1.9446   -0.5283 H   0  0  0  0  0  0  0  0  0  0  0  0
    0.3237   -1.2276   -1.6787 C   0  0  0  0  0  0  0  0  0  0  0  0
    1.2234   -1.7277   -1.3177 H   0  0  0  0  0  0  0  0  0  0  0  0
   -0.5308   -1.8738   -1.4780 H   0  0  0  0  0  0  0  0  0  0  0  0
    0.4295   -1.0683   -3.2014 C   0  0  0  0  0  0  0  0  0  0  0  0
    1.3316   -0.5171   -3.4664 H   0  0  0  0  0  0  0  0  0  0  0  0
    0.4776   -2.0546   -3.6636 H   0  0  0  0  0  0  0  0  0  0  0  0
   -0.4453   -0.5406   -3.5830 H   0  0  0  0  0  0  0  0  0  0  0  0
   -0.2891    1.1472    1.3952 C   0  0  0  0  0  0  0  0  0  0  0  0
   -1.1744    1.3146    2.2328 O   0  0  0  0  0  0  0  0  0  0  0  0
    0.6721    2.0541    1.1793 N   0  0  0  0  0  0  0  0  0  0  0  0
    1.3709    1.8427    0.4846 H   0  0  0  0  0  0  0  0  0  0  0  0
    0.7690    3.3289    1.8876 C   0  0  0  0  0  0  0  0  0  0  0  0
    0.7457    3.1543    2.9655 H   0  0  0  0  0  0  0  0  0  0  0  0
    1.6983    3.8375    1.6267 H   0  0  0  0  0  0  0  0  0  0  0  0
   -0.0789    3.9626    1.6208 H   0  0  0  0  0  0  0  0  0  0  0  0
  5  6  2  0  0  0  0
  5  7  1  0  0  0  0
  2  3  1  0  0  0  0
  2  4  1  0  0  0  0
  2  5  1  0  0  0  0
  1  2  1  0  0  0  0
 24 25  2  0  0  0  0
 24 26  1  0  0  0  0
 20 21  1  0  0  0  0
 20 22  1  0  0  0  0
 20 23  1  0  0  0  0
 17 18  1  0  0  0  0
 17 19  1  0  0  0  0
 17 20  1  0  0  0  0
 13 14  1  0  0  0  0
 13 15  1  0  0  0  0
 13 16  1  0  0  0  0
 11 12  1  0  0  0  0
 11 13  1  0  0  0  0
 11 17  1  0  0  0  0
  9 10  1  0  0  0  0
  9 11  1  0  0  0  0
  9 24  1  0  0  0  0
  7  8  1  0  0  0  0
  7  9  1  0  0  0  0
 28 29  1  0  0  0  0
 28 30  1  0  0  0  0
 28 31  1  0  0  0  0
 26 27  1  0  0  0  0
 26 28  1  0  0  0  0
M  END
$$$$
default_name
  -OEChem-01062215323D

 31 30  0     1  0  0  0  0  0999 V2000
   -3.0760   -3.6390    1.5496 H   0  0  0  0  0  0  0  0  0  0  0  0
   -3.0940   -2.6290    1.1426 C   0  0  0  0  0  0  0  0  0  0  0  0
   -3.7160   -1.9930    1.7706 H   0  0  0  0  0  0  0  0  0  0  0  0
   -3.4880   -2.6500    0.1286 H   0  0  0  0  0  0  0  0  0  0  0  0
   -1.6860   -2.0850    1.1196 C   0  0  0  0  0  0  0  0  0  0  0  0
   -0.7540   -2.7700    1.5226 O   0  0  0  0  0  0  0  0  0  0  0  0
   -1.5320   -0.8490    0.6496 N   0  0  0  0  0  0  0  0  0  0  0  0
   -2.3500   -0.3360    0.3566 H   0  0  0  0  0  0  0  0  0  0  0  0
   -0.2470   -0.1410    0.5576 C   0  0  1  0  0  0  0  0  0  0  0  0
    0.5168   -0.7881    0.9900 H   0  0  0  0  0  0  0  0  0  0  0  0
    0.1248    0.1074   -0.9264 C   0  0  1  0  0  0  0  0  0  0  0  0
   -0.7218    0.6183   -1.3890 H   0  0  0  0  0  0  0  0  0  0  0  0
    1.3605    1.0148   -1.0795 C   0  0  0  0  0  0  0  0  0  0  0  0
    2.2531    0.5154   -0.6986 H   0  0  0  0  0  0  0  0  0  0  0  0
    1.5151    1.2698   -2.1267 H   0  0  0  0  0  0  0  0  0  0  0  0
    1.2155    1.9446   -0.5283 H   0  0  0  0  0  0  0  0  0  0  0  0
    0.3237   -1.2276   -1.6787 C   0  0  0  0  0  0  0  0  0  0  0  0
    1.2234   -1.7277   -1.3177 H   0  0  0  0  0  0  0  0  0  0  0  0
   -0.5308   -1.8738   -1.4780 H   0  0  0  0  0  0  0  0  0  0  0  0
    0.4295   -1.0683   -3.2014 C   0  0  0  0  0  0  0  0  0  0  0  0
    1.3316   -0.5171   -3.4664 H   0  0  0  0  0  0  0  0  0  0  0  0
    0.4776   -2.0546   -3.6636 H   0  0  0  0  0  0  0  0  0  0  0  0
   -0.4453   -0.5406   -3.5830 H   0  0  0  0  0  0  0  0  0  0  0  0
   -0.2891    1.1472    1.3952 C   0  0  0  0  0  0  0  0  0  0  0  0
   -0.9868    1.2077    2.4066 O   0  0  0  0  0  0  0  0  0  0  0  0
    0.4641    2.1748    0.9832 N   0  0  0  0  0  0  0  0  0  0  0  0
    1.0187    2.0479    0.1514 H   0  0  0  0  0  0  0  0  0  0  0  0
    0.5301    3.4663    1.6642 C   0  0  0  0  0  0  0  0  0  0  0  0
    0.7656    3.3146    2.7200 H   0  0  0  0  0  0  0  0  0  0  0  0
    1.2992    4.0942    1.2118 H   0  0  0  0  0  0  0  0  0  0  0  0
   -0.4365    3.9687    1.5936 H   0  0  0  0  0  0  0  0  0  0  0  0
  5  6  2  0  0  0  0
  5  7  1  0  0  0  0
  2  3  1  0  0  0  0
  2  4  1  0  0  0  0
  2  5  1  0  0  0  0
  1  2  1  0  0  0  0
 24 25  2  0  0  0  0
 24 26  1  0  0  0  0
 20 21  1  0  0  0  0
 20 22  1  0  0  0  0
 20 23  1  0  0  0  0
 17 18  1  0  0  0  0
 17 19  1  0  0  0  0
 17 20  1  0  0  0  0
 13 14  1  0  0  0  0
 13 15  1  0  0  0  0
 13 16  1  0  0  0  0
 11 12  1  0  0  0  0
 11 13  1  0  0  0  0
 11 17  1  0  0  0  0
  9 10  1  0  0  0  0
  9 11  1  0  0  0  0
  9 24  1  0  0  0  0
  7  8  1  0  0  0  0
  7  9  1  0  0  0  0
 28 29  1  0  0  0  0
 28 30  1  0  0  0  0
 28 31  1  0  0  0  0
 26 27  1  0  0  0  0
 26 28  1  0  0  0  0
M  END
$$$$
default_name
  -OEChem-01062215323D

 31 30  0     1  0  0  0  0  0999 V2000
   -3.0760   -3.6390    1.5496 H   0  0  0  0  0  0  0  0  0  0  0  0
   -3.0940   -2.6290    1.1426 C   0  0  0  0  0  0  0  0  0  0  0  0
   -3.7160   -1.9930    1.7706 H   0  0  0  0  0  0  0  0  0  0  0  0
   -3.4880   -2.6500    0.1286 H   0  0  0  0  0  0  0  0  0  0  0  0
   -1.6860   -2.0850    1.1196 C   0  0  0  0  0  0  0  0  0  0  0  0
   -0.7540   -2.7700    1.5226 O   0  0  0  0  0  0  0  0  0  0  0  0
   -1.5320   -0.8490    0.6496 N   0  0  0  0  0  0  0  0  0  0  0  0
   -2.3500   -0.3360    0.3566 H   0  0  0  0  0  0  0  0  0  0  0  0
   -0.2470   -0.1410    0.5576 C   0  0  1  0  0  0  0  0  0  0  0  0
    0.5168   -0.7881    0.9900 H   0  0  0  0  0  0  0  0  0  0  0  0
    0.1248    0.1074   -0.9264 C   0  0  1  0  0  0  0  0  0  0  0  0
   -0.7218    0.6183   -1.3890 H   0  0  0  0  0  0  0  0  0  0  0  0
    1.3605    1.0148   -1.0795 C   0  0  0  0  0  0  0  0  0  0  0  0
    2.2531    0.5154   -0.6986 H   0  0  0  0  0  0  0  0  0  0  0  0
    1.5151    1.2698   -2.1267 H   0  0  0  0  0  0  0  0  0  0  0  0
    1.2155    1.9446   -0.5283 H   0  0  0  0  0  0  0  0  0  0  0  0
    0.3237   -1.2276   -1.6787 C   0  0  0  0  0  0  0  0  0  0  0  0
    1.2234   -1.7277   -1.3177 H   0  0  0  0  0  0  0  0  0  0  0  0
   -0.5308   -1.8738   -1.4780 H   0  0  0  0  0  0  0  0  0  0  0  0
    0.4295   -1.0683   -3.2014 C   0  0  0  0  0  0  0  0  0  0  0  0
    1.3316   -0.5171   -3.4664 H   0  0  0  0  0  0  0  0  0  0  0  0
    0.4776   -2.0546   -3.6636 H   0  0  0  0  0  0  0  0  0  0  0  0
   -0.4453   -0.5406   -3.5830 H   0  0  0  0  0  0  0  0  0  0  0  0
   -0.2891    1.1472    1.3952 C   0  0  0  0  0  0  0  0  0  0  0  0
   -0.7528    1.1321    2.5346 O   0  0  0  0  0  0  0  0  0  0  0  0
    0.2035    2.2607    0.8380 N   0  0  0  0  0  0  0  0  0  0  0  0
    0.5773    2.1940   -0.0955 H   0  0  0  0  0  0  0  0  0  0  0  0
    0.2315    3.5638    1.4993 C   0  0  0  0  0  0  0  0  0  0  0  0
    0.7089    3.4706    2.4773 H   0  0  0  0  0  0  0  0  0  0  0  0
    0.7874    4.2829    0.8959 H   0  0  0  0  0  0  0  0  0  0  0  0
   -0.7888    3.9239    1.6448 H   0  0  0  0  0  0  0  0  0  0  0  0
  5  6  2  0  0  0  0
  5  7  1  0  0  0  0
  2  3  1  0  0  0  0
  2  4  1  0  0  0  0
  2  5  1  0  0  0  0
  1  2  1  0  0  0  0
 24 25  2  0  0  0  0
 24 26  1  0  0  0  0
 20 21  1  0  0  0  0
 20 22  1  0  0  0  0
 20 23  1  0  0  0  0
 17 18  1  0  0  0  0
 17 19  1  0  0  0  0
 17 20  1  0  0  0  0
 13 14  1  0  0  0  0
 13 15  1  0  0  0  0
 13 16  1  0  0  0  0
 11 12  1  0  0  0  0
 11 13  1  0  0  0  0
 11 17  1  0  0  0  0
  9 10  1  0  0  0  0
  9 11  1  0  0  0  0
  9 24  1  0  0  0  0
  7  8  1  0  0  0  0
  7  9  1  0  0  0  0
 28 29  1  0  0  0  0
 28 30  1  0  0  0  0
 28 31  1  0  0  0  0
 26 27  1  0  0  0  0
 26 28  1  0  0  0  0
M  END
$$$$
default_name
  -OEChem-01062215323D

 31 30  0     1  0  0  0  0  0999 V2000
   -3.0760   -3.6390    1.5496 H   0  0  0  0  0  0  0  0  0  0  0  0
   -3.0940   -2.6290    1.1426 C   0  0  0  0  0  0  0  0  0  0  0  0
   -3.7160   -1.9930    1.7706 H   0  0  0  0  0  0  0  0  0  0  0  0
   -3.4880   -2.6500    0.1286 H   0  0  0  0  0  0  0  0  0  0  0  0
   -1.6860   -2.0850    1.1196 C   0  0  0  0  0  0  0  0  0  0  0  0
   -0.7540   -2.7700    1.5226 O   0  0  0  0  0  0  0  0  0  0  0  0
   -1.5320   -0.8490    0.6496 N   0  0  0  0  0  0  0  0  0  0  0  0
   -2.3500   -0.3360    0.3566 H   0  0  0  0  0  0  0  0  0  0  0  0
   -0.2470   -0.1410    0.5576 C   0  0  1  0  0  0  0  0  0  0  0  0
    0.5168   -0.7881    0.9900 H   0  0  0  0  0  0  0  0  0  0  0  0
    0.1248    0.1074   -0.9264 C   0  0  1  0  0  0  0  0  0  0  0  0
   -0.7218    0.6183   -1.3890 H   0  0  0  0  0  0  0  0  0  0  0  0
    1.3605    1.0148   -1.0795 C   0  0  0  0  0  0  0  0  0  0  0  0
    2.2531    0.5154   -0.6986 H   0  0  0  0  0  0  0  0  0  0  0  0
    1.5151    1.2698   -2.1267 H   0  0  0  0  0  0  0  0  0  0  0  0
    1.2155    1.9446   -0.5283 H   0  0  0  0  0  0  0  0  0  0  0  0
    0.3237   -1.2276   -1.6787 C   0  0  0  0  0  0  0  0  0  0  0  0
    1.2234   -1.7277   -1.3177 H   0  0  0  0  0  0  0  0  0  0  0  0
   -0.5308   -1.8738   -1.4780 H   0  0  0  0  0  0  0  0  0  0  0  0
    0.4295   -1.0683   -3.2014 C   0  0  0  0  0  0  0  0  0  0  0  0
    1.3316   -0.5171   -3.4664 H   0  0  0  0  0  0  0  0  0  0  0  0
    0.4776   -2.0546   -3.6636 H   0  0  0  0  0  0  0  0  0  0  0  0
   -0.4453   -0.5406   -3.5830 H   0  0  0  0  0  0  0  0  0  0  0  0
   -0.2891    1.1472    1.3952 C   0  0  0  0  0  0  0  0  0  0  0  0
   -0.4883    1.0930    2.6080 O   0  0  0  0  0  0  0  0  0  0  0  0
   -0.0918    2.3059    0.7537 N   0  0  0  0  0  0  0  0  0  0  0  0
    0.0767    2.2711   -0.2393 H   0  0  0  0  0  0  0  0  0  0  0  0
   -0.1064    3.6147    1.4041 C   0  0  0  0  0  0  0  0  0  0  0  0
    0.5796    3.6115    2.2541 H   0  0  0  0  0  0  0  0  0  0  0  0
    0.1980    4.3908    0.7004 H   0  0  0  0  0  0  0  0  0  0  0  0
   -1.1115    3.8313    1.7709 H   0  0  0  0  0  0  0  0  0  0  0  0
  5  6  2  0  0  0  0
  5  7  1  0  0  0  0
  2  3  1  0  0  0  0
  2  4  1  0  0  0  0
  2  5  1  0  0  0  0
  1  2  1  0  0  0  0
 24 25  2  0  0  0  0
 24 26  1  0  0  0  0
 20 21  1  0  0  0  0
 20 22  1  0  0  0  0
 20 23  1  0  0  0  0
 17 18  1  0  0  0  0
 17 19  1  0  0  0  0
 17 20  1  0  0  0  0
 13 14  1  0  0  0  0
 13 15  1  0  0  0  0
 13 16  1  0  0  0  0
 11 12  1  0  0  0  0
 11 13  1  0  0  0  0
 11 17  1  0  0  0  0
  9 10  1  0  0  0  0
  9 11  1  0  0  0  0
  9 24  1  0  0  0  0
  7  8  1  0  0  0  0
  7  9  1  0  0  0  0
 28 29  1  0  0  0  0
 28 30  1  0  0  0  0
 28 31  1  0  0  0  0
 26 27  1  0  0  0  0
 26 28  1  0  0  0  0
M  END
$$$$
default_name
  -OEChem-01062215323D

 31 30  0     1  0  0  0  0  0999 V2000
   -3.0760   -3.6390    1.5496 H   0  0  0  0  0  0  0  0  0  0  0  0
   -3.0940   -2.6290    1.1426 C   0  0  0  0  0  0  0  0  0  0  0  0
   -3.7160   -1.9930    1.7706 H   0  0  0  0  0  0  0  0  0  0  0  0
   -3.4880   -2.6500    0.1286 H   0  0  0  0  0  0  0  0  0  0  0  0
   -1.6860   -2.0850    1.1196 C   0  0  0  0  0  0  0  0  0  0  0  0
   -0.7540   -2.7700    1.5226 O   0  0  0  0  0  0  0  0  0  0  0  0
   -1.5320   -0.8490    0.6496 N   0  0  0  0  0  0  0  0  0  0  0  0
   -2.3500   -0.3360    0.3566 H   0  0  0  0  0  0  0  0  0  0  0  0
   -0.2470   -0.1410    0.5576 C   0  0  1  0  0  0  0  0  0  0  0  0
    0.5168   -0.7881    0.9900 H   0  0  0  0  0  0  0  0  0  0  0  0
    0.1248    0.1074   -0.9264 C   0  0  1  0  0  0  0  0  0  0  0  0
   -0.7218    0.6183   -1.3890 H   0  0  0  0  0  0  0  0  0  0  0  0
    1.3605    1.0148   -1.0795 C   0  0  0  0  0  0  0  0  0  0  0  0
    2.2531    0.5154   -0.6986 H   0  0  0  0  0  0  0  0  0  0  0  0
    1.5151    1.2698   -2.1267 H   0  0  0  0  0  0  0  0  0  0  0  0
    1.2155    1.9446   -0.5283 H   0  0  0  0  0  0  0  0  0  0  0  0
    0.3237   -1.2276   -1.6787 C   0  0  0  0  0  0  0  0  0  0  0  0
    1.2234   -1.7277   -1.3177 H   0  0  0  0  0  0  0  0  0  0  0  0
   -0.5308   -1.8738   -1.4780 H   0  0  0  0  0  0  0  0  0  0  0  0
    0.4295   -1.0683   -3.2014 C   0  0  0  0  0  0  0  0  0  0  0  0
    1.3316   -0.5171   -3.4664 H   0  0  0  0  0  0  0  0  0  0  0  0
    0.4776   -2.0546   -3.6636 H   0  0  0  0  0  0  0  0  0  0  0  0
   -0.4453   -0.5406   -3.5830 H   0  0  0  0  0  0  0  0  0  0  0  0
   -0.2891    1.1472    1.3952 C   0  0  0  0  0  0  0  0  0  0  0  0
   -0.2114    1.0931    2.6218 O   0  0  0  0  0  0  0  0  0  0  0  0
   -0.4016    2.3073    0.7360 N   0  0  0  0  0  0  0  0  0  0  0  0
   -0.4488    2.2740   -0.2702 H   0  0  0  0  0  0  0  0  0  0  0  0
   -0.4607    3.6155    1.3851 C   0  0  0  0  0  0  0  0  0  0  0  0
    0.3863    3.7278    2.0655 H   0  0  0  0  0  0  0  0  0  0  0  0
   -0.4290    4.4104    0.6386 H   0  0  0  0  0  0  0  0  0  0  0  0
   -1.3829    3.6972    1.9635 H   0  0  0  0  0  0  0  0  0  0  0  0
  5  6  2  0  0  0  0
  5  7  1  0  0  0  0
  2  3  1  0  0  0  0
  2  4  1  0  0  0  0
  2  5  1  0  0  0  0
  1  2  1  0  0  0  0
 24 25  2  0  0  0  0
 24 26  1  0  0  0  0
 20 21  1  0  0  0  0
 20 22  1  0  0  0  0
 20 23  1  0  0  0  0
 17 18  1  0  0  0  0
 17 19  1  0  0  0  0
 17 20  1  0  0  0  0
 13 14  1  0  0  0  0
 13 15  1  0  0  0  0
 13 16  1  0  0  0  0
 11 12  1  0  0  0  0
 11 13  1  0  0  0  0
 11 17  1  0  0  0  0
  9 10  1  0  0  0  0
  9 11  1  0  0  0  0
  9 24  1  0  0  0  0
  7  8  1  0  0  0  0
  7  9  1  0  0  0  0
 28 29  1  0  0  0  0
 28 30  1  0  0  0  0
 28 31  1  0  0  0  0
 26 27  1  0  0  0  0
 26 28  1  0  0  0  0
M  END
$$$$
default_name
  -OEChem-01062215323D

 31 30  0     1  0  0  0  0  0999 V2000
   -3.0760   -3.6390    1.5496 H   0  0  0  0  0  0  0  0  0  0  0  0
   -3.0940   -2.6290    1.1426 C   0  0  0  0  0  0  0  0  0  0  0  0
   -3.7160   -1.9930    1.7706 H   0  0  0  0  0  0  0  0  0  0  0  0
   -3.4880   -2.6500    0.1286 H   0  0  0  0  0  0  0  0  0  0  0  0
   -1.6860   -2.0850    1.1196 C   0  0  0  0  0  0  0  0  0  0  0  0
   -0.7540   -2.7700    1.5226 O   0  0  0  0  0  0  0  0  0  0  0  0
   -1.5320   -0.8490    0.6496 N   0  0  0  0  0  0  0  0  0  0  0  0
   -2.3500   -0.3360    0.3566 H   0  0  0  0  0  0  0  0  0  0  0  0
   -0.2470   -0.1410    0.5576 C   0  0  1  0  0  0  0  0  0  0  0  0
    0.5168   -0.7881    0.9900 H   0  0  0  0  0  0  0  0  0  0  0  0
    0.1248    0.1074   -0.9264 C   0  0  1  0  0  0  0  0  0  0  0  0
   -0.7218    0.6183   -1.3890 H   0  0  0  0  0  0  0  0  0  0  0  0
    1.3605    1.0148   -1.0795 C   0  0  0  0  0  0  0  0  0  0  0  0
    2.2531    0.5154   -0.6986 H   0  0  0  0  0  0  0  0  0  0  0  0
    1.5151    1.2698   -2.1267 H   0  0  0  0  0  0  0  0  0  0  0  0
    1.2155    1.9446   -0.5283 H   0  0  0  0  0  0  0  0  0  0  0  0
    0.3237   -1.2276   -1.6787 C   0  0  0  0  0  0  0  0  0  0  0  0
    1.2234   -1.7277   -1.3177 H   0  0  0  0  0  0  0  0  0  0  0  0
   -0.5308   -1.8738   -1.4780 H   0  0  0  0  0  0  0  0  0  0  0  0
    0.4295   -1.0683   -3.2014 C   0  0  0  0  0  0  0  0  0  0  0  0
    1.3316   -0.5171   -3.4664 H   0  0  0  0  0  0  0  0  0  0  0  0
    0.4776   -2.0546   -3.6636 H   0  0  0  0  0  0  0  0  0  0  0  0
   -0.4453   -0.5406   -3.5830 H   0  0  0  0  0  0  0  0  0  0  0  0
   -0.2891    1.1472    1.3952 C   0  0  0  0  0  0  0  0  0  0  0  0
    0.0590    1.1324    2.5750 O   0  0  0  0  0  0  0  0  0  0  0  0
   -0.7050    2.2648    0.7860 N   0  0  0  0  0  0  0  0  0  0  0  0
   -0.9636    2.2025   -0.1860 H   0  0  0  0  0  0  0  0  0  0  0  0
   -0.8071    3.5662    1.4435 C   0  0  0  0  0  0  0  0  0  0  0  0
    0.1424    3.8115    1.9245 H   0  0  0  0  0  0  0  0  0  0  0  0
   -1.0507    4.3406    0.7148 H   0  0  0  0  0  0  0  0  0  0  0  0
   -1.5844    3.5308    2.2093 H   0  0  0  0  0  0  0  0  0  0  0  0
  5  6  2  0  0  0  0
  5  7  1  0  0  0  0
  2  3  1  0  0  0  0
  2  4  1  0  0  0  0
  2  5  1  0  0  0  0
  1  2  1  0  0  0  0
 24 25  2  0  0  0  0
 24 26  1  0  0  0  0
 20 21  1  0  0  0  0
 20 22  1  0  0  0  0
 20 23  1  0  0  0  0
 17 18  1  0  0  0  0
 17 19  1  0  0  0  0
 17 20  1  0  0  0  0
 13 14  1  0  0  0  0
 13 15  1  0  0  0  0
 13 16  1  0  0  0  0
 11 12  1  0  0  0  0
 11 13  1  0  0  0  0
 11 17  1  0  0  0  0
  9 10  1  0  0  0  0
  9 11  1  0  0  0  0
  9 24  1  0  0  0  0
  7  8  1  0  0  0  0
  7  9  1  0  0  0  0
 28 29  1  0  0  0  0
 28 30  1  0  0  0  0
 28 31  1  0  0  0  0
 26 27  1  0  0  0  0
 26 28  1  0  0  0  0
M  END
$$$$
default_name
  -OEChem-01062215323D

 31 30  0     1  0  0  0  0  0999 V2000
   -3.0760   -3.6390    1.5496 H   0  0  0  0  0  0  0  0  0  0  0  0
   -3.0940   -2.6290    1.1426 C   0  0  0  0  0  0  0  0  0  0  0  0
   -3.7160   -1.9930    1.7706 H   0  0  0  0  0  0  0  0  0  0  0  0
   -3.4880   -2.6500    0.1286 H   0  0  0  0  0  0  0  0  0  0  0  0
   -1.6860   -2.0850    1.1196 C   0  0  0  0  0  0  0  0  0  0  0  0
   -0.7540   -2.7700    1.5226 O   0  0  0  0  0  0  0  0  0  0  0  0
   -1.5320   -0.8490    0.6496 N   0  0  0  0  0  0  0  0  0  0  0  0
   -2.3500   -0.3360    0.3566 H   0  0  0  0  0  0  0  0  0  0  0  0
   -0.2470   -0.1410    0.5576 C   0  0  1  0  0  0  0  0  0  0  0  0
    0.5168   -0.7881    0.9900 H   0  0  0  0  0  0  0  0  0  0  0  0
    0.1248    0.1074   -0.9264 C   0  0  1  0  0  0  0  0  0  0  0  0
   -0.7218    0.6183   -1.3890 H   0  0  0  0  0  0  0  0  0  0  0  0
    1.3605    1.0148   -1.0795 C   0  0  0  0  0  0  0  0  0  0  0  0
    2.2531    0.5154   -0.6986 H   0  0  0  0  0  0  0  0  0  0  0  0
    1.5151    1.2698   -2.1267 H   0  0  0  0  0  0  0  0  0  0  0  0
    1.2155    1.9446   -0.5283 H   0  0  0  0  0  0  0  0  0  0  0  0
    0.3237   -1.2276   -1.6787 C   0  0  0  0  0  0  0  0  0  0  0  0
    1.2234   -1.7277   -1.3177 H   0  0  0  0  0  0  0  0  0  0  0  0
   -0.5308   -1.8738   -1.4780 H   0  0  0  0  0  0  0  0  0  0  0  0
    0.4295   -1.0683   -3.2014 C   0  0  0  0  0  0  0  0  0  0  0  0
    1.3316   -0.5171   -3.4664 H   0  0  0  0  0  0  0  0  0  0  0  0
    0.4776   -2.0546   -3.6636 H   0  0  0  0  0  0  0  0  0  0  0  0
   -0.4453   -0.5406   -3.5830 H   0  0  0  0  0  0  0  0  0  0  0  0
   -0.2891    1.1472    1.3952 C   0  0  0  0  0  0  0  0  0  0  0  0
    0.3046    1.2081    2.4709 O   0  0  0  0  0  0  0  0  0  0  0  0
   -0.9812    2.1813    0.9005 N   0  0  0  0  0  0  0  0  0  0  0  0
   -1.4325    2.0614    0.0075 H   0  0  0  0  0  0  0  0  0  0  0  0
   -1.1221    3.4701    1.5755 C   0  0  0  0  0  0  0  0  0  0  0  0
   -0.1356    3.8570    1.8406 H   0  0  0  0  0  0  0  0  0  0  0  0
   -1.6249    4.1860    0.9237 H   0  0  0  0  0  0  0  0  0  0  0  0
   -1.7022    3.3434    2.4915 H   0  0  0  0  0  0  0  0  0  0  0  0
  5  6  2  0  0  0  0
  5  7  1  0  0  0  0
  2  3  1  0  0  0  0
  2  4  1  0  0  0  0
  2  5  1  0  0  0  0
  1  2  1  0  0  0  0
 24 25  2  0  0  0  0
 24 26  1  0  0  0  0
 20 21  1  0  0  0  0
 20 22  1  0  0  0  0
 20 23  1  0  0  0  0
 17 18  1  0  0  0  0
 17 19  1  0  0  0  0
 17 20  1  0  0  0  0
 13 14  1  0  0  0  0
 13 15  1  0  0  0  0
 13 16  1  0  0  0  0
 11 12  1  0  0  0  0
 11 13  1  0  0  0  0
 11 17  1  0  0  0  0
  9 10  1  0  0  0  0
  9 11  1  0  0  0  0
  9 24  1  0  0  0  0
  7  8  1  0  0  0  0
  7  9  1  0  0  0  0
 28 29  1  0  0  0  0
 28 30  1  0  0  0  0
 28 31  1  0  0  0  0
 26 27  1  0  0  0  0
 26 28  1  0  0  0  0
M  END
$$$$
default_name
  -OEChem-01062215323D

 31 30  0     1  0  0  0  0  0999 V2000
   -3.0760   -3.6390    1.5496 H   0  0  0  0  0  0  0  0  0  0  0  0
   -3.0940   -2.6290    1.1426 C   0  0  0  0  0  0  0  0  0  0  0  0
   -3.7160   -1.9930    1.7706 H   0  0  0  0  0  0  0  0  0  0  0  0
   -3.4880   -2.6500    0.1286 H   0  0  0  0  0  0  0  0  0  0  0  0
   -1.6860   -2.0850    1.1196 C   0  0  0  0  0  0  0  0  0  0  0  0
   -0.7540   -2.7700    1.5226 O   0  0  0  0  0  0  0  0  0  0  0  0
   -1.5320   -0.8490    0.6496 N   0  0  0  0  0  0  0  0  0  0  0  0
   -2.3500   -0.3360    0.3566 H   0  0  0  0  0  0  0  0  0  0  0  0
   -0.2470   -0.1410    0.5576 C   0  0  1  0  0  0  0  0  0  0  0  0
    0.5168   -0.7881    0.9900 H   0  0  0  0  0  0  0  0  0  0  0  0
    0.1248    0.1074   -0.9264 C   0  0  1  0  0  0  0  0  0  0  0  0
   -0.7218    0.6183   -1.3890 H   0  0  0  0  0  0  0  0  0  0  0  0
    1.3605    1.0148   -1.0795 C   0  0  0  0  0  0  0  0  0  0  0  0
    2.2531    0.5154   -0.6986 H   0  0  0  0  0  0  0  0  0  0  0  0
    1.5151    1.2698   -2.1267 H   0  0  0  0  0  0  0  0  0  0  0  0
    1.2155    1.9446   -0.5283 H   0  0  0  0  0  0  0  0  0  0  0  0
    0.3237   -1.2276   -1.6787 C   0  0  0  0  0  0  0  0  0  0  0  0
    1.2234   -1.7277   -1.3177 H   0  0  0  0  0  0  0  0  0  0  0  0
   -0.5308   -1.8738   -1.4780 H   0  0  0  0  0  0  0  0  0  0  0  0
    0.4295   -1.0683   -3.2014 C   0  0  0  0  0  0  0  0  0  0  0  0
    1.3316   -0.5171   -3.4664 H   0  0  0  0  0  0  0  0  0  0  0  0
    0.4776   -2.0546   -3.6636 H   0  0  0  0  0  0  0  0  0  0  0  0
   -0.4453   -0.5406   -3.5830 H   0  0  0  0  0  0  0  0  0  0  0  0
   -0.2891    1.1472    1.3952 C   0  0  0  0  0  0  0  0  0  0  0  0
    0.5085    1.3151    2.3166 O   0  0  0  0  0  0  0  0  0  0  0  0
   -1.2113    2.0626    1.0716 N   0  0  0  0  0  0  0  0  0  0  0  0
   -1.8235    1.8603    0.2970 H   0  0  0  0  0  0  0  0  0  0  0  0
   -1.3841    3.3338    1.7719 C   0  0  0  0  0  0  0  0  0  0  0  0
   -0.4288    3.8611    1.8195 H   0  0  0  0  0  0  0  0  0  0  0  0
   -2.1125    3.9571    1.2512 H   0  0  0  0  0  0  0  0  0  0  0  0
   -1.7283    3.1478    2.7911 H   0  0  0  0  0  0  0  0  0  0  0  0
  5  6  2  0  0  0  0
  5  7  1  0  0  0  0
  2  3  1  0  0  0  0
  2  4  1  0  0  0  0
  2  5  1  0  0  0  0
  1  2  1  0  0  0  0
 24 25  2  0  0  0  0
 24 26  1  0  0  0  0
 20 21  1  0  0  0  0
 20 22  1  0  0  0  0
 20 23  1  0  0  0  0
 17 18  1  0  0  0  0
 17 19  1  0  0  0  0
 17 20  1  0  0  0  0
 13 14  1  0  0  0  0
 13 15  1  0  0  0  0
 13 16  1  0  0  0  0
 11 12  1  0  0  0  0
 11 13  1  0  0  0  0
 11 17  1  0  0  0  0
  9 10  1  0  0  0  0
  9 11  1  0  0  0  0
  9 24  1  0  0  0  0
  7  8  1  0  0  0  0
  7  9  1  0  0  0  0
 28 29  1  0  0  0  0
 28 30  1  0  0  0  0
 28 31  1  0  0  0  0
 26 27  1  0  0  0  0
 26 28  1  0  0  0  0
M  END
$$$$
default_name
  -OEChem-01062215323D

 31 30  0     1  0  0  0  0  0999 V2000
   -3.0760   -3.6390    1.5496 H   0  0  0  0  0  0  0  0  0  0  0  0
   -3.0940   -2.6290    1.1426 C   0  0  0  0  0  0  0  0  0  0  0  0
   -3.7160   -1.9930    1.7706 H   0  0  0  0  0  0  0  0  0  0  0  0
   -3.4880   -2.6500    0.1286 H   0  0  0  0  0  0  0  0  0  0  0  0
   -1.6860   -2.0850    1.1196 C   0  0  0  0  0  0  0  0  0  0  0  0
   -0.7540   -2.7700    1.5226 O   0  0  0  0  0  0  0  0  0  0  0  0
   -1.5320   -0.8490    0.6496 N   0  0  0  0  0  0  0  0  0  0  0  0
   -2.3500   -0.3360    0.3566 H   0  0  0  0  0  0  0  0  0  0  0  0
   -0.2470   -0.1410    0.5576 C   0  0  1  0  0  0  0  0  0  0  0  0
    0.5168   -0.7881    0.9900 H   0  0  0  0  0  0  0  0  0  0  0  0
    0.1248    0.1074   -0.9264 C   0  0  1  0  0  0  0  0  0  0  0  0
   -0.7218    0.6183   -1.3890 H   0  0  0  0  0  0  0  0  0  0  0  0
    1.3605    1.0148   -1.0795 C   0  0  0  0  0  0  0  0  0  0  0  0
    2.2531    0.5154   -0.6986 H   0  0  0  0  0  0  0  0  0  0  0  0
    1.5151    1.2698   -2.1267 H   0  0  0  0  0  0  0  0  0  0  0  0
    1.2155    1.9446   -0.5283 H   0  0  0  0  0  0  0  0  0  0  0  0
    0.3237   -1.2276   -1.6787 C   0  0  0  0  0  0  0  0  0  0  0  0
    1.2234   -1.7277   -1.3177 H   0  0  0  0  0  0  0  0  0  0  0  0
   -0.5308   -1.8738   -1.4780 H   0  0  0  0  0  0  0  0  0  0  0  0
    0.4295   -1.0683   -3.2014 C   0  0  0  0  0  0  0  0  0  0  0  0
    1.3316   -0.5171   -3.4664 H   0  0  0  0  0  0  0  0  0  0  0  0
    0.4776   -2.0546   -3.6636 H   0  0  0  0  0  0  0  0  0  0  0  0
   -0.4453   -0.5406   -3.5830 H   0  0  0  0  0  0  0  0  0  0  0  0
   -0.2891    1.1472    1.3952 C   0  0  0  0  0  0  0  0  0  0  0  0
    0.6569    1.4461    2.1226 O   0  0  0  0  0  0  0  0  0  0  0  0
   -1.3798    1.9166    1.2876 N   0  0  0  0  0  0  0  0  0  0  0  0
   -2.1100    1.6130    0.6629 H   0  0  0  0  0  0  0  0  0  0  0  0
   -1.5754    3.1665    2.0195 C   0  0  0  0  0  0  0  0  0  0  0  0
   -0.7172    3.8236    1.8627 H   0  0  0  0  0  0  0  0  0  0  0  0
   -2.4801    3.6696    1.6748 H   0  0  0  0  0  0  0  0  0  0  0  0
   -1.6610    2.9572    3.0875 H   0  0  0  0  0  0  0  0  0  0  0  0
  5  6  2  0  0  0  0
  5  7  1  0  0  0  0
  2  3  1  0  0  0  0
  2  4  1  0  0  0  0
  2  5  1  0  0  0  0
  1  2  1  0  0  0  0
 24 25  2  0  0  0  0
 24 26  1  0  0  0  0
 20 21  1  0  0  0  0
 20 22  1  0  0  0  0
 20 23  1  0  0  0  0
 17 18  1  0  0  0  0
 17 19  1  0  0  0  0
 17 20  1  0  0  0  0
 13 14  1  0  0  0  0
 13 15  1  0  0  0  0
 13 16  1  0  0  0  0
 11 12  1  0  0  0  0
 11 13  1  0  0  0  0
 11 17  1  0  0  0  0
  9 10  1  0  0  0  0
  9 11  1  0  0  0  0
  9 24  1  0  0  0  0
  7  8  1  0  0  0  0
  7  9  1  0  0  0  0
 28 29  1  0  0  0  0
 28 30  1  0  0  0  0
 28 31  1  0  0  0  0
 26 27  1  0  0  0  0
 26 28  1  0  0  0  0
M  END
$$$$
default_name
  -OEChem-01062215323D

 31 30  0     1  0  0  0  0  0999 V2000
   -3.0760   -3.6390    1.5496 H   0  0  0  0  0  0  0  0  0  0  0  0
   -3.0940   -2.6290    1.1426 C   0  0  0  0  0  0  0  0  0  0  0  0
   -3.7160   -1.9930    1.7706 H   0  0  0  0  0  0  0  0  0  0  0  0
   -3.4880   -2.6500    0.1286 H   0  0  0  0  0  0  0  0  0  0  0  0
   -1.6860   -2.0850    1.1196 C   0  0  0  0  0  0  0  0  0  0  0  0
   -0.7540   -2.7700    1.5226 O   0  0  0  0  0  0  0  0  0  0  0  0
   -1.5320   -0.8490    0.6496 N   0  0  0  0  0  0  0  0  0  0  0  0
   -2.3500   -0.3360    0.3566 H   0  0  0  0  0  0  0  0  0  0  0  0
   -0.2470   -0.1410    0.5576 C   0  0  1  0  0  0  0  0  0  0  0  0
    0.5168   -0.7881    0.9900 H   0  0  0  0  0  0  0  0  0  0  0  0
    0.1248    0.1074   -0.9264 C   0  0  1  0  0  0  0  0  0  0  0  0
   -0.7218    0.6183   -1.3890 H   0  0  0  0  0  0  0  0  0  0  0  0
    1.3605    1.0148   -1.0795 C   0  0  0  0  0  0  0  0  0  0  0  0
    2.2531    0.5154   -0.6986 H   0  0  0  0  0  0  0  0  0  0  0  0
    1.5151    1.2698   -2.1267 H   0  0  0  0  0  0  0  0  0  0  0  0
    1.2155    1.9446   -0.5283 H   0  0  0  0  0  0  0  0  0  0  0  0
    0.3237   -1.2276   -1.6787 C   0  0  0  0  0  0  0  0  0  0  0  0
    1.2234   -1.7277   -1.3177 H   0  0  0  0  0  0  0  0  0  0  0  0
   -0.5308   -1.8738   -1.4780 H   0  0  0  0  0  0  0  0  0  0  0  0
    0.4295   -1.0683   -3.2014 C   0  0  0  0  0  0  0  0  0  0  0  0
    1.3316   -0.5171   -3.4664 H   0  0  0  0  0  0  0  0  0  0  0  0
    0.4776   -2.0546   -3.6636 H   0  0  0  0  0  0  0  0  0  0  0  0
   -0.4453   -0.5406   -3.5830 H   0  0  0  0  0  0  0  0  0  0  0  0
   -0.2891    1.1472    1.3952 C   0  0  0  0  0  0  0  0  0  0  0  0
    0.7397    1.5922    1.9020 O   0  0  0  0  0  0  0  0  0  0  0  0
   -1.4751    1.7534    1.5338 N   0  0  0  0  0  0  0  0  0  0  0  0
   -2.2725    1.3363    1.0803 H   0  0  0  0  0  0  0  0  0  0  0  0
   -1.6830    2.9798    2.3013 C   0  0  0  0  0  0  0  0  0  0  0  0
   -0.9810    3.7470    1.9672 H   0  0  0  0  0  0  0  0  0  0  0  0
   -2.7027    3.3431    2.1658 H   0  0  0  0  0  0  0  0  0  0  0  0
   -1.5048    2.7848    3.3605 H   0  0  0  0  0  0  0  0  0  0  0  0
  5  6  2  0  0  0  0
  5  7  1  0  0  0  0
  2  3  1  0  0  0  0
  2  4  1  0  0  0  0
  2  5  1  0  0  0  0
  1  2  1  0  0  0  0
 24 25  2  0  0  0  0
 24 26  1  0  0  0  0
 20 21  1  0  0  0  0
 20 22  1  0  0  0  0
 20 23  1  0  0  0  0
 17 18  1  0  0  0  0
 17 19  1  0  0  0  0
 17 20  1  0  0  0  0
 13 14  1  0  0  0  0
 13 15  1  0  0  0  0
 13 16  1  0  0  0  0
 11 12  1  0  0  0  0
 11 13  1  0  0  0  0
 11 17  1  0  0  0  0
  9 10  1  0  0  0  0
  9 11  1  0  0  0  0
  9 24  1  0  0  0  0
  7  8  1  0  0  0  0
  7  9  1  0  0  0  0
 28 29  1  0  0  0  0
 28 30  1  0  0  0  0
 28 31  1  0  0  0  0
 26 27  1  0  0  0  0
 26 28  1  0  0  0  0
M  END
$$$$
default_name
  -OEChem-01062215323D

 31 30  0     1  0  0  0  0  0999 V2000
   -3.0760   -3.6390    1.5496 H   0  0  0  0  0  0  0  0  0  0  0  0
   -3.0940   -2.6290    1.1426 C   0  0  0  0  0  0  0  0  0  0  0  0
   -3.7160   -1.9930    1.7706 H   0  0  0  0  0  0  0  0  0  0  0  0
   -3.4880   -2.6500    0.1286 H   0  0  0  0  0  0  0  0  0  0  0  0
   -1.6860   -2.0850    1.1196 C   0  0  0  0  0  0  0  0  0  0  0  0
   -0.7540   -2.7700    1.5226 O   0  0  0  0  0  0  0  0  0  0  0  0
   -1.5320   -0.8490    0.6496 N   0  0  0  0  0  0  0  0  0  0  0  0
   -2.3500   -0.3360    0.3566 H   0  0  0  0  0  0  0  0  0  0  0  0
   -0.2470   -0.1410    0.5576 C   0  0  1  0  0  0  0  0  0  0  0  0
    0.5168   -0.7881    0.9900 H   0  0  0  0  0  0  0  0  0  0  0  0
    0.1248    0.1074   -0.9264 C   0  0  1  0  0  0  0  0  0  0  0  0
   -0.7218    0.6183   -1.3890 H   0  0  0  0  0  0  0  0  0  0  0  0
    1.3605    1.0148   -1.0795 C   0  0  0  0  0  0  0  0  0  0  0  0
    2.2531    0.5154   -0.6986 H   0  0  0  0  0  0  0  0  0  0  0  0
    1.5151    1.2698   -2.1267 H   0  0  0  0  0  0  0  0  0  0  0  0
    1.2155    1.9446   -0.5283 H   0  0  0  0  0  0  0  0  0  0  0  0
    0.3237   -1.2276   -1.6787 C   0  0  0  0  0  0  0  0  0  0  0  0
    1.2234   -1.7277   -1.3177 H   0  0  0  0  0  0  0  0  0  0  0  0
   -0.5308   -1.8738   -1.4780 H   0  0  0  0  0  0  0  0  0  0  0  0
    0.4295   -1.0683   -3.2014 C   0  0  0  0  0  0  0  0  0  0  0  0
    1.3316   -0.5171   -3.4664 H   0  0  0  0  0  0  0  0  0  0  0  0
    0.4776   -2.0546   -3.6636 H   0  0  0  0  0  0  0  0  0  0  0  0
   -0.4453   -0.5406   -3.5830 H   0  0  0  0  0  0  0  0  0  0  0  0
   -0.2891    1.1472    1.3952 C   0  0  0  0  0  0  0  0  0  0  0  0
    0.7512    1.7435    1.6700 O   0  0  0  0  0  0  0  0  0  0  0  0
   -1.4907    1.5840    1.7934 N   0  0  0  0  0  0  0  0  0  0  0  0
   -2.3000    1.0490    1.5207 H   0  0  0  0  0  0  0  0  0  0  0  0
   -1.6993    2.7862    2.5981 C   0  0  0  0  0  0  0  0  0  0  0  0
   -1.2024    3.6366    2.1260 H   0  0  0  0  0  0  0  0  0  0  0  0
   -2.7652    2.9997    2.6907 H   0  0  0  0  0  0  0  0  0  0  0  0
   -1.2704    2.6422    3.5916 H   0  0  0  0  0  0  0  0  0  0  0  0
  5  6  2  0  0  0  0
  5  7  1  0  0  0  0
  2  3  1  0  0  0  0
  2  4  1  0  0  0  0
  2  5  1  0  0  0  0
  1  2  1  0  0  0  0
 24 25  2  0  0  0  0
 24 26  1  0  0  0  0
 20 21  1  0  0  0  0
 20 22  1  0  0  0  0
 20 23  1  0  0  0  0
 17 18  1  0  0  0  0
 17 19  1  0  0  0  0
 17 20  1  0  0  0  0
 13 14  1  0  0  0  0
 13 15  1  0  0  0  0
 13 16  1  0  0  0  0
 11 12  1  0  0  0  0
 11 13  1  0  0  0  0
 11 17  1  0  0  0  0
  9 10  1  0  0  0  0
  9 11  1  0  0  0  0
  9 24  1  0  0  0  0
  7  8  1  0  0  0  0
  7  9  1  0  0  0  0
 28 29  1  0  0  0  0
 28 30  1  0  0  0  0
 28 31  1  0  0  0  0
 26 27  1  0  0  0  0
 26 28  1  0  0  0  0
M  END
$$$$
default_name
  -OEChem-01062215323D

 31 30  0     1  0  0  0  0  0999 V2000
   -3.0760   -3.6390    1.5496 H   0  0  0  0  0  0  0  0  0  0  0  0
   -3.0940   -2.6290    1.1426 C   0  0  0  0  0  0  0  0  0  0  0  0
   -3.7160   -1.9930    1.7706 H   0  0  0  0  0  0  0  0  0  0  0  0
   -3.4880   -2.6500    0.1286 H   0  0  0  0  0  0  0  0  0  0  0  0
   -1.6860   -2.0850    1.1196 C   0  0  0  0  0  0  0  0  0  0  0  0
   -0.7540   -2.7700    1.5226 O   0  0  0  0  0  0  0  0  0  0  0  0
   -1.5320   -0.8490    0.6496 N   0  0  0  0  0  0  0  0  0  0  0  0
   -2.3500   -0.3360    0.3566 H   0  0  0  0  0  0  0  0  0  0  0  0
   -0.2470   -0.1410    0.5576 C   0  0  1  0  0  0  0  0  0  0  0  0
    0.5168   -0.7881    0.9900 H   0  0  0  0  0  0  0  0  0  0  0  0
    0.1248    0.1074   -0.9264 C   0  0  1  0  0  0  0  0  0  0  0  0
   -0.7218    0.6183   -1.3890 H   0  0  0  0  0  0  0  0  0  0  0  0
    1.3605    1.0148   -1.0795 C   0  0  0  0  0  0  0  0  0  0  0  0
    2.2531    0.5154   -0.6986 H   0  0  0  0  0  0  0  0  0  0  0  0
    1.5151    1.2698   -2.1267 H   0  0  0  0  0  0  0  0  0  0  0  0
    1.2155    1.9446   -0.5283 H   0  0  0  0  0  0  0  0  0  0  0  0
    0.3237   -1.2276   -1.6787 C   0  0  0  0  0  0  0  0  0  0  0  0
    1.2234   -1.7277   -1.3177 H   0  0  0  0  0  0  0  0  0  0  0  0
   -0.5308   -1.8738   -1.4780 H   0  0  0  0  0  0  0  0  0  0  0  0
    0.4295   -1.0683   -3.2014 C   0  0  0  0  0  0  0  0  0  0  0  0
    1.3316   -0.5171   -3.4664 H   0  0  0  0  0  0  0  0  0  0  0  0
    0.4776   -2.0546   -3.6636 H   0  0  0  0  0  0  0  0  0  0  0  0
   -0.4453   -0.5406   -3.5830 H   0  0  0  0  0  0  0  0  0  0  0  0
   -0.2891    1.1472    1.3952 C   0  0  0  0  0  0  0  0  0  0  0  0
    0.6906    1.8896    1.4423 O   0  0  0  0  0  0  0  0  0  0  0  0
   -1.4256    1.4201    2.0488 N   0  0  0  0  0  0  0  0  0  0  0  0
   -2.1905    0.7708    1.9540 H   0  0  0  0  0  0  0  0  0  0  0  0
   -1.6235    2.5990    2.8898 C   0  0  0  0  0  0  0  0  0  0  0  0
   -1.3662    3.4998    2.3281 H   0  0  0  0  0  0  0  0  0  0  0  0
   -2.6633    2.6630    3.2137 H   0  0  0  0  0  0  0  0  0  0  0  0
   -0.9737    2.5391    3.7650 H   0  0  0  0  0  0  0  0  0  0  0  0
  5  6  2  0  0  0  0
  5  7  1  0  0  0  0
  2  3  1  0  0  0  0
  2  4  1  0  0  0  0
  2  5  1  0  0  0  0
  1  2  1  0  0  0  0
 24 25  2  0  0  0  0
 24 26  1  0  0  0  0
 20 21  1  0  0  0  0
 20 22  1  0  0  0  0
 20 23  1  0  0  0  0
 17 18  1  0  0  0  0
 17 19  1  0  0  0  0
 17 20  1  0  0  0  0
 13 14  1  0  0  0  0
 13 15  1  0  0  0  0
 13 16  1  0  0  0  0
 11 12  1  0  0  0  0
 11 13  1  0  0  0  0
 11 17  1  0  0  0  0
  9 10  1  0  0  0  0
  9 11  1  0  0  0  0
  9 24  1  0  0  0  0
  7  8  1  0  0  0  0
  7  9  1  0  0  0  0
 28 29  1  0  0  0  0
 28 30  1  0  0  0  0
 28 31  1  0  0  0  0
 26 27  1  0  0  0  0
 26 28  1  0  0  0  0
M  END
$$$$
default_name
  -OEChem-01062215323D

 31 30  0     1  0  0  0  0  0999 V2000
   -3.0760   -3.6390    1.5496 H   0  0  0  0  0  0  0  0  0  0  0  0
   -3.0940   -2.6290    1.1426 C   0  0  0  0  0  0  0  0  0  0  0  0
   -3.7160   -1.9930    1.7706 H   0  0  0  0  0  0  0  0  0  0  0  0
   -3.4880   -2.6500    0.1286 H   0  0  0  0  0  0  0  0  0  0  0  0
   -1.6860   -2.0850    1.1196 C   0  0  0  0  0  0  0  0  0  0  0  0
   -0.7540   -2.7700    1.5226 O   0  0  0  0  0  0  0  0  0  0  0  0
   -1.5320   -0.8490    0.6496 N   0  0  0  0  0  0  0  0  0  0  0  0
   -2.3500   -0.3360    0.3566 H   0  0  0  0  0  0  0  0  0  0  0  0
   -0.2470   -0.1410    0.5576 C   0  0  1  0  0  0  0  0  0  0  0  0
    0.5168   -0.7881    0.9900 H   0  0  0  0  0  0  0  0  0  0  0  0
    0.1248    0.1074   -0.9264 C   0  0  1  0  0  0  0  0  0  0  0  0
   -0.7218    0.6183   -1.3890 H   0  0  0  0  0  0  0  0  0  0  0  0
    1.3605    1.0148   -1.0795 C   0  0  0  0  0  0  0  0  0  0  0  0
    2.2531    0.5154   -0.6986 H   0  0  0  0  0  0  0  0  0  0  0  0
    1.5151    1.2698   -2.1267 H   0  0  0  0  0  0  0  0  0  0  0  0
    1.2155    1.9446   -0.5283 H   0  0  0  0  0  0  0  0  0  0  0  0
    0.3237   -1.2276   -1.6787 C   0  0  0  0  0  0  0  0  0  0  0  0
    1.2234   -1.7277   -1.3177 H   0  0  0  0  0  0  0  0  0  0  0  0
   -0.5308   -1.8738   -1.4780 H   0  0  0  0  0  0  0  0  0  0  0  0
    0.4295   -1.0683   -3.2014 C   0  0  0  0  0  0  0  0  0  0  0  0
    1.3316   -0.5171   -3.4664 H   0  0  0  0  0  0  0  0  0  0  0  0
    0.4776   -2.0546   -3.6636 H   0  0  0  0  0  0  0  0  0  0  0  0
   -0.4453   -0.5406   -3.5830 H   0  0  0  0  0  0  0  0  0  0  0  0
   -0.2891    1.1472    1.3952 C   0  0  0  0  0  0  0  0  0  0  0  0
    0.5622    2.0205    1.2344 O   0  0  0  0  0  0  0  0  0  0  0  0
   -1.2841    1.2727    2.2825 N   0  0  0  0  0  0  0  0  0  0  0  0
   -1.9514    0.5206    2.3508 H   0  0  0  0  0  0  0  0  0  0  0  0
   -1.4605    2.4310    3.1564 C   0  0  0  0  0  0  0  0  0  0  0  0
   -1.4614    3.3460    2.5599 H   0  0  0  0  0  0  0  0  0  0  0  0
   -2.4040    2.3558    3.6991 H   0  0  0  0  0  0  0  0  0  0  0  0
   -0.6350    2.4827    3.8689 H   0  0  0  0  0  0  0  0  0  0  0  0
  5  6  2  0  0  0  0
  5  7  1  0  0  0  0
  2  3  1  0  0  0  0
  2  4  1  0  0  0  0
  2  5  1  0  0  0  0
  1  2  1  0  0  0  0
 24 25  2  0  0  0  0
 24 26  1  0  0  0  0
 20 21  1  0  0  0  0
 20 22  1  0  0  0  0
 20 23  1  0  0  0  0
 17 18  1  0  0  0  0
 17 19  1  0  0  0  0
 17 20  1  0  0  0  0
 13 14  1  0  0  0  0
 13 15  1  0  0  0  0
 13 16  1  0  0  0  0
 11 12  1  0  0  0  0
 11 13  1  0  0  0  0
 11 17  1  0  0  0  0
  9 10  1  0  0  0  0
  9 11  1  0  0  0  0
  9 24  1  0  0  0  0
  7  8  1  0  0  0  0
  7  9  1  0  0  0  0
 28 29  1  0  0  0  0
 28 30  1  0  0  0  0
 28 31  1  0  0  0  0
 26 27  1  0  0  0  0
 26 28  1  0  0  0  0
M  END
$$$$
default_name
  -OEChem-01062215323D

 31 30  0     1  0  0  0  0  0999 V2000
   -3.0760   -3.6390    1.5496 H   0  0  0  0  0  0  0  0  0  0  0  0
   -3.0940   -2.6290    1.1426 C   0  0  0  0  0  0  0  0  0  0  0  0
   -3.7160   -1.9930    1.7706 H   0  0  0  0  0  0  0  0  0  0  0  0
   -3.4880   -2.6500    0.1286 H   0  0  0  0  0  0  0  0  0  0  0  0
   -1.6860   -2.0850    1.1196 C   0  0  0  0  0  0  0  0  0  0  0  0
   -0.7540   -2.7700    1.5226 O   0  0  0  0  0  0  0  0  0  0  0  0
   -1.5320   -0.8490    0.6496 N   0  0  0  0  0  0  0  0  0  0  0  0
   -2.3500   -0.3360    0.3566 H   0  0  0  0  0  0  0  0  0  0  0  0
   -0.2470   -0.1410    0.5576 C   0  0  1  0  0  0  0  0  0  0  0  0
    0.5168   -0.7881    0.9900 H   0  0  0  0  0  0  0  0  0  0  0  0
    0.1248    0.1074   -0.9264 C   0  0  1  0  0  0  0  0  0  0  0  0
   -0.7218    0.6183   -1.3890 H   0  0  0  0  0  0  0  0  0  0  0  0
    1.3605    1.0148   -1.0795 C   0  0  0  0  0  0  0  0  0  0  0  0
    2.2531    0.5154   -0.6986 H   0  0  0  0  0  0  0  0  0  0  0  0
    1.5151    1.2698   -2.1267 H   0  0  0  0  0  0  0  0  0  0  0  0
    1.2155    1.9446   -0.5283 H   0  0  0  0  0  0  0  0  0  0  0  0
    0.3237   -1.2276   -1.6787 C   0  0  0  0  0  0  0  0  0  0  0  0
    1.2234   -1.7277   -1.3177 H   0  0  0  0  0  0  0  0  0  0  0  0
   -0.5308   -1.8738   -1.4780 H   0  0  0  0  0  0  0  0  0  0  0  0
    0.4295   -1.0683   -3.2014 C   0  0  0  0  0  0  0  0  0  0  0  0
    1.3316   -0.5171   -3.4664 H   0  0  0  0  0  0  0  0  0  0  0  0
    0.4776   -2.0546   -3.6636 H   0  0  0  0  0  0  0  0  0  0  0  0
   -0.4453   -0.5406   -3.5830 H   0  0  0  0  0  0  0  0  0  0  0  0
   -0.2891    1.1472    1.3952 C   0  0  0  0  0  0  0  0  0  0  0  0
    0.3745    2.1274    1.0606 O   0  0  0  0  0  0  0  0  0  0  0  0
   -1.0761    1.1520    2.4787 N   0  0  0  0  0  0  0  0  0  0  0  0
   -1.5992    0.3155    2.6840 H   0  0  0  0  0  0  0  0  0  0  0  0
   -1.2216    2.2936    3.3798 C   0  0  0  0  0  0  0  0  0  0  0  0
   -1.4813    3.1856    2.8054 H   0  0  0  0  0  0  0  0  0  0  0  0
   -2.0048    2.0991    4.1139 H   0  0  0  0  0  0  0  0  0  0  0  0
   -0.2774    2.4766    3.8961 H   0  0  0  0  0  0  0  0  0  0  0  0
  5  6  2  0  0  0  0
  5  7  1  0  0  0  0
  2  3  1  0  0  0  0
  2  4  1  0  0  0  0
  2  5  1  0  0  0  0
  1  2  1  0  0  0  0
 24 25  2  0  0  0  0
 24 26  1  0  0  0  0
 20 21  1  0  0  0  0
 20 22  1  0  0  0  0
 20 23  1  0  0  0  0
 17 18  1  0  0  0  0
 17 19  1  0  0  0  0
 17 20  1  0  0  0  0
 13 14  1  0  0  0  0
 13 15  1  0  0  0  0
 13 16  1  0  0  0  0
 11 12  1  0  0  0  0
 11 13  1  0  0  0  0
 11 17  1  0  0  0  0
  9 10  1  0  0  0  0
  9 11  1  0  0  0  0
  9 24  1  0  0  0  0
  7  8  1  0  0  0  0
  7  9  1  0  0  0  0
 28 29  1  0  0  0  0
 28 30  1  0  0  0  0
 28 31  1  0  0  0  0
 26 27  1  0  0  0  0
 26 28  1  0  0  0  0
M  END
$$$$
default_name
  -OEChem-01062215323D

 31 30  0     1  0  0  0  0  0999 V2000
   -3.0760   -3.6390    1.5496 H   0  0  0  0  0  0  0  0  0  0  0  0
   -3.0940   -2.6290    1.1426 C   0  0  0  0  0  0  0  0  0  0  0  0
   -3.7160   -1.9930    1.7706 H   0  0  0  0  0  0  0  0  0  0  0  0
   -3.4880   -2.6500    0.1286 H   0  0  0  0  0  0  0  0  0  0  0  0
   -1.6860   -2.0850    1.1196 C   0  0  0  0  0  0  0  0  0  0  0  0
   -0.7540   -2.7700    1.5226 O   0  0  0  0  0  0  0  0  0  0  0  0
   -1.5320   -0.8490    0.6496 N   0  0  0  0  0  0  0  0  0  0  0  0
   -2.3500   -0.3360    0.3566 H   0  0  0  0  0  0  0  0  0  0  0  0
   -0.2470   -0.1410    0.5576 C   0  0  1  0  0  0  0  0  0  0  0  0
    0.5168   -0.7881    0.9900 H   0  0  0  0  0  0  0  0  0  0  0  0
    0.1248    0.1074   -0.9264 C   0  0  1  0  0  0  0  0  0  0  0  0
   -0.7218    0.6183   -1.3890 H   0  0  0  0  0  0  0  0  0  0  0  0
    1.3605    1.0148   -1.0795 C   0  0  0  0  0  0  0  0  0  0  0  0
    2.2531    0.5154   -0.6986 H   0  0  0  0  0  0  0  0  0  0  0  0
    1.5151    1.2698   -2.1267 H   0  0  0  0  0  0  0  0  0  0  0  0
    1.2155    1.9446   -0.5283 H   0  0  0  0  0  0  0  0  0  0  0  0
    0.3237   -1.2276   -1.6787 C   0  0  0  0  0  0  0  0  0  0  0  0
    1.2234   -1.7277   -1.3177 H   0  0  0  0  0  0  0  0  0  0  0  0
   -0.5308   -1.8738   -1.4780 H   0  0  0  0  0  0  0  0  0  0  0  0
    0.4295   -1.0683   -3.2014 C   0  0  0  0  0  0  0  0  0  0  0  0
    1.3316   -0.5171   -3.4664 H   0  0  0  0  0  0  0  0  0  0  0  0
    0.4776   -2.0546   -3.6636 H   0  0  0  0  0  0  0  0  0  0  0  0
   -0.4453   -0.5406   -3.5830 H   0  0  0  0  0  0  0  0  0  0  0  0
   -0.2891    1.1472    1.3952 C   0  0  0  0  0  0  0  0  0  0  0  0
    0.1405    2.2030    0.9327 O   0  0  0  0  0  0  0  0  0  0  0  0
   -0.8155    1.0661    2.6239 N   0  0  0  0  0  0  0  0  0  0  0  0
   -1.1578    0.1693    2.9309 H   0  0  0  0  0  0  0  0  0  0  0  0
   -0.9230    2.1961    3.5447 C   0  0  0  0  0  0  0  0  0  0  0  0
   -1.4246    3.0297    3.0481 H   0  0  0  0  0  0  0  0  0  0  0  0
   -1.4931    1.9104    4.4299 H   0  0  0  0  0  0  0  0  0  0  0  0
    0.0748    2.5214    3.8449 H   0  0  0  0  0  0  0  0  0  0  0  0
  5  6  2  0  0  0  0
  5  7  1  0  0  0  0
  2  3  1  0  0  0  0
  2  4  1  0  0  0  0
  2  5  1  0  0  0  0
  1  2  1  0  0  0  0
 24 25  2  0  0  0  0
 24 26  1  0  0  0  0
 20 21  1  0  0  0  0
 20 22  1  0  0  0  0
 20 23  1  0  0  0  0
 17 18  1  0  0  0  0
 17 19  1  0  0  0  0
 17 20  1  0  0  0  0
 13 14  1  0  0  0  0
 13 15  1  0  0  0  0
 13 16  1  0  0  0  0
 11 12  1  0  0  0  0
 11 13  1  0  0  0  0
 11 17  1  0  0  0  0
  9 10  1  0  0  0  0
  9 11  1  0  0  0  0
  9 24  1  0  0  0  0
  7  8  1  0  0  0  0
  7  9  1  0  0  0  0
 28 29  1  0  0  0  0
 28 30  1  0  0  0  0
 28 31  1  0  0  0  0
 26 27  1  0  0  0  0
 26 28  1  0  0  0  0
M  END
$$$$
default_name
  -OEChem-01062215323D

 31 30  0     1  0  0  0  0  0999 V2000
   -3.0760   -3.6390    1.5496 H   0  0  0  0  0  0  0  0  0  0  0  0
   -3.0940   -2.6290    1.1426 C   0  0  0  0  0  0  0  0  0  0  0  0
   -3.7160   -1.9930    1.7706 H   0  0  0  0  0  0  0  0  0  0  0  0
   -3.4880   -2.6500    0.1286 H   0  0  0  0  0  0  0  0  0  0  0  0
   -1.6860   -2.0850    1.1196 C   0  0  0  0  0  0  0  0  0  0  0  0
   -0.7540   -2.7700    1.5226 O   0  0  0  0  0  0  0  0  0  0  0  0
   -1.5320   -0.8490    0.6496 N   0  0  0  0  0  0  0  0  0  0  0  0
   -2.3500   -0.3360    0.3566 H   0  0  0  0  0  0  0  0  0  0  0  0
   -0.2470   -0.1410    0.5576 C   0  0  1  0  0  0  0  0  0  0  0  0
    0.5168   -0.7881    0.9900 H   0  0  0  0  0  0  0  0  0  0  0  0
    0.1248    0.1074   -0.9264 C   0  0  1  0  0  0  0  0  0  0  0  0
   -0.7218    0.6183   -1.3890 H   0  0  0  0  0  0  0  0  0  0  0  0
    1.3605    1.0148   -1.0795 C   0  0  0  0  0  0  0  0  0  0  0  0
    2.2531    0.5154   -0.6986 H   0  0  0  0  0  0  0  0  0  0  0  0
    1.5151    1.2698   -2.1267 H   0  0  0  0  0  0  0  0  0  0  0  0
    1.2155    1.9446   -0.5283 H   0  0  0  0  0  0  0  0  0  0  0  0
    0.3237   -1.2276   -1.6787 C   0  0  0  0  0  0  0  0  0  0  0  0
    1.2234   -1.7277   -1.3177 H   0  0  0  0  0  0  0  0  0  0  0  0
   -0.5308   -1.8738   -1.4780 H   0  0  0  0  0  0  0  0  0  0  0  0
    0.4295   -1.0683   -3.2014 C   0  0  0  0  0  0  0  0  0  0  0  0
    1.3316   -0.5171   -3.4664 H   0  0  0  0  0  0  0  0  0  0  0  0
    0.4776   -2.0546   -3.6636 H   0  0  0  0  0  0  0  0  0  0  0  0
   -0.4453   -0.5406   -3.5830 H   0  0  0  0  0  0  0  0  0  0  0  0
   -0.2891    1.1472    1.3952 C   0  0  0  0  0  0  0  0  0  0  0  0
   -0.1240    2.2421    0.8593 O   0  0  0  0  0  0  0  0  0  0  0  0
   -0.5202    1.0209    2.7082 N   0  0  0  0  0  0  0  0  0  0  0  0
   -0.6572    0.0922    3.0747 H   0  0  0  0  0  0  0  0  0  0  0  0
   -0.5851    2.1452    3.6399 C   0  0  0  0  0  0  0  0  0  0  0  0
   -1.2953    2.8887    3.2713 H   0  0  0  0  0  0  0  0  0  0  0  0
   -0.9037    1.8025    4.6254 H   0  0  0  0  0  0  0  0  0  0  0  0
    0.3976    2.6140    3.7188 H   0  0  0  0  0  0  0  0  0  0  0  0
  5  6  2  0  0  0  0
  5  7  1  0  0  0  0
  2  3  1  0  0  0  0
  2  4  1  0  0  0  0
  2  5  1  0  0  0  0
  1  2  1  0  0  0  0
 24 25  2  0  0  0  0
 24 26  1  0  0  0  0
 20 21  1  0  0  0  0
 20 22  1  0  0  0  0
 20 23  1  0  0  0  0
 17 18  1  0  0  0  0
 17 19  1  0  0  0  0
 17 20  1  0  0  0  0
 13 14  1  0  0  0  0
 13 15  1  0  0  0  0
 13 16  1  0  0  0  0
 11 12  1  0  0  0  0
 11 13  1  0  0  0  0
 11 17  1  0  0  0  0
  9 10  1  0  0  0  0
  9 11  1  0  0  0  0
  9 24  1  0  0  0  0
  7  8  1  0  0  0  0
  7  9  1  0  0  0  0
 28 29  1  0  0  0  0
 28 30  1  0  0  0  0
 28 31  1  0  0  0  0
 26 27  1  0  0  0  0
 26 28  1  0  0  0  0
M  END
$$$$
default_name
  -OEChem-01062215323D

 31 30  0     1  0  0  0  0  0999 V2000
   -3.0760   -3.6390    1.5496 H   0  0  0  0  0  0  0  0  0  0  0  0
   -3.0940   -2.6290    1.1426 C   0  0  0  0  0  0  0  0  0  0  0  0
   -3.7160   -1.9930    1.7706 H   0  0  0  0  0  0  0  0  0  0  0  0
   -3.4880   -2.6500    0.1286 H   0  0  0  0  0  0  0  0  0  0  0  0
   -1.6860   -2.0850    1.1196 C   0  0  0  0  0  0  0  0  0  0  0  0
   -0.7540   -2.7700    1.5226 O   0  0  0  0  0  0  0  0  0  0  0  0
   -1.5320   -0.8490    0.6496 N   0  0  0  0  0  0  0  0  0  0  0  0
   -2.3500   -0.3360    0.3566 H   0  0  0  0  0  0  0  0  0  0  0  0
   -0.2470   -0.1410    0.5576 C   0  0  1  0  0  0  0  0  0  0  0  0
    0.5168   -0.7881    0.9900 H   0  0  0  0  0  0  0  0  0  0  0  0
    0.1248    0.1074   -0.9264 C   0  0  1  0  0  0  0  0  0  0  0  0
   -0.7218    0.6183   -1.3890 H   0  0  0  0  0  0  0  0  0  0  0  0
    1.3605    1.0148   -1.0795 C   0  0  0  0  0  0  0  0  0  0  0  0
    2.2531    0.5154   -0.6986 H   0  0  0  0  0  0  0  0  0  0  0  0
    1.5151    1.2698   -2.1267 H   0  0  0  0  0  0  0  0  0  0  0  0
    1.2155    1.9446   -0.5283 H   0  0  0  0  0  0  0  0  0  0  0  0
    0.3237   -1.2276   -1.6787 C   0  0  0  0  0  0  0  0  0  0  0  0
    1.2234   -1.7277   -1.3177 H   0  0  0  0  0  0  0  0  0  0  0  0
   -0.5308   -1.8738   -1.4780 H   0  0  0  0  0  0  0  0  0  0  0  0
    0.4295   -1.0683   -3.2014 C   0  0  0  0  0  0  0  0  0  0  0  0
    1.3316   -0.5171   -3.4664 H   0  0  0  0  0  0  0  0  0  0  0  0
    0.4776   -2.0546   -3.6636 H   0  0  0  0  0  0  0  0  0  0  0  0
   -0.4453   -0.5406   -3.5830 H   0  0  0  0  0  0  0  0  0  0  0  0
   -0.2891    1.1472    1.3952 C   0  0  0  0  0  0  0  0  0  0  0  0
   -0.4009    2.2420    0.8455 O   0  0  0  0  0  0  0  0  0  0  0  0
   -0.2104    1.0195    2.7259 N   0  0  0  0  0  0  0  0  0  0  0  0
   -0.1317    0.0893    3.1055 H   0  0  0  0  0  0  0  0  0  0  0  0
   -0.2309    2.1444    3.6589 C   0  0  0  0  0  0  0  0  0  0  0  0
   -1.1020    2.7725    3.4599 H   0  0  0  0  0  0  0  0  0  0  0  0
   -0.2767    1.7828    4.6872 H   0  0  0  0  0  0  0  0  0  0  0  0
    0.6690    2.7481    3.5262 H   0  0  0  0  0  0  0  0  0  0  0  0
  5  6  2  0  0  0  0
  5  7  1  0  0  0  0
  2  3  1  0  0  0  0
  2  4  1  0  0  0  0
  2  5  1  0  0  0  0
  1  2  1  0  0  0  0
 24 25  2  0  0  0  0
 24 26  1  0  0  0  0
 20 21  1  0  0  0  0
 20 22  1  0  0  0  0
 20 23  1  0  0  0  0
 17 18  1  0  0  0  0
 17 19  1  0  0  0  0
 17 20  1  0  0  0  0
 13 14  1  0  0  0  0
 13 15  1  0  0  0  0
 13 16  1  0  0  0  0
 11 12  1  0  0  0  0
 11 13  1  0  0  0  0
 11 17  1  0  0  0  0
  9 10  1  0  0  0  0
  9 11  1  0  0  0  0
  9 24  1  0  0  0  0
  7  8  1  0  0  0  0
  7  9  1  0  0  0  0
 28 29  1  0  0  0  0
 28 30  1  0  0  0  0
 28 31  1  0  0  0  0
 26 27  1  0  0  0  0
 26 28  1  0  0  0  0
M  END
$$$$
default_name
  -OEChem-01062215323D

 31 30  0     1  0  0  0  0  0999 V2000
   -3.0760   -3.6390    1.5496 H   0  0  0  0  0  0  0  0  0  0  0  0
   -3.0940   -2.6290    1.1426 C   0  0  0  0  0  0  0  0  0  0  0  0
   -3.7160   -1.9930    1.7706 H   0  0  0  0  0  0  0  0  0  0  0  0
   -3.4880   -2.6500    0.1286 H   0  0  0  0  0  0  0  0  0  0  0  0
   -1.6860   -2.0850    1.1196 C   0  0  0  0  0  0  0  0  0  0  0  0
   -0.7540   -2.7700    1.5226 O   0  0  0  0  0  0  0  0  0  0  0  0
   -1.5320   -0.8490    0.6496 N   0  0  0  0  0  0  0  0  0  0  0  0
   -2.3500   -0.3360    0.3566 H   0  0  0  0  0  0  0  0  0  0  0  0
   -0.2470   -0.1410    0.5576 C   0  0  1  0  0  0  0  0  0  0  0  0
    0.5168   -0.7881    0.9900 H   0  0  0  0  0  0  0  0  0  0  0  0
    0.1248    0.1074   -0.9264 C   0  0  1  0  0  0  0  0  0  0  0  0
   -0.7218    0.6183   -1.3890 H   0  0  0  0  0  0  0  0  0  0  0  0
    1.3605    1.0148   -1.0795 C   0  0  0  0  0  0  0  0  0  0  0  0
    2.2531    0.5154   -0.6986 H   0  0  0  0  0  0  0  0  0  0  0  0
    1.5151    1.2698   -2.1267 H   0  0  0  0  0  0  0  0  0  0  0  0
    1.2155    1.9446   -0.5283 H   0  0  0  0  0  0  0  0  0  0  0  0
    0.3237   -1.2276   -1.6787 C   0  0  0  0  0  0  0  0  0  0  0  0
    1.2234   -1.7277   -1.3177 H   0  0  0  0  0  0  0  0  0  0  0  0
   -0.5308   -1.8738   -1.4780 H   0  0  0  0  0  0  0  0  0  0  0  0
    0.4295   -1.0683   -3.2014 C   0  0  0  0  0  0  0  0  0  0  0  0
    1.3316   -0.5171   -3.4664 H   0  0  0  0  0  0  0  0  0  0  0  0
    0.4776   -2.0546   -3.6636 H   0  0  0  0  0  0  0  0  0  0  0  0
   -0.4453   -0.5406   -3.5830 H   0  0  0  0  0  0  0  0  0  0  0  0
   -0.2891    1.1472    1.3952 C   0  0  0  0  0  0  0  0  0  0  0  0
   -0.6713    2.2027    0.8922 O   0  0  0  0  0  0  0  0  0  0  0  0
    0.0930    1.0620    2.6758 N   0  0  0  0  0  0  0  0  0  0  0  0
    0.3831    0.1609    3.0213 H   0  0  0  0  0  0  0  0  0  0  0  0
    0.1156    2.1937    3.6005 C   0  0  0  0  0  0  0  0  0  0  0  0
   -0.8581    2.6887    3.6009 H   0  0  0  0  0  0  0  0  0  0  0  0
    0.3451    1.8526    4.6110 H   0  0  0  0  0  0  0  0  0  0  0  0
    0.8705    2.9145    3.2804 H   0  0  0  0  0  0  0  0  0  0  0  0
  5  6  2  0  0  0  0
  5  7  1  0  0  0  0
  2  3  1  0  0  0  0
  2  4  1  0  0  0  0
  2  5  1  0  0  0  0
  1  2  1  0  0  0  0
 24 25  2  0  0  0  0
 24 26  1  0  0  0  0
 20 21  1  0  0  0  0
 20 22  1  0  0  0  0
 20 23  1  0  0  0  0
 17 18  1  0  0  0  0
 17 19  1  0  0  0  0
 17 20  1  0  0  0  0
 13 14  1  0  0  0  0
 13 15  1  0  0  0  0
 13 16  1  0  0  0  0
 11 12  1  0  0  0  0
 11 13  1  0  0  0  0
 11 17  1  0  0  0  0
  9 10  1  0  0  0  0
  9 11  1  0  0  0  0
  9 24  1  0  0  0  0
  7  8  1  0  0  0  0
  7  9  1  0  0  0  0
 28 29  1  0  0  0  0
 28 30  1  0  0  0  0
 28 31  1  0  0  0  0
 26 27  1  0  0  0  0
 26 28  1  0  0  0  0
M  END
$$$$
default_name
  -OEChem-01062215323D

 31 30  0     1  0  0  0  0  0999 V2000
   -3.0760   -3.6390    1.5496 H   0  0  0  0  0  0  0  0  0  0  0  0
   -3.0940   -2.6290    1.1426 C   0  0  0  0  0  0  0  0  0  0  0  0
   -3.7160   -1.9930    1.7706 H   0  0  0  0  0  0  0  0  0  0  0  0
   -3.4880   -2.6500    0.1286 H   0  0  0  0  0  0  0  0  0  0  0  0
   -1.6860   -2.0850    1.1196 C   0  0  0  0  0  0  0  0  0  0  0  0
   -0.7540   -2.7700    1.5226 O   0  0  0  0  0  0  0  0  0  0  0  0
   -1.5320   -0.8490    0.6496 N   0  0  0  0  0  0  0  0  0  0  0  0
   -2.3500   -0.3360    0.3566 H   0  0  0  0  0  0  0  0  0  0  0  0
   -0.2470   -0.1410    0.5576 C   0  0  1  0  0  0  0  0  0  0  0  0
    0.5168   -0.7881    0.9900 H   0  0  0  0  0  0  0  0  0  0  0  0
    0.1248    0.1074   -0.9264 C   0  0  1  0  0  0  0  0  0  0  0  0
   -0.7218    0.6183   -1.3890 H   0  0  0  0  0  0  0  0  0  0  0  0
    1.3605    1.0148   -1.0795 C   0  0  0  0  0  0  0  0  0  0  0  0
    2.2531    0.5154   -0.6986 H   0  0  0  0  0  0  0  0  0  0  0  0
    1.5151    1.2698   -2.1267 H   0  0  0  0  0  0  0  0  0  0  0  0
    1.2155    1.9446   -0.5283 H   0  0  0  0  0  0  0  0  0  0  0  0
    0.3237   -1.2276   -1.6787 C   0  0  0  0  0  0  0  0  0  0  0  0
    1.2234   -1.7277   -1.3177 H   0  0  0  0  0  0  0  0  0  0  0  0
   -0.5308   -1.8738   -1.4780 H   0  0  0  0  0  0  0  0  0  0  0  0
    0.4295   -1.0683   -3.2014 C   0  0  0  0  0  0  0  0  0  0  0  0
    1.3316   -0.5171   -3.4664 H   0  0  0  0  0  0  0  0  0  0  0  0
    0.4776   -2.0546   -3.6636 H   0  0  0  0  0  0  0  0  0  0  0  0
   -0.4453   -0.5406   -3.5830 H   0  0  0  0  0  0  0  0  0  0  0  0
   -0.2891    1.1472    1.3952 C   0  0  0  0  0  0  0  0  0  0  0  0
   -0.9168    2.1270    0.9963 O   0  0  0  0  0  0  0  0  0  0  0  0
    0.3692    1.1455    2.5613 N   0  0  0  0  0  0  0  0  0  0  0  0
    0.8520    0.3020    2.8279 H   0  0  0  0  0  0  0  0  0  0  0  0
    0.4305    2.2898    3.4685 C   0  0  0  0  0  0  0  0  0  0  0  0
   -0.5801    2.6432    3.6848 H   0  0  0  0  0  0  0  0  0  0  0  0
    0.9193    2.0073    4.4021 H   0  0  0  0  0  0  0  0  0  0  0  0
    0.9883    3.1019    2.9981 H   0  0  0  0  0  0  0  0  0  0  0  0
  5  6  2  0  0  0  0
  5  7  1  0  0  0  0
  2  3  1  0  0  0  0
  2  4  1  0  0  0  0
  2  5  1  0  0  0  0
  1  2  1  0  0  0  0
 24 25  2  0  0  0  0
 24 26  1  0  0  0  0
 20 21  1  0  0  0  0
 20 22  1  0  0  0  0
 20 23  1  0  0  0  0
 17 18  1  0  0  0  0
 17 19  1  0  0  0  0
 17 20  1  0  0  0  0
 13 14  1  0  0  0  0
 13 15  1  0  0  0  0
 13 16  1  0  0  0  0
 11 12  1  0  0  0  0
 11 13  1  0  0  0  0
 11 17  1  0  0  0  0
  9 10  1  0  0  0  0
  9 11  1  0  0  0  0
  9 24  1  0  0  0  0
  7  8  1  0  0  0  0
  7  9  1  0  0  0  0
 28 29  1  0  0  0  0
 28 30  1  0  0  0  0
 28 31  1  0  0  0  0
 26 27  1  0  0  0  0
 26 28  1  0  0  0  0
M  END
$$$$
default_name
  -OEChem-01062215323D

 31 30  0     1  0  0  0  0  0999 V2000
   -3.0760   -3.6390    1.5496 H   0  0  0  0  0  0  0  0  0  0  0  0
   -3.0940   -2.6290    1.1426 C   0  0  0  0  0  0  0  0  0  0  0  0
   -3.7160   -1.9930    1.7706 H   0  0  0  0  0  0  0  0  0  0  0  0
   -3.4880   -2.6500    0.1286 H   0  0  0  0  0  0  0  0  0  0  0  0
   -1.6860   -2.0850    1.1196 C   0  0  0  0  0  0  0  0  0  0  0  0
   -0.7540   -2.7700    1.5226 O   0  0  0  0  0  0  0  0  0  0  0  0
   -1.5320   -0.8490    0.6496 N   0  0  0  0  0  0  0  0  0  0  0  0
   -2.3500   -0.3360    0.3566 H   0  0  0  0  0  0  0  0  0  0  0  0
   -0.2470   -0.1410    0.5576 C   0  0  1  0  0  0  0  0  0  0  0  0
    0.5168   -0.7881    0.9900 H   0  0  0  0  0  0  0  0  0  0  0  0
    0.1248    0.1074   -0.9264 C   0  0  1  0  0  0  0  0  0  0  0  0
   -0.7218    0.6183   -1.3890 H   0  0  0  0  0  0  0  0  0  0  0  0
    1.3605    1.0148   -1.0795 C   0  0  0  0  0  0  0  0  0  0  0  0
    2.2531    0.5154   -0.6986 H   0  0  0  0  0  0  0  0  0  0  0  0
    1.5151    1.2698   -2.1267 H   0  0  0  0  0  0  0  0  0  0  0  0
    1.2155    1.9446   -0.5283 H   0  0  0  0  0  0  0  0  0  0  0  0
    0.3237   -1.2276   -1.6787 C   0  0  0  0  0  0  0  0  0  0  0  0
    1.2234   -1.7277   -1.3177 H   0  0  0  0  0  0  0  0  0  0  0  0
   -0.5308   -1.8738   -1.4780 H   0  0  0  0  0  0  0  0  0  0  0  0
    0.4295   -1.0683   -3.2014 C   0  0  0  0  0  0  0  0  0  0  0  0
    1.3316   -0.5171   -3.4664 H   0  0  0  0  0  0  0  0  0  0  0  0
    0.4776   -2.0546   -3.6636 H   0  0  0  0  0  0  0  0  0  0  0  0
   -0.4453   -0.5406   -3.5830 H   0  0  0  0  0  0  0  0  0  0  0  0
   -0.2891    1.1472    1.3952 C   0  0  0  0  0  0  0  0  0  0  0  0
   -1.1207    2.0200    1.1506 O   0  0  0  0  0  0  0  0  0  0  0  0
    0.5993    1.2642    2.3903 N   0  0  0  0  0  0  0  0  0  0  0  0
    1.2430    0.5031    2.5383 H   0  0  0  0  0  0  0  0  0  0  0  0
    0.6926    2.4261    3.2721 C   0  0  0  0  0  0  0  0  0  0  0  0
   -0.2869    2.6391    3.7059 H   0  0  0  0  0  0  0  0  0  0  0  0
    1.4068    2.2361    4.0746 H   0  0  0  0  0  0  0  0  0  0  0  0
    1.0144    3.2975    2.6986 H   0  0  0  0  0  0  0  0  0  0  0  0
  5  6  2  0  0  0  0
  5  7  1  0  0  0  0
  2  3  1  0  0  0  0
  2  4  1  0  0  0  0
  2  5  1  0  0  0  0
  1  2  1  0  0  0  0
 24 25  2  0  0  0  0
 24 26  1  0  0  0  0
 20 21  1  0  0  0  0
 20 22  1  0  0  0  0
 20 23  1  0  0  0  0
 17 18  1  0  0  0  0
 17 19  1  0  0  0  0
 17 20  1  0  0  0  0
 13 14  1  0  0  0  0
 13 15  1  0  0  0  0
 13 16  1  0  0  0  0
 11 12  1  0  0  0  0
 11 13  1  0  0  0  0
 11 17  1  0  0  0  0
  9 10  1  0  0  0  0
  9 11  1  0  0  0  0
  9 24  1  0  0  0  0
  7  8  1  0  0  0  0
  7  9  1  0  0  0  0
 28 29  1  0  0  0  0
 28 30  1  0  0  0  0
 28 31  1  0  0  0  0
 26 27  1  0  0  0  0
 26 28  1  0  0  0  0
M  END
$$$$
default_name
  -OEChem-01062215323D

 31 30  0     1  0  0  0  0  0999 V2000
   -3.0760   -3.6390    1.5496 H   0  0  0  0  0  0  0  0  0  0  0  0
   -3.0940   -2.6290    1.1426 C   0  0  0  0  0  0  0  0  0  0  0  0
   -3.7160   -1.9930    1.7706 H   0  0  0  0  0  0  0  0  0  0  0  0
   -3.4880   -2.6500    0.1286 H   0  0  0  0  0  0  0  0  0  0  0  0
   -1.6860   -2.0850    1.1196 C   0  0  0  0  0  0  0  0  0  0  0  0
   -0.7540   -2.7700    1.5226 O   0  0  0  0  0  0  0  0  0  0  0  0
   -1.5320   -0.8490    0.6496 N   0  0  0  0  0  0  0  0  0  0  0  0
   -2.3500   -0.3360    0.3566 H   0  0  0  0  0  0  0  0  0  0  0  0
   -0.2470   -0.1410    0.5576 C   0  0  1  0  0  0  0  0  0  0  0  0
    0.5168   -0.7881    0.9900 H   0  0  0  0  0  0  0  0  0  0  0  0
    0.1248    0.1074   -0.9264 C   0  0  1  0  0  0  0  0  0  0  0  0
   -0.7218    0.6183   -1.3890 H   0  0  0  0  0  0  0  0  0  0  0  0
    1.3605    1.0148   -1.0795 C   0  0  0  0  0  0  0  0  0  0  0  0
    2.2531    0.5154   -0.6986 H   0  0  0  0  0  0  0  0  0  0  0  0
    1.5151    1.2698   -2.1267 H   0  0  0  0  0  0  0  0  0  0  0  0
    1.2155    1.9446   -0.5283 H   0  0  0  0  0  0  0  0  0  0  0  0
    0.3237   -1.2276   -1.6787 C   0  0  0  0  0  0  0  0  0  0  0  0
    1.2234   -1.7277   -1.3177 H   0  0  0  0  0  0  0  0  0  0  0  0
   -0.5308   -1.8738   -1.4780 H   0  0  0  0  0  0  0  0  0  0  0  0
    0.4295   -1.0683   -3.2014 C   0  0  0  0  0  0  0  0  0  0  0  0
    1.3316   -0.5171   -3.4664 H   0  0  0  0  0  0  0  0  0  0  0  0
    0.4776   -2.0546   -3.6636 H   0  0  0  0  0  0  0  0  0  0  0  0
   -0.4453   -0.5406   -3.5830 H   0  0  0  0  0  0  0  0  0  0  0  0
   -0.2891    1.1472    1.3952 C   0  0  0  0  0  0  0  0  0  0  0  0
   -1.2691    1.8890    1.3447 O   0  0  0  0  0  0  0  0  0  0  0  0
    0.7678    1.4102    2.1743 N   0  0  0  0  0  0  0  0  0  0  0  0
    1.5295    0.7504    2.1724 H   0  0  0  0  0  0  0  0  0  0  0  0
    0.8839    2.5934    3.0245 C   0  0  0  0  0  0  0  0  0  0  0  0
    0.0015    2.6766    3.6627 H   0  0  0  0  0  0  0  0  0  0  0  0
    1.7744    2.5236    3.6509 H   0  0  0  0  0  0  0  0  0  0  0  0
    0.9471    3.4881    2.4022 H   0  0  0  0  0  0  0  0  0  0  0  0
  5  6  2  0  0  0  0
  5  7  1  0  0  0  0
  2  3  1  0  0  0  0
  2  4  1  0  0  0  0
  2  5  1  0  0  0  0
  1  2  1  0  0  0  0
 24 25  2  0  0  0  0
 24 26  1  0  0  0  0
 20 21  1  0  0  0  0
 20 22  1  0  0  0  0
 20 23  1  0  0  0  0
 17 18  1  0  0  0  0
 17 19  1  0  0  0  0
 17 20  1  0  0  0  0
 13 14  1  0  0  0  0
 13 15  1  0  0  0  0
 13 16  1  0  0  0  0
 11 12  1  0  0  0  0
 11 13  1  0  0  0  0
 11 17  1  0  0  0  0
  9 10  1  0  0  0  0
  9 11  1  0  0  0  0
  9 24  1  0  0  0  0
  7  8  1  0  0  0  0
  7  9  1  0  0  0  0
 28 29  1  0  0  0  0
 28 30  1  0  0  0  0
 28 31  1  0  0  0  0
 26 27  1  0  0  0  0
 26 28  1  0  0  0  0
M  END
$$$$
default_name
  -OEChem-01062215323D

 31 30  0     1  0  0  0  0  0999 V2000
   -3.0760   -3.6390    1.5496 H   0  0  0  0  0  0  0  0  0  0  0  0
   -3.0940   -2.6290    1.1426 C   0  0  0  0  0  0  0  0  0  0  0  0
   -3.7160   -1.9930    1.7706 H   0  0  0  0  0  0  0  0  0  0  0  0
   -3.4880   -2.6500    0.1286 H   0  0  0  0  0  0  0  0  0  0  0  0
   -1.6860   -2.0850    1.1196 C   0  0  0  0  0  0  0  0  0  0  0  0
   -0.7540   -2.7700    1.5226 O   0  0  0  0  0  0  0  0  0  0  0  0
   -1.5320   -0.8490    0.6496 N   0  0  0  0  0  0  0  0  0  0  0  0
   -2.3500   -0.3360    0.3566 H   0  0  0  0  0  0  0  0  0  0  0  0
   -0.2470   -0.1410    0.5576 C   0  0  1  0  0  0  0  0  0  0  0  0
    0.5168   -0.7881    0.9900 H   0  0  0  0  0  0  0  0  0  0  0  0
    0.1248    0.1074   -0.9264 C   0  0  1  0  0  0  0  0  0  0  0  0
   -0.7218    0.6183   -1.3890 H   0  0  0  0  0  0  0  0  0  0  0  0
    1.3605    1.0148   -1.0795 C   0  0  0  0  0  0  0  0  0  0  0  0
    2.2531    0.5154   -0.6986 H   0  0  0  0  0  0  0  0  0  0  0  0
    1.5151    1.2698   -2.1267 H   0  0  0  0  0  0  0  0  0  0  0  0
    1.2155    1.9446   -0.5283 H   0  0  0  0  0  0  0  0  0  0  0  0
    0.3237   -1.2276   -1.6787 C   0  0  0  0  0  0  0  0  0  0  0  0
    1.2234   -1.7277   -1.3177 H   0  0  0  0  0  0  0  0  0  0  0  0
   -0.5308   -1.8738   -1.4780 H   0  0  0  0  0  0  0  0  0  0  0  0
    0.4295   -1.0683   -3.2014 C   0  0  0  0  0  0  0  0  0  0  0  0
    1.3316   -0.5171   -3.4664 H   0  0  0  0  0  0  0  0  0  0  0  0
    0.4776   -2.0546   -3.6636 H   0  0  0  0  0  0  0  0  0  0  0  0
   -0.4453   -0.5406   -3.5830 H   0  0  0  0  0  0  0  0  0  0  0  0
   -0.2891    1.1472    1.3952 C   0  0  0  0  0  0  0  0  0  0  0  0
   -1.3519    1.7429    1.5652 O   0  0  0  0  0  0  0  0  0  0  0  0
    0.8631    1.5734    1.9281 N   0  0  0  0  0  0  0  0  0  0  0  0
    1.6920    1.0271    1.7550 H   0  0  0  0  0  0  0  0  0  0  0  0
    0.9915    2.7801    2.7427 C   0  0  0  0  0  0  0  0  0  0  0  0
    0.2653    2.7532    3.5582 H   0  0  0  0  0  0  0  0  0  0  0  0
    1.9970    2.8502    3.1600 H   0  0  0  0  0  0  0  0  0  0  0  0
    0.7909    3.6605    2.1291 H   0  0  0  0  0  0  0  0  0  0  0  0
  5  6  2  0  0  0  0
  5  7  1  0  0  0  0
  2  3  1  0  0  0  0
  2  4  1  0  0  0  0
  2  5  1  0  0  0  0
  1  2  1  0  0  0  0
 24 25  2  0  0  0  0
 24 26  1  0  0  0  0
 20 21  1  0  0  0  0
 20 22  1  0  0  0  0
 20 23  1  0  0  0  0
 17 18  1  0  0  0  0
 17 19  1  0  0  0  0
 17 20  1  0  0  0  0
 13 14  1  0  0  0  0
 13 15  1  0  0  0  0
 13 16  1  0  0  0  0
 11 12  1  0  0  0  0
 11 13  1  0  0  0  0
 11 17  1  0  0  0  0
  9 10  1  0  0  0  0
  9 11  1  0  0  0  0
  9 24  1  0  0  0  0
  7  8  1  0  0  0  0
  7  9  1  0  0  0  0
 28 29  1  0  0  0  0
 28 30  1  0  0  0  0
 28 31  1  0  0  0  0
 26 27  1  0  0  0  0
 26 28  1  0  0  0  0
M  END
$$$$
default_name
  -OEChem-01062215323D

 31 30  0     1  0  0  0  0  0999 V2000
   -3.0760   -3.6390    1.5496 H   0  0  0  0  0  0  0  0  0  0  0  0
   -3.0940   -2.6290    1.1426 C   0  0  0  0  0  0  0  0  0  0  0  0
   -3.7160   -1.9930    1.7706 H   0  0  0  0  0  0  0  0  0  0  0  0
   -3.4880   -2.6500    0.1286 H   0  0  0  0  0  0  0  0  0  0  0  0
   -1.6860   -2.0850    1.1196 C   0  0  0  0  0  0  0  0  0  0  0  0
   -0.7540   -2.7700    1.5226 O   0  0  0  0  0  0  0  0  0  0  0  0
   -1.5320   -0.8490    0.6496 N   0  0  0  0  0  0  0  0  0  0  0  0
   -2.3500   -0.3360    0.3566 H   0  0  0  0  0  0  0  0  0  0  0  0
   -0.2470   -0.1410    0.5576 C   0  0  1  0  0  0  0  0  0  0  0  0
    0.5168   -0.7881    0.9900 H   0  0  0  0  0  0  0  0  0  0  0  0
    0.1248    0.1074   -0.9264 C   0  0  1  0  0  0  0  0  0  0  0  0
   -0.7218    0.6183   -1.3890 H   0  0  0  0  0  0  0  0  0  0  0  0
    1.3605    1.0148   -1.0795 C   0  0  0  0  0  0  0  0  0  0  0  0
    2.2531    0.5154   -0.6986 H   0  0  0  0  0  0  0  0  0  0  0  0
    1.5151    1.2698   -2.1267 H   0  0  0  0  0  0  0  0  0  0  0  0
    1.2155    1.9446   -0.5283 H   0  0  0  0  0  0  0  0  0  0  0  0
    0.3237   -1.2276   -1.6787 C   0  0  0  0  0  0  0  0  0  0  0  0
    1.2234   -1.7277   -1.3177 H   0  0  0  0  0  0  0  0  0  0  0  0
   -0.5308   -1.8738   -1.4780 H   0  0  0  0  0  0  0  0  0  0  0  0
    0.4295   -1.0683   -3.2014 C   0  0  0  0  0  0  0  0  0  0  0  0
    1.3316   -0.5171   -3.4664 H   0  0  0  0  0  0  0  0  0  0  0  0
    0.4776   -2.0546   -3.6636 H   0  0  0  0  0  0  0  0  0  0  0  0
   -0.4453   -0.5406   -3.5830 H   0  0  0  0  0  0  0  0  0  0  0  0
   -0.2891    1.1472    1.3952 C   0  0  0  0  0  0  0  0  0  0  0  0
   -1.3634    1.5916    1.7973 O   0  0  0  0  0  0  0  0  0  0  0  0
    0.8787    1.7428    1.6684 N   0  0  0  0  0  0  0  0  0  0  0  0
    1.7195    1.3143    1.3147 H   0  0  0  0  0  0  0  0  0  0  0  0
    1.0078    2.9737    2.4458 C   0  0  0  0  0  0  0  0  0  0  0  0
    0.4867    2.8637    3.3994 H   0  0  0  0  0  0  0  0  0  0  0  0
    2.0595    3.1935    2.6351 H   0  0  0  0  0  0  0  0  0  0  0  0
    0.5565    3.8031    1.8980 H   0  0  0  0  0  0  0  0  0  0  0  0
  5  6  2  0  0  0  0
  5  7  1  0  0  0  0
  2  3  1  0  0  0  0
  2  4  1  0  0  0  0
  2  5  1  0  0  0  0
  1  2  1  0  0  0  0
 24 25  2  0  0  0  0
 24 26  1  0  0  0  0
 20 21  1  0  0  0  0
 20 22  1  0  0  0  0
 20 23  1  0  0  0  0
 17 18  1  0  0  0  0
 17 19  1  0  0  0  0
 17 20  1  0  0  0  0
 13 14  1  0  0  0  0
 13 15  1  0  0  0  0
 13 16  1  0  0  0  0
 11 12  1  0  0  0  0
 11 13  1  0  0  0  0
 11 17  1  0  0  0  0
  9 10  1  0  0  0  0
  9 11  1  0  0  0  0
  9 24  1  0  0  0  0
  7  8  1  0  0  0  0
  7  9  1  0  0  0  0
 28 29  1  0  0  0  0
 28 30  1  0  0  0  0
 28 31  1  0  0  0  0
 26 27  1  0  0  0  0
 26 28  1  0  0  0  0
M  END
$$$$
default_name
  -OEChem-01062215323D

 31 30  0     1  0  0  0  0  0999 V2000
   -3.0760   -3.6390    1.5496 H   0  0  0  0  0  0  0  0  0  0  0  0
   -3.0940   -2.6290    1.1426 C   0  0  0  0  0  0  0  0  0  0  0  0
   -3.7160   -1.9930    1.7706 H   0  0  0  0  0  0  0  0  0  0  0  0
   -3.4880   -2.6500    0.1286 H   0  0  0  0  0  0  0  0  0  0  0  0
   -1.6860   -2.0850    1.1196 C   0  0  0  0  0  0  0  0  0  0  0  0
   -0.7540   -2.7700    1.5226 O   0  0  0  0  0  0  0  0  0  0  0  0
   -1.5320   -0.8490    0.6496 N   0  0  0  0  0  0  0  0  0  0  0  0
   -2.3500   -0.3360    0.3566 H   0  0  0  0  0  0  0  0  0  0  0  0
   -0.2470   -0.1410    0.5576 C   0  0  1  0  0  0  0  0  0  0  0  0
    0.5440   -0.8709    0.7329 H   0  0  0  0  0  0  0  0  0  0  0  0
   -0.0528    0.4375   -0.8672 C   0  0  1  0  0  0  0  0  0  0  0  0
   -0.9338    1.0418   -1.0918 H   0  0  0  0  0  0  0  0  0  0  0  0
    1.1818    1.3536   -0.9670 C   0  0  0  0  0  0  0  0  0  0  0  0
    2.0988    0.7791   -0.8245 H   0  0  0  0  0  0  0  0  0  0  0  0
    1.2144    1.8397   -1.9408 H   0  0  0  0  0  0  0  0  0  0  0  0
    1.1341    2.1341   -0.2068 H   0  0  0  0  0  0  0  0  0  0  0  0
    0.0113   -0.6919   -1.9197 C   0  0  0  0  0  0  0  0  0  0  0  0
    0.9328   -1.2627   -1.7974 H   0  0  0  0  0  0  0  0  0  0  0  0
   -0.8314   -1.3653   -1.7633 H   0  0  0  0  0  0  0  0  0  0  0  0
   -0.0659   -0.1909   -3.3683 C   0  0  0  0  0  0  0  0  0  0  0  0
    0.8133    0.4043   -3.6143 H   0  0  0  0  0  0  0  0  0  0  0  0
   -0.1050   -1.0465   -4.0429 H   0  0  0  0  0  0  0  0  0  0  0  0
   -0.9644    0.4113   -3.5074 H   0  0  0  0  0  0  0  0  0  0  0  0
   -0.1466    0.9232    1.6622 C   0  0  0  0  0  0  0  0  0  0  0  0
   -1.0658    1.0725    2.4661 O   0  0  0  0  0  0  0  0  0  0  0  0
    0.9726    1.6567    1.7110 N   0  0  0  0  0  0  0  0  0  0  0  0
    1.6877    1.4701    1.0258 H   0  0  0  0  0  0  0  0  0  0  0  0
    1.2194    2.7094    2.6945 C   0  0  0  0  0  0  0  0  0  0  0  0
    1.0634    2.3167    3.7016 H   0  0  0  0  0  0  0  0  0  0  0  0
    2.2429    3.0768    2.6072 H   0  0  0  0  0  0  0  0  0  0  0  0
    0.5226    3.5341    2.5324 H   0  0  0  0  0  0  0  0  0  0  0  0
  5  6  2  0  0  0  0
  5  7  1  0  0  0  0
  2  3  1  0  0  0  0
  2  4  1  0  0  0  0
  2  5  1  0  0  0  0
  1  2  1  0  0  0  0
 24 25  2  0  0  0  0
 24 26  1  0  0  0  0
 20 21  1  0  0  0  0
 20 22  1  0  0  0  0
 20 23  1  0  0  0  0
 17 18  1  0  0  0  0
 17 19  1  0  0  0  0
 17 20  1  0  0  0  0
 13 14  1  0  0  0  0
 13 15  1  0  0  0  0
 13 16  1  0  0  0  0
 11 12  1  0  0  0  0
 11 13  1  0  0  0  0
 11 17  1  0  0  0  0
  9 10  1  0  0  0  0
  9 11  1  0  0  0  0
  9 24  1  0  0  0  0
  7  8  1  0  0  0  0
  7  9  1  0  0  0  0
 28 29  1  0  0  0  0
 28 30  1  0  0  0  0
 28 31  1  0  0  0  0
 26 27  1  0  0  0  0
 26 28  1  0  0  0  0
M  END
$$$$
default_name
  -OEChem-01062215323D

 31 30  0     1  0  0  0  0  0999 V2000
   -3.0760   -3.6390    1.5496 H   0  0  0  0  0  0  0  0  0  0  0  0
   -3.0940   -2.6290    1.1426 C   0  0  0  0  0  0  0  0  0  0  0  0
   -3.7160   -1.9930    1.7706 H   0  0  0  0  0  0  0  0  0  0  0  0
   -3.4880   -2.6500    0.1286 H   0  0  0  0  0  0  0  0  0  0  0  0
   -1.6860   -2.0850    1.1196 C   0  0  0  0  0  0  0  0  0  0  0  0
   -0.7540   -2.7700    1.5226 O   0  0  0  0  0  0  0  0  0  0  0  0
   -1.5320   -0.8490    0.6496 N   0  0  0  0  0  0  0  0  0  0  0  0
   -2.3500   -0.3360    0.3566 H   0  0  0  0  0  0  0  0  0  0  0  0
   -0.2470   -0.1410    0.5576 C   0  0  1  0  0  0  0  0  0  0  0  0
    0.5440   -0.8709    0.7329 H   0  0  0  0  0  0  0  0  0  0  0  0
   -0.0528    0.4375   -0.8672 C   0  0  1  0  0  0  0  0  0  0  0  0
   -0.9338    1.0418   -1.0918 H   0  0  0  0  0  0  0  0  0  0  0  0
    1.1818    1.3536   -0.9670 C   0  0  0  0  0  0  0  0  0  0  0  0
    2.0988    0.7791   -0.8245 H   0  0  0  0  0  0  0  0  0  0  0  0
    1.2144    1.8397   -1.9408 H   0  0  0  0  0  0  0  0  0  0  0  0
    1.1341    2.1341   -0.2068 H   0  0  0  0  0  0  0  0  0  0  0  0
    0.0113   -0.6919   -1.9197 C   0  0  0  0  0  0  0  0  0  0  0  0
    0.9328   -1.2627   -1.7974 H   0  0  0  0  0  0  0  0  0  0  0  0
   -0.8314   -1.3653   -1.7633 H   0  0  0  0  0  0  0  0  0  0  0  0
   -0.0659   -0.1909   -3.3683 C   0  0  0  0  0  0  0  0  0  0  0  0
    0.8133    0.4043   -3.6143 H   0  0  0  0  0  0  0  0  0  0  0  0
   -0.1050   -1.0465   -4.0429 H   0  0  0  0  0  0  0  0  0  0  0  0
   -0.9644    0.4113   -3.5074 H   0  0  0  0  0  0  0  0  0  0  0  0
   -0.1466    0.9232    1.6622 C   0  0  0  0  0  0  0  0  0  0  0  0
   -0.9168    0.8975    2.6211 O   0  0  0  0  0  0  0  0  0  0  0  0
    0.8081    1.8536    1.5363 N   0  0  0  0  0  0  0  0  0  0  0  0
    1.4095    1.8044    0.7291 H   0  0  0  0  0  0  0  0  0  0  0  0
    1.0302    2.9340    2.4954 C   0  0  0  0  0  0  0  0  0  0  0  0
    1.1340    2.5190    3.5004 H   0  0  0  0  0  0  0  0  0  0  0  0
    1.9354    3.4868    2.2403 H   0  0  0  0  0  0  0  0  0  0  0  0
    0.1756    3.6133    2.4877 H   0  0  0  0  0  0  0  0  0  0  0  0
  5  6  2  0  0  0  0
  5  7  1  0  0  0  0
  2  3  1  0  0  0  0
  2  4  1  0  0  0  0
  2  5  1  0  0  0  0
  1  2  1  0  0  0  0
 24 25  2  0  0  0  0
 24 26  1  0  0  0  0
 20 21  1  0  0  0  0
 20 22  1  0  0  0  0
 20 23  1  0  0  0  0
 17 18  1  0  0  0  0
 17 19  1  0  0  0  0
 17 20  1  0  0  0  0
 13 14  1  0  0  0  0
 13 15  1  0  0  0  0
 13 16  1  0  0  0  0
 11 12  1  0  0  0  0
 11 13  1  0  0  0  0
 11 17  1  0  0  0  0
  9 10  1  0  0  0  0
  9 11  1  0  0  0  0
  9 24  1  0  0  0  0
  7  8  1  0  0  0  0
  7  9  1  0  0  0  0
 28 29  1  0  0  0  0
 28 30  1  0  0  0  0
 28 31  1  0  0  0  0
 26 27  1  0  0  0  0
 26 28  1  0  0  0  0
M  END
$$$$
default_name
  -OEChem-01062215323D

 31 30  0     1  0  0  0  0  0999 V2000
   -3.0760   -3.6390    1.5496 H   0  0  0  0  0  0  0  0  0  0  0  0
   -3.0940   -2.6290    1.1426 C   0  0  0  0  0  0  0  0  0  0  0  0
   -3.7160   -1.9930    1.7706 H   0  0  0  0  0  0  0  0  0  0  0  0
   -3.4880   -2.6500    0.1286 H   0  0  0  0  0  0  0  0  0  0  0  0
   -1.6860   -2.0850    1.1196 C   0  0  0  0  0  0  0  0  0  0  0  0
   -0.7540   -2.7700    1.5226 O   0  0  0  0  0  0  0  0  0  0  0  0
   -1.5320   -0.8490    0.6496 N   0  0  0  0  0  0  0  0  0  0  0  0
   -2.3500   -0.3360    0.3566 H   0  0  0  0  0  0  0  0  0  0  0  0
   -0.2470   -0.1410    0.5576 C   0  0  1  0  0  0  0  0  0  0  0  0
    0.5440   -0.8709    0.7329 H   0  0  0  0  0  0  0  0  0  0  0  0
   -0.0528    0.4375   -0.8672 C   0  0  1  0  0  0  0  0  0  0  0  0
   -0.9338    1.0418   -1.0918 H   0  0  0  0  0  0  0  0  0  0  0  0
    1.1818    1.3536   -0.9670 C   0  0  0  0  0  0  0  0  0  0  0  0
    2.0988    0.7791   -0.8245 H   0  0  0  0  0  0  0  0  0  0  0  0
    1.2144    1.8397   -1.9408 H   0  0  0  0  0  0  0  0  0  0  0  0
    1.1341    2.1341   -0.2068 H   0  0  0  0  0  0  0  0  0  0  0  0
    0.0113   -0.6919   -1.9197 C   0  0  0  0  0  0  0  0  0  0  0  0
    0.9328   -1.2627   -1.7974 H   0  0  0  0  0  0  0  0  0  0  0  0
   -0.8314   -1.3653   -1.7633 H   0  0  0  0  0  0  0  0  0  0  0  0
   -0.0659   -0.1909   -3.3683 C   0  0  0  0  0  0  0  0  0  0  0  0
    0.8133    0.4043   -3.6143 H   0  0  0  0  0  0  0  0  0  0  0  0
   -0.1050   -1.0465   -4.0429 H   0  0  0  0  0  0  0  0  0  0  0  0
   -0.9644    0.4113   -3.5074 H   0  0  0  0  0  0  0  0  0  0  0  0
   -0.1466    0.9232    1.6622 C   0  0  0  0  0  0  0  0  0  0  0  0
   -0.7126    0.7535    2.7412 O   0  0  0  0  0  0  0  0  0  0  0  0
    0.5813    2.0162    1.4003 N   0  0  0  0  0  0  0  0  0  0  0  0
    1.0255    2.0806    0.4980 H   0  0  0  0  0  0  0  0  0  0  0  0
    0.7699    3.1190    2.3408 C   0  0  0  0  0  0  0  0  0  0  0  0
    1.1285    2.7309    3.2967 H   0  0  0  0  0  0  0  0  0  0  0  0
    1.4964    3.8318    1.9478 H   0  0  0  0  0  0  0  0  0  0  0  0
   -0.1823    3.6260    2.5079 H   0  0  0  0  0  0  0  0  0  0  0  0
  5  6  2  0  0  0  0
  5  7  1  0  0  0  0
  2  3  1  0  0  0  0
  2  4  1  0  0  0  0
  2  5  1  0  0  0  0
  1  2  1  0  0  0  0
 24 25  2  0  0  0  0
 24 26  1  0  0  0  0
 20 21  1  0  0  0  0
 20 22  1  0  0  0  0
 20 23  1  0  0  0  0
 17 18  1  0  0  0  0
 17 19  1  0  0  0  0
 17 20  1  0  0  0  0
 13 14  1  0  0  0  0
 13 15  1  0  0  0  0
 13 16  1  0  0  0  0
 11 12  1  0  0  0  0
 11 13  1  0  0  0  0
 11 17  1  0  0  0  0
  9 10  1  0  0  0  0
  9 11  1  0  0  0  0
  9 24  1  0  0  0  0
  7  8  1  0  0  0  0
  7  9  1  0  0  0  0
 28 29  1  0  0  0  0
 28 30  1  0  0  0  0
 28 31  1  0  0  0  0
 26 27  1  0  0  0  0
 26 28  1  0  0  0  0
M  END
$$$$
default_name
  -OEChem-01062215323D

 31 30  0     1  0  0  0  0  0999 V2000
   -3.0760   -3.6390    1.5496 H   0  0  0  0  0  0  0  0  0  0  0  0
   -3.0940   -2.6290    1.1426 C   0  0  0  0  0  0  0  0  0  0  0  0
   -3.7160   -1.9930    1.7706 H   0  0  0  0  0  0  0  0  0  0  0  0
   -3.4880   -2.6500    0.1286 H   0  0  0  0  0  0  0  0  0  0  0  0
   -1.6860   -2.0850    1.1196 C   0  0  0  0  0  0  0  0  0  0  0  0
   -0.7540   -2.7700    1.5226 O   0  0  0  0  0  0  0  0  0  0  0  0
   -1.5320   -0.8490    0.6496 N   0  0  0  0  0  0  0  0  0  0  0  0
   -2.3500   -0.3360    0.3566 H   0  0  0  0  0  0  0  0  0  0  0  0
   -0.2470   -0.1410    0.5576 C   0  0  1  0  0  0  0  0  0  0  0  0
    0.5440   -0.8709    0.7329 H   0  0  0  0  0  0  0  0  0  0  0  0
   -0.0528    0.4375   -0.8672 C   0  0  1  0  0  0  0  0  0  0  0  0
   -0.9338    1.0418   -1.0918 H   0  0  0  0  0  0  0  0  0  0  0  0
    1.1818    1.3536   -0.9670 C   0  0  0  0  0  0  0  0  0  0  0  0
    2.0988    0.7791   -0.8245 H   0  0  0  0  0  0  0  0  0  0  0  0
    1.2144    1.8397   -1.9408 H   0  0  0  0  0  0  0  0  0  0  0  0
    1.1341    2.1341   -0.2068 H   0  0  0  0  0  0  0  0  0  0  0  0
    0.0113   -0.6919   -1.9197 C   0  0  0  0  0  0  0  0  0  0  0  0
    0.9328   -1.2627   -1.7974 H   0  0  0  0  0  0  0  0  0  0  0  0
   -0.8314   -1.3653   -1.7633 H   0  0  0  0  0  0  0  0  0  0  0  0
   -0.0659   -0.1909   -3.3683 C   0  0  0  0  0  0  0  0  0  0  0  0
    0.8133    0.4043   -3.6143 H   0  0  0  0  0  0  0  0  0  0  0  0
   -0.1050   -1.0465   -4.0429 H   0  0  0  0  0  0  0  0  0  0  0  0
   -0.9644    0.4113   -3.5074 H   0  0  0  0  0  0  0  0  0  0  0  0
   -0.1466    0.9232    1.6622 C   0  0  0  0  0  0  0  0  0  0  0  0
   -0.4671    0.6504    2.8182 O   0  0  0  0  0  0  0  0  0  0  0  0
    0.3077    2.1333    1.3124 N   0  0  0  0  0  0  0  0  0  0  0  0
    0.5618    2.2798    0.3482 H   0  0  0  0  0  0  0  0  0  0  0  0
    0.4565    3.2520    2.2412 C   0  0  0  0  0  0  0  0  0  0  0  0
    1.0473    2.9380    3.1046 H   0  0  0  0  0  0  0  0  0  0  0  0
    0.9558    4.0883    1.7499 H   0  0  0  0  0  0  0  0  0  0  0  0
   -0.5268    3.5714    2.5919 H   0  0  0  0  0  0  0  0  0  0  0  0
  5  6  2  0  0  0  0
  5  7  1  0  0  0  0
  2  3  1  0  0  0  0
  2  4  1  0  0  0  0
  2  5  1  0  0  0  0
  1  2  1  0  0  0  0
 24 25  2  0  0  0  0
 24 26  1  0  0  0  0
 20 21  1  0  0  0  0
 20 22  1  0  0  0  0
 20 23  1  0  0  0  0
 17 18  1  0  0  0  0
 17 19  1  0  0  0  0
 17 20  1  0  0  0  0
 13 14  1  0  0  0  0
 13 15  1  0  0  0  0
 13 16  1  0  0  0  0
 11 12  1  0  0  0  0
 11 13  1  0  0  0  0
 11 17  1  0  0  0  0
  9 10  1  0  0  0  0
  9 11  1  0  0  0  0
  9 24  1  0  0  0  0
  7  8  1  0  0  0  0
  7  9  1  0  0  0  0
 28 29  1  0  0  0  0
 28 30  1  0  0  0  0
 28 31  1  0  0  0  0
 26 27  1  0  0  0  0
 26 28  1  0  0  0  0
M  END
$$$$
default_name
  -OEChem-01062215323D

 31 30  0     1  0  0  0  0  0999 V2000
   -3.0760   -3.6390    1.5496 H   0  0  0  0  0  0  0  0  0  0  0  0
   -3.0940   -2.6290    1.1426 C   0  0  0  0  0  0  0  0  0  0  0  0
   -3.7160   -1.9930    1.7706 H   0  0  0  0  0  0  0  0  0  0  0  0
   -3.4880   -2.6500    0.1286 H   0  0  0  0  0  0  0  0  0  0  0  0
   -1.6860   -2.0850    1.1196 C   0  0  0  0  0  0  0  0  0  0  0  0
   -0.7540   -2.7700    1.5226 O   0  0  0  0  0  0  0  0  0  0  0  0
   -1.5320   -0.8490    0.6496 N   0  0  0  0  0  0  0  0  0  0  0  0
   -2.3500   -0.3360    0.3566 H   0  0  0  0  0  0  0  0  0  0  0  0
   -0.2470   -0.1410    0.5576 C   0  0  1  0  0  0  0  0  0  0  0  0
    0.5440   -0.8709    0.7329 H   0  0  0  0  0  0  0  0  0  0  0  0
   -0.0528    0.4375   -0.8672 C   0  0  1  0  0  0  0  0  0  0  0  0
   -0.9338    1.0418   -1.0918 H   0  0  0  0  0  0  0  0  0  0  0  0
    1.1818    1.3536   -0.9670 C   0  0  0  0  0  0  0  0  0  0  0  0
    2.0988    0.7791   -0.8245 H   0  0  0  0  0  0  0  0  0  0  0  0
    1.2144    1.8397   -1.9408 H   0  0  0  0  0  0  0  0  0  0  0  0
    1.1341    2.1341   -0.2068 H   0  0  0  0  0  0  0  0  0  0  0  0
    0.0113   -0.6919   -1.9197 C   0  0  0  0  0  0  0  0  0  0  0  0
    0.9328   -1.2627   -1.7974 H   0  0  0  0  0  0  0  0  0  0  0  0
   -0.8314   -1.3653   -1.7633 H   0  0  0  0  0  0  0  0  0  0  0  0
   -0.0659   -0.1909   -3.3683 C   0  0  0  0  0  0  0  0  0  0  0  0
    0.8133    0.4043   -3.6143 H   0  0  0  0  0  0  0  0  0  0  0  0
   -0.1050   -1.0465   -4.0429 H   0  0  0  0  0  0  0  0  0  0  0  0
   -0.9644    0.4113   -3.5074 H   0  0  0  0  0  0  0  0  0  0  0  0
   -0.1466    0.9232    1.6622 C   0  0  0  0  0  0  0  0  0  0  0  0
   -0.1969    0.5952    2.8468 O   0  0  0  0  0  0  0  0  0  0  0  0
    0.0058    2.1970    1.2784 N   0  0  0  0  0  0  0  0  0  0  0  0
    0.0499    2.3885    0.2900 H   0  0  0  0  0  0  0  0  0  0  0  0
    0.1111    3.3238    2.2034 C   0  0  0  0  0  0  0  0  0  0  0  0
    0.8958    3.1262    2.9370 H   0  0  0  0  0  0  0  0  0  0  0  0
    0.3504    4.2389    1.6598 H   0  0  0  0  0  0  0  0  0  0  0  0
   -0.8343    3.4532    2.7337 H   0  0  0  0  0  0  0  0  0  0  0  0
  5  6  2  0  0  0  0
  5  7  1  0  0  0  0
  2  3  1  0  0  0  0
  2  4  1  0  0  0  0
  2  5  1  0  0  0  0
  1  2  1  0  0  0  0
 24 25  2  0  0  0  0
 24 26  1  0  0  0  0
 20 21  1  0  0  0  0
 20 22  1  0  0  0  0
 20 23  1  0  0  0  0
 17 18  1  0  0  0  0
 17 19  1  0  0  0  0
 17 20  1  0  0  0  0
 13 14  1  0  0  0  0
 13 15  1  0  0  0  0
 13 16  1  0  0  0  0
 11 12  1  0  0  0  0
 11 13  1  0  0  0  0
 11 17  1  0  0  0  0
  9 10  1  0  0  0  0
  9 11  1  0  0  0  0
  9 24  1  0  0  0  0
  7  8  1  0  0  0  0
  7  9  1  0  0  0  0
 28 29  1  0  0  0  0
 28 30  1  0  0  0  0
 28 31  1  0  0  0  0
 26 27  1  0  0  0  0
 26 28  1  0  0  0  0
M  END
$$$$
default_name
  -OEChem-01062215323D

 31 30  0     1  0  0  0  0  0999 V2000
   -3.0760   -3.6390    1.5496 H   0  0  0  0  0  0  0  0  0  0  0  0
   -3.0940   -2.6290    1.1426 C   0  0  0  0  0  0  0  0  0  0  0  0
   -3.7160   -1.9930    1.7706 H   0  0  0  0  0  0  0  0  0  0  0  0
   -3.4880   -2.6500    0.1286 H   0  0  0  0  0  0  0  0  0  0  0  0
   -1.6860   -2.0850    1.1196 C   0  0  0  0  0  0  0  0  0  0  0  0
   -0.7540   -2.7700    1.5226 O   0  0  0  0  0  0  0  0  0  0  0  0
   -1.5320   -0.8490    0.6496 N   0  0  0  0  0  0  0  0  0  0  0  0
   -2.3500   -0.3360    0.3566 H   0  0  0  0  0  0  0  0  0  0  0  0
   -0.2470   -0.1410    0.5576 C   0  0  1  0  0  0  0  0  0  0  0  0
    0.5440   -0.8709    0.7329 H   0  0  0  0  0  0  0  0  0  0  0  0
   -0.0528    0.4375   -0.8672 C   0  0  1  0  0  0  0  0  0  0  0  0
   -0.9338    1.0418   -1.0918 H   0  0  0  0  0  0  0  0  0  0  0  0
    1.1818    1.3536   -0.9670 C   0  0  0  0  0  0  0  0  0  0  0  0
    2.0988    0.7791   -0.8245 H   0  0  0  0  0  0  0  0  0  0  0  0
    1.2144    1.8397   -1.9408 H   0  0  0  0  0  0  0  0  0  0  0  0
    1.1341    2.1341   -0.2068 H   0  0  0  0  0  0  0  0  0  0  0  0
    0.0113   -0.6919   -1.9197 C   0  0  0  0  0  0  0  0  0  0  0  0
    0.9328   -1.2627   -1.7974 H   0  0  0  0  0  0  0  0  0  0  0  0
   -0.8314   -1.3653   -1.7633 H   0  0  0  0  0  0  0  0  0  0  0  0
   -0.0659   -0.1909   -3.3683 C   0  0  0  0  0  0  0  0  0  0  0  0
    0.8133    0.4043   -3.6143 H   0  0  0  0  0  0  0  0  0  0  0  0
   -0.1050   -1.0465   -4.0429 H   0  0  0  0  0  0  0  0  0  0  0  0
   -0.9644    0.4113   -3.5074 H   0  0  0  0  0  0  0  0  0  0  0  0
   -0.1466    0.9232    1.6622 C   0  0  0  0  0  0  0  0  0  0  0  0
    0.0795    0.5917    2.8251 O   0  0  0  0  0  0  0  0  0  0  0  0
   -0.3037    2.2030    1.3008 N   0  0  0  0  0  0  0  0  0  0  0  0
   -0.4751    2.3993    0.3274 H   0  0  0  0  0  0  0  0  0  0  0  0
   -0.2426    3.3295    2.2300 C   0  0  0  0  0  0  0  0  0  0  0  0
    0.6846    3.2827    2.8055 H   0  0  0  0  0  0  0  0  0  0  0  0
   -0.2785    4.2733    1.6839 H   0  0  0  0  0  0  0  0  0  0  0  0
   -1.0839    3.2794    2.9239 H   0  0  0  0  0  0  0  0  0  0  0  0
  5  6  2  0  0  0  0
  5  7  1  0  0  0  0
  2  3  1  0  0  0  0
  2  4  1  0  0  0  0
  2  5  1  0  0  0  0
  1  2  1  0  0  0  0
 24 25  2  0  0  0  0
 24 26  1  0  0  0  0
 20 21  1  0  0  0  0
 20 22  1  0  0  0  0
 20 23  1  0  0  0  0
 17 18  1  0  0  0  0
 17 19  1  0  0  0  0
 17 20  1  0  0  0  0
 13 14  1  0  0  0  0
 13 15  1  0  0  0  0
 13 16  1  0  0  0  0
 11 12  1  0  0  0  0
 11 13  1  0  0  0  0
 11 17  1  0  0  0  0
  9 10  1  0  0  0  0
  9 11  1  0  0  0  0
  9 24  1  0  0  0  0
  7  8  1  0  0  0  0
  7  9  1  0  0  0  0
 28 29  1  0  0  0  0
 28 30  1  0  0  0  0
 28 31  1  0  0  0  0
 26 27  1  0  0  0  0
 26 28  1  0  0  0  0
M  END
$$$$
default_name
  -OEChem-01062215323D

 31 30  0     1  0  0  0  0  0999 V2000
   -3.0760   -3.6390    1.5496 H   0  0  0  0  0  0  0  0  0  0  0  0
   -3.0940   -2.6290    1.1426 C   0  0  0  0  0  0  0  0  0  0  0  0
   -3.7160   -1.9930    1.7706 H   0  0  0  0  0  0  0  0  0  0  0  0
   -3.4880   -2.6500    0.1286 H   0  0  0  0  0  0  0  0  0  0  0  0
   -1.6860   -2.0850    1.1196 C   0  0  0  0  0  0  0  0  0  0  0  0
   -0.7540   -2.7700    1.5226 O   0  0  0  0  0  0  0  0  0  0  0  0
   -1.5320   -0.8490    0.6496 N   0  0  0  0  0  0  0  0  0  0  0  0
   -2.3500   -0.3360    0.3566 H   0  0  0  0  0  0  0  0  0  0  0  0
   -0.2470   -0.1410    0.5576 C   0  0  1  0  0  0  0  0  0  0  0  0
    0.5440   -0.8709    0.7329 H   0  0  0  0  0  0  0  0  0  0  0  0
   -0.0528    0.4375   -0.8672 C   0  0  1  0  0  0  0  0  0  0  0  0
   -0.9338    1.0418   -1.0918 H   0  0  0  0  0  0  0  0  0  0  0  0
    1.1818    1.3536   -0.9670 C   0  0  0  0  0  0  0  0  0  0  0  0
    2.0988    0.7791   -0.8245 H   0  0  0  0  0  0  0  0  0  0  0  0
    1.2144    1.8397   -1.9408 H   0  0  0  0  0  0  0  0  0  0  0  0
    1.1341    2.1341   -0.2068 H   0  0  0  0  0  0  0  0  0  0  0  0
    0.0113   -0.6919   -1.9197 C   0  0  0  0  0  0  0  0  0  0  0  0
    0.9328   -1.2627   -1.7974 H   0  0  0  0  0  0  0  0  0  0  0  0
   -0.8314   -1.3653   -1.7633 H   0  0  0  0  0  0  0  0  0  0  0  0
   -0.0659   -0.1909   -3.3683 C   0  0  0  0  0  0  0  0  0  0  0  0
    0.8133    0.4043   -3.6143 H   0  0  0  0  0  0  0  0  0  0  0  0
   -0.1050   -1.0465   -4.0429 H   0  0  0  0  0  0  0  0  0  0  0  0
   -0.9644    0.4113   -3.5074 H   0  0  0  0  0  0  0  0  0  0  0  0
   -0.1466    0.9232    1.6622 C   0  0  0  0  0  0  0  0  0  0  0  0
    0.3432    0.6400    2.7546 O   0  0  0  0  0  0  0  0  0  0  0  0
   -0.5998    2.1508    1.3780 N   0  0  0  0  0  0  0  0  0  0  0  0
   -0.9776    2.3115    0.4577 H   0  0  0  0  0  0  0  0  0  0  0  0
   -0.5806    3.2688    2.3192 C   0  0  0  0  0  0  0  0  0  0  0  0
    0.4278    3.3967    2.7190 H   0  0  0  0  0  0  0  0  0  0  0  0
   -0.8881    4.1891    1.8204 H   0  0  0  0  0  0  0  0  0  0  0  0
   -1.2587    3.0618    3.1493 H   0  0  0  0  0  0  0  0  0  0  0  0
  5  6  2  0  0  0  0
  5  7  1  0  0  0  0
  2  3  1  0  0  0  0
  2  4  1  0  0  0  0
  2  5  1  0  0  0  0
  1  2  1  0  0  0  0
 24 25  2  0  0  0  0
 24 26  1  0  0  0  0
 20 21  1  0  0  0  0
 20 22  1  0  0  0  0
 20 23  1  0  0  0  0
 17 18  1  0  0  0  0
 17 19  1  0  0  0  0
 17 20  1  0  0  0  0
 13 14  1  0  0  0  0
 13 15  1  0  0  0  0
 13 16  1  0  0  0  0
 11 12  1  0  0  0  0
 11 13  1  0  0  0  0
 11 17  1  0  0  0  0
  9 10  1  0  0  0  0
  9 11  1  0  0  0  0
  9 24  1  0  0  0  0
  7  8  1  0  0  0  0
  7  9  1  0  0  0  0
 28 29  1  0  0  0  0
 28 30  1  0  0  0  0
 28 31  1  0  0  0  0
 26 27  1  0  0  0  0
 26 28  1  0  0  0  0
M  END
$$$$
default_name
  -OEChem-01062215323D

 31 30  0     1  0  0  0  0  0999 V2000
   -3.0760   -3.6390    1.5496 H   0  0  0  0  0  0  0  0  0  0  0  0
   -3.0940   -2.6290    1.1426 C   0  0  0  0  0  0  0  0  0  0  0  0
   -3.7160   -1.9930    1.7706 H   0  0  0  0  0  0  0  0  0  0  0  0
   -3.4880   -2.6500    0.1286 H   0  0  0  0  0  0  0  0  0  0  0  0
   -1.6860   -2.0850    1.1196 C   0  0  0  0  0  0  0  0  0  0  0  0
   -0.7540   -2.7700    1.5226 O   0  0  0  0  0  0  0  0  0  0  0  0
   -1.5320   -0.8490    0.6496 N   0  0  0  0  0  0  0  0  0  0  0  0
   -2.3500   -0.3360    0.3566 H   0  0  0  0  0  0  0  0  0  0  0  0
   -0.2470   -0.1410    0.5576 C   0  0  1  0  0  0  0  0  0  0  0  0
    0.5440   -0.8709    0.7329 H   0  0  0  0  0  0  0  0  0  0  0  0
   -0.0528    0.4375   -0.8672 C   0  0  1  0  0  0  0  0  0  0  0  0
   -0.9338    1.0418   -1.0918 H   0  0  0  0  0  0  0  0  0  0  0  0
    1.1818    1.3536   -0.9670 C   0  0  0  0  0  0  0  0  0  0  0  0
    2.0988    0.7791   -0.8245 H   0  0  0  0  0  0  0  0  0  0  0  0
    1.2144    1.8397   -1.9408 H   0  0  0  0  0  0  0  0  0  0  0  0
    1.1341    2.1341   -0.2068 H   0  0  0  0  0  0  0  0  0  0  0  0
    0.0113   -0.6919   -1.9197 C   0  0  0  0  0  0  0  0  0  0  0  0
    0.9328   -1.2627   -1.7974 H   0  0  0  0  0  0  0  0  0  0  0  0
   -0.8314   -1.3653   -1.7633 H   0  0  0  0  0  0  0  0  0  0  0  0
   -0.0659   -0.1909   -3.3683 C   0  0  0  0  0  0  0  0  0  0  0  0
    0.8133    0.4043   -3.6143 H   0  0  0  0  0  0  0  0  0  0  0  0
   -0.1050   -1.0465   -4.0429 H   0  0  0  0  0  0  0  0  0  0  0  0
   -0.9644    0.4113   -3.5074 H   0  0  0  0  0  0  0  0  0  0  0  0
   -0.1466    0.9232    1.6622 C   0  0  0  0  0  0  0  0  0  0  0  0
    0.5763    0.7369    2.6400 O   0  0  0  0  0  0  0  0  0  0  0  0
   -0.8622    2.0440    1.5048 N   0  0  0  0  0  0  0  0  0  0  0  0
   -1.4232    2.1310    0.6721 H   0  0  0  0  0  0  0  0  0  0  0  0
   -0.8797    3.1459    2.4649 C   0  0  0  0  0  0  0  0  0  0  0  0
    0.1431    3.4606    2.6833 H   0  0  0  0  0  0  0  0  0  0  0  0
   -1.4368    3.9921    2.0601 H   0  0  0  0  0  0  0  0  0  0  0  0
   -1.3466    2.8154    3.3947 H   0  0  0  0  0  0  0  0  0  0  0  0
  5  6  2  0  0  0  0
  5  7  1  0  0  0  0
  2  3  1  0  0  0  0
  2  4  1  0  0  0  0
  2  5  1  0  0  0  0
  1  2  1  0  0  0  0
 24 25  2  0  0  0  0
 24 26  1  0  0  0  0
 20 21  1  0  0  0  0
 20 22  1  0  0  0  0
 20 23  1  0  0  0  0
 17 18  1  0  0  0  0
 17 19  1  0  0  0  0
 17 20  1  0  0  0  0
 13 14  1  0  0  0  0
 13 15  1  0  0  0  0
 13 16  1  0  0  0  0
 11 12  1  0  0  0  0
 11 13  1  0  0  0  0
 11 17  1  0  0  0  0
  9 10  1  0  0  0  0
  9 11  1  0  0  0  0
  9 24  1  0  0  0  0
  7  8  1  0  0  0  0
  7  9  1  0  0  0  0
 28 29  1  0  0  0  0
 28 30  1  0  0  0  0
 28 31  1  0  0  0  0
 26 27  1  0  0  0  0
 26 28  1  0  0  0  0
M  END
$$$$
default_name
  -OEChem-01062215323D

 31 30  0     1  0  0  0  0  0999 V2000
   -3.0760   -3.6390    1.5496 H   0  0  0  0  0  0  0  0  0  0  0  0
   -3.0940   -2.6290    1.1426 C   0  0  0  0  0  0  0  0  0  0  0  0
   -3.7160   -1.9930    1.7706 H   0  0  0  0  0  0  0  0  0  0  0  0
   -3.4880   -2.6500    0.1286 H   0  0  0  0  0  0  0  0  0  0  0  0
   -1.6860   -2.0850    1.1196 C   0  0  0  0  0  0  0  0  0  0  0  0
   -0.7540   -2.7700    1.5226 O   0  0  0  0  0  0  0  0  0  0  0  0
   -1.5320   -0.8490    0.6496 N   0  0  0  0  0  0  0  0  0  0  0  0
   -2.3500   -0.3360    0.3566 H   0  0  0  0  0  0  0  0  0  0  0  0
   -0.2470   -0.1410    0.5576 C   0  0  1  0  0  0  0  0  0  0  0  0
    0.5440   -0.8709    0.7329 H   0  0  0  0  0  0  0  0  0  0  0  0
   -0.0528    0.4375   -0.8672 C   0  0  1  0  0  0  0  0  0  0  0  0
   -0.9338    1.0418   -1.0918 H   0  0  0  0  0  0  0  0  0  0  0  0
    1.1818    1.3536   -0.9670 C   0  0  0  0  0  0  0  0  0  0  0  0
    2.0988    0.7791   -0.8245 H   0  0  0  0  0  0  0  0  0  0  0  0
    1.2144    1.8397   -1.9408 H   0  0  0  0  0  0  0  0  0  0  0  0
    1.1341    2.1341   -0.2068 H   0  0  0  0  0  0  0  0  0  0  0  0
    0.0113   -0.6919   -1.9197 C   0  0  0  0  0  0  0  0  0  0  0  0
    0.9328   -1.2627   -1.7974 H   0  0  0  0  0  0  0  0  0  0  0  0
   -0.8314   -1.3653   -1.7633 H   0  0  0  0  0  0  0  0  0  0  0  0
   -0.0659   -0.1909   -3.3683 C   0  0  0  0  0  0  0  0  0  0  0  0
    0.8133    0.4043   -3.6143 H   0  0  0  0  0  0  0  0  0  0  0  0
   -0.1050   -1.0465   -4.0429 H   0  0  0  0  0  0  0  0  0  0  0  0
   -0.9644    0.4113   -3.5074 H   0  0  0  0  0  0  0  0  0  0  0  0
   -0.1466    0.9232    1.6622 C   0  0  0  0  0  0  0  0  0  0  0  0
    0.7629    0.8758    2.4893 O   0  0  0  0  0  0  0  0  0  0  0  0
   -1.0732    1.8899    1.6724 N   0  0  0  0  0  0  0  0  0  0  0  0
   -1.7817    1.8701    0.9560 H   0  0  0  0  0  0  0  0  0  0  0  0
   -1.1198    2.9690    2.6571 C   0  0  0  0  0  0  0  0  0  0  0  0
   -0.1502    3.4700    2.7010 H   0  0  0  0  0  0  0  0  0  0  0  0
   -1.8871    3.6957    2.3866 H   0  0  0  0  0  0  0  0  0  0  0  0
   -1.3417    2.5568    3.6434 H   0  0  0  0  0  0  0  0  0  0  0  0
  5  6  2  0  0  0  0
  5  7  1  0  0  0  0
  2  3  1  0  0  0  0
  2  4  1  0  0  0  0
  2  5  1  0  0  0  0
  1  2  1  0  0  0  0
 24 25  2  0  0  0  0
 24 26  1  0  0  0  0
 20 21  1  0  0  0  0
 20 22  1  0  0  0  0
 20 23  1  0  0  0  0
 17 18  1  0  0  0  0
 17 19  1  0  0  0  0
 17 20  1  0  0  0  0
 13 14  1  0  0  0  0
 13 15  1  0  0  0  0
 13 16  1  0  0  0  0
 11 12  1  0  0  0  0
 11 13  1  0  0  0  0
 11 17  1  0  0  0  0
  9 10  1  0  0  0  0
  9 11  1  0  0  0  0
  9 24  1  0  0  0  0
  7  8  1  0  0  0  0
  7  9  1  0  0  0  0
 28 29  1  0  0  0  0
 28 30  1  0  0  0  0
 28 31  1  0  0  0  0
 26 27  1  0  0  0  0
 26 28  1  0  0  0  0
M  END
$$$$
default_name
  -OEChem-01062215323D

 31 30  0     1  0  0  0  0  0999 V2000
   -3.0760   -3.6390    1.5496 H   0  0  0  0  0  0  0  0  0  0  0  0
   -3.0940   -2.6290    1.1426 C   0  0  0  0  0  0  0  0  0  0  0  0
   -3.7160   -1.9930    1.7706 H   0  0  0  0  0  0  0  0  0  0  0  0
   -3.4880   -2.6500    0.1286 H   0  0  0  0  0  0  0  0  0  0  0  0
   -1.6860   -2.0850    1.1196 C   0  0  0  0  0  0  0  0  0  0  0  0
   -0.7540   -2.7700    1.5226 O   0  0  0  0  0  0  0  0  0  0  0  0
   -1.5320   -0.8490    0.6496 N   0  0  0  0  0  0  0  0  0  0  0  0
   -2.3500   -0.3360    0.3566 H   0  0  0  0  0  0  0  0  0  0  0  0
   -0.2470   -0.1410    0.5576 C   0  0  1  0  0  0  0  0  0  0  0  0
    0.5440   -0.8709    0.7329 H   0  0  0  0  0  0  0  0  0  0  0  0
   -0.0528    0.4375   -0.8672 C   0  0  1  0  0  0  0  0  0  0  0  0
   -0.9338    1.0418   -1.0918 H   0  0  0  0  0  0  0  0  0  0  0  0
    1.1818    1.3536   -0.9670 C   0  0  0  0  0  0  0  0  0  0  0  0
    2.0988    0.7791   -0.8245 H   0  0  0  0  0  0  0  0  0  0  0  0
    1.2144    1.8397   -1.9408 H   0  0  0  0  0  0  0  0  0  0  0  0
    1.1341    2.1341   -0.2068 H   0  0  0  0  0  0  0  0  0  0  0  0
    0.0113   -0.6919   -1.9197 C   0  0  0  0  0  0  0  0  0  0  0  0
    0.9328   -1.2627   -1.7974 H   0  0  0  0  0  0  0  0  0  0  0  0
   -0.8314   -1.3653   -1.7633 H   0  0  0  0  0  0  0  0  0  0  0  0
   -0.0659   -0.1909   -3.3683 C   0  0  0  0  0  0  0  0  0  0  0  0
    0.8133    0.4043   -3.6143 H   0  0  0  0  0  0  0  0  0  0  0  0
   -0.1050   -1.0465   -4.0429 H   0  0  0  0  0  0  0  0  0  0  0  0
   -0.9644    0.4113   -3.5074 H   0  0  0  0  0  0  0  0  0  0  0  0
   -0.1466    0.9232    1.6622 C   0  0  0  0  0  0  0  0  0  0  0  0
    0.8903    1.0472    2.3125 O   0  0  0  0  0  0  0  0  0  0  0  0
   -1.2182    1.6990    1.8695 N   0  0  0  0  0  0  0  0  0  0  0  0
   -2.0285    1.5466    1.2901 H   0  0  0  0  0  0  0  0  0  0  0  0
   -1.2842    2.7502    2.8828 C   0  0  0  0  0  0  0  0  0  0  0  0
   -0.4320    3.4241    2.7708 H   0  0  0  0  0  0  0  0  0  0  0  0
   -2.2086    3.3201    2.7776 H   0  0  0  0  0  0  0  0  0  0  0  0
   -1.2443    2.3038    3.8783 H   0  0  0  0  0  0  0  0  0  0  0  0
  5  6  2  0  0  0  0
  5  7  1  0  0  0  0
  2  3  1  0  0  0  0
  2  4  1  0  0  0  0
  2  5  1  0  0  0  0
  1  2  1  0  0  0  0
 24 25  2  0  0  0  0
 24 26  1  0  0  0  0
 20 21  1  0  0  0  0
 20 22  1  0  0  0  0
 20 23  1  0  0  0  0
 17 18  1  0  0  0  0
 17 19  1  0  0  0  0
 17 20  1  0  0  0  0
 13 14  1  0  0  0  0
 13 15  1  0  0  0  0
 13 16  1  0  0  0  0
 11 12  1  0  0  0  0
 11 13  1  0  0  0  0
 11 17  1  0  0  0  0
  9 10  1  0  0  0  0
  9 11  1  0  0  0  0
  9 24  1  0  0  0  0
  7  8  1  0  0  0  0
  7  9  1  0  0  0  0
 28 29  1  0  0  0  0
 28 30  1  0  0  0  0
 28 31  1  0  0  0  0
 26 27  1  0  0  0  0
 26 28  1  0  0  0  0
M  END
$$$$
default_name
  -OEChem-01062215323D

 31 30  0     1  0  0  0  0  0999 V2000
   -3.0760   -3.6390    1.5496 H   0  0  0  0  0  0  0  0  0  0  0  0
   -3.0940   -2.6290    1.1426 C   0  0  0  0  0  0  0  0  0  0  0  0
   -3.7160   -1.9930    1.7706 H   0  0  0  0  0  0  0  0  0  0  0  0
   -3.4880   -2.6500    0.1286 H   0  0  0  0  0  0  0  0  0  0  0  0
   -1.6860   -2.0850    1.1196 C   0  0  0  0  0  0  0  0  0  0  0  0
   -0.7540   -2.7700    1.5226 O   0  0  0  0  0  0  0  0  0  0  0  0
   -1.5320   -0.8490    0.6496 N   0  0  0  0  0  0  0  0  0  0  0  0
   -2.3500   -0.3360    0.3566 H   0  0  0  0  0  0  0  0  0  0  0  0
   -0.2470   -0.1410    0.5576 C   0  0  1  0  0  0  0  0  0  0  0  0
    0.5440   -0.8709    0.7329 H   0  0  0  0  0  0  0  0  0  0  0  0
   -0.0528    0.4375   -0.8672 C   0  0  1  0  0  0  0  0  0  0  0  0
   -0.9338    1.0418   -1.0918 H   0  0  0  0  0  0  0  0  0  0  0  0
    1.1818    1.3536   -0.9670 C   0  0  0  0  0  0  0  0  0  0  0  0
    2.0988    0.7791   -0.8245 H   0  0  0  0  0  0  0  0  0  0  0  0
    1.2144    1.8397   -1.9408 H   0  0  0  0  0  0  0  0  0  0  0  0
    1.1341    2.1341   -0.2068 H   0  0  0  0  0  0  0  0  0  0  0  0
    0.0113   -0.6919   -1.9197 C   0  0  0  0  0  0  0  0  0  0  0  0
    0.9328   -1.2627   -1.7974 H   0  0  0  0  0  0  0  0  0  0  0  0
   -0.8314   -1.3653   -1.7633 H   0  0  0  0  0  0  0  0  0  0  0  0
   -0.0659   -0.1909   -3.3683 C   0  0  0  0  0  0  0  0  0  0  0  0
    0.8133    0.4043   -3.6143 H   0  0  0  0  0  0  0  0  0  0  0  0
   -0.1050   -1.0465   -4.0429 H   0  0  0  0  0  0  0  0  0  0  0  0
   -0.9644    0.4113   -3.5074 H   0  0  0  0  0  0  0  0  0  0  0  0
   -0.1466    0.9232    1.6622 C   0  0  0  0  0  0  0  0  0  0  0  0
    0.9497    1.2395    2.1219 O   0  0  0  0  0  0  0  0  0  0  0  0
   -1.2875    1.4842    2.0827 N   0  0  0  0  0  0  0  0  0  0  0  0
   -2.1470    1.1826    1.6515 H   0  0  0  0  0  0  0  0  0  0  0  0
   -1.3620    2.5045    3.1266 C   0  0  0  0  0  0  0  0  0  0  0  0
   -0.6833    3.3263    2.8879 H   0  0  0  0  0  0  0  0  0  0  0  0
   -2.3791    2.8909    3.2066 H   0  0  0  0  0  0  0  0  0  0  0  0
   -1.0611    2.0735    4.0835 H   0  0  0  0  0  0  0  0  0  0  0  0
  5  6  2  0  0  0  0
  5  7  1  0  0  0  0
  2  3  1  0  0  0  0
  2  4  1  0  0  0  0
  2  5  1  0  0  0  0
  1  2  1  0  0  0  0
 24 25  2  0  0  0  0
 24 26  1  0  0  0  0
 20 21  1  0  0  0  0
 20 22  1  0  0  0  0
 20 23  1  0  0  0  0
 17 18  1  0  0  0  0
 17 19  1  0  0  0  0
 17 20  1  0  0  0  0
 13 14  1  0  0  0  0
 13 15  1  0  0  0  0
 13 16  1  0  0  0  0
 11 12  1  0  0  0  0
 11 13  1  0  0  0  0
 11 17  1  0  0  0  0
  9 10  1  0  0  0  0
  9 11  1  0  0  0  0
  9 24  1  0  0  0  0
  7  8  1  0  0  0  0
  7  9  1  0  0  0  0
 28 29  1  0  0  0  0
 28 30  1  0  0  0  0
 28 31  1  0  0  0  0
 26 27  1  0  0  0  0
 26 28  1  0  0  0  0
M  END
$$$$
default_name
  -OEChem-01062215323D

 31 30  0     1  0  0  0  0  0999 V2000
   -3.0760   -3.6390    1.5496 H   0  0  0  0  0  0  0  0  0  0  0  0
   -3.0940   -2.6290    1.1426 C   0  0  0  0  0  0  0  0  0  0  0  0
   -3.7160   -1.9930    1.7706 H   0  0  0  0  0  0  0  0  0  0  0  0
   -3.4880   -2.6500    0.1286 H   0  0  0  0  0  0  0  0  0  0  0  0
   -1.6860   -2.0850    1.1196 C   0  0  0  0  0  0  0  0  0  0  0  0
   -0.7540   -2.7700    1.5226 O   0  0  0  0  0  0  0  0  0  0  0  0
   -1.5320   -0.8490    0.6496 N   0  0  0  0  0  0  0  0  0  0  0  0
   -2.3500   -0.3360    0.3566 H   0  0  0  0  0  0  0  0  0  0  0  0
   -0.2470   -0.1410    0.5576 C   0  0  1  0  0  0  0  0  0  0  0  0
    0.5440   -0.8709    0.7329 H   0  0  0  0  0  0  0  0  0  0  0  0
   -0.0528    0.4375   -0.8672 C   0  0  1  0  0  0  0  0  0  0  0  0
   -0.9338    1.0418   -1.0918 H   0  0  0  0  0  0  0  0  0  0  0  0
    1.1818    1.3536   -0.9670 C   0  0  0  0  0  0  0  0  0  0  0  0
    2.0988    0.7791   -0.8245 H   0  0  0  0  0  0  0  0  0  0  0  0
    1.2144    1.8397   -1.9408 H   0  0  0  0  0  0  0  0  0  0  0  0
    1.1341    2.1341   -0.2068 H   0  0  0  0  0  0  0  0  0  0  0  0
    0.0113   -0.6919   -1.9197 C   0  0  0  0  0  0  0  0  0  0  0  0
    0.9328   -1.2627   -1.7974 H   0  0  0  0  0  0  0  0  0  0  0  0
   -0.8314   -1.3653   -1.7633 H   0  0  0  0  0  0  0  0  0  0  0  0
   -0.0659   -0.1909   -3.3683 C   0  0  0  0  0  0  0  0  0  0  0  0
    0.8133    0.4043   -3.6143 H   0  0  0  0  0  0  0  0  0  0  0  0
   -0.1050   -1.0465   -4.0429 H   0  0  0  0  0  0  0  0  0  0  0  0
   -0.9644    0.4113   -3.5074 H   0  0  0  0  0  0  0  0  0  0  0  0
   -0.1466    0.9232    1.6622 C   0  0  0  0  0  0  0  0  0  0  0  0
    0.9373    1.4395    1.9303 O   0  0  0  0  0  0  0  0  0  0  0  0
   -1.2762    1.2603    2.2973 N   0  0  0  0  0  0  0  0  0  0  0  0
   -2.1289    0.8028    2.0157 H   0  0  0  0  0  0  0  0  0  0  0  0
   -1.3477    2.2485    3.3719 C   0  0  0  0  0  0  0  0  0  0  0  0
   -0.8868    3.1830    3.0444 H   0  0  0  0  0  0  0  0  0  0  0  0
   -2.3871    2.4374    3.6442 H   0  0  0  0  0  0  0  0  0  0  0  0
   -0.8046    1.8817    4.2449 H   0  0  0  0  0  0  0  0  0  0  0  0
  5  6  2  0  0  0  0
  5  7  1  0  0  0  0
  2  3  1  0  0  0  0
  2  4  1  0  0  0  0
  2  5  1  0  0  0  0
  1  2  1  0  0  0  0
 24 25  2  0  0  0  0
 24 26  1  0  0  0  0
 20 21  1  0  0  0  0
 20 22  1  0  0  0  0
 20 23  1  0  0  0  0
 17 18  1  0  0  0  0
 17 19  1  0  0  0  0
 17 20  1  0  0  0  0
 13 14  1  0  0  0  0
 13 15  1  0  0  0  0
 13 16  1  0  0  0  0
 11 12  1  0  0  0  0
 11 13  1  0  0  0  0
 11 17  1  0  0  0  0
  9 10  1  0  0  0  0
  9 11  1  0  0  0  0
  9 24  1  0  0  0  0
  7  8  1  0  0  0  0
  7  9  1  0  0  0  0
 28 29  1  0  0  0  0
 28 30  1  0  0  0  0
 28 31  1  0  0  0  0
 26 27  1  0  0  0  0
 26 28  1  0  0  0  0
M  END
$$$$
default_name
  -OEChem-01062215323D

 31 30  0     1  0  0  0  0  0999 V2000
   -3.0760   -3.6390    1.5496 H   0  0  0  0  0  0  0  0  0  0  0  0
   -3.0940   -2.6290    1.1426 C   0  0  0  0  0  0  0  0  0  0  0  0
   -3.7160   -1.9930    1.7706 H   0  0  0  0  0  0  0  0  0  0  0  0
   -3.4880   -2.6500    0.1286 H   0  0  0  0  0  0  0  0  0  0  0  0
   -1.6860   -2.0850    1.1196 C   0  0  0  0  0  0  0  0  0  0  0  0
   -0.7540   -2.7700    1.5226 O   0  0  0  0  0  0  0  0  0  0  0  0
   -1.5320   -0.8490    0.6496 N   0  0  0  0  0  0  0  0  0  0  0  0
   -2.3500   -0.3360    0.3566 H   0  0  0  0  0  0  0  0  0  0  0  0
   -0.2470   -0.1410    0.5576 C   0  0  1  0  0  0  0  0  0  0  0  0
    0.5440   -0.8709    0.7329 H   0  0  0  0  0  0  0  0  0  0  0  0
   -0.0528    0.4375   -0.8672 C   0  0  1  0  0  0  0  0  0  0  0  0
   -0.9338    1.0418   -1.0918 H   0  0  0  0  0  0  0  0  0  0  0  0
    1.1818    1.3536   -0.9670 C   0  0  0  0  0  0  0  0  0  0  0  0
    2.0988    0.7791   -0.8245 H   0  0  0  0  0  0  0  0  0  0  0  0
    1.2144    1.8397   -1.9408 H   0  0  0  0  0  0  0  0  0  0  0  0
    1.1341    2.1341   -0.2068 H   0  0  0  0  0  0  0  0  0  0  0  0
    0.0113   -0.6919   -1.9197 C   0  0  0  0  0  0  0  0  0  0  0  0
    0.9328   -1.2627   -1.7974 H   0  0  0  0  0  0  0  0  0  0  0  0
   -0.8314   -1.3653   -1.7633 H   0  0  0  0  0  0  0  0  0  0  0  0
   -0.0659   -0.1909   -3.3683 C   0  0  0  0  0  0  0  0  0  0  0  0
    0.8133    0.4043   -3.6143 H   0  0  0  0  0  0  0  0  0  0  0  0
   -0.1050   -1.0465   -4.0429 H   0  0  0  0  0  0  0  0  0  0  0  0
   -0.9644    0.4113   -3.5074 H   0  0  0  0  0  0  0  0  0  0  0  0
   -0.1466    0.9232    1.6622 C   0  0  0  0  0  0  0  0  0  0  0  0
    0.8537    1.6336    1.7509 O   0  0  0  0  0  0  0  0  0  0  0  0
   -1.1853    1.0425    2.4989 N   0  0  0  0  0  0  0  0  0  0  0  0
   -1.9755    0.4332    2.3578 H   0  0  0  0  0  0  0  0  0  0  0  0
   -1.2424    1.9998    3.6019 C   0  0  0  0  0  0  0  0  0  0  0  0
   -1.0286    3.0042    3.2296 H   0  0  0  0  0  0  0  0  0  0  0  0
   -2.2321    1.9904    4.0607 H   0  0  0  0  0  0  0  0  0  0  0  0
   -0.4922    1.7414    4.3517 H   0  0  0  0  0  0  0  0  0  0  0  0
  5  6  2  0  0  0  0
  5  7  1  0  0  0  0
  2  3  1  0  0  0  0
  2  4  1  0  0  0  0
  2  5  1  0  0  0  0
  1  2  1  0  0  0  0
 24 25  2  0  0  0  0
 24 26  1  0  0  0  0
 20 21  1  0  0  0  0
 20 22  1  0  0  0  0
 20 23  1  0  0  0  0
 17 18  1  0  0  0  0
 17 19  1  0  0  0  0
 17 20  1  0  0  0  0
 13 14  1  0  0  0  0
 13 15  1  0  0  0  0
 13 16  1  0  0  0  0
 11 12  1  0  0  0  0
 11 13  1  0  0  0  0
 11 17  1  0  0  0  0
  9 10  1  0  0  0  0
  9 11  1  0  0  0  0
  9 24  1  0  0  0  0
  7  8  1  0  0  0  0
  7  9  1  0  0  0  0
 28 29  1  0  0  0  0
 28 30  1  0  0  0  0
 28 31  1  0  0  0  0
 26 27  1  0  0  0  0
 26 28  1  0  0  0  0
M  END
$$$$
default_name
  -OEChem-01062215323D

 31 30  0     1  0  0  0  0  0999 V2000
   -3.0760   -3.6390    1.5496 H   0  0  0  0  0  0  0  0  0  0  0  0
   -3.0940   -2.6290    1.1426 C   0  0  0  0  0  0  0  0  0  0  0  0
   -3.7160   -1.9930    1.7706 H   0  0  0  0  0  0  0  0  0  0  0  0
   -3.4880   -2.6500    0.1286 H   0  0  0  0  0  0  0  0  0  0  0  0
   -1.6860   -2.0850    1.1196 C   0  0  0  0  0  0  0  0  0  0  0  0
   -0.7540   -2.7700    1.5226 O   0  0  0  0  0  0  0  0  0  0  0  0
   -1.5320   -0.8490    0.6496 N   0  0  0  0  0  0  0  0  0  0  0  0
   -2.3500   -0.3360    0.3566 H   0  0  0  0  0  0  0  0  0  0  0  0
   -0.2470   -0.1410    0.5576 C   0  0  1  0  0  0  0  0  0  0  0  0
    0.5440   -0.8709    0.7329 H   0  0  0  0  0  0  0  0  0  0  0  0
   -0.0528    0.4375   -0.8672 C   0  0  1  0  0  0  0  0  0  0  0  0
   -0.9338    1.0418   -1.0918 H   0  0  0  0  0  0  0  0  0  0  0  0
    1.1818    1.3536   -0.9670 C   0  0  0  0  0  0  0  0  0  0  0  0
    2.0988    0.7791   -0.8245 H   0  0  0  0  0  0  0  0  0  0  0  0
    1.2144    1.8397   -1.9408 H   0  0  0  0  0  0  0  0  0  0  0  0
    1.1341    2.1341   -0.2068 H   0  0  0  0  0  0  0  0  0  0  0  0
    0.0113   -0.6919   -1.9197 C   0  0  0  0  0  0  0  0  0  0  0  0
    0.9328   -1.2627   -1.7974 H   0  0  0  0  0  0  0  0  0  0  0  0
   -0.8314   -1.3653   -1.7633 H   0  0  0  0  0  0  0  0  0  0  0  0
   -0.0659   -0.1909   -3.3683 C   0  0  0  0  0  0  0  0  0  0  0  0
    0.8133    0.4043   -3.6143 H   0  0  0  0  0  0  0  0  0  0  0  0
   -0.1050   -1.0465   -4.0429 H   0  0  0  0  0  0  0  0  0  0  0  0
   -0.9644    0.4113   -3.5074 H   0  0  0  0  0  0  0  0  0  0  0  0
   -0.1466    0.9232    1.6622 C   0  0  0  0  0  0  0  0  0  0  0  0
    0.7048    1.8086    1.5959 O   0  0  0  0  0  0  0  0  0  0  0  0
   -1.0208    0.8456    2.6736 N   0  0  0  0  0  0  0  0  0  0  0  0
   -1.6973    0.0989    2.6546 H   0  0  0  0  0  0  0  0  0  0  0  0
   -1.0531    1.7753    3.8010 C   0  0  0  0  0  0  0  0  0  0  0  0
   -1.0992    2.8019    3.4309 H   0  0  0  0  0  0  0  0  0  0  0  0
   -1.9246    1.5805    4.4277 H   0  0  0  0  0  0  0  0  0  0  0  0
   -0.1452    1.6622    4.3965 H   0  0  0  0  0  0  0  0  0  0  0  0
  5  6  2  0  0  0  0
  5  7  1  0  0  0  0
  2  3  1  0  0  0  0
  2  4  1  0  0  0  0
  2  5  1  0  0  0  0
  1  2  1  0  0  0  0
 24 25  2  0  0  0  0
 24 26  1  0  0  0  0
 20 21  1  0  0  0  0
 20 22  1  0  0  0  0
 20 23  1  0  0  0  0
 17 18  1  0  0  0  0
 17 19  1  0  0  0  0
 17 20  1  0  0  0  0
 13 14  1  0  0  0  0
 13 15  1  0  0  0  0
 13 16  1  0  0  0  0
 11 12  1  0  0  0  0
 11 13  1  0  0  0  0
 11 17  1  0  0  0  0
  9 10  1  0  0  0  0
  9 11  1  0  0  0  0
  9 24  1  0  0  0  0
  7  8  1  0  0  0  0
  7  9  1  0  0  0  0
 28 29  1  0  0  0  0
 28 30  1  0  0  0  0
 28 31  1  0  0  0  0
 26 27  1  0  0  0  0
 26 28  1  0  0  0  0
M  END
$$$$
default_name
  -OEChem-01062215323D

 31 30  0     1  0  0  0  0  0999 V2000
   -3.0760   -3.6390    1.5496 H   0  0  0  0  0  0  0  0  0  0  0  0
   -3.0940   -2.6290    1.1426 C   0  0  0  0  0  0  0  0  0  0  0  0
   -3.7160   -1.9930    1.7706 H   0  0  0  0  0  0  0  0  0  0  0  0
   -3.4880   -2.6500    0.1286 H   0  0  0  0  0  0  0  0  0  0  0  0
   -1.6860   -2.0850    1.1196 C   0  0  0  0  0  0  0  0  0  0  0  0
   -0.7540   -2.7700    1.5226 O   0  0  0  0  0  0  0  0  0  0  0  0
   -1.5320   -0.8490    0.6496 N   0  0  0  0  0  0  0  0  0  0  0  0
   -2.3500   -0.3360    0.3566 H   0  0  0  0  0  0  0  0  0  0  0  0
   -0.2470   -0.1410    0.5576 C   0  0  1  0  0  0  0  0  0  0  0  0
    0.5440   -0.8709    0.7329 H   0  0  0  0  0  0  0  0  0  0  0  0
   -0.0528    0.4375   -0.8672 C   0  0  1  0  0  0  0  0  0  0  0  0
   -0.9338    1.0418   -1.0918 H   0  0  0  0  0  0  0  0  0  0  0  0
    1.1818    1.3536   -0.9670 C   0  0  0  0  0  0  0  0  0  0  0  0
    2.0988    0.7791   -0.8245 H   0  0  0  0  0  0  0  0  0  0  0  0
    1.2144    1.8397   -1.9408 H   0  0  0  0  0  0  0  0  0  0  0  0
    1.1341    2.1341   -0.2068 H   0  0  0  0  0  0  0  0  0  0  0  0
    0.0113   -0.6919   -1.9197 C   0  0  0  0  0  0  0  0  0  0  0  0
    0.9328   -1.2627   -1.7974 H   0  0  0  0  0  0  0  0  0  0  0  0
   -0.8314   -1.3653   -1.7633 H   0  0  0  0  0  0  0  0  0  0  0  0
   -0.0659   -0.1909   -3.3683 C   0  0  0  0  0  0  0  0  0  0  0  0
    0.8133    0.4043   -3.6143 H   0  0  0  0  0  0  0  0  0  0  0  0
   -0.1050   -1.0465   -4.0429 H   0  0  0  0  0  0  0  0  0  0  0  0
   -0.9644    0.4113   -3.5074 H   0  0  0  0  0  0  0  0  0  0  0  0
   -0.1466    0.9232    1.6622 C   0  0  0  0  0  0  0  0  0  0  0  0
    0.5006    1.9526    1.4758 O   0  0  0  0  0  0  0  0  0  0  0  0
   -0.7940    0.6831    2.8096 N   0  0  0  0  0  0  0  0  0  0  0  0
   -1.3133   -0.1772    2.8857 H   0  0  0  0  0  0  0  0  0  0  0  0
   -0.7929    1.5903    3.9556 C   0  0  0  0  0  0  0  0  0  0  0  0
   -1.0937    2.5900    3.6345 H   0  0  0  0  0  0  0  0  0  0  0  0
   -1.4856    1.2355    4.7201 H   0  0  0  0  0  0  0  0  0  0  0  0
    0.2128    1.6494    4.3762 H   0  0  0  0  0  0  0  0  0  0  0  0
  5  6  2  0  0  0  0
  5  7  1  0  0  0  0
  2  3  1  0  0  0  0
  2  4  1  0  0  0  0
  2  5  1  0  0  0  0
  1  2  1  0  0  0  0
 24 25  2  0  0  0  0
 24 26  1  0  0  0  0
 20 21  1  0  0  0  0
 20 22  1  0  0  0  0
 20 23  1  0  0  0  0
 17 18  1  0  0  0  0
 17 19  1  0  0  0  0
 17 20  1  0  0  0  0
 13 14  1  0  0  0  0
 13 15  1  0  0  0  0
 13 16  1  0  0  0  0
 11 12  1  0  0  0  0
 11 13  1  0  0  0  0
 11 17  1  0  0  0  0
  9 10  1  0  0  0  0
  9 11  1  0  0  0  0
  9 24  1  0  0  0  0
  7  8  1  0  0  0  0
  7  9  1  0  0  0  0
 28 29  1  0  0  0  0
 28 30  1  0  0  0  0
 28 31  1  0  0  0  0
 26 27  1  0  0  0  0
 26 28  1  0  0  0  0
M  END
$$$$
default_name
  -OEChem-01062215323D

 31 30  0     1  0  0  0  0  0999 V2000
   -3.0760   -3.6390    1.5496 H   0  0  0  0  0  0  0  0  0  0  0  0
   -3.0940   -2.6290    1.1426 C   0  0  0  0  0  0  0  0  0  0  0  0
   -3.7160   -1.9930    1.7706 H   0  0  0  0  0  0  0  0  0  0  0  0
   -3.4880   -2.6500    0.1286 H   0  0  0  0  0  0  0  0  0  0  0  0
   -1.6860   -2.0850    1.1196 C   0  0  0  0  0  0  0  0  0  0  0  0
   -0.7540   -2.7700    1.5226 O   0  0  0  0  0  0  0  0  0  0  0  0
   -1.5320   -0.8490    0.6496 N   0  0  0  0  0  0  0  0  0  0  0  0
   -2.3500   -0.3360    0.3566 H   0  0  0  0  0  0  0  0  0  0  0  0
   -0.2470   -0.1410    0.5576 C   0  0  1  0  0  0  0  0  0  0  0  0
    0.5440   -0.8709    0.7329 H   0  0  0  0  0  0  0  0  0  0  0  0
   -0.0528    0.4375   -0.8672 C   0  0  1  0  0  0  0  0  0  0  0  0
   -0.9338    1.0418   -1.0918 H   0  0  0  0  0  0  0  0  0  0  0  0
    1.1818    1.3536   -0.9670 C   0  0  0  0  0  0  0  0  0  0  0  0
    2.0988    0.7791   -0.8245 H   0  0  0  0  0  0  0  0  0  0  0  0
    1.2144    1.8397   -1.9408 H   0  0  0  0  0  0  0  0  0  0  0  0
    1.1341    2.1341   -0.2068 H   0  0  0  0  0  0  0  0  0  0  0  0
    0.0113   -0.6919   -1.9197 C   0  0  0  0  0  0  0  0  0  0  0  0
    0.9328   -1.2627   -1.7974 H   0  0  0  0  0  0  0  0  0  0  0  0
   -0.8314   -1.3653   -1.7633 H   0  0  0  0  0  0  0  0  0  0  0  0
   -0.0659   -0.1909   -3.3683 C   0  0  0  0  0  0  0  0  0  0  0  0
    0.8133    0.4043   -3.6143 H   0  0  0  0  0  0  0  0  0  0  0  0
   -0.1050   -1.0465   -4.0429 H   0  0  0  0  0  0  0  0  0  0  0  0
   -0.9644    0.4113   -3.5074 H   0  0  0  0  0  0  0  0  0  0  0  0
   -0.1466    0.9232    1.6622 C   0  0  0  0  0  0  0  0  0  0  0  0
    0.2550    2.0557    1.3988 O   0  0  0  0  0  0  0  0  0  0  0  0
   -0.5204    0.5660    2.8975 N   0  0  0  0  0  0  0  0  0  0  0  0
   -0.8496   -0.3765    3.0354 H   0  0  0  0  0  0  0  0  0  0  0  0
   -0.4794    1.4573    4.0552 C   0  0  0  0  0  0  0  0  0  0  0  0
   -1.0125    2.3829    3.8267 H   0  0  0  0  0  0  0  0  0  0  0  0
   -0.9450    0.9789    4.9181 H   0  0  0  0  0  0  0  0  0  0  0  0
    0.5572    1.7040    4.2922 H   0  0  0  0  0  0  0  0  0  0  0  0
  5  6  2  0  0  0  0
  5  7  1  0  0  0  0
  2  3  1  0  0  0  0
  2  4  1  0  0  0  0
  2  5  1  0  0  0  0
  1  2  1  0  0  0  0
 24 25  2  0  0  0  0
 24 26  1  0  0  0  0
 20 21  1  0  0  0  0
 20 22  1  0  0  0  0
 20 23  1  0  0  0  0
 17 18  1  0  0  0  0
 17 19  1  0  0  0  0
 17 20  1  0  0  0  0
 13 14  1  0  0  0  0
 13 15  1  0  0  0  0
 13 16  1  0  0  0  0
 11 12  1  0  0  0  0
 11 13  1  0  0  0  0
 11 17  1  0  0  0  0
  9 10  1  0  0  0  0
  9 11  1  0  0  0  0
  9 24  1  0  0  0  0
  7  8  1  0  0  0  0
  7  9  1  0  0  0  0
 28 29  1  0  0  0  0
 28 30  1  0  0  0  0
 28 31  1  0  0  0  0
 26 27  1  0  0  0  0
 26 28  1  0  0  0  0
M  END
$$$$
default_name
  -OEChem-01062215323D

 31 30  0     1  0  0  0  0  0999 V2000
   -3.0760   -3.6390    1.5496 H   0  0  0  0  0  0  0  0  0  0  0  0
   -3.0940   -2.6290    1.1426 C   0  0  0  0  0  0  0  0  0  0  0  0
   -3.7160   -1.9930    1.7706 H   0  0  0  0  0  0  0  0  0  0  0  0
   -3.4880   -2.6500    0.1286 H   0  0  0  0  0  0  0  0  0  0  0  0
   -1.6860   -2.0850    1.1196 C   0  0  0  0  0  0  0  0  0  0  0  0
   -0.7540   -2.7700    1.5226 O   0  0  0  0  0  0  0  0  0  0  0  0
   -1.5320   -0.8490    0.6496 N   0  0  0  0  0  0  0  0  0  0  0  0
   -2.3500   -0.3360    0.3566 H   0  0  0  0  0  0  0  0  0  0  0  0
   -0.2470   -0.1410    0.5576 C   0  0  1  0  0  0  0  0  0  0  0  0
    0.5440   -0.8709    0.7329 H   0  0  0  0  0  0  0  0  0  0  0  0
   -0.0528    0.4375   -0.8672 C   0  0  1  0  0  0  0  0  0  0  0  0
   -0.9338    1.0418   -1.0918 H   0  0  0  0  0  0  0  0  0  0  0  0
    1.1818    1.3536   -0.9670 C   0  0  0  0  0  0  0  0  0  0  0  0
    2.0988    0.7791   -0.8245 H   0  0  0  0  0  0  0  0  0  0  0  0
    1.2144    1.8397   -1.9408 H   0  0  0  0  0  0  0  0  0  0  0  0
    1.1341    2.1341   -0.2068 H   0  0  0  0  0  0  0  0  0  0  0  0
    0.0113   -0.6919   -1.9197 C   0  0  0  0  0  0  0  0  0  0  0  0
    0.9328   -1.2627   -1.7974 H   0  0  0  0  0  0  0  0  0  0  0  0
   -0.8314   -1.3653   -1.7633 H   0  0  0  0  0  0  0  0  0  0  0  0
   -0.0659   -0.1909   -3.3683 C   0  0  0  0  0  0  0  0  0  0  0  0
    0.8133    0.4043   -3.6143 H   0  0  0  0  0  0  0  0  0  0  0  0
   -0.1050   -1.0465   -4.0429 H   0  0  0  0  0  0  0  0  0  0  0  0
   -0.9644    0.4113   -3.5074 H   0  0  0  0  0  0  0  0  0  0  0  0
   -0.1466    0.9232    1.6622 C   0  0  0  0  0  0  0  0  0  0  0  0
   -0.0151    2.1109    1.3702 O   0  0  0  0  0  0  0  0  0  0  0  0
   -0.2185    0.5023    2.9314 N   0  0  0  0  0  0  0  0  0  0  0  0
   -0.3377   -0.4852    3.0936 H   0  0  0  0  0  0  0  0  0  0  0  0
   -0.1341    1.3855    4.0929 C   0  0  0  0  0  0  0  0  0  0  0  0
   -0.8611    2.1946    3.9942 H   0  0  0  0  0  0  0  0  0  0  0  0
   -0.3396    0.8283    5.0081 H   0  0  0  0  0  0  0  0  0  0  0  0
    0.8648    1.8223    4.1504 H   0  0  0  0  0  0  0  0  0  0  0  0
  5  6  2  0  0  0  0
  5  7  1  0  0  0  0
  2  3  1  0  0  0  0
  2  4  1  0  0  0  0
  2  5  1  0  0  0  0
  1  2  1  0  0  0  0
 24 25  2  0  0  0  0
 24 26  1  0  0  0  0
 20 21  1  0  0  0  0
 20 22  1  0  0  0  0
 20 23  1  0  0  0  0
 17 18  1  0  0  0  0
 17 19  1  0  0  0  0
 17 20  1  0  0  0  0
 13 14  1  0  0  0  0
 13 15  1  0  0  0  0
 13 16  1  0  0  0  0
 11 12  1  0  0  0  0
 11 13  1  0  0  0  0
 11 17  1  0  0  0  0
  9 10  1  0  0  0  0
  9 11  1  0  0  0  0
  9 24  1  0  0  0  0
  7  8  1  0  0  0  0
  7  9  1  0  0  0  0
 28 29  1  0  0  0  0
 28 30  1  0  0  0  0
 28 31  1  0  0  0  0
 26 27  1  0  0  0  0
 26 28  1  0  0  0  0
M  END
$$$$
default_name
  -OEChem-01062215323D

 31 30  0     1  0  0  0  0  0999 V2000
   -3.0760   -3.6390    1.5496 H   0  0  0  0  0  0  0  0  0  0  0  0
   -3.0940   -2.6290    1.1426 C   0  0  0  0  0  0  0  0  0  0  0  0
   -3.7160   -1.9930    1.7706 H   0  0  0  0  0  0  0  0  0  0  0  0
   -3.4880   -2.6500    0.1286 H   0  0  0  0  0  0  0  0  0  0  0  0
   -1.6860   -2.0850    1.1196 C   0  0  0  0  0  0  0  0  0  0  0  0
   -0.7540   -2.7700    1.5226 O   0  0  0  0  0  0  0  0  0  0  0  0
   -1.5320   -0.8490    0.6496 N   0  0  0  0  0  0  0  0  0  0  0  0
   -2.3500   -0.3360    0.3566 H   0  0  0  0  0  0  0  0  0  0  0  0
   -0.2470   -0.1410    0.5576 C   0  0  1  0  0  0  0  0  0  0  0  0
    0.5440   -0.8709    0.7329 H   0  0  0  0  0  0  0  0  0  0  0  0
   -0.0528    0.4375   -0.8672 C   0  0  1  0  0  0  0  0  0  0  0  0
   -0.9338    1.0418   -1.0918 H   0  0  0  0  0  0  0  0  0  0  0  0
    1.1818    1.3536   -0.9670 C   0  0  0  0  0  0  0  0  0  0  0  0
    2.0988    0.7791   -0.8245 H   0  0  0  0  0  0  0  0  0  0  0  0
    1.2144    1.8397   -1.9408 H   0  0  0  0  0  0  0  0  0  0  0  0
    1.1341    2.1341   -0.2068 H   0  0  0  0  0  0  0  0  0  0  0  0
    0.0113   -0.6919   -1.9197 C   0  0  0  0  0  0  0  0  0  0  0  0
    0.9328   -1.2627   -1.7974 H   0  0  0  0  0  0  0  0  0  0  0  0
   -0.8314   -1.3653   -1.7633 H   0  0  0  0  0  0  0  0  0  0  0  0
   -0.0659   -0.1909   -3.3683 C   0  0  0  0  0  0  0  0  0  0  0  0
    0.8133    0.4043   -3.6143 H   0  0  0  0  0  0  0  0  0  0  0  0
   -0.1050   -1.0465   -4.0429 H   0  0  0  0  0  0  0  0  0  0  0  0
   -0.9644    0.4113   -3.5074 H   0  0  0  0  0  0  0  0  0  0  0  0
   -0.1466    0.9232    1.6622 C   0  0  0  0  0  0  0  0  0  0  0  0
   -0.2915    2.1145    1.3919 O   0  0  0  0  0  0  0  0  0  0  0  0
    0.0910    0.4963    2.9090 N   0  0  0  0  0  0  0  0  0  0  0  0
    0.1873   -0.4960    3.0563 H   0  0  0  0  0  0  0  0  0  0  0  0
    0.2196    1.3797    4.0663 C   0  0  0  0  0  0  0  0  0  0  0  0
   -0.6498    2.0382    4.1257 H   0  0  0  0  0  0  0  0  0  0  0  0
    0.2894    0.7940    4.9840 H   0  0  0  0  0  0  0  0  0  0  0  0
    1.1144    1.9961    3.9602 H   0  0  0  0  0  0  0  0  0  0  0  0
  5  6  2  0  0  0  0
  5  7  1  0  0  0  0
  2  3  1  0  0  0  0
  2  4  1  0  0  0  0
  2  5  1  0  0  0  0
  1  2  1  0  0  0  0
 24 25  2  0  0  0  0
 24 26  1  0  0  0  0
 20 21  1  0  0  0  0
 20 22  1  0  0  0  0
 20 23  1  0  0  0  0
 17 18  1  0  0  0  0
 17 19  1  0  0  0  0
 17 20  1  0  0  0  0
 13 14  1  0  0  0  0
 13 15  1  0  0  0  0
 13 16  1  0  0  0  0
 11 12  1  0  0  0  0
 11 13  1  0  0  0  0
 11 17  1  0  0  0  0
  9 10  1  0  0  0  0
  9 11  1  0  0  0  0
  9 24  1  0  0  0  0
  7  8  1  0  0  0  0
  7  9  1  0  0  0  0
 28 29  1  0  0  0  0
 28 30  1  0  0  0  0
 28 31  1  0  0  0  0
 26 27  1  0  0  0  0
 26 28  1  0  0  0  0
M  END
$$$$
default_name
  -OEChem-01062215323D

 31 30  0     1  0  0  0  0  0999 V2000
   -3.0760   -3.6390    1.5496 H   0  0  0  0  0  0  0  0  0  0  0  0
   -3.0940   -2.6290    1.1426 C   0  0  0  0  0  0  0  0  0  0  0  0
   -3.7160   -1.9930    1.7706 H   0  0  0  0  0  0  0  0  0  0  0  0
   -3.4880   -2.6500    0.1286 H   0  0  0  0  0  0  0  0  0  0  0  0
   -1.6860   -2.0850    1.1196 C   0  0  0  0  0  0  0  0  0  0  0  0
   -0.7540   -2.7700    1.5226 O   0  0  0  0  0  0  0  0  0  0  0  0
   -1.5320   -0.8490    0.6496 N   0  0  0  0  0  0  0  0  0  0  0  0
   -2.3500   -0.3360    0.3566 H   0  0  0  0  0  0  0  0  0  0  0  0
   -0.2470   -0.1410    0.5576 C   0  0  1  0  0  0  0  0  0  0  0  0
    0.5440   -0.8709    0.7329 H   0  0  0  0  0  0  0  0  0  0  0  0
   -0.0528    0.4375   -0.8672 C   0  0  1  0  0  0  0  0  0  0  0  0
   -0.9338    1.0418   -1.0918 H   0  0  0  0  0  0  0  0  0  0  0  0
    1.1818    1.3536   -0.9670 C   0  0  0  0  0  0  0  0  0  0  0  0
    2.0988    0.7791   -0.8245 H   0  0  0  0  0  0  0  0  0  0  0  0
    1.2144    1.8397   -1.9408 H   0  0  0  0  0  0  0  0  0  0  0  0
    1.1341    2.1341   -0.2068 H   0  0  0  0  0  0  0  0  0  0  0  0
    0.0113   -0.6919   -1.9197 C   0  0  0  0  0  0  0  0  0  0  0  0
    0.9328   -1.2627   -1.7974 H   0  0  0  0  0  0  0  0  0  0  0  0
   -0.8314   -1.3653   -1.7633 H   0  0  0  0  0  0  0  0  0  0  0  0
   -0.0659   -0.1909   -3.3683 C   0  0  0  0  0  0  0  0  0  0  0  0
    0.8133    0.4043   -3.6143 H   0  0  0  0  0  0  0  0  0  0  0  0
   -0.1050   -1.0465   -4.0429 H   0  0  0  0  0  0  0  0  0  0  0  0
   -0.9644    0.4113   -3.5074 H   0  0  0  0  0  0  0  0  0  0  0  0
   -0.1466    0.9232    1.6622 C   0  0  0  0  0  0  0  0  0  0  0  0
   -0.5552    2.0662    1.4624 O   0  0  0  0  0  0  0  0  0  0  0  0
    0.3871    0.5485    2.8318 N   0  0  0  0  0  0  0  0  0  0  0  0
    0.6898   -0.4081    2.9260 H   0  0  0  0  0  0  0  0  0  0  0  0
    0.5576    1.4404    3.9771 C   0  0  0  0  0  0  0  0  0  0  0  0
   -0.3931    1.9241    4.2122 H   0  0  0  0  0  0  0  0  0  0  0  0
    0.8989    0.8782    4.8475 H   0  0  0  0  0  0  0  0  0  0  0  0
    1.2891    2.2136    3.7348 H   0  0  0  0  0  0  0  0  0  0  0  0
  5  6  2  0  0  0  0
  5  7  1  0  0  0  0
  2  3  1  0  0  0  0
  2  4  1  0  0  0  0
  2  5  1  0  0  0  0
  1  2  1  0  0  0  0
 24 25  2  0  0  0  0
 24 26  1  0  0  0  0
 20 21  1  0  0  0  0
 20 22  1  0  0  0  0
 20 23  1  0  0  0  0
 17 18  1  0  0  0  0
 17 19  1  0  0  0  0
 17 20  1  0  0  0  0
 13 14  1  0  0  0  0
 13 15  1  0  0  0  0
 13 16  1  0  0  0  0
 11 12  1  0  0  0  0
 11 13  1  0  0  0  0
 11 17  1  0  0  0  0
  9 10  1  0  0  0  0
  9 11  1  0  0  0  0
  9 24  1  0  0  0  0
  7  8  1  0  0  0  0
  7  9  1  0  0  0  0
 28 29  1  0  0  0  0
 28 30  1  0  0  0  0
 28 31  1  0  0  0  0
 26 27  1  0  0  0  0
 26 28  1  0  0  0  0
M  END
$$$$
default_name
  -OEChem-01062215323D

 31 30  0     1  0  0  0  0  0999 V2000
   -3.0760   -3.6390    1.5496 H   0  0  0  0  0  0  0  0  0  0  0  0
   -3.0940   -2.6290    1.1426 C   0  0  0  0  0  0  0  0  0  0  0  0
   -3.7160   -1.9930    1.7706 H   0  0  0  0  0  0  0  0  0  0  0  0
   -3.4880   -2.6500    0.1286 H   0  0  0  0  0  0  0  0  0  0  0  0
   -1.6860   -2.0850    1.1196 C   0  0  0  0  0  0  0  0  0  0  0  0
   -0.7540   -2.7700    1.5226 O   0  0  0  0  0  0  0  0  0  0  0  0
   -1.5320   -0.8490    0.6496 N   0  0  0  0  0  0  0  0  0  0  0  0
   -2.3500   -0.3360    0.3566 H   0  0  0  0  0  0  0  0  0  0  0  0
   -0.2470   -0.1410    0.5576 C   0  0  1  0  0  0  0  0  0  0  0  0
    0.5440   -0.8709    0.7329 H   0  0  0  0  0  0  0  0  0  0  0  0
   -0.0528    0.4375   -0.8672 C   0  0  1  0  0  0  0  0  0  0  0  0
   -0.9338    1.0418   -1.0918 H   0  0  0  0  0  0  0  0  0  0  0  0
    1.1818    1.3536   -0.9670 C   0  0  0  0  0  0  0  0  0  0  0  0
    2.0988    0.7791   -0.8245 H   0  0  0  0  0  0  0  0  0  0  0  0
    1.2144    1.8397   -1.9408 H   0  0  0  0  0  0  0  0  0  0  0  0
    1.1341    2.1341   -0.2068 H   0  0  0  0  0  0  0  0  0  0  0  0
    0.0113   -0.6919   -1.9197 C   0  0  0  0  0  0  0  0  0  0  0  0
    0.9328   -1.2627   -1.7974 H   0  0  0  0  0  0  0  0  0  0  0  0
   -0.8314   -1.3653   -1.7633 H   0  0  0  0  0  0  0  0  0  0  0  0
   -0.0659   -0.1909   -3.3683 C   0  0  0  0  0  0  0  0  0  0  0  0
    0.8133    0.4043   -3.6143 H   0  0  0  0  0  0  0  0  0  0  0  0
   -0.1050   -1.0465   -4.0429 H   0  0  0  0  0  0  0  0  0  0  0  0
   -0.9644    0.4113   -3.5074 H   0  0  0  0  0  0  0  0  0  0  0  0
   -0.1466    0.9232    1.6622 C   0  0  0  0  0  0  0  0  0  0  0  0
   -0.7883    1.9692    1.5769 O   0  0  0  0  0  0  0  0  0  0  0  0
    0.6495    0.6553    2.7051 N   0  0  0  0  0  0  0  0  0  0  0  0
    1.1354   -0.2276    2.7116 H   0  0  0  0  0  0  0  0  0  0  0  0
    0.8568    1.5634    3.8315 C   0  0  0  0  0  0  0  0  0  0  0  0
   -0.1083    1.8603    4.2479 H   0  0  0  0  0  0  0  0  0  0  0  0
    1.4476    1.0752    4.6078 H   0  0  0  0  0  0  0  0  0  0  0  0
    1.3771    2.4601    3.4894 H   0  0  0  0  0  0  0  0  0  0  0  0
  5  6  2  0  0  0  0
  5  7  1  0  0  0  0
  2  3  1  0  0  0  0
  2  4  1  0  0  0  0
  2  5  1  0  0  0  0
  1  2  1  0  0  0  0
 24 25  2  0  0  0  0
 24 26  1  0  0  0  0
 20 21  1  0  0  0  0
 20 22  1  0  0  0  0
 20 23  1  0  0  0  0
 17 18  1  0  0  0  0
 17 19  1  0  0  0  0
 17 20  1  0  0  0  0
 13 14  1  0  0  0  0
 13 15  1  0  0  0  0
 13 16  1  0  0  0  0
 11 12  1  0  0  0  0
 11 13  1  0  0  0  0
 11 17  1  0  0  0  0
  9 10  1  0  0  0  0
  9 11  1  0  0  0  0
  9 24  1  0  0  0  0
  7  8  1  0  0  0  0
  7  9  1  0  0  0  0
 28 29  1  0  0  0  0
 28 30  1  0  0  0  0
 28 31  1  0  0  0  0
 26 27  1  0  0  0  0
 26 28  1  0  0  0  0
M  END
$$$$
default_name
  -OEChem-01062215323D

 31 30  0     1  0  0  0  0  0999 V2000
   -3.0760   -3.6390    1.5496 H   0  0  0  0  0  0  0  0  0  0  0  0
   -3.0940   -2.6290    1.1426 C   0  0  0  0  0  0  0  0  0  0  0  0
   -3.7160   -1.9930    1.7706 H   0  0  0  0  0  0  0  0  0  0  0  0
   -3.4880   -2.6500    0.1286 H   0  0  0  0  0  0  0  0  0  0  0  0
   -1.6860   -2.0850    1.1196 C   0  0  0  0  0  0  0  0  0  0  0  0
   -0.7540   -2.7700    1.5226 O   0  0  0  0  0  0  0  0  0  0  0  0
   -1.5320   -0.8490    0.6496 N   0  0  0  0  0  0  0  0  0  0  0  0
   -2.3500   -0.3360    0.3566 H   0  0  0  0  0  0  0  0  0  0  0  0
   -0.2470   -0.1410    0.5576 C   0  0  1  0  0  0  0  0  0  0  0  0
    0.5440   -0.8709    0.7329 H   0  0  0  0  0  0  0  0  0  0  0  0
   -0.0528    0.4375   -0.8672 C   0  0  1  0  0  0  0  0  0  0  0  0
   -0.9338    1.0418   -1.0918 H   0  0  0  0  0  0  0  0  0  0  0  0
    1.1818    1.3536   -0.9670 C   0  0  0  0  0  0  0  0  0  0  0  0
    2.0988    0.7791   -0.8245 H   0  0  0  0  0  0  0  0  0  0  0  0
    1.2144    1.8397   -1.9408 H   0  0  0  0  0  0  0  0  0  0  0  0
    1.1341    2.1341   -0.2068 H   0  0  0  0  0  0  0  0  0  0  0  0
    0.0113   -0.6919   -1.9197 C   0  0  0  0  0  0  0  0  0  0  0  0
    0.9328   -1.2627   -1.7974 H   0  0  0  0  0  0  0  0  0  0  0  0
   -0.8314   -1.3653   -1.7633 H   0  0  0  0  0  0  0  0  0  0  0  0
   -0.0659   -0.1909   -3.3683 C   0  0  0  0  0  0  0  0  0  0  0  0
    0.8133    0.4043   -3.6143 H   0  0  0  0  0  0  0  0  0  0  0  0
   -0.1050   -1.0465   -4.0429 H   0  0  0  0  0  0  0  0  0  0  0  0
   -0.9644    0.4113   -3.5074 H   0  0  0  0  0  0  0  0  0  0  0  0
   -0.1466    0.9232    1.6622 C   0  0  0  0  0  0  0  0  0  0  0  0
   -0.9749    1.8303    1.7277 O   0  0  0  0  0  0  0  0  0  0  0  0
    0.8605    0.8094    2.5375 N   0  0  0  0  0  0  0  0  0  0  0  0
    1.4939    0.0333    2.4276 H   0  0  0  0  0  0  0  0  0  0  0  0
    1.0968    1.7403    3.6392 C   0  0  0  0  0  0  0  0  0  0  0  0
    0.1849    1.8509    4.2302 H   0  0  0  0  0  0  0  0  0  0  0  0
    1.8980    1.3715    4.2814 H   0  0  0  0  0  0  0  0  0  0  0  0
    1.3722    2.7186    3.2407 H   0  0  0  0  0  0  0  0  0  0  0  0
  5  6  2  0  0  0  0
  5  7  1  0  0  0  0
  2  3  1  0  0  0  0
  2  4  1  0  0  0  0
  2  5  1  0  0  0  0
  1  2  1  0  0  0  0
 24 25  2  0  0  0  0
 24 26  1  0  0  0  0
 20 21  1  0  0  0  0
 20 22  1  0  0  0  0
 20 23  1  0  0  0  0
 17 18  1  0  0  0  0
 17 19  1  0  0  0  0
 17 20  1  0  0  0  0
 13 14  1  0  0  0  0
 13 15  1  0  0  0  0
 13 16  1  0  0  0  0
 11 12  1  0  0  0  0
 11 13  1  0  0  0  0
 11 17  1  0  0  0  0
  9 10  1  0  0  0  0
  9 11  1  0  0  0  0
  9 24  1  0  0  0  0
  7  8  1  0  0  0  0
  7  9  1  0  0  0  0
 28 29  1  0  0  0  0
 28 30  1  0  0  0  0
 28 31  1  0  0  0  0
 26 27  1  0  0  0  0
 26 28  1  0  0  0  0
M  END
$$$$
default_name
  -OEChem-01062215323D

 31 30  0     1  0  0  0  0  0999 V2000
   -3.0760   -3.6390    1.5496 H   0  0  0  0  0  0  0  0  0  0  0  0
   -3.0940   -2.6290    1.1426 C   0  0  0  0  0  0  0  0  0  0  0  0
   -3.7160   -1.9930    1.7706 H   0  0  0  0  0  0  0  0  0  0  0  0
   -3.4880   -2.6500    0.1286 H   0  0  0  0  0  0  0  0  0  0  0  0
   -1.6860   -2.0850    1.1196 C   0  0  0  0  0  0  0  0  0  0  0  0
   -0.7540   -2.7700    1.5226 O   0  0  0  0  0  0  0  0  0  0  0  0
   -1.5320   -0.8490    0.6496 N   0  0  0  0  0  0  0  0  0  0  0  0
   -2.3500   -0.3360    0.3566 H   0  0  0  0  0  0  0  0  0  0  0  0
   -0.2470   -0.1410    0.5576 C   0  0  1  0  0  0  0  0  0  0  0  0
    0.5440   -0.8709    0.7329 H   0  0  0  0  0  0  0  0  0  0  0  0
   -0.0528    0.4375   -0.8672 C   0  0  1  0  0  0  0  0  0  0  0  0
   -0.9338    1.0418   -1.0918 H   0  0  0  0  0  0  0  0  0  0  0  0
    1.1818    1.3536   -0.9670 C   0  0  0  0  0  0  0  0  0  0  0  0
    2.0988    0.7791   -0.8245 H   0  0  0  0  0  0  0  0  0  0  0  0
    1.2144    1.8397   -1.9408 H   0  0  0  0  0  0  0  0  0  0  0  0
    1.1341    2.1341   -0.2068 H   0  0  0  0  0  0  0  0  0  0  0  0
    0.0113   -0.6919   -1.9197 C   0  0  0  0  0  0  0  0  0  0  0  0
    0.9328   -1.2627   -1.7974 H   0  0  0  0  0  0  0  0  0  0  0  0
   -0.8314   -1.3653   -1.7633 H   0  0  0  0  0  0  0  0  0  0  0  0
   -0.0659   -0.1909   -3.3683 C   0  0  0  0  0  0  0  0  0  0  0  0
    0.8133    0.4043   -3.6143 H   0  0  0  0  0  0  0  0  0  0  0  0
   -0.1050   -1.0465   -4.0429 H   0  0  0  0  0  0  0  0  0  0  0  0
   -0.9644    0.4113   -3.5074 H   0  0  0  0  0  0  0  0  0  0  0  0
   -0.1466    0.9232    1.6622 C   0  0  0  0  0  0  0  0  0  0  0  0
   -1.1023    1.6589    1.9045 O   0  0  0  0  0  0  0  0  0  0  0  0
    1.0055    1.0003    2.3404 N   0  0  0  0  0  0  0  0  0  0  0  0
    1.7407    0.3568    2.0936 H   0  0  0  0  0  0  0  0  0  0  0  0
    1.2613    1.9591    3.4135 C   0  0  0  0  0  0  0  0  0  0  0  0
    0.4668    1.8967    4.1605 H   0  0  0  0  0  0  0  0  0  0  0  0
    2.2194    1.7471    3.8903 H   0  0  0  0  0  0  0  0  0  0  0  0
    1.2748    2.9717    3.0058 H   0  0  0  0  0  0  0  0  0  0  0  0
  5  6  2  0  0  0  0
  5  7  1  0  0  0  0
  2  3  1  0  0  0  0
  2  4  1  0  0  0  0
  2  5  1  0  0  0  0
  1  2  1  0  0  0  0
 24 25  2  0  0  0  0
 24 26  1  0  0  0  0
 20 21  1  0  0  0  0
 20 22  1  0  0  0  0
 20 23  1  0  0  0  0
 17 18  1  0  0  0  0
 17 19  1  0  0  0  0
 17 20  1  0  0  0  0
 13 14  1  0  0  0  0
 13 15  1  0  0  0  0
 13 16  1  0  0  0  0
 11 12  1  0  0  0  0
 11 13  1  0  0  0  0
 11 17  1  0  0  0  0
  9 10  1  0  0  0  0
  9 11  1  0  0  0  0
  9 24  1  0  0  0  0
  7  8  1  0  0  0  0
  7  9  1  0  0  0  0
 28 29  1  0  0  0  0
 28 30  1  0  0  0  0
 28 31  1  0  0  0  0
 26 27  1  0  0  0  0
 26 28  1  0  0  0  0
M  END
$$$$
default_name
  -OEChem-01062215323D

 31 30  0     1  0  0  0  0  0999 V2000
   -3.0760   -3.6390    1.5496 H   0  0  0  0  0  0  0  0  0  0  0  0
   -3.0940   -2.6290    1.1426 C   0  0  0  0  0  0  0  0  0  0  0  0
   -3.7160   -1.9930    1.7706 H   0  0  0  0  0  0  0  0  0  0  0  0
   -3.4880   -2.6500    0.1286 H   0  0  0  0  0  0  0  0  0  0  0  0
   -1.6860   -2.0850    1.1196 C   0  0  0  0  0  0  0  0  0  0  0  0
   -0.7540   -2.7700    1.5226 O   0  0  0  0  0  0  0  0  0  0  0  0
   -1.5320   -0.8490    0.6496 N   0  0  0  0  0  0  0  0  0  0  0  0
   -2.3500   -0.3360    0.3566 H   0  0  0  0  0  0  0  0  0  0  0  0
   -0.2470   -0.1410    0.5576 C   0  0  1  0  0  0  0  0  0  0  0  0
    0.5440   -0.8709    0.7329 H   0  0  0  0  0  0  0  0  0  0  0  0
   -0.0528    0.4375   -0.8672 C   0  0  1  0  0  0  0  0  0  0  0  0
   -0.9338    1.0418   -1.0918 H   0  0  0  0  0  0  0  0  0  0  0  0
    1.1818    1.3536   -0.9670 C   0  0  0  0  0  0  0  0  0  0  0  0
    2.0988    0.7791   -0.8245 H   0  0  0  0  0  0  0  0  0  0  0  0
    1.2144    1.8397   -1.9408 H   0  0  0  0  0  0  0  0  0  0  0  0
    1.1341    2.1341   -0.2068 H   0  0  0  0  0  0  0  0  0  0  0  0
    0.0113   -0.6919   -1.9197 C   0  0  0  0  0  0  0  0  0  0  0  0
    0.9328   -1.2627   -1.7974 H   0  0  0  0  0  0  0  0  0  0  0  0
   -0.8314   -1.3653   -1.7633 H   0  0  0  0  0  0  0  0  0  0  0  0
   -0.0659   -0.1909   -3.3683 C   0  0  0  0  0  0  0  0  0  0  0  0
    0.8133    0.4043   -3.6143 H   0  0  0  0  0  0  0  0  0  0  0  0
   -0.1050   -1.0465   -4.0429 H   0  0  0  0  0  0  0  0  0  0  0  0
   -0.9644    0.4113   -3.5074 H   0  0  0  0  0  0  0  0  0  0  0  0
   -0.1466    0.9232    1.6622 C   0  0  0  0  0  0  0  0  0  0  0  0
   -1.1618    1.4666    2.0951 O   0  0  0  0  0  0  0  0  0  0  0  0
    1.0748    1.2150    2.1272 N   0  0  0  0  0  0  0  0  0  0  0  0
    1.8592    0.7208    1.7321 H   0  0  0  0  0  0  0  0  0  0  0  0
    1.3390    2.2048    3.1697 C   0  0  0  0  0  0  0  0  0  0  0  0
    0.7180    1.9946    4.0433 H   0  0  0  0  0  0  0  0  0  0  0  0
    2.3899    2.1763    3.4614 H   0  0  0  0  0  0  0  0  0  0  0  0
    1.0916    3.2020    2.8006 H   0  0  0  0  0  0  0  0  0  0  0  0
  5  6  2  0  0  0  0
  5  7  1  0  0  0  0
  2  3  1  0  0  0  0
  2  4  1  0  0  0  0
  2  5  1  0  0  0  0
  1  2  1  0  0  0  0
 24 25  2  0  0  0  0
 24 26  1  0  0  0  0
 20 21  1  0  0  0  0
 20 22  1  0  0  0  0
 20 23  1  0  0  0  0
 17 18  1  0  0  0  0
 17 19  1  0  0  0  0
 17 20  1  0  0  0  0
 13 14  1  0  0  0  0
 13 15  1  0  0  0  0
 13 16  1  0  0  0  0
 11 12  1  0  0  0  0
 11 13  1  0  0  0  0
 11 17  1  0  0  0  0
  9 10  1  0  0  0  0
  9 11  1  0  0  0  0
  9 24  1  0  0  0  0
  7  8  1  0  0  0  0
  7  9  1  0  0  0  0
 28 29  1  0  0  0  0
 28 30  1  0  0  0  0
 28 31  1  0  0  0  0
 26 27  1  0  0  0  0
 26 28  1  0  0  0  0
M  END
$$$$
default_name
  -OEChem-01062215323D

 31 30  0     1  0  0  0  0  0999 V2000
   -3.0760   -3.6390    1.5496 H   0  0  0  0  0  0  0  0  0  0  0  0
   -3.0940   -2.6290    1.1426 C   0  0  0  0  0  0  0  0  0  0  0  0
   -3.7160   -1.9930    1.7706 H   0  0  0  0  0  0  0  0  0  0  0  0
   -3.4880   -2.6500    0.1286 H   0  0  0  0  0  0  0  0  0  0  0  0
   -1.6860   -2.0850    1.1196 C   0  0  0  0  0  0  0  0  0  0  0  0
   -0.7540   -2.7700    1.5226 O   0  0  0  0  0  0  0  0  0  0  0  0
   -1.5320   -0.8490    0.6496 N   0  0  0  0  0  0  0  0  0  0  0  0
   -2.3500   -0.3360    0.3566 H   0  0  0  0  0  0  0  0  0  0  0  0
   -0.2470   -0.1410    0.5576 C   0  0  1  0  0  0  0  0  0  0  0  0
    0.5440   -0.8709    0.7329 H   0  0  0  0  0  0  0  0  0  0  0  0
   -0.0528    0.4375   -0.8672 C   0  0  1  0  0  0  0  0  0  0  0  0
   -0.9338    1.0418   -1.0918 H   0  0  0  0  0  0  0  0  0  0  0  0
    1.1818    1.3536   -0.9670 C   0  0  0  0  0  0  0  0  0  0  0  0
    2.0988    0.7791   -0.8245 H   0  0  0  0  0  0  0  0  0  0  0  0
    1.2144    1.8397   -1.9408 H   0  0  0  0  0  0  0  0  0  0  0  0
    1.1341    2.1341   -0.2068 H   0  0  0  0  0  0  0  0  0  0  0  0
    0.0113   -0.6919   -1.9197 C   0  0  0  0  0  0  0  0  0  0  0  0
    0.9328   -1.2627   -1.7974 H   0  0  0  0  0  0  0  0  0  0  0  0
   -0.8314   -1.3653   -1.7633 H   0  0  0  0  0  0  0  0  0  0  0  0
   -0.0659   -0.1909   -3.3683 C   0  0  0  0  0  0  0  0  0  0  0  0
    0.8133    0.4043   -3.6143 H   0  0  0  0  0  0  0  0  0  0  0  0
   -0.1050   -1.0465   -4.0429 H   0  0  0  0  0  0  0  0  0  0  0  0
   -0.9644    0.4113   -3.5074 H   0  0  0  0  0  0  0  0  0  0  0  0
   -0.1466    0.9232    1.6622 C   0  0  0  0  0  0  0  0  0  0  0  0
   -1.1493    1.2666    2.2866 O   0  0  0  0  0  0  0  0  0  0  0  0
    1.0636    1.4389    1.9125 N   0  0  0  0  0  0  0  0  0  0  0  0
    1.8411    1.1005    1.3679 H   0  0  0  0  0  0  0  0  0  0  0  0
    1.3247    2.4607    2.9245 C   0  0  0  0  0  0  0  0  0  0  0  0
    0.9215    2.1378    3.8868 H   0  0  0  0  0  0  0  0  0  0  0  0
    2.3979    2.6299    3.0237 H   0  0  0  0  0  0  0  0  0  0  0  0
    0.8351    3.3938    2.6392 H   0  0  0  0  0  0  0  0  0  0  0  0
  5  6  2  0  0  0  0
  5  7  1  0  0  0  0
  2  3  1  0  0  0  0
  2  4  1  0  0  0  0
  2  5  1  0  0  0  0
  1  2  1  0  0  0  0
 24 25  2  0  0  0  0
 24 26  1  0  0  0  0
 20 21  1  0  0  0  0
 20 22  1  0  0  0  0
 20 23  1  0  0  0  0
 17 18  1  0  0  0  0
 17 19  1  0  0  0  0
 17 20  1  0  0  0  0
 13 14  1  0  0  0  0
 13 15  1  0  0  0  0
 13 16  1  0  0  0  0
 11 12  1  0  0  0  0
 11 13  1  0  0  0  0
 11 17  1  0  0  0  0
  9 10  1  0  0  0  0
  9 11  1  0  0  0  0
  9 24  1  0  0  0  0
  7  8  1  0  0  0  0
  7  9  1  0  0  0  0
 28 29  1  0  0  0  0
 28 30  1  0  0  0  0
 28 31  1  0  0  0  0
 26 27  1  0  0  0  0
 26 28  1  0  0  0  0
M  END
$$$$
default_name
  -OEChem-01062215323D

 31 30  0     1  0  0  0  0  0999 V2000
   -3.0760   -3.6390    1.5496 H   0  0  0  0  0  0  0  0  0  0  0  0
   -3.0940   -2.6290    1.1426 C   0  0  0  0  0  0  0  0  0  0  0  0
   -3.7160   -1.9930    1.7706 H   0  0  0  0  0  0  0  0  0  0  0  0
   -3.4880   -2.6500    0.1286 H   0  0  0  0  0  0  0  0  0  0  0  0
   -1.6860   -2.0850    1.1196 C   0  0  0  0  0  0  0  0  0  0  0  0
   -0.7540   -2.7700    1.5226 O   0  0  0  0  0  0  0  0  0  0  0  0
   -1.5320   -0.8490    0.6496 N   0  0  0  0  0  0  0  0  0  0  0  0
   -2.3500   -0.3360    0.3566 H   0  0  0  0  0  0  0  0  0  0  0  0
   -0.2470   -0.1410    0.5576 C   0  0  1  0  0  0  0  0  0  0  0  0
    0.5369   -0.8931    0.4625 H   0  0  0  0  0  0  0  0  0  0  0  0
   -0.2116    0.7458   -0.7131 C   0  0  1  0  0  0  0  0  0  0  0  0
   -1.0947    1.3869   -0.6826 H   0  0  0  0  0  0  0  0  0  0  0  0
    1.0288    1.6584   -0.7595 C   0  0  0  0  0  0  0  0  0  0  0  0
    1.9384    1.0648   -0.8672 H   0  0  0  0  0  0  0  0  0  0  0  0
    0.9564    2.3530   -1.5948 H   0  0  0  0  0  0  0  0  0  0  0  0
    1.0986    2.2458    0.1568 H   0  0  0  0  0  0  0  0  0  0  0  0
   -0.3118   -0.1150   -1.9924 C   0  0  0  0  0  0  0  0  0  0  0  0
    0.5999   -0.7003   -2.1194 H   0  0  0  0  0  0  0  0  0  0  0  0
   -1.1491   -0.8047   -1.8863 H   0  0  0  0  0  0  0  0  0  0  0  0
   -0.5509    0.7023   -3.2692 C   0  0  0  0  0  0  0  0  0  0  0  0
    0.3092    1.3363   -3.4840 H   0  0  0  0  0  0  0  0  0  0  0  0
   -0.6987    0.0225   -4.1087 H   0  0  0  0  0  0  0  0  0  0  0  0
   -1.4409    1.3220   -3.1543 H   0  0  0  0  0  0  0  0  0  0  0  0
    0.0207    0.6441    1.8517 C   0  0  0  0  0  0  0  0  0  0  0  0
   -0.7878    0.6085    2.7782 O   0  0  0  0  0  0  0  0  0  0  0  0
    1.1593    1.3453    1.9224 N   0  0  0  0  0  0  0  0  0  0  0  0
    1.7789    1.3180    1.1280 H   0  0  0  0  0  0  0  0  0  0  0  0
    1.5571    2.1465    3.0784 C   0  0  0  0  0  0  0  0  0  0  0  0
    1.5140    1.5354    3.9826 H   0  0  0  0  0  0  0  0  0  0  0  0
    2.5729    2.5222    2.9473 H   0  0  0  0  0  0  0  0  0  0  0  0
    0.8712    2.9877    3.1957 H   0  0  0  0  0  0  0  0  0  0  0  0
  5  6  2  0  0  0  0
  5  7  1  0  0  0  0
  2  3  1  0  0  0  0
  2  4  1  0  0  0  0
  2  5  1  0  0  0  0
  1  2  1  0  0  0  0
 24 25  2  0  0  0  0
 24 26  1  0  0  0  0
 20 21  1  0  0  0  0
 20 22  1  0  0  0  0
 20 23  1  0  0  0  0
 17 18  1  0  0  0  0
 17 19  1  0  0  0  0
 17 20  1  0  0  0  0
 13 14  1  0  0  0  0
 13 15  1  0  0  0  0
 13 16  1  0  0  0  0
 11 12  1  0  0  0  0
 11 13  1  0  0  0  0
 11 17  1  0  0  0  0
  9 10  1  0  0  0  0
  9 11  1  0  0  0  0
  9 24  1  0  0  0  0
  7  8  1  0  0  0  0
  7  9  1  0  0  0  0
 28 29  1  0  0  0  0
 28 30  1  0  0  0  0
 28 31  1  0  0  0  0
 26 27  1  0  0  0  0
 26 28  1  0  0  0  0
M  END
$$$$
default_name
  -OEChem-01062215323D

 31 30  0     1  0  0  0  0  0999 V2000
   -3.0760   -3.6390    1.5496 H   0  0  0  0  0  0  0  0  0  0  0  0
   -3.0940   -2.6290    1.1426 C   0  0  0  0  0  0  0  0  0  0  0  0
   -3.7160   -1.9930    1.7706 H   0  0  0  0  0  0  0  0  0  0  0  0
   -3.4880   -2.6500    0.1286 H   0  0  0  0  0  0  0  0  0  0  0  0
   -1.6860   -2.0850    1.1196 C   0  0  0  0  0  0  0  0  0  0  0  0
   -0.7540   -2.7700    1.5226 O   0  0  0  0  0  0  0  0  0  0  0  0
   -1.5320   -0.8490    0.6496 N   0  0  0  0  0  0  0  0  0  0  0  0
   -2.3500   -0.3360    0.3566 H   0  0  0  0  0  0  0  0  0  0  0  0
   -0.2470   -0.1410    0.5576 C   0  0  1  0  0  0  0  0  0  0  0  0
    0.5369   -0.8931    0.4625 H   0  0  0  0  0  0  0  0  0  0  0  0
   -0.2116    0.7458   -0.7131 C   0  0  1  0  0  0  0  0  0  0  0  0
   -1.0947    1.3869   -0.6826 H   0  0  0  0  0  0  0  0  0  0  0  0
    1.0288    1.6584   -0.7595 C   0  0  0  0  0  0  0  0  0  0  0  0
    1.9384    1.0648   -0.8672 H   0  0  0  0  0  0  0  0  0  0  0  0
    0.9564    2.3530   -1.5948 H   0  0  0  0  0  0  0  0  0  0  0  0
    1.0986    2.2458    0.1568 H   0  0  0  0  0  0  0  0  0  0  0  0
   -0.3118   -0.1150   -1.9924 C   0  0  0  0  0  0  0  0  0  0  0  0
    0.5999   -0.7003   -2.1194 H   0  0  0  0  0  0  0  0  0  0  0  0
   -1.1491   -0.8047   -1.8863 H   0  0  0  0  0  0  0  0  0  0  0  0
   -0.5509    0.7023   -3.2692 C   0  0  0  0  0  0  0  0  0  0  0  0
    0.3092    1.3363   -3.4840 H   0  0  0  0  0  0  0  0  0  0  0  0
   -0.6987    0.0225   -4.1087 H   0  0  0  0  0  0  0  0  0  0  0  0
   -1.4409    1.3220   -3.1543 H   0  0  0  0  0  0  0  0  0  0  0  0
    0.0207    0.6441    1.8517 C   0  0  0  0  0  0  0  0  0  0  0  0
   -0.6263    0.4026    2.8697 O   0  0  0  0  0  0  0  0  0  0  0  0
    0.9807    1.5771    1.8188 N   0  0  0  0  0  0  0  0  0  0  0  0
    1.4767    1.7115    0.9518 H   0  0  0  0  0  0  0  0  0  0  0  0
    1.3518    2.4107    2.9605 C   0  0  0  0  0  0  0  0  0  0  0  0
    1.5655    1.7780    3.8248 H   0  0  0  0  0  0  0  0  0  0  0  0
    2.2353    3.0054    2.7241 H   0  0  0  0  0  0  0  0  0  0  0  0
    0.5239    3.0756    3.2142 H   0  0  0  0  0  0  0  0  0  0  0  0
  5  6  2  0  0  0  0
  5  7  1  0  0  0  0
  2  3  1  0  0  0  0
  2  4  1  0  0  0  0
  2  5  1  0  0  0  0
  1  2  1  0  0  0  0
 24 25  2  0  0  0  0
 24 26  1  0  0  0  0
 20 21  1  0  0  0  0
 20 22  1  0  0  0  0
 20 23  1  0  0  0  0
 17 18  1  0  0  0  0
 17 19  1  0  0  0  0
 17 20  1  0  0  0  0
 13 14  1  0  0  0  0
 13 15  1  0  0  0  0
 13 16  1  0  0  0  0
 11 12  1  0  0  0  0
 11 13  1  0  0  0  0
 11 17  1  0  0  0  0
  9 10  1  0  0  0  0
  9 11  1  0  0  0  0
  9 24  1  0  0  0  0
  7  8  1  0  0  0  0
  7  9  1  0  0  0  0
 28 29  1  0  0  0  0
 28 30  1  0  0  0  0
 28 31  1  0  0  0  0
 26 27  1  0  0  0  0
 26 28  1  0  0  0  0
M  END
$$$$
default_name
  -OEChem-01062215323D

 31 30  0     1  0  0  0  0  0999 V2000
   -3.0760   -3.6390    1.5496 H   0  0  0  0  0  0  0  0  0  0  0  0
   -3.0940   -2.6290    1.1426 C   0  0  0  0  0  0  0  0  0  0  0  0
   -3.7160   -1.9930    1.7706 H   0  0  0  0  0  0  0  0  0  0  0  0
   -3.4880   -2.6500    0.1286 H   0  0  0  0  0  0  0  0  0  0  0  0
   -1.6860   -2.0850    1.1196 C   0  0  0  0  0  0  0  0  0  0  0  0
   -0.7540   -2.7700    1.5226 O   0  0  0  0  0  0  0  0  0  0  0  0
   -1.5320   -0.8490    0.6496 N   0  0  0  0  0  0  0  0  0  0  0  0
   -2.3500   -0.3360    0.3566 H   0  0  0  0  0  0  0  0  0  0  0  0
   -0.2470   -0.1410    0.5576 C   0  0  1  0  0  0  0  0  0  0  0  0
    0.5369   -0.8931    0.4625 H   0  0  0  0  0  0  0  0  0  0  0  0
   -0.2116    0.7458   -0.7131 C   0  0  1  0  0  0  0  0  0  0  0  0
   -1.0947    1.3869   -0.6826 H   0  0  0  0  0  0  0  0  0  0  0  0
    1.0288    1.6584   -0.7595 C   0  0  0  0  0  0  0  0  0  0  0  0
    1.9384    1.0648   -0.8672 H   0  0  0  0  0  0  0  0  0  0  0  0
    0.9564    2.3530   -1.5948 H   0  0  0  0  0  0  0  0  0  0  0  0
    1.0986    2.2458    0.1568 H   0  0  0  0  0  0  0  0  0  0  0  0
   -0.3118   -0.1150   -1.9924 C   0  0  0  0  0  0  0  0  0  0  0  0
    0.5999   -0.7003   -2.1194 H   0  0  0  0  0  0  0  0  0  0  0  0
   -1.1491   -0.8047   -1.8863 H   0  0  0  0  0  0  0  0  0  0  0  0
   -0.5509    0.7023   -3.2692 C   0  0  0  0  0  0  0  0  0  0  0  0
    0.3092    1.3363   -3.4840 H   0  0  0  0  0  0  0  0  0  0  0  0
   -0.6987    0.0225   -4.1087 H   0  0  0  0  0  0  0  0  0  0  0  0
   -1.4409    1.3220   -3.1543 H   0  0  0  0  0  0  0  0  0  0  0  0
    0.0207    0.6441    1.8517 C   0  0  0  0  0  0  0  0  0  0  0  0
   -0.4134    0.2347    2.9275 O   0  0  0  0  0  0  0  0  0  0  0  0
    0.7440    1.7667    1.7527 N   0  0  0  0  0  0  0  0  0  0  0  0
    1.0758    2.0336    0.8393 H   0  0  0  0  0  0  0  0  0  0  0  0
    1.0803    2.6265    2.8858 C   0  0  0  0  0  0  0  0  0  0  0  0
    1.5415    2.0307    3.6765 H   0  0  0  0  0  0  0  0  0  0  0  0
    1.7744    3.4086    2.5748 H   0  0  0  0  0  0  0  0  0  0  0  0
    0.1717    3.0841    3.2819 H   0  0  0  0  0  0  0  0  0  0  0  0
  5  6  2  0  0  0  0
  5  7  1  0  0  0  0
  2  3  1  0  0  0  0
  2  4  1  0  0  0  0
  2  5  1  0  0  0  0
  1  2  1  0  0  0  0
 24 25  2  0  0  0  0
 24 26  1  0  0  0  0
 20 21  1  0  0  0  0
 20 22  1  0  0  0  0
 20 23  1  0  0  0  0
 17 18  1  0  0  0  0
 17 19  1  0  0  0  0
 17 20  1  0  0  0  0
 13 14  1  0  0  0  0
 13 15  1  0  0  0  0
 13 16  1  0  0  0  0
 11 12  1  0  0  0  0
 11 13  1  0  0  0  0
 11 17  1  0  0  0  0
  9 10  1  0  0  0  0
  9 11  1  0  0  0  0
  9 24  1  0  0  0  0
  7  8  1  0  0  0  0
  7  9  1  0  0  0  0
 28 29  1  0  0  0  0
 28 30  1  0  0  0  0
 28 31  1  0  0  0  0
 26 27  1  0  0  0  0
 26 28  1  0  0  0  0
M  END
$$$$
default_name
  -OEChem-01062215323D

 31 30  0     1  0  0  0  0  0999 V2000
   -3.0760   -3.6390    1.5496 H   0  0  0  0  0  0  0  0  0  0  0  0
   -3.0940   -2.6290    1.1426 C   0  0  0  0  0  0  0  0  0  0  0  0
   -3.7160   -1.9930    1.7706 H   0  0  0  0  0  0  0  0  0  0  0  0
   -3.4880   -2.6500    0.1286 H   0  0  0  0  0  0  0  0  0  0  0  0
   -1.6860   -2.0850    1.1196 C   0  0  0  0  0  0  0  0  0  0  0  0
   -0.7540   -2.7700    1.5226 O   0  0  0  0  0  0  0  0  0  0  0  0
   -1.5320   -0.8490    0.6496 N   0  0  0  0  0  0  0  0  0  0  0  0
   -2.3500   -0.3360    0.3566 H   0  0  0  0  0  0  0  0  0  0  0  0
   -0.2470   -0.1410    0.5576 C   0  0  1  0  0  0  0  0  0  0  0  0
    0.5369   -0.8931    0.4625 H   0  0  0  0  0  0  0  0  0  0  0  0
   -0.2116    0.7458   -0.7131 C   0  0  1  0  0  0  0  0  0  0  0  0
   -1.0947    1.3869   -0.6826 H   0  0  0  0  0  0  0  0  0  0  0  0
    1.0288    1.6584   -0.7595 C   0  0  0  0  0  0  0  0  0  0  0  0
    1.9384    1.0648   -0.8672 H   0  0  0  0  0  0  0  0  0  0  0  0
    0.9564    2.3530   -1.5948 H   0  0  0  0  0  0  0  0  0  0  0  0
    1.0986    2.2458    0.1568 H   0  0  0  0  0  0  0  0  0  0  0  0
   -0.3118   -0.1150   -1.9924 C   0  0  0  0  0  0  0  0  0  0  0  0
    0.5999   -0.7003   -2.1194 H   0  0  0  0  0  0  0  0  0  0  0  0
   -1.1491   -0.8047   -1.8863 H   0  0  0  0  0  0  0  0  0  0  0  0
   -0.5509    0.7023   -3.2692 C   0  0  0  0  0  0  0  0  0  0  0  0
    0.3092    1.3363   -3.4840 H   0  0  0  0  0  0  0  0  0  0  0  0
   -0.6987    0.0225   -4.1087 H   0  0  0  0  0  0  0  0  0  0  0  0
   -1.4409    1.3220   -3.1543 H   0  0  0  0  0  0  0  0  0  0  0  0
    0.0207    0.6441    1.8517 C   0  0  0  0  0  0  0  0  0  0  0  0
   -0.1635    0.1164    2.9475 O   0  0  0  0  0  0  0  0  0  0  0  0
    0.4654    1.9012    1.7288 N   0  0  0  0  0  0  0  0  0  0  0  0
    0.6035    2.2625    0.7982 H   0  0  0  0  0  0  0  0  0  0  0  0
    0.7612    2.7792    2.8592 C   0  0  0  0  0  0  0  0  0  0  0  0
    1.4436    2.2762    3.5478 H   0  0  0  0  0  0  0  0  0  0  0  0
    1.2217    3.7044    2.5097 H   0  0  0  0  0  0  0  0  0  0  0  0
   -0.1613    3.0125    3.3943 H   0  0  0  0  0  0  0  0  0  0  0  0
  5  6  2  0  0  0  0
  5  7  1  0  0  0  0
  2  3  1  0  0  0  0
  2  4  1  0  0  0  0
  2  5  1  0  0  0  0
  1  2  1  0  0  0  0
 24 25  2  0  0  0  0
 24 26  1  0  0  0  0
 20 21  1  0  0  0  0
 20 22  1  0  0  0  0
 20 23  1  0  0  0  0
 17 18  1  0  0  0  0
 17 19  1  0  0  0  0
 17 20  1  0  0  0  0
 13 14  1  0  0  0  0
 13 15  1  0  0  0  0
 13 16  1  0  0  0  0
 11 12  1  0  0  0  0
 11 13  1  0  0  0  0
 11 17  1  0  0  0  0
  9 10  1  0  0  0  0
  9 11  1  0  0  0  0
  9 24  1  0  0  0  0
  7  8  1  0  0  0  0
  7  9  1  0  0  0  0
 28 29  1  0  0  0  0
 28 30  1  0  0  0  0
 28 31  1  0  0  0  0
 26 27  1  0  0  0  0
 26 28  1  0  0  0  0
M  END
$$$$
default_name
  -OEChem-01062215323D

 31 30  0     1  0  0  0  0  0999 V2000
   -3.0760   -3.6390    1.5496 H   0  0  0  0  0  0  0  0  0  0  0  0
   -3.0940   -2.6290    1.1426 C   0  0  0  0  0  0  0  0  0  0  0  0
   -3.7160   -1.9930    1.7706 H   0  0  0  0  0  0  0  0  0  0  0  0
   -3.4880   -2.6500    0.1286 H   0  0  0  0  0  0  0  0  0  0  0  0
   -1.6860   -2.0850    1.1196 C   0  0  0  0  0  0  0  0  0  0  0  0
   -0.7540   -2.7700    1.5226 O   0  0  0  0  0  0  0  0  0  0  0  0
   -1.5320   -0.8490    0.6496 N   0  0  0  0  0  0  0  0  0  0  0  0
   -2.3500   -0.3360    0.3566 H   0  0  0  0  0  0  0  0  0  0  0  0
   -0.2470   -0.1410    0.5576 C   0  0  1  0  0  0  0  0  0  0  0  0
    0.5369   -0.8931    0.4625 H   0  0  0  0  0  0  0  0  0  0  0  0
   -0.2116    0.7458   -0.7131 C   0  0  1  0  0  0  0  0  0  0  0  0
   -1.0947    1.3869   -0.6826 H   0  0  0  0  0  0  0  0  0  0  0  0
    1.0288    1.6584   -0.7595 C   0  0  0  0  0  0  0  0  0  0  0  0
    1.9384    1.0648   -0.8672 H   0  0  0  0  0  0  0  0  0  0  0  0
    0.9564    2.3530   -1.5948 H   0  0  0  0  0  0  0  0  0  0  0  0
    1.0986    2.2458    0.1568 H   0  0  0  0  0  0  0  0  0  0  0  0
   -0.3118   -0.1150   -1.9924 C   0  0  0  0  0  0  0  0  0  0  0  0
    0.5999   -0.7003   -2.1194 H   0  0  0  0  0  0  0  0  0  0  0  0
   -1.1491   -0.8047   -1.8863 H   0  0  0  0  0  0  0  0  0  0  0  0
   -0.5509    0.7023   -3.2692 C   0  0  0  0  0  0  0  0  0  0  0  0
    0.3092    1.3363   -3.4840 H   0  0  0  0  0  0  0  0  0  0  0  0
   -0.6987    0.0225   -4.1087 H   0  0  0  0  0  0  0  0  0  0  0  0
   -1.4409    1.3220   -3.1543 H   0  0  0  0  0  0  0  0  0  0  0  0
    0.0207    0.6441    1.8517 C   0  0  0  0  0  0  0  0  0  0  0  0
    0.1063    0.0556    2.9286 O   0  0  0  0  0  0  0  0  0  0  0  0
    0.1637    1.9715    1.7485 N   0  0  0  0  0  0  0  0  0  0  0  0
    0.0919    2.3826    0.8312 H   0  0  0  0  0  0  0  0  0  0  0  0
    0.4162    2.8584    2.8826 C   0  0  0  0  0  0  0  0  0  0  0  0
    1.2786    2.4978    3.4475 H   0  0  0  0  0  0  0  0  0  0  0  0
    0.6147    3.8727    2.5333 H   0  0  0  0  0  0  0  0  0  0  0  0
   -0.4526    2.8656    3.5436 H   0  0  0  0  0  0  0  0  0  0  0  0
  5  6  2  0  0  0  0
  5  7  1  0  0  0  0
  2  3  1  0  0  0  0
  2  4  1  0  0  0  0
  2  5  1  0  0  0  0
  1  2  1  0  0  0  0
 24 25  2  0  0  0  0
 24 26  1  0  0  0  0
 20 21  1  0  0  0  0
 20 22  1  0  0  0  0
 20 23  1  0  0  0  0
 17 18  1  0  0  0  0
 17 19  1  0  0  0  0
 17 20  1  0  0  0  0
 13 14  1  0  0  0  0
 13 15  1  0  0  0  0
 13 16  1  0  0  0  0
 11 12  1  0  0  0  0
 11 13  1  0  0  0  0
 11 17  1  0  0  0  0
  9 10  1  0  0  0  0
  9 11  1  0  0  0  0
  9 24  1  0  0  0  0
  7  8  1  0  0  0  0
  7  9  1  0  0  0  0
 28 29  1  0  0  0  0
 28 30  1  0  0  0  0
 28 31  1  0  0  0  0
 26 27  1  0  0  0  0
 26 28  1  0  0  0  0
M  END
$$$$
default_name
  -OEChem-01062215323D

 31 30  0     1  0  0  0  0  0999 V2000
   -3.0760   -3.6390    1.5496 H   0  0  0  0  0  0  0  0  0  0  0  0
   -3.0940   -2.6290    1.1426 C   0  0  0  0  0  0  0  0  0  0  0  0
   -3.7160   -1.9930    1.7706 H   0  0  0  0  0  0  0  0  0  0  0  0
   -3.4880   -2.6500    0.1286 H   0  0  0  0  0  0  0  0  0  0  0  0
   -1.6860   -2.0850    1.1196 C   0  0  0  0  0  0  0  0  0  0  0  0
   -0.7540   -2.7700    1.5226 O   0  0  0  0  0  0  0  0  0  0  0  0
   -1.5320   -0.8490    0.6496 N   0  0  0  0  0  0  0  0  0  0  0  0
   -2.3500   -0.3360    0.3566 H   0  0  0  0  0  0  0  0  0  0  0  0
   -0.2470   -0.1410    0.5576 C   0  0  1  0  0  0  0  0  0  0  0  0
    0.5369   -0.8931    0.4625 H   0  0  0  0  0  0  0  0  0  0  0  0
   -0.2116    0.7458   -0.7131 C   0  0  1  0  0  0  0  0  0  0  0  0
   -1.0947    1.3869   -0.6826 H   0  0  0  0  0  0  0  0  0  0  0  0
    1.0288    1.6584   -0.7595 C   0  0  0  0  0  0  0  0  0  0  0  0
    1.9384    1.0648   -0.8672 H   0  0  0  0  0  0  0  0  0  0  0  0
    0.9564    2.3530   -1.5948 H   0  0  0  0  0  0  0  0  0  0  0  0
    1.0986    2.2458    0.1568 H   0  0  0  0  0  0  0  0  0  0  0  0
   -0.3118   -0.1150   -1.9924 C   0  0  0  0  0  0  0  0  0  0  0  0
    0.5999   -0.7003   -2.1194 H   0  0  0  0  0  0  0  0  0  0  0  0
   -1.1491   -0.8047   -1.8863 H   0  0  0  0  0  0  0  0  0  0  0  0
   -0.5509    0.7023   -3.2692 C   0  0  0  0  0  0  0  0  0  0  0  0
    0.3092    1.3363   -3.4840 H   0  0  0  0  0  0  0  0  0  0  0  0
   -0.6987    0.0225   -4.1087 H   0  0  0  0  0  0  0  0  0  0  0  0
   -1.4409    1.3220   -3.1543 H   0  0  0  0  0  0  0  0  0  0  0  0
    0.0207    0.6441    1.8517 C   0  0  0  0  0  0  0  0  0  0  0  0
    0.3776    0.0565    2.8719 O   0  0  0  0  0  0  0  0  0  0  0  0
   -0.1404    1.9728    1.8107 N   0  0  0  0  0  0  0  0  0  0  0  0
   -0.4240    2.3856    0.9361 H   0  0  0  0  0  0  0  0  0  0  0  0
    0.0687    2.8586    2.9543 C   0  0  0  0  0  0  0  0  0  0  0  0
    1.0577    2.6805    3.3824 H   0  0  0  0  0  0  0  0  0  0  0  0
   -0.0052    3.9018    2.6438 H   0  0  0  0  0  0  0  0  0  0  0  0
   -0.6822    2.6536    3.7198 H   0  0  0  0  0  0  0  0  0  0  0  0
  5  6  2  0  0  0  0
  5  7  1  0  0  0  0
  2  3  1  0  0  0  0
  2  4  1  0  0  0  0
  2  5  1  0  0  0  0
  1  2  1  0  0  0  0
 24 25  2  0  0  0  0
 24 26  1  0  0  0  0
 20 21  1  0  0  0  0
 20 22  1  0  0  0  0
 20 23  1  0  0  0  0
 17 18  1  0  0  0  0
 17 19  1  0  0  0  0
 17 20  1  0  0  0  0
 13 14  1  0  0  0  0
 13 15  1  0  0  0  0
 13 16  1  0  0  0  0
 11 12  1  0  0  0  0
 11 13  1  0  0  0  0
 11 17  1  0  0  0  0
  9 10  1  0  0  0  0
  9 11  1  0  0  0  0
  9 24  1  0  0  0  0
  7  8  1  0  0  0  0
  7  9  1  0  0  0  0
 28 29  1  0  0  0  0
 28 30  1  0  0  0  0
 28 31  1  0  0  0  0
 26 27  1  0  0  0  0
 26 28  1  0  0  0  0
M  END
$$$$
default_name
  -OEChem-01062215323D

 31 30  0     1  0  0  0  0  0999 V2000
   -3.0760   -3.6390    1.5496 H   0  0  0  0  0  0  0  0  0  0  0  0
   -3.0940   -2.6290    1.1426 C   0  0  0  0  0  0  0  0  0  0  0  0
   -3.7160   -1.9930    1.7706 H   0  0  0  0  0  0  0  0  0  0  0  0
   -3.4880   -2.6500    0.1286 H   0  0  0  0  0  0  0  0  0  0  0  0
   -1.6860   -2.0850    1.1196 C   0  0  0  0  0  0  0  0  0  0  0  0
   -0.7540   -2.7700    1.5226 O   0  0  0  0  0  0  0  0  0  0  0  0
   -1.5320   -0.8490    0.6496 N   0  0  0  0  0  0  0  0  0  0  0  0
   -2.3500   -0.3360    0.3566 H   0  0  0  0  0  0  0  0  0  0  0  0
   -0.2470   -0.1410    0.5576 C   0  0  1  0  0  0  0  0  0  0  0  0
    0.5369   -0.8931    0.4625 H   0  0  0  0  0  0  0  0  0  0  0  0
   -0.2116    0.7458   -0.7131 C   0  0  1  0  0  0  0  0  0  0  0  0
   -1.0947    1.3869   -0.6826 H   0  0  0  0  0  0  0  0  0  0  0  0
    1.0288    1.6584   -0.7595 C   0  0  0  0  0  0  0  0  0  0  0  0
    1.9384    1.0648   -0.8672 H   0  0  0  0  0  0  0  0  0  0  0  0
    0.9564    2.3530   -1.5948 H   0  0  0  0  0  0  0  0  0  0  0  0
    1.0986    2.2458    0.1568 H   0  0  0  0  0  0  0  0  0  0  0  0
   -0.3118   -0.1150   -1.9924 C   0  0  0  0  0  0  0  0  0  0  0  0
    0.5999   -0.7003   -2.1194 H   0  0  0  0  0  0  0  0  0  0  0  0
   -1.1491   -0.8047   -1.8863 H   0  0  0  0  0  0  0  0  0  0  0  0
   -0.5509    0.7023   -3.2692 C   0  0  0  0  0  0  0  0  0  0  0  0
    0.3092    1.3363   -3.4840 H   0  0  0  0  0  0  0  0  0  0  0  0
   -0.6987    0.0225   -4.1087 H   0  0  0  0  0  0  0  0  0  0  0  0
   -1.4409    1.3220   -3.1543 H   0  0  0  0  0  0  0  0  0  0  0  0
    0.0207    0.6441    1.8517 C   0  0  0  0  0  0  0  0  0  0  0  0
    0.6320    0.1191    2.7812 O   0  0  0  0  0  0  0  0  0  0  0  0
   -0.4262    1.9050    1.9110 N   0  0  0  0  0  0  0  0  0  0  0  0
   -0.9091    2.2714    1.1058 H   0  0  0  0  0  0  0  0  0  0  0  0
   -0.2574    2.7799    3.0696 C   0  0  0  0  0  0  0  0  0  0  0  0
    0.7958    2.8117    3.3570 H   0  0  0  0  0  0  0  0  0  0  0  0
   -0.5956    3.7900    2.8339 H   0  0  0  0  0  0  0  0  0  0  0  0
   -0.8345    2.3909    3.9107 H   0  0  0  0  0  0  0  0  0  0  0  0
  5  6  2  0  0  0  0
  5  7  1  0  0  0  0
  2  3  1  0  0  0  0
  2  4  1  0  0  0  0
  2  5  1  0  0  0  0
  1  2  1  0  0  0  0
 24 25  2  0  0  0  0
 24 26  1  0  0  0  0
 20 21  1  0  0  0  0
 20 22  1  0  0  0  0
 20 23  1  0  0  0  0
 17 18  1  0  0  0  0
 17 19  1  0  0  0  0
 17 20  1  0  0  0  0
 13 14  1  0  0  0  0
 13 15  1  0  0  0  0
 13 16  1  0  0  0  0
 11 12  1  0  0  0  0
 11 13  1  0  0  0  0
 11 17  1  0  0  0  0
  9 10  1  0  0  0  0
  9 11  1  0  0  0  0
  9 24  1  0  0  0  0
  7  8  1  0  0  0  0
  7  9  1  0  0  0  0
 28 29  1  0  0  0  0
 28 30  1  0  0  0  0
 28 31  1  0  0  0  0
 26 27  1  0  0  0  0
 26 28  1  0  0  0  0
M  END
$$$$
default_name
  -OEChem-01062215323D

 31 30  0     1  0  0  0  0  0999 V2000
   -3.0760   -3.6390    1.5496 H   0  0  0  0  0  0  0  0  0  0  0  0
   -3.0940   -2.6290    1.1426 C   0  0  0  0  0  0  0  0  0  0  0  0
   -3.7160   -1.9930    1.7706 H   0  0  0  0  0  0  0  0  0  0  0  0
   -3.4880   -2.6500    0.1286 H   0  0  0  0  0  0  0  0  0  0  0  0
   -1.6860   -2.0850    1.1196 C   0  0  0  0  0  0  0  0  0  0  0  0
   -0.7540   -2.7700    1.5226 O   0  0  0  0  0  0  0  0  0  0  0  0
   -1.5320   -0.8490    0.6496 N   0  0  0  0  0  0  0  0  0  0  0  0
   -2.3500   -0.3360    0.3566 H   0  0  0  0  0  0  0  0  0  0  0  0
   -0.2470   -0.1410    0.5576 C   0  0  1  0  0  0  0  0  0  0  0  0
    0.5369   -0.8931    0.4625 H   0  0  0  0  0  0  0  0  0  0  0  0
   -0.2116    0.7458   -0.7131 C   0  0  1  0  0  0  0  0  0  0  0  0
   -1.0947    1.3869   -0.6826 H   0  0  0  0  0  0  0  0  0  0  0  0
    1.0288    1.6584   -0.7595 C   0  0  0  0  0  0  0  0  0  0  0  0
    1.9384    1.0648   -0.8672 H   0  0  0  0  0  0  0  0  0  0  0  0
    0.9564    2.3530   -1.5948 H   0  0  0  0  0  0  0  0  0  0  0  0
    1.0986    2.2458    0.1568 H   0  0  0  0  0  0  0  0  0  0  0  0
   -0.3118   -0.1150   -1.9924 C   0  0  0  0  0  0  0  0  0  0  0  0
    0.5999   -0.7003   -2.1194 H   0  0  0  0  0  0  0  0  0  0  0  0
   -1.1491   -0.8047   -1.8863 H   0  0  0  0  0  0  0  0  0  0  0  0
   -0.5509    0.7023   -3.2692 C   0  0  0  0  0  0  0  0  0  0  0  0
    0.3092    1.3363   -3.4840 H   0  0  0  0  0  0  0  0  0  0  0  0
   -0.6987    0.0225   -4.1087 H   0  0  0  0  0  0  0  0  0  0  0  0
   -1.4409    1.3220   -3.1543 H   0  0  0  0  0  0  0  0  0  0  0  0
    0.0207    0.6441    1.8517 C   0  0  0  0  0  0  0  0  0  0  0  0
    0.8522    0.2391    2.6629 O   0  0  0  0  0  0  0  0  0  0  0  0
   -0.6742    1.7727    2.0425 N   0  0  0  0  0  0  0  0  0  0  0  0
   -1.3303    2.0477    1.3287 H   0  0  0  0  0  0  0  0  0  0  0  0
   -0.5401    2.6275    3.2205 C   0  0  0  0  0  0  0  0  0  0  0  0
    0.5110    2.8825    3.3730 H   0  0  0  0  0  0  0  0  0  0  0  0
   -1.1165    3.5447    3.0905 H   0  0  0  0  0  0  0  0  0  0  0  0
   -0.8991    2.0952    4.1034 H   0  0  0  0  0  0  0  0  0  0  0  0
  5  6  2  0  0  0  0
  5  7  1  0  0  0  0
  2  3  1  0  0  0  0
  2  4  1  0  0  0  0
  2  5  1  0  0  0  0
  1  2  1  0  0  0  0
 24 25  2  0  0  0  0
 24 26  1  0  0  0  0
 20 21  1  0  0  0  0
 20 22  1  0  0  0  0
 20 23  1  0  0  0  0
 17 18  1  0  0  0  0
 17 19  1  0  0  0  0
 17 20  1  0  0  0  0
 13 14  1  0  0  0  0
 13 15  1  0  0  0  0
 13 16  1  0  0  0  0
 11 12  1  0  0  0  0
 11 13  1  0  0  0  0
 11 17  1  0  0  0  0
  9 10  1  0  0  0  0
  9 11  1  0  0  0  0
  9 24  1  0  0  0  0
  7  8  1  0  0  0  0
  7  9  1  0  0  0  0
 28 29  1  0  0  0  0
 28 30  1  0  0  0  0
 28 31  1  0  0  0  0
 26 27  1  0  0  0  0
 26 28  1  0  0  0  0
M  END
$$$$
default_name
  -OEChem-01062215323D

 31 30  0     1  0  0  0  0  0999 V2000
   -3.0760   -3.6390    1.5496 H   0  0  0  0  0  0  0  0  0  0  0  0
   -3.0940   -2.6290    1.1426 C   0  0  0  0  0  0  0  0  0  0  0  0
   -3.7160   -1.9930    1.7706 H   0  0  0  0  0  0  0  0  0  0  0  0
   -3.4880   -2.6500    0.1286 H   0  0  0  0  0  0  0  0  0  0  0  0
   -1.6860   -2.0850    1.1196 C   0  0  0  0  0  0  0  0  0  0  0  0
   -0.7540   -2.7700    1.5226 O   0  0  0  0  0  0  0  0  0  0  0  0
   -1.5320   -0.8490    0.6496 N   0  0  0  0  0  0  0  0  0  0  0  0
   -2.3500   -0.3360    0.3566 H   0  0  0  0  0  0  0  0  0  0  0  0
   -0.2470   -0.1410    0.5576 C   0  0  1  0  0  0  0  0  0  0  0  0
    0.5369   -0.8931    0.4625 H   0  0  0  0  0  0  0  0  0  0  0  0
   -0.2116    0.7458   -0.7131 C   0  0  1  0  0  0  0  0  0  0  0  0
   -1.0947    1.3869   -0.6826 H   0  0  0  0  0  0  0  0  0  0  0  0
    1.0288    1.6584   -0.7595 C   0  0  0  0  0  0  0  0  0  0  0  0
    1.9384    1.0648   -0.8672 H   0  0  0  0  0  0  0  0  0  0  0  0
    0.9564    2.3530   -1.5948 H   0  0  0  0  0  0  0  0  0  0  0  0
    1.0986    2.2458    0.1568 H   0  0  0  0  0  0  0  0  0  0  0  0
   -0.3118   -0.1150   -1.9924 C   0  0  0  0  0  0  0  0  0  0  0  0
    0.5999   -0.7003   -2.1194 H   0  0  0  0  0  0  0  0  0  0  0  0
   -1.1491   -0.8047   -1.8863 H   0  0  0  0  0  0  0  0  0  0  0  0
   -0.5509    0.7023   -3.2692 C   0  0  0  0  0  0  0  0  0  0  0  0
    0.3092    1.3363   -3.4840 H   0  0  0  0  0  0  0  0  0  0  0  0
   -0.6987    0.0225   -4.1087 H   0  0  0  0  0  0  0  0  0  0  0  0
   -1.4409    1.3220   -3.1543 H   0  0  0  0  0  0  0  0  0  0  0  0
    0.0207    0.6441    1.8517 C   0  0  0  0  0  0  0  0  0  0  0  0
    1.0230    0.4083    2.5249 O   0  0  0  0  0  0  0  0  0  0  0  0
   -0.8676    1.5849    2.1965 N   0  0  0  0  0  0  0  0  0  0  0  0
   -1.6590    1.7297    1.5896 H   0  0  0  0  0  0  0  0  0  0  0  0
   -0.7600    2.4120    3.3967 C   0  0  0  0  0  0  0  0  0  0  0  0
    0.2225    2.8881    3.4292 H   0  0  0  0  0  0  0  0  0  0  0  0
   -1.5322    3.1827    3.3961 H   0  0  0  0  0  0  0  0  0  0  0  0
   -0.8716    1.7869    4.2847 H   0  0  0  0  0  0  0  0  0  0  0  0
  5  6  2  0  0  0  0
  5  7  1  0  0  0  0
  2  3  1  0  0  0  0
  2  4  1  0  0  0  0
  2  5  1  0  0  0  0
  1  2  1  0  0  0  0
 24 25  2  0  0  0  0
 24 26  1  0  0  0  0
 20 21  1  0  0  0  0
 20 22  1  0  0  0  0
 20 23  1  0  0  0  0
 17 18  1  0  0  0  0
 17 19  1  0  0  0  0
 17 20  1  0  0  0  0
 13 14  1  0  0  0  0
 13 15  1  0  0  0  0
 13 16  1  0  0  0  0
 11 12  1  0  0  0  0
 11 13  1  0  0  0  0
 11 17  1  0  0  0  0
  9 10  1  0  0  0  0
  9 11  1  0  0  0  0
  9 24  1  0  0  0  0
  7  8  1  0  0  0  0
  7  9  1  0  0  0  0
 28 29  1  0  0  0  0
 28 30  1  0  0  0  0
 28 31  1  0  0  0  0
 26 27  1  0  0  0  0
 26 28  1  0  0  0  0
M  END
$$$$
default_name
  -OEChem-01062215323D

 31 30  0     1  0  0  0  0  0999 V2000
   -3.0760   -3.6390    1.5496 H   0  0  0  0  0  0  0  0  0  0  0  0
   -3.0940   -2.6290    1.1426 C   0  0  0  0  0  0  0  0  0  0  0  0
   -3.7160   -1.9930    1.7706 H   0  0  0  0  0  0  0  0  0  0  0  0
   -3.4880   -2.6500    0.1286 H   0  0  0  0  0  0  0  0  0  0  0  0
   -1.6860   -2.0850    1.1196 C   0  0  0  0  0  0  0  0  0  0  0  0
   -0.7540   -2.7700    1.5226 O   0  0  0  0  0  0  0  0  0  0  0  0
   -1.5320   -0.8490    0.6496 N   0  0  0  0  0  0  0  0  0  0  0  0
   -2.3500   -0.3360    0.3566 H   0  0  0  0  0  0  0  0  0  0  0  0
   -0.2470   -0.1410    0.5576 C   0  0  1  0  0  0  0  0  0  0  0  0
    0.5369   -0.8931    0.4625 H   0  0  0  0  0  0  0  0  0  0  0  0
   -0.2116    0.7458   -0.7131 C   0  0  1  0  0  0  0  0  0  0  0  0
   -1.0947    1.3869   -0.6826 H   0  0  0  0  0  0  0  0  0  0  0  0
    1.0288    1.6584   -0.7595 C   0  0  0  0  0  0  0  0  0  0  0  0
    1.9384    1.0648   -0.8672 H   0  0  0  0  0  0  0  0  0  0  0  0
    0.9564    2.3530   -1.5948 H   0  0  0  0  0  0  0  0  0  0  0  0
    1.0986    2.2458    0.1568 H   0  0  0  0  0  0  0  0  0  0  0  0
   -0.3118   -0.1150   -1.9924 C   0  0  0  0  0  0  0  0  0  0  0  0
    0.5999   -0.7003   -2.1194 H   0  0  0  0  0  0  0  0  0  0  0  0
   -1.1491   -0.8047   -1.8863 H   0  0  0  0  0  0  0  0  0  0  0  0
   -0.5509    0.7023   -3.2692 C   0  0  0  0  0  0  0  0  0  0  0  0
    0.3092    1.3363   -3.4840 H   0  0  0  0  0  0  0  0  0  0  0  0
   -0.6987    0.0225   -4.1087 H   0  0  0  0  0  0  0  0  0  0  0  0
   -1.4409    1.3220   -3.1543 H   0  0  0  0  0  0  0  0  0  0  0  0
    0.0207    0.6441    1.8517 C   0  0  0  0  0  0  0  0  0  0  0  0
    1.1329    0.6152    2.3767 O   0  0  0  0  0  0  0  0  0  0  0  0
   -0.9931    1.3544    2.3622 N   0  0  0  0  0  0  0  0  0  0  0  0
   -1.8727    1.3393    1.8707 H   0  0  0  0  0  0  0  0  0  0  0  0
   -0.9021    2.1480    3.5863 C   0  0  0  0  0  0  0  0  0  0  0  0
   -0.0499    2.8282    3.5220 H   0  0  0  0  0  0  0  0  0  0  0  0
   -1.8145    2.7286    3.7299 H   0  0  0  0  0  0  0  0  0  0  0  0
   -0.7539    1.4870    4.4424 H   0  0  0  0  0  0  0  0  0  0  0  0
  5  6  2  0  0  0  0
  5  7  1  0  0  0  0
  2  3  1  0  0  0  0
  2  4  1  0  0  0  0
  2  5  1  0  0  0  0
  1  2  1  0  0  0  0
 24 25  2  0  0  0  0
 24 26  1  0  0  0  0
 20 21  1  0  0  0  0
 20 22  1  0  0  0  0
 20 23  1  0  0  0  0
 17 18  1  0  0  0  0
 17 19  1  0  0  0  0
 17 20  1  0  0  0  0
 13 14  1  0  0  0  0
 13 15  1  0  0  0  0
 13 16  1  0  0  0  0
 11 12  1  0  0  0  0
 11 13  1  0  0  0  0
 11 17  1  0  0  0  0
  9 10  1  0  0  0  0
  9 11  1  0  0  0  0
  9 24  1  0  0  0  0
  7  8  1  0  0  0  0
  7  9  1  0  0  0  0
 28 29  1  0  0  0  0
 28 30  1  0  0  0  0
 28 31  1  0  0  0  0
 26 27  1  0  0  0  0
 26 28  1  0  0  0  0
M  END
$$$$
default_name
  -OEChem-01062215323D

 31 30  0     1  0  0  0  0  0999 V2000
   -3.0760   -3.6390    1.5496 H   0  0  0  0  0  0  0  0  0  0  0  0
   -3.0940   -2.6290    1.1426 C   0  0  0  0  0  0  0  0  0  0  0  0
   -3.7160   -1.9930    1.7706 H   0  0  0  0  0  0  0  0  0  0  0  0
   -3.4880   -2.6500    0.1286 H   0  0  0  0  0  0  0  0  0  0  0  0
   -1.6860   -2.0850    1.1196 C   0  0  0  0  0  0  0  0  0  0  0  0
   -0.7540   -2.7700    1.5226 O   0  0  0  0  0  0  0  0  0  0  0  0
   -1.5320   -0.8490    0.6496 N   0  0  0  0  0  0  0  0  0  0  0  0
   -2.3500   -0.3360    0.3566 H   0  0  0  0  0  0  0  0  0  0  0  0
   -0.2470   -0.1410    0.5576 C   0  0  1  0  0  0  0  0  0  0  0  0
    0.5369   -0.8931    0.4625 H   0  0  0  0  0  0  0  0  0  0  0  0
   -0.2116    0.7458   -0.7131 C   0  0  1  0  0  0  0  0  0  0  0  0
   -1.0947    1.3869   -0.6826 H   0  0  0  0  0  0  0  0  0  0  0  0
    1.0288    1.6584   -0.7595 C   0  0  0  0  0  0  0  0  0  0  0  0
    1.9384    1.0648   -0.8672 H   0  0  0  0  0  0  0  0  0  0  0  0
    0.9564    2.3530   -1.5948 H   0  0  0  0  0  0  0  0  0  0  0  0
    1.0986    2.2458    0.1568 H   0  0  0  0  0  0  0  0  0  0  0  0
   -0.3118   -0.1150   -1.9924 C   0  0  0  0  0  0  0  0  0  0  0  0
    0.5999   -0.7003   -2.1194 H   0  0  0  0  0  0  0  0  0  0  0  0
   -1.1491   -0.8047   -1.8863 H   0  0  0  0  0  0  0  0  0  0  0  0
   -0.5509    0.7023   -3.2692 C   0  0  0  0  0  0  0  0  0  0  0  0
    0.3092    1.3363   -3.4840 H   0  0  0  0  0  0  0  0  0  0  0  0
   -0.6987    0.0225   -4.1087 H   0  0  0  0  0  0  0  0  0  0  0  0
   -1.4409    1.3220   -3.1543 H   0  0  0  0  0  0  0  0  0  0  0  0
    0.0207    0.6441    1.8517 C   0  0  0  0  0  0  0  0  0  0  0  0
    1.1744    0.8456    2.2283 O   0  0  0  0  0  0  0  0  0  0  0  0
   -1.0422    1.0970    2.5286 N   0  0  0  0  0  0  0  0  0  0  0  0
   -1.9569    0.9028    2.1529 H   0  0  0  0  0  0  0  0  0  0  0  0
   -0.9568    1.8534    3.7763 C   0  0  0  0  0  0  0  0  0  0  0  0
   -0.2877    2.7067    3.6449 H   0  0  0  0  0  0  0  0  0  0  0  0
   -1.9441    2.2135    4.0693 H   0  0  0  0  0  0  0  0  0  0  0  0
   -0.5540    1.2157    4.5655 H   0  0  0  0  0  0  0  0  0  0  0  0
  5  6  2  0  0  0  0
  5  7  1  0  0  0  0
  2  3  1  0  0  0  0
  2  4  1  0  0  0  0
  2  5  1  0  0  0  0
  1  2  1  0  0  0  0
 24 25  2  0  0  0  0
 24 26  1  0  0  0  0
 20 21  1  0  0  0  0
 20 22  1  0  0  0  0
 20 23  1  0  0  0  0
 17 18  1  0  0  0  0
 17 19  1  0  0  0  0
 17 20  1  0  0  0  0
 13 14  1  0  0  0  0
 13 15  1  0  0  0  0
 13 16  1  0  0  0  0
 11 12  1  0  0  0  0
 11 13  1  0  0  0  0
 11 17  1  0  0  0  0
  9 10  1  0  0  0  0
  9 11  1  0  0  0  0
  9 24  1  0  0  0  0
  7  8  1  0  0  0  0
  7  9  1  0  0  0  0
 28 29  1  0  0  0  0
 28 30  1  0  0  0  0
 28 31  1  0  0  0  0
 26 27  1  0  0  0  0
 26 28  1  0  0  0  0
M  END
$$$$
default_name
  -OEChem-01062215323D

 31 30  0     1  0  0  0  0  0999 V2000
   -3.0760   -3.6390    1.5496 H   0  0  0  0  0  0  0  0  0  0  0  0
   -3.0940   -2.6290    1.1426 C   0  0  0  0  0  0  0  0  0  0  0  0
   -3.7160   -1.9930    1.7706 H   0  0  0  0  0  0  0  0  0  0  0  0
   -3.4880   -2.6500    0.1286 H   0  0  0  0  0  0  0  0  0  0  0  0
   -1.6860   -2.0850    1.1196 C   0  0  0  0  0  0  0  0  0  0  0  0
   -0.7540   -2.7700    1.5226 O   0  0  0  0  0  0  0  0  0  0  0  0
   -1.5320   -0.8490    0.6496 N   0  0  0  0  0  0  0  0  0  0  0  0
   -2.3500   -0.3360    0.3566 H   0  0  0  0  0  0  0  0  0  0  0  0
   -0.2470   -0.1410    0.5576 C   0  0  1  0  0  0  0  0  0  0  0  0
    0.5369   -0.8931    0.4625 H   0  0  0  0  0  0  0  0  0  0  0  0
   -0.2116    0.7458   -0.7131 C   0  0  1  0  0  0  0  0  0  0  0  0
   -1.0947    1.3869   -0.6826 H   0  0  0  0  0  0  0  0  0  0  0  0
    1.0288    1.6584   -0.7595 C   0  0  0  0  0  0  0  0  0  0  0  0
    1.9384    1.0648   -0.8672 H   0  0  0  0  0  0  0  0  0  0  0  0
    0.9564    2.3530   -1.5948 H   0  0  0  0  0  0  0  0  0  0  0  0
    1.0986    2.2458    0.1568 H   0  0  0  0  0  0  0  0  0  0  0  0
   -0.3118   -0.1150   -1.9924 C   0  0  0  0  0  0  0  0  0  0  0  0
    0.5999   -0.7003   -2.1194 H   0  0  0  0  0  0  0  0  0  0  0  0
   -1.1491   -0.8047   -1.8863 H   0  0  0  0  0  0  0  0  0  0  0  0
   -0.5509    0.7023   -3.2692 C   0  0  0  0  0  0  0  0  0  0  0  0
    0.3092    1.3363   -3.4840 H   0  0  0  0  0  0  0  0  0  0  0  0
   -0.6987    0.0225   -4.1087 H   0  0  0  0  0  0  0  0  0  0  0  0
   -1.4409    1.3220   -3.1543 H   0  0  0  0  0  0  0  0  0  0  0  0
    0.0207    0.6441    1.8517 C   0  0  0  0  0  0  0  0  0  0  0  0
    1.1446    1.0840    2.0899 O   0  0  0  0  0  0  0  0  0  0  0  0
   -1.0116    0.8302    2.6841 N   0  0  0  0  0  0  0  0  0  0  0  0
   -1.9059    0.4502    2.4169 H   0  0  0  0  0  0  0  0  0  0  0  0
   -0.9203    1.5484    3.9538 C   0  0  0  0  0  0  0  0  0  0  0  0
   -0.4748    2.5321    3.7895 H   0  0  0  0  0  0  0  0  0  0  0  0
   -1.9122    1.6724    4.3909 H   0  0  0  0  0  0  0  0  0  0  0  0
   -0.2856    0.9918    4.6459 H   0  0  0  0  0  0  0  0  0  0  0  0
  5  6  2  0  0  0  0
  5  7  1  0  0  0  0
  2  3  1  0  0  0  0
  2  4  1  0  0  0  0
  2  5  1  0  0  0  0
  1  2  1  0  0  0  0
 24 25  2  0  0  0  0
 24 26  1  0  0  0  0
 20 21  1  0  0  0  0
 20 22  1  0  0  0  0
 20 23  1  0  0  0  0
 17 18  1  0  0  0  0
 17 19  1  0  0  0  0
 17 20  1  0  0  0  0
 13 14  1  0  0  0  0
 13 15  1  0  0  0  0
 13 16  1  0  0  0  0
 11 12  1  0  0  0  0
 11 13  1  0  0  0  0
 11 17  1  0  0  0  0
  9 10  1  0  0  0  0
  9 11  1  0  0  0  0
  9 24  1  0  0  0  0
  7  8  1  0  0  0  0
  7  9  1  0  0  0  0
 28 29  1  0  0  0  0
 28 30  1  0  0  0  0
 28 31  1  0  0  0  0
 26 27  1  0  0  0  0
 26 28  1  0  0  0  0
M  END
$$$$
default_name
  -OEChem-01062215323D

 31 30  0     1  0  0  0  0  0999 V2000
   -3.0760   -3.6390    1.5496 H   0  0  0  0  0  0  0  0  0  0  0  0
   -3.0940   -2.6290    1.1426 C   0  0  0  0  0  0  0  0  0  0  0  0
   -3.7160   -1.9930    1.7706 H   0  0  0  0  0  0  0  0  0  0  0  0
   -3.4880   -2.6500    0.1286 H   0  0  0  0  0  0  0  0  0  0  0  0
   -1.6860   -2.0850    1.1196 C   0  0  0  0  0  0  0  0  0  0  0  0
   -0.7540   -2.7700    1.5226 O   0  0  0  0  0  0  0  0  0  0  0  0
   -1.5320   -0.8490    0.6496 N   0  0  0  0  0  0  0  0  0  0  0  0
   -2.3500   -0.3360    0.3566 H   0  0  0  0  0  0  0  0  0  0  0  0
   -0.2470   -0.1410    0.5576 C   0  0  1  0  0  0  0  0  0  0  0  0
    0.5369   -0.8931    0.4625 H   0  0  0  0  0  0  0  0  0  0  0  0
   -0.2116    0.7458   -0.7131 C   0  0  1  0  0  0  0  0  0  0  0  0
   -1.0947    1.3869   -0.6826 H   0  0  0  0  0  0  0  0  0  0  0  0
    1.0288    1.6584   -0.7595 C   0  0  0  0  0  0  0  0  0  0  0  0
    1.9384    1.0648   -0.8672 H   0  0  0  0  0  0  0  0  0  0  0  0
    0.9564    2.3530   -1.5948 H   0  0  0  0  0  0  0  0  0  0  0  0
    1.0986    2.2458    0.1568 H   0  0  0  0  0  0  0  0  0  0  0  0
   -0.3118   -0.1150   -1.9924 C   0  0  0  0  0  0  0  0  0  0  0  0
    0.5999   -0.7003   -2.1194 H   0  0  0  0  0  0  0  0  0  0  0  0
   -1.1491   -0.8047   -1.8863 H   0  0  0  0  0  0  0  0  0  0  0  0
   -0.5509    0.7023   -3.2692 C   0  0  0  0  0  0  0  0  0  0  0  0
    0.3092    1.3363   -3.4840 H   0  0  0  0  0  0  0  0  0  0  0  0
   -0.6987    0.0225   -4.1087 H   0  0  0  0  0  0  0  0  0  0  0  0
   -1.4409    1.3220   -3.1543 H   0  0  0  0  0  0  0  0  0  0  0  0
    0.0207    0.6441    1.8517 C   0  0  0  0  0  0  0  0  0  0  0  0
    1.0456    1.3140    1.9708 O   0  0  0  0  0  0  0  0  0  0  0  0
   -0.9032    0.5721    2.8183 N   0  0  0  0  0  0  0  0  0  0  0  0
   -1.7230    0.0122    2.6447 H   0  0  0  0  0  0  0  0  0  0  0  0
   -0.7952    1.2538    4.1066 C   0  0  0  0  0  0  0  0  0  0  0  0
   -0.5982    2.3161    3.9461 H   0  0  0  0  0  0  0  0  0  0  0  0
   -1.7209    1.1422    4.6730 H   0  0  0  0  0  0  0  0  0  0  0  0
    0.0332    0.8303    4.6779 H   0  0  0  0  0  0  0  0  0  0  0  0
  5  6  2  0  0  0  0
  5  7  1  0  0  0  0
  2  3  1  0  0  0  0
  2  4  1  0  0  0  0
  2  5  1  0  0  0  0
  1  2  1  0  0  0  0
 24 25  2  0  0  0  0
 24 26  1  0  0  0  0
 20 21  1  0  0  0  0
 20 22  1  0  0  0  0
 20 23  1  0  0  0  0
 17 18  1  0  0  0  0
 17 19  1  0  0  0  0
 17 20  1  0  0  0  0
 13 14  1  0  0  0  0
 13 15  1  0  0  0  0
 13 16  1  0  0  0  0
 11 12  1  0  0  0  0
 11 13  1  0  0  0  0
 11 17  1  0  0  0  0
  9 10  1  0  0  0  0
  9 11  1  0  0  0  0
  9 24  1  0  0  0  0
  7  8  1  0  0  0  0
  7  9  1  0  0  0  0
 28 29  1  0  0  0  0
 28 30  1  0  0  0  0
 28 31  1  0  0  0  0
 26 27  1  0  0  0  0
 26 28  1  0  0  0  0
M  END
$$$$
default_name
  -OEChem-01062215323D

 31 30  0     1  0  0  0  0  0999 V2000
   -3.0760   -3.6390    1.5496 H   0  0  0  0  0  0  0  0  0  0  0  0
   -3.0940   -2.6290    1.1426 C   0  0  0  0  0  0  0  0  0  0  0  0
   -3.7160   -1.9930    1.7706 H   0  0  0  0  0  0  0  0  0  0  0  0
   -3.4880   -2.6500    0.1286 H   0  0  0  0  0  0  0  0  0  0  0  0
   -1.6860   -2.0850    1.1196 C   0  0  0  0  0  0  0  0  0  0  0  0
   -0.7540   -2.7700    1.5226 O   0  0  0  0  0  0  0  0  0  0  0  0
   -1.5320   -0.8490    0.6496 N   0  0  0  0  0  0  0  0  0  0  0  0
   -2.3500   -0.3360    0.3566 H   0  0  0  0  0  0  0  0  0  0  0  0
   -0.2470   -0.1410    0.5576 C   0  0  1  0  0  0  0  0  0  0  0  0
    0.5369   -0.8931    0.4625 H   0  0  0  0  0  0  0  0  0  0  0  0
   -0.2116    0.7458   -0.7131 C   0  0  1  0  0  0  0  0  0  0  0  0
   -1.0947    1.3869   -0.6826 H   0  0  0  0  0  0  0  0  0  0  0  0
    1.0288    1.6584   -0.7595 C   0  0  0  0  0  0  0  0  0  0  0  0
    1.9384    1.0648   -0.8672 H   0  0  0  0  0  0  0  0  0  0  0  0
    0.9564    2.3530   -1.5948 H   0  0  0  0  0  0  0  0  0  0  0  0
    1.0986    2.2458    0.1568 H   0  0  0  0  0  0  0  0  0  0  0  0
   -0.3118   -0.1150   -1.9924 C   0  0  0  0  0  0  0  0  0  0  0  0
    0.5999   -0.7003   -2.1194 H   0  0  0  0  0  0  0  0  0  0  0  0
   -1.1491   -0.8047   -1.8863 H   0  0  0  0  0  0  0  0  0  0  0  0
   -0.5509    0.7023   -3.2692 C   0  0  0  0  0  0  0  0  0  0  0  0
    0.3092    1.3363   -3.4840 H   0  0  0  0  0  0  0  0  0  0  0  0
   -0.6987    0.0225   -4.1087 H   0  0  0  0  0  0  0  0  0  0  0  0
   -1.4409    1.3220   -3.1543 H   0  0  0  0  0  0  0  0  0  0  0  0
    0.0207    0.6441    1.8517 C   0  0  0  0  0  0  0  0  0  0  0  0
    0.8842    1.5199    1.8793 O   0  0  0  0  0  0  0  0  0  0  0  0
   -0.7246    0.3404    2.9219 N   0  0  0  0  0  0  0  0  0  0  0  0
   -1.4209   -0.3812    2.8209 H   0  0  0  0  0  0  0  0  0  0  0  0
   -0.5899    0.9895    4.2245 C   0  0  0  0  0  0  0  0  0  0  0  0
   -0.6497    2.0735    4.1039 H   0  0  0  0  0  0  0  0  0  0  0  0
   -1.3833    0.6590    4.8963 H   0  0  0  0  0  0  0  0  0  0  0  0
    0.3805    0.7423    4.6594 H   0  0  0  0  0  0  0  0  0  0  0  0
  5  6  2  0  0  0  0
  5  7  1  0  0  0  0
  2  3  1  0  0  0  0
  2  4  1  0  0  0  0
  2  5  1  0  0  0  0
  1  2  1  0  0  0  0
 24 25  2  0  0  0  0
 24 26  1  0  0  0  0
 20 21  1  0  0  0  0
 20 22  1  0  0  0  0
 20 23  1  0  0  0  0
 17 18  1  0  0  0  0
 17 19  1  0  0  0  0
 17 20  1  0  0  0  0
 13 14  1  0  0  0  0
 13 15  1  0  0  0  0
 13 16  1  0  0  0  0
 11 12  1  0  0  0  0
 11 13  1  0  0  0  0
 11 17  1  0  0  0  0
  9 10  1  0  0  0  0
  9 11  1  0  0  0  0
  9 24  1  0  0  0  0
  7  8  1  0  0  0  0
  7  9  1  0  0  0  0
 28 29  1  0  0  0  0
 28 30  1  0  0  0  0
 28 31  1  0  0  0  0
 26 27  1  0  0  0  0
 26 28  1  0  0  0  0
M  END
$$$$
default_name
  -OEChem-01062215323D

 31 30  0     1  0  0  0  0  0999 V2000
   -3.0760   -3.6390    1.5496 H   0  0  0  0  0  0  0  0  0  0  0  0
   -3.0940   -2.6290    1.1426 C   0  0  0  0  0  0  0  0  0  0  0  0
   -3.7160   -1.9930    1.7706 H   0  0  0  0  0  0  0  0  0  0  0  0
   -3.4880   -2.6500    0.1286 H   0  0  0  0  0  0  0  0  0  0  0  0
   -1.6860   -2.0850    1.1196 C   0  0  0  0  0  0  0  0  0  0  0  0
   -0.7540   -2.7700    1.5226 O   0  0  0  0  0  0  0  0  0  0  0  0
   -1.5320   -0.8490    0.6496 N   0  0  0  0  0  0  0  0  0  0  0  0
   -2.3500   -0.3360    0.3566 H   0  0  0  0  0  0  0  0  0  0  0  0
   -0.2470   -0.1410    0.5576 C   0  0  1  0  0  0  0  0  0  0  0  0
    0.5369   -0.8931    0.4625 H   0  0  0  0  0  0  0  0  0  0  0  0
   -0.2116    0.7458   -0.7131 C   0  0  1  0  0  0  0  0  0  0  0  0
   -1.0947    1.3869   -0.6826 H   0  0  0  0  0  0  0  0  0  0  0  0
    1.0288    1.6584   -0.7595 C   0  0  0  0  0  0  0  0  0  0  0  0
    1.9384    1.0648   -0.8672 H   0  0  0  0  0  0  0  0  0  0  0  0
    0.9564    2.3530   -1.5948 H   0  0  0  0  0  0  0  0  0  0  0  0
    1.0986    2.2458    0.1568 H   0  0  0  0  0  0  0  0  0  0  0  0
   -0.3118   -0.1150   -1.9924 C   0  0  0  0  0  0  0  0  0  0  0  0
    0.5999   -0.7003   -2.1194 H   0  0  0  0  0  0  0  0  0  0  0  0
   -1.1491   -0.8047   -1.8863 H   0  0  0  0  0  0  0  0  0  0  0  0
   -0.5509    0.7023   -3.2692 C   0  0  0  0  0  0  0  0  0  0  0  0
    0.3092    1.3363   -3.4840 H   0  0  0  0  0  0  0  0  0  0  0  0
   -0.6987    0.0225   -4.1087 H   0  0  0  0  0  0  0  0  0  0  0  0
   -1.4409    1.3220   -3.1543 H   0  0  0  0  0  0  0  0  0  0  0  0
    0.0207    0.6441    1.8517 C   0  0  0  0  0  0  0  0  0  0  0  0
    0.6712    1.6877    1.8215 O   0  0  0  0  0  0  0  0  0  0  0  0
   -0.4879    0.1508    2.9879 N   0  0  0  0  0  0  0  0  0  0  0  0
   -1.0200   -0.7034    2.9334 H   0  0  0  0  0  0  0  0  0  0  0  0
   -0.3184    0.7737    4.2992 C   0  0  0  0  0  0  0  0  0  0  0  0
   -0.6257    1.8208    4.2523 H   0  0  0  0  0  0  0  0  0  0  0  0
   -0.9225    0.2557    5.0455 H   0  0  0  0  0  0  0  0  0  0  0  0
    0.7326    0.7339    4.5916 H   0  0  0  0  0  0  0  0  0  0  0  0
  5  6  2  0  0  0  0
  5  7  1  0  0  0  0
  2  3  1  0  0  0  0
  2  4  1  0  0  0  0
  2  5  1  0  0  0  0
  1  2  1  0  0  0  0
 24 25  2  0  0  0  0
 24 26  1  0  0  0  0
 20 21  1  0  0  0  0
 20 22  1  0  0  0  0
 20 23  1  0  0  0  0
 17 18  1  0  0  0  0
 17 19  1  0  0  0  0
 17 20  1  0  0  0  0
 13 14  1  0  0  0  0
 13 15  1  0  0  0  0
 13 16  1  0  0  0  0
 11 12  1  0  0  0  0
 11 13  1  0  0  0  0
 11 17  1  0  0  0  0
  9 10  1  0  0  0  0
  9 11  1  0  0  0  0
  9 24  1  0  0  0  0
  7  8  1  0  0  0  0
  7  9  1  0  0  0  0
 28 29  1  0  0  0  0
 28 30  1  0  0  0  0
 28 31  1  0  0  0  0
 26 27  1  0  0  0  0
 26 28  1  0  0  0  0
M  END
$$$$
default_name
  -OEChem-01062215323D

 31 30  0     1  0  0  0  0  0999 V2000
   -3.0760   -3.6390    1.5496 H   0  0  0  0  0  0  0  0  0  0  0  0
   -3.0940   -2.6290    1.1426 C   0  0  0  0  0  0  0  0  0  0  0  0
   -3.7160   -1.9930    1.7706 H   0  0  0  0  0  0  0  0  0  0  0  0
   -3.4880   -2.6500    0.1286 H   0  0  0  0  0  0  0  0  0  0  0  0
   -1.6860   -2.0850    1.1196 C   0  0  0  0  0  0  0  0  0  0  0  0
   -0.7540   -2.7700    1.5226 O   0  0  0  0  0  0  0  0  0  0  0  0
   -1.5320   -0.8490    0.6496 N   0  0  0  0  0  0  0  0  0  0  0  0
   -2.3500   -0.3360    0.3566 H   0  0  0  0  0  0  0  0  0  0  0  0
   -0.2470   -0.1410    0.5576 C   0  0  1  0  0  0  0  0  0  0  0  0
    0.5369   -0.8931    0.4625 H   0  0  0  0  0  0  0  0  0  0  0  0
   -0.2116    0.7458   -0.7131 C   0  0  1  0  0  0  0  0  0  0  0  0
   -1.0947    1.3869   -0.6826 H   0  0  0  0  0  0  0  0  0  0  0  0
    1.0288    1.6584   -0.7595 C   0  0  0  0  0  0  0  0  0  0  0  0
    1.9384    1.0648   -0.8672 H   0  0  0  0  0  0  0  0  0  0  0  0
    0.9564    2.3530   -1.5948 H   0  0  0  0  0  0  0  0  0  0  0  0
    1.0986    2.2458    0.1568 H   0  0  0  0  0  0  0  0  0  0  0  0
   -0.3118   -0.1150   -1.9924 C   0  0  0  0  0  0  0  0  0  0  0  0
    0.5999   -0.7003   -2.1194 H   0  0  0  0  0  0  0  0  0  0  0  0
   -1.1491   -0.8047   -1.8863 H   0  0  0  0  0  0  0  0  0  0  0  0
   -0.5509    0.7023   -3.2692 C   0  0  0  0  0  0  0  0  0  0  0  0
    0.3092    1.3363   -3.4840 H   0  0  0  0  0  0  0  0  0  0  0  0
   -0.6987    0.0225   -4.1087 H   0  0  0  0  0  0  0  0  0  0  0  0
   -1.4409    1.3220   -3.1543 H   0  0  0  0  0  0  0  0  0  0  0  0
    0.0207    0.6441    1.8517 C   0  0  0  0  0  0  0  0  0  0  0  0
    0.4214    1.8061    1.8014 O   0  0  0  0  0  0  0  0  0  0  0  0
   -0.2093    0.0162    3.0119 N   0  0  0  0  0  0  0  0  0  0  0  0
   -0.5477   -0.9323    2.9745 H   0  0  0  0  0  0  0  0  0  0  0  0
    0.0007    0.6210    4.3258 C   0  0  0  0  0  0  0  0  0  0  0  0
   -0.5279    1.5753    4.3809 H   0  0  0  0  0  0  0  0  0  0  0  0
   -0.3697   -0.0401    5.1106 H   0  0  0  0  0  0  0  0  0  0  0  0
    1.0657    0.8055    4.4793 H   0  0  0  0  0  0  0  0  0  0  0  0
  5  6  2  0  0  0  0
  5  7  1  0  0  0  0
  2  3  1  0  0  0  0
  2  4  1  0  0  0  0
  2  5  1  0  0  0  0
  1  2  1  0  0  0  0
 24 25  2  0  0  0  0
 24 26  1  0  0  0  0
 20 21  1  0  0  0  0
 20 22  1  0  0  0  0
 20 23  1  0  0  0  0
 17 18  1  0  0  0  0
 17 19  1  0  0  0  0
 17 20  1  0  0  0  0
 13 14  1  0  0  0  0
 13 15  1  0  0  0  0
 13 16  1  0  0  0  0
 11 12  1  0  0  0  0
 11 13  1  0  0  0  0
 11 17  1  0  0  0  0
  9 10  1  0  0  0  0
  9 11  1  0  0  0  0
  9 24  1  0  0  0  0
  7  8  1  0  0  0  0
  7  9  1  0  0  0  0
 28 29  1  0  0  0  0
 28 30  1  0  0  0  0
 28 31  1  0  0  0  0
 26 27  1  0  0  0  0
 26 28  1  0  0  0  0
M  END
$$$$
default_name
  -OEChem-01062215323D

 31 30  0     1  0  0  0  0  0999 V2000
   -3.0760   -3.6390    1.5496 H   0  0  0  0  0  0  0  0  0  0  0  0
   -3.0940   -2.6290    1.1426 C   0  0  0  0  0  0  0  0  0  0  0  0
   -3.7160   -1.9930    1.7706 H   0  0  0  0  0  0  0  0  0  0  0  0
   -3.4880   -2.6500    0.1286 H   0  0  0  0  0  0  0  0  0  0  0  0
   -1.6860   -2.0850    1.1196 C   0  0  0  0  0  0  0  0  0  0  0  0
   -0.7540   -2.7700    1.5226 O   0  0  0  0  0  0  0  0  0  0  0  0
   -1.5320   -0.8490    0.6496 N   0  0  0  0  0  0  0  0  0  0  0  0
   -2.3500   -0.3360    0.3566 H   0  0  0  0  0  0  0  0  0  0  0  0
   -0.2470   -0.1410    0.5576 C   0  0  1  0  0  0  0  0  0  0  0  0
    0.5369   -0.8931    0.4625 H   0  0  0  0  0  0  0  0  0  0  0  0
   -0.2116    0.7458   -0.7131 C   0  0  1  0  0  0  0  0  0  0  0  0
   -1.0947    1.3869   -0.6826 H   0  0  0  0  0  0  0  0  0  0  0  0
    1.0288    1.6584   -0.7595 C   0  0  0  0  0  0  0  0  0  0  0  0
    1.9384    1.0648   -0.8672 H   0  0  0  0  0  0  0  0  0  0  0  0
    0.9564    2.3530   -1.5948 H   0  0  0  0  0  0  0  0  0  0  0  0
    1.0986    2.2458    0.1568 H   0  0  0  0  0  0  0  0  0  0  0  0
   -0.3118   -0.1150   -1.9924 C   0  0  0  0  0  0  0  0  0  0  0  0
    0.5999   -0.7003   -2.1194 H   0  0  0  0  0  0  0  0  0  0  0  0
   -1.1491   -0.8047   -1.8863 H   0  0  0  0  0  0  0  0  0  0  0  0
   -0.5509    0.7023   -3.2692 C   0  0  0  0  0  0  0  0  0  0  0  0
    0.3092    1.3363   -3.4840 H   0  0  0  0  0  0  0  0  0  0  0  0
   -0.6987    0.0225   -4.1087 H   0  0  0  0  0  0  0  0  0  0  0  0
   -1.4409    1.3220   -3.1543 H   0  0  0  0  0  0  0  0  0  0  0  0
    0.0207    0.6441    1.8517 C   0  0  0  0  0  0  0  0  0  0  0  0
    0.1516    1.8669    1.8204 O   0  0  0  0  0  0  0  0  0  0  0  0
    0.0924   -0.0541    2.9921 N   0  0  0  0  0  0  0  0  0  0  0  0
   -0.0361   -1.0524    2.9415 H   0  0  0  0  0  0  0  0  0  0  0  0
    0.3457    0.5419    4.3024 C   0  0  0  0  0  0  0  0  0  0  0  0
   -0.3628    1.3536    4.4813 H   0  0  0  0  0  0  0  0  0  0  0  0
    0.2373   -0.2083    5.0871 H   0  0  0  0  0  0  0  0  0  0  0  0
    1.3569    0.9523    4.3299 H   0  0  0  0  0  0  0  0  0  0  0  0
  5  6  2  0  0  0  0
  5  7  1  0  0  0  0
  2  3  1  0  0  0  0
  2  4  1  0  0  0  0
  2  5  1  0  0  0  0
  1  2  1  0  0  0  0
 24 25  2  0  0  0  0
 24 26  1  0  0  0  0
 20 21  1  0  0  0  0
 20 22  1  0  0  0  0
 20 23  1  0  0  0  0
 17 18  1  0  0  0  0
 17 19  1  0  0  0  0
 17 20  1  0  0  0  0
 13 14  1  0  0  0  0
 13 15  1  0  0  0  0
 13 16  1  0  0  0  0
 11 12  1  0  0  0  0
 11 13  1  0  0  0  0
 11 17  1  0  0  0  0
  9 10  1  0  0  0  0
  9 11  1  0  0  0  0
  9 24  1  0  0  0  0
  7  8  1  0  0  0  0
  7  9  1  0  0  0  0
 28 29  1  0  0  0  0
 28 30  1  0  0  0  0
 28 31  1  0  0  0  0
 26 27  1  0  0  0  0
 26 28  1  0  0  0  0
M  END
$$$$
default_name
  -OEChem-01062215323D

 31 30  0     1  0  0  0  0  0999 V2000
   -3.0760   -3.6390    1.5496 H   0  0  0  0  0  0  0  0  0  0  0  0
   -3.0940   -2.6290    1.1426 C   0  0  0  0  0  0  0  0  0  0  0  0
   -3.7160   -1.9930    1.7706 H   0  0  0  0  0  0  0  0  0  0  0  0
   -3.4880   -2.6500    0.1286 H   0  0  0  0  0  0  0  0  0  0  0  0
   -1.6860   -2.0850    1.1196 C   0  0  0  0  0  0  0  0  0  0  0  0
   -0.7540   -2.7700    1.5226 O   0  0  0  0  0  0  0  0  0  0  0  0
   -1.5320   -0.8490    0.6496 N   0  0  0  0  0  0  0  0  0  0  0  0
   -2.3500   -0.3360    0.3566 H   0  0  0  0  0  0  0  0  0  0  0  0
   -0.2470   -0.1410    0.5576 C   0  0  1  0  0  0  0  0  0  0  0  0
    0.5369   -0.8931    0.4625 H   0  0  0  0  0  0  0  0  0  0  0  0
   -0.2116    0.7458   -0.7131 C   0  0  1  0  0  0  0  0  0  0  0  0
   -1.0947    1.3869   -0.6826 H   0  0  0  0  0  0  0  0  0  0  0  0
    1.0288    1.6584   -0.7595 C   0  0  0  0  0  0  0  0  0  0  0  0
    1.9384    1.0648   -0.8672 H   0  0  0  0  0  0  0  0  0  0  0  0
    0.9564    2.3530   -1.5948 H   0  0  0  0  0  0  0  0  0  0  0  0
    1.0986    2.2458    0.1568 H   0  0  0  0  0  0  0  0  0  0  0  0
   -0.3118   -0.1150   -1.9924 C   0  0  0  0  0  0  0  0  0  0  0  0
    0.5999   -0.7003   -2.1194 H   0  0  0  0  0  0  0  0  0  0  0  0
   -1.1491   -0.8047   -1.8863 H   0  0  0  0  0  0  0  0  0  0  0  0
   -0.5509    0.7023   -3.2692 C   0  0  0  0  0  0  0  0  0  0  0  0
    0.3092    1.3363   -3.4840 H   0  0  0  0  0  0  0  0  0  0  0  0
   -0.6987    0.0225   -4.1087 H   0  0  0  0  0  0  0  0  0  0  0  0
   -1.4409    1.3220   -3.1543 H   0  0  0  0  0  0  0  0  0  0  0  0
    0.0207    0.6441    1.8517 C   0  0  0  0  0  0  0  0  0  0  0  0
   -0.1198    1.8659    1.8771 O   0  0  0  0  0  0  0  0  0  0  0  0
    0.3965   -0.0554    2.9300 N   0  0  0  0  0  0  0  0  0  0  0  0
    0.4798   -1.0554    2.8366 H   0  0  0  0  0  0  0  0  0  0  0  0
    0.6932    0.5417    4.2307 C   0  0  0  0  0  0  0  0  0  0  0  0
   -0.1419    1.1710    4.5463 H   0  0  0  0  0  0  0  0  0  0  0  0
    0.8571   -0.2375    4.9765 H   0  0  0  0  0  0  0  0  0  0  0  0
    1.5865    1.1643    4.1538 H   0  0  0  0  0  0  0  0  0  0  0  0
  5  6  2  0  0  0  0
  5  7  1  0  0  0  0
  2  3  1  0  0  0  0
  2  4  1  0  0  0  0
  2  5  1  0  0  0  0
  1  2  1  0  0  0  0
 24 25  2  0  0  0  0
 24 26  1  0  0  0  0
 20 21  1  0  0  0  0
 20 22  1  0  0  0  0
 20 23  1  0  0  0  0
 17 18  1  0  0  0  0
 17 19  1  0  0  0  0
 17 20  1  0  0  0  0
 13 14  1  0  0  0  0
 13 15  1  0  0  0  0
 13 16  1  0  0  0  0
 11 12  1  0  0  0  0
 11 13  1  0  0  0  0
 11 17  1  0  0  0  0
  9 10  1  0  0  0  0
  9 11  1  0  0  0  0
  9 24  1  0  0  0  0
  7  8  1  0  0  0  0
  7  9  1  0  0  0  0
 28 29  1  0  0  0  0
 28 30  1  0  0  0  0
 28 31  1  0  0  0  0
 26 27  1  0  0  0  0
 26 28  1  0  0  0  0
M  END
$$$$
default_name
  -OEChem-01062215323D

 31 30  0     1  0  0  0  0  0999 V2000
   -3.0760   -3.6390    1.5496 H   0  0  0  0  0  0  0  0  0  0  0  0
   -3.0940   -2.6290    1.1426 C   0  0  0  0  0  0  0  0  0  0  0  0
   -3.7160   -1.9930    1.7706 H   0  0  0  0  0  0  0  0  0  0  0  0
   -3.4880   -2.6500    0.1286 H   0  0  0  0  0  0  0  0  0  0  0  0
   -1.6860   -2.0850    1.1196 C   0  0  0  0  0  0  0  0  0  0  0  0
   -0.7540   -2.7700    1.5226 O   0  0  0  0  0  0  0  0  0  0  0  0
   -1.5320   -0.8490    0.6496 N   0  0  0  0  0  0  0  0  0  0  0  0
   -2.3500   -0.3360    0.3566 H   0  0  0  0  0  0  0  0  0  0  0  0
   -0.2470   -0.1410    0.5576 C   0  0  1  0  0  0  0  0  0  0  0  0
    0.5369   -0.8931    0.4625 H   0  0  0  0  0  0  0  0  0  0  0  0
   -0.2116    0.7458   -0.7131 C   0  0  1  0  0  0  0  0  0  0  0  0
   -1.0947    1.3869   -0.6826 H   0  0  0  0  0  0  0  0  0  0  0  0
    1.0288    1.6584   -0.7595 C   0  0  0  0  0  0  0  0  0  0  0  0
    1.9384    1.0648   -0.8672 H   0  0  0  0  0  0  0  0  0  0  0  0
    0.9564    2.3530   -1.5948 H   0  0  0  0  0  0  0  0  0  0  0  0
    1.0986    2.2458    0.1568 H   0  0  0  0  0  0  0  0  0  0  0  0
   -0.3118   -0.1150   -1.9924 C   0  0  0  0  0  0  0  0  0  0  0  0
    0.5999   -0.7003   -2.1194 H   0  0  0  0  0  0  0  0  0  0  0  0
   -1.1491   -0.8047   -1.8863 H   0  0  0  0  0  0  0  0  0  0  0  0
   -0.5509    0.7023   -3.2692 C   0  0  0  0  0  0  0  0  0  0  0  0
    0.3092    1.3363   -3.4840 H   0  0  0  0  0  0  0  0  0  0  0  0
   -0.6987    0.0225   -4.1087 H   0  0  0  0  0  0  0  0  0  0  0  0
   -1.4409    1.3220   -3.1543 H   0  0  0  0  0  0  0  0  0  0  0  0
    0.0207    0.6441    1.8517 C   0  0  0  0  0  0  0  0  0  0  0  0
   -0.3742    1.8033    1.9677 O   0  0  0  0  0  0  0  0  0  0  0  0
    0.6823    0.0124    2.8297 N   0  0  0  0  0  0  0  0  0  0  0  0
    0.9649   -0.9411    2.6669 H   0  0  0  0  0  0  0  0  0  0  0  0
    1.0193    0.6204    4.1154 C   0  0  0  0  0  0  0  0  0  0  0  0
    0.1199    1.0398    4.5718 H   0  0  0  0  0  0  0  0  0  0  0  0
    1.4476   -0.1256    4.7865 H   0  0  0  0  0  0  0  0  0  0  0  0
    1.7388    1.4271    3.9629 H   0  0  0  0  0  0  0  0  0  0  0  0
  5  6  2  0  0  0  0
  5  7  1  0  0  0  0
  2  3  1  0  0  0  0
  2  4  1  0  0  0  0
  2  5  1  0  0  0  0
  1  2  1  0  0  0  0
 24 25  2  0  0  0  0
 24 26  1  0  0  0  0
 20 21  1  0  0  0  0
 20 22  1  0  0  0  0
 20 23  1  0  0  0  0
 17 18  1  0  0  0  0
 17 19  1  0  0  0  0
 17 20  1  0  0  0  0
 13 14  1  0  0  0  0
 13 15  1  0  0  0  0
 13 16  1  0  0  0  0
 11 12  1  0  0  0  0
 11 13  1  0  0  0  0
 11 17  1  0  0  0  0
  9 10  1  0  0  0  0
  9 11  1  0  0  0  0
  9 24  1  0  0  0  0
  7  8  1  0  0  0  0
  7  9  1  0  0  0  0
 28 29  1  0  0  0  0
 28 30  1  0  0  0  0
 28 31  1  0  0  0  0
 26 27  1  0  0  0  0
 26 28  1  0  0  0  0
M  END
$$$$
default_name
  -OEChem-01062215323D

 31 30  0     1  0  0  0  0  0999 V2000
   -3.0760   -3.6390    1.5496 H   0  0  0  0  0  0  0  0  0  0  0  0
   -3.0940   -2.6290    1.1426 C   0  0  0  0  0  0  0  0  0  0  0  0
   -3.7160   -1.9930    1.7706 H   0  0  0  0  0  0  0  0  0  0  0  0
   -3.4880   -2.6500    0.1286 H   0  0  0  0  0  0  0  0  0  0  0  0
   -1.6860   -2.0850    1.1196 C   0  0  0  0  0  0  0  0  0  0  0  0
   -0.7540   -2.7700    1.5226 O   0  0  0  0  0  0  0  0  0  0  0  0
   -1.5320   -0.8490    0.6496 N   0  0  0  0  0  0  0  0  0  0  0  0
   -2.3500   -0.3360    0.3566 H   0  0  0  0  0  0  0  0  0  0  0  0
   -0.2470   -0.1410    0.5576 C   0  0  1  0  0  0  0  0  0  0  0  0
    0.5369   -0.8931    0.4625 H   0  0  0  0  0  0  0  0  0  0  0  0
   -0.2116    0.7458   -0.7131 C   0  0  1  0  0  0  0  0  0  0  0  0
   -1.0947    1.3869   -0.6826 H   0  0  0  0  0  0  0  0  0  0  0  0
    1.0288    1.6584   -0.7595 C   0  0  0  0  0  0  0  0  0  0  0  0
    1.9384    1.0648   -0.8672 H   0  0  0  0  0  0  0  0  0  0  0  0
    0.9564    2.3530   -1.5948 H   0  0  0  0  0  0  0  0  0  0  0  0
    1.0986    2.2458    0.1568 H   0  0  0  0  0  0  0  0  0  0  0  0
   -0.3118   -0.1150   -1.9924 C   0  0  0  0  0  0  0  0  0  0  0  0
    0.5999   -0.7003   -2.1194 H   0  0  0  0  0  0  0  0  0  0  0  0
   -1.1491   -0.8047   -1.8863 H   0  0  0  0  0  0  0  0  0  0  0  0
   -0.5509    0.7023   -3.2692 C   0  0  0  0  0  0  0  0  0  0  0  0
    0.3092    1.3363   -3.4840 H   0  0  0  0  0  0  0  0  0  0  0  0
   -0.6987    0.0225   -4.1087 H   0  0  0  0  0  0  0  0  0  0  0  0
   -1.4409    1.3220   -3.1543 H   0  0  0  0  0  0  0  0  0  0  0  0
    0.0207    0.6441    1.8517 C   0  0  0  0  0  0  0  0  0  0  0  0
   -0.5943    1.6833    2.0861 O   0  0  0  0  0  0  0  0  0  0  0  0
    0.9303    0.1447    2.6981 N   0  0  0  0  0  0  0  0  0  0  0  0
    1.3861   -0.7174    2.4440 H   0  0  0  0  0  0  0  0  0  0  0  0
    1.3020    0.7727    3.9645 C   0  0  0  0  0  0  0  0  0  0  0  0
    0.4048    0.9689    4.5558 H   0  0  0  0  0  0  0  0  0  0  0  0
    1.9684    0.1197    4.5299 H   0  0  0  0  0  0  0  0  0  0  0  0
    1.8034    1.7227    3.7702 H   0  0  0  0  0  0  0  0  0  0  0  0
  5  6  2  0  0  0  0
  5  7  1  0  0  0  0
  2  3  1  0  0  0  0
  2  4  1  0  0  0  0
  2  5  1  0  0  0  0
  1  2  1  0  0  0  0
 24 25  2  0  0  0  0
 24 26  1  0  0  0  0
 20 21  1  0  0  0  0
 20 22  1  0  0  0  0
 20 23  1  0  0  0  0
 17 18  1  0  0  0  0
 17 19  1  0  0  0  0
 17 20  1  0  0  0  0
 13 14  1  0  0  0  0
 13 15  1  0  0  0  0
 13 16  1  0  0  0  0
 11 12  1  0  0  0  0
 11 13  1  0  0  0  0
 11 17  1  0  0  0  0
  9 10  1  0  0  0  0
  9 11  1  0  0  0  0
  9 24  1  0  0  0  0
  7  8  1  0  0  0  0
  7  9  1  0  0  0  0
 28 29  1  0  0  0  0
 28 30  1  0  0  0  0
 28 31  1  0  0  0  0
 26 27  1  0  0  0  0
 26 28  1  0  0  0  0
M  END
$$$$
default_name
  -OEChem-01062215323D

 31 30  0     1  0  0  0  0  0999 V2000
   -3.0760   -3.6390    1.5496 H   0  0  0  0  0  0  0  0  0  0  0  0
   -3.0940   -2.6290    1.1426 C   0  0  0  0  0  0  0  0  0  0  0  0
   -3.7160   -1.9930    1.7706 H   0  0  0  0  0  0  0  0  0  0  0  0
   -3.4880   -2.6500    0.1286 H   0  0  0  0  0  0  0  0  0  0  0  0
   -1.6860   -2.0850    1.1196 C   0  0  0  0  0  0  0  0  0  0  0  0
   -0.7540   -2.7700    1.5226 O   0  0  0  0  0  0  0  0  0  0  0  0
   -1.5320   -0.8490    0.6496 N   0  0  0  0  0  0  0  0  0  0  0  0
   -2.3500   -0.3360    0.3566 H   0  0  0  0  0  0  0  0  0  0  0  0
   -0.2470   -0.1410    0.5576 C   0  0  1  0  0  0  0  0  0  0  0  0
    0.5369   -0.8931    0.4625 H   0  0  0  0  0  0  0  0  0  0  0  0
   -0.2116    0.7458   -0.7131 C   0  0  1  0  0  0  0  0  0  0  0  0
   -1.0947    1.3869   -0.6826 H   0  0  0  0  0  0  0  0  0  0  0  0
    1.0288    1.6584   -0.7595 C   0  0  0  0  0  0  0  0  0  0  0  0
    1.9384    1.0648   -0.8672 H   0  0  0  0  0  0  0  0  0  0  0  0
    0.9564    2.3530   -1.5948 H   0  0  0  0  0  0  0  0  0  0  0  0
    1.0986    2.2458    0.1568 H   0  0  0  0  0  0  0  0  0  0  0  0
   -0.3118   -0.1150   -1.9924 C   0  0  0  0  0  0  0  0  0  0  0  0
    0.5999   -0.7003   -2.1194 H   0  0  0  0  0  0  0  0  0  0  0  0
   -1.1491   -0.8047   -1.8863 H   0  0  0  0  0  0  0  0  0  0  0  0
   -0.5509    0.7023   -3.2692 C   0  0  0  0  0  0  0  0  0  0  0  0
    0.3092    1.3363   -3.4840 H   0  0  0  0  0  0  0  0  0  0  0  0
   -0.6987    0.0225   -4.1087 H   0  0  0  0  0  0  0  0  0  0  0  0
   -1.4409    1.3220   -3.1543 H   0  0  0  0  0  0  0  0  0  0  0  0
    0.0207    0.6441    1.8517 C   0  0  0  0  0  0  0  0  0  0  0  0
   -0.7652    1.5141    2.2241 O   0  0  0  0  0  0  0  0  0  0  0  0
    1.1237    0.3325    2.5442 N   0  0  0  0  0  0  0  0  0  0  0  0
    1.7148   -0.3995    2.1832 H   0  0  0  0  0  0  0  0  0  0  0  0
    1.5218    0.9882    3.7883 C   0  0  0  0  0  0  0  0  0  0  0  0
    0.6933    0.9633    4.4995 H   0  0  0  0  0  0  0  0  0  0  0  0
    2.3842    0.4817    4.2242 H   0  0  0  0  0  0  0  0  0  0  0  0
    1.7760    2.0310    3.5888 H   0  0  0  0  0  0  0  0  0  0  0  0
  5  6  2  0  0  0  0
  5  7  1  0  0  0  0
  2  3  1  0  0  0  0
  2  4  1  0  0  0  0
  2  5  1  0  0  0  0
  1  2  1  0  0  0  0
 24 25  2  0  0  0  0
 24 26  1  0  0  0  0
 20 21  1  0  0  0  0
 20 22  1  0  0  0  0
 20 23  1  0  0  0  0
 17 18  1  0  0  0  0
 17 19  1  0  0  0  0
 17 20  1  0  0  0  0
 13 14  1  0  0  0  0
 13 15  1  0  0  0  0
 13 16  1  0  0  0  0
 11 12  1  0  0  0  0
 11 13  1  0  0  0  0
 11 17  1  0  0  0  0
  9 10  1  0  0  0  0
  9 11  1  0  0  0  0
  9 24  1  0  0  0  0
  7  8  1  0  0  0  0
  7  9  1  0  0  0  0
 28 29  1  0  0  0  0
 28 30  1  0  0  0  0
 28 31  1  0  0  0  0
 26 27  1  0  0  0  0
 26 28  1  0  0  0  0
M  END
$$$$
default_name
  -OEChem-01062215323D

 31 30  0     1  0  0  0  0  0999 V2000
   -3.0760   -3.6390    1.5496 H   0  0  0  0  0  0  0  0  0  0  0  0
   -3.0940   -2.6290    1.1426 C   0  0  0  0  0  0  0  0  0  0  0  0
   -3.7160   -1.9930    1.7706 H   0  0  0  0  0  0  0  0  0  0  0  0
   -3.4880   -2.6500    0.1286 H   0  0  0  0  0  0  0  0  0  0  0  0
   -1.6860   -2.0850    1.1196 C   0  0  0  0  0  0  0  0  0  0  0  0
   -0.7540   -2.7700    1.5226 O   0  0  0  0  0  0  0  0  0  0  0  0
   -1.5320   -0.8490    0.6496 N   0  0  0  0  0  0  0  0  0  0  0  0
   -2.3500   -0.3360    0.3566 H   0  0  0  0  0  0  0  0  0  0  0  0
   -0.2470   -0.1410    0.5576 C   0  0  1  0  0  0  0  0  0  0  0  0
    0.5369   -0.8931    0.4625 H   0  0  0  0  0  0  0  0  0  0  0  0
   -0.2116    0.7458   -0.7131 C   0  0  1  0  0  0  0  0  0  0  0  0
   -1.0947    1.3869   -0.6826 H   0  0  0  0  0  0  0  0  0  0  0  0
    1.0288    1.6584   -0.7595 C   0  0  0  0  0  0  0  0  0  0  0  0
    1.9384    1.0648   -0.8672 H   0  0  0  0  0  0  0  0  0  0  0  0
    0.9564    2.3530   -1.5948 H   0  0  0  0  0  0  0  0  0  0  0  0
    1.0986    2.2458    0.1568 H   0  0  0  0  0  0  0  0  0  0  0  0
   -0.3118   -0.1150   -1.9924 C   0  0  0  0  0  0  0  0  0  0  0  0
    0.5999   -0.7003   -2.1194 H   0  0  0  0  0  0  0  0  0  0  0  0
   -1.1491   -0.8047   -1.8863 H   0  0  0  0  0  0  0  0  0  0  0  0
   -0.5509    0.7023   -3.2692 C   0  0  0  0  0  0  0  0  0  0  0  0
    0.3092    1.3363   -3.4840 H   0  0  0  0  0  0  0  0  0  0  0  0
   -0.6987    0.0225   -4.1087 H   0  0  0  0  0  0  0  0  0  0  0  0
   -1.4409    1.3220   -3.1543 H   0  0  0  0  0  0  0  0  0  0  0  0
    0.0207    0.6441    1.8517 C   0  0  0  0  0  0  0  0  0  0  0  0
   -0.8751    1.3073    2.3723 O   0  0  0  0  0  0  0  0  0  0  0  0
    1.2492    0.5630    2.3784 N   0  0  0  0  0  0  0  0  0  0  0  0
    1.9286   -0.0090    1.9021 H   0  0  0  0  0  0  0  0  0  0  0  0
    1.6640    1.2523    3.5987 C   0  0  0  0  0  0  0  0  0  0  0  0
    0.9657    1.0233    4.4068 H   0  0  0  0  0  0  0  0  0  0  0  0
    2.6664    0.9357    3.8904 H   0  0  0  0  0  0  0  0  0  0  0  0
    1.6583    2.3310    3.4312 H   0  0  0  0  0  0  0  0  0  0  0  0
  5  6  2  0  0  0  0
  5  7  1  0  0  0  0
  2  3  1  0  0  0  0
  2  4  1  0  0  0  0
  2  5  1  0  0  0  0
  1  2  1  0  0  0  0
 24 25  2  0  0  0  0
 24 26  1  0  0  0  0
 20 21  1  0  0  0  0
 20 22  1  0  0  0  0
 20 23  1  0  0  0  0
 17 18  1  0  0  0  0
 17 19  1  0  0  0  0
 17 20  1  0  0  0  0
 13 14  1  0  0  0  0
 13 15  1  0  0  0  0
 13 16  1  0  0  0  0
 11 12  1  0  0  0  0
 11 13  1  0  0  0  0
 11 17  1  0  0  0  0
  9 10  1  0  0  0  0
  9 11  1  0  0  0  0
  9 24  1  0  0  0  0
  7  8  1  0  0  0  0
  7  9  1  0  0  0  0
 28 29  1  0  0  0  0
 28 30  1  0  0  0  0
 28 31  1  0  0  0  0
 26 27  1  0  0  0  0
 26 28  1  0  0  0  0
M  END
$$$$
default_name
  -OEChem-01062215323D

 31 30  0     1  0  0  0  0  0999 V2000
   -3.0760   -3.6390    1.5496 H   0  0  0  0  0  0  0  0  0  0  0  0
   -3.0940   -2.6290    1.1426 C   0  0  0  0  0  0  0  0  0  0  0  0
   -3.7160   -1.9930    1.7706 H   0  0  0  0  0  0  0  0  0  0  0  0
   -3.4880   -2.6500    0.1286 H   0  0  0  0  0  0  0  0  0  0  0  0
   -1.6860   -2.0850    1.1196 C   0  0  0  0  0  0  0  0  0  0  0  0
   -0.7540   -2.7700    1.5226 O   0  0  0  0  0  0  0  0  0  0  0  0
   -1.5320   -0.8490    0.6496 N   0  0  0  0  0  0  0  0  0  0  0  0
   -2.3500   -0.3360    0.3566 H   0  0  0  0  0  0  0  0  0  0  0  0
   -0.2470   -0.1410    0.5576 C   0  0  1  0  0  0  0  0  0  0  0  0
    0.5369   -0.8931    0.4625 H   0  0  0  0  0  0  0  0  0  0  0  0
   -0.2116    0.7458   -0.7131 C   0  0  1  0  0  0  0  0  0  0  0  0
   -1.0947    1.3869   -0.6826 H   0  0  0  0  0  0  0  0  0  0  0  0
    1.0288    1.6584   -0.7595 C   0  0  0  0  0  0  0  0  0  0  0  0
    1.9384    1.0648   -0.8672 H   0  0  0  0  0  0  0  0  0  0  0  0
    0.9564    2.3530   -1.5948 H   0  0  0  0  0  0  0  0  0  0  0  0
    1.0986    2.2458    0.1568 H   0  0  0  0  0  0  0  0  0  0  0  0
   -0.3118   -0.1150   -1.9924 C   0  0  0  0  0  0  0  0  0  0  0  0
    0.5999   -0.7003   -2.1194 H   0  0  0  0  0  0  0  0  0  0  0  0
   -1.1491   -0.8047   -1.8863 H   0  0  0  0  0  0  0  0  0  0  0  0
   -0.5509    0.7023   -3.2692 C   0  0  0  0  0  0  0  0  0  0  0  0
    0.3092    1.3363   -3.4840 H   0  0  0  0  0  0  0  0  0  0  0  0
   -0.6987    0.0225   -4.1087 H   0  0  0  0  0  0  0  0  0  0  0  0
   -1.4409    1.3220   -3.1543 H   0  0  0  0  0  0  0  0  0  0  0  0
    0.0207    0.6441    1.8517 C   0  0  0  0  0  0  0  0  0  0  0  0
   -0.9165    1.0768    2.5207 O   0  0  0  0  0  0  0  0  0  0  0  0
    1.2983    0.8204    2.2121 N   0  0  0  0  0  0  0  0  0  0  0  0
    2.0128    0.4274    1.6199 H   0  0  0  0  0  0  0  0  0  0  0  0
    1.7187    1.5468    3.4087 C   0  0  0  0  0  0  0  0  0  0  0  0
    1.2035    1.1447    4.2839 H   0  0  0  0  0  0  0  0  0  0  0  0
    2.7960    1.4509    3.5511 H   0  0  0  0  0  0  0  0  0  0  0  0
    1.4584    2.6022    3.3080 H   0  0  0  0  0  0  0  0  0  0  0  0
  5  6  2  0  0  0  0
  5  7  1  0  0  0  0
  2  3  1  0  0  0  0
  2  4  1  0  0  0  0
  2  5  1  0  0  0  0
  1  2  1  0  0  0  0
 24 25  2  0  0  0  0
 24 26  1  0  0  0  0
 20 21  1  0  0  0  0
 20 22  1  0  0  0  0
 20 23  1  0  0  0  0
 17 18  1  0  0  0  0
 17 19  1  0  0  0  0
 17 20  1  0  0  0  0
 13 14  1  0  0  0  0
 13 15  1  0  0  0  0
 13 16  1  0  0  0  0
 11 12  1  0  0  0  0
 11 13  1  0  0  0  0
 11 17  1  0  0  0  0
  9 10  1  0  0  0  0
  9 11  1  0  0  0  0
  9 24  1  0  0  0  0
  7  8  1  0  0  0  0
  7  9  1  0  0  0  0
 28 29  1  0  0  0  0
 28 30  1  0  0  0  0
 28 31  1  0  0  0  0
 26 27  1  0  0  0  0
 26 28  1  0  0  0  0
M  END
$$$$
default_name
  -OEChem-01062215323D

 31 30  0     1  0  0  0  0  0999 V2000
   -3.0760   -3.6390    1.5496 H   0  0  0  0  0  0  0  0  0  0  0  0
   -3.0940   -2.6290    1.1426 C   0  0  0  0  0  0  0  0  0  0  0  0
   -3.7160   -1.9930    1.7706 H   0  0  0  0  0  0  0  0  0  0  0  0
   -3.4880   -2.6500    0.1286 H   0  0  0  0  0  0  0  0  0  0  0  0
   -1.6860   -2.0850    1.1196 C   0  0  0  0  0  0  0  0  0  0  0  0
   -0.7540   -2.7700    1.5226 O   0  0  0  0  0  0  0  0  0  0  0  0
   -1.5320   -0.8490    0.6496 N   0  0  0  0  0  0  0  0  0  0  0  0
   -2.3500   -0.3360    0.3566 H   0  0  0  0  0  0  0  0  0  0  0  0
   -0.2470   -0.1410    0.5576 C   0  0  1  0  0  0  0  0  0  0  0  0
    0.5369   -0.8931    0.4625 H   0  0  0  0  0  0  0  0  0  0  0  0
   -0.2116    0.7458   -0.7131 C   0  0  1  0  0  0  0  0  0  0  0  0
   -1.0947    1.3869   -0.6826 H   0  0  0  0  0  0  0  0  0  0  0  0
    1.0288    1.6584   -0.7595 C   0  0  0  0  0  0  0  0  0  0  0  0
    1.9384    1.0648   -0.8672 H   0  0  0  0  0  0  0  0  0  0  0  0
    0.9564    2.3530   -1.5948 H   0  0  0  0  0  0  0  0  0  0  0  0
    1.0986    2.2458    0.1568 H   0  0  0  0  0  0  0  0  0  0  0  0
   -0.3118   -0.1150   -1.9924 C   0  0  0  0  0  0  0  0  0  0  0  0
    0.5999   -0.7003   -2.1194 H   0  0  0  0  0  0  0  0  0  0  0  0
   -1.1491   -0.8047   -1.8863 H   0  0  0  0  0  0  0  0  0  0  0  0
   -0.5509    0.7023   -3.2692 C   0  0  0  0  0  0  0  0  0  0  0  0
    0.3092    1.3363   -3.4840 H   0  0  0  0  0  0  0  0  0  0  0  0
   -0.6987    0.0225   -4.1087 H   0  0  0  0  0  0  0  0  0  0  0  0
   -1.4409    1.3220   -3.1543 H   0  0  0  0  0  0  0  0  0  0  0  0
    0.0207    0.6441    1.8517 C   0  0  0  0  0  0  0  0  0  0  0  0
   -0.8868    0.8385    2.6591 O   0  0  0  0  0  0  0  0  0  0  0  0
    1.2677    1.0872    2.0566 N   0  0  0  0  0  0  0  0  0  0  0  0
    1.9617    0.8800    1.3559 H   0  0  0  0  0  0  0  0  0  0  0  0
    1.6822    1.8518    3.2312 C   0  0  0  0  0  0  0  0  0  0  0  0
    1.3905    1.3194    4.1392 H   0  0  0  0  0  0  0  0  0  0  0  0
    2.7641    1.9920    3.2294 H   0  0  0  0  0  0  0  0  0  0  0  0
    1.1899    2.8262    3.2277 H   0  0  0  0  0  0  0  0  0  0  0  0
  5  6  2  0  0  0  0
  5  7  1  0  0  0  0
  2  3  1  0  0  0  0
  2  4  1  0  0  0  0
  2  5  1  0  0  0  0
  1  2  1  0  0  0  0
 24 25  2  0  0  0  0
 24 26  1  0  0  0  0
 20 21  1  0  0  0  0
 20 22  1  0  0  0  0
 20 23  1  0  0  0  0
 17 18  1  0  0  0  0
 17 19  1  0  0  0  0
 17 20  1  0  0  0  0
 13 14  1  0  0  0  0
 13 15  1  0  0  0  0
 13 16  1  0  0  0  0
 11 12  1  0  0  0  0
 11 13  1  0  0  0  0
 11 17  1  0  0  0  0
  9 10  1  0  0  0  0
  9 11  1  0  0  0  0
  9 24  1  0  0  0  0
  7  8  1  0  0  0  0
  7  9  1  0  0  0  0
 28 29  1  0  0  0  0
 28 30  1  0  0  0  0
 28 31  1  0  0  0  0
 26 27  1  0  0  0  0
 26 28  1  0  0  0  0
M  END
$$$$
default_name
  -OEChem-01062215323D

 31 30  0     1  0  0  0  0  0999 V2000
   -3.0760   -3.6390    1.5496 H   0  0  0  0  0  0  0  0  0  0  0  0
   -3.0940   -2.6290    1.1426 C   0  0  0  0  0  0  0  0  0  0  0  0
   -3.7160   -1.9930    1.7706 H   0  0  0  0  0  0  0  0  0  0  0  0
   -3.4880   -2.6500    0.1286 H   0  0  0  0  0  0  0  0  0  0  0  0
   -1.6860   -2.0850    1.1196 C   0  0  0  0  0  0  0  0  0  0  0  0
   -0.7540   -2.7700    1.5226 O   0  0  0  0  0  0  0  0  0  0  0  0
   -1.5320   -0.8490    0.6496 N   0  0  0  0  0  0  0  0  0  0  0  0
   -2.3500   -0.3360    0.3566 H   0  0  0  0  0  0  0  0  0  0  0  0
   -0.2470   -0.1410    0.5576 C   0  0  1  0  0  0  0  0  0  0  0  0
    0.4959   -0.8532    0.1972 H   0  0  0  0  0  0  0  0  0  0  0  0
   -0.3409    1.0113   -0.4747 C   0  0  1  0  0  0  0  0  0  0  0  0
   -1.1935    1.6304   -0.1891 H   0  0  0  0  0  0  0  0  0  0  0  0
    0.9118    1.9082   -0.4709 C   0  0  0  0  0  0  0  0  0  0  0  0
    1.7827    1.3530   -0.8238 H   0  0  0  0  0  0  0  0  0  0  0  0
    0.7586    2.7747   -1.1123 H   0  0  0  0  0  0  0  0  0  0  0  0
    1.1115    2.2719    0.5377 H   0  0  0  0  0  0  0  0  0  0  0  0
   -0.6236    0.4640   -1.8918 C   0  0  0  0  0  0  0  0  0  0  0  0
    0.2473   -0.0788   -2.2617 H   0  0  0  0  0  0  0  0  0  0  0  0
   -1.4622   -0.2302   -1.8387 H   0  0  0  0  0  0  0  0  0  0  0  0
   -0.9926    1.5505   -2.9110 C   0  0  0  0  0  0  0  0  0  0  0  0
   -0.1465    2.2151   -3.0845 H   0  0  0  0  0  0  0  0  0  0  0  0
   -1.2631    1.0796   -3.8563 H   0  0  0  0  0  0  0  0  0  0  0  0
   -1.8424    2.1295   -2.5478 H   0  0  0  0  0  0  0  0  0  0  0  0
    0.2015    0.3289    1.9507 C   0  0  0  0  0  0  0  0  0  0  0  0
   -0.4879    0.0852    2.9400 O   0  0  0  0  0  0  0  0  0  0  0  0
    1.3610    0.9936    2.0329 N   0  0  0  0  0  0  0  0  0  0  0  0
    1.8772    1.1464    1.1809 H   0  0  0  0  0  0  0  0  0  0  0  0
    1.9219    1.5104    3.2797 C   0  0  0  0  0  0  0  0  0  0  0  0
    1.9716    0.7098    4.0211 H   0  0  0  0  0  0  0  0  0  0  0  0
    2.9250    1.9042    3.1093 H   0  0  0  0  0  0  0  0  0  0  0  0
    1.2817    2.3042    3.6693 H   0  0  0  0  0  0  0  0  0  0  0  0
  5  6  2  0  0  0  0
  5  7  1  0  0  0  0
  2  3  1  0  0  0  0
  2  4  1  0  0  0  0
  2  5  1  0  0  0  0
  1  2  1  0  0  0  0
 24 25  2  0  0  0  0
 24 26  1  0  0  0  0
 20 21  1  0  0  0  0
 20 22  1  0  0  0  0
 20 23  1  0  0  0  0
 17 18  1  0  0  0  0
 17 19  1  0  0  0  0
 17 20  1  0  0  0  0
 13 14  1  0  0  0  0
 13 15  1  0  0  0  0
 13 16  1  0  0  0  0
 11 12  1  0  0  0  0
 11 13  1  0  0  0  0
 11 17  1  0  0  0  0
  9 10  1  0  0  0  0
  9 11  1  0  0  0  0
  9 24  1  0  0  0  0
  7  8  1  0  0  0  0
  7  9  1  0  0  0  0
 28 29  1  0  0  0  0
 28 30  1  0  0  0  0
 28 31  1  0  0  0  0
 26 27  1  0  0  0  0
 26 28  1  0  0  0  0
M  END
$$$$
default_name
  -OEChem-01062215323D

 31 30  0     1  0  0  0  0  0999 V2000
   -3.0760   -3.6390    1.5496 H   0  0  0  0  0  0  0  0  0  0  0  0
   -3.0940   -2.6290    1.1426 C   0  0  0  0  0  0  0  0  0  0  0  0
   -3.7160   -1.9930    1.7706 H   0  0  0  0  0  0  0  0  0  0  0  0
   -3.4880   -2.6500    0.1286 H   0  0  0  0  0  0  0  0  0  0  0  0
   -1.6860   -2.0850    1.1196 C   0  0  0  0  0  0  0  0  0  0  0  0
   -0.7540   -2.7700    1.5226 O   0  0  0  0  0  0  0  0  0  0  0  0
   -1.5320   -0.8490    0.6496 N   0  0  0  0  0  0  0  0  0  0  0  0
   -2.3500   -0.3360    0.3566 H   0  0  0  0  0  0  0  0  0  0  0  0
   -0.2470   -0.1410    0.5576 C   0  0  1  0  0  0  0  0  0  0  0  0
    0.4959   -0.8532    0.1972 H   0  0  0  0  0  0  0  0  0  0  0  0
   -0.3409    1.0113   -0.4747 C   0  0  1  0  0  0  0  0  0  0  0  0
   -1.1935    1.6304   -0.1891 H   0  0  0  0  0  0  0  0  0  0  0  0
    0.9118    1.9082   -0.4709 C   0  0  0  0  0  0  0  0  0  0  0  0
    1.7827    1.3530   -0.8238 H   0  0  0  0  0  0  0  0  0  0  0  0
    0.7586    2.7747   -1.1123 H   0  0  0  0  0  0  0  0  0  0  0  0
    1.1115    2.2719    0.5377 H   0  0  0  0  0  0  0  0  0  0  0  0
   -0.6236    0.4640   -1.8918 C   0  0  0  0  0  0  0  0  0  0  0  0
    0.2473   -0.0788   -2.2617 H   0  0  0  0  0  0  0  0  0  0  0  0
   -1.4622   -0.2302   -1.8387 H   0  0  0  0  0  0  0  0  0  0  0  0
   -0.9926    1.5505   -2.9110 C   0  0  0  0  0  0  0  0  0  0  0  0
   -0.1465    2.2151   -3.0845 H   0  0  0  0  0  0  0  0  0  0  0  0
   -1.2631    1.0796   -3.8563 H   0  0  0  0  0  0  0  0  0  0  0  0
   -1.8424    2.1295   -2.5478 H   0  0  0  0  0  0  0  0  0  0  0  0
    0.2015    0.3289    1.9507 C   0  0  0  0  0  0  0  0  0  0  0  0
   -0.3228   -0.1364    2.9616 O   0  0  0  0  0  0  0  0  0  0  0  0
    1.1782    1.2432    2.0076 N   0  0  0  0  0  0  0  0  0  0  0  0
    1.5678    1.5702    1.1376 H   0  0  0  0  0  0  0  0  0  0  0  0
    1.7119    1.7949    3.2514 C   0  0  0  0  0  0  0  0  0  0  0  0
    2.0107    0.9819    3.9168 H   0  0  0  0  0  0  0  0  0  0  0  0
    2.5775    2.4261    3.0451 H   0  0  0  0  0  0  0  0  0  0  0  0
    0.9422    2.3863    3.7509 H   0  0  0  0  0  0  0  0  0  0  0  0
  5  6  2  0  0  0  0
  5  7  1  0  0  0  0
  2  3  1  0  0  0  0
  2  4  1  0  0  0  0
  2  5  1  0  0  0  0
  1  2  1  0  0  0  0
 24 25  2  0  0  0  0
 24 26  1  0  0  0  0
 20 21  1  0  0  0  0
 20 22  1  0  0  0  0
 20 23  1  0  0  0  0
 17 18  1  0  0  0  0
 17 19  1  0  0  0  0
 17 20  1  0  0  0  0
 13 14  1  0  0  0  0
 13 15  1  0  0  0  0
 13 16  1  0  0  0  0
 11 12  1  0  0  0  0
 11 13  1  0  0  0  0
 11 17  1  0  0  0  0
  9 10  1  0  0  0  0
  9 11  1  0  0  0  0
  9 24  1  0  0  0  0
  7  8  1  0  0  0  0
  7  9  1  0  0  0  0
 28 29  1  0  0  0  0
 28 30  1  0  0  0  0
 28 31  1  0  0  0  0
 26 27  1  0  0  0  0
 26 28  1  0  0  0  0
M  END
$$$$
default_name
  -OEChem-01062215323D

 31 30  0     1  0  0  0  0  0999 V2000
   -3.0760   -3.6390    1.5496 H   0  0  0  0  0  0  0  0  0  0  0  0
   -3.0940   -2.6290    1.1426 C   0  0  0  0  0  0  0  0  0  0  0  0
   -3.7160   -1.9930    1.7706 H   0  0  0  0  0  0  0  0  0  0  0  0
   -3.4880   -2.6500    0.1286 H   0  0  0  0  0  0  0  0  0  0  0  0
   -1.6860   -2.0850    1.1196 C   0  0  0  0  0  0  0  0  0  0  0  0
   -0.7540   -2.7700    1.5226 O   0  0  0  0  0  0  0  0  0  0  0  0
   -1.5320   -0.8490    0.6496 N   0  0  0  0  0  0  0  0  0  0  0  0
   -2.3500   -0.3360    0.3566 H   0  0  0  0  0  0  0  0  0  0  0  0
   -0.2470   -0.1410    0.5576 C   0  0  1  0  0  0  0  0  0  0  0  0
    0.4959   -0.8532    0.1972 H   0  0  0  0  0  0  0  0  0  0  0  0
   -0.3409    1.0113   -0.4747 C   0  0  1  0  0  0  0  0  0  0  0  0
   -1.1935    1.6304   -0.1891 H   0  0  0  0  0  0  0  0  0  0  0  0
    0.9118    1.9082   -0.4709 C   0  0  0  0  0  0  0  0  0  0  0  0
    1.7827    1.3530   -0.8238 H   0  0  0  0  0  0  0  0  0  0  0  0
    0.7586    2.7747   -1.1123 H   0  0  0  0  0  0  0  0  0  0  0  0
    1.1115    2.2719    0.5377 H   0  0  0  0  0  0  0  0  0  0  0  0
   -0.6236    0.4640   -1.8918 C   0  0  0  0  0  0  0  0  0  0  0  0
    0.2473   -0.0788   -2.2617 H   0  0  0  0  0  0  0  0  0  0  0  0
   -1.4622   -0.2302   -1.8387 H   0  0  0  0  0  0  0  0  0  0  0  0
   -0.9926    1.5505   -2.9110 C   0  0  0  0  0  0  0  0  0  0  0  0
   -0.1465    2.2151   -3.0845 H   0  0  0  0  0  0  0  0  0  0  0  0
   -1.2631    1.0796   -3.8563 H   0  0  0  0  0  0  0  0  0  0  0  0
   -1.8424    2.1295   -2.5478 H   0  0  0  0  0  0  0  0  0  0  0  0
    0.2015    0.3289    1.9507 C   0  0  0  0  0  0  0  0  0  0  0  0
   -0.1096   -0.3134    2.9527 O   0  0  0  0  0  0  0  0  0  0  0  0
    0.9411    1.4433    2.0164 N   0  0  0  0  0  0  0  0  0  0  0  0
    1.1662    1.9102    1.1522 H   0  0  0  0  0  0  0  0  0  0  0  0
    1.4400    2.0225    3.2621 C   0  0  0  0  0  0  0  0  0  0  0  0
    1.9764    1.2617    3.8335 H   0  0  0  0  0  0  0  0  0  0  0  0
    2.1143    2.8535    3.0500 H   0  0  0  0  0  0  0  0  0  0  0  0
    0.6014    2.3798    3.8628 H   0  0  0  0  0  0  0  0  0  0  0  0
  5  6  2  0  0  0  0
  5  7  1  0  0  0  0
  2  3  1  0  0  0  0
  2  4  1  0  0  0  0
  2  5  1  0  0  0  0
  1  2  1  0  0  0  0
 24 25  2  0  0  0  0
 24 26  1  0  0  0  0
 20 21  1  0  0  0  0
 20 22  1  0  0  0  0
 20 23  1  0  0  0  0
 17 18  1  0  0  0  0
 17 19  1  0  0  0  0
 17 20  1  0  0  0  0
 13 14  1  0  0  0  0
 13 15  1  0  0  0  0
 13 16  1  0  0  0  0
 11 12  1  0  0  0  0
 11 13  1  0  0  0  0
 11 17  1  0  0  0  0
  9 10  1  0  0  0  0
  9 11  1  0  0  0  0
  9 24  1  0  0  0  0
  7  8  1  0  0  0  0
  7  9  1  0  0  0  0
 28 29  1  0  0  0  0
 28 30  1  0  0  0  0
 28 31  1  0  0  0  0
 26 27  1  0  0  0  0
 26 28  1  0  0  0  0
M  END
$$$$
default_name
  -OEChem-01062215323D

 31 30  0     1  0  0  0  0  0999 V2000
   -3.0760   -3.6390    1.5496 H   0  0  0  0  0  0  0  0  0  0  0  0
   -3.0940   -2.6290    1.1426 C   0  0  0  0  0  0  0  0  0  0  0  0
   -3.7160   -1.9930    1.7706 H   0  0  0  0  0  0  0  0  0  0  0  0
   -3.4880   -2.6500    0.1286 H   0  0  0  0  0  0  0  0  0  0  0  0
   -1.6860   -2.0850    1.1196 C   0  0  0  0  0  0  0  0  0  0  0  0
   -0.7540   -2.7700    1.5226 O   0  0  0  0  0  0  0  0  0  0  0  0
   -1.5320   -0.8490    0.6496 N   0  0  0  0  0  0  0  0  0  0  0  0
   -2.3500   -0.3360    0.3566 H   0  0  0  0  0  0  0  0  0  0  0  0
   -0.2470   -0.1410    0.5576 C   0  0  1  0  0  0  0  0  0  0  0  0
    0.4959   -0.8532    0.1972 H   0  0  0  0  0  0  0  0  0  0  0  0
   -0.3409    1.0113   -0.4747 C   0  0  1  0  0  0  0  0  0  0  0  0
   -1.1935    1.6304   -0.1891 H   0  0  0  0  0  0  0  0  0  0  0  0
    0.9118    1.9082   -0.4709 C   0  0  0  0  0  0  0  0  0  0  0  0
    1.7827    1.3530   -0.8238 H   0  0  0  0  0  0  0  0  0  0  0  0
    0.7586    2.7747   -1.1123 H   0  0  0  0  0  0  0  0  0  0  0  0
    1.1115    2.2719    0.5377 H   0  0  0  0  0  0  0  0  0  0  0  0
   -0.6236    0.4640   -1.8918 C   0  0  0  0  0  0  0  0  0  0  0  0
    0.2473   -0.0788   -2.2617 H   0  0  0  0  0  0  0  0  0  0  0  0
   -1.4622   -0.2302   -1.8387 H   0  0  0  0  0  0  0  0  0  0  0  0
   -0.9926    1.5505   -2.9110 C   0  0  0  0  0  0  0  0  0  0  0  0
   -0.1465    2.2151   -3.0845 H   0  0  0  0  0  0  0  0  0  0  0  0
   -1.2631    1.0796   -3.8563 H   0  0  0  0  0  0  0  0  0  0  0  0
   -1.8424    2.1295   -2.5478 H   0  0  0  0  0  0  0  0  0  0  0  0
    0.2015    0.3289    1.9507 C   0  0  0  0  0  0  0  0  0  0  0  0
    0.1371   -0.4337    2.9138 O   0  0  0  0  0  0  0  0  0  0  0  0
    0.6658    1.5803    2.0588 N   0  0  0  0  0  0  0  0  0  0  0  0
    0.6996    2.1434    1.2237 H   0  0  0  0  0  0  0  0  0  0  0  0
    1.1249    2.1779    3.3112 C   0  0  0  0  0  0  0  0  0  0  0  0
    1.8710    1.5302    3.7768 H   0  0  0  0  0  0  0  0  0  0  0  0
    1.5670    3.1574    3.1237 H   0  0  0  0  0  0  0  0  0  0  0  0
    0.2826    2.2851    3.9974 H   0  0  0  0  0  0  0  0  0  0  0  0
  5  6  2  0  0  0  0
  5  7  1  0  0  0  0
  2  3  1  0  0  0  0
  2  4  1  0  0  0  0
  2  5  1  0  0  0  0
  1  2  1  0  0  0  0
 24 25  2  0  0  0  0
 24 26  1  0  0  0  0
 20 21  1  0  0  0  0
 20 22  1  0  0  0  0
 20 23  1  0  0  0  0
 17 18  1  0  0  0  0
 17 19  1  0  0  0  0
 17 20  1  0  0  0  0
 13 14  1  0  0  0  0
 13 15  1  0  0  0  0
 13 16  1  0  0  0  0
 11 12  1  0  0  0  0
 11 13  1  0  0  0  0
 11 17  1  0  0  0  0
  9 10  1  0  0  0  0
  9 11  1  0  0  0  0
  9 24  1  0  0  0  0
  7  8  1  0  0  0  0
  7  9  1  0  0  0  0
 28 29  1  0  0  0  0
 28 30  1  0  0  0  0
 28 31  1  0  0  0  0
 26 27  1  0  0  0  0
 26 28  1  0  0  0  0
M  END
$$$$
default_name
  -OEChem-01062215323D

 31 30  0     1  0  0  0  0  0999 V2000
   -3.0760   -3.6390    1.5496 H   0  0  0  0  0  0  0  0  0  0  0  0
   -3.0940   -2.6290    1.1426 C   0  0  0  0  0  0  0  0  0  0  0  0
   -3.7160   -1.9930    1.7706 H   0  0  0  0  0  0  0  0  0  0  0  0
   -3.4880   -2.6500    0.1286 H   0  0  0  0  0  0  0  0  0  0  0  0
   -1.6860   -2.0850    1.1196 C   0  0  0  0  0  0  0  0  0  0  0  0
   -0.7540   -2.7700    1.5226 O   0  0  0  0  0  0  0  0  0  0  0  0
   -1.5320   -0.8490    0.6496 N   0  0  0  0  0  0  0  0  0  0  0  0
   -2.3500   -0.3360    0.3566 H   0  0  0  0  0  0  0  0  0  0  0  0
   -0.2470   -0.1410    0.5576 C   0  0  1  0  0  0  0  0  0  0  0  0
    0.4959   -0.8532    0.1972 H   0  0  0  0  0  0  0  0  0  0  0  0
   -0.3409    1.0113   -0.4747 C   0  0  1  0  0  0  0  0  0  0  0  0
   -1.1935    1.6304   -0.1891 H   0  0  0  0  0  0  0  0  0  0  0  0
    0.9118    1.9082   -0.4709 C   0  0  0  0  0  0  0  0  0  0  0  0
    1.7827    1.3530   -0.8238 H   0  0  0  0  0  0  0  0  0  0  0  0
    0.7586    2.7747   -1.1123 H   0  0  0  0  0  0  0  0  0  0  0  0
    1.1115    2.2719    0.5377 H   0  0  0  0  0  0  0  0  0  0  0  0
   -0.6236    0.4640   -1.8918 C   0  0  0  0  0  0  0  0  0  0  0  0
    0.2473   -0.0788   -2.2617 H   0  0  0  0  0  0  0  0  0  0  0  0
   -1.4622   -0.2302   -1.8387 H   0  0  0  0  0  0  0  0  0  0  0  0
   -0.9926    1.5505   -2.9110 C   0  0  0  0  0  0  0  0  0  0  0  0
   -0.1465    2.2151   -3.0845 H   0  0  0  0  0  0  0  0  0  0  0  0
   -1.2631    1.0796   -3.8563 H   0  0  0  0  0  0  0  0  0  0  0  0
   -1.8424    2.1295   -2.5478 H   0  0  0  0  0  0  0  0  0  0  0  0
    0.2015    0.3289    1.9507 C   0  0  0  0  0  0  0  0  0  0  0  0
    0.4006   -0.4891    2.8477 O   0  0  0  0  0  0  0  0  0  0  0  0
    0.3711    1.6448    2.1319 N   0  0  0  0  0  0  0  0  0  0  0  0
    0.1999    2.2537    1.3474 H   0  0  0  0  0  0  0  0  0  0  0  0
    0.7879    2.2503    3.3953 C   0  0  0  0  0  0  0  0  0  0  0  0
    1.7018    1.7691    3.7507 H   0  0  0  0  0  0  0  0  0  0  0  0
    0.9729    3.3170    3.2611 H   0  0  0  0  0  0  0  0  0  0  0  0
    0.0076    2.1087    4.1454 H   0  0  0  0  0  0  0  0  0  0  0  0
  5  6  2  0  0  0  0
  5  7  1  0  0  0  0
  2  3  1  0  0  0  0
  2  4  1  0  0  0  0
  2  5  1  0  0  0  0
  1  2  1  0  0  0  0
 24 25  2  0  0  0  0
 24 26  1  0  0  0  0
 20 21  1  0  0  0  0
 20 22  1  0  0  0  0
 20 23  1  0  0  0  0
 17 18  1  0  0  0  0
 17 19  1  0  0  0  0
 17 20  1  0  0  0  0
 13 14  1  0  0  0  0
 13 15  1  0  0  0  0
 13 16  1  0  0  0  0
 11 12  1  0  0  0  0
 11 13  1  0  0  0  0
 11 17  1  0  0  0  0
  9 10  1  0  0  0  0
  9 11  1  0  0  0  0
  9 24  1  0  0  0  0
  7  8  1  0  0  0  0
  7  9  1  0  0  0  0
 28 29  1  0  0  0  0
 28 30  1  0  0  0  0
 28 31  1  0  0  0  0
 26 27  1  0  0  0  0
 26 28  1  0  0  0  0
M  END
$$$$
default_name
  -OEChem-01062215323D

 31 30  0     1  0  0  0  0  0999 V2000
   -3.0760   -3.6390    1.5496 H   0  0  0  0  0  0  0  0  0  0  0  0
   -3.0940   -2.6290    1.1426 C   0  0  0  0  0  0  0  0  0  0  0  0
   -3.7160   -1.9930    1.7706 H   0  0  0  0  0  0  0  0  0  0  0  0
   -3.4880   -2.6500    0.1286 H   0  0  0  0  0  0  0  0  0  0  0  0
   -1.6860   -2.0850    1.1196 C   0  0  0  0  0  0  0  0  0  0  0  0
   -0.7540   -2.7700    1.5226 O   0  0  0  0  0  0  0  0  0  0  0  0
   -1.5320   -0.8490    0.6496 N   0  0  0  0  0  0  0  0  0  0  0  0
   -2.3500   -0.3360    0.3566 H   0  0  0  0  0  0  0  0  0  0  0  0
   -0.2470   -0.1410    0.5576 C   0  0  1  0  0  0  0  0  0  0  0  0
    0.4959   -0.8532    0.1972 H   0  0  0  0  0  0  0  0  0  0  0  0
   -0.3409    1.0113   -0.4747 C   0  0  1  0  0  0  0  0  0  0  0  0
   -1.1935    1.6304   -0.1891 H   0  0  0  0  0  0  0  0  0  0  0  0
    0.9118    1.9082   -0.4709 C   0  0  0  0  0  0  0  0  0  0  0  0
    1.7827    1.3530   -0.8238 H   0  0  0  0  0  0  0  0  0  0  0  0
    0.7586    2.7747   -1.1123 H   0  0  0  0  0  0  0  0  0  0  0  0
    1.1115    2.2719    0.5377 H   0  0  0  0  0  0  0  0  0  0  0  0
   -0.6236    0.4640   -1.8918 C   0  0  0  0  0  0  0  0  0  0  0  0
    0.2473   -0.0788   -2.2617 H   0  0  0  0  0  0  0  0  0  0  0  0
   -1.4622   -0.2302   -1.8387 H   0  0  0  0  0  0  0  0  0  0  0  0
   -0.9926    1.5505   -2.9110 C   0  0  0  0  0  0  0  0  0  0  0  0
   -0.1465    2.2151   -3.0845 H   0  0  0  0  0  0  0  0  0  0  0  0
   -1.2631    1.0796   -3.8563 H   0  0  0  0  0  0  0  0  0  0  0  0
   -1.8424    2.1295   -2.5478 H   0  0  0  0  0  0  0  0  0  0  0  0
    0.2015    0.3289    1.9507 C   0  0  0  0  0  0  0  0  0  0  0  0
    0.6628   -0.4758    2.7588 O   0  0  0  0  0  0  0  0  0  0  0  0
    0.0772    1.6325    2.2307 N   0  0  0  0  0  0  0  0  0  0  0  0
   -0.2989    2.2338    1.5147 H   0  0  0  0  0  0  0  0  0  0  0  0
    0.4521    2.2348    3.5086 C   0  0  0  0  0  0  0  0  0  0  0  0
    1.4802    1.9622    3.7569 H   0  0  0  0  0  0  0  0  0  0  0  0
    0.3726    3.3214    3.4529 H   0  0  0  0  0  0  0  0  0  0  0  0
   -0.2050    1.8626    4.2969 H   0  0  0  0  0  0  0  0  0  0  0  0
  5  6  2  0  0  0  0
  5  7  1  0  0  0  0
  2  3  1  0  0  0  0
  2  4  1  0  0  0  0
  2  5  1  0  0  0  0
  1  2  1  0  0  0  0
 24 25  2  0  0  0  0
 24 26  1  0  0  0  0
 20 21  1  0  0  0  0
 20 22  1  0  0  0  0
 20 23  1  0  0  0  0
 17 18  1  0  0  0  0
 17 19  1  0  0  0  0
 17 20  1  0  0  0  0
 13 14  1  0  0  0  0
 13 15  1  0  0  0  0
 13 16  1  0  0  0  0
 11 12  1  0  0  0  0
 11 13  1  0  0  0  0
 11 17  1  0  0  0  0
  9 10  1  0  0  0  0
  9 11  1  0  0  0  0
  9 24  1  0  0  0  0
  7  8  1  0  0  0  0
  7  9  1  0  0  0  0
 28 29  1  0  0  0  0
 28 30  1  0  0  0  0
 28 31  1  0  0  0  0
 26 27  1  0  0  0  0
 26 28  1  0  0  0  0
M  END
$$$$
default_name
  -OEChem-01062215323D

 31 30  0     1  0  0  0  0  0999 V2000
   -3.0760   -3.6390    1.5496 H   0  0  0  0  0  0  0  0  0  0  0  0
   -3.0940   -2.6290    1.1426 C   0  0  0  0  0  0  0  0  0  0  0  0
   -3.7160   -1.9930    1.7706 H   0  0  0  0  0  0  0  0  0  0  0  0
   -3.4880   -2.6500    0.1286 H   0  0  0  0  0  0  0  0  0  0  0  0
   -1.6860   -2.0850    1.1196 C   0  0  0  0  0  0  0  0  0  0  0  0
   -0.7540   -2.7700    1.5226 O   0  0  0  0  0  0  0  0  0  0  0  0
   -1.5320   -0.8490    0.6496 N   0  0  0  0  0  0  0  0  0  0  0  0
   -2.3500   -0.3360    0.3566 H   0  0  0  0  0  0  0  0  0  0  0  0
   -0.2470   -0.1410    0.5576 C   0  0  1  0  0  0  0  0  0  0  0  0
    0.4959   -0.8532    0.1972 H   0  0  0  0  0  0  0  0  0  0  0  0
   -0.3409    1.0113   -0.4747 C   0  0  1  0  0  0  0  0  0  0  0  0
   -1.1935    1.6304   -0.1891 H   0  0  0  0  0  0  0  0  0  0  0  0
    0.9118    1.9082   -0.4709 C   0  0  0  0  0  0  0  0  0  0  0  0
    1.7827    1.3530   -0.8238 H   0  0  0  0  0  0  0  0  0  0  0  0
    0.7586    2.7747   -1.1123 H   0  0  0  0  0  0  0  0  0  0  0  0
    1.1115    2.2719    0.5377 H   0  0  0  0  0  0  0  0  0  0  0  0
   -0.6236    0.4640   -1.8918 C   0  0  0  0  0  0  0  0  0  0  0  0
    0.2473   -0.0788   -2.2617 H   0  0  0  0  0  0  0  0  0  0  0  0
   -1.4622   -0.2302   -1.8387 H   0  0  0  0  0  0  0  0  0  0  0  0
   -0.9926    1.5505   -2.9110 C   0  0  0  0  0  0  0  0  0  0  0  0
   -0.1465    2.2151   -3.0845 H   0  0  0  0  0  0  0  0  0  0  0  0
   -1.2631    1.0796   -3.8563 H   0  0  0  0  0  0  0  0  0  0  0  0
   -1.8424    2.1295   -2.5478 H   0  0  0  0  0  0  0  0  0  0  0  0
    0.2015    0.3289    1.9507 C   0  0  0  0  0  0  0  0  0  0  0  0
    0.9060   -0.3947    2.6531 O   0  0  0  0  0  0  0  0  0  0  0  0
   -0.1961    1.5442    2.3485 N   0  0  0  0  0  0  0  0  0  0  0  0
   -0.7627    2.0849    1.7143 H   0  0  0  0  0  0  0  0  0  0  0  0
    0.1403    2.1325    3.6435 C   0  0  0  0  0  0  0  0  0  0  0  0
    1.2214    2.0963    3.7950 H   0  0  0  0  0  0  0  0  0  0  0  0
   -0.1933    3.1704    3.6860 H   0  0  0  0  0  0  0  0  0  0  0  0
   -0.3407    1.5636    4.4414 H   0  0  0  0  0  0  0  0  0  0  0  0
  5  6  2  0  0  0  0
  5  7  1  0  0  0  0
  2  3  1  0  0  0  0
  2  4  1  0  0  0  0
  2  5  1  0  0  0  0
  1  2  1  0  0  0  0
 24 25  2  0  0  0  0
 24 26  1  0  0  0  0
 20 21  1  0  0  0  0
 20 22  1  0  0  0  0
 20 23  1  0  0  0  0
 17 18  1  0  0  0  0
 17 19  1  0  0  0  0
 17 20  1  0  0  0  0
 13 14  1  0  0  0  0
 13 15  1  0  0  0  0
 13 16  1  0  0  0  0
 11 12  1  0  0  0  0
 11 13  1  0  0  0  0
 11 17  1  0  0  0  0
  9 10  1  0  0  0  0
  9 11  1  0  0  0  0
  9 24  1  0  0  0  0
  7  8  1  0  0  0  0
  7  9  1  0  0  0  0
 28 29  1  0  0  0  0
 28 30  1  0  0  0  0
 28 31  1  0  0  0  0
 26 27  1  0  0  0  0
 26 28  1  0  0  0  0
M  END
$$$$
default_name
  -OEChem-01062215323D

 31 30  0     1  0  0  0  0  0999 V2000
   -3.0760   -3.6390    1.5496 H   0  0  0  0  0  0  0  0  0  0  0  0
   -3.0940   -2.6290    1.1426 C   0  0  0  0  0  0  0  0  0  0  0  0
   -3.7160   -1.9930    1.7706 H   0  0  0  0  0  0  0  0  0  0  0  0
   -3.4880   -2.6500    0.1286 H   0  0  0  0  0  0  0  0  0  0  0  0
   -1.6860   -2.0850    1.1196 C   0  0  0  0  0  0  0  0  0  0  0  0
   -0.7540   -2.7700    1.5226 O   0  0  0  0  0  0  0  0  0  0  0  0
   -1.5320   -0.8490    0.6496 N   0  0  0  0  0  0  0  0  0  0  0  0
   -2.3500   -0.3360    0.3566 H   0  0  0  0  0  0  0  0  0  0  0  0
   -0.2470   -0.1410    0.5576 C   0  0  1  0  0  0  0  0  0  0  0  0
    0.4959   -0.8532    0.1972 H   0  0  0  0  0  0  0  0  0  0  0  0
   -0.3409    1.0113   -0.4747 C   0  0  1  0  0  0  0  0  0  0  0  0
   -1.1935    1.6304   -0.1891 H   0  0  0  0  0  0  0  0  0  0  0  0
    0.9118    1.9082   -0.4709 C   0  0  0  0  0  0  0  0  0  0  0  0
    1.7827    1.3530   -0.8238 H   0  0  0  0  0  0  0  0  0  0  0  0
    0.7586    2.7747   -1.1123 H   0  0  0  0  0  0  0  0  0  0  0  0
    1.1115    2.2719    0.5377 H   0  0  0  0  0  0  0  0  0  0  0  0
   -0.6236    0.4640   -1.8918 C   0  0  0  0  0  0  0  0  0  0  0  0
    0.2473   -0.0788   -2.2617 H   0  0  0  0  0  0  0  0  0  0  0  0
   -1.4622   -0.2302   -1.8387 H   0  0  0  0  0  0  0  0  0  0  0  0
   -0.9926    1.5505   -2.9110 C   0  0  0  0  0  0  0  0  0  0  0  0
   -0.1465    2.2151   -3.0845 H   0  0  0  0  0  0  0  0  0  0  0  0
   -1.2631    1.0796   -3.8563 H   0  0  0  0  0  0  0  0  0  0  0  0
   -1.8424    2.1295   -2.5478 H   0  0  0  0  0  0  0  0  0  0  0  0
    0.2015    0.3289    1.9507 C   0  0  0  0  0  0  0  0  0  0  0  0
    1.1134   -0.2513    2.5380 O   0  0  0  0  0  0  0  0  0  0  0  0
   -0.4300    1.3859    2.4772 N   0  0  0  0  0  0  0  0  0  0  0  0
   -1.1601    1.8171    1.9325 H   0  0  0  0  0  0  0  0  0  0  0  0
   -0.1262    1.9504    3.7907 C   0  0  0  0  0  0  0  0  0  0  0  0
    0.9429    2.1621    3.8624 H   0  0  0  0  0  0  0  0  0  0  0  0
   -0.6859    2.8742    3.9446 H   0  0  0  0  0  0  0  0  0  0  0  0
   -0.3902    1.2321    4.5692 H   0  0  0  0  0  0  0  0  0  0  0  0
  5  6  2  0  0  0  0
  5  7  1  0  0  0  0
  2  3  1  0  0  0  0
  2  4  1  0  0  0  0
  2  5  1  0  0  0  0
  1  2  1  0  0  0  0
 24 25  2  0  0  0  0
 24 26  1  0  0  0  0
 20 21  1  0  0  0  0
 20 22  1  0  0  0  0
 20 23  1  0  0  0  0
 17 18  1  0  0  0  0
 17 19  1  0  0  0  0
 17 20  1  0  0  0  0
 13 14  1  0  0  0  0
 13 15  1  0  0  0  0
 13 16  1  0  0  0  0
 11 12  1  0  0  0  0
 11 13  1  0  0  0  0
 11 17  1  0  0  0  0
  9 10  1  0  0  0  0
  9 11  1  0  0  0  0
  9 24  1  0  0  0  0
  7  8  1  0  0  0  0
  7  9  1  0  0  0  0
 28 29  1  0  0  0  0
 28 30  1  0  0  0  0
 28 31  1  0  0  0  0
 26 27  1  0  0  0  0
 26 28  1  0  0  0  0
M  END
$$$$
default_name
  -OEChem-01062215323D

 31 30  0     1  0  0  0  0  0999 V2000
   -3.0760   -3.6390    1.5496 H   0  0  0  0  0  0  0  0  0  0  0  0
   -3.0940   -2.6290    1.1426 C   0  0  0  0  0  0  0  0  0  0  0  0
   -3.7160   -1.9930    1.7706 H   0  0  0  0  0  0  0  0  0  0  0  0
   -3.4880   -2.6500    0.1286 H   0  0  0  0  0  0  0  0  0  0  0  0
   -1.6860   -2.0850    1.1196 C   0  0  0  0  0  0  0  0  0  0  0  0
   -0.7540   -2.7700    1.5226 O   0  0  0  0  0  0  0  0  0  0  0  0
   -1.5320   -0.8490    0.6496 N   0  0  0  0  0  0  0  0  0  0  0  0
   -2.3500   -0.3360    0.3566 H   0  0  0  0  0  0  0  0  0  0  0  0
   -0.2470   -0.1410    0.5576 C   0  0  1  0  0  0  0  0  0  0  0  0
    0.4959   -0.8532    0.1972 H   0  0  0  0  0  0  0  0  0  0  0  0
   -0.3409    1.0113   -0.4747 C   0  0  1  0  0  0  0  0  0  0  0  0
   -1.1935    1.6304   -0.1891 H   0  0  0  0  0  0  0  0  0  0  0  0
    0.9118    1.9082   -0.4709 C   0  0  0  0  0  0  0  0  0  0  0  0
    1.7827    1.3530   -0.8238 H   0  0  0  0  0  0  0  0  0  0  0  0
    0.7586    2.7747   -1.1123 H   0  0  0  0  0  0  0  0  0  0  0  0
    1.1115    2.2719    0.5377 H   0  0  0  0  0  0  0  0  0  0  0  0
   -0.6236    0.4640   -1.8918 C   0  0  0  0  0  0  0  0  0  0  0  0
    0.2473   -0.0788   -2.2617 H   0  0  0  0  0  0  0  0  0  0  0  0
   -1.4622   -0.2302   -1.8387 H   0  0  0  0  0  0  0  0  0  0  0  0
   -0.9926    1.5505   -2.9110 C   0  0  0  0  0  0  0  0  0  0  0  0
   -0.1465    2.2151   -3.0845 H   0  0  0  0  0  0  0  0  0  0  0  0
   -1.2631    1.0796   -3.8563 H   0  0  0  0  0  0  0  0  0  0  0  0
   -1.8424    2.1295   -2.5478 H   0  0  0  0  0  0  0  0  0  0  0  0
    0.2015    0.3289    1.9507 C   0  0  0  0  0  0  0  0  0  0  0  0
    1.2711   -0.0555    2.4212 O   0  0  0  0  0  0  0  0  0  0  0  0
   -0.6087    1.1684    2.6081 N   0  0  0  0  0  0  0  0  0  0  0  0
   -1.4638    1.4489    2.1545 H   0  0  0  0  0  0  0  0  0  0  0  0
   -0.3292    1.7009    3.9402 C   0  0  0  0  0  0  0  0  0  0  0  0
    0.6639    2.1554    3.9546 H   0  0  0  0  0  0  0  0  0  0  0  0
   -1.0718    2.4530    4.2109 H   0  0  0  0  0  0  0  0  0  0  0  0
   -0.3500    0.8906    4.6714 H   0  0  0  0  0  0  0  0  0  0  0  0
  5  6  2  0  0  0  0
  5  7  1  0  0  0  0
  2  3  1  0  0  0  0
  2  4  1  0  0  0  0
  2  5  1  0  0  0  0
  1  2  1  0  0  0  0
 24 25  2  0  0  0  0
 24 26  1  0  0  0  0
 20 21  1  0  0  0  0
 20 22  1  0  0  0  0
 20 23  1  0  0  0  0
 17 18  1  0  0  0  0
 17 19  1  0  0  0  0
 17 20  1  0  0  0  0
 13 14  1  0  0  0  0
 13 15  1  0  0  0  0
 13 16  1  0  0  0  0
 11 12  1  0  0  0  0
 11 13  1  0  0  0  0
 11 17  1  0  0  0  0
  9 10  1  0  0  0  0
  9 11  1  0  0  0  0
  9 24  1  0  0  0  0
  7  8  1  0  0  0  0
  7  9  1  0  0  0  0
 28 29  1  0  0  0  0
 28 30  1  0  0  0  0
 28 31  1  0  0  0  0
 26 27  1  0  0  0  0
 26 28  1  0  0  0  0
M  END
$$$$
default_name
  -OEChem-01062215323D

 31 30  0     1  0  0  0  0  0999 V2000
   -3.0760   -3.6390    1.5496 H   0  0  0  0  0  0  0  0  0  0  0  0
   -3.0940   -2.6290    1.1426 C   0  0  0  0  0  0  0  0  0  0  0  0
   -3.7160   -1.9930    1.7706 H   0  0  0  0  0  0  0  0  0  0  0  0
   -3.4880   -2.6500    0.1286 H   0  0  0  0  0  0  0  0  0  0  0  0
   -1.6860   -2.0850    1.1196 C   0  0  0  0  0  0  0  0  0  0  0  0
   -0.7540   -2.7700    1.5226 O   0  0  0  0  0  0  0  0  0  0  0  0
   -1.5320   -0.8490    0.6496 N   0  0  0  0  0  0  0  0  0  0  0  0
   -2.3500   -0.3360    0.3566 H   0  0  0  0  0  0  0  0  0  0  0  0
   -0.2470   -0.1410    0.5576 C   0  0  1  0  0  0  0  0  0  0  0  0
    0.4959   -0.8532    0.1972 H   0  0  0  0  0  0  0  0  0  0  0  0
   -0.3409    1.0113   -0.4747 C   0  0  1  0  0  0  0  0  0  0  0  0
   -1.1935    1.6304   -0.1891 H   0  0  0  0  0  0  0  0  0  0  0  0
    0.9118    1.9082   -0.4709 C   0  0  0  0  0  0  0  0  0  0  0  0
    1.7827    1.3530   -0.8238 H   0  0  0  0  0  0  0  0  0  0  0  0
    0.7586    2.7747   -1.1123 H   0  0  0  0  0  0  0  0  0  0  0  0
    1.1115    2.2719    0.5377 H   0  0  0  0  0  0  0  0  0  0  0  0
   -0.6236    0.4640   -1.8918 C   0  0  0  0  0  0  0  0  0  0  0  0
    0.2473   -0.0788   -2.2617 H   0  0  0  0  0  0  0  0  0  0  0  0
   -1.4622   -0.2302   -1.8387 H   0  0  0  0  0  0  0  0  0  0  0  0
   -0.9926    1.5505   -2.9110 C   0  0  0  0  0  0  0  0  0  0  0  0
   -0.1465    2.2151   -3.0845 H   0  0  0  0  0  0  0  0  0  0  0  0
   -1.2631    1.0796   -3.8563 H   0  0  0  0  0  0  0  0  0  0  0  0
   -1.8424    2.1295   -2.5478 H   0  0  0  0  0  0  0  0  0  0  0  0
    0.2015    0.3289    1.9507 C   0  0  0  0  0  0  0  0  0  0  0  0
    1.3683    0.1794    2.3107 O   0  0  0  0  0  0  0  0  0  0  0  0
   -0.7198    0.9066    2.7322 N   0  0  0  0  0  0  0  0  0  0  0  0
   -1.6532    1.0051    2.3652 H   0  0  0  0  0  0  0  0  0  0  0  0
   -0.4550    1.4010    4.0819 C   0  0  0  0  0  0  0  0  0  0  0  0
    0.4032    2.0764    4.0651 H   0  0  0  0  0  0  0  0  0  0  0  0
   -1.3247    1.9354    4.4669 H   0  0  0  0  0  0  0  0  0  0  0  0
   -0.2231    0.5624    4.7413 H   0  0  0  0  0  0  0  0  0  0  0  0
  5  6  2  0  0  0  0
  5  7  1  0  0  0  0
  2  3  1  0  0  0  0
  2  4  1  0  0  0  0
  2  5  1  0  0  0  0
  1  2  1  0  0  0  0
 24 25  2  0  0  0  0
 24 26  1  0  0  0  0
 20 21  1  0  0  0  0
 20 22  1  0  0  0  0
 20 23  1  0  0  0  0
 17 18  1  0  0  0  0
 17 19  1  0  0  0  0
 17 20  1  0  0  0  0
 13 14  1  0  0  0  0
 13 15  1  0  0  0  0
 13 16  1  0  0  0  0
 11 12  1  0  0  0  0
 11 13  1  0  0  0  0
 11 17  1  0  0  0  0
  9 10  1  0  0  0  0
  9 11  1  0  0  0  0
  9 24  1  0  0  0  0
  7  8  1  0  0  0  0
  7  9  1  0  0  0  0
 28 29  1  0  0  0  0
 28 30  1  0  0  0  0
 28 31  1  0  0  0  0
 26 27  1  0  0  0  0
 26 28  1  0  0  0  0
M  END
$$$$
default_name
  -OEChem-01062215323D

 31 30  0     1  0  0  0  0  0999 V2000
   -3.0760   -3.6390    1.5496 H   0  0  0  0  0  0  0  0  0  0  0  0
   -3.0940   -2.6290    1.1426 C   0  0  0  0  0  0  0  0  0  0  0  0
   -3.7160   -1.9930    1.7706 H   0  0  0  0  0  0  0  0  0  0  0  0
   -3.4880   -2.6500    0.1286 H   0  0  0  0  0  0  0  0  0  0  0  0
   -1.6860   -2.0850    1.1196 C   0  0  0  0  0  0  0  0  0  0  0  0
   -0.7540   -2.7700    1.5226 O   0  0  0  0  0  0  0  0  0  0  0  0
   -1.5320   -0.8490    0.6496 N   0  0  0  0  0  0  0  0  0  0  0  0
   -2.3500   -0.3360    0.3566 H   0  0  0  0  0  0  0  0  0  0  0  0
   -0.2470   -0.1410    0.5576 C   0  0  1  0  0  0  0  0  0  0  0  0
    0.4959   -0.8532    0.1972 H   0  0  0  0  0  0  0  0  0  0  0  0
   -0.3409    1.0113   -0.4747 C   0  0  1  0  0  0  0  0  0  0  0  0
   -1.1935    1.6304   -0.1891 H   0  0  0  0  0  0  0  0  0  0  0  0
    0.9118    1.9082   -0.4709 C   0  0  0  0  0  0  0  0  0  0  0  0
    1.7827    1.3530   -0.8238 H   0  0  0  0  0  0  0  0  0  0  0  0
    0.7586    2.7747   -1.1123 H   0  0  0  0  0  0  0  0  0  0  0  0
    1.1115    2.2719    0.5377 H   0  0  0  0  0  0  0  0  0  0  0  0
   -0.6236    0.4640   -1.8918 C   0  0  0  0  0  0  0  0  0  0  0  0
    0.2473   -0.0788   -2.2617 H   0  0  0  0  0  0  0  0  0  0  0  0
   -1.4622   -0.2302   -1.8387 H   0  0  0  0  0  0  0  0  0  0  0  0
   -0.9926    1.5505   -2.9110 C   0  0  0  0  0  0  0  0  0  0  0  0
   -0.1465    2.2151   -3.0845 H   0  0  0  0  0  0  0  0  0  0  0  0
   -1.2631    1.0796   -3.8563 H   0  0  0  0  0  0  0  0  0  0  0  0
   -1.8424    2.1295   -2.5478 H   0  0  0  0  0  0  0  0  0  0  0  0
    0.2015    0.3289    1.9507 C   0  0  0  0  0  0  0  0  0  0  0  0
    1.3982    0.4375    2.2140 O   0  0  0  0  0  0  0  0  0  0  0  0
   -0.7560    0.6182    2.8411 N   0  0  0  0  0  0  0  0  0  0  0  0
   -1.7154    0.5161    2.5501 H   0  0  0  0  0  0  0  0  0  0  0  0
   -0.4949    1.0711    4.2060 C   0  0  0  0  0  0  0  0  0  0  0  0
    0.1786    1.9306    4.1866 H   0  0  0  0  0  0  0  0  0  0  0  0
   -1.4273    1.3569    4.6950 H   0  0  0  0  0  0  0  0  0  0  0  0
   -0.0180    0.2699    4.7739 H   0  0  0  0  0  0  0  0  0  0  0  0
  5  6  2  0  0  0  0
  5  7  1  0  0  0  0
  2  3  1  0  0  0  0
  2  4  1  0  0  0  0
  2  5  1  0  0  0  0
  1  2  1  0  0  0  0
 24 25  2  0  0  0  0
 24 26  1  0  0  0  0
 20 21  1  0  0  0  0
 20 22  1  0  0  0  0
 20 23  1  0  0  0  0
 17 18  1  0  0  0  0
 17 19  1  0  0  0  0
 17 20  1  0  0  0  0
 13 14  1  0  0  0  0
 13 15  1  0  0  0  0
 13 16  1  0  0  0  0
 11 12  1  0  0  0  0
 11 13  1  0  0  0  0
 11 17  1  0  0  0  0
  9 10  1  0  0  0  0
  9 11  1  0  0  0  0
  9 24  1  0  0  0  0
  7  8  1  0  0  0  0
  7  9  1  0  0  0  0
 28 29  1  0  0  0  0
 28 30  1  0  0  0  0
 28 31  1  0  0  0  0
 26 27  1  0  0  0  0
 26 28  1  0  0  0  0
M  END
$$$$
default_name
  -OEChem-01062215323D

 31 30  0     1  0  0  0  0  0999 V2000
   -3.0760   -3.6390    1.5496 H   0  0  0  0  0  0  0  0  0  0  0  0
   -3.0940   -2.6290    1.1426 C   0  0  0  0  0  0  0  0  0  0  0  0
   -3.7160   -1.9930    1.7706 H   0  0  0  0  0  0  0  0  0  0  0  0
   -3.4880   -2.6500    0.1286 H   0  0  0  0  0  0  0  0  0  0  0  0
   -1.6860   -2.0850    1.1196 C   0  0  0  0  0  0  0  0  0  0  0  0
   -0.7540   -2.7700    1.5226 O   0  0  0  0  0  0  0  0  0  0  0  0
   -1.5320   -0.8490    0.6496 N   0  0  0  0  0  0  0  0  0  0  0  0
   -2.3500   -0.3360    0.3566 H   0  0  0  0  0  0  0  0  0  0  0  0
   -0.2470   -0.1410    0.5576 C   0  0  1  0  0  0  0  0  0  0  0  0
    0.4959   -0.8532    0.1972 H   0  0  0  0  0  0  0  0  0  0  0  0
   -0.3409    1.0113   -0.4747 C   0  0  1  0  0  0  0  0  0  0  0  0
   -1.1935    1.6304   -0.1891 H   0  0  0  0  0  0  0  0  0  0  0  0
    0.9118    1.9082   -0.4709 C   0  0  0  0  0  0  0  0  0  0  0  0
    1.7827    1.3530   -0.8238 H   0  0  0  0  0  0  0  0  0  0  0  0
    0.7586    2.7747   -1.1123 H   0  0  0  0  0  0  0  0  0  0  0  0
    1.1115    2.2719    0.5377 H   0  0  0  0  0  0  0  0  0  0  0  0
   -0.6236    0.4640   -1.8918 C   0  0  0  0  0  0  0  0  0  0  0  0
    0.2473   -0.0788   -2.2617 H   0  0  0  0  0  0  0  0  0  0  0  0
   -1.4622   -0.2302   -1.8387 H   0  0  0  0  0  0  0  0  0  0  0  0
   -0.9926    1.5505   -2.9110 C   0  0  0  0  0  0  0  0  0  0  0  0
   -0.1465    2.2151   -3.0845 H   0  0  0  0  0  0  0  0  0  0  0  0
   -1.2631    1.0796   -3.8563 H   0  0  0  0  0  0  0  0  0  0  0  0
   -1.8424    2.1295   -2.5478 H   0  0  0  0  0  0  0  0  0  0  0  0
    0.2015    0.3289    1.9507 C   0  0  0  0  0  0  0  0  0  0  0  0
    1.3590    0.7011    2.1377 O   0  0  0  0  0  0  0  0  0  0  0  0
   -0.7146    0.3229    2.9274 N   0  0  0  0  0  0  0  0  0  0  0  0
   -1.6462    0.0153    2.6968 H   0  0  0  0  0  0  0  0  0  0  0  0
   -0.4463    0.7336    4.3042 C   0  0  0  0  0  0  0  0  0  0  0  0
    0.0056    1.7280    4.3107 H   0  0  0  0  0  0  0  0  0  0  0  0
   -1.3727    0.7568    4.8799 H   0  0  0  0  0  0  0  0  0  0  0  0
    0.2513    0.0331    4.7671 H   0  0  0  0  0  0  0  0  0  0  0  0
  5  6  2  0  0  0  0
  5  7  1  0  0  0  0
  2  3  1  0  0  0  0
  2  4  1  0  0  0  0
  2  5  1  0  0  0  0
  1  2  1  0  0  0  0
 24 25  2  0  0  0  0
 24 26  1  0  0  0  0
 20 21  1  0  0  0  0
 20 22  1  0  0  0  0
 20 23  1  0  0  0  0
 17 18  1  0  0  0  0
 17 19  1  0  0  0  0
 17 20  1  0  0  0  0
 13 14  1  0  0  0  0
 13 15  1  0  0  0  0
 13 16  1  0  0  0  0
 11 12  1  0  0  0  0
 11 13  1  0  0  0  0
 11 17  1  0  0  0  0
  9 10  1  0  0  0  0
  9 11  1  0  0  0  0
  9 24  1  0  0  0  0
  7  8  1  0  0  0  0
  7  9  1  0  0  0  0
 28 29  1  0  0  0  0
 28 30  1  0  0  0  0
 28 31  1  0  0  0  0
 26 27  1  0  0  0  0
 26 28  1  0  0  0  0
M  END
$$$$
default_name
  -OEChem-01062215323D

 31 30  0     1  0  0  0  0  0999 V2000
   -3.0760   -3.6390    1.5496 H   0  0  0  0  0  0  0  0  0  0  0  0
   -3.0940   -2.6290    1.1426 C   0  0  0  0  0  0  0  0  0  0  0  0
   -3.7160   -1.9930    1.7706 H   0  0  0  0  0  0  0  0  0  0  0  0
   -3.4880   -2.6500    0.1286 H   0  0  0  0  0  0  0  0  0  0  0  0
   -1.6860   -2.0850    1.1196 C   0  0  0  0  0  0  0  0  0  0  0  0
   -0.7540   -2.7700    1.5226 O   0  0  0  0  0  0  0  0  0  0  0  0
   -1.5320   -0.8490    0.6496 N   0  0  0  0  0  0  0  0  0  0  0  0
   -2.3500   -0.3360    0.3566 H   0  0  0  0  0  0  0  0  0  0  0  0
   -0.2470   -0.1410    0.5576 C   0  0  1  0  0  0  0  0  0  0  0  0
    0.4959   -0.8532    0.1972 H   0  0  0  0  0  0  0  0  0  0  0  0
   -0.3409    1.0113   -0.4747 C   0  0  1  0  0  0  0  0  0  0  0  0
   -1.1935    1.6304   -0.1891 H   0  0  0  0  0  0  0  0  0  0  0  0
    0.9118    1.9082   -0.4709 C   0  0  0  0  0  0  0  0  0  0  0  0
    1.7827    1.3530   -0.8238 H   0  0  0  0  0  0  0  0  0  0  0  0
    0.7586    2.7747   -1.1123 H   0  0  0  0  0  0  0  0  0  0  0  0
    1.1115    2.2719    0.5377 H   0  0  0  0  0  0  0  0  0  0  0  0
   -0.6236    0.4640   -1.8918 C   0  0  0  0  0  0  0  0  0  0  0  0
    0.2473   -0.0788   -2.2617 H   0  0  0  0  0  0  0  0  0  0  0  0
   -1.4622   -0.2302   -1.8387 H   0  0  0  0  0  0  0  0  0  0  0  0
   -0.9926    1.5505   -2.9110 C   0  0  0  0  0  0  0  0  0  0  0  0
   -0.1465    2.2151   -3.0845 H   0  0  0  0  0  0  0  0  0  0  0  0
   -1.2631    1.0796   -3.8563 H   0  0  0  0  0  0  0  0  0  0  0  0
   -1.8424    2.1295   -2.5478 H   0  0  0  0  0  0  0  0  0  0  0  0
    0.2015    0.3289    1.9507 C   0  0  0  0  0  0  0  0  0  0  0  0
    1.2532    0.9523    2.0870 O   0  0  0  0  0  0  0  0  0  0  0  0
   -0.5986    0.0409    2.9851 N   0  0  0  0  0  0  0  0  0  0  0  0
   -1.4502   -0.4634    2.7951 H   0  0  0  0  0  0  0  0  0  0  0  0
   -0.3124    0.4117    4.3696 C   0  0  0  0  0  0  0  0  0  0  0  0
   -0.1043    1.4823    4.4289 H   0  0  0  0  0  0  0  0  0  0  0  0
   -1.1645    0.1760    5.0088 H   0  0  0  0  0  0  0  0  0  0  0  0
    0.5665   -0.1321    4.7213 H   0  0  0  0  0  0  0  0  0  0  0  0
  5  6  2  0  0  0  0
  5  7  1  0  0  0  0
  2  3  1  0  0  0  0
  2  4  1  0  0  0  0
  2  5  1  0  0  0  0
  1  2  1  0  0  0  0
 24 25  2  0  0  0  0
 24 26  1  0  0  0  0
 20 21  1  0  0  0  0
 20 22  1  0  0  0  0
 20 23  1  0  0  0  0
 17 18  1  0  0  0  0
 17 19  1  0  0  0  0
 17 20  1  0  0  0  0
 13 14  1  0  0  0  0
 13 15  1  0  0  0  0
 13 16  1  0  0  0  0
 11 12  1  0  0  0  0
 11 13  1  0  0  0  0
 11 17  1  0  0  0  0
  9 10  1  0  0  0  0
  9 11  1  0  0  0  0
  9 24  1  0  0  0  0
  7  8  1  0  0  0  0
  7  9  1  0  0  0  0
 28 29  1  0  0  0  0
 28 30  1  0  0  0  0
 28 31  1  0  0  0  0
 26 27  1  0  0  0  0
 26 28  1  0  0  0  0
M  END
$$$$
default_name
  -OEChem-01062215323D

 31 30  0     1  0  0  0  0  0999 V2000
   -3.0760   -3.6390    1.5496 H   0  0  0  0  0  0  0  0  0  0  0  0
   -3.0940   -2.6290    1.1426 C   0  0  0  0  0  0  0  0  0  0  0  0
   -3.7160   -1.9930    1.7706 H   0  0  0  0  0  0  0  0  0  0  0  0
   -3.4880   -2.6500    0.1286 H   0  0  0  0  0  0  0  0  0  0  0  0
   -1.6860   -2.0850    1.1196 C   0  0  0  0  0  0  0  0  0  0  0  0
   -0.7540   -2.7700    1.5226 O   0  0  0  0  0  0  0  0  0  0  0  0
   -1.5320   -0.8490    0.6496 N   0  0  0  0  0  0  0  0  0  0  0  0
   -2.3500   -0.3360    0.3566 H   0  0  0  0  0  0  0  0  0  0  0  0
   -0.2470   -0.1410    0.5576 C   0  0  1  0  0  0  0  0  0  0  0  0
    0.4959   -0.8532    0.1972 H   0  0  0  0  0  0  0  0  0  0  0  0
   -0.3409    1.0113   -0.4747 C   0  0  1  0  0  0  0  0  0  0  0  0
   -1.1935    1.6304   -0.1891 H   0  0  0  0  0  0  0  0  0  0  0  0
    0.9118    1.9082   -0.4709 C   0  0  0  0  0  0  0  0  0  0  0  0
    1.7827    1.3530   -0.8238 H   0  0  0  0  0  0  0  0  0  0  0  0
    0.7586    2.7747   -1.1123 H   0  0  0  0  0  0  0  0  0  0  0  0
    1.1115    2.2719    0.5377 H   0  0  0  0  0  0  0  0  0  0  0  0
   -0.6236    0.4640   -1.8918 C   0  0  0  0  0  0  0  0  0  0  0  0
    0.2473   -0.0788   -2.2617 H   0  0  0  0  0  0  0  0  0  0  0  0
   -1.4622   -0.2302   -1.8387 H   0  0  0  0  0  0  0  0  0  0  0  0
   -0.9926    1.5505   -2.9110 C   0  0  0  0  0  0  0  0  0  0  0  0
   -0.1465    2.2151   -3.0845 H   0  0  0  0  0  0  0  0  0  0  0  0
   -1.2631    1.0796   -3.8563 H   0  0  0  0  0  0  0  0  0  0  0  0
   -1.8424    2.1295   -2.5478 H   0  0  0  0  0  0  0  0  0  0  0  0
    0.2015    0.3289    1.9507 C   0  0  0  0  0  0  0  0  0  0  0  0
    1.0881    1.1739    2.0654 O   0  0  0  0  0  0  0  0  0  0  0  0
   -0.4158   -0.2087    3.0105 N   0  0  0  0  0  0  0  0  0  0  0  0
   -1.1409   -0.8872    2.8385 H   0  0  0  0  0  0  0  0  0  0  0  0
   -0.1023    0.1272    4.3980 C   0  0  0  0  0  0  0  0  0  0  0  0
   -0.1434    1.2103    4.5332 H   0  0  0  0  0  0  0  0  0  0  0  0
   -0.8170   -0.3459    5.0729 H   0  0  0  0  0  0  0  0  0  0  0  0
    0.9060   -0.2142    4.6397 H   0  0  0  0  0  0  0  0  0  0  0  0
  5  6  2  0  0  0  0
  5  7  1  0  0  0  0
  2  3  1  0  0  0  0
  2  4  1  0  0  0  0
  2  5  1  0  0  0  0
  1  2  1  0  0  0  0
 24 25  2  0  0  0  0
 24 26  1  0  0  0  0
 20 21  1  0  0  0  0
 20 22  1  0  0  0  0
 20 23  1  0  0  0  0
 17 18  1  0  0  0  0
 17 19  1  0  0  0  0
 17 20  1  0  0  0  0
 13 14  1  0  0  0  0
 13 15  1  0  0  0  0
 13 16  1  0  0  0  0
 11 12  1  0  0  0  0
 11 13  1  0  0  0  0
 11 17  1  0  0  0  0
  9 10  1  0  0  0  0
  9 11  1  0  0  0  0
  9 24  1  0  0  0  0
  7  8  1  0  0  0  0
  7  9  1  0  0  0  0
 28 29  1  0  0  0  0
 28 30  1  0  0  0  0
 28 31  1  0  0  0  0
 26 27  1  0  0  0  0
 26 28  1  0  0  0  0
M  END
$$$$
default_name
  -OEChem-01062215323D

 31 30  0     1  0  0  0  0  0999 V2000
   -3.0760   -3.6390    1.5496 H   0  0  0  0  0  0  0  0  0  0  0  0
   -3.0940   -2.6290    1.1426 C   0  0  0  0  0  0  0  0  0  0  0  0
   -3.7160   -1.9930    1.7706 H   0  0  0  0  0  0  0  0  0  0  0  0
   -3.4880   -2.6500    0.1286 H   0  0  0  0  0  0  0  0  0  0  0  0
   -1.6860   -2.0850    1.1196 C   0  0  0  0  0  0  0  0  0  0  0  0
   -0.7540   -2.7700    1.5226 O   0  0  0  0  0  0  0  0  0  0  0  0
   -1.5320   -0.8490    0.6496 N   0  0  0  0  0  0  0  0  0  0  0  0
   -2.3500   -0.3360    0.3566 H   0  0  0  0  0  0  0  0  0  0  0  0
   -0.2470   -0.1410    0.5576 C   0  0  1  0  0  0  0  0  0  0  0  0
    0.4959   -0.8532    0.1972 H   0  0  0  0  0  0  0  0  0  0  0  0
   -0.3409    1.0113   -0.4747 C   0  0  1  0  0  0  0  0  0  0  0  0
   -1.1935    1.6304   -0.1891 H   0  0  0  0  0  0  0  0  0  0  0  0
    0.9118    1.9082   -0.4709 C   0  0  0  0  0  0  0  0  0  0  0  0
    1.7827    1.3530   -0.8238 H   0  0  0  0  0  0  0  0  0  0  0  0
    0.7586    2.7747   -1.1123 H   0  0  0  0  0  0  0  0  0  0  0  0
    1.1115    2.2719    0.5377 H   0  0  0  0  0  0  0  0  0  0  0  0
   -0.6236    0.4640   -1.8918 C   0  0  0  0  0  0  0  0  0  0  0  0
    0.2473   -0.0788   -2.2617 H   0  0  0  0  0  0  0  0  0  0  0  0
   -1.4622   -0.2302   -1.8387 H   0  0  0  0  0  0  0  0  0  0  0  0
   -0.9926    1.5505   -2.9110 C   0  0  0  0  0  0  0  0  0  0  0  0
   -0.1465    2.2151   -3.0845 H   0  0  0  0  0  0  0  0  0  0  0  0
   -1.2631    1.0796   -3.8563 H   0  0  0  0  0  0  0  0  0  0  0  0
   -1.8424    2.1295   -2.5478 H   0  0  0  0  0  0  0  0  0  0  0  0
    0.2015    0.3289    1.9507 C   0  0  0  0  0  0  0  0  0  0  0  0
    0.8749    1.3509    2.0743 O   0  0  0  0  0  0  0  0  0  0  0  0
   -0.1787   -0.4088    3.0016 N   0  0  0  0  0  0  0  0  0  0  0  0
   -0.7392   -1.2272    2.8239 H   0  0  0  0  0  0  0  0  0  0  0  0
    0.1695   -0.1005    4.3873 C   0  0  0  0  0  0  0  0  0  0  0  0
   -0.1091    0.9305    4.6166 H   0  0  0  0  0  0  0  0  0  0  0  0
   -0.3539   -0.7734    5.0680 H   0  0  0  0  0  0  0  0  0  0  0  0
    1.2468   -0.2077    4.5278 H   0  0  0  0  0  0  0  0  0  0  0  0
  5  6  2  0  0  0  0
  5  7  1  0  0  0  0
  2  3  1  0  0  0  0
  2  4  1  0  0  0  0
  2  5  1  0  0  0  0
  1  2  1  0  0  0  0
 24 25  2  0  0  0  0
 24 26  1  0  0  0  0
 20 21  1  0  0  0  0
 20 22  1  0  0  0  0
 20 23  1  0  0  0  0
 17 18  1  0  0  0  0
 17 19  1  0  0  0  0
 17 20  1  0  0  0  0
 13 14  1  0  0  0  0
 13 15  1  0  0  0  0
 13 16  1  0  0  0  0
 11 12  1  0  0  0  0
 11 13  1  0  0  0  0
 11 17  1  0  0  0  0
  9 10  1  0  0  0  0
  9 11  1  0  0  0  0
  9 24  1  0  0  0  0
  7  8  1  0  0  0  0
  7  9  1  0  0  0  0
 28 29  1  0  0  0  0
 28 30  1  0  0  0  0
 28 31  1  0  0  0  0
 26 27  1  0  0  0  0
 26 28  1  0  0  0  0
M  END
$$$$
default_name
  -OEChem-01062215323D

 31 30  0     1  0  0  0  0  0999 V2000
   -3.0760   -3.6390    1.5496 H   0  0  0  0  0  0  0  0  0  0  0  0
   -3.0940   -2.6290    1.1426 C   0  0  0  0  0  0  0  0  0  0  0  0
   -3.7160   -1.9930    1.7706 H   0  0  0  0  0  0  0  0  0  0  0  0
   -3.4880   -2.6500    0.1286 H   0  0  0  0  0  0  0  0  0  0  0  0
   -1.6860   -2.0850    1.1196 C   0  0  0  0  0  0  0  0  0  0  0  0
   -0.7540   -2.7700    1.5226 O   0  0  0  0  0  0  0  0  0  0  0  0
   -1.5320   -0.8490    0.6496 N   0  0  0  0  0  0  0  0  0  0  0  0
   -2.3500   -0.3360    0.3566 H   0  0  0  0  0  0  0  0  0  0  0  0
   -0.2470   -0.1410    0.5576 C   0  0  1  0  0  0  0  0  0  0  0  0
    0.4959   -0.8532    0.1972 H   0  0  0  0  0  0  0  0  0  0  0  0
   -0.3409    1.0113   -0.4747 C   0  0  1  0  0  0  0  0  0  0  0  0
   -1.1935    1.6304   -0.1891 H   0  0  0  0  0  0  0  0  0  0  0  0
    0.9118    1.9082   -0.4709 C   0  0  0  0  0  0  0  0  0  0  0  0
    1.7827    1.3530   -0.8238 H   0  0  0  0  0  0  0  0  0  0  0  0
    0.7586    2.7747   -1.1123 H   0  0  0  0  0  0  0  0  0  0  0  0
    1.1115    2.2719    0.5377 H   0  0  0  0  0  0  0  0  0  0  0  0
   -0.6236    0.4640   -1.8918 C   0  0  0  0  0  0  0  0  0  0  0  0
    0.2473   -0.0788   -2.2617 H   0  0  0  0  0  0  0  0  0  0  0  0
   -1.4622   -0.2302   -1.8387 H   0  0  0  0  0  0  0  0  0  0  0  0
   -0.9926    1.5505   -2.9110 C   0  0  0  0  0  0  0  0  0  0  0  0
   -0.1465    2.2151   -3.0845 H   0  0  0  0  0  0  0  0  0  0  0  0
   -1.2631    1.0796   -3.8563 H   0  0  0  0  0  0  0  0  0  0  0  0
   -1.8424    2.1295   -2.5478 H   0  0  0  0  0  0  0  0  0  0  0  0
    0.2015    0.3289    1.9507 C   0  0  0  0  0  0  0  0  0  0  0  0
    0.6282    1.4712    2.1132 O   0  0  0  0  0  0  0  0  0  0  0  0
    0.0966   -0.5458    2.9592 N   0  0  0  0  0  0  0  0  0  0  0  0
   -0.2726   -1.4604    2.7523 H   0  0  0  0  0  0  0  0  0  0  0  0
    0.4847   -0.2558    4.3382 C   0  0  0  0  0  0  0  0  0  0  0  0
   -0.0037    0.6619    4.6732 H   0  0  0  0  0  0  0  0  0  0  0  0
    0.1934   -1.0773    4.9943 H   0  0  0  0  0  0  0  0  0  0  0  0
    1.5656   -0.1130    4.3932 H   0  0  0  0  0  0  0  0  0  0  0  0
  5  6  2  0  0  0  0
  5  7  1  0  0  0  0
  2  3  1  0  0  0  0
  2  4  1  0  0  0  0
  2  5  1  0  0  0  0
  1  2  1  0  0  0  0
 24 25  2  0  0  0  0
 24 26  1  0  0  0  0
 20 21  1  0  0  0  0
 20 22  1  0  0  0  0
 20 23  1  0  0  0  0
 17 18  1  0  0  0  0
 17 19  1  0  0  0  0
 17 20  1  0  0  0  0
 13 14  1  0  0  0  0
 13 15  1  0  0  0  0
 13 16  1  0  0  0  0
 11 12  1  0  0  0  0
 11 13  1  0  0  0  0
 11 17  1  0  0  0  0
  9 10  1  0  0  0  0
  9 11  1  0  0  0  0
  9 24  1  0  0  0  0
  7  8  1  0  0  0  0
  7  9  1  0  0  0  0
 28 29  1  0  0  0  0
 28 30  1  0  0  0  0
 28 31  1  0  0  0  0
 26 27  1  0  0  0  0
 26 28  1  0  0  0  0
M  END
$$$$
default_name
  -OEChem-01062215323D

 31 30  0     1  0  0  0  0  0999 V2000
   -3.0760   -3.6390    1.5496 H   0  0  0  0  0  0  0  0  0  0  0  0
   -3.0940   -2.6290    1.1426 C   0  0  0  0  0  0  0  0  0  0  0  0
   -3.7160   -1.9930    1.7706 H   0  0  0  0  0  0  0  0  0  0  0  0
   -3.4880   -2.6500    0.1286 H   0  0  0  0  0  0  0  0  0  0  0  0
   -1.6860   -2.0850    1.1196 C   0  0  0  0  0  0  0  0  0  0  0  0
   -0.7540   -2.7700    1.5226 O   0  0  0  0  0  0  0  0  0  0  0  0
   -1.5320   -0.8490    0.6496 N   0  0  0  0  0  0  0  0  0  0  0  0
   -2.3500   -0.3360    0.3566 H   0  0  0  0  0  0  0  0  0  0  0  0
   -0.2470   -0.1410    0.5576 C   0  0  1  0  0  0  0  0  0  0  0  0
    0.4959   -0.8532    0.1972 H   0  0  0  0  0  0  0  0  0  0  0  0
   -0.3409    1.0113   -0.4747 C   0  0  1  0  0  0  0  0  0  0  0  0
   -1.1935    1.6304   -0.1891 H   0  0  0  0  0  0  0  0  0  0  0  0
    0.9118    1.9082   -0.4709 C   0  0  0  0  0  0  0  0  0  0  0  0
    1.7827    1.3530   -0.8238 H   0  0  0  0  0  0  0  0  0  0  0  0
    0.7586    2.7747   -1.1123 H   0  0  0  0  0  0  0  0  0  0  0  0
    1.1115    2.2719    0.5377 H   0  0  0  0  0  0  0  0  0  0  0  0
   -0.6236    0.4640   -1.8918 C   0  0  0  0  0  0  0  0  0  0  0  0
    0.2473   -0.0788   -2.2617 H   0  0  0  0  0  0  0  0  0  0  0  0
   -1.4622   -0.2302   -1.8387 H   0  0  0  0  0  0  0  0  0  0  0  0
   -0.9926    1.5505   -2.9110 C   0  0  0  0  0  0  0  0  0  0  0  0
   -0.1465    2.2151   -3.0845 H   0  0  0  0  0  0  0  0  0  0  0  0
   -1.2631    1.0796   -3.8563 H   0  0  0  0  0  0  0  0  0  0  0  0
   -1.8424    2.1295   -2.5478 H   0  0  0  0  0  0  0  0  0  0  0  0
    0.2015    0.3289    1.9507 C   0  0  0  0  0  0  0  0  0  0  0  0
    0.3647    1.5266    2.1793 O   0  0  0  0  0  0  0  0  0  0  0  0
    0.3913   -0.6103    2.8861 N   0  0  0  0  0  0  0  0  0  0  0  0
    0.2271   -1.5707    2.6287 H   0  0  0  0  0  0  0  0  0  0  0  0
    0.8217   -0.3282    4.2541 C   0  0  0  0  0  0  0  0  0  0  0  0
    0.1655    0.4230    4.6993 H   0  0  0  0  0  0  0  0  0  0  0  0
    0.7875   -1.2369    4.8569 H   0  0  0  0  0  0  0  0  0  0  0  0
    1.8406    0.0634    4.2452 H   0  0  0  0  0  0  0  0  0  0  0  0
  5  6  2  0  0  0  0
  5  7  1  0  0  0  0
  2  3  1  0  0  0  0
  2  4  1  0  0  0  0
  2  5  1  0  0  0  0
  1  2  1  0  0  0  0
 24 25  2  0  0  0  0
 24 26  1  0  0  0  0
 20 21  1  0  0  0  0
 20 22  1  0  0  0  0
 20 23  1  0  0  0  0
 17 18  1  0  0  0  0
 17 19  1  0  0  0  0
 17 20  1  0  0  0  0
 13 14  1  0  0  0  0
 13 15  1  0  0  0  0
 13 16  1  0  0  0  0
 11 12  1  0  0  0  0
 11 13  1  0  0  0  0
 11 17  1  0  0  0  0
  9 10  1  0  0  0  0
  9 11  1  0  0  0  0
  9 24  1  0  0  0  0
  7  8  1  0  0  0  0
  7  9  1  0  0  0  0
 28 29  1  0  0  0  0
 28 30  1  0  0  0  0
 28 31  1  0  0  0  0
 26 27  1  0  0  0  0
 26 28  1  0  0  0  0
M  END
$$$$
default_name
  -OEChem-01062215323D

 31 30  0     1  0  0  0  0  0999 V2000
   -3.0760   -3.6390    1.5496 H   0  0  0  0  0  0  0  0  0  0  0  0
   -3.0940   -2.6290    1.1426 C   0  0  0  0  0  0  0  0  0  0  0  0
   -3.7160   -1.9930    1.7706 H   0  0  0  0  0  0  0  0  0  0  0  0
   -3.4880   -2.6500    0.1286 H   0  0  0  0  0  0  0  0  0  0  0  0
   -1.6860   -2.0850    1.1196 C   0  0  0  0  0  0  0  0  0  0  0  0
   -0.7540   -2.7700    1.5226 O   0  0  0  0  0  0  0  0  0  0  0  0
   -1.5320   -0.8490    0.6496 N   0  0  0  0  0  0  0  0  0  0  0  0
   -2.3500   -0.3360    0.3566 H   0  0  0  0  0  0  0  0  0  0  0  0
   -0.2470   -0.1410    0.5576 C   0  0  1  0  0  0  0  0  0  0  0  0
    0.4959   -0.8532    0.1972 H   0  0  0  0  0  0  0  0  0  0  0  0
   -0.3409    1.0113   -0.4747 C   0  0  1  0  0  0  0  0  0  0  0  0
   -1.1935    1.6304   -0.1891 H   0  0  0  0  0  0  0  0  0  0  0  0
    0.9118    1.9082   -0.4709 C   0  0  0  0  0  0  0  0  0  0  0  0
    1.7827    1.3530   -0.8238 H   0  0  0  0  0  0  0  0  0  0  0  0
    0.7586    2.7747   -1.1123 H   0  0  0  0  0  0  0  0  0  0  0  0
    1.1115    2.2719    0.5377 H   0  0  0  0  0  0  0  0  0  0  0  0
   -0.6236    0.4640   -1.8918 C   0  0  0  0  0  0  0  0  0  0  0  0
    0.2473   -0.0788   -2.2617 H   0  0  0  0  0  0  0  0  0  0  0  0
   -1.4622   -0.2302   -1.8387 H   0  0  0  0  0  0  0  0  0  0  0  0
   -0.9926    1.5505   -2.9110 C   0  0  0  0  0  0  0  0  0  0  0  0
   -0.1465    2.2151   -3.0845 H   0  0  0  0  0  0  0  0  0  0  0  0
   -1.2631    1.0796   -3.8563 H   0  0  0  0  0  0  0  0  0  0  0  0
   -1.8424    2.1295   -2.5478 H   0  0  0  0  0  0  0  0  0  0  0  0
    0.2015    0.3289    1.9507 C   0  0  0  0  0  0  0  0  0  0  0  0
    0.1025    1.5133    2.2682 O   0  0  0  0  0  0  0  0  0  0  0  0
    0.6853   -0.5980    2.7873 N   0  0  0  0  0  0  0  0  0  0  0  0
    0.7258   -1.5507    2.4613 H   0  0  0  0  0  0  0  0  0  0  0  0
    1.1575   -0.3127    4.1408 C   0  0  0  0  0  0  0  0  0  0  0  0
    0.3871    0.2299    4.6931 H   0  0  0  0  0  0  0  0  0  0  0  0
    1.3879   -1.2413    4.6651 H   0  0  0  0  0  0  0  0  0  0  0  0
    2.0532    0.3095    4.0937 H   0  0  0  0  0  0  0  0  0  0  0  0
  5  6  2  0  0  0  0
  5  7  1  0  0  0  0
  2  3  1  0  0  0  0
  2  4  1  0  0  0  0
  2  5  1  0  0  0  0
  1  2  1  0  0  0  0
 24 25  2  0  0  0  0
 24 26  1  0  0  0  0
 20 21  1  0  0  0  0
 20 22  1  0  0  0  0
 20 23  1  0  0  0  0
 17 18  1  0  0  0  0
 17 19  1  0  0  0  0
 17 20  1  0  0  0  0
 13 14  1  0  0  0  0
 13 15  1  0  0  0  0
 13 16  1  0  0  0  0
 11 12  1  0  0  0  0
 11 13  1  0  0  0  0
 11 17  1  0  0  0  0
  9 10  1  0  0  0  0
  9 11  1  0  0  0  0
  9 24  1  0  0  0  0
  7  8  1  0  0  0  0
  7  9  1  0  0  0  0
 28 29  1  0  0  0  0
 28 30  1  0  0  0  0
 28 31  1  0  0  0  0
 26 27  1  0  0  0  0
 26 28  1  0  0  0  0
M  END
$$$$
default_name
  -OEChem-01062215323D

 31 30  0     1  0  0  0  0  0999 V2000
   -3.0760   -3.6390    1.5496 H   0  0  0  0  0  0  0  0  0  0  0  0
   -3.0940   -2.6290    1.1426 C   0  0  0  0  0  0  0  0  0  0  0  0
   -3.7160   -1.9930    1.7706 H   0  0  0  0  0  0  0  0  0  0  0  0
   -3.4880   -2.6500    0.1286 H   0  0  0  0  0  0  0  0  0  0  0  0
   -1.6860   -2.0850    1.1196 C   0  0  0  0  0  0  0  0  0  0  0  0
   -0.7540   -2.7700    1.5226 O   0  0  0  0  0  0  0  0  0  0  0  0
   -1.5320   -0.8490    0.6496 N   0  0  0  0  0  0  0  0  0  0  0  0
   -2.3500   -0.3360    0.3566 H   0  0  0  0  0  0  0  0  0  0  0  0
   -0.2470   -0.1410    0.5576 C   0  0  1  0  0  0  0  0  0  0  0  0
    0.4959   -0.8532    0.1972 H   0  0  0  0  0  0  0  0  0  0  0  0
   -0.3409    1.0113   -0.4747 C   0  0  1  0  0  0  0  0  0  0  0  0
   -1.1935    1.6304   -0.1891 H   0  0  0  0  0  0  0  0  0  0  0  0
    0.9118    1.9082   -0.4709 C   0  0  0  0  0  0  0  0  0  0  0  0
    1.7827    1.3530   -0.8238 H   0  0  0  0  0  0  0  0  0  0  0  0
    0.7586    2.7747   -1.1123 H   0  0  0  0  0  0  0  0  0  0  0  0
    1.1115    2.2719    0.5377 H   0  0  0  0  0  0  0  0  0  0  0  0
   -0.6236    0.4640   -1.8918 C   0  0  0  0  0  0  0  0  0  0  0  0
    0.2473   -0.0788   -2.2617 H   0  0  0  0  0  0  0  0  0  0  0  0
   -1.4622   -0.2302   -1.8387 H   0  0  0  0  0  0  0  0  0  0  0  0
   -0.9926    1.5505   -2.9110 C   0  0  0  0  0  0  0  0  0  0  0  0
   -0.1465    2.2151   -3.0845 H   0  0  0  0  0  0  0  0  0  0  0  0
   -1.2631    1.0796   -3.8563 H   0  0  0  0  0  0  0  0  0  0  0  0
   -1.8424    2.1295   -2.5478 H   0  0  0  0  0  0  0  0  0  0  0  0
    0.2015    0.3289    1.9507 C   0  0  0  0  0  0  0  0  0  0  0  0
   -0.1407    1.4322    2.3739 O   0  0  0  0  0  0  0  0  0  0  0  0
    0.9585   -0.5097    2.6695 N   0  0  0  0  0  0  0  0  0  0  0  0
    1.1897   -1.4018    2.2618 H   0  0  0  0  0  0  0  0  0  0  0  0
    1.4693   -0.2105    4.0059 C   0  0  0  0  0  0  0  0  0  0  0  0
    0.6460    0.0959    4.6550 H   0  0  0  0  0  0  0  0  0  0  0  0
    1.9537   -1.0902    4.4320 H   0  0  0  0  0  0  0  0  0  0  0  0
    2.1889    0.6085    3.9492 H   0  0  0  0  0  0  0  0  0  0  0  0
  5  6  2  0  0  0  0
  5  7  1  0  0  0  0
  2  3  1  0  0  0  0
  2  4  1  0  0  0  0
  2  5  1  0  0  0  0
  1  2  1  0  0  0  0
 24 25  2  0  0  0  0
 24 26  1  0  0  0  0
 20 21  1  0  0  0  0
 20 22  1  0  0  0  0
 20 23  1  0  0  0  0
 17 18  1  0  0  0  0
 17 19  1  0  0  0  0
 17 20  1  0  0  0  0
 13 14  1  0  0  0  0
 13 15  1  0  0  0  0
 13 16  1  0  0  0  0
 11 12  1  0  0  0  0
 11 13  1  0  0  0  0
 11 17  1  0  0  0  0
  9 10  1  0  0  0  0
  9 11  1  0  0  0  0
  9 24  1  0  0  0  0
  7  8  1  0  0  0  0
  7  9  1  0  0  0  0
 28 29  1  0  0  0  0
 28 30  1  0  0  0  0
 28 31  1  0  0  0  0
 26 27  1  0  0  0  0
 26 28  1  0  0  0  0
M  END
$$$$
default_name
  -OEChem-01062215323D

 31 30  0     1  0  0  0  0  0999 V2000
   -3.0760   -3.6390    1.5496 H   0  0  0  0  0  0  0  0  0  0  0  0
   -3.0940   -2.6290    1.1426 C   0  0  0  0  0  0  0  0  0  0  0  0
   -3.7160   -1.9930    1.7706 H   0  0  0  0  0  0  0  0  0  0  0  0
   -3.4880   -2.6500    0.1286 H   0  0  0  0  0  0  0  0  0  0  0  0
   -1.6860   -2.0850    1.1196 C   0  0  0  0  0  0  0  0  0  0  0  0
   -0.7540   -2.7700    1.5226 O   0  0  0  0  0  0  0  0  0  0  0  0
   -1.5320   -0.8490    0.6496 N   0  0  0  0  0  0  0  0  0  0  0  0
   -2.3500   -0.3360    0.3566 H   0  0  0  0  0  0  0  0  0  0  0  0
   -0.2470   -0.1410    0.5576 C   0  0  1  0  0  0  0  0  0  0  0  0
    0.4959   -0.8532    0.1972 H   0  0  0  0  0  0  0  0  0  0  0  0
   -0.3409    1.0113   -0.4747 C   0  0  1  0  0  0  0  0  0  0  0  0
   -1.1935    1.6304   -0.1891 H   0  0  0  0  0  0  0  0  0  0  0  0
    0.9118    1.9082   -0.4709 C   0  0  0  0  0  0  0  0  0  0  0  0
    1.7827    1.3530   -0.8238 H   0  0  0  0  0  0  0  0  0  0  0  0
    0.7586    2.7747   -1.1123 H   0  0  0  0  0  0  0  0  0  0  0  0
    1.1115    2.2719    0.5377 H   0  0  0  0  0  0  0  0  0  0  0  0
   -0.6236    0.4640   -1.8918 C   0  0  0  0  0  0  0  0  0  0  0  0
    0.2473   -0.0788   -2.2617 H   0  0  0  0  0  0  0  0  0  0  0  0
   -1.4622   -0.2302   -1.8387 H   0  0  0  0  0  0  0  0  0  0  0  0
   -0.9926    1.5505   -2.9110 C   0  0  0  0  0  0  0  0  0  0  0  0
   -0.1465    2.2151   -3.0845 H   0  0  0  0  0  0  0  0  0  0  0  0
   -1.2631    1.0796   -3.8563 H   0  0  0  0  0  0  0  0  0  0  0  0
   -1.8424    2.1295   -2.5478 H   0  0  0  0  0  0  0  0  0  0  0  0
    0.2015    0.3289    1.9507 C   0  0  0  0  0  0  0  0  0  0  0  0
   -0.3481    1.2889    2.4890 O   0  0  0  0  0  0  0  0  0  0  0  0
    1.1924   -0.3514    2.5408 N   0  0  0  0  0  0  0  0  0  0  0  0
    1.5870   -1.1341    2.0436 H   0  0  0  0  0  0  0  0  0  0  0  0
    1.7358   -0.0284    3.8587 C   0  0  0  0  0  0  0  0  0  0  0  0
    0.9244    0.0300    4.5876 H   0  0  0  0  0  0  0  0  0  0  0  0
    2.4463   -0.7940    4.1735 H   0  0  0  0  0  0  0  0  0  0  0  0
    2.2384    0.9400    3.8214 H   0  0  0  0  0  0  0  0  0  0  0  0
  5  6  2  0  0  0  0
  5  7  1  0  0  0  0
  2  3  1  0  0  0  0
  2  4  1  0  0  0  0
  2  5  1  0  0  0  0
  1  2  1  0  0  0  0
 24 25  2  0  0  0  0
 24 26  1  0  0  0  0
 20 21  1  0  0  0  0
 20 22  1  0  0  0  0
 20 23  1  0  0  0  0
 17 18  1  0  0  0  0
 17 19  1  0  0  0  0
 17 20  1  0  0  0  0
 13 14  1  0  0  0  0
 13 15  1  0  0  0  0
 13 16  1  0  0  0  0
 11 12  1  0  0  0  0
 11 13  1  0  0  0  0
 11 17  1  0  0  0  0
  9 10  1  0  0  0  0
  9 11  1  0  0  0  0
  9 24  1  0  0  0  0
  7  8  1  0  0  0  0
  7  9  1  0  0  0  0
 28 29  1  0  0  0  0
 28 30  1  0  0  0  0
 28 31  1  0  0  0  0
 26 27  1  0  0  0  0
 26 28  1  0  0  0  0
M  END
$$$$
default_name
  -OEChem-01062215323D

 31 30  0     1  0  0  0  0  0999 V2000
   -3.0760   -3.6390    1.5496 H   0  0  0  0  0  0  0  0  0  0  0  0
   -3.0940   -2.6290    1.1426 C   0  0  0  0  0  0  0  0  0  0  0  0
   -3.7160   -1.9930    1.7706 H   0  0  0  0  0  0  0  0  0  0  0  0
   -3.4880   -2.6500    0.1286 H   0  0  0  0  0  0  0  0  0  0  0  0
   -1.6860   -2.0850    1.1196 C   0  0  0  0  0  0  0  0  0  0  0  0
   -0.7540   -2.7700    1.5226 O   0  0  0  0  0  0  0  0  0  0  0  0
   -1.5320   -0.8490    0.6496 N   0  0  0  0  0  0  0  0  0  0  0  0
   -2.3500   -0.3360    0.3566 H   0  0  0  0  0  0  0  0  0  0  0  0
   -0.2470   -0.1410    0.5576 C   0  0  1  0  0  0  0  0  0  0  0  0
    0.4959   -0.8532    0.1972 H   0  0  0  0  0  0  0  0  0  0  0  0
   -0.3409    1.0113   -0.4747 C   0  0  1  0  0  0  0  0  0  0  0  0
   -1.1935    1.6304   -0.1891 H   0  0  0  0  0  0  0  0  0  0  0  0
    0.9118    1.9082   -0.4709 C   0  0  0  0  0  0  0  0  0  0  0  0
    1.7827    1.3530   -0.8238 H   0  0  0  0  0  0  0  0  0  0  0  0
    0.7586    2.7747   -1.1123 H   0  0  0  0  0  0  0  0  0  0  0  0
    1.1115    2.2719    0.5377 H   0  0  0  0  0  0  0  0  0  0  0  0
   -0.6236    0.4640   -1.8918 C   0  0  0  0  0  0  0  0  0  0  0  0
    0.2473   -0.0788   -2.2617 H   0  0  0  0  0  0  0  0  0  0  0  0
   -1.4622   -0.2302   -1.8387 H   0  0  0  0  0  0  0  0  0  0  0  0
   -0.9926    1.5505   -2.9110 C   0  0  0  0  0  0  0  0  0  0  0  0
   -0.1465    2.2151   -3.0845 H   0  0  0  0  0  0  0  0  0  0  0  0
   -1.2631    1.0796   -3.8563 H   0  0  0  0  0  0  0  0  0  0  0  0
   -1.8424    2.1295   -2.5478 H   0  0  0  0  0  0  0  0  0  0  0  0
    0.2015    0.3289    1.9507 C   0  0  0  0  0  0  0  0  0  0  0  0
   -0.5058    1.0931    2.6058 O   0  0  0  0  0  0  0  0  0  0  0  0
    1.3711   -0.1339    2.4100 N   0  0  0  0  0  0  0  0  0  0  0  0
    1.8908   -0.7658    1.8215 H   0  0  0  0  0  0  0  0  0  0  0  0
    1.9388    0.2212    3.7092 C   0  0  0  0  0  0  0  0  0  0  0  0
    1.2035    0.0368    4.4955 H   0  0  0  0  0  0  0  0  0  0  0  0
    2.8323   -0.3728    3.9071 H   0  0  0  0  0  0  0  0  0  0  0  0
    2.1982    1.2815    3.7192 H   0  0  0  0  0  0  0  0  0  0  0  0
  5  6  2  0  0  0  0
  5  7  1  0  0  0  0
  2  3  1  0  0  0  0
  2  4  1  0  0  0  0
  2  5  1  0  0  0  0
  1  2  1  0  0  0  0
 24 25  2  0  0  0  0
 24 26  1  0  0  0  0
 20 21  1  0  0  0  0
 20 22  1  0  0  0  0
 20 23  1  0  0  0  0
 17 18  1  0  0  0  0
 17 19  1  0  0  0  0
 17 20  1  0  0  0  0
 13 14  1  0  0  0  0
 13 15  1  0  0  0  0
 13 16  1  0  0  0  0
 11 12  1  0  0  0  0
 11 13  1  0  0  0  0
 11 17  1  0  0  0  0
  9 10  1  0  0  0  0
  9 11  1  0  0  0  0
  9 24  1  0  0  0  0
  7  8  1  0  0  0  0
  7  9  1  0  0  0  0
 28 29  1  0  0  0  0
 28 30  1  0  0  0  0
 28 31  1  0  0  0  0
 26 27  1  0  0  0  0
 26 28  1  0  0  0  0
M  END
$$$$
default_name
  -OEChem-01062215323D

 31 30  0     1  0  0  0  0  0999 V2000
   -3.0760   -3.6390    1.5496 H   0  0  0  0  0  0  0  0  0  0  0  0
   -3.0940   -2.6290    1.1426 C   0  0  0  0  0  0  0  0  0  0  0  0
   -3.7160   -1.9930    1.7706 H   0  0  0  0  0  0  0  0  0  0  0  0
   -3.4880   -2.6500    0.1286 H   0  0  0  0  0  0  0  0  0  0  0  0
   -1.6860   -2.0850    1.1196 C   0  0  0  0  0  0  0  0  0  0  0  0
   -0.7540   -2.7700    1.5226 O   0  0  0  0  0  0  0  0  0  0  0  0
   -1.5320   -0.8490    0.6496 N   0  0  0  0  0  0  0  0  0  0  0  0
   -2.3500   -0.3360    0.3566 H   0  0  0  0  0  0  0  0  0  0  0  0
   -0.2470   -0.1410    0.5576 C   0  0  1  0  0  0  0  0  0  0  0  0
    0.4959   -0.8532    0.1972 H   0  0  0  0  0  0  0  0  0  0  0  0
   -0.3409    1.0113   -0.4747 C   0  0  1  0  0  0  0  0  0  0  0  0
   -1.1935    1.6304   -0.1891 H   0  0  0  0  0  0  0  0  0  0  0  0
    0.9118    1.9082   -0.4709 C   0  0  0  0  0  0  0  0  0  0  0  0
    1.7827    1.3530   -0.8238 H   0  0  0  0  0  0  0  0  0  0  0  0
    0.7586    2.7747   -1.1123 H   0  0  0  0  0  0  0  0  0  0  0  0
    1.1115    2.2719    0.5377 H   0  0  0  0  0  0  0  0  0  0  0  0
   -0.6236    0.4640   -1.8918 C   0  0  0  0  0  0  0  0  0  0  0  0
    0.2473   -0.0788   -2.2617 H   0  0  0  0  0  0  0  0  0  0  0  0
   -1.4622   -0.2302   -1.8387 H   0  0  0  0  0  0  0  0  0  0  0  0
   -0.9926    1.5505   -2.9110 C   0  0  0  0  0  0  0  0  0  0  0  0
   -0.1465    2.2151   -3.0845 H   0  0  0  0  0  0  0  0  0  0  0  0
   -1.2631    1.0796   -3.8563 H   0  0  0  0  0  0  0  0  0  0  0  0
   -1.8424    2.1295   -2.5478 H   0  0  0  0  0  0  0  0  0  0  0  0
    0.2015    0.3289    1.9507 C   0  0  0  0  0  0  0  0  0  0  0  0
   -0.6029    0.8581    2.7163 O   0  0  0  0  0  0  0  0  0  0  0  0
    1.4823    0.1280    2.2859 N   0  0  0  0  0  0  0  0  0  0  0  0
    2.0802   -0.3221    1.6109 H   0  0  0  0  0  0  0  0  0  0  0  0
    2.0646    0.5211    3.5675 C   0  0  0  0  0  0  0  0  0  0  0  0
    1.4642    0.1157    4.3849 H   0  0  0  0  0  0  0  0  0  0  0  0
    3.0851    0.1447    3.6512 H   0  0  0  0  0  0  0  0  0  0  0  0
    2.0713    1.6097    3.6493 H   0  0  0  0  0  0  0  0  0  0  0  0
  5  6  2  0  0  0  0
  5  7  1  0  0  0  0
  2  3  1  0  0  0  0
  2  4  1  0  0  0  0
  2  5  1  0  0  0  0
  1  2  1  0  0  0  0
 24 25  2  0  0  0  0
 24 26  1  0  0  0  0
 20 21  1  0  0  0  0
 20 22  1  0  0  0  0
 20 23  1  0  0  0  0
 17 18  1  0  0  0  0
 17 19  1  0  0  0  0
 17 20  1  0  0  0  0
 13 14  1  0  0  0  0
 13 15  1  0  0  0  0
 13 16  1  0  0  0  0
 11 12  1  0  0  0  0
 11 13  1  0  0  0  0
 11 17  1  0  0  0  0
  9 10  1  0  0  0  0
  9 11  1  0  0  0  0
  9 24  1  0  0  0  0
  7  8  1  0  0  0  0
  7  9  1  0  0  0  0
 28 29  1  0  0  0  0
 28 30  1  0  0  0  0
 28 31  1  0  0  0  0
 26 27  1  0  0  0  0
 26 28  1  0  0  0  0
M  END
$$$$
default_name
  -OEChem-01062215323D

 31 30  0     1  0  0  0  0  0999 V2000
   -3.0760   -3.6390    1.5496 H   0  0  0  0  0  0  0  0  0  0  0  0
   -3.0940   -2.6290    1.1426 C   0  0  0  0  0  0  0  0  0  0  0  0
   -3.7160   -1.9930    1.7706 H   0  0  0  0  0  0  0  0  0  0  0  0
   -3.4880   -2.6500    0.1286 H   0  0  0  0  0  0  0  0  0  0  0  0
   -1.6860   -2.0850    1.1196 C   0  0  0  0  0  0  0  0  0  0  0  0
   -0.7540   -2.7700    1.5226 O   0  0  0  0  0  0  0  0  0  0  0  0
   -1.5320   -0.8490    0.6496 N   0  0  0  0  0  0  0  0  0  0  0  0
   -2.3500   -0.3360    0.3566 H   0  0  0  0  0  0  0  0  0  0  0  0
   -0.2470   -0.1410    0.5576 C   0  0  1  0  0  0  0  0  0  0  0  0
    0.4959   -0.8532    0.1972 H   0  0  0  0  0  0  0  0  0  0  0  0
   -0.3409    1.0113   -0.4747 C   0  0  1  0  0  0  0  0  0  0  0  0
   -1.1935    1.6304   -0.1891 H   0  0  0  0  0  0  0  0  0  0  0  0
    0.9118    1.9082   -0.4709 C   0  0  0  0  0  0  0  0  0  0  0  0
    1.7827    1.3530   -0.8238 H   0  0  0  0  0  0  0  0  0  0  0  0
    0.7586    2.7747   -1.1123 H   0  0  0  0  0  0  0  0  0  0  0  0
    1.1115    2.2719    0.5377 H   0  0  0  0  0  0  0  0  0  0  0  0
   -0.6236    0.4640   -1.8918 C   0  0  0  0  0  0  0  0  0  0  0  0
    0.2473   -0.0788   -2.2617 H   0  0  0  0  0  0  0  0  0  0  0  0
   -1.4622   -0.2302   -1.8387 H   0  0  0  0  0  0  0  0  0  0  0  0
   -0.9926    1.5505   -2.9110 C   0  0  0  0  0  0  0  0  0  0  0  0
   -0.1465    2.2151   -3.0845 H   0  0  0  0  0  0  0  0  0  0  0  0
   -1.2631    1.0796   -3.8563 H   0  0  0  0  0  0  0  0  0  0  0  0
   -1.8424    2.1295   -2.5478 H   0  0  0  0  0  0  0  0  0  0  0  0
    0.2015    0.3289    1.9507 C   0  0  0  0  0  0  0  0  0  0  0  0
   -0.6329    0.6000    2.8130 O   0  0  0  0  0  0  0  0  0  0  0  0
    1.5184    0.4163    2.1769 N   0  0  0  0  0  0  0  0  0  0  0  0
    2.1424    0.1669    1.4259 H   0  0  0  0  0  0  0  0  0  0  0  0
    2.1045    0.8510    3.4434 C   0  0  0  0  0  0  0  0  0  0  0  0
    1.6887    0.2615    4.2634 H   0  0  0  0  0  0  0  0  0  0  0  0
    3.1878    0.7232    3.4230 H   0  0  0  0  0  0  0  0  0  0  0  0
    1.8662    1.9022    3.6167 H   0  0  0  0  0  0  0  0  0  0  0  0
  5  6  2  0  0  0  0
  5  7  1  0  0  0  0
  2  3  1  0  0  0  0
  2  4  1  0  0  0  0
  2  5  1  0  0  0  0
  1  2  1  0  0  0  0
 24 25  2  0  0  0  0
 24 26  1  0  0  0  0
 20 21  1  0  0  0  0
 20 22  1  0  0  0  0
 20 23  1  0  0  0  0
 17 18  1  0  0  0  0
 17 19  1  0  0  0  0
 17 20  1  0  0  0  0
 13 14  1  0  0  0  0
 13 15  1  0  0  0  0
 13 16  1  0  0  0  0
 11 12  1  0  0  0  0
 11 13  1  0  0  0  0
 11 17  1  0  0  0  0
  9 10  1  0  0  0  0
  9 11  1  0  0  0  0
  9 24  1  0  0  0  0
  7  8  1  0  0  0  0
  7  9  1  0  0  0  0
 28 29  1  0  0  0  0
 28 30  1  0  0  0  0
 28 31  1  0  0  0  0
 26 27  1  0  0  0  0
 26 28  1  0  0  0  0
M  END
$$$$
default_name
  -OEChem-01062215323D

 31 30  0     1  0  0  0  0  0999 V2000
   -3.0760   -3.6390    1.5496 H   0  0  0  0  0  0  0  0  0  0  0  0
   -3.0940   -2.6290    1.1426 C   0  0  0  0  0  0  0  0  0  0  0  0
   -3.7160   -1.9930    1.7706 H   0  0  0  0  0  0  0  0  0  0  0  0
   -3.4880   -2.6500    0.1286 H   0  0  0  0  0  0  0  0  0  0  0  0
   -1.6860   -2.0850    1.1196 C   0  0  0  0  0  0  0  0  0  0  0  0
   -0.7540   -2.7700    1.5226 O   0  0  0  0  0  0  0  0  0  0  0  0
   -1.5320   -0.8490    0.6496 N   0  0  0  0  0  0  0  0  0  0  0  0
   -2.3500   -0.3360    0.3566 H   0  0  0  0  0  0  0  0  0  0  0  0
   -0.2470   -0.1410    0.5576 C   0  0  1  0  0  0  0  0  0  0  0  0
    0.4959   -0.8532    0.1972 H   0  0  0  0  0  0  0  0  0  0  0  0
   -0.3409    1.0113   -0.4747 C   0  0  1  0  0  0  0  0  0  0  0  0
   -1.1935    1.6304   -0.1891 H   0  0  0  0  0  0  0  0  0  0  0  0
    0.9118    1.9082   -0.4709 C   0  0  0  0  0  0  0  0  0  0  0  0
    1.7827    1.3530   -0.8238 H   0  0  0  0  0  0  0  0  0  0  0  0
    0.7586    2.7747   -1.1123 H   0  0  0  0  0  0  0  0  0  0  0  0
    1.1115    2.2719    0.5377 H   0  0  0  0  0  0  0  0  0  0  0  0
   -0.6236    0.4640   -1.8918 C   0  0  0  0  0  0  0  0  0  0  0  0
    0.2473   -0.0788   -2.2617 H   0  0  0  0  0  0  0  0  0  0  0  0
   -1.4622   -0.2302   -1.8387 H   0  0  0  0  0  0  0  0  0  0  0  0
   -0.9926    1.5505   -2.9110 C   0  0  0  0  0  0  0  0  0  0  0  0
   -0.1465    2.2151   -3.0845 H   0  0  0  0  0  0  0  0  0  0  0  0
   -1.2631    1.0796   -3.8563 H   0  0  0  0  0  0  0  0  0  0  0  0
   -1.8424    2.1295   -2.5478 H   0  0  0  0  0  0  0  0  0  0  0  0
    0.2015    0.3289    1.9507 C   0  0  0  0  0  0  0  0  0  0  0  0
   -0.5937    0.3364    2.8893 O   0  0  0  0  0  0  0  0  0  0  0  0
    1.4771    0.7116    2.0907 N   0  0  0  0  0  0  0  0  0  0  0  0
    2.0732    0.6678    1.2793 H   0  0  0  0  0  0  0  0  0  0  0  0
    2.0559    1.1885    3.3452 C   0  0  0  0  0  0  0  0  0  0  0  0
    1.8618    0.4641    4.1394 H   0  0  0  0  0  0  0  0  0  0  0  0
    3.1331    1.3233    3.2381 H   0  0  0  0  0  0  0  0  0  0  0  0
    1.5969    2.1391    3.6235 H   0  0  0  0  0  0  0  0  0  0  0  0
  5  6  2  0  0  0  0
  5  7  1  0  0  0  0
  2  3  1  0  0  0  0
  2  4  1  0  0  0  0
  2  5  1  0  0  0  0
  1  2  1  0  0  0  0
 24 25  2  0  0  0  0
 24 26  1  0  0  0  0
 20 21  1  0  0  0  0
 20 22  1  0  0  0  0
 20 23  1  0  0  0  0
 17 18  1  0  0  0  0
 17 19  1  0  0  0  0
 17 20  1  0  0  0  0
 13 14  1  0  0  0  0
 13 15  1  0  0  0  0
 13 16  1  0  0  0  0
 11 12  1  0  0  0  0
 11 13  1  0  0  0  0
 11 17  1  0  0  0  0
  9 10  1  0  0  0  0
  9 11  1  0  0  0  0
  9 24  1  0  0  0  0
  7  8  1  0  0  0  0
  7  9  1  0  0  0  0
 28 29  1  0  0  0  0
 28 30  1  0  0  0  0
 28 31  1  0  0  0  0
 26 27  1  0  0  0  0
 26 28  1  0  0  0  0
M  END
$$$$
default_name
  -OEChem-01062215323D

 31 30  0     1  0  0  0  0  0999 V2000
   -3.0760   -3.6390    1.5496 H   0  0  0  0  0  0  0  0  0  0  0  0
   -3.0940   -2.6290    1.1426 C   0  0  0  0  0  0  0  0  0  0  0  0
   -3.7160   -1.9930    1.7706 H   0  0  0  0  0  0  0  0  0  0  0  0
   -3.4880   -2.6500    0.1286 H   0  0  0  0  0  0  0  0  0  0  0  0
   -1.6860   -2.0850    1.1196 C   0  0  0  0  0  0  0  0  0  0  0  0
   -0.7540   -2.7700    1.5226 O   0  0  0  0  0  0  0  0  0  0  0  0
   -1.5320   -0.8490    0.6496 N   0  0  0  0  0  0  0  0  0  0  0  0
   -2.3500   -0.3360    0.3566 H   0  0  0  0  0  0  0  0  0  0  0  0
   -0.2470   -0.1410    0.5576 C   0  0  1  0  0  0  0  0  0  0  0  0
    0.4239   -0.7541   -0.0450 H   0  0  0  0  0  0  0  0  0  0  0  0
   -0.4317    1.2160   -0.1683 C   0  0  1  0  0  0  0  0  0  0  0  0
   -1.2235    1.7555    0.3549 H   0  0  0  0  0  0  0  0  0  0  0  0
    0.8388    2.0862   -0.1211 C   0  0  0  0  0  0  0  0  0  0  0  0
    1.6424    1.6241   -0.6972 H   0  0  0  0  0  0  0  0  0  0  0  0
    0.6345    3.0760   -0.5262 H   0  0  0  0  0  0  0  0  0  0  0  0
    1.1718    2.2108    0.9099 H   0  0  0  0  0  0  0  0  0  0  0  0
   -0.9028    1.0056   -1.6248 C   0  0  0  0  0  0  0  0  0  0  0  0
   -0.1010    0.5594   -2.2146 H   0  0  0  0  0  0  0  0  0  0  0  0
   -1.7494    0.3190   -1.6238 H   0  0  0  0  0  0  0  0  0  0  0  0
   -1.3609    2.2959   -2.3180 C   0  0  0  0  0  0  0  0  0  0  0  0
   -0.5225    2.9810   -2.4430 H   0  0  0  0  0  0  0  0  0  0  0  0
   -1.7596    2.0527   -3.3031 H   0  0  0  0  0  0  0  0  0  0  0  0
   -2.1415    2.7788   -1.7292 H   0  0  0  0  0  0  0  0  0  0  0  0
    0.3833   -0.0008    1.9525 C   0  0  0  0  0  0  0  0  0  0  0  0
   -0.1865   -0.4617    2.9406 O   0  0  0  0  0  0  0  0  0  0  0  0
    1.5639    0.6257    2.0349 N   0  0  0  0  0  0  0  0  0  0  0  0
    1.9760    0.9671    1.1809 H   0  0  0  0  0  0  0  0  0  0  0  0
    2.2892    0.8445    3.2848 C   0  0  0  0  0  0  0  0  0  0  0  0
    2.4050   -0.1037    3.8145 H   0  0  0  0  0  0  0  0  0  0  0  0
    3.2753    1.2648    3.0819 H   0  0  0  0  0  0  0  0  0  0  0  0
    1.7262    1.5301    3.9210 H   0  0  0  0  0  0  0  0  0  0  0  0
  5  6  2  0  0  0  0
  5  7  1  0  0  0  0
  2  3  1  0  0  0  0
  2  4  1  0  0  0  0
  2  5  1  0  0  0  0
  1  2  1  0  0  0  0
 24 25  2  0  0  0  0
 24 26  1  0  0  0  0
 20 21  1  0  0  0  0
 20 22  1  0  0  0  0
 20 23  1  0  0  0  0
 17 18  1  0  0  0  0
 17 19  1  0  0  0  0
 17 20  1  0  0  0  0
 13 14  1  0  0  0  0
 13 15  1  0  0  0  0
 13 16  1  0  0  0  0
 11 12  1  0  0  0  0
 11 13  1  0  0  0  0
 11 17  1  0  0  0  0
  9 10  1  0  0  0  0
  9 11  1  0  0  0  0
  9 24  1  0  0  0  0
  7  8  1  0  0  0  0
  7  9  1  0  0  0  0
 28 29  1  0  0  0  0
 28 30  1  0  0  0  0
 28 31  1  0  0  0  0
 26 27  1  0  0  0  0
 26 28  1  0  0  0  0
M  END
$$$$
default_name
  -OEChem-01062215323D

 31 30  0     1  0  0  0  0  0999 V2000
   -3.0760   -3.6390    1.5496 H   0  0  0  0  0  0  0  0  0  0  0  0
   -3.0940   -2.6290    1.1426 C   0  0  0  0  0  0  0  0  0  0  0  0
   -3.7160   -1.9930    1.7706 H   0  0  0  0  0  0  0  0  0  0  0  0
   -3.4880   -2.6500    0.1286 H   0  0  0  0  0  0  0  0  0  0  0  0
   -1.6860   -2.0850    1.1196 C   0  0  0  0  0  0  0  0  0  0  0  0
   -0.7540   -2.7700    1.5226 O   0  0  0  0  0  0  0  0  0  0  0  0
   -1.5320   -0.8490    0.6496 N   0  0  0  0  0  0  0  0  0  0  0  0
   -2.3500   -0.3360    0.3566 H   0  0  0  0  0  0  0  0  0  0  0  0
   -0.2470   -0.1410    0.5576 C   0  0  1  0  0  0  0  0  0  0  0  0
    0.4239   -0.7541   -0.0450 H   0  0  0  0  0  0  0  0  0  0  0  0
   -0.4317    1.2160   -0.1683 C   0  0  1  0  0  0  0  0  0  0  0  0
   -1.2235    1.7555    0.3549 H   0  0  0  0  0  0  0  0  0  0  0  0
    0.8388    2.0862   -0.1211 C   0  0  0  0  0  0  0  0  0  0  0  0
    1.6424    1.6241   -0.6972 H   0  0  0  0  0  0  0  0  0  0  0  0
    0.6345    3.0760   -0.5262 H   0  0  0  0  0  0  0  0  0  0  0  0
    1.1718    2.2108    0.9099 H   0  0  0  0  0  0  0  0  0  0  0  0
   -0.9028    1.0056   -1.6248 C   0  0  0  0  0  0  0  0  0  0  0  0
   -0.1010    0.5594   -2.2146 H   0  0  0  0  0  0  0  0  0  0  0  0
   -1.7494    0.3190   -1.6238 H   0  0  0  0  0  0  0  0  0  0  0  0
   -1.3609    2.2959   -2.3180 C   0  0  0  0  0  0  0  0  0  0  0  0
   -0.5225    2.9810   -2.4430 H   0  0  0  0  0  0  0  0  0  0  0  0
   -1.7596    2.0527   -3.3031 H   0  0  0  0  0  0  0  0  0  0  0  0
   -2.1415    2.7788   -1.7292 H   0  0  0  0  0  0  0  0  0  0  0  0
    0.3833   -0.0008    1.9525 C   0  0  0  0  0  0  0  0  0  0  0  0
   -0.0269   -0.6827    2.8906 O   0  0  0  0  0  0  0  0  0  0  0  0
    1.3871    0.8748    2.0898 N   0  0  0  0  0  0  0  0  0  0  0  0
    1.6767    1.3902    1.2736 H   0  0  0  0  0  0  0  0  0  0  0  0
    2.0860    1.1284    3.3481 C   0  0  0  0  0  0  0  0  0  0  0  0
    2.4393    0.1849    3.7700 H   0  0  0  0  0  0  0  0  0  0  0  0
    2.9386    1.7883    3.1814 H   0  0  0  0  0  0  0  0  0  0  0  0
    1.4019    1.5922    4.0613 H   0  0  0  0  0  0  0  0  0  0  0  0
  5  6  2  0  0  0  0
  5  7  1  0  0  0  0
  2  3  1  0  0  0  0
  2  4  1  0  0  0  0
  2  5  1  0  0  0  0
  1  2  1  0  0  0  0
 24 25  2  0  0  0  0
 24 26  1  0  0  0  0
 20 21  1  0  0  0  0
 20 22  1  0  0  0  0
 20 23  1  0  0  0  0
 17 18  1  0  0  0  0
 17 19  1  0  0  0  0
 17 20  1  0  0  0  0
 13 14  1  0  0  0  0
 13 15  1  0  0  0  0
 13 16  1  0  0  0  0
 11 12  1  0  0  0  0
 11 13  1  0  0  0  0
 11 17  1  0  0  0  0
  9 10  1  0  0  0  0
  9 11  1  0  0  0  0
  9 24  1  0  0  0  0
  7  8  1  0  0  0  0
  7  9  1  0  0  0  0
 28 29  1  0  0  0  0
 28 30  1  0  0  0  0
 28 31  1  0  0  0  0
 26 27  1  0  0  0  0
 26 28  1  0  0  0  0
M  END
$$$$
default_name
  -OEChem-01062215323D

 31 30  0     1  0  0  0  0  0999 V2000
   -3.0760   -3.6390    1.5496 H   0  0  0  0  0  0  0  0  0  0  0  0
   -3.0940   -2.6290    1.1426 C   0  0  0  0  0  0  0  0  0  0  0  0
   -3.7160   -1.9930    1.7706 H   0  0  0  0  0  0  0  0  0  0  0  0
   -3.4880   -2.6500    0.1286 H   0  0  0  0  0  0  0  0  0  0  0  0
   -1.6860   -2.0850    1.1196 C   0  0  0  0  0  0  0  0  0  0  0  0
   -0.7540   -2.7700    1.5226 O   0  0  0  0  0  0  0  0  0  0  0  0
   -1.5320   -0.8490    0.6496 N   0  0  0  0  0  0  0  0  0  0  0  0
   -2.3500   -0.3360    0.3566 H   0  0  0  0  0  0  0  0  0  0  0  0
   -0.2470   -0.1410    0.5576 C   0  0  1  0  0  0  0  0  0  0  0  0
    0.4239   -0.7541   -0.0450 H   0  0  0  0  0  0  0  0  0  0  0  0
   -0.4317    1.2160   -0.1683 C   0  0  1  0  0  0  0  0  0  0  0  0
   -1.2235    1.7555    0.3549 H   0  0  0  0  0  0  0  0  0  0  0  0
    0.8388    2.0862   -0.1211 C   0  0  0  0  0  0  0  0  0  0  0  0
    1.6424    1.6241   -0.6972 H   0  0  0  0  0  0  0  0  0  0  0  0
    0.6345    3.0760   -0.5262 H   0  0  0  0  0  0  0  0  0  0  0  0
    1.1718    2.2108    0.9099 H   0  0  0  0  0  0  0  0  0  0  0  0
   -0.9028    1.0056   -1.6248 C   0  0  0  0  0  0  0  0  0  0  0  0
   -0.1010    0.5594   -2.2146 H   0  0  0  0  0  0  0  0  0  0  0  0
   -1.7494    0.3190   -1.6238 H   0  0  0  0  0  0  0  0  0  0  0  0
   -1.3609    2.2959   -2.3180 C   0  0  0  0  0  0  0  0  0  0  0  0
   -0.5225    2.9810   -2.4430 H   0  0  0  0  0  0  0  0  0  0  0  0
   -1.7596    2.0527   -3.3031 H   0  0  0  0  0  0  0  0  0  0  0  0
   -2.1415    2.7788   -1.7292 H   0  0  0  0  0  0  0  0  0  0  0  0
    0.3833   -0.0008    1.9525 C   0  0  0  0  0  0  0  0  0  0  0  0
    0.1781   -0.8535    2.8152 O   0  0  0  0  0  0  0  0  0  0  0  0
    1.1591    1.0681    2.1734 N   0  0  0  0  0  0  0  0  0  0  0  0
    1.2905    1.7188    1.4152 H   0  0  0  0  0  0  0  0  0  0  0  0
    1.8246    1.3481    3.4441 C   0  0  0  0  0  0  0  0  0  0  0  0
    2.4036    0.4764    3.7569 H   0  0  0  0  0  0  0  0  0  0  0  0
    2.4928    2.2044    3.3411 H   0  0  0  0  0  0  0  0  0  0  0  0
    1.0774    1.5610    4.2110 H   0  0  0  0  0  0  0  0  0  0  0  0
  5  6  2  0  0  0  0
  5  7  1  0  0  0  0
  2  3  1  0  0  0  0
  2  4  1  0  0  0  0
  2  5  1  0  0  0  0
  1  2  1  0  0  0  0
 24 25  2  0  0  0  0
 24 26  1  0  0  0  0
 20 21  1  0  0  0  0
 20 22  1  0  0  0  0
 20 23  1  0  0  0  0
 17 18  1  0  0  0  0
 17 19  1  0  0  0  0
 17 20  1  0  0  0  0
 13 14  1  0  0  0  0
 13 15  1  0  0  0  0
 13 16  1  0  0  0  0
 11 12  1  0  0  0  0
 11 13  1  0  0  0  0
 11 17  1  0  0  0  0
  9 10  1  0  0  0  0
  9 11  1  0  0  0  0
  9 24  1  0  0  0  0
  7  8  1  0  0  0  0
  7  9  1  0  0  0  0
 28 29  1  0  0  0  0
 28 30  1  0  0  0  0
 28 31  1  0  0  0  0
 26 27  1  0  0  0  0
 26 28  1  0  0  0  0
M  END
$$$$
default_name
  -OEChem-01062215323D

 31 30  0     1  0  0  0  0  0999 V2000
   -3.0760   -3.6390    1.5496 H   0  0  0  0  0  0  0  0  0  0  0  0
   -3.0940   -2.6290    1.1426 C   0  0  0  0  0  0  0  0  0  0  0  0
   -3.7160   -1.9930    1.7706 H   0  0  0  0  0  0  0  0  0  0  0  0
   -3.4880   -2.6500    0.1286 H   0  0  0  0  0  0  0  0  0  0  0  0
   -1.6860   -2.0850    1.1196 C   0  0  0  0  0  0  0  0  0  0  0  0
   -0.7540   -2.7700    1.5226 O   0  0  0  0  0  0  0  0  0  0  0  0
   -1.5320   -0.8490    0.6496 N   0  0  0  0  0  0  0  0  0  0  0  0
   -2.3500   -0.3360    0.3566 H   0  0  0  0  0  0  0  0  0  0  0  0
   -0.2470   -0.1410    0.5576 C   0  0  1  0  0  0  0  0  0  0  0  0
    0.4239   -0.7541   -0.0450 H   0  0  0  0  0  0  0  0  0  0  0  0
   -0.4317    1.2160   -0.1683 C   0  0  1  0  0  0  0  0  0  0  0  0
   -1.2235    1.7555    0.3549 H   0  0  0  0  0  0  0  0  0  0  0  0
    0.8388    2.0862   -0.1211 C   0  0  0  0  0  0  0  0  0  0  0  0
    1.6424    1.6241   -0.6972 H   0  0  0  0  0  0  0  0  0  0  0  0
    0.6345    3.0760   -0.5262 H   0  0  0  0  0  0  0  0  0  0  0  0
    1.1718    2.2108    0.9099 H   0  0  0  0  0  0  0  0  0  0  0  0
   -0.9028    1.0056   -1.6248 C   0  0  0  0  0  0  0  0  0  0  0  0
   -0.1010    0.5594   -2.2146 H   0  0  0  0  0  0  0  0  0  0  0  0
   -1.7494    0.3190   -1.6238 H   0  0  0  0  0  0  0  0  0  0  0  0
   -1.3609    2.2959   -2.3180 C   0  0  0  0  0  0  0  0  0  0  0  0
   -0.5225    2.9810   -2.4430 H   0  0  0  0  0  0  0  0  0  0  0  0
   -1.7596    2.0527   -3.3031 H   0  0  0  0  0  0  0  0  0  0  0  0
   -2.1415    2.7788   -1.7292 H   0  0  0  0  0  0  0  0  0  0  0  0
    0.3833   -0.0008    1.9525 C   0  0  0  0  0  0  0  0  0  0  0  0
    0.4144   -0.9622    2.7193 O   0  0  0  0  0  0  0  0  0  0  0  0
    0.8954    1.1923    2.2800 N   0  0  0  0  0  0  0  0  0  0  0  0
    0.8436    1.9305    1.5958 H   0  0  0  0  0  0  0  0  0  0  0  0
    1.5228    1.4888    3.5664 C   0  0  0  0  0  0  0  0  0  0  0  0
    2.3003    0.7509    3.7759 H   0  0  0  0  0  0  0  0  0  0  0  0
    1.9683    2.4846    3.5499 H   0  0  0  0  0  0  0  0  0  0  0  0
    0.7748    1.4389    4.3600 H   0  0  0  0  0  0  0  0  0  0  0  0
  5  6  2  0  0  0  0
  5  7  1  0  0  0  0
  2  3  1  0  0  0  0
  2  4  1  0  0  0  0
  2  5  1  0  0  0  0
  1  2  1  0  0  0  0
 24 25  2  0  0  0  0
 24 26  1  0  0  0  0
 20 21  1  0  0  0  0
 20 22  1  0  0  0  0
 20 23  1  0  0  0  0
 17 18  1  0  0  0  0
 17 19  1  0  0  0  0
 17 20  1  0  0  0  0
 13 14  1  0  0  0  0
 13 15  1  0  0  0  0
 13 16  1  0  0  0  0
 11 12  1  0  0  0  0
 11 13  1  0  0  0  0
 11 17  1  0  0  0  0
  9 10  1  0  0  0  0
  9 11  1  0  0  0  0
  9 24  1  0  0  0  0
  7  8  1  0  0  0  0
  7  9  1  0  0  0  0
 28 29  1  0  0  0  0
 28 30  1  0  0  0  0
 28 31  1  0  0  0  0
 26 27  1  0  0  0  0
 26 28  1  0  0  0  0
M  END
$$$$
default_name
  -OEChem-01062215323D

 31 30  0     1  0  0  0  0  0999 V2000
   -3.0760   -3.6390    1.5496 H   0  0  0  0  0  0  0  0  0  0  0  0
   -3.0940   -2.6290    1.1426 C   0  0  0  0  0  0  0  0  0  0  0  0
   -3.7160   -1.9930    1.7706 H   0  0  0  0  0  0  0  0  0  0  0  0
   -3.4880   -2.6500    0.1286 H   0  0  0  0  0  0  0  0  0  0  0  0
   -1.6860   -2.0850    1.1196 C   0  0  0  0  0  0  0  0  0  0  0  0
   -0.7540   -2.7700    1.5226 O   0  0  0  0  0  0  0  0  0  0  0  0
   -1.5320   -0.8490    0.6496 N   0  0  0  0  0  0  0  0  0  0  0  0
   -2.3500   -0.3360    0.3566 H   0  0  0  0  0  0  0  0  0  0  0  0
   -0.2470   -0.1410    0.5576 C   0  0  1  0  0  0  0  0  0  0  0  0
    0.4239   -0.7541   -0.0450 H   0  0  0  0  0  0  0  0  0  0  0  0
   -0.4317    1.2160   -0.1683 C   0  0  1  0  0  0  0  0  0  0  0  0
   -1.2235    1.7555    0.3549 H   0  0  0  0  0  0  0  0  0  0  0  0
    0.8388    2.0862   -0.1211 C   0  0  0  0  0  0  0  0  0  0  0  0
    1.6424    1.6241   -0.6972 H   0  0  0  0  0  0  0  0  0  0  0  0
    0.6345    3.0760   -0.5262 H   0  0  0  0  0  0  0  0  0  0  0  0
    1.1718    2.2108    0.9099 H   0  0  0  0  0  0  0  0  0  0  0  0
   -0.9028    1.0056   -1.6248 C   0  0  0  0  0  0  0  0  0  0  0  0
   -0.1010    0.5594   -2.2146 H   0  0  0  0  0  0  0  0  0  0  0  0
   -1.7494    0.3190   -1.6238 H   0  0  0  0  0  0  0  0  0  0  0  0
   -1.3609    2.2959   -2.3180 C   0  0  0  0  0  0  0  0  0  0  0  0
   -0.5225    2.9810   -2.4430 H   0  0  0  0  0  0  0  0  0  0  0  0
   -1.7596    2.0527   -3.3031 H   0  0  0  0  0  0  0  0  0  0  0  0
   -2.1415    2.7788   -1.7292 H   0  0  0  0  0  0  0  0  0  0  0  0
    0.3833   -0.0008    1.9525 C   0  0  0  0  0  0  0  0  0  0  0  0
    0.6659   -1.0016    2.6096 O   0  0  0  0  0  0  0  0  0  0  0  0
    0.6140    1.2391    2.4025 N   0  0  0  0  0  0  0  0  0  0  0  0
    0.3664    2.0108    1.8034 H   0  0  0  0  0  0  0  0  0  0  0  0
    1.2011    1.5409    3.7065 C   0  0  0  0  0  0  0  0  0  0  0  0
    2.1366    0.9899    3.8259 H   0  0  0  0  0  0  0  0  0  0  0  0
    1.4007    2.6098    3.7938 H   0  0  0  0  0  0  0  0  0  0  0  0
    0.5148    1.2339    4.4981 H   0  0  0  0  0  0  0  0  0  0  0  0
  5  6  2  0  0  0  0
  5  7  1  0  0  0  0
  2  3  1  0  0  0  0
  2  4  1  0  0  0  0
  2  5  1  0  0  0  0
  1  2  1  0  0  0  0
 24 25  2  0  0  0  0
 24 26  1  0  0  0  0
 20 21  1  0  0  0  0
 20 22  1  0  0  0  0
 20 23  1  0  0  0  0
 17 18  1  0  0  0  0
 17 19  1  0  0  0  0
 17 20  1  0  0  0  0
 13 14  1  0  0  0  0
 13 15  1  0  0  0  0
 13 16  1  0  0  0  0
 11 12  1  0  0  0  0
 11 13  1  0  0  0  0
 11 17  1  0  0  0  0
  9 10  1  0  0  0  0
  9 11  1  0  0  0  0
  9 24  1  0  0  0  0
  7  8  1  0  0  0  0
  7  9  1  0  0  0  0
 28 29  1  0  0  0  0
 28 30  1  0  0  0  0
 28 31  1  0  0  0  0
 26 27  1  0  0  0  0
 26 28  1  0  0  0  0
M  END
$$$$
default_name
  -OEChem-01062215323D

 31 30  0     1  0  0  0  0  0999 V2000
   -3.0760   -3.6390    1.5496 H   0  0  0  0  0  0  0  0  0  0  0  0
   -3.0940   -2.6290    1.1426 C   0  0  0  0  0  0  0  0  0  0  0  0
   -3.7160   -1.9930    1.7706 H   0  0  0  0  0  0  0  0  0  0  0  0
   -3.4880   -2.6500    0.1286 H   0  0  0  0  0  0  0  0  0  0  0  0
   -1.6860   -2.0850    1.1196 C   0  0  0  0  0  0  0  0  0  0  0  0
   -0.7540   -2.7700    1.5226 O   0  0  0  0  0  0  0  0  0  0  0  0
   -1.5320   -0.8490    0.6496 N   0  0  0  0  0  0  0  0  0  0  0  0
   -2.3500   -0.3360    0.3566 H   0  0  0  0  0  0  0  0  0  0  0  0
   -0.2470   -0.1410    0.5576 C   0  0  1  0  0  0  0  0  0  0  0  0
    0.4239   -0.7541   -0.0450 H   0  0  0  0  0  0  0  0  0  0  0  0
   -0.4317    1.2160   -0.1683 C   0  0  1  0  0  0  0  0  0  0  0  0
   -1.2235    1.7555    0.3549 H   0  0  0  0  0  0  0  0  0  0  0  0
    0.8388    2.0862   -0.1211 C   0  0  0  0  0  0  0  0  0  0  0  0
    1.6424    1.6241   -0.6972 H   0  0  0  0  0  0  0  0  0  0  0  0
    0.6345    3.0760   -0.5262 H   0  0  0  0  0  0  0  0  0  0  0  0
    1.1718    2.2108    0.9099 H   0  0  0  0  0  0  0  0  0  0  0  0
   -0.9028    1.0056   -1.6248 C   0  0  0  0  0  0  0  0  0  0  0  0
   -0.1010    0.5594   -2.2146 H   0  0  0  0  0  0  0  0  0  0  0  0
   -1.7494    0.3190   -1.6238 H   0  0  0  0  0  0  0  0  0  0  0  0
   -1.3609    2.2959   -2.3180 C   0  0  0  0  0  0  0  0  0  0  0  0
   -0.5225    2.9810   -2.4430 H   0  0  0  0  0  0  0  0  0  0  0  0
   -1.7596    2.0527   -3.3031 H   0  0  0  0  0  0  0  0  0  0  0  0
   -2.1415    2.7788   -1.7292 H   0  0  0  0  0  0  0  0  0  0  0  0
    0.3833   -0.0008    1.9525 C   0  0  0  0  0  0  0  0  0  0  0  0
    0.9156   -0.9689    2.4935 O   0  0  0  0  0  0  0  0  0  0  0  0
    0.3342    1.2052    2.5323 N   0  0  0  0  0  0  0  0  0  0  0  0
   -0.1084    1.9542    2.0236 H   0  0  0  0  0  0  0  0  0  0  0  0
    0.8814    1.5007    3.8550 C   0  0  0  0  0  0  0  0  0  0  0  0
    1.9234    1.1769    3.9035 H   0  0  0  0  0  0  0  0  0  0  0  0
    0.8288    2.5717    4.0561 H   0  0  0  0  0  0  0  0  0  0  0  0
    0.3150    0.9603    4.6159 H   0  0  0  0  0  0  0  0  0  0  0  0
  5  6  2  0  0  0  0
  5  7  1  0  0  0  0
  2  3  1  0  0  0  0
  2  4  1  0  0  0  0
  2  5  1  0  0  0  0
  1  2  1  0  0  0  0
 24 25  2  0  0  0  0
 24 26  1  0  0  0  0
 20 21  1  0  0  0  0
 20 22  1  0  0  0  0
 20 23  1  0  0  0  0
 17 18  1  0  0  0  0
 17 19  1  0  0  0  0
 17 20  1  0  0  0  0
 13 14  1  0  0  0  0
 13 15  1  0  0  0  0
 13 16  1  0  0  0  0
 11 12  1  0  0  0  0
 11 13  1  0  0  0  0
 11 17  1  0  0  0  0
  9 10  1  0  0  0  0
  9 11  1  0  0  0  0
  9 24  1  0  0  0  0
  7  8  1  0  0  0  0
  7  9  1  0  0  0  0
 28 29  1  0  0  0  0
 28 30  1  0  0  0  0
 28 31  1  0  0  0  0
 26 27  1  0  0  0  0
 26 28  1  0  0  0  0
M  END
$$$$
default_name
  -OEChem-01062215323D

 31 30  0     1  0  0  0  0  0999 V2000
   -3.0760   -3.6390    1.5496 H   0  0  0  0  0  0  0  0  0  0  0  0
   -3.0940   -2.6290    1.1426 C   0  0  0  0  0  0  0  0  0  0  0  0
   -3.7160   -1.9930    1.7706 H   0  0  0  0  0  0  0  0  0  0  0  0
   -3.4880   -2.6500    0.1286 H   0  0  0  0  0  0  0  0  0  0  0  0
   -1.6860   -2.0850    1.1196 C   0  0  0  0  0  0  0  0  0  0  0  0
   -0.7540   -2.7700    1.5226 O   0  0  0  0  0  0  0  0  0  0  0  0
   -1.5320   -0.8490    0.6496 N   0  0  0  0  0  0  0  0  0  0  0  0
   -2.3500   -0.3360    0.3566 H   0  0  0  0  0  0  0  0  0  0  0  0
   -0.2470   -0.1410    0.5576 C   0  0  1  0  0  0  0  0  0  0  0  0
    0.4239   -0.7541   -0.0450 H   0  0  0  0  0  0  0  0  0  0  0  0
   -0.4317    1.2160   -0.1683 C   0  0  1  0  0  0  0  0  0  0  0  0
   -1.2235    1.7555    0.3549 H   0  0  0  0  0  0  0  0  0  0  0  0
    0.8388    2.0862   -0.1211 C   0  0  0  0  0  0  0  0  0  0  0  0
    1.6424    1.6241   -0.6972 H   0  0  0  0  0  0  0  0  0  0  0  0
    0.6345    3.0760   -0.5262 H   0  0  0  0  0  0  0  0  0  0  0  0
    1.1718    2.2108    0.9099 H   0  0  0  0  0  0  0  0  0  0  0  0
   -0.9028    1.0056   -1.6248 C   0  0  0  0  0  0  0  0  0  0  0  0
   -0.1010    0.5594   -2.2146 H   0  0  0  0  0  0  0  0  0  0  0  0
   -1.7494    0.3190   -1.6238 H   0  0  0  0  0  0  0  0  0  0  0  0
   -1.3609    2.2959   -2.3180 C   0  0  0  0  0  0  0  0  0  0  0  0
   -0.5225    2.9810   -2.4430 H   0  0  0  0  0  0  0  0  0  0  0  0
   -1.7596    2.0527   -3.3031 H   0  0  0  0  0  0  0  0  0  0  0  0
   -2.1415    2.7788   -1.7292 H   0  0  0  0  0  0  0  0  0  0  0  0
    0.3833   -0.0008    1.9525 C   0  0  0  0  0  0  0  0  0  0  0  0
    1.1462   -0.8664    2.3790 O   0  0  0  0  0  0  0  0  0  0  0  0
    0.0749    1.0930    2.6608 N   0  0  0  0  0  0  0  0  0  0  0  0
   -0.5486    1.7647    2.2416 H   0  0  0  0  0  0  0  0  0  0  0  0
    0.5856    1.3710    4.0017 C   0  0  0  0  0  0  0  0  0  0  0  0
    1.6754    1.2992    4.0032 H   0  0  0  0  0  0  0  0  0  0  0  0
    0.2916    2.3726    4.3188 H   0  0  0  0  0  0  0  0  0  0  0  0
    0.1890    0.6365    4.7053 H   0  0  0  0  0  0  0  0  0  0  0  0
  5  6  2  0  0  0  0
  5  7  1  0  0  0  0
  2  3  1  0  0  0  0
  2  4  1  0  0  0  0
  2  5  1  0  0  0  0
  1  2  1  0  0  0  0
 24 25  2  0  0  0  0
 24 26  1  0  0  0  0
 20 21  1  0  0  0  0
 20 22  1  0  0  0  0
 20 23  1  0  0  0  0
 17 18  1  0  0  0  0
 17 19  1  0  0  0  0
 17 20  1  0  0  0  0
 13 14  1  0  0  0  0
 13 15  1  0  0  0  0
 13 16  1  0  0  0  0
 11 12  1  0  0  0  0
 11 13  1  0  0  0  0
 11 17  1  0  0  0  0
  9 10  1  0  0  0  0
  9 11  1  0  0  0  0
  9 24  1  0  0  0  0
  7  8  1  0  0  0  0
  7  9  1  0  0  0  0
 28 29  1  0  0  0  0
 28 30  1  0  0  0  0
 28 31  1  0  0  0  0
 26 27  1  0  0  0  0
 26 28  1  0  0  0  0
M  END
$$$$
default_name
  -OEChem-01062215323D

 31 30  0     1  0  0  0  0  0999 V2000
   -3.0760   -3.6390    1.5496 H   0  0  0  0  0  0  0  0  0  0  0  0
   -3.0940   -2.6290    1.1426 C   0  0  0  0  0  0  0  0  0  0  0  0
   -3.7160   -1.9930    1.7706 H   0  0  0  0  0  0  0  0  0  0  0  0
   -3.4880   -2.6500    0.1286 H   0  0  0  0  0  0  0  0  0  0  0  0
   -1.6860   -2.0850    1.1196 C   0  0  0  0  0  0  0  0  0  0  0  0
   -0.7540   -2.7700    1.5226 O   0  0  0  0  0  0  0  0  0  0  0  0
   -1.5320   -0.8490    0.6496 N   0  0  0  0  0  0  0  0  0  0  0  0
   -2.3500   -0.3360    0.3566 H   0  0  0  0  0  0  0  0  0  0  0  0
   -0.2470   -0.1410    0.5576 C   0  0  1  0  0  0  0  0  0  0  0  0
    0.4239   -0.7541   -0.0450 H   0  0  0  0  0  0  0  0  0  0  0  0
   -0.4317    1.2160   -0.1683 C   0  0  1  0  0  0  0  0  0  0  0  0
   -1.2235    1.7555    0.3549 H   0  0  0  0  0  0  0  0  0  0  0  0
    0.8388    2.0862   -0.1211 C   0  0  0  0  0  0  0  0  0  0  0  0
    1.6424    1.6241   -0.6972 H   0  0  0  0  0  0  0  0  0  0  0  0
    0.6345    3.0760   -0.5262 H   0  0  0  0  0  0  0  0  0  0  0  0
    1.1718    2.2108    0.9099 H   0  0  0  0  0  0  0  0  0  0  0  0
   -0.9028    1.0056   -1.6248 C   0  0  0  0  0  0  0  0  0  0  0  0
   -0.1010    0.5594   -2.2146 H   0  0  0  0  0  0  0  0  0  0  0  0
   -1.7494    0.3190   -1.6238 H   0  0  0  0  0  0  0  0  0  0  0  0
   -1.3609    2.2959   -2.3180 C   0  0  0  0  0  0  0  0  0  0  0  0
   -0.5225    2.9810   -2.4430 H   0  0  0  0  0  0  0  0  0  0  0  0
   -1.7596    2.0527   -3.3031 H   0  0  0  0  0  0  0  0  0  0  0  0
   -2.1415    2.7788   -1.7292 H   0  0  0  0  0  0  0  0  0  0  0  0
    0.3833   -0.0008    1.9525 C   0  0  0  0  0  0  0  0  0  0  0  0
    1.3423   -0.7011    2.2738 O   0  0  0  0  0  0  0  0  0  0  0  0
   -0.1462    0.9100    2.7791 N   0  0  0  0  0  0  0  0  0  0  0  0
   -0.9241    1.4551    2.4424 H   0  0  0  0  0  0  0  0  0  0  0  0
    0.3337    1.1607    4.1367 C   0  0  0  0  0  0  0  0  0  0  0  0
    1.4095    1.3486    4.1184 H   0  0  0  0  0  0  0  0  0  0  0  0
   -0.1744    2.0263    4.5642 H   0  0  0  0  0  0  0  0  0  0  0  0
    0.1455    0.2847    4.7604 H   0  0  0  0  0  0  0  0  0  0  0  0
  5  6  2  0  0  0  0
  5  7  1  0  0  0  0
  2  3  1  0  0  0  0
  2  4  1  0  0  0  0
  2  5  1  0  0  0  0
  1  2  1  0  0  0  0
 24 25  2  0  0  0  0
 24 26  1  0  0  0  0
 20 21  1  0  0  0  0
 20 22  1  0  0  0  0
 20 23  1  0  0  0  0
 17 18  1  0  0  0  0
 17 19  1  0  0  0  0
 17 20  1  0  0  0  0
 13 14  1  0  0  0  0
 13 15  1  0  0  0  0
 13 16  1  0  0  0  0
 11 12  1  0  0  0  0
 11 13  1  0  0  0  0
 11 17  1  0  0  0  0
  9 10  1  0  0  0  0
  9 11  1  0  0  0  0
  9 24  1  0  0  0  0
  7  8  1  0  0  0  0
  7  9  1  0  0  0  0
 28 29  1  0  0  0  0
 28 30  1  0  0  0  0
 28 31  1  0  0  0  0
 26 27  1  0  0  0  0
 26 28  1  0  0  0  0
M  END
$$$$
default_name
  -OEChem-01062215323D

 31 30  0     1  0  0  0  0  0999 V2000
   -3.0760   -3.6390    1.5496 H   0  0  0  0  0  0  0  0  0  0  0  0
   -3.0940   -2.6290    1.1426 C   0  0  0  0  0  0  0  0  0  0  0  0
   -3.7160   -1.9930    1.7706 H   0  0  0  0  0  0  0  0  0  0  0  0
   -3.4880   -2.6500    0.1286 H   0  0  0  0  0  0  0  0  0  0  0  0
   -1.6860   -2.0850    1.1196 C   0  0  0  0  0  0  0  0  0  0  0  0
   -0.7540   -2.7700    1.5226 O   0  0  0  0  0  0  0  0  0  0  0  0
   -1.5320   -0.8490    0.6496 N   0  0  0  0  0  0  0  0  0  0  0  0
   -2.3500   -0.3360    0.3566 H   0  0  0  0  0  0  0  0  0  0  0  0
   -0.2470   -0.1410    0.5576 C   0  0  1  0  0  0  0  0  0  0  0  0
    0.4239   -0.7541   -0.0450 H   0  0  0  0  0  0  0  0  0  0  0  0
   -0.4317    1.2160   -0.1683 C   0  0  1  0  0  0  0  0  0  0  0  0
   -1.2235    1.7555    0.3549 H   0  0  0  0  0  0  0  0  0  0  0  0
    0.8388    2.0862   -0.1211 C   0  0  0  0  0  0  0  0  0  0  0  0
    1.6424    1.6241   -0.6972 H   0  0  0  0  0  0  0  0  0  0  0  0
    0.6345    3.0760   -0.5262 H   0  0  0  0  0  0  0  0  0  0  0  0
    1.1718    2.2108    0.9099 H   0  0  0  0  0  0  0  0  0  0  0  0
   -0.9028    1.0056   -1.6248 C   0  0  0  0  0  0  0  0  0  0  0  0
   -0.1010    0.5594   -2.2146 H   0  0  0  0  0  0  0  0  0  0  0  0
   -1.7494    0.3190   -1.6238 H   0  0  0  0  0  0  0  0  0  0  0  0
   -1.3609    2.2959   -2.3180 C   0  0  0  0  0  0  0  0  0  0  0  0
   -0.5225    2.9810   -2.4430 H   0  0  0  0  0  0  0  0  0  0  0  0
   -1.7596    2.0527   -3.3031 H   0  0  0  0  0  0  0  0  0  0  0  0
   -2.1415    2.7788   -1.7292 H   0  0  0  0  0  0  0  0  0  0  0  0
    0.3833   -0.0008    1.9525 C   0  0  0  0  0  0  0  0  0  0  0  0
    1.4904   -0.4841    2.1851 O   0  0  0  0  0  0  0  0  0  0  0  0
   -0.3140    0.6688    2.8791 N   0  0  0  0  0  0  0  0  0  0  0  0
   -1.2094    1.0466    2.6123 H   0  0  0  0  0  0  0  0  0  0  0  0
    0.1430    0.8841    4.2506 C   0  0  0  0  0  0  0  0  0  0  0  0
    1.1438    1.3216    4.2412 H   0  0  0  0  0  0  0  0  0  0  0  0
   -0.5374    1.5563    4.7754 H   0  0  0  0  0  0  0  0  0  0  0  0
    0.1874   -0.0712    4.7772 H   0  0  0  0  0  0  0  0  0  0  0  0
  5  6  2  0  0  0  0
  5  7  1  0  0  0  0
  2  3  1  0  0  0  0
  2  4  1  0  0  0  0
  2  5  1  0  0  0  0
  1  2  1  0  0  0  0
 24 25  2  0  0  0  0
 24 26  1  0  0  0  0
 20 21  1  0  0  0  0
 20 22  1  0  0  0  0
 20 23  1  0  0  0  0
 17 18  1  0  0  0  0
 17 19  1  0  0  0  0
 17 20  1  0  0  0  0
 13 14  1  0  0  0  0
 13 15  1  0  0  0  0
 13 16  1  0  0  0  0
 11 12  1  0  0  0  0
 11 13  1  0  0  0  0
 11 17  1  0  0  0  0
  9 10  1  0  0  0  0
  9 11  1  0  0  0  0
  9 24  1  0  0  0  0
  7  8  1  0  0  0  0
  7  9  1  0  0  0  0
 28 29  1  0  0  0  0
 28 30  1  0  0  0  0
 28 31  1  0  0  0  0
 26 27  1  0  0  0  0
 26 28  1  0  0  0  0
M  END
$$$$
default_name
  -OEChem-01062215323D

 31 30  0     1  0  0  0  0  0999 V2000
   -3.0760   -3.6390    1.5496 H   0  0  0  0  0  0  0  0  0  0  0  0
   -3.0940   -2.6290    1.1426 C   0  0  0  0  0  0  0  0  0  0  0  0
   -3.7160   -1.9930    1.7706 H   0  0  0  0  0  0  0  0  0  0  0  0
   -3.4880   -2.6500    0.1286 H   0  0  0  0  0  0  0  0  0  0  0  0
   -1.6860   -2.0850    1.1196 C   0  0  0  0  0  0  0  0  0  0  0  0
   -0.7540   -2.7700    1.5226 O   0  0  0  0  0  0  0  0  0  0  0  0
   -1.5320   -0.8490    0.6496 N   0  0  0  0  0  0  0  0  0  0  0  0
   -2.3500   -0.3360    0.3566 H   0  0  0  0  0  0  0  0  0  0  0  0
   -0.2470   -0.1410    0.5576 C   0  0  1  0  0  0  0  0  0  0  0  0
    0.4239   -0.7541   -0.0450 H   0  0  0  0  0  0  0  0  0  0  0  0
   -0.4317    1.2160   -0.1683 C   0  0  1  0  0  0  0  0  0  0  0  0
   -1.2235    1.7555    0.3549 H   0  0  0  0  0  0  0  0  0  0  0  0
    0.8388    2.0862   -0.1211 C   0  0  0  0  0  0  0  0  0  0  0  0
    1.6424    1.6241   -0.6972 H   0  0  0  0  0  0  0  0  0  0  0  0
    0.6345    3.0760   -0.5262 H   0  0  0  0  0  0  0  0  0  0  0  0
    1.1718    2.2108    0.9099 H   0  0  0  0  0  0  0  0  0  0  0  0
   -0.9028    1.0056   -1.6248 C   0  0  0  0  0  0  0  0  0  0  0  0
   -0.1010    0.5594   -2.2146 H   0  0  0  0  0  0  0  0  0  0  0  0
   -1.7494    0.3190   -1.6238 H   0  0  0  0  0  0  0  0  0  0  0  0
   -1.3609    2.2959   -2.3180 C   0  0  0  0  0  0  0  0  0  0  0  0
   -0.5225    2.9810   -2.4430 H   0  0  0  0  0  0  0  0  0  0  0  0
   -1.7596    2.0527   -3.3031 H   0  0  0  0  0  0  0  0  0  0  0  0
   -2.1415    2.7788   -1.7292 H   0  0  0  0  0  0  0  0  0  0  0  0
    0.3833   -0.0008    1.9525 C   0  0  0  0  0  0  0  0  0  0  0  0
    1.5803   -0.2304    2.1189 O   0  0  0  0  0  0  0  0  0  0  0  0
   -0.4170    0.3858    2.9541 N   0  0  0  0  0  0  0  0  0  0  0  0
   -1.3850    0.5669    2.7398 H   0  0  0  0  0  0  0  0  0  0  0  0
    0.0265    0.5600    4.3358 C   0  0  0  0  0  0  0  0  0  0  0  0
    0.8964    1.2200    4.3632 H   0  0  0  0  0  0  0  0  0  0  0  0
   -0.7726    0.9946    4.9382 H   0  0  0  0  0  0  0  0  0  0  0  0
    0.3119   -0.4069    4.7547 H   0  0  0  0  0  0  0  0  0  0  0  0
  5  6  2  0  0  0  0
  5  7  1  0  0  0  0
  2  3  1  0  0  0  0
  2  4  1  0  0  0  0
  2  5  1  0  0  0  0
  1  2  1  0  0  0  0
 24 25  2  0  0  0  0
 24 26  1  0  0  0  0
 20 21  1  0  0  0  0
 20 22  1  0  0  0  0
 20 23  1  0  0  0  0
 17 18  1  0  0  0  0
 17 19  1  0  0  0  0
 17 20  1  0  0  0  0
 13 14  1  0  0  0  0
 13 15  1  0  0  0  0
 13 16  1  0  0  0  0
 11 12  1  0  0  0  0
 11 13  1  0  0  0  0
 11 17  1  0  0  0  0
  9 10  1  0  0  0  0
  9 11  1  0  0  0  0
  9 24  1  0  0  0  0
  7  8  1  0  0  0  0
  7  9  1  0  0  0  0
 28 29  1  0  0  0  0
 28 30  1  0  0  0  0
 28 31  1  0  0  0  0
 26 27  1  0  0  0  0
 26 28  1  0  0  0  0
M  END
$$$$
default_name
  -OEChem-01062215323D

 31 30  0     1  0  0  0  0  0999 V2000
   -3.0760   -3.6390    1.5496 H   0  0  0  0  0  0  0  0  0  0  0  0
   -3.0940   -2.6290    1.1426 C   0  0  0  0  0  0  0  0  0  0  0  0
   -3.7160   -1.9930    1.7706 H   0  0  0  0  0  0  0  0  0  0  0  0
   -3.4880   -2.6500    0.1286 H   0  0  0  0  0  0  0  0  0  0  0  0
   -1.6860   -2.0850    1.1196 C   0  0  0  0  0  0  0  0  0  0  0  0
   -0.7540   -2.7700    1.5226 O   0  0  0  0  0  0  0  0  0  0  0  0
   -1.5320   -0.8490    0.6496 N   0  0  0  0  0  0  0  0  0  0  0  0
   -2.3500   -0.3360    0.3566 H   0  0  0  0  0  0  0  0  0  0  0  0
   -0.2470   -0.1410    0.5576 C   0  0  1  0  0  0  0  0  0  0  0  0
    0.4239   -0.7541   -0.0450 H   0  0  0  0  0  0  0  0  0  0  0  0
   -0.4317    1.2160   -0.1683 C   0  0  1  0  0  0  0  0  0  0  0  0
   -1.2235    1.7555    0.3549 H   0  0  0  0  0  0  0  0  0  0  0  0
    0.8388    2.0862   -0.1211 C   0  0  0  0  0  0  0  0  0  0  0  0
    1.6424    1.6241   -0.6972 H   0  0  0  0  0  0  0  0  0  0  0  0
    0.6345    3.0760   -0.5262 H   0  0  0  0  0  0  0  0  0  0  0  0
    1.1718    2.2108    0.9099 H   0  0  0  0  0  0  0  0  0  0  0  0
   -0.9028    1.0056   -1.6248 C   0  0  0  0  0  0  0  0  0  0  0  0
   -0.1010    0.5594   -2.2146 H   0  0  0  0  0  0  0  0  0  0  0  0
   -1.7494    0.3190   -1.6238 H   0  0  0  0  0  0  0  0  0  0  0  0
   -1.3609    2.2959   -2.3180 C   0  0  0  0  0  0  0  0  0  0  0  0
   -0.5225    2.9810   -2.4430 H   0  0  0  0  0  0  0  0  0  0  0  0
   -1.7596    2.0527   -3.3031 H   0  0  0  0  0  0  0  0  0  0  0  0
   -2.1415    2.7788   -1.7292 H   0  0  0  0  0  0  0  0  0  0  0  0
    0.3833   -0.0008    1.9525 C   0  0  0  0  0  0  0  0  0  0  0  0
    1.6060    0.0429    2.0799 O   0  0  0  0  0  0  0  0  0  0  0  0
   -0.4483    0.0803    2.9989 N   0  0  0  0  0  0  0  0  0  0  0  0
   -1.4389    0.0488    2.8163 H   0  0  0  0  0  0  0  0  0  0  0  0
   -0.0079    0.2106    4.3865 C   0  0  0  0  0  0  0  0  0  0  0  0
    0.6841    1.0509    4.4761 H   0  0  0  0  0  0  0  0  0  0  0  0
   -0.8641    0.3796    5.0413 H   0  0  0  0  0  0  0  0  0  0  0  0
    0.5104   -0.6995    4.6944 H   0  0  0  0  0  0  0  0  0  0  0  0
  5  6  2  0  0  0  0
  5  7  1  0  0  0  0
  2  3  1  0  0  0  0
  2  4  1  0  0  0  0
  2  5  1  0  0  0  0
  1  2  1  0  0  0  0
 24 25  2  0  0  0  0
 24 26  1  0  0  0  0
 20 21  1  0  0  0  0
 20 22  1  0  0  0  0
 20 23  1  0  0  0  0
 17 18  1  0  0  0  0
 17 19  1  0  0  0  0
 17 20  1  0  0  0  0
 13 14  1  0  0  0  0
 13 15  1  0  0  0  0
 13 16  1  0  0  0  0
 11 12  1  0  0  0  0
 11 13  1  0  0  0  0
 11 17  1  0  0  0  0
  9 10  1  0  0  0  0
  9 11  1  0  0  0  0
  9 24  1  0  0  0  0
  7  8  1  0  0  0  0
  7  9  1  0  0  0  0
 28 29  1  0  0  0  0
 28 30  1  0  0  0  0
 28 31  1  0  0  0  0
 26 27  1  0  0  0  0
 26 28  1  0  0  0  0
M  END
$$$$
default_name
  -OEChem-01062215323D

 31 30  0     1  0  0  0  0  0999 V2000
   -3.0760   -3.6390    1.5496 H   0  0  0  0  0  0  0  0  0  0  0  0
   -3.0940   -2.6290    1.1426 C   0  0  0  0  0  0  0  0  0  0  0  0
   -3.7160   -1.9930    1.7706 H   0  0  0  0  0  0  0  0  0  0  0  0
   -3.4880   -2.6500    0.1286 H   0  0  0  0  0  0  0  0  0  0  0  0
   -1.6860   -2.0850    1.1196 C   0  0  0  0  0  0  0  0  0  0  0  0
   -0.7540   -2.7700    1.5226 O   0  0  0  0  0  0  0  0  0  0  0  0
   -1.5320   -0.8490    0.6496 N   0  0  0  0  0  0  0  0  0  0  0  0
   -2.3500   -0.3360    0.3566 H   0  0  0  0  0  0  0  0  0  0  0  0
   -0.2470   -0.1410    0.5576 C   0  0  1  0  0  0  0  0  0  0  0  0
    0.4239   -0.7541   -0.0450 H   0  0  0  0  0  0  0  0  0  0  0  0
   -0.4317    1.2160   -0.1683 C   0  0  1  0  0  0  0  0  0  0  0  0
   -1.2235    1.7555    0.3549 H   0  0  0  0  0  0  0  0  0  0  0  0
    0.8388    2.0862   -0.1211 C   0  0  0  0  0  0  0  0  0  0  0  0
    1.6424    1.6241   -0.6972 H   0  0  0  0  0  0  0  0  0  0  0  0
    0.6345    3.0760   -0.5262 H   0  0  0  0  0  0  0  0  0  0  0  0
    1.1718    2.2108    0.9099 H   0  0  0  0  0  0  0  0  0  0  0  0
   -0.9028    1.0056   -1.6248 C   0  0  0  0  0  0  0  0  0  0  0  0
   -0.1010    0.5594   -2.2146 H   0  0  0  0  0  0  0  0  0  0  0  0
   -1.7494    0.3190   -1.6238 H   0  0  0  0  0  0  0  0  0  0  0  0
   -1.3609    2.2959   -2.3180 C   0  0  0  0  0  0  0  0  0  0  0  0
   -0.5225    2.9810   -2.4430 H   0  0  0  0  0  0  0  0  0  0  0  0
   -1.7596    2.0527   -3.3031 H   0  0  0  0  0  0  0  0  0  0  0  0
   -2.1415    2.7788   -1.7292 H   0  0  0  0  0  0  0  0  0  0  0  0
    0.3833   -0.0008    1.9525 C   0  0  0  0  0  0  0  0  0  0  0  0
    1.5658    0.3170    2.0705 O   0  0  0  0  0  0  0  0  0  0  0  0
   -0.4057   -0.2270    3.0106 N   0  0  0  0  0  0  0  0  0  0  0  0
   -1.3675   -0.4724    2.8364 H   0  0  0  0  0  0  0  0  0  0  0  0
    0.0421   -0.1404    4.3992 C   0  0  0  0  0  0  0  0  0  0  0  0
    0.5215    0.8257    4.5722 H   0  0  0  0  0  0  0  0  0  0  0  0
   -0.8055   -0.2469    5.0778 H   0  0  0  0  0  0  0  0  0  0  0  0
    0.7695   -0.9291    4.6004 H   0  0  0  0  0  0  0  0  0  0  0  0
  5  6  2  0  0  0  0
  5  7  1  0  0  0  0
  2  3  1  0  0  0  0
  2  4  1  0  0  0  0
  2  5  1  0  0  0  0
  1  2  1  0  0  0  0
 24 25  2  0  0  0  0
 24 26  1  0  0  0  0
 20 21  1  0  0  0  0
 20 22  1  0  0  0  0
 20 23  1  0  0  0  0
 17 18  1  0  0  0  0
 17 19  1  0  0  0  0
 17 20  1  0  0  0  0
 13 14  1  0  0  0  0
 13 15  1  0  0  0  0
 13 16  1  0  0  0  0
 11 12  1  0  0  0  0
 11 13  1  0  0  0  0
 11 17  1  0  0  0  0
  9 10  1  0  0  0  0
  9 11  1  0  0  0  0
  9 24  1  0  0  0  0
  7  8  1  0  0  0  0
  7  9  1  0  0  0  0
 28 29  1  0  0  0  0
 28 30  1  0  0  0  0
 28 31  1  0  0  0  0
 26 27  1  0  0  0  0
 26 28  1  0  0  0  0
M  END
$$$$
default_name
  -OEChem-01062215323D

 31 30  0     1  0  0  0  0  0999 V2000
   -3.0760   -3.6390    1.5496 H   0  0  0  0  0  0  0  0  0  0  0  0
   -3.0940   -2.6290    1.1426 C   0  0  0  0  0  0  0  0  0  0  0  0
   -3.7160   -1.9930    1.7706 H   0  0  0  0  0  0  0  0  0  0  0  0
   -3.4880   -2.6500    0.1286 H   0  0  0  0  0  0  0  0  0  0  0  0
   -1.6860   -2.0850    1.1196 C   0  0  0  0  0  0  0  0  0  0  0  0
   -0.7540   -2.7700    1.5226 O   0  0  0  0  0  0  0  0  0  0  0  0
   -1.5320   -0.8490    0.6496 N   0  0  0  0  0  0  0  0  0  0  0  0
   -2.3500   -0.3360    0.3566 H   0  0  0  0  0  0  0  0  0  0  0  0
   -0.2470   -0.1410    0.5576 C   0  0  1  0  0  0  0  0  0  0  0  0
    0.4239   -0.7541   -0.0450 H   0  0  0  0  0  0  0  0  0  0  0  0
   -0.4317    1.2160   -0.1683 C   0  0  1  0  0  0  0  0  0  0  0  0
   -1.2235    1.7555    0.3549 H   0  0  0  0  0  0  0  0  0  0  0  0
    0.8388    2.0862   -0.1211 C   0  0  0  0  0  0  0  0  0  0  0  0
    1.6424    1.6241   -0.6972 H   0  0  0  0  0  0  0  0  0  0  0  0
    0.6345    3.0760   -0.5262 H   0  0  0  0  0  0  0  0  0  0  0  0
    1.1718    2.2108    0.9099 H   0  0  0  0  0  0  0  0  0  0  0  0
   -0.9028    1.0056   -1.6248 C   0  0  0  0  0  0  0  0  0  0  0  0
   -0.1010    0.5594   -2.2146 H   0  0  0  0  0  0  0  0  0  0  0  0
   -1.7494    0.3190   -1.6238 H   0  0  0  0  0  0  0  0  0  0  0  0
   -1.3609    2.2959   -2.3180 C   0  0  0  0  0  0  0  0  0  0  0  0
   -0.5225    2.9810   -2.4430 H   0  0  0  0  0  0  0  0  0  0  0  0
   -1.7596    2.0527   -3.3031 H   0  0  0  0  0  0  0  0  0  0  0  0
   -2.1415    2.7788   -1.7292 H   0  0  0  0  0  0  0  0  0  0  0  0
    0.3833   -0.0008    1.9525 C   0  0  0  0  0  0  0  0  0  0  0  0
    1.4623    0.5733    2.0915 O   0  0  0  0  0  0  0  0  0  0  0  0
   -0.2921   -0.5149    2.9882 N   0  0  0  0  0  0  0  0  0  0  0  0
   -1.1757   -0.9612    2.7988 H   0  0  0  0  0  0  0  0  0  0  0  0
    0.1731   -0.4690    4.3730 C   0  0  0  0  0  0  0  0  0  0  0  0
    0.4195    0.5597    4.6450 H   0  0  0  0  0  0  0  0  0  0  0  0
   -0.6009   -0.8422    5.0452 H   0  0  0  0  0  0  0  0  0  0  0  0
    1.0715   -1.0801    4.4791 H   0  0  0  0  0  0  0  0  0  0  0  0
  5  6  2  0  0  0  0
  5  7  1  0  0  0  0
  2  3  1  0  0  0  0
  2  4  1  0  0  0  0
  2  5  1  0  0  0  0
  1  2  1  0  0  0  0
 24 25  2  0  0  0  0
 24 26  1  0  0  0  0
 20 21  1  0  0  0  0
 20 22  1  0  0  0  0
 20 23  1  0  0  0  0
 17 18  1  0  0  0  0
 17 19  1  0  0  0  0
 17 20  1  0  0  0  0
 13 14  1  0  0  0  0
 13 15  1  0  0  0  0
 13 16  1  0  0  0  0
 11 12  1  0  0  0  0
 11 13  1  0  0  0  0
 11 17  1  0  0  0  0
  9 10  1  0  0  0  0
  9 11  1  0  0  0  0
  9 24  1  0  0  0  0
  7  8  1  0  0  0  0
  7  9  1  0  0  0  0
 28 29  1  0  0  0  0
 28 30  1  0  0  0  0
 28 31  1  0  0  0  0
 26 27  1  0  0  0  0
 26 28  1  0  0  0  0
M  END
$$$$
default_name
  -OEChem-01062215323D

 31 30  0     1  0  0  0  0  0999 V2000
   -3.0760   -3.6390    1.5496 H   0  0  0  0  0  0  0  0  0  0  0  0
   -3.0940   -2.6290    1.1426 C   0  0  0  0  0  0  0  0  0  0  0  0
   -3.7160   -1.9930    1.7706 H   0  0  0  0  0  0  0  0  0  0  0  0
   -3.4880   -2.6500    0.1286 H   0  0  0  0  0  0  0  0  0  0  0  0
   -1.6860   -2.0850    1.1196 C   0  0  0  0  0  0  0  0  0  0  0  0
   -0.7540   -2.7700    1.5226 O   0  0  0  0  0  0  0  0  0  0  0  0
   -1.5320   -0.8490    0.6496 N   0  0  0  0  0  0  0  0  0  0  0  0
   -2.3500   -0.3360    0.3566 H   0  0  0  0  0  0  0  0  0  0  0  0
   -0.2470   -0.1410    0.5576 C   0  0  1  0  0  0  0  0  0  0  0  0
    0.4239   -0.7541   -0.0450 H   0  0  0  0  0  0  0  0  0  0  0  0
   -0.4317    1.2160   -0.1683 C   0  0  1  0  0  0  0  0  0  0  0  0
   -1.2235    1.7555    0.3549 H   0  0  0  0  0  0  0  0  0  0  0  0
    0.8388    2.0862   -0.1211 C   0  0  0  0  0  0  0  0  0  0  0  0
    1.6424    1.6241   -0.6972 H   0  0  0  0  0  0  0  0  0  0  0  0
    0.6345    3.0760   -0.5262 H   0  0  0  0  0  0  0  0  0  0  0  0
    1.1718    2.2108    0.9099 H   0  0  0  0  0  0  0  0  0  0  0  0
   -0.9028    1.0056   -1.6248 C   0  0  0  0  0  0  0  0  0  0  0  0
   -0.1010    0.5594   -2.2146 H   0  0  0  0  0  0  0  0  0  0  0  0
   -1.7494    0.3190   -1.6238 H   0  0  0  0  0  0  0  0  0  0  0  0
   -1.3609    2.2959   -2.3180 C   0  0  0  0  0  0  0  0  0  0  0  0
   -0.5225    2.9810   -2.4430 H   0  0  0  0  0  0  0  0  0  0  0  0
   -1.7596    2.0527   -3.3031 H   0  0  0  0  0  0  0  0  0  0  0  0
   -2.1415    2.7788   -1.7292 H   0  0  0  0  0  0  0  0  0  0  0  0
    0.3833   -0.0008    1.9525 C   0  0  0  0  0  0  0  0  0  0  0  0
    1.3027    0.7944    2.1414 O   0  0  0  0  0  0  0  0  0  0  0  0
   -0.1153   -0.7641    2.9333 N   0  0  0  0  0  0  0  0  0  0  0  0
   -0.8764   -1.3844    2.7061 H   0  0  0  0  0  0  0  0  0  0  0  0
    0.3763   -0.7529    4.3097 C   0  0  0  0  0  0  0  0  0  0  0  0
    0.3852    0.2712    4.6895 H   0  0  0  0  0  0  0  0  0  0  0  0
   -0.2643   -1.3657    4.9456 H   0  0  0  0  0  0  0  0  0  0  0  0
    1.3958   -1.1421    4.3388 H   0  0  0  0  0  0  0  0  0  0  0  0
  5  6  2  0  0  0  0
  5  7  1  0  0  0  0
  2  3  1  0  0  0  0
  2  4  1  0  0  0  0
  2  5  1  0  0  0  0
  1  2  1  0  0  0  0
 24 25  2  0  0  0  0
 24 26  1  0  0  0  0
 20 21  1  0  0  0  0
 20 22  1  0  0  0  0
 20 23  1  0  0  0  0
 17 18  1  0  0  0  0
 17 19  1  0  0  0  0
 17 20  1  0  0  0  0
 13 14  1  0  0  0  0
 13 15  1  0  0  0  0
 13 16  1  0  0  0  0
 11 12  1  0  0  0  0
 11 13  1  0  0  0  0
 11 17  1  0  0  0  0
  9 10  1  0  0  0  0
  9 11  1  0  0  0  0
  9 24  1  0  0  0  0
  7  8  1  0  0  0  0
  7  9  1  0  0  0  0
 28 29  1  0  0  0  0
 28 30  1  0  0  0  0
 28 31  1  0  0  0  0
 26 27  1  0  0  0  0
 26 28  1  0  0  0  0
M  END
$$$$
default_name
  -OEChem-01062215323D

 31 30  0     1  0  0  0  0  0999 V2000
   -3.0760   -3.6390    1.5496 H   0  0  0  0  0  0  0  0  0  0  0  0
   -3.0940   -2.6290    1.1426 C   0  0  0  0  0  0  0  0  0  0  0  0
   -3.7160   -1.9930    1.7706 H   0  0  0  0  0  0  0  0  0  0  0  0
   -3.4880   -2.6500    0.1286 H   0  0  0  0  0  0  0  0  0  0  0  0
   -1.6860   -2.0850    1.1196 C   0  0  0  0  0  0  0  0  0  0  0  0
   -0.7540   -2.7700    1.5226 O   0  0  0  0  0  0  0  0  0  0  0  0
   -1.5320   -0.8490    0.6496 N   0  0  0  0  0  0  0  0  0  0  0  0
   -2.3500   -0.3360    0.3566 H   0  0  0  0  0  0  0  0  0  0  0  0
   -0.2470   -0.1410    0.5576 C   0  0  1  0  0  0  0  0  0  0  0  0
    0.4239   -0.7541   -0.0450 H   0  0  0  0  0  0  0  0  0  0  0  0
   -0.4317    1.2160   -0.1683 C   0  0  1  0  0  0  0  0  0  0  0  0
   -1.2235    1.7555    0.3549 H   0  0  0  0  0  0  0  0  0  0  0  0
    0.8388    2.0862   -0.1211 C   0  0  0  0  0  0  0  0  0  0  0  0
    1.6424    1.6241   -0.6972 H   0  0  0  0  0  0  0  0  0  0  0  0
    0.6345    3.0760   -0.5262 H   0  0  0  0  0  0  0  0  0  0  0  0
    1.1718    2.2108    0.9099 H   0  0  0  0  0  0  0  0  0  0  0  0
   -0.9028    1.0056   -1.6248 C   0  0  0  0  0  0  0  0  0  0  0  0
   -0.1010    0.5594   -2.2146 H   0  0  0  0  0  0  0  0  0  0  0  0
   -1.7494    0.3190   -1.6238 H   0  0  0  0  0  0  0  0  0  0  0  0
   -1.3609    2.2959   -2.3180 C   0  0  0  0  0  0  0  0  0  0  0  0
   -0.5225    2.9810   -2.4430 H   0  0  0  0  0  0  0  0  0  0  0  0
   -1.7596    2.0527   -3.3031 H   0  0  0  0  0  0  0  0  0  0  0  0
   -2.1415    2.7788   -1.7292 H   0  0  0  0  0  0  0  0  0  0  0  0
    0.3833   -0.0008    1.9525 C   0  0  0  0  0  0  0  0  0  0  0  0
    1.0977    0.9651    2.2169 O   0  0  0  0  0  0  0  0  0  0  0  0
    0.1127   -0.9573    2.8497 N   0  0  0  0  0  0  0  0  0  0  0  0
   -0.4902   -1.7129    2.5646 H   0  0  0  0  0  0  0  0  0  0  0  0
    0.6377   -0.9727    4.2137 C   0  0  0  0  0  0  0  0  0  0  0  0
    0.4209   -0.0203    4.7027 H   0  0  0  0  0  0  0  0  0  0  0  0
    0.1815   -1.7817    4.7860 H   0  0  0  0  0  0  0  0  0  0  0  0
    1.7203   -1.1110    4.1890 H   0  0  0  0  0  0  0  0  0  0  0  0
  5  6  2  0  0  0  0
  5  7  1  0  0  0  0
  2  3  1  0  0  0  0
  2  4  1  0  0  0  0
  2  5  1  0  0  0  0
  1  2  1  0  0  0  0
 24 25  2  0  0  0  0
 24 26  1  0  0  0  0
 20 21  1  0  0  0  0
 20 22  1  0  0  0  0
 20 23  1  0  0  0  0
 17 18  1  0  0  0  0
 17 19  1  0  0  0  0
 17 20  1  0  0  0  0
 13 14  1  0  0  0  0
 13 15  1  0  0  0  0
 13 16  1  0  0  0  0
 11 12  1  0  0  0  0
 11 13  1  0  0  0  0
 11 17  1  0  0  0  0
  9 10  1  0  0  0  0
  9 11  1  0  0  0  0
  9 24  1  0  0  0  0
  7  8  1  0  0  0  0
  7  9  1  0  0  0  0
 28 29  1  0  0  0  0
 28 30  1  0  0  0  0
 28 31  1  0  0  0  0
 26 27  1  0  0  0  0
 26 28  1  0  0  0  0
M  END
$$$$
default_name
  -OEChem-01062215323D

 31 30  0     1  0  0  0  0  0999 V2000
   -3.0760   -3.6390    1.5496 H   0  0  0  0  0  0  0  0  0  0  0  0
   -3.0940   -2.6290    1.1426 C   0  0  0  0  0  0  0  0  0  0  0  0
   -3.7160   -1.9930    1.7706 H   0  0  0  0  0  0  0  0  0  0  0  0
   -3.4880   -2.6500    0.1286 H   0  0  0  0  0  0  0  0  0  0  0  0
   -1.6860   -2.0850    1.1196 C   0  0  0  0  0  0  0  0  0  0  0  0
   -0.7540   -2.7700    1.5226 O   0  0  0  0  0  0  0  0  0  0  0  0
   -1.5320   -0.8490    0.6496 N   0  0  0  0  0  0  0  0  0  0  0  0
   -2.3500   -0.3360    0.3566 H   0  0  0  0  0  0  0  0  0  0  0  0
   -0.2470   -0.1410    0.5576 C   0  0  1  0  0  0  0  0  0  0  0  0
    0.4239   -0.7541   -0.0450 H   0  0  0  0  0  0  0  0  0  0  0  0
   -0.4317    1.2160   -0.1683 C   0  0  1  0  0  0  0  0  0  0  0  0
   -1.2235    1.7555    0.3549 H   0  0  0  0  0  0  0  0  0  0  0  0
    0.8388    2.0862   -0.1211 C   0  0  0  0  0  0  0  0  0  0  0  0
    1.6424    1.6241   -0.6972 H   0  0  0  0  0  0  0  0  0  0  0  0
    0.6345    3.0760   -0.5262 H   0  0  0  0  0  0  0  0  0  0  0  0
    1.1718    2.2108    0.9099 H   0  0  0  0  0  0  0  0  0  0  0  0
   -0.9028    1.0056   -1.6248 C   0  0  0  0  0  0  0  0  0  0  0  0
   -0.1010    0.5594   -2.2146 H   0  0  0  0  0  0  0  0  0  0  0  0
   -1.7494    0.3190   -1.6238 H   0  0  0  0  0  0  0  0  0  0  0  0
   -1.3609    2.2959   -2.3180 C   0  0  0  0  0  0  0  0  0  0  0  0
   -0.5225    2.9810   -2.4430 H   0  0  0  0  0  0  0  0  0  0  0  0
   -1.7596    2.0527   -3.3031 H   0  0  0  0  0  0  0  0  0  0  0  0
   -2.1415    2.7788   -1.7292 H   0  0  0  0  0  0  0  0  0  0  0  0
    0.3833   -0.0008    1.9525 C   0  0  0  0  0  0  0  0  0  0  0  0
    0.8614    1.0739    2.3127 O   0  0  0  0  0  0  0  0  0  0  0  0
    0.3764   -1.0816    2.7431 N   0  0  0  0  0  0  0  0  0  0  0  0
   -0.0432   -1.9246    2.3839 H   0  0  0  0  0  0  0  0  0  0  0  0
    0.9395   -1.1133    4.0914 C   0  0  0  0  0  0  0  0  0  0  0  0
    0.5242   -0.2949    4.6836 H   0  0  0  0  0  0  0  0  0  0  0  0
    0.7061   -2.0619    4.5771 H   0  0  0  0  0  0  0  0  0  0  0  0
    2.0228   -0.9888    4.0400 H   0  0  0  0  0  0  0  0  0  0  0  0
  5  6  2  0  0  0  0
  5  7  1  0  0  0  0
  2  3  1  0  0  0  0
  2  4  1  0  0  0  0
  2  5  1  0  0  0  0
  1  2  1  0  0  0  0
 24 25  2  0  0  0  0
 24 26  1  0  0  0  0
 20 21  1  0  0  0  0
 20 22  1  0  0  0  0
 20 23  1  0  0  0  0
 17 18  1  0  0  0  0
 17 19  1  0  0  0  0
 17 20  1  0  0  0  0
 13 14  1  0  0  0  0
 13 15  1  0  0  0  0
 13 16  1  0  0  0  0
 11 12  1  0  0  0  0
 11 13  1  0  0  0  0
 11 17  1  0  0  0  0
  9 10  1  0  0  0  0
  9 11  1  0  0  0  0
  9 24  1  0  0  0  0
  7  8  1  0  0  0  0
  7  9  1  0  0  0  0
 28 29  1  0  0  0  0
 28 30  1  0  0  0  0
 28 31  1  0  0  0  0
 26 27  1  0  0  0  0
 26 28  1  0  0  0  0
M  END
$$$$
default_name
  -OEChem-01062215323D

 31 30  0     1  0  0  0  0  0999 V2000
   -3.0760   -3.6390    1.5496 H   0  0  0  0  0  0  0  0  0  0  0  0
   -3.0940   -2.6290    1.1426 C   0  0  0  0  0  0  0  0  0  0  0  0
   -3.7160   -1.9930    1.7706 H   0  0  0  0  0  0  0  0  0  0  0  0
   -3.4880   -2.6500    0.1286 H   0  0  0  0  0  0  0  0  0  0  0  0
   -1.6860   -2.0850    1.1196 C   0  0  0  0  0  0  0  0  0  0  0  0
   -0.7540   -2.7700    1.5226 O   0  0  0  0  0  0  0  0  0  0  0  0
   -1.5320   -0.8490    0.6496 N   0  0  0  0  0  0  0  0  0  0  0  0
   -2.3500   -0.3360    0.3566 H   0  0  0  0  0  0  0  0  0  0  0  0
   -0.2470   -0.1410    0.5576 C   0  0  1  0  0  0  0  0  0  0  0  0
    0.4239   -0.7541   -0.0450 H   0  0  0  0  0  0  0  0  0  0  0  0
   -0.4317    1.2160   -0.1683 C   0  0  1  0  0  0  0  0  0  0  0  0
   -1.2235    1.7555    0.3549 H   0  0  0  0  0  0  0  0  0  0  0  0
    0.8388    2.0862   -0.1211 C   0  0  0  0  0  0  0  0  0  0  0  0
    1.6424    1.6241   -0.6972 H   0  0  0  0  0  0  0  0  0  0  0  0
    0.6345    3.0760   -0.5262 H   0  0  0  0  0  0  0  0  0  0  0  0
    1.1718    2.2108    0.9099 H   0  0  0  0  0  0  0  0  0  0  0  0
   -0.9028    1.0056   -1.6248 C   0  0  0  0  0  0  0  0  0  0  0  0
   -0.1010    0.5594   -2.2146 H   0  0  0  0  0  0  0  0  0  0  0  0
   -1.7494    0.3190   -1.6238 H   0  0  0  0  0  0  0  0  0  0  0  0
   -1.3609    2.2959   -2.3180 C   0  0  0  0  0  0  0  0  0  0  0  0
   -0.5225    2.9810   -2.4430 H   0  0  0  0  0  0  0  0  0  0  0  0
   -1.7596    2.0527   -3.3031 H   0  0  0  0  0  0  0  0  0  0  0  0
   -2.1415    2.7788   -1.7292 H   0  0  0  0  0  0  0  0  0  0  0  0
    0.3833   -0.0008    1.9525 C   0  0  0  0  0  0  0  0  0  0  0  0
    0.6099    1.1133    2.4224 O   0  0  0  0  0  0  0  0  0  0  0  0
    0.6577   -1.1284    2.6206 N   0  0  0  0  0  0  0  0  0  0  0  0
    0.4339   -2.0049    2.1764 H   0  0  0  0  0  0  0  0  0  0  0  0
    1.2612   -1.1654    3.9513 C   0  0  0  0  0  0  0  0  0  0  0  0
    0.6880   -0.5338    4.6336 H   0  0  0  0  0  0  0  0  0  0  0  0
    1.2736   -2.1872    4.3333 H   0  0  0  0  0  0  0  0  0  0  0  0
    2.2829   -0.7839    3.9019 H   0  0  0  0  0  0  0  0  0  0  0  0
  5  6  2  0  0  0  0
  5  7  1  0  0  0  0
  2  3  1  0  0  0  0
  2  4  1  0  0  0  0
  2  5  1  0  0  0  0
  1  2  1  0  0  0  0
 24 25  2  0  0  0  0
 24 26  1  0  0  0  0
 20 21  1  0  0  0  0
 20 22  1  0  0  0  0
 20 23  1  0  0  0  0
 17 18  1  0  0  0  0
 17 19  1  0  0  0  0
 17 20  1  0  0  0  0
 13 14  1  0  0  0  0
 13 15  1  0  0  0  0
 13 16  1  0  0  0  0
 11 12  1  0  0  0  0
 11 13  1  0  0  0  0
 11 17  1  0  0  0  0
  9 10  1  0  0  0  0
  9 11  1  0  0  0  0
  9 24  1  0  0  0  0
  7  8  1  0  0  0  0
  7  9  1  0  0  0  0
 28 29  1  0  0  0  0
 28 30  1  0  0  0  0
 28 31  1  0  0  0  0
 26 27  1  0  0  0  0
 26 28  1  0  0  0  0
M  END
$$$$
default_name
  -OEChem-01062215323D

 31 30  0     1  0  0  0  0  0999 V2000
   -3.0760   -3.6390    1.5496 H   0  0  0  0  0  0  0  0  0  0  0  0
   -3.0940   -2.6290    1.1426 C   0  0  0  0  0  0  0  0  0  0  0  0
   -3.7160   -1.9930    1.7706 H   0  0  0  0  0  0  0  0  0  0  0  0
   -3.4880   -2.6500    0.1286 H   0  0  0  0  0  0  0  0  0  0  0  0
   -1.6860   -2.0850    1.1196 C   0  0  0  0  0  0  0  0  0  0  0  0
   -0.7540   -2.7700    1.5226 O   0  0  0  0  0  0  0  0  0  0  0  0
   -1.5320   -0.8490    0.6496 N   0  0  0  0  0  0  0  0  0  0  0  0
   -2.3500   -0.3360    0.3566 H   0  0  0  0  0  0  0  0  0  0  0  0
   -0.2470   -0.1410    0.5576 C   0  0  1  0  0  0  0  0  0  0  0  0
    0.4239   -0.7541   -0.0450 H   0  0  0  0  0  0  0  0  0  0  0  0
   -0.4317    1.2160   -0.1683 C   0  0  1  0  0  0  0  0  0  0  0  0
   -1.2235    1.7555    0.3549 H   0  0  0  0  0  0  0  0  0  0  0  0
    0.8388    2.0862   -0.1211 C   0  0  0  0  0  0  0  0  0  0  0  0
    1.6424    1.6241   -0.6972 H   0  0  0  0  0  0  0  0  0  0  0  0
    0.6345    3.0760   -0.5262 H   0  0  0  0  0  0  0  0  0  0  0  0
    1.1718    2.2108    0.9099 H   0  0  0  0  0  0  0  0  0  0  0  0
   -0.9028    1.0056   -1.6248 C   0  0  0  0  0  0  0  0  0  0  0  0
   -0.1010    0.5594   -2.2146 H   0  0  0  0  0  0  0  0  0  0  0  0
   -1.7494    0.3190   -1.6238 H   0  0  0  0  0  0  0  0  0  0  0  0
   -1.3609    2.2959   -2.3180 C   0  0  0  0  0  0  0  0  0  0  0  0
   -0.5225    2.9810   -2.4430 H   0  0  0  0  0  0  0  0  0  0  0  0
   -1.7596    2.0527   -3.3031 H   0  0  0  0  0  0  0  0  0  0  0  0
   -2.1415    2.7788   -1.7292 H   0  0  0  0  0  0  0  0  0  0  0  0
    0.3833   -0.0008    1.9525 C   0  0  0  0  0  0  0  0  0  0  0  0
    0.3603    1.0806    2.5385 O   0  0  0  0  0  0  0  0  0  0  0  0
    0.9376   -1.0945    2.4908 N   0  0  0  0  0  0  0  0  0  0  0  0
    0.9087   -1.9483    1.9561 H   0  0  0  0  0  0  0  0  0  0  0  0
    1.5809   -1.1252    3.8028 C   0  0  0  0  0  0  0  0  0  0  0  0
    0.9011   -0.7208    4.5561 H   0  0  0  0  0  0  0  0  0  0  0  0
    1.8455   -2.1490    4.0710 H   0  0  0  0  0  0  0  0  0  0  0  0
    2.4827   -0.5102    3.7841 H   0  0  0  0  0  0  0  0  0  0  0  0
  5  6  2  0  0  0  0
  5  7  1  0  0  0  0
  2  3  1  0  0  0  0
  2  4  1  0  0  0  0
  2  5  1  0  0  0  0
  1  2  1  0  0  0  0
 24 25  2  0  0  0  0
 24 26  1  0  0  0  0
 20 21  1  0  0  0  0
 20 22  1  0  0  0  0
 20 23  1  0  0  0  0
 17 18  1  0  0  0  0
 17 19  1  0  0  0  0
 17 20  1  0  0  0  0
 13 14  1  0  0  0  0
 13 15  1  0  0  0  0
 13 16  1  0  0  0  0
 11 12  1  0  0  0  0
 11 13  1  0  0  0  0
 11 17  1  0  0  0  0
  9 10  1  0  0  0  0
  9 11  1  0  0  0  0
  9 24  1  0  0  0  0
  7  8  1  0  0  0  0
  7  9  1  0  0  0  0
 28 29  1  0  0  0  0
 28 30  1  0  0  0  0
 28 31  1  0  0  0  0
 26 27  1  0  0  0  0
 26 28  1  0  0  0  0
M  END
$$$$
default_name
  -OEChem-01062215323D

 31 30  0     1  0  0  0  0  0999 V2000
   -3.0760   -3.6390    1.5496 H   0  0  0  0  0  0  0  0  0  0  0  0
   -3.0940   -2.6290    1.1426 C   0  0  0  0  0  0  0  0  0  0  0  0
   -3.7160   -1.9930    1.7706 H   0  0  0  0  0  0  0  0  0  0  0  0
   -3.4880   -2.6500    0.1286 H   0  0  0  0  0  0  0  0  0  0  0  0
   -1.6860   -2.0850    1.1196 C   0  0  0  0  0  0  0  0  0  0  0  0
   -0.7540   -2.7700    1.5226 O   0  0  0  0  0  0  0  0  0  0  0  0
   -1.5320   -0.8490    0.6496 N   0  0  0  0  0  0  0  0  0  0  0  0
   -2.3500   -0.3360    0.3566 H   0  0  0  0  0  0  0  0  0  0  0  0
   -0.2470   -0.1410    0.5576 C   0  0  1  0  0  0  0  0  0  0  0  0
    0.4239   -0.7541   -0.0450 H   0  0  0  0  0  0  0  0  0  0  0  0
   -0.4317    1.2160   -0.1683 C   0  0  1  0  0  0  0  0  0  0  0  0
   -1.2235    1.7555    0.3549 H   0  0  0  0  0  0  0  0  0  0  0  0
    0.8388    2.0862   -0.1211 C   0  0  0  0  0  0  0  0  0  0  0  0
    1.6424    1.6241   -0.6972 H   0  0  0  0  0  0  0  0  0  0  0  0
    0.6345    3.0760   -0.5262 H   0  0  0  0  0  0  0  0  0  0  0  0
    1.1718    2.2108    0.9099 H   0  0  0  0  0  0  0  0  0  0  0  0
   -0.9028    1.0056   -1.6248 C   0  0  0  0  0  0  0  0  0  0  0  0
   -0.1010    0.5594   -2.2146 H   0  0  0  0  0  0  0  0  0  0  0  0
   -1.7494    0.3190   -1.6238 H   0  0  0  0  0  0  0  0  0  0  0  0
   -1.3609    2.2959   -2.3180 C   0  0  0  0  0  0  0  0  0  0  0  0
   -0.5225    2.9810   -2.4430 H   0  0  0  0  0  0  0  0  0  0  0  0
   -1.7596    2.0527   -3.3031 H   0  0  0  0  0  0  0  0  0  0  0  0
   -2.1415    2.7788   -1.7292 H   0  0  0  0  0  0  0  0  0  0  0  0
    0.3833   -0.0008    1.9525 C   0  0  0  0  0  0  0  0  0  0  0  0
    0.1296    0.9781    2.6531 O   0  0  0  0  0  0  0  0  0  0  0  0
    1.1969   -0.9823    2.3623 N   0  0  0  0  0  0  0  0  0  0  0  0
    1.3489   -1.7588    1.7382 H   0  0  0  0  0  0  0  0  0  0  0  0
    1.8768   -0.9955    3.6561 C   0  0  0  0  0  0  0  0  0  0  0  0
    1.1491   -0.8432    4.4563 H   0  0  0  0  0  0  0  0  0  0  0  0
    2.3827   -1.9500    3.8083 H   0  0  0  0  0  0  0  0  0  0  0  0
    2.6087   -0.1865    3.6947 H   0  0  0  0  0  0  0  0  0  0  0  0
  5  6  2  0  0  0  0
  5  7  1  0  0  0  0
  2  3  1  0  0  0  0
  2  4  1  0  0  0  0
  2  5  1  0  0  0  0
  1  2  1  0  0  0  0
 24 25  2  0  0  0  0
 24 26  1  0  0  0  0
 20 21  1  0  0  0  0
 20 22  1  0  0  0  0
 20 23  1  0  0  0  0
 17 18  1  0  0  0  0
 17 19  1  0  0  0  0
 17 20  1  0  0  0  0
 13 14  1  0  0  0  0
 13 15  1  0  0  0  0
 13 16  1  0  0  0  0
 11 12  1  0  0  0  0
 11 13  1  0  0  0  0
 11 17  1  0  0  0  0
  9 10  1  0  0  0  0
  9 11  1  0  0  0  0
  9 24  1  0  0  0  0
  7  8  1  0  0  0  0
  7  9  1  0  0  0  0
 28 29  1  0  0  0  0
 28 30  1  0  0  0  0
 28 31  1  0  0  0  0
 26 27  1  0  0  0  0
 26 28  1  0  0  0  0
M  END
$$$$
default_name
  -OEChem-01062215323D

 31 30  0     1  0  0  0  0  0999 V2000
   -3.0760   -3.6390    1.5496 H   0  0  0  0  0  0  0  0  0  0  0  0
   -3.0940   -2.6290    1.1426 C   0  0  0  0  0  0  0  0  0  0  0  0
   -3.7160   -1.9930    1.7706 H   0  0  0  0  0  0  0  0  0  0  0  0
   -3.4880   -2.6500    0.1286 H   0  0  0  0  0  0  0  0  0  0  0  0
   -1.6860   -2.0850    1.1196 C   0  0  0  0  0  0  0  0  0  0  0  0
   -0.7540   -2.7700    1.5226 O   0  0  0  0  0  0  0  0  0  0  0  0
   -1.5320   -0.8490    0.6496 N   0  0  0  0  0  0  0  0  0  0  0  0
   -2.3500   -0.3360    0.3566 H   0  0  0  0  0  0  0  0  0  0  0  0
   -0.2470   -0.1410    0.5576 C   0  0  1  0  0  0  0  0  0  0  0  0
    0.4239   -0.7541   -0.0450 H   0  0  0  0  0  0  0  0  0  0  0  0
   -0.4317    1.2160   -0.1683 C   0  0  1  0  0  0  0  0  0  0  0  0
   -1.2235    1.7555    0.3549 H   0  0  0  0  0  0  0  0  0  0  0  0
    0.8388    2.0862   -0.1211 C   0  0  0  0  0  0  0  0  0  0  0  0
    1.6424    1.6241   -0.6972 H   0  0  0  0  0  0  0  0  0  0  0  0
    0.6345    3.0760   -0.5262 H   0  0  0  0  0  0  0  0  0  0  0  0
    1.1718    2.2108    0.9099 H   0  0  0  0  0  0  0  0  0  0  0  0
   -0.9028    1.0056   -1.6248 C   0  0  0  0  0  0  0  0  0  0  0  0
   -0.1010    0.5594   -2.2146 H   0  0  0  0  0  0  0  0  0  0  0  0
   -1.7494    0.3190   -1.6238 H   0  0  0  0  0  0  0  0  0  0  0  0
   -1.3609    2.2959   -2.3180 C   0  0  0  0  0  0  0  0  0  0  0  0
   -0.5225    2.9810   -2.4430 H   0  0  0  0  0  0  0  0  0  0  0  0
   -1.7596    2.0527   -3.3031 H   0  0  0  0  0  0  0  0  0  0  0  0
   -2.1415    2.7788   -1.7292 H   0  0  0  0  0  0  0  0  0  0  0  0
    0.3833   -0.0008    1.9525 C   0  0  0  0  0  0  0  0  0  0  0  0
   -0.0665    0.8127    2.7583 O   0  0  0  0  0  0  0  0  0  0  0  0
    1.4180   -0.7993    2.2440 N   0  0  0  0  0  0  0  0  0  0  0  0
    1.7244   -1.4492    1.5374 H   0  0  0  0  0  0  0  0  0  0  0  0
    2.1286   -0.7852    3.5212 C   0  0  0  0  0  0  0  0  0  0  0  0
    1.4150   -0.8925    4.3411 H   0  0  0  0  0  0  0  0  0  0  0  0
    2.8487   -1.6037    3.5629 H   0  0  0  0  0  0  0  0  0  0  0  0
    2.6522    0.1654    3.6397 H   0  0  0  0  0  0  0  0  0  0  0  0
  5  6  2  0  0  0  0
  5  7  1  0  0  0  0
  2  3  1  0  0  0  0
  2  4  1  0  0  0  0
  2  5  1  0  0  0  0
  1  2  1  0  0  0  0
 24 25  2  0  0  0  0
 24 26  1  0  0  0  0
 20 21  1  0  0  0  0
 20 22  1  0  0  0  0
 20 23  1  0  0  0  0
 17 18  1  0  0  0  0
 17 19  1  0  0  0  0
 17 20  1  0  0  0  0
 13 14  1  0  0  0  0
 13 15  1  0  0  0  0
 13 16  1  0  0  0  0
 11 12  1  0  0  0  0
 11 13  1  0  0  0  0
 11 17  1  0  0  0  0
  9 10  1  0  0  0  0
  9 11  1  0  0  0  0
  9 24  1  0  0  0  0
  7  8  1  0  0  0  0
  7  9  1  0  0  0  0
 28 29  1  0  0  0  0
 28 30  1  0  0  0  0
 28 31  1  0  0  0  0
 26 27  1  0  0  0  0
 26 28  1  0  0  0  0
M  END
$$$$
default_name
  -OEChem-01062215323D

 31 30  0     1  0  0  0  0  0999 V2000
   -3.0760   -3.6390    1.5496 H   0  0  0  0  0  0  0  0  0  0  0  0
   -3.0940   -2.6290    1.1426 C   0  0  0  0  0  0  0  0  0  0  0  0
   -3.7160   -1.9930    1.7706 H   0  0  0  0  0  0  0  0  0  0  0  0
   -3.4880   -2.6500    0.1286 H   0  0  0  0  0  0  0  0  0  0  0  0
   -1.6860   -2.0850    1.1196 C   0  0  0  0  0  0  0  0  0  0  0  0
   -0.7540   -2.7700    1.5226 O   0  0  0  0  0  0  0  0  0  0  0  0
   -1.5320   -0.8490    0.6496 N   0  0  0  0  0  0  0  0  0  0  0  0
   -2.3500   -0.3360    0.3566 H   0  0  0  0  0  0  0  0  0  0  0  0
   -0.2470   -0.1410    0.5576 C   0  0  1  0  0  0  0  0  0  0  0  0
    0.4239   -0.7541   -0.0450 H   0  0  0  0  0  0  0  0  0  0  0  0
   -0.4317    1.2160   -0.1683 C   0  0  1  0  0  0  0  0  0  0  0  0
   -1.2235    1.7555    0.3549 H   0  0  0  0  0  0  0  0  0  0  0  0
    0.8388    2.0862   -0.1211 C   0  0  0  0  0  0  0  0  0  0  0  0
    1.6424    1.6241   -0.6972 H   0  0  0  0  0  0  0  0  0  0  0  0
    0.6345    3.0760   -0.5262 H   0  0  0  0  0  0  0  0  0  0  0  0
    1.1718    2.2108    0.9099 H   0  0  0  0  0  0  0  0  0  0  0  0
   -0.9028    1.0056   -1.6248 C   0  0  0  0  0  0  0  0  0  0  0  0
   -0.1010    0.5594   -2.2146 H   0  0  0  0  0  0  0  0  0  0  0  0
   -1.7494    0.3190   -1.6238 H   0  0  0  0  0  0  0  0  0  0  0  0
   -1.3609    2.2959   -2.3180 C   0  0  0  0  0  0  0  0  0  0  0  0
   -0.5225    2.9810   -2.4430 H   0  0  0  0  0  0  0  0  0  0  0  0
   -1.7596    2.0527   -3.3031 H   0  0  0  0  0  0  0  0  0  0  0  0
   -2.1415    2.7788   -1.7292 H   0  0  0  0  0  0  0  0  0  0  0  0
    0.3833   -0.0008    1.9525 C   0  0  0  0  0  0  0  0  0  0  0  0
   -0.2145    0.5957    2.8470 O   0  0  0  0  0  0  0  0  0  0  0  0
    1.5857   -0.5581    2.1440 N   0  0  0  0  0  0  0  0  0  0  0  0
    2.0097   -1.0407    1.3675 H   0  0  0  0  0  0  0  0  0  0  0  0
    2.3193   -0.5086    3.4072 C   0  0  0  0  0  0  0  0  0  0  0  0
    1.6808   -0.8655    4.2183 H   0  0  0  0  0  0  0  0  0  0  0  0
    3.2117   -1.1337    3.3517 H   0  0  0  0  0  0  0  0  0  0  0  0
    2.6102    0.5212    3.6229 H   0  0  0  0  0  0  0  0  0  0  0  0
  5  6  2  0  0  0  0
  5  7  1  0  0  0  0
  2  3  1  0  0  0  0
  2  4  1  0  0  0  0
  2  5  1  0  0  0  0
  1  2  1  0  0  0  0
 24 25  2  0  0  0  0
 24 26  1  0  0  0  0
 20 21  1  0  0  0  0
 20 22  1  0  0  0  0
 20 23  1  0  0  0  0
 17 18  1  0  0  0  0
 17 19  1  0  0  0  0
 17 20  1  0  0  0  0
 13 14  1  0  0  0  0
 13 15  1  0  0  0  0
 13 16  1  0  0  0  0
 11 12  1  0  0  0  0
 11 13  1  0  0  0  0
 11 17  1  0  0  0  0
  9 10  1  0  0  0  0
  9 11  1  0  0  0  0
  9 24  1  0  0  0  0
  7  8  1  0  0  0  0
  7  9  1  0  0  0  0
 28 29  1  0  0  0  0
 28 30  1  0  0  0  0
 28 31  1  0  0  0  0
 26 27  1  0  0  0  0
 26 28  1  0  0  0  0
M  END
$$$$
default_name
  -OEChem-01062215323D

 31 30  0     1  0  0  0  0  0999 V2000
   -3.0760   -3.6390    1.5496 H   0  0  0  0  0  0  0  0  0  0  0  0
   -3.0940   -2.6290    1.1426 C   0  0  0  0  0  0  0  0  0  0  0  0
   -3.7160   -1.9930    1.7706 H   0  0  0  0  0  0  0  0  0  0  0  0
   -3.4880   -2.6500    0.1286 H   0  0  0  0  0  0  0  0  0  0  0  0
   -1.6860   -2.0850    1.1196 C   0  0  0  0  0  0  0  0  0  0  0  0
   -0.7540   -2.7700    1.5226 O   0  0  0  0  0  0  0  0  0  0  0  0
   -1.5320   -0.8490    0.6496 N   0  0  0  0  0  0  0  0  0  0  0  0
   -2.3500   -0.3360    0.3566 H   0  0  0  0  0  0  0  0  0  0  0  0
   -0.2470   -0.1410    0.5576 C   0  0  1  0  0  0  0  0  0  0  0  0
    0.4239   -0.7541   -0.0450 H   0  0  0  0  0  0  0  0  0  0  0  0
   -0.4317    1.2160   -0.1683 C   0  0  1  0  0  0  0  0  0  0  0  0
   -1.2235    1.7555    0.3549 H   0  0  0  0  0  0  0  0  0  0  0  0
    0.8388    2.0862   -0.1211 C   0  0  0  0  0  0  0  0  0  0  0  0
    1.6424    1.6241   -0.6972 H   0  0  0  0  0  0  0  0  0  0  0  0
    0.6345    3.0760   -0.5262 H   0  0  0  0  0  0  0  0  0  0  0  0
    1.1718    2.2108    0.9099 H   0  0  0  0  0  0  0  0  0  0  0  0
   -0.9028    1.0056   -1.6248 C   0  0  0  0  0  0  0  0  0  0  0  0
   -0.1010    0.5594   -2.2146 H   0  0  0  0  0  0  0  0  0  0  0  0
   -1.7494    0.3190   -1.6238 H   0  0  0  0  0  0  0  0  0  0  0  0
   -1.3609    2.2959   -2.3180 C   0  0  0  0  0  0  0  0  0  0  0  0
   -0.5225    2.9810   -2.4430 H   0  0  0  0  0  0  0  0  0  0  0  0
   -1.7596    2.0527   -3.3031 H   0  0  0  0  0  0  0  0  0  0  0  0
   -2.1415    2.7788   -1.7292 H   0  0  0  0  0  0  0  0  0  0  0  0
    0.3833   -0.0008    1.9525 C   0  0  0  0  0  0  0  0  0  0  0  0
   -0.3045    0.3420    2.9131 O   0  0  0  0  0  0  0  0  0  0  0  0
    1.6888   -0.2751    2.0690 N   0  0  0  0  0  0  0  0  0  0  0  0
    2.1853   -0.5610    1.2399 H   0  0  0  0  0  0  0  0  0  0  0  0
    2.4358   -0.1846    3.3220 C   0  0  0  0  0  0  0  0  0  0  0  0
    1.9282   -0.7640    4.0963 H   0  0  0  0  0  0  0  0  0  0  0  0
    3.4469   -0.5720    3.1889 H   0  0  0  0  0  0  0  0  0  0  0  0
    2.4858    0.8569    3.6454 H   0  0  0  0  0  0  0  0  0  0  0  0
  5  6  2  0  0  0  0
  5  7  1  0  0  0  0
  2  3  1  0  0  0  0
  2  4  1  0  0  0  0
  2  5  1  0  0  0  0
  1  2  1  0  0  0  0
 24 25  2  0  0  0  0
 24 26  1  0  0  0  0
 20 21  1  0  0  0  0
 20 22  1  0  0  0  0
 20 23  1  0  0  0  0
 17 18  1  0  0  0  0
 17 19  1  0  0  0  0
 17 20  1  0  0  0  0
 13 14  1  0  0  0  0
 13 15  1  0  0  0  0
 13 16  1  0  0  0  0
 11 12  1  0  0  0  0
 11 13  1  0  0  0  0
 11 17  1  0  0  0  0
  9 10  1  0  0  0  0
  9 11  1  0  0  0  0
  9 24  1  0  0  0  0
  7  8  1  0  0  0  0
  7  9  1  0  0  0  0
 28 29  1  0  0  0  0
 28 30  1  0  0  0  0
 28 31  1  0  0  0  0
 26 27  1  0  0  0  0
 26 28  1  0  0  0  0
M  END
$$$$
default_name
  -OEChem-01062215323D

 31 30  0     1  0  0  0  0  0999 V2000
   -3.0760   -3.6390    1.5496 H   0  0  0  0  0  0  0  0  0  0  0  0
   -3.0940   -2.6290    1.1426 C   0  0  0  0  0  0  0  0  0  0  0  0
   -3.7160   -1.9930    1.7706 H   0  0  0  0  0  0  0  0  0  0  0  0
   -3.4880   -2.6500    0.1286 H   0  0  0  0  0  0  0  0  0  0  0  0
   -1.6860   -2.0850    1.1196 C   0  0  0  0  0  0  0  0  0  0  0  0
   -0.7540   -2.7700    1.5226 O   0  0  0  0  0  0  0  0  0  0  0  0
   -1.5320   -0.8490    0.6496 N   0  0  0  0  0  0  0  0  0  0  0  0
   -2.3500   -0.3360    0.3566 H   0  0  0  0  0  0  0  0  0  0  0  0
   -0.2470   -0.1410    0.5576 C   0  0  1  0  0  0  0  0  0  0  0  0
    0.4239   -0.7541   -0.0450 H   0  0  0  0  0  0  0  0  0  0  0  0
   -0.4317    1.2160   -0.1683 C   0  0  1  0  0  0  0  0  0  0  0  0
   -1.2235    1.7555    0.3549 H   0  0  0  0  0  0  0  0  0  0  0  0
    0.8388    2.0862   -0.1211 C   0  0  0  0  0  0  0  0  0  0  0  0
    1.6424    1.6241   -0.6972 H   0  0  0  0  0  0  0  0  0  0  0  0
    0.6345    3.0760   -0.5262 H   0  0  0  0  0  0  0  0  0  0  0  0
    1.1718    2.2108    0.9099 H   0  0  0  0  0  0  0  0  0  0  0  0
   -0.9028    1.0056   -1.6248 C   0  0  0  0  0  0  0  0  0  0  0  0
   -0.1010    0.5594   -2.2146 H   0  0  0  0  0  0  0  0  0  0  0  0
   -1.7494    0.3190   -1.6238 H   0  0  0  0  0  0  0  0  0  0  0  0
   -1.3609    2.2959   -2.3180 C   0  0  0  0  0  0  0  0  0  0  0  0
   -0.5225    2.9810   -2.4430 H   0  0  0  0  0  0  0  0  0  0  0  0
   -1.7596    2.0527   -3.3031 H   0  0  0  0  0  0  0  0  0  0  0  0
   -2.1415    2.7788   -1.7292 H   0  0  0  0  0  0  0  0  0  0  0  0
    0.3833   -0.0008    1.9525 C   0  0  0  0  0  0  0  0  0  0  0  0
   -0.3302    0.0688    2.9522 O   0  0  0  0  0  0  0  0  0  0  0  0
    1.7201    0.0305    2.0241 N   0  0  0  0  0  0  0  0  0  0  0  0
    2.2392   -0.0429    1.1635 H   0  0  0  0  0  0  0  0  0  0  0  0
    2.4702    0.1649    3.2713 C   0  0  0  0  0  0  0  0  0  0  0  0
    2.1405   -0.5948    3.9834 H   0  0  0  0  0  0  0  0  0  0  0  0
    3.5384    0.0430    3.0858 H   0  0  0  0  0  0  0  0  0  0  0  0
    2.2872    1.1496    3.7057 H   0  0  0  0  0  0  0  0  0  0  0  0
  5  6  2  0  0  0  0
  5  7  1  0  0  0  0
  2  3  1  0  0  0  0
  2  4  1  0  0  0  0
  2  5  1  0  0  0  0
  1  2  1  0  0  0  0
 24 25  2  0  0  0  0
 24 26  1  0  0  0  0
 20 21  1  0  0  0  0
 20 22  1  0  0  0  0
 20 23  1  0  0  0  0
 17 18  1  0  0  0  0
 17 19  1  0  0  0  0
 17 20  1  0  0  0  0
 13 14  1  0  0  0  0
 13 15  1  0  0  0  0
 13 16  1  0  0  0  0
 11 12  1  0  0  0  0
 11 13  1  0  0  0  0
 11 17  1  0  0  0  0
  9 10  1  0  0  0  0
  9 11  1  0  0  0  0
  9 24  1  0  0  0  0
  7  8  1  0  0  0  0
  7  9  1  0  0  0  0
 28 29  1  0  0  0  0
 28 30  1  0  0  0  0
 28 31  1  0  0  0  0
 26 27  1  0  0  0  0
 26 28  1  0  0  0  0
M  END
$$$$
default_name
  -OEChem-01062215323D

 31 30  0     1  0  0  0  0  0999 V2000
   -3.0760   -3.6390    1.5496 H   0  0  0  0  0  0  0  0  0  0  0  0
   -3.0940   -2.6290    1.1426 C   0  0  0  0  0  0  0  0  0  0  0  0
   -3.7160   -1.9930    1.7706 H   0  0  0  0  0  0  0  0  0  0  0  0
   -3.4880   -2.6500    0.1286 H   0  0  0  0  0  0  0  0  0  0  0  0
   -1.6860   -2.0850    1.1196 C   0  0  0  0  0  0  0  0  0  0  0  0
   -0.7540   -2.7700    1.5226 O   0  0  0  0  0  0  0  0  0  0  0  0
   -1.5320   -0.8490    0.6496 N   0  0  0  0  0  0  0  0  0  0  0  0
   -2.3500   -0.3360    0.3566 H   0  0  0  0  0  0  0  0  0  0  0  0
   -0.2470   -0.1410    0.5576 C   0  0  1  0  0  0  0  0  0  0  0  0
    0.4239   -0.7541   -0.0450 H   0  0  0  0  0  0  0  0  0  0  0  0
   -0.4317    1.2160   -0.1683 C   0  0  1  0  0  0  0  0  0  0  0  0
   -1.2235    1.7555    0.3549 H   0  0  0  0  0  0  0  0  0  0  0  0
    0.8388    2.0862   -0.1211 C   0  0  0  0  0  0  0  0  0  0  0  0
    1.6424    1.6241   -0.6972 H   0  0  0  0  0  0  0  0  0  0  0  0
    0.6345    3.0760   -0.5262 H   0  0  0  0  0  0  0  0  0  0  0  0
    1.1718    2.2108    0.9099 H   0  0  0  0  0  0  0  0  0  0  0  0
   -0.9028    1.0056   -1.6248 C   0  0  0  0  0  0  0  0  0  0  0  0
   -0.1010    0.5594   -2.2146 H   0  0  0  0  0  0  0  0  0  0  0  0
   -1.7494    0.3190   -1.6238 H   0  0  0  0  0  0  0  0  0  0  0  0
   -1.3609    2.2959   -2.3180 C   0  0  0  0  0  0  0  0  0  0  0  0
   -0.5225    2.9810   -2.4430 H   0  0  0  0  0  0  0  0  0  0  0  0
   -1.7596    2.0527   -3.3031 H   0  0  0  0  0  0  0  0  0  0  0  0
   -2.1415    2.7788   -1.7292 H   0  0  0  0  0  0  0  0  0  0  0  0
    0.3833   -0.0008    1.9525 C   0  0  0  0  0  0  0  0  0  0  0  0
   -0.2900   -0.2054    2.9616 O   0  0  0  0  0  0  0  0  0  0  0  0
    1.6775    0.3377    2.0125 N   0  0  0  0  0  0  0  0  0  0  0  0
    2.1678    0.4783    1.1434 H   0  0  0  0  0  0  0  0  0  0  0  0
    2.4202    0.5159    3.2586 C   0  0  0  0  0  0  0  0  0  0  0  0
    2.3031   -0.3696    3.8873 H   0  0  0  0  0  0  0  0  0  0  0  0
    3.4798    0.6696    3.0493 H   0  0  0  0  0  0  0  0  0  0  0  0
    2.0282    1.3792    3.7997 H   0  0  0  0  0  0  0  0  0  0  0  0
  5  6  2  0  0  0  0
  5  7  1  0  0  0  0
  2  3  1  0  0  0  0
  2  4  1  0  0  0  0
  2  5  1  0  0  0  0
  1  2  1  0  0  0  0
 24 25  2  0  0  0  0
 24 26  1  0  0  0  0
 20 21  1  0  0  0  0
 20 22  1  0  0  0  0
 20 23  1  0  0  0  0
 17 18  1  0  0  0  0
 17 19  1  0  0  0  0
 17 20  1  0  0  0  0
 13 14  1  0  0  0  0
 13 15  1  0  0  0  0
 13 16  1  0  0  0  0
 11 12  1  0  0  0  0
 11 13  1  0  0  0  0
 11 17  1  0  0  0  0
  9 10  1  0  0  0  0
  9 11  1  0  0  0  0
  9 24  1  0  0  0  0
  7  8  1  0  0  0  0
  7  9  1  0  0  0  0
 28 29  1  0  0  0  0
 28 30  1  0  0  0  0
 28 31  1  0  0  0  0
 26 27  1  0  0  0  0
 26 28  1  0  0  0  0
M  END
$$$$
default_name
  -OEChem-01062215323D

 31 30  0     1  0  0  0  0  0999 V2000
   -3.0760   -3.6390    1.5496 H   0  0  0  0  0  0  0  0  0  0  0  0
   -3.0940   -2.6290    1.1426 C   0  0  0  0  0  0  0  0  0  0  0  0
   -3.7160   -1.9930    1.7706 H   0  0  0  0  0  0  0  0  0  0  0  0
   -3.4880   -2.6500    0.1286 H   0  0  0  0  0  0  0  0  0  0  0  0
   -1.6860   -2.0850    1.1196 C   0  0  0  0  0  0  0  0  0  0  0  0
   -0.7540   -2.7700    1.5226 O   0  0  0  0  0  0  0  0  0  0  0  0
   -1.5320   -0.8490    0.6496 N   0  0  0  0  0  0  0  0  0  0  0  0
   -2.3500   -0.3360    0.3566 H   0  0  0  0  0  0  0  0  0  0  0  0
   -0.2470   -0.1410    0.5576 C   0  0  1  0  0  0  0  0  0  0  0  0
    0.3258   -0.6023   -0.2475 H   0  0  0  0  0  0  0  0  0  0  0  0
   -0.4779    1.3458    0.1853 C   0  0  1  0  0  0  0  0  0  0  0  0
   -1.1826    1.7537    0.9124 H   0  0  0  0  0  0  0  0  0  0  0  0
    0.8147    2.1802    0.2661 C   0  0  0  0  0  0  0  0  0  0  0  0
    1.5270    1.8596   -0.4962 H   0  0  0  0  0  0  0  0  0  0  0  0
    0.5926    3.2365    0.1236 H   0  0  0  0  0  0  0  0  0  0  0  0
    1.2755    2.0665    1.2481 H   0  0  0  0  0  0  0  0  0  0  0  0
   -1.1305    1.4728   -1.2095 C   0  0  0  0  0  0  0  0  0  0  0  0
   -0.4212    1.1708   -1.9812 H   0  0  0  0  0  0  0  0  0  0  0  0
   -1.9911    0.8055   -1.2561 H   0  0  0  0  0  0  0  0  0  0  0  0
   -1.6306    2.8877   -1.5306 C   0  0  0  0  0  0  0  0  0  0  0  0
   -0.7934    3.5818   -1.6032 H   0  0  0  0  0  0  0  0  0  0  0  0
   -2.1545    2.8755   -2.4866 H   0  0  0  0  0  0  0  0  0  0  0  0
   -2.3179    3.2256   -0.7543 H   0  0  0  0  0  0  0  0  0  0  0  0
    0.5538   -0.3227    1.8570 C   0  0  0  0  0  0  0  0  0  0  0  0
    0.0958   -0.9950    2.7798 O   0  0  0  0  0  0  0  0  0  0  0  0
    1.7542    0.2665    1.9283 N   0  0  0  0  0  0  0  0  0  0  0  0
    2.0685    0.7923    1.1281 H   0  0  0  0  0  0  0  0  0  0  0  0
    2.6338    0.1942    3.0933 C   0  0  0  0  0  0  0  0  0  0  0  0
    2.7848   -0.8498    3.3768 H   0  0  0  0  0  0  0  0  0  0  0  0
    3.5999    0.6478    2.8672 H   0  0  0  0  0  0  0  0  0  0  0  0
    2.1743    0.7184    3.9335 H   0  0  0  0  0  0  0  0  0  0  0  0
  5  6  2  0  0  0  0
  5  7  1  0  0  0  0
  2  3  1  0  0  0  0
  2  4  1  0  0  0  0
  2  5  1  0  0  0  0
  1  2  1  0  0  0  0
 24 25  2  0  0  0  0
 24 26  1  0  0  0  0
 20 21  1  0  0  0  0
 20 22  1  0  0  0  0
 20 23  1  0  0  0  0
 17 18  1  0  0  0  0
 17 19  1  0  0  0  0
 17 20  1  0  0  0  0
 13 14  1  0  0  0  0
 13 15  1  0  0  0  0
 13 16  1  0  0  0  0
 11 12  1  0  0  0  0
 11 13  1  0  0  0  0
 11 17  1  0  0  0  0
  9 10  1  0  0  0  0
  9 11  1  0  0  0  0
  9 24  1  0  0  0  0
  7  8  1  0  0  0  0
  7  9  1  0  0  0  0
 28 29  1  0  0  0  0
 28 30  1  0  0  0  0
 28 31  1  0  0  0  0
 26 27  1  0  0  0  0
 26 28  1  0  0  0  0
M  END
$$$$
default_name
  -OEChem-01062215323D

 31 30  0     1  0  0  0  0  0999 V2000
   -3.0760   -3.6390    1.5496 H   0  0  0  0  0  0  0  0  0  0  0  0
   -3.0940   -2.6290    1.1426 C   0  0  0  0  0  0  0  0  0  0  0  0
   -3.7160   -1.9930    1.7706 H   0  0  0  0  0  0  0  0  0  0  0  0
   -3.4880   -2.6500    0.1286 H   0  0  0  0  0  0  0  0  0  0  0  0
   -1.6860   -2.0850    1.1196 C   0  0  0  0  0  0  0  0  0  0  0  0
   -0.7540   -2.7700    1.5226 O   0  0  0  0  0  0  0  0  0  0  0  0
   -1.5320   -0.8490    0.6496 N   0  0  0  0  0  0  0  0  0  0  0  0
   -2.3500   -0.3360    0.3566 H   0  0  0  0  0  0  0  0  0  0  0  0
   -0.2470   -0.1410    0.5576 C   0  0  1  0  0  0  0  0  0  0  0  0
    0.3258   -0.6023   -0.2475 H   0  0  0  0  0  0  0  0  0  0  0  0
   -0.4779    1.3458    0.1853 C   0  0  1  0  0  0  0  0  0  0  0  0
   -1.1826    1.7537    0.9124 H   0  0  0  0  0  0  0  0  0  0  0  0
    0.8147    2.1802    0.2661 C   0  0  0  0  0  0  0  0  0  0  0  0
    1.5270    1.8596   -0.4962 H   0  0  0  0  0  0  0  0  0  0  0  0
    0.5926    3.2365    0.1236 H   0  0  0  0  0  0  0  0  0  0  0  0
    1.2755    2.0665    1.2481 H   0  0  0  0  0  0  0  0  0  0  0  0
   -1.1305    1.4728   -1.2095 C   0  0  0  0  0  0  0  0  0  0  0  0
   -0.4212    1.1708   -1.9812 H   0  0  0  0  0  0  0  0  0  0  0  0
   -1.9911    0.8055   -1.2561 H   0  0  0  0  0  0  0  0  0  0  0  0
   -1.6306    2.8877   -1.5306 C   0  0  0  0  0  0  0  0  0  0  0  0
   -0.7934    3.5818   -1.6032 H   0  0  0  0  0  0  0  0  0  0  0  0
   -2.1545    2.8755   -2.4866 H   0  0  0  0  0  0  0  0  0  0  0  0
   -2.3179    3.2256   -0.7543 H   0  0  0  0  0  0  0  0  0  0  0  0
    0.5538   -0.3227    1.8570 C   0  0  0  0  0  0  0  0  0  0  0  0
    0.2413   -1.1992    2.6616 O   0  0  0  0  0  0  0  0  0  0  0  0
    1.5931    0.4970    2.0598 N   0  0  0  0  0  0  0  0  0  0  0  0
    1.7959    1.1839    1.3508 H   0  0  0  0  0  0  0  0  0  0  0  0
    2.4487    0.4566    3.2441 C   0  0  0  0  0  0  0  0  0  0  0  0
    2.8221   -0.5587    3.3945 H   0  0  0  0  0  0  0  0  0  0  0  0
    3.2941    1.1356    3.1239 H   0  0  0  0  0  0  0  0  0  0  0  0
    1.8718    0.7475    4.1241 H   0  0  0  0  0  0  0  0  0  0  0  0
  5  6  2  0  0  0  0
  5  7  1  0  0  0  0
  2  3  1  0  0  0  0
  2  4  1  0  0  0  0
  2  5  1  0  0  0  0
  1  2  1  0  0  0  0
 24 25  2  0  0  0  0
 24 26  1  0  0  0  0
 20 21  1  0  0  0  0
 20 22  1  0  0  0  0
 20 23  1  0  0  0  0
 17 18  1  0  0  0  0
 17 19  1  0  0  0  0
 17 20  1  0  0  0  0
 13 14  1  0  0  0  0
 13 15  1  0  0  0  0
 13 16  1  0  0  0  0
 11 12  1  0  0  0  0
 11 13  1  0  0  0  0
 11 17  1  0  0  0  0
  9 10  1  0  0  0  0
  9 11  1  0  0  0  0
  9 24  1  0  0  0  0
  7  8  1  0  0  0  0
  7  9  1  0  0  0  0
 28 29  1  0  0  0  0
 28 30  1  0  0  0  0
 28 31  1  0  0  0  0
 26 27  1  0  0  0  0
 26 28  1  0  0  0  0
M  END
$$$$
default_name
  -OEChem-01062215323D

 31 30  0     1  0  0  0  0  0999 V2000
   -3.0760   -3.6390    1.5496 H   0  0  0  0  0  0  0  0  0  0  0  0
   -3.0940   -2.6290    1.1426 C   0  0  0  0  0  0  0  0  0  0  0  0
   -3.7160   -1.9930    1.7706 H   0  0  0  0  0  0  0  0  0  0  0  0
   -3.4880   -2.6500    0.1286 H   0  0  0  0  0  0  0  0  0  0  0  0
   -1.6860   -2.0850    1.1196 C   0  0  0  0  0  0  0  0  0  0  0  0
   -0.7540   -2.7700    1.5226 O   0  0  0  0  0  0  0  0  0  0  0  0
   -1.5320   -0.8490    0.6496 N   0  0  0  0  0  0  0  0  0  0  0  0
   -2.3500   -0.3360    0.3566 H   0  0  0  0  0  0  0  0  0  0  0  0
   -0.2470   -0.1410    0.5576 C   0  0  1  0  0  0  0  0  0  0  0  0
    0.3258   -0.6023   -0.2475 H   0  0  0  0  0  0  0  0  0  0  0  0
   -0.4779    1.3458    0.1853 C   0  0  1  0  0  0  0  0  0  0  0  0
   -1.1826    1.7537    0.9124 H   0  0  0  0  0  0  0  0  0  0  0  0
    0.8147    2.1802    0.2661 C   0  0  0  0  0  0  0  0  0  0  0  0
    1.5270    1.8596   -0.4962 H   0  0  0  0  0  0  0  0  0  0  0  0
    0.5926    3.2365    0.1236 H   0  0  0  0  0  0  0  0  0  0  0  0
    1.2755    2.0665    1.2481 H   0  0  0  0  0  0  0  0  0  0  0  0
   -1.1305    1.4728   -1.2095 C   0  0  0  0  0  0  0  0  0  0  0  0
   -0.4212    1.1708   -1.9812 H   0  0  0  0  0  0  0  0  0  0  0  0
   -1.9911    0.8055   -1.2561 H   0  0  0  0  0  0  0  0  0  0  0  0
   -1.6306    2.8877   -1.5306 C   0  0  0  0  0  0  0  0  0  0  0  0
   -0.7934    3.5818   -1.6032 H   0  0  0  0  0  0  0  0  0  0  0  0
   -2.1545    2.8755   -2.4866 H   0  0  0  0  0  0  0  0  0  0  0  0
   -2.3179    3.2256   -0.7543 H   0  0  0  0  0  0  0  0  0  0  0  0
    0.5538   -0.3227    1.8570 C   0  0  0  0  0  0  0  0  0  0  0  0
    0.4301   -1.3487    2.5243 O   0  0  0  0  0  0  0  0  0  0  0  0
    1.3831    0.6666    2.2129 N   0  0  0  0  0  0  0  0  0  0  0  0
    1.4402    1.4724    1.6104 H   0  0  0  0  0  0  0  0  0  0  0  0
    2.2079    0.6493    3.4194 C   0  0  0  0  0  0  0  0  0  0  0  0
    2.7940   -0.2718    3.4520 H   0  0  0  0  0  0  0  0  0  0  0  0
    2.8842    1.5053    3.4282 H   0  0  0  0  0  0  0  0  0  0  0  0
    1.5674    0.6837    4.3028 H   0  0  0  0  0  0  0  0  0  0  0  0
  5  6  2  0  0  0  0
  5  7  1  0  0  0  0
  2  3  1  0  0  0  0
  2  4  1  0  0  0  0
  2  5  1  0  0  0  0
  1  2  1  0  0  0  0
 24 25  2  0  0  0  0
 24 26  1  0  0  0  0
 20 21  1  0  0  0  0
 20 22  1  0  0  0  0
 20 23  1  0  0  0  0
 17 18  1  0  0  0  0
 17 19  1  0  0  0  0
 17 20  1  0  0  0  0
 13 14  1  0  0  0  0
 13 15  1  0  0  0  0
 13 16  1  0  0  0  0
 11 12  1  0  0  0  0
 11 13  1  0  0  0  0
 11 17  1  0  0  0  0
  9 10  1  0  0  0  0
  9 11  1  0  0  0  0
  9 24  1  0  0  0  0
  7  8  1  0  0  0  0
  7  9  1  0  0  0  0
 28 29  1  0  0  0  0
 28 30  1  0  0  0  0
 28 31  1  0  0  0  0
 26 27  1  0  0  0  0
 26 28  1  0  0  0  0
M  END
$$$$
default_name
  -OEChem-01062215323D

 31 30  0     1  0  0  0  0  0999 V2000
   -3.0760   -3.6390    1.5496 H   0  0  0  0  0  0  0  0  0  0  0  0
   -3.0940   -2.6290    1.1426 C   0  0  0  0  0  0  0  0  0  0  0  0
   -3.7160   -1.9930    1.7706 H   0  0  0  0  0  0  0  0  0  0  0  0
   -3.4880   -2.6500    0.1286 H   0  0  0  0  0  0  0  0  0  0  0  0
   -1.6860   -2.0850    1.1196 C   0  0  0  0  0  0  0  0  0  0  0  0
   -0.7540   -2.7700    1.5226 O   0  0  0  0  0  0  0  0  0  0  0  0
   -1.5320   -0.8490    0.6496 N   0  0  0  0  0  0  0  0  0  0  0  0
   -2.3500   -0.3360    0.3566 H   0  0  0  0  0  0  0  0  0  0  0  0
   -0.2470   -0.1410    0.5576 C   0  0  1  0  0  0  0  0  0  0  0  0
    0.3258   -0.6023   -0.2475 H   0  0  0  0  0  0  0  0  0  0  0  0
   -0.4779    1.3458    0.1853 C   0  0  1  0  0  0  0  0  0  0  0  0
   -1.1826    1.7537    0.9124 H   0  0  0  0  0  0  0  0  0  0  0  0
    0.8147    2.1802    0.2661 C   0  0  0  0  0  0  0  0  0  0  0  0
    1.5270    1.8596   -0.4962 H   0  0  0  0  0  0  0  0  0  0  0  0
    0.5926    3.2365    0.1236 H   0  0  0  0  0  0  0  0  0  0  0  0
    1.2755    2.0665    1.2481 H   0  0  0  0  0  0  0  0  0  0  0  0
   -1.1305    1.4728   -1.2095 C   0  0  0  0  0  0  0  0  0  0  0  0
   -0.4212    1.1708   -1.9812 H   0  0  0  0  0  0  0  0  0  0  0  0
   -1.9911    0.8055   -1.2561 H   0  0  0  0  0  0  0  0  0  0  0  0
   -1.6306    2.8877   -1.5306 C   0  0  0  0  0  0  0  0  0  0  0  0
   -0.7934    3.5818   -1.6032 H   0  0  0  0  0  0  0  0  0  0  0  0
   -2.1545    2.8755   -2.4866 H   0  0  0  0  0  0  0  0  0  0  0  0
   -2.3179    3.2256   -0.7543 H   0  0  0  0  0  0  0  0  0  0  0  0
    0.5538   -0.3227    1.8570 C   0  0  0  0  0  0  0  0  0  0  0  0
    0.6494   -1.4333    2.3773 O   0  0  0  0  0  0  0  0  0  0  0  0
    1.1384    0.7639    2.3773 N   0  0  0  0  0  0  0  0  0  0  0  0
    1.0255    1.6383    1.8891 H   0  0  0  0  0  0  0  0  0  0  0  0
    1.9278    0.7591    3.6074 C   0  0  0  0  0  0  0  0  0  0  0  0
    2.7023   -0.0086    3.5453 H   0  0  0  0  0  0  0  0  0  0  0  0
    2.3981    1.7317    3.7594 H   0  0  0  0  0  0  0  0  0  0  0  0
    1.2818    0.5314    4.4575 H   0  0  0  0  0  0  0  0  0  0  0  0
  5  6  2  0  0  0  0
  5  7  1  0  0  0  0
  2  3  1  0  0  0  0
  2  4  1  0  0  0  0
  2  5  1  0  0  0  0
  1  2  1  0  0  0  0
 24 25  2  0  0  0  0
 24 26  1  0  0  0  0
 20 21  1  0  0  0  0
 20 22  1  0  0  0  0
 20 23  1  0  0  0  0
 17 18  1  0  0  0  0
 17 19  1  0  0  0  0
 17 20  1  0  0  0  0
 13 14  1  0  0  0  0
 13 15  1  0  0  0  0
 13 16  1  0  0  0  0
 11 12  1  0  0  0  0
 11 13  1  0  0  0  0
 11 17  1  0  0  0  0
  9 10  1  0  0  0  0
  9 11  1  0  0  0  0
  9 24  1  0  0  0  0
  7  8  1  0  0  0  0
  7  9  1  0  0  0  0
 28 29  1  0  0  0  0
 28 30  1  0  0  0  0
 28 31  1  0  0  0  0
 26 27  1  0  0  0  0
 26 28  1  0  0  0  0
M  END
$$$$
default_name
  -OEChem-01062215323D

 31 30  0     1  0  0  0  0  0999 V2000
   -3.0760   -3.6390    1.5496 H   0  0  0  0  0  0  0  0  0  0  0  0
   -3.0940   -2.6290    1.1426 C   0  0  0  0  0  0  0  0  0  0  0  0
   -3.7160   -1.9930    1.7706 H   0  0  0  0  0  0  0  0  0  0  0  0
   -3.4880   -2.6500    0.1286 H   0  0  0  0  0  0  0  0  0  0  0  0
   -1.6860   -2.0850    1.1196 C   0  0  0  0  0  0  0  0  0  0  0  0
   -0.7540   -2.7700    1.5226 O   0  0  0  0  0  0  0  0  0  0  0  0
   -1.5320   -0.8490    0.6496 N   0  0  0  0  0  0  0  0  0  0  0  0
   -2.3500   -0.3360    0.3566 H   0  0  0  0  0  0  0  0  0  0  0  0
   -0.2470   -0.1410    0.5576 C   0  0  1  0  0  0  0  0  0  0  0  0
    0.3258   -0.6023   -0.2475 H   0  0  0  0  0  0  0  0  0  0  0  0
   -0.4779    1.3458    0.1853 C   0  0  1  0  0  0  0  0  0  0  0  0
   -1.1826    1.7537    0.9124 H   0  0  0  0  0  0  0  0  0  0  0  0
    0.8147    2.1802    0.2661 C   0  0  0  0  0  0  0  0  0  0  0  0
    1.5270    1.8596   -0.4962 H   0  0  0  0  0  0  0  0  0  0  0  0
    0.5926    3.2365    0.1236 H   0  0  0  0  0  0  0  0  0  0  0  0
    1.2755    2.0665    1.2481 H   0  0  0  0  0  0  0  0  0  0  0  0
   -1.1305    1.4728   -1.2095 C   0  0  0  0  0  0  0  0  0  0  0  0
   -0.4212    1.1708   -1.9812 H   0  0  0  0  0  0  0  0  0  0  0  0
   -1.9911    0.8055   -1.2561 H   0  0  0  0  0  0  0  0  0  0  0  0
   -1.6306    2.8877   -1.5306 C   0  0  0  0  0  0  0  0  0  0  0  0
   -0.7934    3.5818   -1.6032 H   0  0  0  0  0  0  0  0  0  0  0  0
   -2.1545    2.8755   -2.4866 H   0  0  0  0  0  0  0  0  0  0  0  0
   -2.3179    3.2256   -0.7543 H   0  0  0  0  0  0  0  0  0  0  0  0
    0.5538   -0.3227    1.8570 C   0  0  0  0  0  0  0  0  0  0  0  0
    0.8843   -1.4471    2.2306 O   0  0  0  0  0  0  0  0  0  0  0  0
    0.8758    0.7821    2.5417 N   0  0  0  0  0  0  0  0  0  0  0  0
    0.5802    1.6702    2.1681 H   0  0  0  0  0  0  0  0  0  0  0  0
    1.6275    0.7785    3.7952 C   0  0  0  0  0  0  0  0  0  0  0  0
    2.5533    0.2131    3.6681 H   0  0  0  0  0  0  0  0  0  0  0  0
    1.8689    1.7993    4.0950 H   0  0  0  0  0  0  0  0  0  0  0  0
    1.0345    0.3010    4.5776 H   0  0  0  0  0  0  0  0  0  0  0  0
  5  6  2  0  0  0  0
  5  7  1  0  0  0  0
  2  3  1  0  0  0  0
  2  4  1  0  0  0  0
  2  5  1  0  0  0  0
  1  2  1  0  0  0  0
 24 25  2  0  0  0  0
 24 26  1  0  0  0  0
 20 21  1  0  0  0  0
 20 22  1  0  0  0  0
 20 23  1  0  0  0  0
 17 18  1  0  0  0  0
 17 19  1  0  0  0  0
 17 20  1  0  0  0  0
 13 14  1  0  0  0  0
 13 15  1  0  0  0  0
 13 16  1  0  0  0  0
 11 12  1  0  0  0  0
 11 13  1  0  0  0  0
 11 17  1  0  0  0  0
  9 10  1  0  0  0  0
  9 11  1  0  0  0  0
  9 24  1  0  0  0  0
  7  8  1  0  0  0  0
  7  9  1  0  0  0  0
 28 29  1  0  0  0  0
 28 30  1  0  0  0  0
 28 31  1  0  0  0  0
 26 27  1  0  0  0  0
 26 28  1  0  0  0  0
M  END
$$$$
default_name
  -OEChem-01062215323D

 31 30  0     1  0  0  0  0  0999 V2000
   -3.0760   -3.6390    1.5496 H   0  0  0  0  0  0  0  0  0  0  0  0
   -3.0940   -2.6290    1.1426 C   0  0  0  0  0  0  0  0  0  0  0  0
   -3.7160   -1.9930    1.7706 H   0  0  0  0  0  0  0  0  0  0  0  0
   -3.4880   -2.6500    0.1286 H   0  0  0  0  0  0  0  0  0  0  0  0
   -1.6860   -2.0850    1.1196 C   0  0  0  0  0  0  0  0  0  0  0  0
   -0.7540   -2.7700    1.5226 O   0  0  0  0  0  0  0  0  0  0  0  0
   -1.5320   -0.8490    0.6496 N   0  0  0  0  0  0  0  0  0  0  0  0
   -2.3500   -0.3360    0.3566 H   0  0  0  0  0  0  0  0  0  0  0  0
   -0.2470   -0.1410    0.5576 C   0  0  1  0  0  0  0  0  0  0  0  0
    0.3258   -0.6023   -0.2475 H   0  0  0  0  0  0  0  0  0  0  0  0
   -0.4779    1.3458    0.1853 C   0  0  1  0  0  0  0  0  0  0  0  0
   -1.1826    1.7537    0.9124 H   0  0  0  0  0  0  0  0  0  0  0  0
    0.8147    2.1802    0.2661 C   0  0  0  0  0  0  0  0  0  0  0  0
    1.5270    1.8596   -0.4962 H   0  0  0  0  0  0  0  0  0  0  0  0
    0.5926    3.2365    0.1236 H   0  0  0  0  0  0  0  0  0  0  0  0
    1.2755    2.0665    1.2481 H   0  0  0  0  0  0  0  0  0  0  0  0
   -1.1305    1.4728   -1.2095 C   0  0  0  0  0  0  0  0  0  0  0  0
   -0.4212    1.1708   -1.9812 H   0  0  0  0  0  0  0  0  0  0  0  0
   -1.9911    0.8055   -1.2561 H   0  0  0  0  0  0  0  0  0  0  0  0
   -1.6306    2.8877   -1.5306 C   0  0  0  0  0  0  0  0  0  0  0  0
   -0.7934    3.5818   -1.6032 H   0  0  0  0  0  0  0  0  0  0  0  0
   -2.1545    2.8755   -2.4866 H   0  0  0  0  0  0  0  0  0  0  0  0
   -2.3179    3.2256   -0.7543 H   0  0  0  0  0  0  0  0  0  0  0  0
    0.5538   -0.3227    1.8570 C   0  0  0  0  0  0  0  0  0  0  0  0
    1.1186   -1.3894    2.0943 O   0  0  0  0  0  0  0  0  0  0  0  0
    0.6131    0.7201    2.6950 N   0  0  0  0  0  0  0  0  0  0  0  0
    0.1345    1.5659    2.4282 H   0  0  0  0  0  0  0  0  0  0  0  0
    1.3274    0.7062    3.9701 C   0  0  0  0  0  0  0  0  0  0  0  0
    2.3571    0.3779    3.8121 H   0  0  0  0  0  0  0  0  0  0  0  0
    1.3326    1.7036    4.4121 H   0  0  0  0  0  0  0  0  0  0  0  0
    0.8424    0.0081    4.6551 H   0  0  0  0  0  0  0  0  0  0  0  0
  5  6  2  0  0  0  0
  5  7  1  0  0  0  0
  2  3  1  0  0  0  0
  2  4  1  0  0  0  0
  2  5  1  0  0  0  0
  1  2  1  0  0  0  0
 24 25  2  0  0  0  0
 24 26  1  0  0  0  0
 20 21  1  0  0  0  0
 20 22  1  0  0  0  0
 20 23  1  0  0  0  0
 17 18  1  0  0  0  0
 17 19  1  0  0  0  0
 17 20  1  0  0  0  0
 13 14  1  0  0  0  0
 13 15  1  0  0  0  0
 13 16  1  0  0  0  0
 11 12  1  0  0  0  0
 11 13  1  0  0  0  0
 11 17  1  0  0  0  0
  9 10  1  0  0  0  0
  9 11  1  0  0  0  0
  9 24  1  0  0  0  0
  7  8  1  0  0  0  0
  7  9  1  0  0  0  0
 28 29  1  0  0  0  0
 28 30  1  0  0  0  0
 28 31  1  0  0  0  0
 26 27  1  0  0  0  0
 26 28  1  0  0  0  0
M  END
$$$$
default_name
  -OEChem-01062215323D

 31 30  0     1  0  0  0  0  0999 V2000
   -3.0760   -3.6390    1.5496 H   0  0  0  0  0  0  0  0  0  0  0  0
   -3.0940   -2.6290    1.1426 C   0  0  0  0  0  0  0  0  0  0  0  0
   -3.7160   -1.9930    1.7706 H   0  0  0  0  0  0  0  0  0  0  0  0
   -3.4880   -2.6500    0.1286 H   0  0  0  0  0  0  0  0  0  0  0  0
   -1.6860   -2.0850    1.1196 C   0  0  0  0  0  0  0  0  0  0  0  0
   -0.7540   -2.7700    1.5226 O   0  0  0  0  0  0  0  0  0  0  0  0
   -1.5320   -0.8490    0.6496 N   0  0  0  0  0  0  0  0  0  0  0  0
   -2.3500   -0.3360    0.3566 H   0  0  0  0  0  0  0  0  0  0  0  0
   -0.2470   -0.1410    0.5576 C   0  0  1  0  0  0  0  0  0  0  0  0
    0.3258   -0.6023   -0.2475 H   0  0  0  0  0  0  0  0  0  0  0  0
   -0.4779    1.3458    0.1853 C   0  0  1  0  0  0  0  0  0  0  0  0
   -1.1826    1.7537    0.9124 H   0  0  0  0  0  0  0  0  0  0  0  0
    0.8147    2.1802    0.2661 C   0  0  0  0  0  0  0  0  0  0  0  0
    1.5270    1.8596   -0.4962 H   0  0  0  0  0  0  0  0  0  0  0  0
    0.5926    3.2365    0.1236 H   0  0  0  0  0  0  0  0  0  0  0  0
    1.2755    2.0665    1.2481 H   0  0  0  0  0  0  0  0  0  0  0  0
   -1.1305    1.4728   -1.2095 C   0  0  0  0  0  0  0  0  0  0  0  0
   -0.4212    1.1708   -1.9812 H   0  0  0  0  0  0  0  0  0  0  0  0
   -1.9911    0.8055   -1.2561 H   0  0  0  0  0  0  0  0  0  0  0  0
   -1.6306    2.8877   -1.5306 C   0  0  0  0  0  0  0  0  0  0  0  0
   -0.7934    3.5818   -1.6032 H   0  0  0  0  0  0  0  0  0  0  0  0
   -2.1545    2.8755   -2.4866 H   0  0  0  0  0  0  0  0  0  0  0  0
   -2.3179    3.2256   -0.7543 H   0  0  0  0  0  0  0  0  0  0  0  0
    0.5538   -0.3227    1.8570 C   0  0  0  0  0  0  0  0  0  0  0  0
    1.3365   -1.2640    1.9775 O   0  0  0  0  0  0  0  0  0  0  0  0
    0.3682    0.5821    2.8266 N   0  0  0  0  0  0  0  0  0  0  0  0
   -0.2812    1.3327    2.6517 H   0  0  0  0  0  0  0  0  0  0  0  0
    1.0479    0.5471    4.1200 C   0  0  0  0  0  0  0  0  0  0  0  0
    2.1271    0.4749    3.9674 H   0  0  0  0  0  0  0  0  0  0  0  0
    0.8259    1.4510    4.6891 H   0  0  0  0  0  0  0  0  0  0  0  0
    0.7186   -0.3273    4.6845 H   0  0  0  0  0  0  0  0  0  0  0  0
  5  6  2  0  0  0  0
  5  7  1  0  0  0  0
  2  3  1  0  0  0  0
  2  4  1  0  0  0  0
  2  5  1  0  0  0  0
  1  2  1  0  0  0  0
 24 25  2  0  0  0  0
 24 26  1  0  0  0  0
 20 21  1  0  0  0  0
 20 22  1  0  0  0  0
 20 23  1  0  0  0  0
 17 18  1  0  0  0  0
 17 19  1  0  0  0  0
 17 20  1  0  0  0  0
 13 14  1  0  0  0  0
 13 15  1  0  0  0  0
 13 16  1  0  0  0  0
 11 12  1  0  0  0  0
 11 13  1  0  0  0  0
 11 17  1  0  0  0  0
  9 10  1  0  0  0  0
  9 11  1  0  0  0  0
  9 24  1  0  0  0  0
  7  8  1  0  0  0  0
  7  9  1  0  0  0  0
 28 29  1  0  0  0  0
 28 30  1  0  0  0  0
 28 31  1  0  0  0  0
 26 27  1  0  0  0  0
 26 28  1  0  0  0  0
M  END
$$$$
default_name
  -OEChem-01062215323D

 31 30  0     1  0  0  0  0  0999 V2000
   -3.0760   -3.6390    1.5496 H   0  0  0  0  0  0  0  0  0  0  0  0
   -3.0940   -2.6290    1.1426 C   0  0  0  0  0  0  0  0  0  0  0  0
   -3.7160   -1.9930    1.7706 H   0  0  0  0  0  0  0  0  0  0  0  0
   -3.4880   -2.6500    0.1286 H   0  0  0  0  0  0  0  0  0  0  0  0
   -1.6860   -2.0850    1.1196 C   0  0  0  0  0  0  0  0  0  0  0  0
   -0.7540   -2.7700    1.5226 O   0  0  0  0  0  0  0  0  0  0  0  0
   -1.5320   -0.8490    0.6496 N   0  0  0  0  0  0  0  0  0  0  0  0
   -2.3500   -0.3360    0.3566 H   0  0  0  0  0  0  0  0  0  0  0  0
   -0.2470   -0.1410    0.5576 C   0  0  1  0  0  0  0  0  0  0  0  0
    0.3258   -0.6023   -0.2475 H   0  0  0  0  0  0  0  0  0  0  0  0
   -0.4779    1.3458    0.1853 C   0  0  1  0  0  0  0  0  0  0  0  0
   -1.1826    1.7537    0.9124 H   0  0  0  0  0  0  0  0  0  0  0  0
    0.8147    2.1802    0.2661 C   0  0  0  0  0  0  0  0  0  0  0  0
    1.5270    1.8596   -0.4962 H   0  0  0  0  0  0  0  0  0  0  0  0
    0.5926    3.2365    0.1236 H   0  0  0  0  0  0  0  0  0  0  0  0
    1.2755    2.0665    1.2481 H   0  0  0  0  0  0  0  0  0  0  0  0
   -1.1305    1.4728   -1.2095 C   0  0  0  0  0  0  0  0  0  0  0  0
   -0.4212    1.1708   -1.9812 H   0  0  0  0  0  0  0  0  0  0  0  0
   -1.9911    0.8055   -1.2561 H   0  0  0  0  0  0  0  0  0  0  0  0
   -1.6306    2.8877   -1.5306 C   0  0  0  0  0  0  0  0  0  0  0  0
   -0.7934    3.5818   -1.6032 H   0  0  0  0  0  0  0  0  0  0  0  0
   -2.1545    2.8755   -2.4866 H   0  0  0  0  0  0  0  0  0  0  0  0
   -2.3179    3.2256   -0.7543 H   0  0  0  0  0  0  0  0  0  0  0  0
    0.5538   -0.3227    1.8570 C   0  0  0  0  0  0  0  0  0  0  0  0
    1.5232   -1.0794    1.8883 O   0  0  0  0  0  0  0  0  0  0  0  0
    0.1579    0.3775    2.9276 N   0  0  0  0  0  0  0  0  0  0  0  0
   -0.6385    0.9863    2.8235 H   0  0  0  0  0  0  0  0  0  0  0  0
    0.8083    0.3122    4.2349 C   0  0  0  0  0  0  0  0  0  0  0  0
    1.8789    0.4973    4.1234 H   0  0  0  0  0  0  0  0  0  0  0  0
    0.3832    1.0589    4.9071 H   0  0  0  0  0  0  0  0  0  0  0  0
    0.6714   -0.6823    4.6639 H   0  0  0  0  0  0  0  0  0  0  0  0
  5  6  2  0  0  0  0
  5  7  1  0  0  0  0
  2  3  1  0  0  0  0
  2  4  1  0  0  0  0
  2  5  1  0  0  0  0
  1  2  1  0  0  0  0
 24 25  2  0  0  0  0
 24 26  1  0  0  0  0
 20 21  1  0  0  0  0
 20 22  1  0  0  0  0
 20 23  1  0  0  0  0
 17 18  1  0  0  0  0
 17 19  1  0  0  0  0
 17 20  1  0  0  0  0
 13 14  1  0  0  0  0
 13 15  1  0  0  0  0
 13 16  1  0  0  0  0
 11 12  1  0  0  0  0
 11 13  1  0  0  0  0
 11 17  1  0  0  0  0
  9 10  1  0  0  0  0
  9 11  1  0  0  0  0
  9 24  1  0  0  0  0
  7  8  1  0  0  0  0
  7  9  1  0  0  0  0
 28 29  1  0  0  0  0
 28 30  1  0  0  0  0
 28 31  1  0  0  0  0
 26 27  1  0  0  0  0
 26 28  1  0  0  0  0
M  END
$$$$
default_name
  -OEChem-01062215323D

 31 30  0     1  0  0  0  0  0999 V2000
   -3.0760   -3.6390    1.5496 H   0  0  0  0  0  0  0  0  0  0  0  0
   -3.0940   -2.6290    1.1426 C   0  0  0  0  0  0  0  0  0  0  0  0
   -3.7160   -1.9930    1.7706 H   0  0  0  0  0  0  0  0  0  0  0  0
   -3.4880   -2.6500    0.1286 H   0  0  0  0  0  0  0  0  0  0  0  0
   -1.6860   -2.0850    1.1196 C   0  0  0  0  0  0  0  0  0  0  0  0
   -0.7540   -2.7700    1.5226 O   0  0  0  0  0  0  0  0  0  0  0  0
   -1.5320   -0.8490    0.6496 N   0  0  0  0  0  0  0  0  0  0  0  0
   -2.3500   -0.3360    0.3566 H   0  0  0  0  0  0  0  0  0  0  0  0
   -0.2470   -0.1410    0.5576 C   0  0  1  0  0  0  0  0  0  0  0  0
    0.3258   -0.6023   -0.2475 H   0  0  0  0  0  0  0  0  0  0  0  0
   -0.4779    1.3458    0.1853 C   0  0  1  0  0  0  0  0  0  0  0  0
   -1.1826    1.7537    0.9124 H   0  0  0  0  0  0  0  0  0  0  0  0
    0.8147    2.1802    0.2661 C   0  0  0  0  0  0  0  0  0  0  0  0
    1.5270    1.8596   -0.4962 H   0  0  0  0  0  0  0  0  0  0  0  0
    0.5926    3.2365    0.1236 H   0  0  0  0  0  0  0  0  0  0  0  0
    1.2755    2.0665    1.2481 H   0  0  0  0  0  0  0  0  0  0  0  0
   -1.1305    1.4728   -1.2095 C   0  0  0  0  0  0  0  0  0  0  0  0
   -0.4212    1.1708   -1.9812 H   0  0  0  0  0  0  0  0  0  0  0  0
   -1.9911    0.8055   -1.2561 H   0  0  0  0  0  0  0  0  0  0  0  0
   -1.6306    2.8877   -1.5306 C   0  0  0  0  0  0  0  0  0  0  0  0
   -0.7934    3.5818   -1.6032 H   0  0  0  0  0  0  0  0  0  0  0  0
   -2.1545    2.8755   -2.4866 H   0  0  0  0  0  0  0  0  0  0  0  0
   -2.3179    3.2256   -0.7543 H   0  0  0  0  0  0  0  0  0  0  0  0
    0.5538   -0.3227    1.8570 C   0  0  0  0  0  0  0  0  0  0  0  0
    1.6657   -0.8482    1.8328 O   0  0  0  0  0  0  0  0  0  0  0  0
   -0.0037    0.1201    2.9912 N   0  0  0  0  0  0  0  0  0  0  0  0
   -0.9131    0.5503    2.9318 H   0  0  0  0  0  0  0  0  0  0  0  0
    0.6247    0.0172    4.3068 C   0  0  0  0  0  0  0  0  0  0  0  0
    1.6296    0.4435    4.2696 H   0  0  0  0  0  0  0  0  0  0  0  0
    0.0347    0.5538    5.0513 H   0  0  0  0  0  0  0  0  0  0  0  0
    0.7042   -1.0328    4.5947 H   0  0  0  0  0  0  0  0  0  0  0  0
  5  6  2  0  0  0  0
  5  7  1  0  0  0  0
  2  3  1  0  0  0  0
  2  4  1  0  0  0  0
  2  5  1  0  0  0  0
  1  2  1  0  0  0  0
 24 25  2  0  0  0  0
 24 26  1  0  0  0  0
 20 21  1  0  0  0  0
 20 22  1  0  0  0  0
 20 23  1  0  0  0  0
 17 18  1  0  0  0  0
 17 19  1  0  0  0  0
 17 20  1  0  0  0  0
 13 14  1  0  0  0  0
 13 15  1  0  0  0  0
 13 16  1  0  0  0  0
 11 12  1  0  0  0  0
 11 13  1  0  0  0  0
 11 17  1  0  0  0  0
  9 10  1  0  0  0  0
  9 11  1  0  0  0  0
  9 24  1  0  0  0  0
  7  8  1  0  0  0  0
  7  9  1  0  0  0  0
 28 29  1  0  0  0  0
 28 30  1  0  0  0  0
 28 31  1  0  0  0  0
 26 27  1  0  0  0  0
 26 28  1  0  0  0  0
M  END
$$$$
default_name
  -OEChem-01062215323D

 31 30  0     1  0  0  0  0  0999 V2000
   -3.0760   -3.6390    1.5496 H   0  0  0  0  0  0  0  0  0  0  0  0
   -3.0940   -2.6290    1.1426 C   0  0  0  0  0  0  0  0  0  0  0  0
   -3.7160   -1.9930    1.7706 H   0  0  0  0  0  0  0  0  0  0  0  0
   -3.4880   -2.6500    0.1286 H   0  0  0  0  0  0  0  0  0  0  0  0
   -1.6860   -2.0850    1.1196 C   0  0  0  0  0  0  0  0  0  0  0  0
   -0.7540   -2.7700    1.5226 O   0  0  0  0  0  0  0  0  0  0  0  0
   -1.5320   -0.8490    0.6496 N   0  0  0  0  0  0  0  0  0  0  0  0
   -2.3500   -0.3360    0.3566 H   0  0  0  0  0  0  0  0  0  0  0  0
   -0.2470   -0.1410    0.5576 C   0  0  1  0  0  0  0  0  0  0  0  0
    0.3258   -0.6023   -0.2475 H   0  0  0  0  0  0  0  0  0  0  0  0
   -0.4779    1.3458    0.1853 C   0  0  1  0  0  0  0  0  0  0  0  0
   -1.1826    1.7537    0.9124 H   0  0  0  0  0  0  0  0  0  0  0  0
    0.8147    2.1802    0.2661 C   0  0  0  0  0  0  0  0  0  0  0  0
    1.5270    1.8596   -0.4962 H   0  0  0  0  0  0  0  0  0  0  0  0
    0.5926    3.2365    0.1236 H   0  0  0  0  0  0  0  0  0  0  0  0
    1.2755    2.0665    1.2481 H   0  0  0  0  0  0  0  0  0  0  0  0
   -1.1305    1.4728   -1.2095 C   0  0  0  0  0  0  0  0  0  0  0  0
   -0.4212    1.1708   -1.9812 H   0  0  0  0  0  0  0  0  0  0  0  0
   -1.9911    0.8055   -1.2561 H   0  0  0  0  0  0  0  0  0  0  0  0
   -1.6306    2.8877   -1.5306 C   0  0  0  0  0  0  0  0  0  0  0  0
   -0.7934    3.5818   -1.6032 H   0  0  0  0  0  0  0  0  0  0  0  0
   -2.1545    2.8755   -2.4866 H   0  0  0  0  0  0  0  0  0  0  0  0
   -2.3179    3.2256   -0.7543 H   0  0  0  0  0  0  0  0  0  0  0  0
    0.5538   -0.3227    1.8570 C   0  0  0  0  0  0  0  0  0  0  0  0
    1.7546   -0.5863    1.8146 O   0  0  0  0  0  0  0  0  0  0  0  0
   -0.1053   -0.1723    3.0129 N   0  0  0  0  0  0  0  0  0  0  0  0
   -1.0863    0.0545    2.9692 H   0  0  0  0  0  0  0  0  0  0  0  0
    0.5096   -0.3175    4.3309 C   0  0  0  0  0  0  0  0  0  0  0  0
    1.3960    0.3174    4.3959 H   0  0  0  0  0  0  0  0  0  0  0  0
   -0.1958   -0.0297    5.1117 H   0  0  0  0  0  0  0  0  0  0  0  0
    0.8146   -1.3548    4.4816 H   0  0  0  0  0  0  0  0  0  0  0  0
  5  6  2  0  0  0  0
  5  7  1  0  0  0  0
  2  3  1  0  0  0  0
  2  4  1  0  0  0  0
  2  5  1  0  0  0  0
  1  2  1  0  0  0  0
 24 25  2  0  0  0  0
 24 26  1  0  0  0  0
 20 21  1  0  0  0  0
 20 22  1  0  0  0  0
 20 23  1  0  0  0  0
 17 18  1  0  0  0  0
 17 19  1  0  0  0  0
 17 20  1  0  0  0  0
 13 14  1  0  0  0  0
 13 15  1  0  0  0  0
 13 16  1  0  0  0  0
 11 12  1  0  0  0  0
 11 13  1  0  0  0  0
 11 17  1  0  0  0  0
  9 10  1  0  0  0  0
  9 11  1  0  0  0  0
  9 24  1  0  0  0  0
  7  8  1  0  0  0  0
  7  9  1  0  0  0  0
 28 29  1  0  0  0  0
 28 30  1  0  0  0  0
 28 31  1  0  0  0  0
 26 27  1  0  0  0  0
 26 28  1  0  0  0  0
M  END
$$$$
default_name
  -OEChem-01062215323D

 31 30  0     1  0  0  0  0  0999 V2000
   -3.0760   -3.6390    1.5496 H   0  0  0  0  0  0  0  0  0  0  0  0
   -3.0940   -2.6290    1.1426 C   0  0  0  0  0  0  0  0  0  0  0  0
   -3.7160   -1.9930    1.7706 H   0  0  0  0  0  0  0  0  0  0  0  0
   -3.4880   -2.6500    0.1286 H   0  0  0  0  0  0  0  0  0  0  0  0
   -1.6860   -2.0850    1.1196 C   0  0  0  0  0  0  0  0  0  0  0  0
   -0.7540   -2.7700    1.5226 O   0  0  0  0  0  0  0  0  0  0  0  0
   -1.5320   -0.8490    0.6496 N   0  0  0  0  0  0  0  0  0  0  0  0
   -2.3500   -0.3360    0.3566 H   0  0  0  0  0  0  0  0  0  0  0  0
   -0.2470   -0.1410    0.5576 C   0  0  1  0  0  0  0  0  0  0  0  0
    0.3258   -0.6023   -0.2475 H   0  0  0  0  0  0  0  0  0  0  0  0
   -0.4779    1.3458    0.1853 C   0  0  1  0  0  0  0  0  0  0  0  0
   -1.1826    1.7537    0.9124 H   0  0  0  0  0  0  0  0  0  0  0  0
    0.8147    2.1802    0.2661 C   0  0  0  0  0  0  0  0  0  0  0  0
    1.5270    1.8596   -0.4962 H   0  0  0  0  0  0  0  0  0  0  0  0
    0.5926    3.2365    0.1236 H   0  0  0  0  0  0  0  0  0  0  0  0
    1.2755    2.0665    1.2481 H   0  0  0  0  0  0  0  0  0  0  0  0
   -1.1305    1.4728   -1.2095 C   0  0  0  0  0  0  0  0  0  0  0  0
   -0.4212    1.1708   -1.9812 H   0  0  0  0  0  0  0  0  0  0  0  0
   -1.9911    0.8055   -1.2561 H   0  0  0  0  0  0  0  0  0  0  0  0
   -1.6306    2.8877   -1.5306 C   0  0  0  0  0  0  0  0  0  0  0  0
   -0.7934    3.5818   -1.6032 H   0  0  0  0  0  0  0  0  0  0  0  0
   -2.1545    2.8755   -2.4866 H   0  0  0  0  0  0  0  0  0  0  0  0
   -2.3179    3.2256   -0.7543 H   0  0  0  0  0  0  0  0  0  0  0  0
    0.5538   -0.3227    1.8570 C   0  0  0  0  0  0  0  0  0  0  0  0
    1.7837   -0.3113    1.8352 O   0  0  0  0  0  0  0  0  0  0  0  0
   -0.1402   -0.4800    2.9914 N   0  0  0  0  0  0  0  0  0  0  0  0
   -1.1462   -0.4673    2.9332 H   0  0  0  0  0  0  0  0  0  0  0  0
    0.4710   -0.6692    4.3055 C   0  0  0  0  0  0  0  0  0  0  0  0
    1.1942    0.1274    4.4937 H   0  0  0  0  0  0  0  0  0  0  0  0
   -0.2926   -0.6519    5.0844 H   0  0  0  0  0  0  0  0  0  0  0  0
    0.9952   -1.6264    4.3323 H   0  0  0  0  0  0  0  0  0  0  0  0
  5  6  2  0  0  0  0
  5  7  1  0  0  0  0
  2  3  1  0  0  0  0
  2  4  1  0  0  0  0
  2  5  1  0  0  0  0
  1  2  1  0  0  0  0
 24 25  2  0  0  0  0
 24 26  1  0  0  0  0
 20 21  1  0  0  0  0
 20 22  1  0  0  0  0
 20 23  1  0  0  0  0
 17 18  1  0  0  0  0
 17 19  1  0  0  0  0
 17 20  1  0  0  0  0
 13 14  1  0  0  0  0
 13 15  1  0  0  0  0
 13 16  1  0  0  0  0
 11 12  1  0  0  0  0
 11 13  1  0  0  0  0
 11 17  1  0  0  0  0
  9 10  1  0  0  0  0
  9 11  1  0  0  0  0
  9 24  1  0  0  0  0
  7  8  1  0  0  0  0
  7  9  1  0  0  0  0
 28 29  1  0  0  0  0
 28 30  1  0  0  0  0
 28 31  1  0  0  0  0
 26 27  1  0  0  0  0
 26 28  1  0  0  0  0
M  END
$$$$
default_name
  -OEChem-01062215323D

 31 30  0     1  0  0  0  0  0999 V2000
   -3.0760   -3.6390    1.5496 H   0  0  0  0  0  0  0  0  0  0  0  0
   -3.0940   -2.6290    1.1426 C   0  0  0  0  0  0  0  0  0  0  0  0
   -3.7160   -1.9930    1.7706 H   0  0  0  0  0  0  0  0  0  0  0  0
   -3.4880   -2.6500    0.1286 H   0  0  0  0  0  0  0  0  0  0  0  0
   -1.6860   -2.0850    1.1196 C   0  0  0  0  0  0  0  0  0  0  0  0
   -0.7540   -2.7700    1.5226 O   0  0  0  0  0  0  0  0  0  0  0  0
   -1.5320   -0.8490    0.6496 N   0  0  0  0  0  0  0  0  0  0  0  0
   -2.3500   -0.3360    0.3566 H   0  0  0  0  0  0  0  0  0  0  0  0
   -0.2470   -0.1410    0.5576 C   0  0  1  0  0  0  0  0  0  0  0  0
    0.3258   -0.6023   -0.2475 H   0  0  0  0  0  0  0  0  0  0  0  0
   -0.4779    1.3458    0.1853 C   0  0  1  0  0  0  0  0  0  0  0  0
   -1.1826    1.7537    0.9124 H   0  0  0  0  0  0  0  0  0  0  0  0
    0.8147    2.1802    0.2661 C   0  0  0  0  0  0  0  0  0  0  0  0
    1.5270    1.8596   -0.4962 H   0  0  0  0  0  0  0  0  0  0  0  0
    0.5926    3.2365    0.1236 H   0  0  0  0  0  0  0  0  0  0  0  0
    1.2755    2.0665    1.2481 H   0  0  0  0  0  0  0  0  0  0  0  0
   -1.1305    1.4728   -1.2095 C   0  0  0  0  0  0  0  0  0  0  0  0
   -0.4212    1.1708   -1.9812 H   0  0  0  0  0  0  0  0  0  0  0  0
   -1.9911    0.8055   -1.2561 H   0  0  0  0  0  0  0  0  0  0  0  0
   -1.6306    2.8877   -1.5306 C   0  0  0  0  0  0  0  0  0  0  0  0
   -0.7934    3.5818   -1.6032 H   0  0  0  0  0  0  0  0  0  0  0  0
   -2.1545    2.8755   -2.4866 H   0  0  0  0  0  0  0  0  0  0  0  0
   -2.3179    3.2256   -0.7543 H   0  0  0  0  0  0  0  0  0  0  0  0
    0.5538   -0.3227    1.8570 C   0  0  0  0  0  0  0  0  0  0  0  0
    1.7510   -0.0422    1.8929 O   0  0  0  0  0  0  0  0  0  0  0  0
   -0.1059   -0.7819    2.9280 N   0  0  0  0  0  0  0  0  0  0  0  0
   -1.0888   -0.9796    2.8262 H   0  0  0  0  0  0  0  0  0  0  0  0
    0.5115   -1.0140    4.2324 C   0  0  0  0  0  0  0  0  0  0  0  0
    1.0378   -0.1135    4.5565 H   0  0  0  0  0  0  0  0  0  0  0  0
   -0.2492   -1.2704    4.9712 H   0  0  0  0  0  0  0  0  0  0  0  0
    1.2337   -1.8292    4.1570 H   0  0  0  0  0  0  0  0  0  0  0  0
  5  6  2  0  0  0  0
  5  7  1  0  0  0  0
  2  3  1  0  0  0  0
  2  4  1  0  0  0  0
  2  5  1  0  0  0  0
  1  2  1  0  0  0  0
 24 25  2  0  0  0  0
 24 26  1  0  0  0  0
 20 21  1  0  0  0  0
 20 22  1  0  0  0  0
 20 23  1  0  0  0  0
 17 18  1  0  0  0  0
 17 19  1  0  0  0  0
 17 20  1  0  0  0  0
 13 14  1  0  0  0  0
 13 15  1  0  0  0  0
 13 16  1  0  0  0  0
 11 12  1  0  0  0  0
 11 13  1  0  0  0  0
 11 17  1  0  0  0  0
  9 10  1  0  0  0  0
  9 11  1  0  0  0  0
  9 24  1  0  0  0  0
  7  8  1  0  0  0  0
  7  9  1  0  0  0  0
 28 29  1  0  0  0  0
 28 30  1  0  0  0  0
 28 31  1  0  0  0  0
 26 27  1  0  0  0  0
 26 28  1  0  0  0  0
M  END
$$$$
default_name
  -OEChem-01062215323D

 31 30  0     1  0  0  0  0  0999 V2000
   -3.0760   -3.6390    1.5496 H   0  0  0  0  0  0  0  0  0  0  0  0
   -3.0940   -2.6290    1.1426 C   0  0  0  0  0  0  0  0  0  0  0  0
   -3.7160   -1.9930    1.7706 H   0  0  0  0  0  0  0  0  0  0  0  0
   -3.4880   -2.6500    0.1286 H   0  0  0  0  0  0  0  0  0  0  0  0
   -1.6860   -2.0850    1.1196 C   0  0  0  0  0  0  0  0  0  0  0  0
   -0.7540   -2.7700    1.5226 O   0  0  0  0  0  0  0  0  0  0  0  0
   -1.5320   -0.8490    0.6496 N   0  0  0  0  0  0  0  0  0  0  0  0
   -2.3500   -0.3360    0.3566 H   0  0  0  0  0  0  0  0  0  0  0  0
   -0.2470   -0.1410    0.5576 C   0  0  1  0  0  0  0  0  0  0  0  0
    0.3258   -0.6023   -0.2475 H   0  0  0  0  0  0  0  0  0  0  0  0
   -0.4779    1.3458    0.1853 C   0  0  1  0  0  0  0  0  0  0  0  0
   -1.1826    1.7537    0.9124 H   0  0  0  0  0  0  0  0  0  0  0  0
    0.8147    2.1802    0.2661 C   0  0  0  0  0  0  0  0  0  0  0  0
    1.5270    1.8596   -0.4962 H   0  0  0  0  0  0  0  0  0  0  0  0
    0.5926    3.2365    0.1236 H   0  0  0  0  0  0  0  0  0  0  0  0
    1.2755    2.0665    1.2481 H   0  0  0  0  0  0  0  0  0  0  0  0
   -1.1305    1.4728   -1.2095 C   0  0  0  0  0  0  0  0  0  0  0  0
   -0.4212    1.1708   -1.9812 H   0  0  0  0  0  0  0  0  0  0  0  0
   -1.9911    0.8055   -1.2561 H   0  0  0  0  0  0  0  0  0  0  0  0
   -1.6306    2.8877   -1.5306 C   0  0  0  0  0  0  0  0  0  0  0  0
   -0.7934    3.5818   -1.6032 H   0  0  0  0  0  0  0  0  0  0  0  0
   -2.1545    2.8755   -2.4866 H   0  0  0  0  0  0  0  0  0  0  0  0
   -2.3179    3.2256   -0.7543 H   0  0  0  0  0  0  0  0  0  0  0  0
    0.5538   -0.3227    1.8570 C   0  0  0  0  0  0  0  0  0  0  0  0
    1.6588    0.2029    1.9840 O   0  0  0  0  0  0  0  0  0  0  0  0
   -0.0048   -1.0575    2.8272 N   0  0  0  0  0  0  0  0  0  0  0  0
   -0.9180   -1.4474    2.6555 H   0  0  0  0  0  0  0  0  0  0  0  0
    0.6282   -1.3283    4.1165 C   0  0  0  0  0  0  0  0  0  0  0  0
    0.9375   -0.3888    4.5798 H   0  0  0  0  0  0  0  0  0  0  0  0
   -0.0685   -1.8431    4.7797 H   0  0  0  0  0  0  0  0  0  0  0  0
    1.5137   -1.9492    3.9677 H   0  0  0  0  0  0  0  0  0  0  0  0
  5  6  2  0  0  0  0
  5  7  1  0  0  0  0
  2  3  1  0  0  0  0
  2  4  1  0  0  0  0
  2  5  1  0  0  0  0
  1  2  1  0  0  0  0
 24 25  2  0  0  0  0
 24 26  1  0  0  0  0
 20 21  1  0  0  0  0
 20 22  1  0  0  0  0
 20 23  1  0  0  0  0
 17 18  1  0  0  0  0
 17 19  1  0  0  0  0
 17 20  1  0  0  0  0
 13 14  1  0  0  0  0
 13 15  1  0  0  0  0
 13 16  1  0  0  0  0
 11 12  1  0  0  0  0
 11 13  1  0  0  0  0
 11 17  1  0  0  0  0
  9 10  1  0  0  0  0
  9 11  1  0  0  0  0
  9 24  1  0  0  0  0
  7  8  1  0  0  0  0
  7  9  1  0  0  0  0
 28 29  1  0  0  0  0
 28 30  1  0  0  0  0
 28 31  1  0  0  0  0
 26 27  1  0  0  0  0
 26 28  1  0  0  0  0
M  END
$$$$
default_name
  -OEChem-01062215323D

 31 30  0     1  0  0  0  0  0999 V2000
   -3.0760   -3.6390    1.5496 H   0  0  0  0  0  0  0  0  0  0  0  0
   -3.0940   -2.6290    1.1426 C   0  0  0  0  0  0  0  0  0  0  0  0
   -3.7160   -1.9930    1.7706 H   0  0  0  0  0  0  0  0  0  0  0  0
   -3.4880   -2.6500    0.1286 H   0  0  0  0  0  0  0  0  0  0  0  0
   -1.6860   -2.0850    1.1196 C   0  0  0  0  0  0  0  0  0  0  0  0
   -0.7540   -2.7700    1.5226 O   0  0  0  0  0  0  0  0  0  0  0  0
   -1.5320   -0.8490    0.6496 N   0  0  0  0  0  0  0  0  0  0  0  0
   -2.3500   -0.3360    0.3566 H   0  0  0  0  0  0  0  0  0  0  0  0
   -0.2470   -0.1410    0.5576 C   0  0  1  0  0  0  0  0  0  0  0  0
    0.3258   -0.6023   -0.2475 H   0  0  0  0  0  0  0  0  0  0  0  0
   -0.4779    1.3458    0.1853 C   0  0  1  0  0  0  0  0  0  0  0  0
   -1.1826    1.7537    0.9124 H   0  0  0  0  0  0  0  0  0  0  0  0
    0.8147    2.1802    0.2661 C   0  0  0  0  0  0  0  0  0  0  0  0
    1.5270    1.8596   -0.4962 H   0  0  0  0  0  0  0  0  0  0  0  0
    0.5926    3.2365    0.1236 H   0  0  0  0  0  0  0  0  0  0  0  0
    1.2755    2.0665    1.2481 H   0  0  0  0  0  0  0  0  0  0  0  0
   -1.1305    1.4728   -1.2095 C   0  0  0  0  0  0  0  0  0  0  0  0
   -0.4212    1.1708   -1.9812 H   0  0  0  0  0  0  0  0  0  0  0  0
   -1.9911    0.8055   -1.2561 H   0  0  0  0  0  0  0  0  0  0  0  0
   -1.6306    2.8877   -1.5306 C   0  0  0  0  0  0  0  0  0  0  0  0
   -0.7934    3.5818   -1.6032 H   0  0  0  0  0  0  0  0  0  0  0  0
   -2.1545    2.8755   -2.4866 H   0  0  0  0  0  0  0  0  0  0  0  0
   -2.3179    3.2256   -0.7543 H   0  0  0  0  0  0  0  0  0  0  0  0
    0.5538   -0.3227    1.8570 C   0  0  0  0  0  0  0  0  0  0  0  0
    1.5133    0.4071    2.1023 O   0  0  0  0  0  0  0  0  0  0  0  0
    0.1563   -1.2879    2.6957 N   0  0  0  0  0  0  0  0  0  0  0  0
   -0.6455   -1.8389    2.4328 H   0  0  0  0  0  0  0  0  0  0  0  0
    0.8133   -1.5908    3.9657 C   0  0  0  0  0  0  0  0  0  0  0  0
    0.9001   -0.6798    4.5621 H   0  0  0  0  0  0  0  0  0  0  0  0
    0.2373   -2.3309    4.5231 H   0  0  0  0  0  0  0  0  0  0  0  0
    1.8163   -1.9783    3.7771 H   0  0  0  0  0  0  0  0  0  0  0  0
  5  6  2  0  0  0  0
  5  7  1  0  0  0  0
  2  3  1  0  0  0  0
  2  4  1  0  0  0  0
  2  5  1  0  0  0  0
  1  2  1  0  0  0  0
 24 25  2  0  0  0  0
 24 26  1  0  0  0  0
 20 21  1  0  0  0  0
 20 22  1  0  0  0  0
 20 23  1  0  0  0  0
 17 18  1  0  0  0  0
 17 19  1  0  0  0  0
 17 20  1  0  0  0  0
 13 14  1  0  0  0  0
 13 15  1  0  0  0  0
 13 16  1  0  0  0  0
 11 12  1  0  0  0  0
 11 13  1  0  0  0  0
 11 17  1  0  0  0  0
  9 10  1  0  0  0  0
  9 11  1  0  0  0  0
  9 24  1  0  0  0  0
  7  8  1  0  0  0  0
  7  9  1  0  0  0  0
 28 29  1  0  0  0  0
 28 30  1  0  0  0  0
 28 31  1  0  0  0  0
 26 27  1  0  0  0  0
 26 28  1  0  0  0  0
M  END
$$$$
default_name
  -OEChem-01062215323D

 31 30  0     1  0  0  0  0  0999 V2000
   -3.0760   -3.6390    1.5496 H   0  0  0  0  0  0  0  0  0  0  0  0
   -3.0940   -2.6290    1.1426 C   0  0  0  0  0  0  0  0  0  0  0  0
   -3.7160   -1.9930    1.7706 H   0  0  0  0  0  0  0  0  0  0  0  0
   -3.4880   -2.6500    0.1286 H   0  0  0  0  0  0  0  0  0  0  0  0
   -1.6860   -2.0850    1.1196 C   0  0  0  0  0  0  0  0  0  0  0  0
   -0.7540   -2.7700    1.5226 O   0  0  0  0  0  0  0  0  0  0  0  0
   -1.5320   -0.8490    0.6496 N   0  0  0  0  0  0  0  0  0  0  0  0
   -2.3500   -0.3360    0.3566 H   0  0  0  0  0  0  0  0  0  0  0  0
   -0.2470   -0.1410    0.5576 C   0  0  1  0  0  0  0  0  0  0  0  0
    0.3258   -0.6023   -0.2475 H   0  0  0  0  0  0  0  0  0  0  0  0
   -0.4779    1.3458    0.1853 C   0  0  1  0  0  0  0  0  0  0  0  0
   -1.1826    1.7537    0.9124 H   0  0  0  0  0  0  0  0  0  0  0  0
    0.8147    2.1802    0.2661 C   0  0  0  0  0  0  0  0  0  0  0  0
    1.5270    1.8596   -0.4962 H   0  0  0  0  0  0  0  0  0  0  0  0
    0.5926    3.2365    0.1236 H   0  0  0  0  0  0  0  0  0  0  0  0
    1.2755    2.0665    1.2481 H   0  0  0  0  0  0  0  0  0  0  0  0
   -1.1305    1.4728   -1.2095 C   0  0  0  0  0  0  0  0  0  0  0  0
   -0.4212    1.1708   -1.9812 H   0  0  0  0  0  0  0  0  0  0  0  0
   -1.9911    0.8055   -1.2561 H   0  0  0  0  0  0  0  0  0  0  0  0
   -1.6306    2.8877   -1.5306 C   0  0  0  0  0  0  0  0  0  0  0  0
   -0.7934    3.5818   -1.6032 H   0  0  0  0  0  0  0  0  0  0  0  0
   -2.1545    2.8755   -2.4866 H   0  0  0  0  0  0  0  0  0  0  0  0
   -2.3179    3.2256   -0.7543 H   0  0  0  0  0  0  0  0  0  0  0  0
    0.5538   -0.3227    1.8570 C   0  0  0  0  0  0  0  0  0  0  0  0
    1.3244    0.5566    2.2396 O   0  0  0  0  0  0  0  0  0  0  0  0
    0.3663   -1.4576    2.5425 N   0  0  0  0  0  0  0  0  0  0  0  0
   -0.2898   -2.1275    2.1732 H   0  0  0  0  0  0  0  0  0  0  0  0
    1.0541   -1.7834    3.7904 C   0  0  0  0  0  0  0  0  0  0  0  0
    0.9282   -0.9668    4.5046 H   0  0  0  0  0  0  0  0  0  0  0  0
    0.6472   -2.7006    4.2187 H   0  0  0  0  0  0  0  0  0  0  0  0
    2.1207   -1.9146    3.5984 H   0  0  0  0  0  0  0  0  0  0  0  0
  5  6  2  0  0  0  0
  5  7  1  0  0  0  0
  2  3  1  0  0  0  0
  2  4  1  0  0  0  0
  2  5  1  0  0  0  0
  1  2  1  0  0  0  0
 24 25  2  0  0  0  0
 24 26  1  0  0  0  0
 20 21  1  0  0  0  0
 20 22  1  0  0  0  0
 20 23  1  0  0  0  0
 17 18  1  0  0  0  0
 17 19  1  0  0  0  0
 17 20  1  0  0  0  0
 13 14  1  0  0  0  0
 13 15  1  0  0  0  0
 13 16  1  0  0  0  0
 11 12  1  0  0  0  0
 11 13  1  0  0  0  0
 11 17  1  0  0  0  0
  9 10  1  0  0  0  0
  9 11  1  0  0  0  0
  9 24  1  0  0  0  0
  7  8  1  0  0  0  0
  7  9  1  0  0  0  0
 28 29  1  0  0  0  0
 28 30  1  0  0  0  0
 28 31  1  0  0  0  0
 26 27  1  0  0  0  0
 26 28  1  0  0  0  0
M  END
$$$$
default_name
  -OEChem-01062215323D

 31 30  0     1  0  0  0  0  0999 V2000
   -3.0760   -3.6390    1.5496 H   0  0  0  0  0  0  0  0  0  0  0  0
   -3.0940   -2.6290    1.1426 C   0  0  0  0  0  0  0  0  0  0  0  0
   -3.7160   -1.9930    1.7706 H   0  0  0  0  0  0  0  0  0  0  0  0
   -3.4880   -2.6500    0.1286 H   0  0  0  0  0  0  0  0  0  0  0  0
   -1.6860   -2.0850    1.1196 C   0  0  0  0  0  0  0  0  0  0  0  0
   -0.7540   -2.7700    1.5226 O   0  0  0  0  0  0  0  0  0  0  0  0
   -1.5320   -0.8490    0.6496 N   0  0  0  0  0  0  0  0  0  0  0  0
   -2.3500   -0.3360    0.3566 H   0  0  0  0  0  0  0  0  0  0  0  0
   -0.2470   -0.1410    0.5576 C   0  0  1  0  0  0  0  0  0  0  0  0
    0.3258   -0.6023   -0.2475 H   0  0  0  0  0  0  0  0  0  0  0  0
   -0.4779    1.3458    0.1853 C   0  0  1  0  0  0  0  0  0  0  0  0
   -1.1826    1.7537    0.9124 H   0  0  0  0  0  0  0  0  0  0  0  0
    0.8147    2.1802    0.2661 C   0  0  0  0  0  0  0  0  0  0  0  0
    1.5270    1.8596   -0.4962 H   0  0  0  0  0  0  0  0  0  0  0  0
    0.5926    3.2365    0.1236 H   0  0  0  0  0  0  0  0  0  0  0  0
    1.2755    2.0665    1.2481 H   0  0  0  0  0  0  0  0  0  0  0  0
   -1.1305    1.4728   -1.2095 C   0  0  0  0  0  0  0  0  0  0  0  0
   -0.4212    1.1708   -1.9812 H   0  0  0  0  0  0  0  0  0  0  0  0
   -1.9911    0.8055   -1.2561 H   0  0  0  0  0  0  0  0  0  0  0  0
   -1.6306    2.8877   -1.5306 C   0  0  0  0  0  0  0  0  0  0  0  0
   -0.7934    3.5818   -1.6032 H   0  0  0  0  0  0  0  0  0  0  0  0
   -2.1545    2.8755   -2.4866 H   0  0  0  0  0  0  0  0  0  0  0  0
   -2.3179    3.2256   -0.7543 H   0  0  0  0  0  0  0  0  0  0  0  0
    0.5538   -0.3227    1.8570 C   0  0  0  0  0  0  0  0  0  0  0  0
    1.1051    0.6411    2.3865 O   0  0  0  0  0  0  0  0  0  0  0  0
    0.6110   -1.5548    2.3782 N   0  0  0  0  0  0  0  0  0  0  0  0
    0.1249   -2.2933    1.8945 H   0  0  0  0  0  0  0  0  0  0  0  0
    1.3342   -1.8932    3.6024 C   0  0  0  0  0  0  0  0  0  0  0  0
    1.0199   -1.2300    4.4113 H   0  0  0  0  0  0  0  0  0  0  0  0
    1.1333   -2.9269    3.8875 H   0  0  0  0  0  0  0  0  0  0  0  0
    2.4063   -1.7623    3.4437 H   0  0  0  0  0  0  0  0  0  0  0  0
  5  6  2  0  0  0  0
  5  7  1  0  0  0  0
  2  3  1  0  0  0  0
  2  4  1  0  0  0  0
  2  5  1  0  0  0  0
  1  2  1  0  0  0  0
 24 25  2  0  0  0  0
 24 26  1  0  0  0  0
 20 21  1  0  0  0  0
 20 22  1  0  0  0  0
 20 23  1  0  0  0  0
 17 18  1  0  0  0  0
 17 19  1  0  0  0  0
 17 20  1  0  0  0  0
 13 14  1  0  0  0  0
 13 15  1  0  0  0  0
 13 16  1  0  0  0  0
 11 12  1  0  0  0  0
 11 13  1  0  0  0  0
 11 17  1  0  0  0  0
  9 10  1  0  0  0  0
  9 11  1  0  0  0  0
  9 24  1  0  0  0  0
  7  8  1  0  0  0  0
  7  9  1  0  0  0  0
 28 29  1  0  0  0  0
 28 30  1  0  0  0  0
 28 31  1  0  0  0  0
 26 27  1  0  0  0  0
 26 28  1  0  0  0  0
M  END
$$$$
default_name
  -OEChem-01062215323D

 31 30  0     1  0  0  0  0  0999 V2000
   -3.0760   -3.6390    1.5496 H   0  0  0  0  0  0  0  0  0  0  0  0
   -3.0940   -2.6290    1.1426 C   0  0  0  0  0  0  0  0  0  0  0  0
   -3.7160   -1.9930    1.7706 H   0  0  0  0  0  0  0  0  0  0  0  0
   -3.4880   -2.6500    0.1286 H   0  0  0  0  0  0  0  0  0  0  0  0
   -1.6860   -2.0850    1.1196 C   0  0  0  0  0  0  0  0  0  0  0  0
   -0.7540   -2.7700    1.5226 O   0  0  0  0  0  0  0  0  0  0  0  0
   -1.5320   -0.8490    0.6496 N   0  0  0  0  0  0  0  0  0  0  0  0
   -2.3500   -0.3360    0.3566 H   0  0  0  0  0  0  0  0  0  0  0  0
   -0.2470   -0.1410    0.5576 C   0  0  1  0  0  0  0  0  0  0  0  0
    0.3258   -0.6023   -0.2475 H   0  0  0  0  0  0  0  0  0  0  0  0
   -0.4779    1.3458    0.1853 C   0  0  1  0  0  0  0  0  0  0  0  0
   -1.1826    1.7537    0.9124 H   0  0  0  0  0  0  0  0  0  0  0  0
    0.8147    2.1802    0.2661 C   0  0  0  0  0  0  0  0  0  0  0  0
    1.5270    1.8596   -0.4962 H   0  0  0  0  0  0  0  0  0  0  0  0
    0.5926    3.2365    0.1236 H   0  0  0  0  0  0  0  0  0  0  0  0
    1.2755    2.0665    1.2481 H   0  0  0  0  0  0  0  0  0  0  0  0
   -1.1305    1.4728   -1.2095 C   0  0  0  0  0  0  0  0  0  0  0  0
   -0.4212    1.1708   -1.9812 H   0  0  0  0  0  0  0  0  0  0  0  0
   -1.9911    0.8055   -1.2561 H   0  0  0  0  0  0  0  0  0  0  0  0
   -1.6306    2.8877   -1.5306 C   0  0  0  0  0  0  0  0  0  0  0  0
   -0.7934    3.5818   -1.6032 H   0  0  0  0  0  0  0  0  0  0  0  0
   -2.1545    2.8755   -2.4866 H   0  0  0  0  0  0  0  0  0  0  0  0
   -2.3179    3.2256   -0.7543 H   0  0  0  0  0  0  0  0  0  0  0  0
    0.5538   -0.3227    1.8570 C   0  0  0  0  0  0  0  0  0  0  0  0
    0.8703    0.6550    2.5332 O   0  0  0  0  0  0  0  0  0  0  0  0
    0.8736   -1.5731    2.2137 N   0  0  0  0  0  0  0  0  0  0  0  0
    0.5703   -2.3252    1.6155 H   0  0  0  0  0  0  0  0  0  0  0  0
    1.6345   -1.9126    3.4146 C   0  0  0  0  0  0  0  0  0  0  0  0
    1.1690   -1.4516    4.2885 H   0  0  0  0  0  0  0  0  0  0  0  0
    1.6625   -2.9946    3.5519 H   0  0  0  0  0  0  0  0  0  0  0  0
    2.6536   -1.5318    3.3235 H   0  0  0  0  0  0  0  0  0  0  0  0
  5  6  2  0  0  0  0
  5  7  1  0  0  0  0
  2  3  1  0  0  0  0
  2  4  1  0  0  0  0
  2  5  1  0  0  0  0
  1  2  1  0  0  0  0
 24 25  2  0  0  0  0
 24 26  1  0  0  0  0
 20 21  1  0  0  0  0
 20 22  1  0  0  0  0
 20 23  1  0  0  0  0
 17 18  1  0  0  0  0
 17 19  1  0  0  0  0
 17 20  1  0  0  0  0
 13 14  1  0  0  0  0
 13 15  1  0  0  0  0
 13 16  1  0  0  0  0
 11 12  1  0  0  0  0
 11 13  1  0  0  0  0
 11 17  1  0  0  0  0
  9 10  1  0  0  0  0
  9 11  1  0  0  0  0
  9 24  1  0  0  0  0
  7  8  1  0  0  0  0
  7  9  1  0  0  0  0
 28 29  1  0  0  0  0
 28 30  1  0  0  0  0
 28 31  1  0  0  0  0
 26 27  1  0  0  0  0
 26 28  1  0  0  0  0
M  END
$$$$
default_name
  -OEChem-01062215323D

 31 30  0     1  0  0  0  0  0999 V2000
   -3.0760   -3.6390    1.5496 H   0  0  0  0  0  0  0  0  0  0  0  0
   -3.0940   -2.6290    1.1426 C   0  0  0  0  0  0  0  0  0  0  0  0
   -3.7160   -1.9930    1.7706 H   0  0  0  0  0  0  0  0  0  0  0  0
   -3.4880   -2.6500    0.1286 H   0  0  0  0  0  0  0  0  0  0  0  0
   -1.6860   -2.0850    1.1196 C   0  0  0  0  0  0  0  0  0  0  0  0
   -0.7540   -2.7700    1.5226 O   0  0  0  0  0  0  0  0  0  0  0  0
   -1.5320   -0.8490    0.6496 N   0  0  0  0  0  0  0  0  0  0  0  0
   -2.3500   -0.3360    0.3566 H   0  0  0  0  0  0  0  0  0  0  0  0
   -0.2470   -0.1410    0.5576 C   0  0  1  0  0  0  0  0  0  0  0  0
    0.3258   -0.6023   -0.2475 H   0  0  0  0  0  0  0  0  0  0  0  0
   -0.4779    1.3458    0.1853 C   0  0  1  0  0  0  0  0  0  0  0  0
   -1.1826    1.7537    0.9124 H   0  0  0  0  0  0  0  0  0  0  0  0
    0.8147    2.1802    0.2661 C   0  0  0  0  0  0  0  0  0  0  0  0
    1.5270    1.8596   -0.4962 H   0  0  0  0  0  0  0  0  0  0  0  0
    0.5926    3.2365    0.1236 H   0  0  0  0  0  0  0  0  0  0  0  0
    1.2755    2.0665    1.2481 H   0  0  0  0  0  0  0  0  0  0  0  0
   -1.1305    1.4728   -1.2095 C   0  0  0  0  0  0  0  0  0  0  0  0
   -0.4212    1.1708   -1.9812 H   0  0  0  0  0  0  0  0  0  0  0  0
   -1.9911    0.8055   -1.2561 H   0  0  0  0  0  0  0  0  0  0  0  0
   -1.6306    2.8877   -1.5306 C   0  0  0  0  0  0  0  0  0  0  0  0
   -0.7934    3.5818   -1.6032 H   0  0  0  0  0  0  0  0  0  0  0  0
   -2.1545    2.8755   -2.4866 H   0  0  0  0  0  0  0  0  0  0  0  0
   -2.3179    3.2256   -0.7543 H   0  0  0  0  0  0  0  0  0  0  0  0
    0.5538   -0.3227    1.8570 C   0  0  0  0  0  0  0  0  0  0  0  0
    0.6359    0.5973    2.6696 O   0  0  0  0  0  0  0  0  0  0  0  0
    1.1363   -1.5111    2.0605 N   0  0  0  0  0  0  0  0  0  0  0  0
    1.0160   -2.2210    1.3554 H   0  0  0  0  0  0  0  0  0  0  0  0
    1.9346   -1.8404    3.2397 C   0  0  0  0  0  0  0  0  0  0  0  0
    1.3652   -1.6165    4.1445 H   0  0  0  0  0  0  0  0  0  0  0  0
    2.1988   -2.8989    3.2348 H   0  0  0  0  0  0  0  0  0  0  0  0
    2.8457   -1.2389    3.2461 H   0  0  0  0  0  0  0  0  0  0  0  0
  5  6  2  0  0  0  0
  5  7  1  0  0  0  0
  2  3  1  0  0  0  0
  2  4  1  0  0  0  0
  2  5  1  0  0  0  0
  1  2  1  0  0  0  0
 24 25  2  0  0  0  0
 24 26  1  0  0  0  0
 20 21  1  0  0  0  0
 20 22  1  0  0  0  0
 20 23  1  0  0  0  0
 17 18  1  0  0  0  0
 17 19  1  0  0  0  0
 17 20  1  0  0  0  0
 13 14  1  0  0  0  0
 13 15  1  0  0  0  0
 13 16  1  0  0  0  0
 11 12  1  0  0  0  0
 11 13  1  0  0  0  0
 11 17  1  0  0  0  0
  9 10  1  0  0  0  0
  9 11  1  0  0  0  0
  9 24  1  0  0  0  0
  7  8  1  0  0  0  0
  7  9  1  0  0  0  0
 28 29  1  0  0  0  0
 28 30  1  0  0  0  0
 28 31  1  0  0  0  0
 26 27  1  0  0  0  0
 26 28  1  0  0  0  0
M  END
$$$$
default_name
  -OEChem-01062215323D

 31 30  0     1  0  0  0  0  0999 V2000
   -3.0760   -3.6390    1.5496 H   0  0  0  0  0  0  0  0  0  0  0  0
   -3.0940   -2.6290    1.1426 C   0  0  0  0  0  0  0  0  0  0  0  0
   -3.7160   -1.9930    1.7706 H   0  0  0  0  0  0  0  0  0  0  0  0
   -3.4880   -2.6500    0.1286 H   0  0  0  0  0  0  0  0  0  0  0  0
   -1.6860   -2.0850    1.1196 C   0  0  0  0  0  0  0  0  0  0  0  0
   -0.7540   -2.7700    1.5226 O   0  0  0  0  0  0  0  0  0  0  0  0
   -1.5320   -0.8490    0.6496 N   0  0  0  0  0  0  0  0  0  0  0  0
   -2.3500   -0.3360    0.3566 H   0  0  0  0  0  0  0  0  0  0  0  0
   -0.2470   -0.1410    0.5576 C   0  0  1  0  0  0  0  0  0  0  0  0
    0.3258   -0.6023   -0.2475 H   0  0  0  0  0  0  0  0  0  0  0  0
   -0.4779    1.3458    0.1853 C   0  0  1  0  0  0  0  0  0  0  0  0
   -1.1826    1.7537    0.9124 H   0  0  0  0  0  0  0  0  0  0  0  0
    0.8147    2.1802    0.2661 C   0  0  0  0  0  0  0  0  0  0  0  0
    1.5270    1.8596   -0.4962 H   0  0  0  0  0  0  0  0  0  0  0  0
    0.5926    3.2365    0.1236 H   0  0  0  0  0  0  0  0  0  0  0  0
    1.2755    2.0665    1.2481 H   0  0  0  0  0  0  0  0  0  0  0  0
   -1.1305    1.4728   -1.2095 C   0  0  0  0  0  0  0  0  0  0  0  0
   -0.4212    1.1708   -1.9812 H   0  0  0  0  0  0  0  0  0  0  0  0
   -1.9911    0.8055   -1.2561 H   0  0  0  0  0  0  0  0  0  0  0  0
   -1.6306    2.8877   -1.5306 C   0  0  0  0  0  0  0  0  0  0  0  0
   -0.7934    3.5818   -1.6032 H   0  0  0  0  0  0  0  0  0  0  0  0
   -2.1545    2.8755   -2.4866 H   0  0  0  0  0  0  0  0  0  0  0  0
   -2.3179    3.2256   -0.7543 H   0  0  0  0  0  0  0  0  0  0  0  0
    0.5538   -0.3227    1.8570 C   0  0  0  0  0  0  0  0  0  0  0  0
    0.4180    0.4718    2.7863 O   0  0  0  0  0  0  0  0  0  0  0  0
    1.3812   -1.3731    1.9289 N   0  0  0  0  0  0  0  0  0  0  0  0
    1.4316   -1.9877    1.1319 H   0  0  0  0  0  0  0  0  0  0  0  0
    2.2140   -1.6813    3.0898 C   0  0  0  0  0  0  0  0  0  0  0  0
    1.5952   -1.7135    3.9892 H   0  0  0  0  0  0  0  0  0  0  0  0
    2.7055   -2.6463    2.9578 H   0  0  0  0  0  0  0  0  0  0  0  0
    2.9695   -0.9035    3.2167 H   0  0  0  0  0  0  0  0  0  0  0  0
  5  6  2  0  0  0  0
  5  7  1  0  0  0  0
  2  3  1  0  0  0  0
  2  4  1  0  0  0  0
  2  5  1  0  0  0  0
  1  2  1  0  0  0  0
 24 25  2  0  0  0  0
 24 26  1  0  0  0  0
 20 21  1  0  0  0  0
 20 22  1  0  0  0  0
 20 23  1  0  0  0  0
 17 18  1  0  0  0  0
 17 19  1  0  0  0  0
 17 20  1  0  0  0  0
 13 14  1  0  0  0  0
 13 15  1  0  0  0  0
 13 16  1  0  0  0  0
 11 12  1  0  0  0  0
 11 13  1  0  0  0  0
 11 17  1  0  0  0  0
  9 10  1  0  0  0  0
  9 11  1  0  0  0  0
  9 24  1  0  0  0  0
  7  8  1  0  0  0  0
  7  9  1  0  0  0  0
 28 29  1  0  0  0  0
 28 30  1  0  0  0  0
 28 31  1  0  0  0  0
 26 27  1  0  0  0  0
 26 28  1  0  0  0  0
M  END
$$$$
default_name
  -OEChem-01062215323D

 31 30  0     1  0  0  0  0  0999 V2000
   -3.0760   -3.6390    1.5496 H   0  0  0  0  0  0  0  0  0  0  0  0
   -3.0940   -2.6290    1.1426 C   0  0  0  0  0  0  0  0  0  0  0  0
   -3.7160   -1.9930    1.7706 H   0  0  0  0  0  0  0  0  0  0  0  0
   -3.4880   -2.6500    0.1286 H   0  0  0  0  0  0  0  0  0  0  0  0
   -1.6860   -2.0850    1.1196 C   0  0  0  0  0  0  0  0  0  0  0  0
   -0.7540   -2.7700    1.5226 O   0  0  0  0  0  0  0  0  0  0  0  0
   -1.5320   -0.8490    0.6496 N   0  0  0  0  0  0  0  0  0  0  0  0
   -2.3500   -0.3360    0.3566 H   0  0  0  0  0  0  0  0  0  0  0  0
   -0.2470   -0.1410    0.5576 C   0  0  1  0  0  0  0  0  0  0  0  0
    0.3258   -0.6023   -0.2475 H   0  0  0  0  0  0  0  0  0  0  0  0
   -0.4779    1.3458    0.1853 C   0  0  1  0  0  0  0  0  0  0  0  0
   -1.1826    1.7537    0.9124 H   0  0  0  0  0  0  0  0  0  0  0  0
    0.8147    2.1802    0.2661 C   0  0  0  0  0  0  0  0  0  0  0  0
    1.5270    1.8596   -0.4962 H   0  0  0  0  0  0  0  0  0  0  0  0
    0.5926    3.2365    0.1236 H   0  0  0  0  0  0  0  0  0  0  0  0
    1.2755    2.0665    1.2481 H   0  0  0  0  0  0  0  0  0  0  0  0
   -1.1305    1.4728   -1.2095 C   0  0  0  0  0  0  0  0  0  0  0  0
   -0.4212    1.1708   -1.9812 H   0  0  0  0  0  0  0  0  0  0  0  0
   -1.9911    0.8055   -1.2561 H   0  0  0  0  0  0  0  0  0  0  0  0
   -1.6306    2.8877   -1.5306 C   0  0  0  0  0  0  0  0  0  0  0  0
   -0.7934    3.5818   -1.6032 H   0  0  0  0  0  0  0  0  0  0  0  0
   -2.1545    2.8755   -2.4866 H   0  0  0  0  0  0  0  0  0  0  0  0
   -2.3179    3.2256   -0.7543 H   0  0  0  0  0  0  0  0  0  0  0  0
    0.5538   -0.3227    1.8570 C   0  0  0  0  0  0  0  0  0  0  0  0
    0.2314    0.2873    2.8755 O   0  0  0  0  0  0  0  0  0  0  0  0
    1.5916   -1.1684    1.8279 N   0  0  0  0  0  0  0  0  0  0  0  0
    1.7889   -1.6413    0.9601 H   0  0  0  0  0  0  0  0  0  0  0  0
    2.4537   -1.4463    2.9749 C   0  0  0  0  0  0  0  0  0  0  0  0
    1.8433   -1.7358    3.8331 H   0  0  0  0  0  0  0  0  0  0  0  0
    3.1482   -2.2542    2.7398 H   0  0  0  0  0  0  0  0  0  0  0  0
    3.0167   -0.5485    3.2373 H   0  0  0  0  0  0  0  0  0  0  0  0
  5  6  2  0  0  0  0
  5  7  1  0  0  0  0
  2  3  1  0  0  0  0
  2  4  1  0  0  0  0
  2  5  1  0  0  0  0
  1  2  1  0  0  0  0
 24 25  2  0  0  0  0
 24 26  1  0  0  0  0
 20 21  1  0  0  0  0
 20 22  1  0  0  0  0
 20 23  1  0  0  0  0
 17 18  1  0  0  0  0
 17 19  1  0  0  0  0
 17 20  1  0  0  0  0
 13 14  1  0  0  0  0
 13 15  1  0  0  0  0
 13 16  1  0  0  0  0
 11 12  1  0  0  0  0
 11 13  1  0  0  0  0
 11 17  1  0  0  0  0
  9 10  1  0  0  0  0
  9 11  1  0  0  0  0
  9 24  1  0  0  0  0
  7  8  1  0  0  0  0
  7  9  1  0  0  0  0
 28 29  1  0  0  0  0
 28 30  1  0  0  0  0
 28 31  1  0  0  0  0
 26 27  1  0  0  0  0
 26 28  1  0  0  0  0
M  END
$$$$
default_name
  -OEChem-01062215323D

 31 30  0     1  0  0  0  0  0999 V2000
   -3.0760   -3.6390    1.5496 H   0  0  0  0  0  0  0  0  0  0  0  0
   -3.0940   -2.6290    1.1426 C   0  0  0  0  0  0  0  0  0  0  0  0
   -3.7160   -1.9930    1.7706 H   0  0  0  0  0  0  0  0  0  0  0  0
   -3.4880   -2.6500    0.1286 H   0  0  0  0  0  0  0  0  0  0  0  0
   -1.6860   -2.0850    1.1196 C   0  0  0  0  0  0  0  0  0  0  0  0
   -0.7540   -2.7700    1.5226 O   0  0  0  0  0  0  0  0  0  0  0  0
   -1.5320   -0.8490    0.6496 N   0  0  0  0  0  0  0  0  0  0  0  0
   -2.3500   -0.3360    0.3566 H   0  0  0  0  0  0  0  0  0  0  0  0
   -0.2470   -0.1410    0.5576 C   0  0  1  0  0  0  0  0  0  0  0  0
    0.3258   -0.6023   -0.2475 H   0  0  0  0  0  0  0  0  0  0  0  0
   -0.4779    1.3458    0.1853 C   0  0  1  0  0  0  0  0  0  0  0  0
   -1.1826    1.7537    0.9124 H   0  0  0  0  0  0  0  0  0  0  0  0
    0.8147    2.1802    0.2661 C   0  0  0  0  0  0  0  0  0  0  0  0
    1.5270    1.8596   -0.4962 H   0  0  0  0  0  0  0  0  0  0  0  0
    0.5926    3.2365    0.1236 H   0  0  0  0  0  0  0  0  0  0  0  0
    1.2755    2.0665    1.2481 H   0  0  0  0  0  0  0  0  0  0  0  0
   -1.1305    1.4728   -1.2095 C   0  0  0  0  0  0  0  0  0  0  0  0
   -0.4212    1.1708   -1.9812 H   0  0  0  0  0  0  0  0  0  0  0  0
   -1.9911    0.8055   -1.2561 H   0  0  0  0  0  0  0  0  0  0  0  0
   -1.6306    2.8877   -1.5306 C   0  0  0  0  0  0  0  0  0  0  0  0
   -0.7934    3.5818   -1.6032 H   0  0  0  0  0  0  0  0  0  0  0  0
   -2.1545    2.8755   -2.4866 H   0  0  0  0  0  0  0  0  0  0  0  0
   -2.3179    3.2256   -0.7543 H   0  0  0  0  0  0  0  0  0  0  0  0
    0.5538   -0.3227    1.8570 C   0  0  0  0  0  0  0  0  0  0  0  0
    0.0888    0.0561    2.9311 O   0  0  0  0  0  0  0  0  0  0  0  0
    1.7531   -0.9111    1.7643 N   0  0  0  0  0  0  0  0  0  0  0  0
    2.0635   -1.2054    0.8518 H   0  0  0  0  0  0  0  0  0  0  0  0
    2.6373   -1.1514    2.9030 C   0  0  0  0  0  0  0  0  0  0  0  0
    2.0926   -1.6821    3.6870 H   0  0  0  0  0  0  0  0  0  0  0  0
    3.4967   -1.7491    2.5957 H   0  0  0  0  0  0  0  0  0  0  0  0
    2.9839   -0.1980    3.3065 H   0  0  0  0  0  0  0  0  0  0  0  0
  5  6  2  0  0  0  0
  5  7  1  0  0  0  0
  2  3  1  0  0  0  0
  2  4  1  0  0  0  0
  2  5  1  0  0  0  0
  1  2  1  0  0  0  0
 24 25  2  0  0  0  0
 24 26  1  0  0  0  0
 20 21  1  0  0  0  0
 20 22  1  0  0  0  0
 20 23  1  0  0  0  0
 17 18  1  0  0  0  0
 17 19  1  0  0  0  0
 17 20  1  0  0  0  0
 13 14  1  0  0  0  0
 13 15  1  0  0  0  0
 13 16  1  0  0  0  0
 11 12  1  0  0  0  0
 11 13  1  0  0  0  0
 11 17  1  0  0  0  0
  9 10  1  0  0  0  0
  9 11  1  0  0  0  0
  9 24  1  0  0  0  0
  7  8  1  0  0  0  0
  7  9  1  0  0  0  0
 28 29  1  0  0  0  0
 28 30  1  0  0  0  0
 28 31  1  0  0  0  0
 26 27  1  0  0  0  0
 26 28  1  0  0  0  0
M  END
$$$$
default_name
  -OEChem-01062215323D

 31 30  0     1  0  0  0  0  0999 V2000
   -3.0760   -3.6390    1.5496 H   0  0  0  0  0  0  0  0  0  0  0  0
   -3.0940   -2.6290    1.1426 C   0  0  0  0  0  0  0  0  0  0  0  0
   -3.7160   -1.9930    1.7706 H   0  0  0  0  0  0  0  0  0  0  0  0
   -3.4880   -2.6500    0.1286 H   0  0  0  0  0  0  0  0  0  0  0  0
   -1.6860   -2.0850    1.1196 C   0  0  0  0  0  0  0  0  0  0  0  0
   -0.7540   -2.7700    1.5226 O   0  0  0  0  0  0  0  0  0  0  0  0
   -1.5320   -0.8490    0.6496 N   0  0  0  0  0  0  0  0  0  0  0  0
   -2.3500   -0.3360    0.3566 H   0  0  0  0  0  0  0  0  0  0  0  0
   -0.2470   -0.1410    0.5576 C   0  0  1  0  0  0  0  0  0  0  0  0
    0.3258   -0.6023   -0.2475 H   0  0  0  0  0  0  0  0  0  0  0  0
   -0.4779    1.3458    0.1853 C   0  0  1  0  0  0  0  0  0  0  0  0
   -1.1826    1.7537    0.9124 H   0  0  0  0  0  0  0  0  0  0  0  0
    0.8147    2.1802    0.2661 C   0  0  0  0  0  0  0  0  0  0  0  0
    1.5270    1.8596   -0.4962 H   0  0  0  0  0  0  0  0  0  0  0  0
    0.5926    3.2365    0.1236 H   0  0  0  0  0  0  0  0  0  0  0  0
    1.2755    2.0665    1.2481 H   0  0  0  0  0  0  0  0  0  0  0  0
   -1.1305    1.4728   -1.2095 C   0  0  0  0  0  0  0  0  0  0  0  0
   -0.4212    1.1708   -1.9812 H   0  0  0  0  0  0  0  0  0  0  0  0
   -1.9911    0.8055   -1.2561 H   0  0  0  0  0  0  0  0  0  0  0  0
   -1.6306    2.8877   -1.5306 C   0  0  0  0  0  0  0  0  0  0  0  0
   -0.7934    3.5818   -1.6032 H   0  0  0  0  0  0  0  0  0  0  0  0
   -2.1545    2.8755   -2.4866 H   0  0  0  0  0  0  0  0  0  0  0  0
   -2.3179    3.2256   -0.7543 H   0  0  0  0  0  0  0  0  0  0  0  0
    0.5538   -0.3227    1.8570 C   0  0  0  0  0  0  0  0  0  0  0  0
   -0.0001   -0.2059    2.9492 O   0  0  0  0  0  0  0  0  0  0  0  0
    1.8547   -0.6186    1.7426 N   0  0  0  0  0  0  0  0  0  0  0  0
    2.2367   -0.7096    0.8144 H   0  0  0  0  0  0  0  0  0  0  0  0
    2.7524   -0.8167    2.8789 C   0  0  0  0  0  0  0  0  0  0  0  0
    2.3262   -1.5560    3.5607 H   0  0  0  0  0  0  0  0  0  0  0  0
    3.7272   -1.1656    2.5352 H   0  0  0  0  0  0  0  0  0  0  0  0
    2.8734    0.1240    3.4196 H   0  0  0  0  0  0  0  0  0  0  0  0
  5  6  2  0  0  0  0
  5  7  1  0  0  0  0
  2  3  1  0  0  0  0
  2  4  1  0  0  0  0
  2  5  1  0  0  0  0
  1  2  1  0  0  0  0
 24 25  2  0  0  0  0
 24 26  1  0  0  0  0
 20 21  1  0  0  0  0
 20 22  1  0  0  0  0
 20 23  1  0  0  0  0
 17 18  1  0  0  0  0
 17 19  1  0  0  0  0
 17 20  1  0  0  0  0
 13 14  1  0  0  0  0
 13 15  1  0  0  0  0
 13 16  1  0  0  0  0
 11 12  1  0  0  0  0
 11 13  1  0  0  0  0
 11 17  1  0  0  0  0
  9 10  1  0  0  0  0
  9 11  1  0  0  0  0
  9 24  1  0  0  0  0
  7  8  1  0  0  0  0
  7  9  1  0  0  0  0
 28 29  1  0  0  0  0
 28 30  1  0  0  0  0
 28 31  1  0  0  0  0
 26 27  1  0  0  0  0
 26 28  1  0  0  0  0
M  END
$$$$
default_name
  -OEChem-01062215323D

 31 30  0     1  0  0  0  0  0999 V2000
   -3.0760   -3.6390    1.5496 H   0  0  0  0  0  0  0  0  0  0  0  0
   -3.0940   -2.6290    1.1426 C   0  0  0  0  0  0  0  0  0  0  0  0
   -3.7160   -1.9930    1.7706 H   0  0  0  0  0  0  0  0  0  0  0  0
   -3.4880   -2.6500    0.1286 H   0  0  0  0  0  0  0  0  0  0  0  0
   -1.6860   -2.0850    1.1196 C   0  0  0  0  0  0  0  0  0  0  0  0
   -0.7540   -2.7700    1.5226 O   0  0  0  0  0  0  0  0  0  0  0  0
   -1.5320   -0.8490    0.6496 N   0  0  0  0  0  0  0  0  0  0  0  0
   -2.3500   -0.3360    0.3566 H   0  0  0  0  0  0  0  0  0  0  0  0
   -0.2470   -0.1410    0.5576 C   0  0  1  0  0  0  0  0  0  0  0  0
    0.3258   -0.6023   -0.2475 H   0  0  0  0  0  0  0  0  0  0  0  0
   -0.4779    1.3458    0.1853 C   0  0  1  0  0  0  0  0  0  0  0  0
   -1.1826    1.7537    0.9124 H   0  0  0  0  0  0  0  0  0  0  0  0
    0.8147    2.1802    0.2661 C   0  0  0  0  0  0  0  0  0  0  0  0
    1.5270    1.8596   -0.4962 H   0  0  0  0  0  0  0  0  0  0  0  0
    0.5926    3.2365    0.1236 H   0  0  0  0  0  0  0  0  0  0  0  0
    1.2755    2.0665    1.2481 H   0  0  0  0  0  0  0  0  0  0  0  0
   -1.1305    1.4728   -1.2095 C   0  0  0  0  0  0  0  0  0  0  0  0
   -0.4212    1.1708   -1.9812 H   0  0  0  0  0  0  0  0  0  0  0  0
   -1.9911    0.8055   -1.2561 H   0  0  0  0  0  0  0  0  0  0  0  0
   -1.6306    2.8877   -1.5306 C   0  0  0  0  0  0  0  0  0  0  0  0
   -0.7934    3.5818   -1.6032 H   0  0  0  0  0  0  0  0  0  0  0  0
   -2.1545    2.8755   -2.4866 H   0  0  0  0  0  0  0  0  0  0  0  0
   -2.3179    3.2256   -0.7543 H   0  0  0  0  0  0  0  0  0  0  0  0
    0.5538   -0.3227    1.8570 C   0  0  0  0  0  0  0  0  0  0  0  0
   -0.0291   -0.4808    2.9287 O   0  0  0  0  0  0  0  0  0  0  0  0
    1.8896   -0.3110    1.7641 N   0  0  0  0  0  0  0  0  0  0  0  0
    2.2966   -0.1878    0.8504 H   0  0  0  0  0  0  0  0  0  0  0  0
    2.7910   -0.4649    2.9043 C   0  0  0  0  0  0  0  0  0  0  0  0
    2.5281   -1.3660    3.4629 H   0  0  0  0  0  0  0  0  0  0  0  0
    3.8240   -0.5434    2.5625 H   0  0  0  0  0  0  0  0  0  0  0  0
    2.6928    0.3956    3.5689 H   0  0  0  0  0  0  0  0  0  0  0  0
  5  6  2  0  0  0  0
  5  7  1  0  0  0  0
  2  3  1  0  0  0  0
  2  4  1  0  0  0  0
  2  5  1  0  0  0  0
  1  2  1  0  0  0  0
 24 25  2  0  0  0  0
 24 26  1  0  0  0  0
 20 21  1  0  0  0  0
 20 22  1  0  0  0  0
 20 23  1  0  0  0  0
 17 18  1  0  0  0  0
 17 19  1  0  0  0  0
 17 20  1  0  0  0  0
 13 14  1  0  0  0  0
 13 15  1  0  0  0  0
 13 16  1  0  0  0  0
 11 12  1  0  0  0  0
 11 13  1  0  0  0  0
 11 17  1  0  0  0  0
  9 10  1  0  0  0  0
  9 11  1  0  0  0  0
  9 24  1  0  0  0  0
  7  8  1  0  0  0  0
  7  9  1  0  0  0  0
 28 29  1  0  0  0  0
 28 30  1  0  0  0  0
 28 31  1  0  0  0  0
 26 27  1  0  0  0  0
 26 28  1  0  0  0  0
M  END
$$$$
default_name
  -OEChem-01062215323D

 31 30  0     1  0  0  0  0  0999 V2000
   -3.0760   -3.6390    1.5496 H   0  0  0  0  0  0  0  0  0  0  0  0
   -3.0940   -2.6290    1.1426 C   0  0  0  0  0  0  0  0  0  0  0  0
   -3.7160   -1.9930    1.7706 H   0  0  0  0  0  0  0  0  0  0  0  0
   -3.4880   -2.6500    0.1286 H   0  0  0  0  0  0  0  0  0  0  0  0
   -1.6860   -2.0850    1.1196 C   0  0  0  0  0  0  0  0  0  0  0  0
   -0.7540   -2.7700    1.5226 O   0  0  0  0  0  0  0  0  0  0  0  0
   -1.5320   -0.8490    0.6496 N   0  0  0  0  0  0  0  0  0  0  0  0
   -2.3500   -0.3360    0.3566 H   0  0  0  0  0  0  0  0  0  0  0  0
   -0.2470   -0.1410    0.5576 C   0  0  1  0  0  0  0  0  0  0  0  0
    0.3258   -0.6023   -0.2475 H   0  0  0  0  0  0  0  0  0  0  0  0
   -0.4779    1.3458    0.1853 C   0  0  1  0  0  0  0  0  0  0  0  0
   -1.1826    1.7537    0.9124 H   0  0  0  0  0  0  0  0  0  0  0  0
    0.8147    2.1802    0.2661 C   0  0  0  0  0  0  0  0  0  0  0  0
    1.5270    1.8596   -0.4962 H   0  0  0  0  0  0  0  0  0  0  0  0
    0.5926    3.2365    0.1236 H   0  0  0  0  0  0  0  0  0  0  0  0
    1.2755    2.0665    1.2481 H   0  0  0  0  0  0  0  0  0  0  0  0
   -1.1305    1.4728   -1.2095 C   0  0  0  0  0  0  0  0  0  0  0  0
   -0.4212    1.1708   -1.9812 H   0  0  0  0  0  0  0  0  0  0  0  0
   -1.9911    0.8055   -1.2561 H   0  0  0  0  0  0  0  0  0  0  0  0
   -1.6306    2.8877   -1.5306 C   0  0  0  0  0  0  0  0  0  0  0  0
   -0.7934    3.5818   -1.6032 H   0  0  0  0  0  0  0  0  0  0  0  0
   -2.1545    2.8755   -2.4866 H   0  0  0  0  0  0  0  0  0  0  0  0
   -2.3179    3.2256   -0.7543 H   0  0  0  0  0  0  0  0  0  0  0  0
    0.5538   -0.3227    1.8570 C   0  0  0  0  0  0  0  0  0  0  0  0
    0.0036   -0.7499    2.8709 O   0  0  0  0  0  0  0  0  0  0  0  0
    1.8553   -0.0091    1.8274 N   0  0  0  0  0  0  0  0  0  0  0  0
    2.2393    0.3245    0.9574 H   0  0  0  0  0  0  0  0  0  0  0  0
    2.7505   -0.1201    2.9774 C   0  0  0  0  0  0  0  0  0  0  0  0
    2.6845   -1.1251    3.4001 H   0  0  0  0  0  0  0  0  0  0  0  0
    3.7806    0.0752    2.6758 H   0  0  0  0  0  0  0  0  0  0  0  0
    2.4544    0.5984    3.7442 H   0  0  0  0  0  0  0  0  0  0  0  0
  5  6  2  0  0  0  0
  5  7  1  0  0  0  0
  2  3  1  0  0  0  0
  2  4  1  0  0  0  0
  2  5  1  0  0  0  0
  1  2  1  0  0  0  0
 24 25  2  0  0  0  0
 24 26  1  0  0  0  0
 20 21  1  0  0  0  0
 20 22  1  0  0  0  0
 20 23  1  0  0  0  0
 17 18  1  0  0  0  0
 17 19  1  0  0  0  0
 17 20  1  0  0  0  0
 13 14  1  0  0  0  0
 13 15  1  0  0  0  0
 13 16  1  0  0  0  0
 11 12  1  0  0  0  0
 11 13  1  0  0  0  0
 11 17  1  0  0  0  0
  9 10  1  0  0  0  0
  9 11  1  0  0  0  0
  9 24  1  0  0  0  0
  7  8  1  0  0  0  0
  7  9  1  0  0  0  0
 28 29  1  0  0  0  0
 28 30  1  0  0  0  0
 28 31  1  0  0  0  0
 26 27  1  0  0  0  0
 26 28  1  0  0  0  0
M  END
$$$$
default_name
  -OEChem-01062215323D

 31 30  0     1  0  0  0  0  0999 V2000
   -3.0760   -3.6390    1.5496 H   0  0  0  0  0  0  0  0  0  0  0  0
   -3.0940   -2.6290    1.1426 C   0  0  0  0  0  0  0  0  0  0  0  0
   -3.7160   -1.9930    1.7706 H   0  0  0  0  0  0  0  0  0  0  0  0
   -3.4880   -2.6500    0.1286 H   0  0  0  0  0  0  0  0  0  0  0  0
   -1.6860   -2.0850    1.1196 C   0  0  0  0  0  0  0  0  0  0  0  0
   -0.7540   -2.7700    1.5226 O   0  0  0  0  0  0  0  0  0  0  0  0
   -1.5320   -0.8490    0.6496 N   0  0  0  0  0  0  0  0  0  0  0  0
   -2.3500   -0.3360    0.3566 H   0  0  0  0  0  0  0  0  0  0  0  0
   -0.2470   -0.1410    0.5576 C   0  0  1  0  0  0  0  0  0  0  0  0
    0.2082   -0.4083   -0.3966 H   0  0  0  0  0  0  0  0  0  0  0  0
   -0.4763    1.3919    0.5620 C   0  0  1  0  0  0  0  0  0  0  0  0
   -1.0737    1.6253    1.4455 H   0  0  0  0  0  0  0  0  0  0  0  0
    0.8413    2.1837    0.6645 C   0  0  0  0  0  0  0  0  0  0  0  0
    1.4445    2.0434   -0.2343 H   0  0  0  0  0  0  0  0  0  0  0  0
    0.6357    3.2453    0.7927 H   0  0  0  0  0  0  0  0  0  0  0  0
    1.4155    1.8490    1.5292 H   0  0  0  0  0  0  0  0  0  0  0  0
   -1.2911    1.8338   -0.6743 C   0  0  0  0  0  0  0  0  0  0  0  0
   -0.6914    1.7138   -1.5776 H   0  0  0  0  0  0  0  0  0  0  0  0
   -2.1709    1.1962   -0.7607 H   0  0  0  0  0  0  0  0  0  0  0  0
   -1.7834    3.2856   -0.6026 C   0  0  0  0  0  0  0  0  0  0  0  0
   -0.9406    3.9764   -0.6223 H   0  0  0  0  0  0  0  0  0  0  0  0
   -2.4209    3.4920   -1.4626 H   0  0  0  0  0  0  0  0  0  0  0  0
   -2.3595    3.4395    0.3105 H   0  0  0  0  0  0  0  0  0  0  0  0
    0.7013   -0.6147    1.6707 C   0  0  0  0  0  0  0  0  0  0  0  0
    0.3398   -1.4783    2.4687 O   0  0  0  0  0  0  0  0  0  0  0  0
    1.9188   -0.0594    1.7204 N   0  0  0  0  0  0  0  0  0  0  0  0
    2.1484    0.6340    1.0260 H   0  0  0  0  0  0  0  0  0  0  0  0
    2.9322   -0.3962    2.7183 C   0  0  0  0  0  0  0  0  0  0  0  0
    3.0849   -1.4776    2.7379 H   0  0  0  0  0  0  0  0  0  0  0  0
    3.8766    0.0952    2.4798 H   0  0  0  0  0  0  0  0  0  0  0  0
    2.5957   -0.0759    3.7061 H   0  0  0  0  0  0  0  0  0  0  0  0
  5  6  2  0  0  0  0
  5  7  1  0  0  0  0
  2  3  1  0  0  0  0
  2  4  1  0  0  0  0
  2  5  1  0  0  0  0
  1  2  1  0  0  0  0
 24 25  2  0  0  0  0
 24 26  1  0  0  0  0
 20 21  1  0  0  0  0
 20 22  1  0  0  0  0
 20 23  1  0  0  0  0
 17 18  1  0  0  0  0
 17 19  1  0  0  0  0
 17 20  1  0  0  0  0
 13 14  1  0  0  0  0
 13 15  1  0  0  0  0
 13 16  1  0  0  0  0
 11 12  1  0  0  0  0
 11 13  1  0  0  0  0
 11 17  1  0  0  0  0
  9 10  1  0  0  0  0
  9 11  1  0  0  0  0
  9 24  1  0  0  0  0
  7  8  1  0  0  0  0
  7  9  1  0  0  0  0
 28 29  1  0  0  0  0
 28 30  1  0  0  0  0
 28 31  1  0  0  0  0
 26 27  1  0  0  0  0
 26 28  1  0  0  0  0
M  END
$$$$
default_name
  -OEChem-01062215323D

 31 30  0     1  0  0  0  0  0999 V2000
   -3.0760   -3.6390    1.5496 H   0  0  0  0  0  0  0  0  0  0  0  0
   -3.0940   -2.6290    1.1426 C   0  0  0  0  0  0  0  0  0  0  0  0
   -3.7160   -1.9930    1.7706 H   0  0  0  0  0  0  0  0  0  0  0  0
   -3.4880   -2.6500    0.1286 H   0  0  0  0  0  0  0  0  0  0  0  0
   -1.6860   -2.0850    1.1196 C   0  0  0  0  0  0  0  0  0  0  0  0
   -0.7540   -2.7700    1.5226 O   0  0  0  0  0  0  0  0  0  0  0  0
   -1.5320   -0.8490    0.6496 N   0  0  0  0  0  0  0  0  0  0  0  0
   -2.3500   -0.3360    0.3566 H   0  0  0  0  0  0  0  0  0  0  0  0
   -0.2470   -0.1410    0.5576 C   0  0  1  0  0  0  0  0  0  0  0  0
    0.2082   -0.4083   -0.3966 H   0  0  0  0  0  0  0  0  0  0  0  0
   -0.4763    1.3919    0.5620 C   0  0  1  0  0  0  0  0  0  0  0  0
   -1.0737    1.6253    1.4455 H   0  0  0  0  0  0  0  0  0  0  0  0
    0.8413    2.1837    0.6645 C   0  0  0  0  0  0  0  0  0  0  0  0
    1.4445    2.0434   -0.2343 H   0  0  0  0  0  0  0  0  0  0  0  0
    0.6357    3.2453    0.7927 H   0  0  0  0  0  0  0  0  0  0  0  0
    1.4155    1.8490    1.5292 H   0  0  0  0  0  0  0  0  0  0  0  0
   -1.2911    1.8338   -0.6743 C   0  0  0  0  0  0  0  0  0  0  0  0
   -0.6914    1.7138   -1.5776 H   0  0  0  0  0  0  0  0  0  0  0  0
   -2.1709    1.1962   -0.7607 H   0  0  0  0  0  0  0  0  0  0  0  0
   -1.7834    3.2856   -0.6026 C   0  0  0  0  0  0  0  0  0  0  0  0
   -0.9406    3.9764   -0.6223 H   0  0  0  0  0  0  0  0  0  0  0  0
   -2.4209    3.4920   -1.4626 H   0  0  0  0  0  0  0  0  0  0  0  0
   -2.3595    3.4395    0.3105 H   0  0  0  0  0  0  0  0  0  0  0  0
    0.7013   -0.6147    1.6707 C   0  0  0  0  0  0  0  0  0  0  0  0
    0.4634   -1.6506    2.2900 O   0  0  0  0  0  0  0  0  0  0  0  0
    1.7822    0.1355    1.9197 N   0  0  0  0  0  0  0  0  0  0  0  0
    1.9174    0.9652    1.3638 H   0  0  0  0  0  0  0  0  0  0  0  0
    2.7752   -0.1746    2.9464 C   0  0  0  0  0  0  0  0  0  0  0  0
    3.1330   -1.1982    2.8158 H   0  0  0  0  0  0  0  0  0  0  0  0
    3.6198    0.5124    2.8762 H   0  0  0  0  0  0  0  0  0  0  0  0
    2.3198   -0.0902    3.9350 H   0  0  0  0  0  0  0  0  0  0  0  0
  5  6  2  0  0  0  0
  5  7  1  0  0  0  0
  2  3  1  0  0  0  0
  2  4  1  0  0  0  0
  2  5  1  0  0  0  0
  1  2  1  0  0  0  0
 24 25  2  0  0  0  0
 24 26  1  0  0  0  0
 20 21  1  0  0  0  0
 20 22  1  0  0  0  0
 20 23  1  0  0  0  0
 17 18  1  0  0  0  0
 17 19  1  0  0  0  0
 17 20  1  0  0  0  0
 13 14  1  0  0  0  0
 13 15  1  0  0  0  0
 13 16  1  0  0  0  0
 11 12  1  0  0  0  0
 11 13  1  0  0  0  0
 11 17  1  0  0  0  0
  9 10  1  0  0  0  0
  9 11  1  0  0  0  0
  9 24  1  0  0  0  0
  7  8  1  0  0  0  0
  7  9  1  0  0  0  0
 28 29  1  0  0  0  0
 28 30  1  0  0  0  0
 28 31  1  0  0  0  0
 26 27  1  0  0  0  0
 26 28  1  0  0  0  0
M  END
$$$$
default_name
  -OEChem-01062215323D

 31 30  0     1  0  0  0  0  0999 V2000
   -3.0760   -3.6390    1.5496 H   0  0  0  0  0  0  0  0  0  0  0  0
   -3.0940   -2.6290    1.1426 C   0  0  0  0  0  0  0  0  0  0  0  0
   -3.7160   -1.9930    1.7706 H   0  0  0  0  0  0  0  0  0  0  0  0
   -3.4880   -2.6500    0.1286 H   0  0  0  0  0  0  0  0  0  0  0  0
   -1.6860   -2.0850    1.1196 C   0  0  0  0  0  0  0  0  0  0  0  0
   -0.7540   -2.7700    1.5226 O   0  0  0  0  0  0  0  0  0  0  0  0
   -1.5320   -0.8490    0.6496 N   0  0  0  0  0  0  0  0  0  0  0  0
   -2.3500   -0.3360    0.3566 H   0  0  0  0  0  0  0  0  0  0  0  0
   -0.2470   -0.1410    0.5576 C   0  0  1  0  0  0  0  0  0  0  0  0
    0.2082   -0.4083   -0.3966 H   0  0  0  0  0  0  0  0  0  0  0  0
   -0.4763    1.3919    0.5620 C   0  0  1  0  0  0  0  0  0  0  0  0
   -1.0737    1.6253    1.4455 H   0  0  0  0  0  0  0  0  0  0  0  0
    0.8413    2.1837    0.6645 C   0  0  0  0  0  0  0  0  0  0  0  0
    1.4445    2.0434   -0.2343 H   0  0  0  0  0  0  0  0  0  0  0  0
    0.6357    3.2453    0.7927 H   0  0  0  0  0  0  0  0  0  0  0  0
    1.4155    1.8490    1.5292 H   0  0  0  0  0  0  0  0  0  0  0  0
   -1.2911    1.8338   -0.6743 C   0  0  0  0  0  0  0  0  0  0  0  0
   -0.6914    1.7138   -1.5776 H   0  0  0  0  0  0  0  0  0  0  0  0
   -2.1709    1.1962   -0.7607 H   0  0  0  0  0  0  0  0  0  0  0  0
   -1.7834    3.2856   -0.6026 C   0  0  0  0  0  0  0  0  0  0  0  0
   -0.9406    3.9764   -0.6223 H   0  0  0  0  0  0  0  0  0  0  0  0
   -2.4209    3.4920   -1.4626 H   0  0  0  0  0  0  0  0  0  0  0  0
   -2.3595    3.4395    0.3105 H   0  0  0  0  0  0  0  0  0  0  0  0
    0.7013   -0.6147    1.6707 C   0  0  0  0  0  0  0  0  0  0  0  0
    0.6293   -1.7653    2.0999 O   0  0  0  0  0  0  0  0  0  0  0  0
    1.5979    0.2663    2.1324 N   0  0  0  0  0  0  0  0  0  0  0  0
    1.6052    1.1878    1.7245 H   0  0  0  0  0  0  0  0  0  0  0  0
    2.5637   -0.0263    3.1897 C   0  0  0  0  0  0  0  0  0  0  0  0
    3.1210   -0.9318    2.9395 H   0  0  0  0  0  0  0  0  0  0  0  0
    3.2618    0.8040    3.3053 H   0  0  0  0  0  0  0  0  0  0  0  0
    2.0378   -0.1924    4.1318 H   0  0  0  0  0  0  0  0  0  0  0  0
  5  6  2  0  0  0  0
  5  7  1  0  0  0  0
  2  3  1  0  0  0  0
  2  4  1  0  0  0  0
  2  5  1  0  0  0  0
  1  2  1  0  0  0  0
 24 25  2  0  0  0  0
 24 26  1  0  0  0  0
 20 21  1  0  0  0  0
 20 22  1  0  0  0  0
 20 23  1  0  0  0  0
 17 18  1  0  0  0  0
 17 19  1  0  0  0  0
 17 20  1  0  0  0  0
 13 14  1  0  0  0  0
 13 15  1  0  0  0  0
 13 16  1  0  0  0  0
 11 12  1  0  0  0  0
 11 13  1  0  0  0  0
 11 17  1  0  0  0  0
  9 10  1  0  0  0  0
  9 11  1  0  0  0  0
  9 24  1  0  0  0  0
  7  8  1  0  0  0  0
  7  9  1  0  0  0  0
 28 29  1  0  0  0  0
 28 30  1  0  0  0  0
 28 31  1  0  0  0  0
 26 27  1  0  0  0  0
 26 28  1  0  0  0  0
M  END
$$$$
default_name
  -OEChem-01062215323D

 31 30  0     1  0  0  0  0  0999 V2000
   -3.0760   -3.6390    1.5496 H   0  0  0  0  0  0  0  0  0  0  0  0
   -3.0940   -2.6290    1.1426 C   0  0  0  0  0  0  0  0  0  0  0  0
   -3.7160   -1.9930    1.7706 H   0  0  0  0  0  0  0  0  0  0  0  0
   -3.4880   -2.6500    0.1286 H   0  0  0  0  0  0  0  0  0  0  0  0
   -1.6860   -2.0850    1.1196 C   0  0  0  0  0  0  0  0  0  0  0  0
   -0.7540   -2.7700    1.5226 O   0  0  0  0  0  0  0  0  0  0  0  0
   -1.5320   -0.8490    0.6496 N   0  0  0  0  0  0  0  0  0  0  0  0
   -2.3500   -0.3360    0.3566 H   0  0  0  0  0  0  0  0  0  0  0  0
   -0.2470   -0.1410    0.5576 C   0  0  1  0  0  0  0  0  0  0  0  0
    0.2082   -0.4083   -0.3966 H   0  0  0  0  0  0  0  0  0  0  0  0
   -0.4763    1.3919    0.5620 C   0  0  1  0  0  0  0  0  0  0  0  0
   -1.0737    1.6253    1.4455 H   0  0  0  0  0  0  0  0  0  0  0  0
    0.8413    2.1837    0.6645 C   0  0  0  0  0  0  0  0  0  0  0  0
    1.4445    2.0434   -0.2343 H   0  0  0  0  0  0  0  0  0  0  0  0
    0.6357    3.2453    0.7927 H   0  0  0  0  0  0  0  0  0  0  0  0
    1.4155    1.8490    1.5292 H   0  0  0  0  0  0  0  0  0  0  0  0
   -1.2911    1.8338   -0.6743 C   0  0  0  0  0  0  0  0  0  0  0  0
   -0.6914    1.7138   -1.5776 H   0  0  0  0  0  0  0  0  0  0  0  0
   -2.1709    1.1962   -0.7607 H   0  0  0  0  0  0  0  0  0  0  0  0
   -1.7834    3.2856   -0.6026 C   0  0  0  0  0  0  0  0  0  0  0  0
   -0.9406    3.9764   -0.6223 H   0  0  0  0  0  0  0  0  0  0  0  0
   -2.4209    3.4920   -1.4626 H   0  0  0  0  0  0  0  0  0  0  0  0
   -2.3595    3.4395    0.3105 H   0  0  0  0  0  0  0  0  0  0  0  0
    0.7013   -0.6147    1.6707 C   0  0  0  0  0  0  0  0  0  0  0  0
    0.8262   -1.8147    1.9111 O   0  0  0  0  0  0  0  0  0  0  0  0
    1.3784    0.3241    2.3441 N   0  0  0  0  0  0  0  0  0  0  0  0
    1.2332    1.2867    2.0837 H   0  0  0  0  0  0  0  0  0  0  0  0
    2.3123    0.0384    3.4315 C   0  0  0  0  0  0  0  0  0  0  0  0
    3.0495   -0.6965    3.1006 H   0  0  0  0  0  0  0  0  0  0  0  0
    2.8272    0.9501    3.7378 H   0  0  0  0  0  0  0  0  0  0  0  0
    1.7689   -0.3753    4.2831 H   0  0  0  0  0  0  0  0  0  0  0  0
  5  6  2  0  0  0  0
  5  7  1  0  0  0  0
  2  3  1  0  0  0  0
  2  4  1  0  0  0  0
  2  5  1  0  0  0  0
  1  2  1  0  0  0  0
 24 25  2  0  0  0  0
 24 26  1  0  0  0  0
 20 21  1  0  0  0  0
 20 22  1  0  0  0  0
 20 23  1  0  0  0  0
 17 18  1  0  0  0  0
 17 19  1  0  0  0  0
 17 20  1  0  0  0  0
 13 14  1  0  0  0  0
 13 15  1  0  0  0  0
 13 16  1  0  0  0  0
 11 12  1  0  0  0  0
 11 13  1  0  0  0  0
 11 17  1  0  0  0  0
  9 10  1  0  0  0  0
  9 11  1  0  0  0  0
  9 24  1  0  0  0  0
  7  8  1  0  0  0  0
  7  9  1  0  0  0  0
 28 29  1  0  0  0  0
 28 30  1  0  0  0  0
 28 31  1  0  0  0  0
 26 27  1  0  0  0  0
 26 28  1  0  0  0  0
M  END
$$$$
default_name
  -OEChem-01062215323D

 31 30  0     1  0  0  0  0  0999 V2000
   -3.0760   -3.6390    1.5496 H   0  0  0  0  0  0  0  0  0  0  0  0
   -3.0940   -2.6290    1.1426 C   0  0  0  0  0  0  0  0  0  0  0  0
   -3.7160   -1.9930    1.7706 H   0  0  0  0  0  0  0  0  0  0  0  0
   -3.4880   -2.6500    0.1286 H   0  0  0  0  0  0  0  0  0  0  0  0
   -1.6860   -2.0850    1.1196 C   0  0  0  0  0  0  0  0  0  0  0  0
   -0.7540   -2.7700    1.5226 O   0  0  0  0  0  0  0  0  0  0  0  0
   -1.5320   -0.8490    0.6496 N   0  0  0  0  0  0  0  0  0  0  0  0
   -2.3500   -0.3360    0.3566 H   0  0  0  0  0  0  0  0  0  0  0  0
   -0.2470   -0.1410    0.5576 C   0  0  1  0  0  0  0  0  0  0  0  0
    0.2082   -0.4083   -0.3966 H   0  0  0  0  0  0  0  0  0  0  0  0
   -0.4763    1.3919    0.5620 C   0  0  1  0  0  0  0  0  0  0  0  0
   -1.0737    1.6253    1.4455 H   0  0  0  0  0  0  0  0  0  0  0  0
    0.8413    2.1837    0.6645 C   0  0  0  0  0  0  0  0  0  0  0  0
    1.4445    2.0434   -0.2343 H   0  0  0  0  0  0  0  0  0  0  0  0
    0.6357    3.2453    0.7927 H   0  0  0  0  0  0  0  0  0  0  0  0
    1.4155    1.8490    1.5292 H   0  0  0  0  0  0  0  0  0  0  0  0
   -1.2911    1.8338   -0.6743 C   0  0  0  0  0  0  0  0  0  0  0  0
   -0.6914    1.7138   -1.5776 H   0  0  0  0  0  0  0  0  0  0  0  0
   -2.1709    1.1962   -0.7607 H   0  0  0  0  0  0  0  0  0  0  0  0
   -1.7834    3.2856   -0.6026 C   0  0  0  0  0  0  0  0  0  0  0  0
   -0.9406    3.9764   -0.6223 H   0  0  0  0  0  0  0  0  0  0  0  0
   -2.4209    3.4920   -1.4626 H   0  0  0  0  0  0  0  0  0  0  0  0
   -2.3595    3.4395    0.3105 H   0  0  0  0  0  0  0  0  0  0  0  0
    0.7013   -0.6147    1.6707 C   0  0  0  0  0  0  0  0  0  0  0  0
    1.0407   -1.7953    1.7365 O   0  0  0  0  0  0  0  0  0  0  0  0
    1.1386    0.3050    2.5402 N   0  0  0  0  0  0  0  0  0  0  0  0
    0.8266    1.2552    2.4167 H   0  0  0  0  0  0  0  0  0  0  0  0
    2.0380    0.0151    3.6553 C   0  0  0  0  0  0  0  0  0  0  0  0
    2.9235   -0.5083    3.2880 H   0  0  0  0  0  0  0  0  0  0  0  0
    2.3455    0.9407    4.1443 H   0  0  0  0  0  0  0  0  0  0  0  0
    1.5313   -0.6266    4.3786 H   0  0  0  0  0  0  0  0  0  0  0  0
  5  6  2  0  0  0  0
  5  7  1  0  0  0  0
  2  3  1  0  0  0  0
  2  4  1  0  0  0  0
  2  5  1  0  0  0  0
  1  2  1  0  0  0  0
 24 25  2  0  0  0  0
 24 26  1  0  0  0  0
 20 21  1  0  0  0  0
 20 22  1  0  0  0  0
 20 23  1  0  0  0  0
 17 18  1  0  0  0  0
 17 19  1  0  0  0  0
 17 20  1  0  0  0  0
 13 14  1  0  0  0  0
 13 15  1  0  0  0  0
 13 16  1  0  0  0  0
 11 12  1  0  0  0  0
 11 13  1  0  0  0  0
 11 17  1  0  0  0  0
  9 10  1  0  0  0  0
  9 11  1  0  0  0  0
  9 24  1  0  0  0  0
  7  8  1  0  0  0  0
  7  9  1  0  0  0  0
 28 29  1  0  0  0  0
 28 30  1  0  0  0  0
 28 31  1  0  0  0  0
 26 27  1  0  0  0  0
 26 28  1  0  0  0  0
M  END
$$$$
default_name
  -OEChem-01062215323D

 31 30  0     1  0  0  0  0  0999 V2000
   -3.0760   -3.6390    1.5496 H   0  0  0  0  0  0  0  0  0  0  0  0
   -3.0940   -2.6290    1.1426 C   0  0  0  0  0  0  0  0  0  0  0  0
   -3.7160   -1.9930    1.7706 H   0  0  0  0  0  0  0  0  0  0  0  0
   -3.4880   -2.6500    0.1286 H   0  0  0  0  0  0  0  0  0  0  0  0
   -1.6860   -2.0850    1.1196 C   0  0  0  0  0  0  0  0  0  0  0  0
   -0.7540   -2.7700    1.5226 O   0  0  0  0  0  0  0  0  0  0  0  0
   -1.5320   -0.8490    0.6496 N   0  0  0  0  0  0  0  0  0  0  0  0
   -2.3500   -0.3360    0.3566 H   0  0  0  0  0  0  0  0  0  0  0  0
   -0.2470   -0.1410    0.5576 C   0  0  1  0  0  0  0  0  0  0  0  0
    0.2082   -0.4083   -0.3966 H   0  0  0  0  0  0  0  0  0  0  0  0
   -0.4763    1.3919    0.5620 C   0  0  1  0  0  0  0  0  0  0  0  0
   -1.0737    1.6253    1.4455 H   0  0  0  0  0  0  0  0  0  0  0  0
    0.8413    2.1837    0.6645 C   0  0  0  0  0  0  0  0  0  0  0  0
    1.4445    2.0434   -0.2343 H   0  0  0  0  0  0  0  0  0  0  0  0
    0.6357    3.2453    0.7927 H   0  0  0  0  0  0  0  0  0  0  0  0
    1.4155    1.8490    1.5292 H   0  0  0  0  0  0  0  0  0  0  0  0
   -1.2911    1.8338   -0.6743 C   0  0  0  0  0  0  0  0  0  0  0  0
   -0.6914    1.7138   -1.5776 H   0  0  0  0  0  0  0  0  0  0  0  0
   -2.1709    1.1962   -0.7607 H   0  0  0  0  0  0  0  0  0  0  0  0
   -1.7834    3.2856   -0.6026 C   0  0  0  0  0  0  0  0  0  0  0  0
   -0.9406    3.9764   -0.6223 H   0  0  0  0  0  0  0  0  0  0  0  0
   -2.4209    3.4920   -1.4626 H   0  0  0  0  0  0  0  0  0  0  0  0
   -2.3595    3.4395    0.3105 H   0  0  0  0  0  0  0  0  0  0  0  0
    0.7013   -0.6147    1.6707 C   0  0  0  0  0  0  0  0  0  0  0  0
    1.2582   -1.7085    1.5882 O   0  0  0  0  0  0  0  0  0  0  0  0
    0.8949    0.2103    2.7075 N   0  0  0  0  0  0  0  0  0  0  0  0
    0.4132    1.0954    2.7009 H   0  0  0  0  0  0  0  0  0  0  0  0
    1.7596   -0.0944    3.8459 C   0  0  0  0  0  0  0  0  0  0  0  0
    2.7516   -0.3801    3.4890 H   0  0  0  0  0  0  0  0  0  0  0  0
    1.8496    0.7764    4.4969 H   0  0  0  0  0  0  0  0  0  0  0  0
    1.3413   -0.9291    4.4117 H   0  0  0  0  0  0  0  0  0  0  0  0
  5  6  2  0  0  0  0
  5  7  1  0  0  0  0
  2  3  1  0  0  0  0
  2  4  1  0  0  0  0
  2  5  1  0  0  0  0
  1  2  1  0  0  0  0
 24 25  2  0  0  0  0
 24 26  1  0  0  0  0
 20 21  1  0  0  0  0
 20 22  1  0  0  0  0
 20 23  1  0  0  0  0
 17 18  1  0  0  0  0
 17 19  1  0  0  0  0
 17 20  1  0  0  0  0
 13 14  1  0  0  0  0
 13 15  1  0  0  0  0
 13 16  1  0  0  0  0
 11 12  1  0  0  0  0
 11 13  1  0  0  0  0
 11 17  1  0  0  0  0
  9 10  1  0  0  0  0
  9 11  1  0  0  0  0
  9 24  1  0  0  0  0
  7  8  1  0  0  0  0
  7  9  1  0  0  0  0
 28 29  1  0  0  0  0
 28 30  1  0  0  0  0
 28 31  1  0  0  0  0
 26 27  1  0  0  0  0
 26 28  1  0  0  0  0
M  END
$$$$
default_name
  -OEChem-01062215323D

 31 30  0     1  0  0  0  0  0999 V2000
   -3.0760   -3.6390    1.5496 H   0  0  0  0  0  0  0  0  0  0  0  0
   -3.0940   -2.6290    1.1426 C   0  0  0  0  0  0  0  0  0  0  0  0
   -3.7160   -1.9930    1.7706 H   0  0  0  0  0  0  0  0  0  0  0  0
   -3.4880   -2.6500    0.1286 H   0  0  0  0  0  0  0  0  0  0  0  0
   -1.6860   -2.0850    1.1196 C   0  0  0  0  0  0  0  0  0  0  0  0
   -0.7540   -2.7700    1.5226 O   0  0  0  0  0  0  0  0  0  0  0  0
   -1.5320   -0.8490    0.6496 N   0  0  0  0  0  0  0  0  0  0  0  0
   -2.3500   -0.3360    0.3566 H   0  0  0  0  0  0  0  0  0  0  0  0
   -0.2470   -0.1410    0.5576 C   0  0  1  0  0  0  0  0  0  0  0  0
    0.2082   -0.4083   -0.3966 H   0  0  0  0  0  0  0  0  0  0  0  0
   -0.4763    1.3919    0.5620 C   0  0  1  0  0  0  0  0  0  0  0  0
   -1.0737    1.6253    1.4455 H   0  0  0  0  0  0  0  0  0  0  0  0
    0.8413    2.1837    0.6645 C   0  0  0  0  0  0  0  0  0  0  0  0
    1.4445    2.0434   -0.2343 H   0  0  0  0  0  0  0  0  0  0  0  0
    0.6357    3.2453    0.7927 H   0  0  0  0  0  0  0  0  0  0  0  0
    1.4155    1.8490    1.5292 H   0  0  0  0  0  0  0  0  0  0  0  0
   -1.2911    1.8338   -0.6743 C   0  0  0  0  0  0  0  0  0  0  0  0
   -0.6914    1.7138   -1.5776 H   0  0  0  0  0  0  0  0  0  0  0  0
   -2.1709    1.1962   -0.7607 H   0  0  0  0  0  0  0  0  0  0  0  0
   -1.7834    3.2856   -0.6026 C   0  0  0  0  0  0  0  0  0  0  0  0
   -0.9406    3.9764   -0.6223 H   0  0  0  0  0  0  0  0  0  0  0  0
   -2.4209    3.4920   -1.4626 H   0  0  0  0  0  0  0  0  0  0  0  0
   -2.3595    3.4395    0.3105 H   0  0  0  0  0  0  0  0  0  0  0  0
    0.7013   -0.6147    1.6707 C   0  0  0  0  0  0  0  0  0  0  0  0
    1.4639   -1.5602    1.4761 O   0  0  0  0  0  0  0  0  0  0  0  0
    0.6640    0.0464    2.8346 N   0  0  0  0  0  0  0  0  0  0  0  0
    0.0212    0.8182    2.9169 H   0  0  0  0  0  0  0  0  0  0  0  0
    1.4960   -0.2829    3.9903 C   0  0  0  0  0  0  0  0  0  0  0  0
    2.5455   -0.3206    3.6900 H   0  0  0  0  0  0  0  0  0  0  0  0
    1.3732    0.4684    4.7717 H   0  0  0  0  0  0  0  0  0  0  0  0
    1.2118   -1.2621    4.3803 H   0  0  0  0  0  0  0  0  0  0  0  0
  5  6  2  0  0  0  0
  5  7  1  0  0  0  0
  2  3  1  0  0  0  0
  2  4  1  0  0  0  0
  2  5  1  0  0  0  0
  1  2  1  0  0  0  0
 24 25  2  0  0  0  0
 24 26  1  0  0  0  0
 20 21  1  0  0  0  0
 20 22  1  0  0  0  0
 20 23  1  0  0  0  0
 17 18  1  0  0  0  0
 17 19  1  0  0  0  0
 17 20  1  0  0  0  0
 13 14  1  0  0  0  0
 13 15  1  0  0  0  0
 13 16  1  0  0  0  0
 11 12  1  0  0  0  0
 11 13  1  0  0  0  0
 11 17  1  0  0  0  0
  9 10  1  0  0  0  0
  9 11  1  0  0  0  0
  9 24  1  0  0  0  0
  7  8  1  0  0  0  0
  7  9  1  0  0  0  0
 28 29  1  0  0  0  0
 28 30  1  0  0  0  0
 28 31  1  0  0  0  0
 26 27  1  0  0  0  0
 26 28  1  0  0  0  0
M  END
$$$$
default_name
  -OEChem-01062215323D

 31 30  0     1  0  0  0  0  0999 V2000
   -3.0760   -3.6390    1.5496 H   0  0  0  0  0  0  0  0  0  0  0  0
   -3.0940   -2.6290    1.1426 C   0  0  0  0  0  0  0  0  0  0  0  0
   -3.7160   -1.9930    1.7706 H   0  0  0  0  0  0  0  0  0  0  0  0
   -3.4880   -2.6500    0.1286 H   0  0  0  0  0  0  0  0  0  0  0  0
   -1.6860   -2.0850    1.1196 C   0  0  0  0  0  0  0  0  0  0  0  0
   -0.7540   -2.7700    1.5226 O   0  0  0  0  0  0  0  0  0  0  0  0
   -1.5320   -0.8490    0.6496 N   0  0  0  0  0  0  0  0  0  0  0  0
   -2.3500   -0.3360    0.3566 H   0  0  0  0  0  0  0  0  0  0  0  0
   -0.2470   -0.1410    0.5576 C   0  0  1  0  0  0  0  0  0  0  0  0
    0.2082   -0.4083   -0.3966 H   0  0  0  0  0  0  0  0  0  0  0  0
   -0.4763    1.3919    0.5620 C   0  0  1  0  0  0  0  0  0  0  0  0
   -1.0737    1.6253    1.4455 H   0  0  0  0  0  0  0  0  0  0  0  0
    0.8413    2.1837    0.6645 C   0  0  0  0  0  0  0  0  0  0  0  0
    1.4445    2.0434   -0.2343 H   0  0  0  0  0  0  0  0  0  0  0  0
    0.6357    3.2453    0.7927 H   0  0  0  0  0  0  0  0  0  0  0  0
    1.4155    1.8490    1.5292 H   0  0  0  0  0  0  0  0  0  0  0  0
   -1.2911    1.8338   -0.6743 C   0  0  0  0  0  0  0  0  0  0  0  0
   -0.6914    1.7138   -1.5776 H   0  0  0  0  0  0  0  0  0  0  0  0
   -2.1709    1.1962   -0.7607 H   0  0  0  0  0  0  0  0  0  0  0  0
   -1.7834    3.2856   -0.6026 C   0  0  0  0  0  0  0  0  0  0  0  0
   -0.9406    3.9764   -0.6223 H   0  0  0  0  0  0  0  0  0  0  0  0
   -2.4209    3.4920   -1.4626 H   0  0  0  0  0  0  0  0  0  0  0  0
   -2.3595    3.4395    0.3105 H   0  0  0  0  0  0  0  0  0  0  0  0
    0.7013   -0.6147    1.6707 C   0  0  0  0  0  0  0  0  0  0  0  0
    1.6437   -1.3605    1.4078 O   0  0  0  0  0  0  0  0  0  0  0  0
    0.4614   -0.1755    2.9127 N   0  0  0  0  0  0  0  0  0  0  0  0
   -0.3227    0.4425    3.0500 H   0  0  0  0  0  0  0  0  0  0  0  0
    1.2652   -0.5374    4.0786 C   0  0  0  0  0  0  0  0  0  0  0  0
    2.3192   -0.3338    3.8772 H   0  0  0  0  0  0  0  0  0  0  0  0
    0.9488    0.0378    4.9500 H   0  0  0  0  0  0  0  0  0  0  0  0
    1.1517   -1.6031    4.2864 H   0  0  0  0  0  0  0  0  0  0  0  0
  5  6  2  0  0  0  0
  5  7  1  0  0  0  0
  2  3  1  0  0  0  0
  2  4  1  0  0  0  0
  2  5  1  0  0  0  0
  1  2  1  0  0  0  0
 24 25  2  0  0  0  0
 24 26  1  0  0  0  0
 20 21  1  0  0  0  0
 20 22  1  0  0  0  0
 20 23  1  0  0  0  0
 17 18  1  0  0  0  0
 17 19  1  0  0  0  0
 17 20  1  0  0  0  0
 13 14  1  0  0  0  0
 13 15  1  0  0  0  0
 13 16  1  0  0  0  0
 11 12  1  0  0  0  0
 11 13  1  0  0  0  0
 11 17  1  0  0  0  0
  9 10  1  0  0  0  0
  9 11  1  0  0  0  0
  9 24  1  0  0  0  0
  7  8  1  0  0  0  0
  7  9  1  0  0  0  0
 28 29  1  0  0  0  0
 28 30  1  0  0  0  0
 28 31  1  0  0  0  0
 26 27  1  0  0  0  0
 26 28  1  0  0  0  0
M  END
$$$$
default_name
  -OEChem-01062215323D

 31 30  0     1  0  0  0  0  0999 V2000
   -3.0760   -3.6390    1.5496 H   0  0  0  0  0  0  0  0  0  0  0  0
   -3.0940   -2.6290    1.1426 C   0  0  0  0  0  0  0  0  0  0  0  0
   -3.7160   -1.9930    1.7706 H   0  0  0  0  0  0  0  0  0  0  0  0
   -3.4880   -2.6500    0.1286 H   0  0  0  0  0  0  0  0  0  0  0  0
   -1.6860   -2.0850    1.1196 C   0  0  0  0  0  0  0  0  0  0  0  0
   -0.7540   -2.7700    1.5226 O   0  0  0  0  0  0  0  0  0  0  0  0
   -1.5320   -0.8490    0.6496 N   0  0  0  0  0  0  0  0  0  0  0  0
   -2.3500   -0.3360    0.3566 H   0  0  0  0  0  0  0  0  0  0  0  0
   -0.2470   -0.1410    0.5576 C   0  0  1  0  0  0  0  0  0  0  0  0
    0.2082   -0.4083   -0.3966 H   0  0  0  0  0  0  0  0  0  0  0  0
   -0.4763    1.3919    0.5620 C   0  0  1  0  0  0  0  0  0  0  0  0
   -1.0737    1.6253    1.4455 H   0  0  0  0  0  0  0  0  0  0  0  0
    0.8413    2.1837    0.6645 C   0  0  0  0  0  0  0  0  0  0  0  0
    1.4445    2.0434   -0.2343 H   0  0  0  0  0  0  0  0  0  0  0  0
    0.6357    3.2453    0.7927 H   0  0  0  0  0  0  0  0  0  0  0  0
    1.4155    1.8490    1.5292 H   0  0  0  0  0  0  0  0  0  0  0  0
   -1.2911    1.8338   -0.6743 C   0  0  0  0  0  0  0  0  0  0  0  0
   -0.6914    1.7138   -1.5776 H   0  0  0  0  0  0  0  0  0  0  0  0
   -2.1709    1.1962   -0.7607 H   0  0  0  0  0  0  0  0  0  0  0  0
   -1.7834    3.2856   -0.6026 C   0  0  0  0  0  0  0  0  0  0  0  0
   -0.9406    3.9764   -0.6223 H   0  0  0  0  0  0  0  0  0  0  0  0
   -2.4209    3.4920   -1.4626 H   0  0  0  0  0  0  0  0  0  0  0  0
   -2.3595    3.4395    0.3105 H   0  0  0  0  0  0  0  0  0  0  0  0
    0.7013   -0.6147    1.6707 C   0  0  0  0  0  0  0  0  0  0  0  0
    1.7853   -1.1231    1.3882 O   0  0  0  0  0  0  0  0  0  0  0  0
    0.3012   -0.4402    2.9366 N   0  0  0  0  0  0  0  0  0  0  0  0
   -0.5951   -0.0061    3.0912 H   0  0  0  0  0  0  0  0  0  0  0  0
    1.0829   -0.8406    4.1049 C   0  0  0  0  0  0  0  0  0  0  0  0
    2.0882   -0.4189    4.0378 H   0  0  0  0  0  0  0  0  0  0  0  0
    0.6054   -0.4861    5.0196 H   0  0  0  0  0  0  0  0  0  0  0  0
    1.1650   -1.9287    4.1365 H   0  0  0  0  0  0  0  0  0  0  0  0
  5  6  2  0  0  0  0
  5  7  1  0  0  0  0
  2  3  1  0  0  0  0
  2  4  1  0  0  0  0
  2  5  1  0  0  0  0
  1  2  1  0  0  0  0
 24 25  2  0  0  0  0
 24 26  1  0  0  0  0
 20 21  1  0  0  0  0
 20 22  1  0  0  0  0
 20 23  1  0  0  0  0
 17 18  1  0  0  0  0
 17 19  1  0  0  0  0
 17 20  1  0  0  0  0
 13 14  1  0  0  0  0
 13 15  1  0  0  0  0
 13 16  1  0  0  0  0
 11 12  1  0  0  0  0
 11 13  1  0  0  0  0
 11 17  1  0  0  0  0
  9 10  1  0  0  0  0
  9 11  1  0  0  0  0
  9 24  1  0  0  0  0
  7  8  1  0  0  0  0
  7  9  1  0  0  0  0
 28 29  1  0  0  0  0
 28 30  1  0  0  0  0
 28 31  1  0  0  0  0
 26 27  1  0  0  0  0
 26 28  1  0  0  0  0
M  END
$$$$
default_name
  -OEChem-01062215323D

 31 30  0     1  0  0  0  0  0999 V2000
   -3.0760   -3.6390    1.5496 H   0  0  0  0  0  0  0  0  0  0  0  0
   -3.0940   -2.6290    1.1426 C   0  0  0  0  0  0  0  0  0  0  0  0
   -3.7160   -1.9930    1.7706 H   0  0  0  0  0  0  0  0  0  0  0  0
   -3.4880   -2.6500    0.1286 H   0  0  0  0  0  0  0  0  0  0  0  0
   -1.6860   -2.0850    1.1196 C   0  0  0  0  0  0  0  0  0  0  0  0
   -0.7540   -2.7700    1.5226 O   0  0  0  0  0  0  0  0  0  0  0  0
   -1.5320   -0.8490    0.6496 N   0  0  0  0  0  0  0  0  0  0  0  0
   -2.3500   -0.3360    0.3566 H   0  0  0  0  0  0  0  0  0  0  0  0
   -0.2470   -0.1410    0.5576 C   0  0  1  0  0  0  0  0  0  0  0  0
    0.2082   -0.4083   -0.3966 H   0  0  0  0  0  0  0  0  0  0  0  0
   -0.4763    1.3919    0.5620 C   0  0  1  0  0  0  0  0  0  0  0  0
   -1.0737    1.6253    1.4455 H   0  0  0  0  0  0  0  0  0  0  0  0
    0.8413    2.1837    0.6645 C   0  0  0  0  0  0  0  0  0  0  0  0
    1.4445    2.0434   -0.2343 H   0  0  0  0  0  0  0  0  0  0  0  0
    0.6357    3.2453    0.7927 H   0  0  0  0  0  0  0  0  0  0  0  0
    1.4155    1.8490    1.5292 H   0  0  0  0  0  0  0  0  0  0  0  0
   -1.2911    1.8338   -0.6743 C   0  0  0  0  0  0  0  0  0  0  0  0
   -0.6914    1.7138   -1.5776 H   0  0  0  0  0  0  0  0  0  0  0  0
   -2.1709    1.1962   -0.7607 H   0  0  0  0  0  0  0  0  0  0  0  0
   -1.7834    3.2856   -0.6026 C   0  0  0  0  0  0  0  0  0  0  0  0
   -0.9406    3.9764   -0.6223 H   0  0  0  0  0  0  0  0  0  0  0  0
   -2.4209    3.4920   -1.4626 H   0  0  0  0  0  0  0  0  0  0  0  0
   -2.3595    3.4395    0.3105 H   0  0  0  0  0  0  0  0  0  0  0  0
    0.7013   -0.6147    1.6707 C   0  0  0  0  0  0  0  0  0  0  0  0
    1.8793   -0.8640    1.4184 O   0  0  0  0  0  0  0  0  0  0  0  0
    0.1941   -0.7298    2.9046 N   0  0  0  0  0  0  0  0  0  0  0  0
   -0.7774   -0.4971    3.0375 H   0  0  0  0  0  0  0  0  0  0  0  0
    0.9615   -1.1718    4.0673 C   0  0  0  0  0  0  0  0  0  0  0  0
    1.8681   -0.5700    4.1610 H   0  0  0  0  0  0  0  0  0  0  0  0
    0.3664   -1.0677    4.9758 H   0  0  0  0  0  0  0  0  0  0  0  0
    1.2509   -2.2168    3.9407 H   0  0  0  0  0  0  0  0  0  0  0  0
  5  6  2  0  0  0  0
  5  7  1  0  0  0  0
  2  3  1  0  0  0  0
  2  4  1  0  0  0  0
  2  5  1  0  0  0  0
  1  2  1  0  0  0  0
 24 25  2  0  0  0  0
 24 26  1  0  0  0  0
 20 21  1  0  0  0  0
 20 22  1  0  0  0  0
 20 23  1  0  0  0  0
 17 18  1  0  0  0  0
 17 19  1  0  0  0  0
 17 20  1  0  0  0  0
 13 14  1  0  0  0  0
 13 15  1  0  0  0  0
 13 16  1  0  0  0  0
 11 12  1  0  0  0  0
 11 13  1  0  0  0  0
 11 17  1  0  0  0  0
  9 10  1  0  0  0  0
  9 11  1  0  0  0  0
  9 24  1  0  0  0  0
  7  8  1  0  0  0  0
  7  9  1  0  0  0  0
 28 29  1  0  0  0  0
 28 30  1  0  0  0  0
 28 31  1  0  0  0  0
 26 27  1  0  0  0  0
 26 28  1  0  0  0  0
M  END
$$$$
default_name
  -OEChem-01062215323D

 31 30  0     1  0  0  0  0  0999 V2000
   -3.0760   -3.6390    1.5496 H   0  0  0  0  0  0  0  0  0  0  0  0
   -3.0940   -2.6290    1.1426 C   0  0  0  0  0  0  0  0  0  0  0  0
   -3.7160   -1.9930    1.7706 H   0  0  0  0  0  0  0  0  0  0  0  0
   -3.4880   -2.6500    0.1286 H   0  0  0  0  0  0  0  0  0  0  0  0
   -1.6860   -2.0850    1.1196 C   0  0  0  0  0  0  0  0  0  0  0  0
   -0.7540   -2.7700    1.5226 O   0  0  0  0  0  0  0  0  0  0  0  0
   -1.5320   -0.8490    0.6496 N   0  0  0  0  0  0  0  0  0  0  0  0
   -2.3500   -0.3360    0.3566 H   0  0  0  0  0  0  0  0  0  0  0  0
   -0.2470   -0.1410    0.5576 C   0  0  1  0  0  0  0  0  0  0  0  0
    0.2082   -0.4083   -0.3966 H   0  0  0  0  0  0  0  0  0  0  0  0
   -0.4763    1.3919    0.5620 C   0  0  1  0  0  0  0  0  0  0  0  0
   -1.0737    1.6253    1.4455 H   0  0  0  0  0  0  0  0  0  0  0  0
    0.8413    2.1837    0.6645 C   0  0  0  0  0  0  0  0  0  0  0  0
    1.4445    2.0434   -0.2343 H   0  0  0  0  0  0  0  0  0  0  0  0
    0.6357    3.2453    0.7927 H   0  0  0  0  0  0  0  0  0  0  0  0
    1.4155    1.8490    1.5292 H   0  0  0  0  0  0  0  0  0  0  0  0
   -1.2911    1.8338   -0.6743 C   0  0  0  0  0  0  0  0  0  0  0  0
   -0.6914    1.7138   -1.5776 H   0  0  0  0  0  0  0  0  0  0  0  0
   -2.1709    1.1962   -0.7607 H   0  0  0  0  0  0  0  0  0  0  0  0
   -1.7834    3.2856   -0.6026 C   0  0  0  0  0  0  0  0  0  0  0  0
   -0.9406    3.9764   -0.6223 H   0  0  0  0  0  0  0  0  0  0  0  0
   -2.4209    3.4920   -1.4626 H   0  0  0  0  0  0  0  0  0  0  0  0
   -2.3595    3.4395    0.3105 H   0  0  0  0  0  0  0  0  0  0  0  0
    0.7013   -0.6147    1.6707 C   0  0  0  0  0  0  0  0  0  0  0  0
    1.9190   -0.6010    1.4965 O   0  0  0  0  0  0  0  0  0  0  0  0
    0.1475   -1.0244    2.8189 N   0  0  0  0  0  0  0  0  0  0  0  0
   -0.8572   -0.9970    2.8928 H   0  0  0  0  0  0  0  0  0  0  0  0
    0.9093   -1.5085    3.9685 C   0  0  0  0  0  0  0  0  0  0  0  0
    1.6741   -0.7769    4.2383 H   0  0  0  0  0  0  0  0  0  0  0  0
    0.2480   -1.6672    4.8215 H   0  0  0  0  0  0  0  0  0  0  0  0
    1.4034   -2.4477    3.7125 H   0  0  0  0  0  0  0  0  0  0  0  0
  5  6  2  0  0  0  0
  5  7  1  0  0  0  0
  2  3  1  0  0  0  0
  2  4  1  0  0  0  0
  2  5  1  0  0  0  0
  1  2  1  0  0  0  0
 24 25  2  0  0  0  0
 24 26  1  0  0  0  0
 20 21  1  0  0  0  0
 20 22  1  0  0  0  0
 20 23  1  0  0  0  0
 17 18  1  0  0  0  0
 17 19  1  0  0  0  0
 17 20  1  0  0  0  0
 13 14  1  0  0  0  0
 13 15  1  0  0  0  0
 13 16  1  0  0  0  0
 11 12  1  0  0  0  0
 11 13  1  0  0  0  0
 11 17  1  0  0  0  0
  9 10  1  0  0  0  0
  9 11  1  0  0  0  0
  9 24  1  0  0  0  0
  7  8  1  0  0  0  0
  7  9  1  0  0  0  0
 28 29  1  0  0  0  0
 28 30  1  0  0  0  0
 28 31  1  0  0  0  0
 26 27  1  0  0  0  0
 26 28  1  0  0  0  0
M  END
$$$$
default_name
  -OEChem-01062215323D

 31 30  0     1  0  0  0  0  0999 V2000
   -3.0760   -3.6390    1.5496 H   0  0  0  0  0  0  0  0  0  0  0  0
   -3.0940   -2.6290    1.1426 C   0  0  0  0  0  0  0  0  0  0  0  0
   -3.7160   -1.9930    1.7706 H   0  0  0  0  0  0  0  0  0  0  0  0
   -3.4880   -2.6500    0.1286 H   0  0  0  0  0  0  0  0  0  0  0  0
   -1.6860   -2.0850    1.1196 C   0  0  0  0  0  0  0  0  0  0  0  0
   -0.7540   -2.7700    1.5226 O   0  0  0  0  0  0  0  0  0  0  0  0
   -1.5320   -0.8490    0.6496 N   0  0  0  0  0  0  0  0  0  0  0  0
   -2.3500   -0.3360    0.3566 H   0  0  0  0  0  0  0  0  0  0  0  0
   -0.2470   -0.1410    0.5576 C   0  0  1  0  0  0  0  0  0  0  0  0
    0.2082   -0.4083   -0.3966 H   0  0  0  0  0  0  0  0  0  0  0  0
   -0.4763    1.3919    0.5620 C   0  0  1  0  0  0  0  0  0  0  0  0
   -1.0737    1.6253    1.4455 H   0  0  0  0  0  0  0  0  0  0  0  0
    0.8413    2.1837    0.6645 C   0  0  0  0  0  0  0  0  0  0  0  0
    1.4445    2.0434   -0.2343 H   0  0  0  0  0  0  0  0  0  0  0  0
    0.6357    3.2453    0.7927 H   0  0  0  0  0  0  0  0  0  0  0  0
    1.4155    1.8490    1.5292 H   0  0  0  0  0  0  0  0  0  0  0  0
   -1.2911    1.8338   -0.6743 C   0  0  0  0  0  0  0  0  0  0  0  0
   -0.6914    1.7138   -1.5776 H   0  0  0  0  0  0  0  0  0  0  0  0
   -2.1709    1.1962   -0.7607 H   0  0  0  0  0  0  0  0  0  0  0  0
   -1.7834    3.2856   -0.6026 C   0  0  0  0  0  0  0  0  0  0  0  0
   -0.9406    3.9764   -0.6223 H   0  0  0  0  0  0  0  0  0  0  0  0
   -2.4209    3.4920   -1.4626 H   0  0  0  0  0  0  0  0  0  0  0  0
   -2.3595    3.4395    0.3105 H   0  0  0  0  0  0  0  0  0  0  0  0
    0.7013   -0.6147    1.6707 C   0  0  0  0  0  0  0  0  0  0  0  0
    1.9019   -0.3519    1.6171 O   0  0  0  0  0  0  0  0  0  0  0  0
    0.1645   -1.3041    2.6854 N   0  0  0  0  0  0  0  0  0  0  0  0
   -0.8291   -1.4716    2.6668 H   0  0  0  0  0  0  0  0  0  0  0  0
    0.9299   -1.8277    3.8151 C   0  0  0  0  0  0  0  0  0  0  0  0
    1.5193   -1.0254    4.2644 H   0  0  0  0  0  0  0  0  0  0  0  0
    0.2582   -2.2439    4.5673 H   0  0  0  0  0  0  0  0  0  0  0  0
    1.6122   -2.6058    3.4673 H   0  0  0  0  0  0  0  0  0  0  0  0
  5  6  2  0  0  0  0
  5  7  1  0  0  0  0
  2  3  1  0  0  0  0
  2  4  1  0  0  0  0
  2  5  1  0  0  0  0
  1  2  1  0  0  0  0
 24 25  2  0  0  0  0
 24 26  1  0  0  0  0
 20 21  1  0  0  0  0
 20 22  1  0  0  0  0
 20 23  1  0  0  0  0
 17 18  1  0  0  0  0
 17 19  1  0  0  0  0
 17 20  1  0  0  0  0
 13 14  1  0  0  0  0
 13 15  1  0  0  0  0
 13 16  1  0  0  0  0
 11 12  1  0  0  0  0
 11 13  1  0  0  0  0
 11 17  1  0  0  0  0
  9 10  1  0  0  0  0
  9 11  1  0  0  0  0
  9 24  1  0  0  0  0
  7  8  1  0  0  0  0
  7  9  1  0  0  0  0
 28 29  1  0  0  0  0
 28 30  1  0  0  0  0
 28 31  1  0  0  0  0
 26 27  1  0  0  0  0
 26 28  1  0  0  0  0
M  END
$$$$
default_name
  -OEChem-01062215323D

 31 30  0     1  0  0  0  0  0999 V2000
   -3.0760   -3.6390    1.5496 H   0  0  0  0  0  0  0  0  0  0  0  0
   -3.0940   -2.6290    1.1426 C   0  0  0  0  0  0  0  0  0  0  0  0
   -3.7160   -1.9930    1.7706 H   0  0  0  0  0  0  0  0  0  0  0  0
   -3.4880   -2.6500    0.1286 H   0  0  0  0  0  0  0  0  0  0  0  0
   -1.6860   -2.0850    1.1196 C   0  0  0  0  0  0  0  0  0  0  0  0
   -0.7540   -2.7700    1.5226 O   0  0  0  0  0  0  0  0  0  0  0  0
   -1.5320   -0.8490    0.6496 N   0  0  0  0  0  0  0  0  0  0  0  0
   -2.3500   -0.3360    0.3566 H   0  0  0  0  0  0  0  0  0  0  0  0
   -0.2470   -0.1410    0.5576 C   0  0  1  0  0  0  0  0  0  0  0  0
    0.2082   -0.4083   -0.3966 H   0  0  0  0  0  0  0  0  0  0  0  0
   -0.4763    1.3919    0.5620 C   0  0  1  0  0  0  0  0  0  0  0  0
   -1.0737    1.6253    1.4455 H   0  0  0  0  0  0  0  0  0  0  0  0
    0.8413    2.1837    0.6645 C   0  0  0  0  0  0  0  0  0  0  0  0
    1.4445    2.0434   -0.2343 H   0  0  0  0  0  0  0  0  0  0  0  0
    0.6357    3.2453    0.7927 H   0  0  0  0  0  0  0  0  0  0  0  0
    1.4155    1.8490    1.5292 H   0  0  0  0  0  0  0  0  0  0  0  0
   -1.2911    1.8338   -0.6743 C   0  0  0  0  0  0  0  0  0  0  0  0
   -0.6914    1.7138   -1.5776 H   0  0  0  0  0  0  0  0  0  0  0  0
   -2.1709    1.1962   -0.7607 H   0  0  0  0  0  0  0  0  0  0  0  0
   -1.7834    3.2856   -0.6026 C   0  0  0  0  0  0  0  0  0  0  0  0
   -0.9406    3.9764   -0.6223 H   0  0  0  0  0  0  0  0  0  0  0  0
   -2.4209    3.4920   -1.4626 H   0  0  0  0  0  0  0  0  0  0  0  0
   -2.3595    3.4395    0.3105 H   0  0  0  0  0  0  0  0  0  0  0  0
    0.7013   -0.6147    1.6707 C   0  0  0  0  0  0  0  0  0  0  0  0
    1.8291   -0.1339    1.7720 O   0  0  0  0  0  0  0  0  0  0  0  0
    0.2440   -1.5497    2.5131 N   0  0  0  0  0  0  0  0  0  0  0  0
   -0.6950   -1.8888    2.3750 H   0  0  0  0  0  0  0  0  0  0  0  0
    1.0219   -2.1077    3.6175 C   0  0  0  0  0  0  0  0  0  0  0  0
    1.4142   -1.2986    4.2376 H   0  0  0  0  0  0  0  0  0  0  0  0
    0.3965   -2.7584    4.2305 H   0  0  0  0  0  0  0  0  0  0  0  0
    1.8631   -2.6801    3.2219 H   0  0  0  0  0  0  0  0  0  0  0  0
  5  6  2  0  0  0  0
  5  7  1  0  0  0  0
  2  3  1  0  0  0  0
  2  4  1  0  0  0  0
  2  5  1  0  0  0  0
  1  2  1  0  0  0  0
 24 25  2  0  0  0  0
 24 26  1  0  0  0  0
 20 21  1  0  0  0  0
 20 22  1  0  0  0  0
 20 23  1  0  0  0  0
 17 18  1  0  0  0  0
 17 19  1  0  0  0  0
 17 20  1  0  0  0  0
 13 14  1  0  0  0  0
 13 15  1  0  0  0  0
 13 16  1  0  0  0  0
 11 12  1  0  0  0  0
 11 13  1  0  0  0  0
 11 17  1  0  0  0  0
  9 10  1  0  0  0  0
  9 11  1  0  0  0  0
  9 24  1  0  0  0  0
  7  8  1  0  0  0  0
  7  9  1  0  0  0  0
 28 29  1  0  0  0  0
 28 30  1  0  0  0  0
 28 31  1  0  0  0  0
 26 27  1  0  0  0  0
 26 28  1  0  0  0  0
M  END
$$$$
default_name
  -OEChem-01062215323D

 31 30  0     1  0  0  0  0  0999 V2000
   -3.0760   -3.6390    1.5496 H   0  0  0  0  0  0  0  0  0  0  0  0
   -3.0940   -2.6290    1.1426 C   0  0  0  0  0  0  0  0  0  0  0  0
   -3.7160   -1.9930    1.7706 H   0  0  0  0  0  0  0  0  0  0  0  0
   -3.4880   -2.6500    0.1286 H   0  0  0  0  0  0  0  0  0  0  0  0
   -1.6860   -2.0850    1.1196 C   0  0  0  0  0  0  0  0  0  0  0  0
   -0.7540   -2.7700    1.5226 O   0  0  0  0  0  0  0  0  0  0  0  0
   -1.5320   -0.8490    0.6496 N   0  0  0  0  0  0  0  0  0  0  0  0
   -2.3500   -0.3360    0.3566 H   0  0  0  0  0  0  0  0  0  0  0  0
   -0.2470   -0.1410    0.5576 C   0  0  1  0  0  0  0  0  0  0  0  0
    0.2082   -0.4083   -0.3966 H   0  0  0  0  0  0  0  0  0  0  0  0
   -0.4763    1.3919    0.5620 C   0  0  1  0  0  0  0  0  0  0  0  0
   -1.0737    1.6253    1.4455 H   0  0  0  0  0  0  0  0  0  0  0  0
    0.8413    2.1837    0.6645 C   0  0  0  0  0  0  0  0  0  0  0  0
    1.4445    2.0434   -0.2343 H   0  0  0  0  0  0  0  0  0  0  0  0
    0.6357    3.2453    0.7927 H   0  0  0  0  0  0  0  0  0  0  0  0
    1.4155    1.8490    1.5292 H   0  0  0  0  0  0  0  0  0  0  0  0
   -1.2911    1.8338   -0.6743 C   0  0  0  0  0  0  0  0  0  0  0  0
   -0.6914    1.7138   -1.5776 H   0  0  0  0  0  0  0  0  0  0  0  0
   -2.1709    1.1962   -0.7607 H   0  0  0  0  0  0  0  0  0  0  0  0
   -1.7834    3.2856   -0.6026 C   0  0  0  0  0  0  0  0  0  0  0  0
   -0.9406    3.9764   -0.6223 H   0  0  0  0  0  0  0  0  0  0  0  0
   -2.4209    3.4920   -1.4626 H   0  0  0  0  0  0  0  0  0  0  0  0
   -2.3595    3.4395    0.3105 H   0  0  0  0  0  0  0  0  0  0  0  0
    0.7013   -0.6147    1.6707 C   0  0  0  0  0  0  0  0  0  0  0  0
    1.7055    0.0384    1.9506 O   0  0  0  0  0  0  0  0  0  0  0  0
    0.3806   -1.7446    2.3138 N   0  0  0  0  0  0  0  0  0  0  0  0
   -0.4639   -2.2199    2.0371 H   0  0  0  0  0  0  0  0  0  0  0  0
    1.1790   -2.3294    3.3894 C   0  0  0  0  0  0  0  0  0  0  0  0
    1.3661   -1.5780    4.1597 H   0  0  0  0  0  0  0  0  0  0  0  0
    0.6534   -3.1757    3.8340 H   0  0  0  0  0  0  0  0  0  0  0  0
    2.1389   -2.6657    2.9930 H   0  0  0  0  0  0  0  0  0  0  0  0
  5  6  2  0  0  0  0
  5  7  1  0  0  0  0
  2  3  1  0  0  0  0
  2  4  1  0  0  0  0
  2  5  1  0  0  0  0
  1  2  1  0  0  0  0
 24 25  2  0  0  0  0
 24 26  1  0  0  0  0
 20 21  1  0  0  0  0
 20 22  1  0  0  0  0
 20 23  1  0  0  0  0
 17 18  1  0  0  0  0
 17 19  1  0  0  0  0
 17 20  1  0  0  0  0
 13 14  1  0  0  0  0
 13 15  1  0  0  0  0
 13 16  1  0  0  0  0
 11 12  1  0  0  0  0
 11 13  1  0  0  0  0
 11 17  1  0  0  0  0
  9 10  1  0  0  0  0
  9 11  1  0  0  0  0
  9 24  1  0  0  0  0
  7  8  1  0  0  0  0
  7  9  1  0  0  0  0
 28 29  1  0  0  0  0
 28 30  1  0  0  0  0
 28 31  1  0  0  0  0
 26 27  1  0  0  0  0
 26 28  1  0  0  0  0
M  END
$$$$
default_name
  -OEChem-01062215323D

 31 30  0     1  0  0  0  0  0999 V2000
   -3.0760   -3.6390    1.5496 H   0  0  0  0  0  0  0  0  0  0  0  0
   -3.0940   -2.6290    1.1426 C   0  0  0  0  0  0  0  0  0  0  0  0
   -3.7160   -1.9930    1.7706 H   0  0  0  0  0  0  0  0  0  0  0  0
   -3.4880   -2.6500    0.1286 H   0  0  0  0  0  0  0  0  0  0  0  0
   -1.6860   -2.0850    1.1196 C   0  0  0  0  0  0  0  0  0  0  0  0
   -0.7540   -2.7700    1.5226 O   0  0  0  0  0  0  0  0  0  0  0  0
   -1.5320   -0.8490    0.6496 N   0  0  0  0  0  0  0  0  0  0  0  0
   -2.3500   -0.3360    0.3566 H   0  0  0  0  0  0  0  0  0  0  0  0
   -0.2470   -0.1410    0.5576 C   0  0  1  0  0  0  0  0  0  0  0  0
    0.2082   -0.4083   -0.3966 H   0  0  0  0  0  0  0  0  0  0  0  0
   -0.4763    1.3919    0.5620 C   0  0  1  0  0  0  0  0  0  0  0  0
   -1.0737    1.6253    1.4455 H   0  0  0  0  0  0  0  0  0  0  0  0
    0.8413    2.1837    0.6645 C   0  0  0  0  0  0  0  0  0  0  0  0
    1.4445    2.0434   -0.2343 H   0  0  0  0  0  0  0  0  0  0  0  0
    0.6357    3.2453    0.7927 H   0  0  0  0  0  0  0  0  0  0  0  0
    1.4155    1.8490    1.5292 H   0  0  0  0  0  0  0  0  0  0  0  0
   -1.2911    1.8338   -0.6743 C   0  0  0  0  0  0  0  0  0  0  0  0
   -0.6914    1.7138   -1.5776 H   0  0  0  0  0  0  0  0  0  0  0  0
   -2.1709    1.1962   -0.7607 H   0  0  0  0  0  0  0  0  0  0  0  0
   -1.7834    3.2856   -0.6026 C   0  0  0  0  0  0  0  0  0  0  0  0
   -0.9406    3.9764   -0.6223 H   0  0  0  0  0  0  0  0  0  0  0  0
   -2.4209    3.4920   -1.4626 H   0  0  0  0  0  0  0  0  0  0  0  0
   -2.3595    3.4395    0.3105 H   0  0  0  0  0  0  0  0  0  0  0  0
    0.7013   -0.6147    1.6707 C   0  0  0  0  0  0  0  0  0  0  0  0
    1.5396    0.1531    2.1407 O   0  0  0  0  0  0  0  0  0  0  0  0
    0.5649   -1.8754    2.1010 N   0  0  0  0  0  0  0  0  0  0  0  0
   -0.1517   -2.4426    1.6764 H   0  0  0  0  0  0  0  0  0  0  0  0
    1.3904   -2.4776    3.1461 C   0  0  0  0  0  0  0  0  0  0  0  0
    1.3782   -1.8444    4.0360 H   0  0  0  0  0  0  0  0  0  0  0  0
    1.0113   -3.4673    3.4049 H   0  0  0  0  0  0  0  0  0  0  0  0
    2.4209   -2.5636    2.7962 H   0  0  0  0  0  0  0  0  0  0  0  0
  5  6  2  0  0  0  0
  5  7  1  0  0  0  0
  2  3  1  0  0  0  0
  2  4  1  0  0  0  0
  2  5  1  0  0  0  0
  1  2  1  0  0  0  0
 24 25  2  0  0  0  0
 24 26  1  0  0  0  0
 20 21  1  0  0  0  0
 20 22  1  0  0  0  0
 20 23  1  0  0  0  0
 17 18  1  0  0  0  0
 17 19  1  0  0  0  0
 17 20  1  0  0  0  0
 13 14  1  0  0  0  0
 13 15  1  0  0  0  0
 13 16  1  0  0  0  0
 11 12  1  0  0  0  0
 11 13  1  0  0  0  0
 11 17  1  0  0  0  0
  9 10  1  0  0  0  0
  9 11  1  0  0  0  0
  9 24  1  0  0  0  0
  7  8  1  0  0  0  0
  7  9  1  0  0  0  0
 28 29  1  0  0  0  0
 28 30  1  0  0  0  0
 28 31  1  0  0  0  0
 26 27  1  0  0  0  0
 26 28  1  0  0  0  0
M  END
$$$$
default_name
  -OEChem-01062215323D

 31 30  0     1  0  0  0  0  0999 V2000
   -3.0760   -3.6390    1.5496 H   0  0  0  0  0  0  0  0  0  0  0  0
   -3.0940   -2.6290    1.1426 C   0  0  0  0  0  0  0  0  0  0  0  0
   -3.7160   -1.9930    1.7706 H   0  0  0  0  0  0  0  0  0  0  0  0
   -3.4880   -2.6500    0.1286 H   0  0  0  0  0  0  0  0  0  0  0  0
   -1.6860   -2.0850    1.1196 C   0  0  0  0  0  0  0  0  0  0  0  0
   -0.7540   -2.7700    1.5226 O   0  0  0  0  0  0  0  0  0  0  0  0
   -1.5320   -0.8490    0.6496 N   0  0  0  0  0  0  0  0  0  0  0  0
   -2.3500   -0.3360    0.3566 H   0  0  0  0  0  0  0  0  0  0  0  0
   -0.2470   -0.1410    0.5576 C   0  0  1  0  0  0  0  0  0  0  0  0
    0.2082   -0.4083   -0.3966 H   0  0  0  0  0  0  0  0  0  0  0  0
   -0.4763    1.3919    0.5620 C   0  0  1  0  0  0  0  0  0  0  0  0
   -1.0737    1.6253    1.4455 H   0  0  0  0  0  0  0  0  0  0  0  0
    0.8413    2.1837    0.6645 C   0  0  0  0  0  0  0  0  0  0  0  0
    1.4445    2.0434   -0.2343 H   0  0  0  0  0  0  0  0  0  0  0  0
    0.6357    3.2453    0.7927 H   0  0  0  0  0  0  0  0  0  0  0  0
    1.4155    1.8490    1.5292 H   0  0  0  0  0  0  0  0  0  0  0  0
   -1.2911    1.8338   -0.6743 C   0  0  0  0  0  0  0  0  0  0  0  0
   -0.6914    1.7138   -1.5776 H   0  0  0  0  0  0  0  0  0  0  0  0
   -2.1709    1.1962   -0.7607 H   0  0  0  0  0  0  0  0  0  0  0  0
   -1.7834    3.2856   -0.6026 C   0  0  0  0  0  0  0  0  0  0  0  0
   -0.9406    3.9764   -0.6223 H   0  0  0  0  0  0  0  0  0  0  0  0
   -2.4209    3.4920   -1.4626 H   0  0  0  0  0  0  0  0  0  0  0  0
   -2.3595    3.4395    0.3105 H   0  0  0  0  0  0  0  0  0  0  0  0
    0.7013   -0.6147    1.6707 C   0  0  0  0  0  0  0  0  0  0  0  0
    1.3427    0.2025    2.3295 O   0  0  0  0  0  0  0  0  0  0  0  0
    0.7844   -1.9332    1.8894 N   0  0  0  0  0  0  0  0  0  0  0  0
    0.2203   -2.5415    1.3173 H   0  0  0  0  0  0  0  0  0  0  0  0
    1.6418   -2.5423    2.9043 C   0  0  0  0  0  0  0  0  0  0  0  0
    1.4497   -2.0797    3.8749 H   0  0  0  0  0  0  0  0  0  0  0  0
    1.4460   -3.6134    2.9724 H   0  0  0  0  0  0  0  0  0  0  0  0
    2.6899   -2.3807    2.6449 H   0  0  0  0  0  0  0  0  0  0  0  0
  5  6  2  0  0  0  0
  5  7  1  0  0  0  0
  2  3  1  0  0  0  0
  2  4  1  0  0  0  0
  2  5  1  0  0  0  0
  1  2  1  0  0  0  0
 24 25  2  0  0  0  0
 24 26  1  0  0  0  0
 20 21  1  0  0  0  0
 20 22  1  0  0  0  0
 20 23  1  0  0  0  0
 17 18  1  0  0  0  0
 17 19  1  0  0  0  0
 17 20  1  0  0  0  0
 13 14  1  0  0  0  0
 13 15  1  0  0  0  0
 13 16  1  0  0  0  0
 11 12  1  0  0  0  0
 11 13  1  0  0  0  0
 11 17  1  0  0  0  0
  9 10  1  0  0  0  0
  9 11  1  0  0  0  0
  9 24  1  0  0  0  0
  7  8  1  0  0  0  0
  7  9  1  0  0  0  0
 28 29  1  0  0  0  0
 28 30  1  0  0  0  0
 28 31  1  0  0  0  0
 26 27  1  0  0  0  0
 26 28  1  0  0  0  0
M  END
$$$$
default_name
  -OEChem-01062215323D

 31 30  0     1  0  0  0  0  0999 V2000
   -3.0760   -3.6390    1.5496 H   0  0  0  0  0  0  0  0  0  0  0  0
   -3.0940   -2.6290    1.1426 C   0  0  0  0  0  0  0  0  0  0  0  0
   -3.7160   -1.9930    1.7706 H   0  0  0  0  0  0  0  0  0  0  0  0
   -3.4880   -2.6500    0.1286 H   0  0  0  0  0  0  0  0  0  0  0  0
   -1.6860   -2.0850    1.1196 C   0  0  0  0  0  0  0  0  0  0  0  0
   -0.7540   -2.7700    1.5226 O   0  0  0  0  0  0  0  0  0  0  0  0
   -1.5320   -0.8490    0.6496 N   0  0  0  0  0  0  0  0  0  0  0  0
   -2.3500   -0.3360    0.3566 H   0  0  0  0  0  0  0  0  0  0  0  0
   -0.2470   -0.1410    0.5576 C   0  0  1  0  0  0  0  0  0  0  0  0
    0.2082   -0.4083   -0.3966 H   0  0  0  0  0  0  0  0  0  0  0  0
   -0.4763    1.3919    0.5620 C   0  0  1  0  0  0  0  0  0  0  0  0
   -1.0737    1.6253    1.4455 H   0  0  0  0  0  0  0  0  0  0  0  0
    0.8413    2.1837    0.6645 C   0  0  0  0  0  0  0  0  0  0  0  0
    1.4445    2.0434   -0.2343 H   0  0  0  0  0  0  0  0  0  0  0  0
    0.6357    3.2453    0.7927 H   0  0  0  0  0  0  0  0  0  0  0  0
    1.4155    1.8490    1.5292 H   0  0  0  0  0  0  0  0  0  0  0  0
   -1.2911    1.8338   -0.6743 C   0  0  0  0  0  0  0  0  0  0  0  0
   -0.6914    1.7138   -1.5776 H   0  0  0  0  0  0  0  0  0  0  0  0
   -2.1709    1.1962   -0.7607 H   0  0  0  0  0  0  0  0  0  0  0  0
   -1.7834    3.2856   -0.6026 C   0  0  0  0  0  0  0  0  0  0  0  0
   -0.9406    3.9764   -0.6223 H   0  0  0  0  0  0  0  0  0  0  0  0
   -2.4209    3.4920   -1.4626 H   0  0  0  0  0  0  0  0  0  0  0  0
   -2.3595    3.4395    0.3105 H   0  0  0  0  0  0  0  0  0  0  0  0
    0.7013   -0.6147    1.6707 C   0  0  0  0  0  0  0  0  0  0  0  0
    1.1282    0.1831    2.5041 O   0  0  0  0  0  0  0  0  0  0  0  0
    1.0242   -1.9141    1.6932 N   0  0  0  0  0  0  0  0  0  0  0  0
    0.6269   -2.5100    0.9843 H   0  0  0  0  0  0  0  0  0  0  0  0
    1.9161   -2.5191    2.6805 C   0  0  0  0  0  0  0  0  0  0  0  0
    1.5757   -2.2679    3.6875 H   0  0  0  0  0  0  0  0  0  0  0  0
    1.9277   -3.6039    2.5660 H   0  0  0  0  0  0  0  0  0  0  0  0
    2.9274   -2.1294    2.5494 H   0  0  0  0  0  0  0  0  0  0  0  0
  5  6  2  0  0  0  0
  5  7  1  0  0  0  0
  2  3  1  0  0  0  0
  2  4  1  0  0  0  0
  2  5  1  0  0  0  0
  1  2  1  0  0  0  0
 24 25  2  0  0  0  0
 24 26  1  0  0  0  0
 20 21  1  0  0  0  0
 20 22  1  0  0  0  0
 20 23  1  0  0  0  0
 17 18  1  0  0  0  0
 17 19  1  0  0  0  0
 17 20  1  0  0  0  0
 13 14  1  0  0  0  0
 13 15  1  0  0  0  0
 13 16  1  0  0  0  0
 11 12  1  0  0  0  0
 11 13  1  0  0  0  0
 11 17  1  0  0  0  0
  9 10  1  0  0  0  0
  9 11  1  0  0  0  0
  9 24  1  0  0  0  0
  7  8  1  0  0  0  0
  7  9  1  0  0  0  0
 28 29  1  0  0  0  0
 28 30  1  0  0  0  0
 28 31  1  0  0  0  0
 26 27  1  0  0  0  0
 26 28  1  0  0  0  0
M  END
$$$$
default_name
  -OEChem-01062215323D

 31 30  0     1  0  0  0  0  0999 V2000
   -3.0760   -3.6390    1.5496 H   0  0  0  0  0  0  0  0  0  0  0  0
   -3.0940   -2.6290    1.1426 C   0  0  0  0  0  0  0  0  0  0  0  0
   -3.7160   -1.9930    1.7706 H   0  0  0  0  0  0  0  0  0  0  0  0
   -3.4880   -2.6500    0.1286 H   0  0  0  0  0  0  0  0  0  0  0  0
   -1.6860   -2.0850    1.1196 C   0  0  0  0  0  0  0  0  0  0  0  0
   -0.7540   -2.7700    1.5226 O   0  0  0  0  0  0  0  0  0  0  0  0
   -1.5320   -0.8490    0.6496 N   0  0  0  0  0  0  0  0  0  0  0  0
   -2.3500   -0.3360    0.3566 H   0  0  0  0  0  0  0  0  0  0  0  0
   -0.2470   -0.1410    0.5576 C   0  0  1  0  0  0  0  0  0  0  0  0
    0.2082   -0.4083   -0.3966 H   0  0  0  0  0  0  0  0  0  0  0  0
   -0.4763    1.3919    0.5620 C   0  0  1  0  0  0  0  0  0  0  0  0
   -1.0737    1.6253    1.4455 H   0  0  0  0  0  0  0  0  0  0  0  0
    0.8413    2.1837    0.6645 C   0  0  0  0  0  0  0  0  0  0  0  0
    1.4445    2.0434   -0.2343 H   0  0  0  0  0  0  0  0  0  0  0  0
    0.6357    3.2453    0.7927 H   0  0  0  0  0  0  0  0  0  0  0  0
    1.4155    1.8490    1.5292 H   0  0  0  0  0  0  0  0  0  0  0  0
   -1.2911    1.8338   -0.6743 C   0  0  0  0  0  0  0  0  0  0  0  0
   -0.6914    1.7138   -1.5776 H   0  0  0  0  0  0  0  0  0  0  0  0
   -2.1709    1.1962   -0.7607 H   0  0  0  0  0  0  0  0  0  0  0  0
   -1.7834    3.2856   -0.6026 C   0  0  0  0  0  0  0  0  0  0  0  0
   -0.9406    3.9764   -0.6223 H   0  0  0  0  0  0  0  0  0  0  0  0
   -2.4209    3.4920   -1.4626 H   0  0  0  0  0  0  0  0  0  0  0  0
   -2.3595    3.4395    0.3105 H   0  0  0  0  0  0  0  0  0  0  0  0
    0.7013   -0.6147    1.6707 C   0  0  0  0  0  0  0  0  0  0  0  0
    0.9107    0.0963    2.6524 O   0  0  0  0  0  0  0  0  0  0  0  0
    1.2679   -1.8194    1.5259 N   0  0  0  0  0  0  0  0  0  0  0  0
    1.0402   -2.3502    0.7001 H   0  0  0  0  0  0  0  0  0  0  0  0
    2.1945   -2.4095    2.4899 C   0  0  0  0  0  0  0  0  0  0  0  0
    1.7476   -2.3961    3.4865 H   0  0  0  0  0  0  0  0  0  0  0  0
    2.4236   -3.4397    2.2134 H   0  0  0  0  0  0  0  0  0  0  0  0
    3.1174   -1.8269    2.5163 H   0  0  0  0  0  0  0  0  0  0  0  0
  5  6  2  0  0  0  0
  5  7  1  0  0  0  0
  2  3  1  0  0  0  0
  2  4  1  0  0  0  0
  2  5  1  0  0  0  0
  1  2  1  0  0  0  0
 24 25  2  0  0  0  0
 24 26  1  0  0  0  0
 20 21  1  0  0  0  0
 20 22  1  0  0  0  0
 20 23  1  0  0  0  0
 17 18  1  0  0  0  0
 17 19  1  0  0  0  0
 17 20  1  0  0  0  0
 13 14  1  0  0  0  0
 13 15  1  0  0  0  0
 13 16  1  0  0  0  0
 11 12  1  0  0  0  0
 11 13  1  0  0  0  0
 11 17  1  0  0  0  0
  9 10  1  0  0  0  0
  9 11  1  0  0  0  0
  9 24  1  0  0  0  0
  7  8  1  0  0  0  0
  7  9  1  0  0  0  0
 28 29  1  0  0  0  0
 28 30  1  0  0  0  0
 28 31  1  0  0  0  0
 26 27  1  0  0  0  0
 26 28  1  0  0  0  0
M  END
$$$$
default_name
  -OEChem-01062215323D

 31 30  0     1  0  0  0  0  0999 V2000
   -3.0760   -3.6390    1.5496 H   0  0  0  0  0  0  0  0  0  0  0  0
   -3.0940   -2.6290    1.1426 C   0  0  0  0  0  0  0  0  0  0  0  0
   -3.7160   -1.9930    1.7706 H   0  0  0  0  0  0  0  0  0  0  0  0
   -3.4880   -2.6500    0.1286 H   0  0  0  0  0  0  0  0  0  0  0  0
   -1.6860   -2.0850    1.1196 C   0  0  0  0  0  0  0  0  0  0  0  0
   -0.7540   -2.7700    1.5226 O   0  0  0  0  0  0  0  0  0  0  0  0
   -1.5320   -0.8490    0.6496 N   0  0  0  0  0  0  0  0  0  0  0  0
   -2.3500   -0.3360    0.3566 H   0  0  0  0  0  0  0  0  0  0  0  0
   -0.2470   -0.1410    0.5576 C   0  0  1  0  0  0  0  0  0  0  0  0
    0.2082   -0.4083   -0.3966 H   0  0  0  0  0  0  0  0  0  0  0  0
   -0.4763    1.3919    0.5620 C   0  0  1  0  0  0  0  0  0  0  0  0
   -1.0737    1.6253    1.4455 H   0  0  0  0  0  0  0  0  0  0  0  0
    0.8413    2.1837    0.6645 C   0  0  0  0  0  0  0  0  0  0  0  0
    1.4445    2.0434   -0.2343 H   0  0  0  0  0  0  0  0  0  0  0  0
    0.6357    3.2453    0.7927 H   0  0  0  0  0  0  0  0  0  0  0  0
    1.4155    1.8490    1.5292 H   0  0  0  0  0  0  0  0  0  0  0  0
   -1.2911    1.8338   -0.6743 C   0  0  0  0  0  0  0  0  0  0  0  0
   -0.6914    1.7138   -1.5776 H   0  0  0  0  0  0  0  0  0  0  0  0
   -2.1709    1.1962   -0.7607 H   0  0  0  0  0  0  0  0  0  0  0  0
   -1.7834    3.2856   -0.6026 C   0  0  0  0  0  0  0  0  0  0  0  0
   -0.9406    3.9764   -0.6223 H   0  0  0  0  0  0  0  0  0  0  0  0
   -2.4209    3.4920   -1.4626 H   0  0  0  0  0  0  0  0  0  0  0  0
   -2.3595    3.4395    0.3105 H   0  0  0  0  0  0  0  0  0  0  0  0
    0.7013   -0.6147    1.6707 C   0  0  0  0  0  0  0  0  0  0  0  0
    0.7050   -0.0520    2.7645 O   0  0  0  0  0  0  0  0  0  0  0  0
    1.4989   -1.6555    1.3989 N   0  0  0  0  0  0  0  0  0  0  0  0
    1.4322   -2.0730    0.4841 H   0  0  0  0  0  0  0  0  0  0  0  0
    2.4581   -2.2210    2.3455 C   0  0  0  0  0  0  0  0  0  0  0  0
    1.9537   -2.4556    3.2855 H   0  0  0  0  0  0  0  0  0  0  0  0
    2.9000   -3.1317    1.9385 H   0  0  0  0  0  0  0  0  0  0  0  0
    3.2469   -1.4939    2.5477 H   0  0  0  0  0  0  0  0  0  0  0  0
  5  6  2  0  0  0  0
  5  7  1  0  0  0  0
  2  3  1  0  0  0  0
  2  4  1  0  0  0  0
  2  5  1  0  0  0  0
  1  2  1  0  0  0  0
 24 25  2  0  0  0  0
 24 26  1  0  0  0  0
 20 21  1  0  0  0  0
 20 22  1  0  0  0  0
 20 23  1  0  0  0  0
 17 18  1  0  0  0  0
 17 19  1  0  0  0  0
 17 20  1  0  0  0  0
 13 14  1  0  0  0  0
 13 15  1  0  0  0  0
 13 16  1  0  0  0  0
 11 12  1  0  0  0  0
 11 13  1  0  0  0  0
 11 17  1  0  0  0  0
  9 10  1  0  0  0  0
  9 11  1  0  0  0  0
  9 24  1  0  0  0  0
  7  8  1  0  0  0  0
  7  9  1  0  0  0  0
 28 29  1  0  0  0  0
 28 30  1  0  0  0  0
 28 31  1  0  0  0  0
 26 27  1  0  0  0  0
 26 28  1  0  0  0  0
M  END
$$$$
default_name
  -OEChem-01062215323D

 31 30  0     1  0  0  0  0  0999 V2000
   -3.0760   -3.6390    1.5496 H   0  0  0  0  0  0  0  0  0  0  0  0
   -3.0940   -2.6290    1.1426 C   0  0  0  0  0  0  0  0  0  0  0  0
   -3.7160   -1.9930    1.7706 H   0  0  0  0  0  0  0  0  0  0  0  0
   -3.4880   -2.6500    0.1286 H   0  0  0  0  0  0  0  0  0  0  0  0
   -1.6860   -2.0850    1.1196 C   0  0  0  0  0  0  0  0  0  0  0  0
   -0.7540   -2.7700    1.5226 O   0  0  0  0  0  0  0  0  0  0  0  0
   -1.5320   -0.8490    0.6496 N   0  0  0  0  0  0  0  0  0  0  0  0
   -2.3500   -0.3360    0.3566 H   0  0  0  0  0  0  0  0  0  0  0  0
   -0.2470   -0.1410    0.5576 C   0  0  1  0  0  0  0  0  0  0  0  0
    0.2082   -0.4083   -0.3966 H   0  0  0  0  0  0  0  0  0  0  0  0
   -0.4763    1.3919    0.5620 C   0  0  1  0  0  0  0  0  0  0  0  0
   -1.0737    1.6253    1.4455 H   0  0  0  0  0  0  0  0  0  0  0  0
    0.8413    2.1837    0.6645 C   0  0  0  0  0  0  0  0  0  0  0  0
    1.4445    2.0434   -0.2343 H   0  0  0  0  0  0  0  0  0  0  0  0
    0.6357    3.2453    0.7927 H   0  0  0  0  0  0  0  0  0  0  0  0
    1.4155    1.8490    1.5292 H   0  0  0  0  0  0  0  0  0  0  0  0
   -1.2911    1.8338   -0.6743 C   0  0  0  0  0  0  0  0  0  0  0  0
   -0.6914    1.7138   -1.5776 H   0  0  0  0  0  0  0  0  0  0  0  0
   -2.1709    1.1962   -0.7607 H   0  0  0  0  0  0  0  0  0  0  0  0
   -1.7834    3.2856   -0.6026 C   0  0  0  0  0  0  0  0  0  0  0  0
   -0.9406    3.9764   -0.6223 H   0  0  0  0  0  0  0  0  0  0  0  0
   -2.4209    3.4920   -1.4626 H   0  0  0  0  0  0  0  0  0  0  0  0
   -2.3595    3.4395    0.3105 H   0  0  0  0  0  0  0  0  0  0  0  0
    0.7013   -0.6147    1.6707 C   0  0  0  0  0  0  0  0  0  0  0  0
    0.5253   -0.2516    2.8328 O   0  0  0  0  0  0  0  0  0  0  0  0
    1.7014   -1.4336    1.3207 N   0  0  0  0  0  0  0  0  0  0  0  0
    1.7762   -1.6973    0.3509 H   0  0  0  0  0  0  0  0  0  0  0  0
    2.6890   -1.9665    2.2572 C   0  0  0  0  0  0  0  0  0  0  0  0
    2.1800   -2.4424    3.0983 H   0  0  0  0  0  0  0  0  0  0  0  0
    3.3243   -2.7011    1.7602 H   0  0  0  0  0  0  0  0  0  0  0  0
    3.3070   -1.1529    2.6416 H   0  0  0  0  0  0  0  0  0  0  0  0
  5  6  2  0  0  0  0
  5  7  1  0  0  0  0
  2  3  1  0  0  0  0
  2  4  1  0  0  0  0
  2  5  1  0  0  0  0
  1  2  1  0  0  0  0
 24 25  2  0  0  0  0
 24 26  1  0  0  0  0
 20 21  1  0  0  0  0
 20 22  1  0  0  0  0
 20 23  1  0  0  0  0
 17 18  1  0  0  0  0
 17 19  1  0  0  0  0
 17 20  1  0  0  0  0
 13 14  1  0  0  0  0
 13 15  1  0  0  0  0
 13 16  1  0  0  0  0
 11 12  1  0  0  0  0
 11 13  1  0  0  0  0
 11 17  1  0  0  0  0
  9 10  1  0  0  0  0
  9 11  1  0  0  0  0
  9 24  1  0  0  0  0
  7  8  1  0  0  0  0
  7  9  1  0  0  0  0
 28 29  1  0  0  0  0
 28 30  1  0  0  0  0
 28 31  1  0  0  0  0
 26 27  1  0  0  0  0
 26 28  1  0  0  0  0
M  END
$$$$
default_name
  -OEChem-01062215323D

 31 30  0     1  0  0  0  0  0999 V2000
   -3.0760   -3.6390    1.5496 H   0  0  0  0  0  0  0  0  0  0  0  0
   -3.0940   -2.6290    1.1426 C   0  0  0  0  0  0  0  0  0  0  0  0
   -3.7160   -1.9930    1.7706 H   0  0  0  0  0  0  0  0  0  0  0  0
   -3.4880   -2.6500    0.1286 H   0  0  0  0  0  0  0  0  0  0  0  0
   -1.6860   -2.0850    1.1196 C   0  0  0  0  0  0  0  0  0  0  0  0
   -0.7540   -2.7700    1.5226 O   0  0  0  0  0  0  0  0  0  0  0  0
   -1.5320   -0.8490    0.6496 N   0  0  0  0  0  0  0  0  0  0  0  0
   -2.3500   -0.3360    0.3566 H   0  0  0  0  0  0  0  0  0  0  0  0
   -0.2470   -0.1410    0.5576 C   0  0  1  0  0  0  0  0  0  0  0  0
    0.2082   -0.4083   -0.3966 H   0  0  0  0  0  0  0  0  0  0  0  0
   -0.4763    1.3919    0.5620 C   0  0  1  0  0  0  0  0  0  0  0  0
   -1.0737    1.6253    1.4455 H   0  0  0  0  0  0  0  0  0  0  0  0
    0.8413    2.1837    0.6645 C   0  0  0  0  0  0  0  0  0  0  0  0
    1.4445    2.0434   -0.2343 H   0  0  0  0  0  0  0  0  0  0  0  0
    0.6357    3.2453    0.7927 H   0  0  0  0  0  0  0  0  0  0  0  0
    1.4155    1.8490    1.5292 H   0  0  0  0  0  0  0  0  0  0  0  0
   -1.2911    1.8338   -0.6743 C   0  0  0  0  0  0  0  0  0  0  0  0
   -0.6914    1.7138   -1.5776 H   0  0  0  0  0  0  0  0  0  0  0  0
   -2.1709    1.1962   -0.7607 H   0  0  0  0  0  0  0  0  0  0  0  0
   -1.7834    3.2856   -0.6026 C   0  0  0  0  0  0  0  0  0  0  0  0
   -0.9406    3.9764   -0.6223 H   0  0  0  0  0  0  0  0  0  0  0  0
   -2.4209    3.4920   -1.4626 H   0  0  0  0  0  0  0  0  0  0  0  0
   -2.3595    3.4395    0.3105 H   0  0  0  0  0  0  0  0  0  0  0  0
    0.7013   -0.6147    1.6707 C   0  0  0  0  0  0  0  0  0  0  0  0
    0.3836   -0.4891    2.8524 O   0  0  0  0  0  0  0  0  0  0  0  0
    1.8616   -1.1689    1.2969 N   0  0  0  0  0  0  0  0  0  0  0  0
    2.0486   -1.2487    0.3098 H   0  0  0  0  0  0  0  0  0  0  0  0
    2.8713   -1.6633    2.2309 C   0  0  0  0  0  0  0  0  0  0  0  0
    2.4110   -2.3573    2.9377 H   0  0  0  0  0  0  0  0  0  0  0  0
    3.6677   -2.1771    1.6906 H   0  0  0  0  0  0  0  0  0  0  0  0
    3.2937   -0.8273    2.7915 H   0  0  0  0  0  0  0  0  0  0  0  0
  5  6  2  0  0  0  0
  5  7  1  0  0  0  0
  2  3  1  0  0  0  0
  2  4  1  0  0  0  0
  2  5  1  0  0  0  0
  1  2  1  0  0  0  0
 24 25  2  0  0  0  0
 24 26  1  0  0  0  0
 20 21  1  0  0  0  0
 20 22  1  0  0  0  0
 20 23  1  0  0  0  0
 17 18  1  0  0  0  0
 17 19  1  0  0  0  0
 17 20  1  0  0  0  0
 13 14  1  0  0  0  0
 13 15  1  0  0  0  0
 13 16  1  0  0  0  0
 11 12  1  0  0  0  0
 11 13  1  0  0  0  0
 11 17  1  0  0  0  0
  9 10  1  0  0  0  0
  9 11  1  0  0  0  0
  9 24  1  0  0  0  0
  7  8  1  0  0  0  0
  7  9  1  0  0  0  0
 28 29  1  0  0  0  0
 28 30  1  0  0  0  0
 28 31  1  0  0  0  0
 26 27  1  0  0  0  0
 26 28  1  0  0  0  0
M  END
$$$$
default_name
  -OEChem-01062215323D

 31 30  0     1  0  0  0  0  0999 V2000
   -3.0760   -3.6390    1.5496 H   0  0  0  0  0  0  0  0  0  0  0  0
   -3.0940   -2.6290    1.1426 C   0  0  0  0  0  0  0  0  0  0  0  0
   -3.7160   -1.9930    1.7706 H   0  0  0  0  0  0  0  0  0  0  0  0
   -3.4880   -2.6500    0.1286 H   0  0  0  0  0  0  0  0  0  0  0  0
   -1.6860   -2.0850    1.1196 C   0  0  0  0  0  0  0  0  0  0  0  0
   -0.7540   -2.7700    1.5226 O   0  0  0  0  0  0  0  0  0  0  0  0
   -1.5320   -0.8490    0.6496 N   0  0  0  0  0  0  0  0  0  0  0  0
   -2.3500   -0.3360    0.3566 H   0  0  0  0  0  0  0  0  0  0  0  0
   -0.2470   -0.1410    0.5576 C   0  0  1  0  0  0  0  0  0  0  0  0
    0.2082   -0.4083   -0.3966 H   0  0  0  0  0  0  0  0  0  0  0  0
   -0.4763    1.3919    0.5620 C   0  0  1  0  0  0  0  0  0  0  0  0
   -1.0737    1.6253    1.4455 H   0  0  0  0  0  0  0  0  0  0  0  0
    0.8413    2.1837    0.6645 C   0  0  0  0  0  0  0  0  0  0  0  0
    1.4445    2.0434   -0.2343 H   0  0  0  0  0  0  0  0  0  0  0  0
    0.6357    3.2453    0.7927 H   0  0  0  0  0  0  0  0  0  0  0  0
    1.4155    1.8490    1.5292 H   0  0  0  0  0  0  0  0  0  0  0  0
   -1.2911    1.8338   -0.6743 C   0  0  0  0  0  0  0  0  0  0  0  0
   -0.6914    1.7138   -1.5776 H   0  0  0  0  0  0  0  0  0  0  0  0
   -2.1709    1.1962   -0.7607 H   0  0  0  0  0  0  0  0  0  0  0  0
   -1.7834    3.2856   -0.6026 C   0  0  0  0  0  0  0  0  0  0  0  0
   -0.9406    3.9764   -0.6223 H   0  0  0  0  0  0  0  0  0  0  0  0
   -2.4209    3.4920   -1.4626 H   0  0  0  0  0  0  0  0  0  0  0  0
   -2.3595    3.4395    0.3105 H   0  0  0  0  0  0  0  0  0  0  0  0
    0.7013   -0.6147    1.6707 C   0  0  0  0  0  0  0  0  0  0  0  0
    0.2896   -0.7482    2.8222 O   0  0  0  0  0  0  0  0  0  0  0  0
    1.9687   -0.8793    1.3289 N   0  0  0  0  0  0  0  0  0  0  0  0
    2.2309   -0.7577    0.3634 H   0  0  0  0  0  0  0  0  0  0  0  0
    2.9926   -1.3321    2.2685 C   0  0  0  0  0  0  0  0  0  0  0  0
    2.6310   -2.2062    2.8145 H   0  0  0  0  0  0  0  0  0  0  0  0
    3.9068   -1.5956    1.7345 H   0  0  0  0  0  0  0  0  0  0  0  0
    3.2079   -0.5392    2.9873 H   0  0  0  0  0  0  0  0  0  0  0  0
  5  6  2  0  0  0  0
  5  7  1  0  0  0  0
  2  3  1  0  0  0  0
  2  4  1  0  0  0  0
  2  5  1  0  0  0  0
  1  2  1  0  0  0  0
 24 25  2  0  0  0  0
 24 26  1  0  0  0  0
 20 21  1  0  0  0  0
 20 22  1  0  0  0  0
 20 23  1  0  0  0  0
 17 18  1  0  0  0  0
 17 19  1  0  0  0  0
 17 20  1  0  0  0  0
 13 14  1  0  0  0  0
 13 15  1  0  0  0  0
 13 16  1  0  0  0  0
 11 12  1  0  0  0  0
 11 13  1  0  0  0  0
 11 17  1  0  0  0  0
  9 10  1  0  0  0  0
  9 11  1  0  0  0  0
  9 24  1  0  0  0  0
  7  8  1  0  0  0  0
  7  9  1  0  0  0  0
 28 29  1  0  0  0  0
 28 30  1  0  0  0  0
 28 31  1  0  0  0  0
 26 27  1  0  0  0  0
 26 28  1  0  0  0  0
M  END
$$$$
default_name
  -OEChem-01062215323D

 31 30  0     1  0  0  0  0  0999 V2000
   -3.0760   -3.6390    1.5496 H   0  0  0  0  0  0  0  0  0  0  0  0
   -3.0940   -2.6290    1.1426 C   0  0  0  0  0  0  0  0  0  0  0  0
   -3.7160   -1.9930    1.7706 H   0  0  0  0  0  0  0  0  0  0  0  0
   -3.4880   -2.6500    0.1286 H   0  0  0  0  0  0  0  0  0  0  0  0
   -1.6860   -2.0850    1.1196 C   0  0  0  0  0  0  0  0  0  0  0  0
   -0.7540   -2.7700    1.5226 O   0  0  0  0  0  0  0  0  0  0  0  0
   -1.5320   -0.8490    0.6496 N   0  0  0  0  0  0  0  0  0  0  0  0
   -2.3500   -0.3360    0.3566 H   0  0  0  0  0  0  0  0  0  0  0  0
   -0.2470   -0.1410    0.5576 C   0  0  1  0  0  0  0  0  0  0  0  0
    0.2082   -0.4083   -0.3966 H   0  0  0  0  0  0  0  0  0  0  0  0
   -0.4763    1.3919    0.5620 C   0  0  1  0  0  0  0  0  0  0  0  0
   -1.0737    1.6253    1.4455 H   0  0  0  0  0  0  0  0  0  0  0  0
    0.8413    2.1837    0.6645 C   0  0  0  0  0  0  0  0  0  0  0  0
    1.4445    2.0434   -0.2343 H   0  0  0  0  0  0  0  0  0  0  0  0
    0.6357    3.2453    0.7927 H   0  0  0  0  0  0  0  0  0  0  0  0
    1.4155    1.8490    1.5292 H   0  0  0  0  0  0  0  0  0  0  0  0
   -1.2911    1.8338   -0.6743 C   0  0  0  0  0  0  0  0  0  0  0  0
   -0.6914    1.7138   -1.5776 H   0  0  0  0  0  0  0  0  0  0  0  0
   -2.1709    1.1962   -0.7607 H   0  0  0  0  0  0  0  0  0  0  0  0
   -1.7834    3.2856   -0.6026 C   0  0  0  0  0  0  0  0  0  0  0  0
   -0.9406    3.9764   -0.6223 H   0  0  0  0  0  0  0  0  0  0  0  0
   -2.4209    3.4920   -1.4626 H   0  0  0  0  0  0  0  0  0  0  0  0
   -2.3595    3.4395    0.3105 H   0  0  0  0  0  0  0  0  0  0  0  0
    0.7013   -0.6147    1.6707 C   0  0  0  0  0  0  0  0  0  0  0  0
    0.2499   -1.0112    2.7441 O   0  0  0  0  0  0  0  0  0  0  0  0
    2.0154   -0.5847    1.4145 N   0  0  0  0  0  0  0  0  0  0  0  0
    2.3107   -0.2578    0.5081 H   0  0  0  0  0  0  0  0  0  0  0  0
    3.0448   -0.9954    2.3673 C   0  0  0  0  0  0  0  0  0  0  0  0
    2.8251   -1.9993    2.7373 H   0  0  0  0  0  0  0  0  0  0  0  0
    4.0252   -0.9960    1.8888 H   0  0  0  0  0  0  0  0  0  0  0  0
    3.0553   -0.3082    3.2155 H   0  0  0  0  0  0  0  0  0  0  0  0
  5  6  2  0  0  0  0
  5  7  1  0  0  0  0
  2  3  1  0  0  0  0
  2  4  1  0  0  0  0
  2  5  1  0  0  0  0
  1  2  1  0  0  0  0
 24 25  2  0  0  0  0
 24 26  1  0  0  0  0
 20 21  1  0  0  0  0
 20 22  1  0  0  0  0
 20 23  1  0  0  0  0
 17 18  1  0  0  0  0
 17 19  1  0  0  0  0
 17 20  1  0  0  0  0
 13 14  1  0  0  0  0
 13 15  1  0  0  0  0
 13 16  1  0  0  0  0
 11 12  1  0  0  0  0
 11 13  1  0  0  0  0
 11 17  1  0  0  0  0
  9 10  1  0  0  0  0
  9 11  1  0  0  0  0
  9 24  1  0  0  0  0
  7  8  1  0  0  0  0
  7  9  1  0  0  0  0
 28 29  1  0  0  0  0
 28 30  1  0  0  0  0
 28 31  1  0  0  0  0
 26 27  1  0  0  0  0
 26 28  1  0  0  0  0
M  END
$$$$
default_name
  -OEChem-01062215323D

 31 30  0     1  0  0  0  0  0999 V2000
   -3.0760   -3.6390    1.5496 H   0  0  0  0  0  0  0  0  0  0  0  0
   -3.0940   -2.6290    1.1426 C   0  0  0  0  0  0  0  0  0  0  0  0
   -3.7160   -1.9930    1.7706 H   0  0  0  0  0  0  0  0  0  0  0  0
   -3.4880   -2.6500    0.1286 H   0  0  0  0  0  0  0  0  0  0  0  0
   -1.6860   -2.0850    1.1196 C   0  0  0  0  0  0  0  0  0  0  0  0
   -0.7540   -2.7700    1.5226 O   0  0  0  0  0  0  0  0  0  0  0  0
   -1.5320   -0.8490    0.6496 N   0  0  0  0  0  0  0  0  0  0  0  0
   -2.3500   -0.3360    0.3566 H   0  0  0  0  0  0  0  0  0  0  0  0
   -0.2470   -0.1410    0.5576 C   0  0  1  0  0  0  0  0  0  0  0  0
    0.2082   -0.4083   -0.3966 H   0  0  0  0  0  0  0  0  0  0  0  0
   -0.4763    1.3919    0.5620 C   0  0  1  0  0  0  0  0  0  0  0  0
   -1.0737    1.6253    1.4455 H   0  0  0  0  0  0  0  0  0  0  0  0
    0.8413    2.1837    0.6645 C   0  0  0  0  0  0  0  0  0  0  0  0
    1.4445    2.0434   -0.2343 H   0  0  0  0  0  0  0  0  0  0  0  0
    0.6357    3.2453    0.7927 H   0  0  0  0  0  0  0  0  0  0  0  0
    1.4155    1.8490    1.5292 H   0  0  0  0  0  0  0  0  0  0  0  0
   -1.2911    1.8338   -0.6743 C   0  0  0  0  0  0  0  0  0  0  0  0
   -0.6914    1.7138   -1.5776 H   0  0  0  0  0  0  0  0  0  0  0  0
   -2.1709    1.1962   -0.7607 H   0  0  0  0  0  0  0  0  0  0  0  0
   -1.7834    3.2856   -0.6026 C   0  0  0  0  0  0  0  0  0  0  0  0
   -0.9406    3.9764   -0.6223 H   0  0  0  0  0  0  0  0  0  0  0  0
   -2.4209    3.4920   -1.4626 H   0  0  0  0  0  0  0  0  0  0  0  0
   -2.3595    3.4395    0.3105 H   0  0  0  0  0  0  0  0  0  0  0  0
    0.7013   -0.6147    1.6707 C   0  0  0  0  0  0  0  0  0  0  0  0
    0.2670   -1.2602    2.6235 O   0  0  0  0  0  0  0  0  0  0  0  0
    1.9983   -0.3050    1.5481 N   0  0  0  0  0  0  0  0  0  0  0  0
    2.2826    0.2168    0.7341 H   0  0  0  0  0  0  0  0  0  0  0  0
    3.0242   -0.6762    2.5208 C   0  0  0  0  0  0  0  0  0  0  0  0
    2.9799   -1.7508    2.7111 H   0  0  0  0  0  0  0  0  0  0  0  0
    4.0149   -0.4194    2.1430 H   0  0  0  0  0  0  0  0  0  0  0  0
    2.8465   -0.1502    3.4607 H   0  0  0  0  0  0  0  0  0  0  0  0
  5  6  2  0  0  0  0
  5  7  1  0  0  0  0
  2  3  1  0  0  0  0
  2  4  1  0  0  0  0
  2  5  1  0  0  0  0
  1  2  1  0  0  0  0
 24 25  2  0  0  0  0
 24 26  1  0  0  0  0
 20 21  1  0  0  0  0
 20 22  1  0  0  0  0
 20 23  1  0  0  0  0
 17 18  1  0  0  0  0
 17 19  1  0  0  0  0
 17 20  1  0  0  0  0
 13 14  1  0  0  0  0
 13 15  1  0  0  0  0
 13 16  1  0  0  0  0
 11 12  1  0  0  0  0
 11 13  1  0  0  0  0
 11 17  1  0  0  0  0
  9 10  1  0  0  0  0
  9 11  1  0  0  0  0
  9 24  1  0  0  0  0
  7  8  1  0  0  0  0
  7  9  1  0  0  0  0
 28 29  1  0  0  0  0
 28 30  1  0  0  0  0
 28 31  1  0  0  0  0
 26 27  1  0  0  0  0
 26 28  1  0  0  0  0
M  END
$$$$
default_name
  -OEChem-01062215323D

 31 30  0     1  0  0  0  0  0999 V2000
   -3.0760   -3.6390    1.5496 H   0  0  0  0  0  0  0  0  0  0  0  0
   -3.0940   -2.6290    1.1426 C   0  0  0  0  0  0  0  0  0  0  0  0
   -3.7160   -1.9930    1.7706 H   0  0  0  0  0  0  0  0  0  0  0  0
   -3.4880   -2.6500    0.1286 H   0  0  0  0  0  0  0  0  0  0  0  0
   -1.6860   -2.0850    1.1196 C   0  0  0  0  0  0  0  0  0  0  0  0
   -0.7540   -2.7700    1.5226 O   0  0  0  0  0  0  0  0  0  0  0  0
   -1.5320   -0.8490    0.6496 N   0  0  0  0  0  0  0  0  0  0  0  0
   -2.3500   -0.3360    0.3566 H   0  0  0  0  0  0  0  0  0  0  0  0
   -0.2470   -0.1410    0.5576 C   0  0  1  0  0  0  0  0  0  0  0  0
    0.0793   -0.1853   -0.4820 H   0  0  0  0  0  0  0  0  0  0  0  0
   -0.4272    1.3512    0.9361 C   0  0  1  0  0  0  0  0  0  0  0  0
   -0.9040    1.3788    1.9177 H   0  0  0  0  0  0  0  0  0  0  0  0
    0.9167    2.0966    1.0467 C   0  0  0  0  0  0  0  0  0  0  0  0
    1.4003    2.1631    0.0705 H   0  0  0  0  0  0  0  0  0  0  0  0
    0.7609    3.1016    1.4357 H   0  0  0  0  0  0  0  0  0  0  0  0
    1.5822    1.5731    1.7340 H   0  0  0  0  0  0  0  0  0  0  0  0
   -1.3737    2.0640   -0.0557 C   0  0  0  0  0  0  0  0  0  0  0  0
   -0.8934    2.1513   -1.0312 H   0  0  0  0  0  0  0  0  0  0  0  0
   -2.2765    1.4644   -0.1714 H   0  0  0  0  0  0  0  0  0  0  0  0
   -1.8088    3.4625    0.4029 C   0  0  0  0  0  0  0  0  0  0  0  0
   -0.9542    4.1381    0.4328 H   0  0  0  0  0  0  0  0  0  0  0  0
   -2.5405    3.8601   -0.3008 H   0  0  0  0  0  0  0  0  0  0  0  0
   -2.2635    3.4059    1.3925 H   0  0  0  0  0  0  0  0  0  0  0  0
    0.8159   -0.8570    1.4062 C   0  0  0  0  0  0  0  0  0  0  0  0
    0.5289   -1.8787    2.0284 O   0  0  0  0  0  0  0  0  0  0  0  0
    2.0467   -0.3298    1.4253 N   0  0  0  0  0  0  0  0  0  0  0  0
    2.2104    0.5028    0.8815 H   0  0  0  0  0  0  0  0  0  0  0  0
    3.1642   -0.8865    2.1852 C   0  0  0  0  0  0  0  0  0  0  0  0
    3.2850   -1.9443    1.9413 H   0  0  0  0  0  0  0  0  0  0  0  0
    4.0867   -0.3555    1.9460 H   0  0  0  0  0  0  0  0  0  0  0  0
    2.9614   -0.7984    3.2543 H   0  0  0  0  0  0  0  0  0  0  0  0
  5  6  2  0  0  0  0
  5  7  1  0  0  0  0
  2  3  1  0  0  0  0
  2  4  1  0  0  0  0
  2  5  1  0  0  0  0
  1  2  1  0  0  0  0
 24 25  2  0  0  0  0
 24 26  1  0  0  0  0
 20 21  1  0  0  0  0
 20 22  1  0  0  0  0
 20 23  1  0  0  0  0
 17 18  1  0  0  0  0
 17 19  1  0  0  0  0
 17 20  1  0  0  0  0
 13 14  1  0  0  0  0
 13 15  1  0  0  0  0
 13 16  1  0  0  0  0
 11 12  1  0  0  0  0
 11 13  1  0  0  0  0
 11 17  1  0  0  0  0
  9 10  1  0  0  0  0
  9 11  1  0  0  0  0
  9 24  1  0  0  0  0
  7  8  1  0  0  0  0
  7  9  1  0  0  0  0
 28 29  1  0  0  0  0
 28 30  1  0  0  0  0
 28 31  1  0  0  0  0
 26 27  1  0  0  0  0
 26 28  1  0  0  0  0
M  END
$$$$
default_name
  -OEChem-01062215323D

 31 30  0     1  0  0  0  0  0999 V2000
   -3.0760   -3.6390    1.5496 H   0  0  0  0  0  0  0  0  0  0  0  0
   -3.0940   -2.6290    1.1426 C   0  0  0  0  0  0  0  0  0  0  0  0
   -3.7160   -1.9930    1.7706 H   0  0  0  0  0  0  0  0  0  0  0  0
   -3.4880   -2.6500    0.1286 H   0  0  0  0  0  0  0  0  0  0  0  0
   -1.6860   -2.0850    1.1196 C   0  0  0  0  0  0  0  0  0  0  0  0
   -0.7540   -2.7700    1.5226 O   0  0  0  0  0  0  0  0  0  0  0  0
   -1.5320   -0.8490    0.6496 N   0  0  0  0  0  0  0  0  0  0  0  0
   -2.3500   -0.3360    0.3566 H   0  0  0  0  0  0  0  0  0  0  0  0
   -0.2470   -0.1410    0.5576 C   0  0  1  0  0  0  0  0  0  0  0  0
    0.0793   -0.1853   -0.4820 H   0  0  0  0  0  0  0  0  0  0  0  0
   -0.4272    1.3512    0.9361 C   0  0  1  0  0  0  0  0  0  0  0  0
   -0.9040    1.3788    1.9177 H   0  0  0  0  0  0  0  0  0  0  0  0
    0.9167    2.0966    1.0467 C   0  0  0  0  0  0  0  0  0  0  0  0
    1.4003    2.1631    0.0705 H   0  0  0  0  0  0  0  0  0  0  0  0
    0.7609    3.1016    1.4357 H   0  0  0  0  0  0  0  0  0  0  0  0
    1.5822    1.5731    1.7340 H   0  0  0  0  0  0  0  0  0  0  0  0
   -1.3737    2.0640   -0.0557 C   0  0  0  0  0  0  0  0  0  0  0  0
   -0.8934    2.1513   -1.0312 H   0  0  0  0  0  0  0  0  0  0  0  0
   -2.2765    1.4644   -0.1714 H   0  0  0  0  0  0  0  0  0  0  0  0
   -1.8088    3.4625    0.4029 C   0  0  0  0  0  0  0  0  0  0  0  0
   -0.9542    4.1381    0.4328 H   0  0  0  0  0  0  0  0  0  0  0  0
   -2.5405    3.8601   -0.3008 H   0  0  0  0  0  0  0  0  0  0  0  0
   -2.2635    3.4059    1.3925 H   0  0  0  0  0  0  0  0  0  0  0  0
    0.8159   -0.8570    1.4062 C   0  0  0  0  0  0  0  0  0  0  0  0
    0.6243   -2.0061    1.8014 O   0  0  0  0  0  0  0  0  0  0  0  0
    1.9416   -0.1851    1.6790 N   0  0  0  0  0  0  0  0  0  0  0  0
    2.0328    0.7490    1.3117 H   0  0  0  0  0  0  0  0  0  0  0  0
    3.0432   -0.7222    2.4754 C   0  0  0  0  0  0  0  0  0  0  0  0
    3.3509   -1.6900    2.0734 H   0  0  0  0  0  0  0  0  0  0  0  0
    3.8933   -0.0388    2.4555 H   0  0  0  0  0  0  0  0  0  0  0  0
    2.7155   -0.8639    3.5071 H   0  0  0  0  0  0  0  0  0  0  0  0
  5  6  2  0  0  0  0
  5  7  1  0  0  0  0
  2  3  1  0  0  0  0
  2  4  1  0  0  0  0
  2  5  1  0  0  0  0
  1  2  1  0  0  0  0
 24 25  2  0  0  0  0
 24 26  1  0  0  0  0
 20 21  1  0  0  0  0
 20 22  1  0  0  0  0
 20 23  1  0  0  0  0
 17 18  1  0  0  0  0
 17 19  1  0  0  0  0
 17 20  1  0  0  0  0
 13 14  1  0  0  0  0
 13 15  1  0  0  0  0
 13 16  1  0  0  0  0
 11 12  1  0  0  0  0
 11 13  1  0  0  0  0
 11 17  1  0  0  0  0
  9 10  1  0  0  0  0
  9 11  1  0  0  0  0
  9 24  1  0  0  0  0
  7  8  1  0  0  0  0
  7  9  1  0  0  0  0
 28 29  1  0  0  0  0
 28 30  1  0  0  0  0
 28 31  1  0  0  0  0
 26 27  1  0  0  0  0
 26 28  1  0  0  0  0
M  END
$$$$
default_name
  -OEChem-01062215323D

 31 30  0     1  0  0  0  0  0999 V2000
   -3.0760   -3.6390    1.5496 H   0  0  0  0  0  0  0  0  0  0  0  0
   -3.0940   -2.6290    1.1426 C   0  0  0  0  0  0  0  0  0  0  0  0
   -3.7160   -1.9930    1.7706 H   0  0  0  0  0  0  0  0  0  0  0  0
   -3.4880   -2.6500    0.1286 H   0  0  0  0  0  0  0  0  0  0  0  0
   -1.6860   -2.0850    1.1196 C   0  0  0  0  0  0  0  0  0  0  0  0
   -0.7540   -2.7700    1.5226 O   0  0  0  0  0  0  0  0  0  0  0  0
   -1.5320   -0.8490    0.6496 N   0  0  0  0  0  0  0  0  0  0  0  0
   -2.3500   -0.3360    0.3566 H   0  0  0  0  0  0  0  0  0  0  0  0
   -0.2470   -0.1410    0.5576 C   0  0  1  0  0  0  0  0  0  0  0  0
    0.0793   -0.1853   -0.4820 H   0  0  0  0  0  0  0  0  0  0  0  0
   -0.4272    1.3512    0.9361 C   0  0  1  0  0  0  0  0  0  0  0  0
   -0.9040    1.3788    1.9177 H   0  0  0  0  0  0  0  0  0  0  0  0
    0.9167    2.0966    1.0467 C   0  0  0  0  0  0  0  0  0  0  0  0
    1.4003    2.1631    0.0705 H   0  0  0  0  0  0  0  0  0  0  0  0
    0.7609    3.1016    1.4357 H   0  0  0  0  0  0  0  0  0  0  0  0
    1.5822    1.5731    1.7340 H   0  0  0  0  0  0  0  0  0  0  0  0
   -1.3737    2.0640   -0.0557 C   0  0  0  0  0  0  0  0  0  0  0  0
   -0.8934    2.1513   -1.0312 H   0  0  0  0  0  0  0  0  0  0  0  0
   -2.2765    1.4644   -0.1714 H   0  0  0  0  0  0  0  0  0  0  0  0
   -1.8088    3.4625    0.4029 C   0  0  0  0  0  0  0  0  0  0  0  0
   -0.9542    4.1381    0.4328 H   0  0  0  0  0  0  0  0  0  0  0  0
   -2.5405    3.8601   -0.3008 H   0  0  0  0  0  0  0  0  0  0  0  0
   -2.2635    3.4059    1.3925 H   0  0  0  0  0  0  0  0  0  0  0  0
    0.8159   -0.8570    1.4062 C   0  0  0  0  0  0  0  0  0  0  0  0
    0.7620   -2.0749    1.5708 O   0  0  0  0  0  0  0  0  0  0  0  0
    1.7889   -0.1057    1.9372 N   0  0  0  0  0  0  0  0  0  0  0  0
    1.7742    0.8844    1.7499 H   0  0  0  0  0  0  0  0  0  0  0  0
    2.8678   -0.6327    2.7706 C   0  0  0  0  0  0  0  0  0  0  0  0
    3.3622   -1.4587    2.2544 H   0  0  0  0  0  0  0  0  0  0  0  0
    3.5999    0.1483    2.9810 H   0  0  0  0  0  0  0  0  0  0  0  0
    2.4568   -1.0076    3.7099 H   0  0  0  0  0  0  0  0  0  0  0  0
  5  6  2  0  0  0  0
  5  7  1  0  0  0  0
  2  3  1  0  0  0  0
  2  4  1  0  0  0  0
  2  5  1  0  0  0  0
  1  2  1  0  0  0  0
 24 25  2  0  0  0  0
 24 26  1  0  0  0  0
 20 21  1  0  0  0  0
 20 22  1  0  0  0  0
 20 23  1  0  0  0  0
 17 18  1  0  0  0  0
 17 19  1  0  0  0  0
 17 20  1  0  0  0  0
 13 14  1  0  0  0  0
 13 15  1  0  0  0  0
 13 16  1  0  0  0  0
 11 12  1  0  0  0  0
 11 13  1  0  0  0  0
 11 17  1  0  0  0  0
  9 10  1  0  0  0  0
  9 11  1  0  0  0  0
  9 24  1  0  0  0  0
  7  8  1  0  0  0  0
  7  9  1  0  0  0  0
 28 29  1  0  0  0  0
 28 30  1  0  0  0  0
 28 31  1  0  0  0  0
 26 27  1  0  0  0  0
 26 28  1  0  0  0  0
M  END
$$$$
default_name
  -OEChem-01062215323D

 31 30  0     1  0  0  0  0  0999 V2000
   -3.0760   -3.6390    1.5496 H   0  0  0  0  0  0  0  0  0  0  0  0
   -3.0940   -2.6290    1.1426 C   0  0  0  0  0  0  0  0  0  0  0  0
   -3.7160   -1.9930    1.7706 H   0  0  0  0  0  0  0  0  0  0  0  0
   -3.4880   -2.6500    0.1286 H   0  0  0  0  0  0  0  0  0  0  0  0
   -1.6860   -2.0850    1.1196 C   0  0  0  0  0  0  0  0  0  0  0  0
   -0.7540   -2.7700    1.5226 O   0  0  0  0  0  0  0  0  0  0  0  0
   -1.5320   -0.8490    0.6496 N   0  0  0  0  0  0  0  0  0  0  0  0
   -2.3500   -0.3360    0.3566 H   0  0  0  0  0  0  0  0  0  0  0  0
   -0.2470   -0.1410    0.5576 C   0  0  1  0  0  0  0  0  0  0  0  0
    0.0793   -0.1853   -0.4820 H   0  0  0  0  0  0  0  0  0  0  0  0
   -0.4272    1.3512    0.9361 C   0  0  1  0  0  0  0  0  0  0  0  0
   -0.9040    1.3788    1.9177 H   0  0  0  0  0  0  0  0  0  0  0  0
    0.9167    2.0966    1.0467 C   0  0  0  0  0  0  0  0  0  0  0  0
    1.4003    2.1631    0.0705 H   0  0  0  0  0  0  0  0  0  0  0  0
    0.7609    3.1016    1.4357 H   0  0  0  0  0  0  0  0  0  0  0  0
    1.5822    1.5731    1.7340 H   0  0  0  0  0  0  0  0  0  0  0  0
   -1.3737    2.0640   -0.0557 C   0  0  0  0  0  0  0  0  0  0  0  0
   -0.8934    2.1513   -1.0312 H   0  0  0  0  0  0  0  0  0  0  0  0
   -2.2765    1.4644   -0.1714 H   0  0  0  0  0  0  0  0  0  0  0  0
   -1.8088    3.4625    0.4029 C   0  0  0  0  0  0  0  0  0  0  0  0
   -0.9542    4.1381    0.4328 H   0  0  0  0  0  0  0  0  0  0  0  0
   -2.5405    3.8601   -0.3008 H   0  0  0  0  0  0  0  0  0  0  0  0
   -2.2635    3.4059    1.3925 H   0  0  0  0  0  0  0  0  0  0  0  0
    0.8159   -0.8570    1.4062 C   0  0  0  0  0  0  0  0  0  0  0  0
    0.9326   -2.0805    1.3524 O   0  0  0  0  0  0  0  0  0  0  0  0
    1.5989   -0.0971    2.1825 N   0  0  0  0  0  0  0  0  0  0  0  0
    1.4523    0.8998    2.1661 H   0  0  0  0  0  0  0  0  0  0  0  0
    2.6501   -0.6242    3.0505 C   0  0  0  0  0  0  0  0  0  0  0  0
    3.3183   -1.2660    2.4721 H   0  0  0  0  0  0  0  0  0  0  0  0
    3.2263    0.1931    3.4867 H   0  0  0  0  0  0  0  0  0  0  0  0
    2.2030   -1.2196    3.8489 H   0  0  0  0  0  0  0  0  0  0  0  0
  5  6  2  0  0  0  0
  5  7  1  0  0  0  0
  2  3  1  0  0  0  0
  2  4  1  0  0  0  0
  2  5  1  0  0  0  0
  1  2  1  0  0  0  0
 24 25  2  0  0  0  0
 24 26  1  0  0  0  0
 20 21  1  0  0  0  0
 20 22  1  0  0  0  0
 20 23  1  0  0  0  0
 17 18  1  0  0  0  0
 17 19  1  0  0  0  0
 17 20  1  0  0  0  0
 13 14  1  0  0  0  0
 13 15  1  0  0  0  0
 13 16  1  0  0  0  0
 11 12  1  0  0  0  0
 11 13  1  0  0  0  0
 11 17  1  0  0  0  0
  9 10  1  0  0  0  0
  9 11  1  0  0  0  0
  9 24  1  0  0  0  0
  7  8  1  0  0  0  0
  7  9  1  0  0  0  0
 28 29  1  0  0  0  0
 28 30  1  0  0  0  0
 28 31  1  0  0  0  0
 26 27  1  0  0  0  0
 26 28  1  0  0  0  0
M  END
$$$$
default_name
  -OEChem-01062215323D

 31 30  0     1  0  0  0  0  0999 V2000
   -3.0760   -3.6390    1.5496 H   0  0  0  0  0  0  0  0  0  0  0  0
   -3.0940   -2.6290    1.1426 C   0  0  0  0  0  0  0  0  0  0  0  0
   -3.7160   -1.9930    1.7706 H   0  0  0  0  0  0  0  0  0  0  0  0
   -3.4880   -2.6500    0.1286 H   0  0  0  0  0  0  0  0  0  0  0  0
   -1.6860   -2.0850    1.1196 C   0  0  0  0  0  0  0  0  0  0  0  0
   -0.7540   -2.7700    1.5226 O   0  0  0  0  0  0  0  0  0  0  0  0
   -1.5320   -0.8490    0.6496 N   0  0  0  0  0  0  0  0  0  0  0  0
   -2.3500   -0.3360    0.3566 H   0  0  0  0  0  0  0  0  0  0  0  0
   -0.2470   -0.1410    0.5576 C   0  0  1  0  0  0  0  0  0  0  0  0
    0.0793   -0.1853   -0.4820 H   0  0  0  0  0  0  0  0  0  0  0  0
   -0.4272    1.3512    0.9361 C   0  0  1  0  0  0  0  0  0  0  0  0
   -0.9040    1.3788    1.9177 H   0  0  0  0  0  0  0  0  0  0  0  0
    0.9167    2.0966    1.0467 C   0  0  0  0  0  0  0  0  0  0  0  0
    1.4003    2.1631    0.0705 H   0  0  0  0  0  0  0  0  0  0  0  0
    0.7609    3.1016    1.4357 H   0  0  0  0  0  0  0  0  0  0  0  0
    1.5822    1.5731    1.7340 H   0  0  0  0  0  0  0  0  0  0  0  0
   -1.3737    2.0640   -0.0557 C   0  0  0  0  0  0  0  0  0  0  0  0
   -0.8934    2.1513   -1.0312 H   0  0  0  0  0  0  0  0  0  0  0  0
   -2.2765    1.4644   -0.1714 H   0  0  0  0  0  0  0  0  0  0  0  0
   -1.8088    3.4625    0.4029 C   0  0  0  0  0  0  0  0  0  0  0  0
   -0.9542    4.1381    0.4328 H   0  0  0  0  0  0  0  0  0  0  0  0
   -2.5405    3.8601   -0.3008 H   0  0  0  0  0  0  0  0  0  0  0  0
   -2.2635    3.4059    1.3925 H   0  0  0  0  0  0  0  0  0  0  0  0
    0.8159   -0.8570    1.4062 C   0  0  0  0  0  0  0  0  0  0  0  0
    1.1246   -2.0223    1.1610 O   0  0  0  0  0  0  0  0  0  0  0  0
    1.3845   -0.1599    2.3981 N   0  0  0  0  0  0  0  0  0  0  0  0
    1.0889    0.7942    2.5322 H   0  0  0  0  0  0  0  0  0  0  0  0
    2.4048   -0.6972    3.2962 C   0  0  0  0  0  0  0  0  0  0  0  0
    3.2221   -1.1251    2.7115 H   0  0  0  0  0  0  0  0  0  0  0  0
    2.7981    0.0924    3.9381 H   0  0  0  0  0  0  0  0  0  0  0  0
    1.9714   -1.4856    3.9146 H   0  0  0  0  0  0  0  0  0  0  0  0
  5  6  2  0  0  0  0
  5  7  1  0  0  0  0
  2  3  1  0  0  0  0
  2  4  1  0  0  0  0
  2  5  1  0  0  0  0
  1  2  1  0  0  0  0
 24 25  2  0  0  0  0
 24 26  1  0  0  0  0
 20 21  1  0  0  0  0
 20 22  1  0  0  0  0
 20 23  1  0  0  0  0
 17 18  1  0  0  0  0
 17 19  1  0  0  0  0
 17 20  1  0  0  0  0
 13 14  1  0  0  0  0
 13 15  1  0  0  0  0
 13 16  1  0  0  0  0
 11 12  1  0  0  0  0
 11 13  1  0  0  0  0
 11 17  1  0  0  0  0
  9 10  1  0  0  0  0
  9 11  1  0  0  0  0
  9 24  1  0  0  0  0
  7  8  1  0  0  0  0
  7  9  1  0  0  0  0
 28 29  1  0  0  0  0
 28 30  1  0  0  0  0
 28 31  1  0  0  0  0
 26 27  1  0  0  0  0
 26 28  1  0  0  0  0
M  END
$$$$
default_name
  -OEChem-01062215323D

 31 30  0     1  0  0  0  0  0999 V2000
   -3.0760   -3.6390    1.5496 H   0  0  0  0  0  0  0  0  0  0  0  0
   -3.0940   -2.6290    1.1426 C   0  0  0  0  0  0  0  0  0  0  0  0
   -3.7160   -1.9930    1.7706 H   0  0  0  0  0  0  0  0  0  0  0  0
   -3.4880   -2.6500    0.1286 H   0  0  0  0  0  0  0  0  0  0  0  0
   -1.6860   -2.0850    1.1196 C   0  0  0  0  0  0  0  0  0  0  0  0
   -0.7540   -2.7700    1.5226 O   0  0  0  0  0  0  0  0  0  0  0  0
   -1.5320   -0.8490    0.6496 N   0  0  0  0  0  0  0  0  0  0  0  0
   -2.3500   -0.3360    0.3566 H   0  0  0  0  0  0  0  0  0  0  0  0
   -0.2470   -0.1410    0.5576 C   0  0  1  0  0  0  0  0  0  0  0  0
    0.0793   -0.1853   -0.4820 H   0  0  0  0  0  0  0  0  0  0  0  0
   -0.4272    1.3512    0.9361 C   0  0  1  0  0  0  0  0  0  0  0  0
   -0.9040    1.3788    1.9177 H   0  0  0  0  0  0  0  0  0  0  0  0
    0.9167    2.0966    1.0467 C   0  0  0  0  0  0  0  0  0  0  0  0
    1.4003    2.1631    0.0705 H   0  0  0  0  0  0  0  0  0  0  0  0
    0.7609    3.1016    1.4357 H   0  0  0  0  0  0  0  0  0  0  0  0
    1.5822    1.5731    1.7340 H   0  0  0  0  0  0  0  0  0  0  0  0
   -1.3737    2.0640   -0.0557 C   0  0  0  0  0  0  0  0  0  0  0  0
   -0.8934    2.1513   -1.0312 H   0  0  0  0  0  0  0  0  0  0  0  0
   -2.2765    1.4644   -0.1714 H   0  0  0  0  0  0  0  0  0  0  0  0
   -1.8088    3.4625    0.4029 C   0  0  0  0  0  0  0  0  0  0  0  0
   -0.9542    4.1381    0.4328 H   0  0  0  0  0  0  0  0  0  0  0  0
   -2.5405    3.8601   -0.3008 H   0  0  0  0  0  0  0  0  0  0  0  0
   -2.2635    3.4059    1.3925 H   0  0  0  0  0  0  0  0  0  0  0  0
    0.8159   -0.8570    1.4062 C   0  0  0  0  0  0  0  0  0  0  0  0
    1.3248   -1.9045    1.0097 O   0  0  0  0  0  0  0  0  0  0  0  0
    1.1605   -0.2897    2.5692 N   0  0  0  0  0  0  0  0  0  0  0  0
    0.7089    0.5748    2.8230 H   0  0  0  0  0  0  0  0  0  0  0  0
    2.1487   -0.8467    3.4909 C   0  0  0  0  0  0  0  0  0  0  0  0
    3.0801   -1.0456    2.9563 H   0  0  0  0  0  0  0  0  0  0  0  0
    2.3444   -0.1468    4.3045 H   0  0  0  0  0  0  0  0  0  0  0  0
    1.7777   -1.7873    3.9025 H   0  0  0  0  0  0  0  0  0  0  0  0
  5  6  2  0  0  0  0
  5  7  1  0  0  0  0
  2  3  1  0  0  0  0
  2  4  1  0  0  0  0
  2  5  1  0  0  0  0
  1  2  1  0  0  0  0
 24 25  2  0  0  0  0
 24 26  1  0  0  0  0
 20 21  1  0  0  0  0
 20 22  1  0  0  0  0
 20 23  1  0  0  0  0
 17 18  1  0  0  0  0
 17 19  1  0  0  0  0
 17 20  1  0  0  0  0
 13 14  1  0  0  0  0
 13 15  1  0  0  0  0
 13 16  1  0  0  0  0
 11 12  1  0  0  0  0
 11 13  1  0  0  0  0
 11 17  1  0  0  0  0
  9 10  1  0  0  0  0
  9 11  1  0  0  0  0
  9 24  1  0  0  0  0
  7  8  1  0  0  0  0
  7  9  1  0  0  0  0
 28 29  1  0  0  0  0
 28 30  1  0  0  0  0
 28 31  1  0  0  0  0
 26 27  1  0  0  0  0
 26 28  1  0  0  0  0
M  END
$$$$
default_name
  -OEChem-01062215323D

 31 30  0     1  0  0  0  0  0999 V2000
   -3.0760   -3.6390    1.5496 H   0  0  0  0  0  0  0  0  0  0  0  0
   -3.0940   -2.6290    1.1426 C   0  0  0  0  0  0  0  0  0  0  0  0
   -3.7160   -1.9930    1.7706 H   0  0  0  0  0  0  0  0  0  0  0  0
   -3.4880   -2.6500    0.1286 H   0  0  0  0  0  0  0  0  0  0  0  0
   -1.6860   -2.0850    1.1196 C   0  0  0  0  0  0  0  0  0  0  0  0
   -0.7540   -2.7700    1.5226 O   0  0  0  0  0  0  0  0  0  0  0  0
   -1.5320   -0.8490    0.6496 N   0  0  0  0  0  0  0  0  0  0  0  0
   -2.3500   -0.3360    0.3566 H   0  0  0  0  0  0  0  0  0  0  0  0
   -0.2470   -0.1410    0.5576 C   0  0  1  0  0  0  0  0  0  0  0  0
    0.0793   -0.1853   -0.4820 H   0  0  0  0  0  0  0  0  0  0  0  0
   -0.4272    1.3512    0.9361 C   0  0  1  0  0  0  0  0  0  0  0  0
   -0.9040    1.3788    1.9177 H   0  0  0  0  0  0  0  0  0  0  0  0
    0.9167    2.0966    1.0467 C   0  0  0  0  0  0  0  0  0  0  0  0
    1.4003    2.1631    0.0705 H   0  0  0  0  0  0  0  0  0  0  0  0
    0.7609    3.1016    1.4357 H   0  0  0  0  0  0  0  0  0  0  0  0
    1.5822    1.5731    1.7340 H   0  0  0  0  0  0  0  0  0  0  0  0
   -1.3737    2.0640   -0.0557 C   0  0  0  0  0  0  0  0  0  0  0  0
   -0.8934    2.1513   -1.0312 H   0  0  0  0  0  0  0  0  0  0  0  0
   -2.2765    1.4644   -0.1714 H   0  0  0  0  0  0  0  0  0  0  0  0
   -1.8088    3.4625    0.4029 C   0  0  0  0  0  0  0  0  0  0  0  0
   -0.9542    4.1381    0.4328 H   0  0  0  0  0  0  0  0  0  0  0  0
   -2.5405    3.8601   -0.3008 H   0  0  0  0  0  0  0  0  0  0  0  0
   -2.2635    3.4059    1.3925 H   0  0  0  0  0  0  0  0  0  0  0  0
    0.8159   -0.8570    1.4062 C   0  0  0  0  0  0  0  0  0  0  0  0
    1.5195   -1.7350    0.9088 O   0  0  0  0  0  0  0  0  0  0  0  0
    0.9419   -0.4777    2.6842 N   0  0  0  0  0  0  0  0  0  0  0  0
    0.3381    0.2564    3.0189 H   0  0  0  0  0  0  0  0  0  0  0  0
    1.8991   -1.0625    3.6213 C   0  0  0  0  0  0  0  0  0  0  0  0
    2.9022   -1.0329    3.1899 H   0  0  0  0  0  0  0  0  0  0  0  0
    1.8962   -0.5083    4.5609 H   0  0  0  0  0  0  0  0  0  0  0  0
    1.6353   -2.1043    3.8135 H   0  0  0  0  0  0  0  0  0  0  0  0
  5  6  2  0  0  0  0
  5  7  1  0  0  0  0
  2  3  1  0  0  0  0
  2  4  1  0  0  0  0
  2  5  1  0  0  0  0
  1  2  1  0  0  0  0
 24 25  2  0  0  0  0
 24 26  1  0  0  0  0
 20 21  1  0  0  0  0
 20 22  1  0  0  0  0
 20 23  1  0  0  0  0
 17 18  1  0  0  0  0
 17 19  1  0  0  0  0
 17 20  1  0  0  0  0
 13 14  1  0  0  0  0
 13 15  1  0  0  0  0
 13 16  1  0  0  0  0
 11 12  1  0  0  0  0
 11 13  1  0  0  0  0
 11 17  1  0  0  0  0
  9 10  1  0  0  0  0
  9 11  1  0  0  0  0
  9 24  1  0  0  0  0
  7  8  1  0  0  0  0
  7  9  1  0  0  0  0
 28 29  1  0  0  0  0
 28 30  1  0  0  0  0
 28 31  1  0  0  0  0
 26 27  1  0  0  0  0
 26 28  1  0  0  0  0
M  END
$$$$
default_name
  -OEChem-01062215323D

 31 30  0     1  0  0  0  0  0999 V2000
   -3.0760   -3.6390    1.5496 H   0  0  0  0  0  0  0  0  0  0  0  0
   -3.0940   -2.6290    1.1426 C   0  0  0  0  0  0  0  0  0  0  0  0
   -3.7160   -1.9930    1.7706 H   0  0  0  0  0  0  0  0  0  0  0  0
   -3.4880   -2.6500    0.1286 H   0  0  0  0  0  0  0  0  0  0  0  0
   -1.6860   -2.0850    1.1196 C   0  0  0  0  0  0  0  0  0  0  0  0
   -0.7540   -2.7700    1.5226 O   0  0  0  0  0  0  0  0  0  0  0  0
   -1.5320   -0.8490    0.6496 N   0  0  0  0  0  0  0  0  0  0  0  0
   -2.3500   -0.3360    0.3566 H   0  0  0  0  0  0  0  0  0  0  0  0
   -0.2470   -0.1410    0.5576 C   0  0  1  0  0  0  0  0  0  0  0  0
    0.0793   -0.1853   -0.4820 H   0  0  0  0  0  0  0  0  0  0  0  0
   -0.4272    1.3512    0.9361 C   0  0  1  0  0  0  0  0  0  0  0  0
   -0.9040    1.3788    1.9177 H   0  0  0  0  0  0  0  0  0  0  0  0
    0.9167    2.0966    1.0467 C   0  0  0  0  0  0  0  0  0  0  0  0
    1.4003    2.1631    0.0705 H   0  0  0  0  0  0  0  0  0  0  0  0
    0.7609    3.1016    1.4357 H   0  0  0  0  0  0  0  0  0  0  0  0
    1.5822    1.5731    1.7340 H   0  0  0  0  0  0  0  0  0  0  0  0
   -1.3737    2.0640   -0.0557 C   0  0  0  0  0  0  0  0  0  0  0  0
   -0.8934    2.1513   -1.0312 H   0  0  0  0  0  0  0  0  0  0  0  0
   -2.2765    1.4644   -0.1714 H   0  0  0  0  0  0  0  0  0  0  0  0
   -1.8088    3.4625    0.4029 C   0  0  0  0  0  0  0  0  0  0  0  0
   -0.9542    4.1381    0.4328 H   0  0  0  0  0  0  0  0  0  0  0  0
   -2.5405    3.8601   -0.3008 H   0  0  0  0  0  0  0  0  0  0  0  0
   -2.2635    3.4059    1.3925 H   0  0  0  0  0  0  0  0  0  0  0  0
    0.8159   -0.8570    1.4062 C   0  0  0  0  0  0  0  0  0  0  0  0
    1.6956   -1.5253    0.8651 O   0  0  0  0  0  0  0  0  0  0  0  0
    0.7439   -0.7111    2.7354 N   0  0  0  0  0  0  0  0  0  0  0  0
    0.0018   -0.1391    3.1064 H   0  0  0  0  0  0  0  0  0  0  0  0
    1.6732   -1.3300    3.6785 C   0  0  0  0  0  0  0  0  0  0  0  0
    2.7003   -1.0879    3.3964 H   0  0  0  0  0  0  0  0  0  0  0  0
    1.4840   -0.9673    4.6899 H   0  0  0  0  0  0  0  0  0  0  0  0
    1.5537   -2.4149    3.6536 H   0  0  0  0  0  0  0  0  0  0  0  0
  5  6  2  0  0  0  0
  5  7  1  0  0  0  0
  2  3  1  0  0  0  0
  2  4  1  0  0  0  0
  2  5  1  0  0  0  0
  1  2  1  0  0  0  0
 24 25  2  0  0  0  0
 24 26  1  0  0  0  0
 20 21  1  0  0  0  0
 20 22  1  0  0  0  0
 20 23  1  0  0  0  0
 17 18  1  0  0  0  0
 17 19  1  0  0  0  0
 17 20  1  0  0  0  0
 13 14  1  0  0  0  0
 13 15  1  0  0  0  0
 13 16  1  0  0  0  0
 11 12  1  0  0  0  0
 11 13  1  0  0  0  0
 11 17  1  0  0  0  0
  9 10  1  0  0  0  0
  9 11  1  0  0  0  0
  9 24  1  0  0  0  0
  7  8  1  0  0  0  0
  7  9  1  0  0  0  0
 28 29  1  0  0  0  0
 28 30  1  0  0  0  0
 28 31  1  0  0  0  0
 26 27  1  0  0  0  0
 26 28  1  0  0  0  0
M  END
$$$$
default_name
  -OEChem-01062215323D

 31 30  0     1  0  0  0  0  0999 V2000
   -3.0760   -3.6390    1.5496 H   0  0  0  0  0  0  0  0  0  0  0  0
   -3.0940   -2.6290    1.1426 C   0  0  0  0  0  0  0  0  0  0  0  0
   -3.7160   -1.9930    1.7706 H   0  0  0  0  0  0  0  0  0  0  0  0
   -3.4880   -2.6500    0.1286 H   0  0  0  0  0  0  0  0  0  0  0  0
   -1.6860   -2.0850    1.1196 C   0  0  0  0  0  0  0  0  0  0  0  0
   -0.7540   -2.7700    1.5226 O   0  0  0  0  0  0  0  0  0  0  0  0
   -1.5320   -0.8490    0.6496 N   0  0  0  0  0  0  0  0  0  0  0  0
   -2.3500   -0.3360    0.3566 H   0  0  0  0  0  0  0  0  0  0  0  0
   -0.2470   -0.1410    0.5576 C   0  0  1  0  0  0  0  0  0  0  0  0
    0.0793   -0.1853   -0.4820 H   0  0  0  0  0  0  0  0  0  0  0  0
   -0.4272    1.3512    0.9361 C   0  0  1  0  0  0  0  0  0  0  0  0
   -0.9040    1.3788    1.9177 H   0  0  0  0  0  0  0  0  0  0  0  0
    0.9167    2.0966    1.0467 C   0  0  0  0  0  0  0  0  0  0  0  0
    1.4003    2.1631    0.0705 H   0  0  0  0  0  0  0  0  0  0  0  0
    0.7609    3.1016    1.4357 H   0  0  0  0  0  0  0  0  0  0  0  0
    1.5822    1.5731    1.7340 H   0  0  0  0  0  0  0  0  0  0  0  0
   -1.3737    2.0640   -0.0557 C   0  0  0  0  0  0  0  0  0  0  0  0
   -0.8934    2.1513   -1.0312 H   0  0  0  0  0  0  0  0  0  0  0  0
   -2.2765    1.4644   -0.1714 H   0  0  0  0  0  0  0  0  0  0  0  0
   -1.8088    3.4625    0.4029 C   0  0  0  0  0  0  0  0  0  0  0  0
   -0.9542    4.1381    0.4328 H   0  0  0  0  0  0  0  0  0  0  0  0
   -2.5405    3.8601   -0.3008 H   0  0  0  0  0  0  0  0  0  0  0  0
   -2.2635    3.4059    1.3925 H   0  0  0  0  0  0  0  0  0  0  0  0
    0.8159   -0.8570    1.4062 C   0  0  0  0  0  0  0  0  0  0  0  0
    1.8410   -1.2899    0.8817 O   0  0  0  0  0  0  0  0  0  0  0  0
    0.5797   -0.9741    2.7191 N   0  0  0  0  0  0  0  0  0  0  0  0
   -0.2771   -0.5848    3.0796 H   0  0  0  0  0  0  0  0  0  0  0  0
    1.4864   -1.6309    3.6587 C   0  0  0  0  0  0  0  0  0  0  0  0
    2.4882   -1.2069    3.5617 H   0  0  0  0  0  0  0  0  0  0  0  0
    1.1359   -1.4928    4.6826 H   0  0  0  0  0  0  0  0  0  0  0  0
    1.5385   -2.6979    3.4337 H   0  0  0  0  0  0  0  0  0  0  0  0
  5  6  2  0  0  0  0
  5  7  1  0  0  0  0
  2  3  1  0  0  0  0
  2  4  1  0  0  0  0
  2  5  1  0  0  0  0
  1  2  1  0  0  0  0
 24 25  2  0  0  0  0
 24 26  1  0  0  0  0
 20 21  1  0  0  0  0
 20 22  1  0  0  0  0
 20 23  1  0  0  0  0
 17 18  1  0  0  0  0
 17 19  1  0  0  0  0
 17 20  1  0  0  0  0
 13 14  1  0  0  0  0
 13 15  1  0  0  0  0
 13 16  1  0  0  0  0
 11 12  1  0  0  0  0
 11 13  1  0  0  0  0
 11 17  1  0  0  0  0
  9 10  1  0  0  0  0
  9 11  1  0  0  0  0
  9 24  1  0  0  0  0
  7  8  1  0  0  0  0
  7  9  1  0  0  0  0
 28 29  1  0  0  0  0
 28 30  1  0  0  0  0
 28 31  1  0  0  0  0
 26 27  1  0  0  0  0
 26 28  1  0  0  0  0
M  END
$$$$
default_name
  -OEChem-01062215323D

 31 30  0     1  0  0  0  0  0999 V2000
   -3.0760   -3.6390    1.5496 H   0  0  0  0  0  0  0  0  0  0  0  0
   -3.0940   -2.6290    1.1426 C   0  0  0  0  0  0  0  0  0  0  0  0
   -3.7160   -1.9930    1.7706 H   0  0  0  0  0  0  0  0  0  0  0  0
   -3.4880   -2.6500    0.1286 H   0  0  0  0  0  0  0  0  0  0  0  0
   -1.6860   -2.0850    1.1196 C   0  0  0  0  0  0  0  0  0  0  0  0
   -0.7540   -2.7700    1.5226 O   0  0  0  0  0  0  0  0  0  0  0  0
   -1.5320   -0.8490    0.6496 N   0  0  0  0  0  0  0  0  0  0  0  0
   -2.3500   -0.3360    0.3566 H   0  0  0  0  0  0  0  0  0  0  0  0
   -0.2470   -0.1410    0.5576 C   0  0  1  0  0  0  0  0  0  0  0  0
    0.0793   -0.1853   -0.4820 H   0  0  0  0  0  0  0  0  0  0  0  0
   -0.4272    1.3512    0.9361 C   0  0  1  0  0  0  0  0  0  0  0  0
   -0.9040    1.3788    1.9177 H   0  0  0  0  0  0  0  0  0  0  0  0
    0.9167    2.0966    1.0467 C   0  0  0  0  0  0  0  0  0  0  0  0
    1.4003    2.1631    0.0705 H   0  0  0  0  0  0  0  0  0  0  0  0
    0.7609    3.1016    1.4357 H   0  0  0  0  0  0  0  0  0  0  0  0
    1.5822    1.5731    1.7340 H   0  0  0  0  0  0  0  0  0  0  0  0
   -1.3737    2.0640   -0.0557 C   0  0  0  0  0  0  0  0  0  0  0  0
   -0.8934    2.1513   -1.0312 H   0  0  0  0  0  0  0  0  0  0  0  0
   -2.2765    1.4644   -0.1714 H   0  0  0  0  0  0  0  0  0  0  0  0
   -1.8088    3.4625    0.4029 C   0  0  0  0  0  0  0  0  0  0  0  0
   -0.9542    4.1381    0.4328 H   0  0  0  0  0  0  0  0  0  0  0  0
   -2.5405    3.8601   -0.3008 H   0  0  0  0  0  0  0  0  0  0  0  0
   -2.2635    3.4059    1.3925 H   0  0  0  0  0  0  0  0  0  0  0  0
    0.8159   -0.8570    1.4062 C   0  0  0  0  0  0  0  0  0  0  0  0
    1.9458   -1.0447    0.9574 O   0  0  0  0  0  0  0  0  0  0  0  0
    0.4607   -1.2486    2.6365 N   0  0  0  0  0  0  0  0  0  0  0  0
   -0.4795   -1.0504    2.9403 H   0  0  0  0  0  0  0  0  0  0  0  0
    1.3512   -1.9447    3.5631 C   0  0  0  0  0  0  0  0  0  0  0  0
    2.2805   -1.3816    3.6744 H   0  0  0  0  0  0  0  0  0  0  0  0
    0.8757   -2.0487    4.5395 H   0  0  0  0  0  0  0  0  0  0  0  0
    1.5908   -2.9341    3.1689 H   0  0  0  0  0  0  0  0  0  0  0  0
  5  6  2  0  0  0  0
  5  7  1  0  0  0  0
  2  3  1  0  0  0  0
  2  4  1  0  0  0  0
  2  5  1  0  0  0  0
  1  2  1  0  0  0  0
 24 25  2  0  0  0  0
 24 26  1  0  0  0  0
 20 21  1  0  0  0  0
 20 22  1  0  0  0  0
 20 23  1  0  0  0  0
 17 18  1  0  0  0  0
 17 19  1  0  0  0  0
 17 20  1  0  0  0  0
 13 14  1  0  0  0  0
 13 15  1  0  0  0  0
 13 16  1  0  0  0  0
 11 12  1  0  0  0  0
 11 13  1  0  0  0  0
 11 17  1  0  0  0  0
  9 10  1  0  0  0  0
  9 11  1  0  0  0  0
  9 24  1  0  0  0  0
  7  8  1  0  0  0  0
  7  9  1  0  0  0  0
 28 29  1  0  0  0  0
 28 30  1  0  0  0  0
 28 31  1  0  0  0  0
 26 27  1  0  0  0  0
 26 28  1  0  0  0  0
M  END
$$$$
default_name
  -OEChem-01062215323D

 31 30  0     1  0  0  0  0  0999 V2000
   -3.0760   -3.6390    1.5496 H   0  0  0  0  0  0  0  0  0  0  0  0
   -3.0940   -2.6290    1.1426 C   0  0  0  0  0  0  0  0  0  0  0  0
   -3.7160   -1.9930    1.7706 H   0  0  0  0  0  0  0  0  0  0  0  0
   -3.4880   -2.6500    0.1286 H   0  0  0  0  0  0  0  0  0  0  0  0
   -1.6860   -2.0850    1.1196 C   0  0  0  0  0  0  0  0  0  0  0  0
   -0.7540   -2.7700    1.5226 O   0  0  0  0  0  0  0  0  0  0  0  0
   -1.5320   -0.8490    0.6496 N   0  0  0  0  0  0  0  0  0  0  0  0
   -2.3500   -0.3360    0.3566 H   0  0  0  0  0  0  0  0  0  0  0  0
   -0.2470   -0.1410    0.5576 C   0  0  1  0  0  0  0  0  0  0  0  0
    0.0793   -0.1853   -0.4820 H   0  0  0  0  0  0  0  0  0  0  0  0
   -0.4272    1.3512    0.9361 C   0  0  1  0  0  0  0  0  0  0  0  0
   -0.9040    1.3788    1.9177 H   0  0  0  0  0  0  0  0  0  0  0  0
    0.9167    2.0966    1.0467 C   0  0  0  0  0  0  0  0  0  0  0  0
    1.4003    2.1631    0.0705 H   0  0  0  0  0  0  0  0  0  0  0  0
    0.7609    3.1016    1.4357 H   0  0  0  0  0  0  0  0  0  0  0  0
    1.5822    1.5731    1.7340 H   0  0  0  0  0  0  0  0  0  0  0  0
   -1.3737    2.0640   -0.0557 C   0  0  0  0  0  0  0  0  0  0  0  0
   -0.8934    2.1513   -1.0312 H   0  0  0  0  0  0  0  0  0  0  0  0
   -2.2765    1.4644   -0.1714 H   0  0  0  0  0  0  0  0  0  0  0  0
   -1.8088    3.4625    0.4029 C   0  0  0  0  0  0  0  0  0  0  0  0
   -0.9542    4.1381    0.4328 H   0  0  0  0  0  0  0  0  0  0  0  0
   -2.5405    3.8601   -0.3008 H   0  0  0  0  0  0  0  0  0  0  0  0
   -2.2635    3.4059    1.3925 H   0  0  0  0  0  0  0  0  0  0  0  0
    0.8159   -0.8570    1.4062 C   0  0  0  0  0  0  0  0  0  0  0  0
    2.0029   -0.8063    1.0870 O   0  0  0  0  0  0  0  0  0  0  0  0
    0.3950   -1.5160    2.4933 N   0  0  0  0  0  0  0  0  0  0  0  0
   -0.5917   -1.5041    2.6980 H   0  0  0  0  0  0  0  0  0  0  0  0
    1.2771   -2.2501    3.3984 C   0  0  0  0  0  0  0  0  0  0  0  0
    2.0912   -1.6003    3.7271 H   0  0  0  0  0  0  0  0  0  0  0  0
    0.7209   -2.5973    4.2704 H   0  0  0  0  0  0  0  0  0  0  0  0
    1.7071   -3.1074    2.8771 H   0  0  0  0  0  0  0  0  0  0  0  0
  5  6  2  0  0  0  0
  5  7  1  0  0  0  0
  2  3  1  0  0  0  0
  2  4  1  0  0  0  0
  2  5  1  0  0  0  0
  1  2  1  0  0  0  0
 24 25  2  0  0  0  0
 24 26  1  0  0  0  0
 20 21  1  0  0  0  0
 20 22  1  0  0  0  0
 20 23  1  0  0  0  0
 17 18  1  0  0  0  0
 17 19  1  0  0  0  0
 17 20  1  0  0  0  0
 13 14  1  0  0  0  0
 13 15  1  0  0  0  0
 13 16  1  0  0  0  0
 11 12  1  0  0  0  0
 11 13  1  0  0  0  0
 11 17  1  0  0  0  0
  9 10  1  0  0  0  0
  9 11  1  0  0  0  0
  9 24  1  0  0  0  0
  7  8  1  0  0  0  0
  7  9  1  0  0  0  0
 28 29  1  0  0  0  0
 28 30  1  0  0  0  0
 28 31  1  0  0  0  0
 26 27  1  0  0  0  0
 26 28  1  0  0  0  0
M  END
$$$$
default_name
  -OEChem-01062215323D

 31 30  0     1  0  0  0  0  0999 V2000
   -3.0760   -3.6390    1.5496 H   0  0  0  0  0  0  0  0  0  0  0  0
   -3.0940   -2.6290    1.1426 C   0  0  0  0  0  0  0  0  0  0  0  0
   -3.7160   -1.9930    1.7706 H   0  0  0  0  0  0  0  0  0  0  0  0
   -3.4880   -2.6500    0.1286 H   0  0  0  0  0  0  0  0  0  0  0  0
   -1.6860   -2.0850    1.1196 C   0  0  0  0  0  0  0  0  0  0  0  0
   -0.7540   -2.7700    1.5226 O   0  0  0  0  0  0  0  0  0  0  0  0
   -1.5320   -0.8490    0.6496 N   0  0  0  0  0  0  0  0  0  0  0  0
   -2.3500   -0.3360    0.3566 H   0  0  0  0  0  0  0  0  0  0  0  0
   -0.2470   -0.1410    0.5576 C   0  0  1  0  0  0  0  0  0  0  0  0
    0.0793   -0.1853   -0.4820 H   0  0  0  0  0  0  0  0  0  0  0  0
   -0.4272    1.3512    0.9361 C   0  0  1  0  0  0  0  0  0  0  0  0
   -0.9040    1.3788    1.9177 H   0  0  0  0  0  0  0  0  0  0  0  0
    0.9167    2.0966    1.0467 C   0  0  0  0  0  0  0  0  0  0  0  0
    1.4003    2.1631    0.0705 H   0  0  0  0  0  0  0  0  0  0  0  0
    0.7609    3.1016    1.4357 H   0  0  0  0  0  0  0  0  0  0  0  0
    1.5822    1.5731    1.7340 H   0  0  0  0  0  0  0  0  0  0  0  0
   -1.3737    2.0640   -0.0557 C   0  0  0  0  0  0  0  0  0  0  0  0
   -0.8934    2.1513   -1.0312 H   0  0  0  0  0  0  0  0  0  0  0  0
   -2.2765    1.4644   -0.1714 H   0  0  0  0  0  0  0  0  0  0  0  0
   -1.8088    3.4625    0.4029 C   0  0  0  0  0  0  0  0  0  0  0  0
   -0.9542    4.1381    0.4328 H   0  0  0  0  0  0  0  0  0  0  0  0
   -2.5405    3.8601   -0.3008 H   0  0  0  0  0  0  0  0  0  0  0  0
   -2.2635    3.4059    1.3925 H   0  0  0  0  0  0  0  0  0  0  0  0
    0.8159   -0.8570    1.4062 C   0  0  0  0  0  0  0  0  0  0  0  0
    2.0083   -0.5912    1.2617 O   0  0  0  0  0  0  0  0  0  0  0  0
    0.3869   -1.7580    2.2991 N   0  0  0  0  0  0  0  0  0  0  0  0
   -0.6061   -1.9151    2.3692 H   0  0  0  0  0  0  0  0  0  0  0  0
    1.2689   -2.5261    3.1757 C   0  0  0  0  0  0  0  0  0  0  0  0
    1.9332   -1.8479    3.7159 H   0  0  0  0  0  0  0  0  0  0  0  0
    0.6823   -3.1011    3.8936 H   0  0  0  0  0  0  0  0  0  0  0  0
    1.8793   -3.2060    2.5782 H   0  0  0  0  0  0  0  0  0  0  0  0
  5  6  2  0  0  0  0
  5  7  1  0  0  0  0
  2  3  1  0  0  0  0
  2  4  1  0  0  0  0
  2  5  1  0  0  0  0
  1  2  1  0  0  0  0
 24 25  2  0  0  0  0
 24 26  1  0  0  0  0
 20 21  1  0  0  0  0
 20 22  1  0  0  0  0
 20 23  1  0  0  0  0
 17 18  1  0  0  0  0
 17 19  1  0  0  0  0
 17 20  1  0  0  0  0
 13 14  1  0  0  0  0
 13 15  1  0  0  0  0
 13 16  1  0  0  0  0
 11 12  1  0  0  0  0
 11 13  1  0  0  0  0
 11 17  1  0  0  0  0
  9 10  1  0  0  0  0
  9 11  1  0  0  0  0
  9 24  1  0  0  0  0
  7  8  1  0  0  0  0
  7  9  1  0  0  0  0
 28 29  1  0  0  0  0
 28 30  1  0  0  0  0
 28 31  1  0  0  0  0
 26 27  1  0  0  0  0
 26 28  1  0  0  0  0
M  END
$$$$
default_name
  -OEChem-01062215323D

 31 30  0     1  0  0  0  0  0999 V2000
   -3.0760   -3.6390    1.5496 H   0  0  0  0  0  0  0  0  0  0  0  0
   -3.0940   -2.6290    1.1426 C   0  0  0  0  0  0  0  0  0  0  0  0
   -3.7160   -1.9930    1.7706 H   0  0  0  0  0  0  0  0  0  0  0  0
   -3.4880   -2.6500    0.1286 H   0  0  0  0  0  0  0  0  0  0  0  0
   -1.6860   -2.0850    1.1196 C   0  0  0  0  0  0  0  0  0  0  0  0
   -0.7540   -2.7700    1.5226 O   0  0  0  0  0  0  0  0  0  0  0  0
   -1.5320   -0.8490    0.6496 N   0  0  0  0  0  0  0  0  0  0  0  0
   -2.3500   -0.3360    0.3566 H   0  0  0  0  0  0  0  0  0  0  0  0
   -0.2470   -0.1410    0.5576 C   0  0  1  0  0  0  0  0  0  0  0  0
    0.0793   -0.1853   -0.4820 H   0  0  0  0  0  0  0  0  0  0  0  0
   -0.4272    1.3512    0.9361 C   0  0  1  0  0  0  0  0  0  0  0  0
   -0.9040    1.3788    1.9177 H   0  0  0  0  0  0  0  0  0  0  0  0
    0.9167    2.0966    1.0467 C   0  0  0  0  0  0  0  0  0  0  0  0
    1.4003    2.1631    0.0705 H   0  0  0  0  0  0  0  0  0  0  0  0
    0.7609    3.1016    1.4357 H   0  0  0  0  0  0  0  0  0  0  0  0
    1.5822    1.5731    1.7340 H   0  0  0  0  0  0  0  0  0  0  0  0
   -1.3737    2.0640   -0.0557 C   0  0  0  0  0  0  0  0  0  0  0  0
   -0.8934    2.1513   -1.0312 H   0  0  0  0  0  0  0  0  0  0  0  0
   -2.2765    1.4644   -0.1714 H   0  0  0  0  0  0  0  0  0  0  0  0
   -1.8088    3.4625    0.4029 C   0  0  0  0  0  0  0  0  0  0  0  0
   -0.9542    4.1381    0.4328 H   0  0  0  0  0  0  0  0  0  0  0  0
   -2.5405    3.8601   -0.3008 H   0  0  0  0  0  0  0  0  0  0  0  0
   -2.2635    3.4059    1.3925 H   0  0  0  0  0  0  0  0  0  0  0  0
    0.8159   -0.8570    1.4062 C   0  0  0  0  0  0  0  0  0  0  0  0
    1.9617   -0.4139    1.4697 O   0  0  0  0  0  0  0  0  0  0  0  0
    0.4371   -1.9582    2.0673 N   0  0  0  0  0  0  0  0  0  0  0  0
   -0.5216   -2.2552    1.9763 H   0  0  0  0  0  0  0  0  0  0  0  0
    1.3274   -2.7540    2.9102 C   0  0  0  0  0  0  0  0  0  0  0  0
    1.8174   -2.1078    3.6418 H   0  0  0  0  0  0  0  0  0  0  0  0
    0.7624   -3.5259    3.4349 H   0  0  0  0  0  0  0  0  0  0  0  0
    2.0957   -3.2231    2.2926 H   0  0  0  0  0  0  0  0  0  0  0  0
  5  6  2  0  0  0  0
  5  7  1  0  0  0  0
  2  3  1  0  0  0  0
  2  4  1  0  0  0  0
  2  5  1  0  0  0  0
  1  2  1  0  0  0  0
 24 25  2  0  0  0  0
 24 26  1  0  0  0  0
 20 21  1  0  0  0  0
 20 22  1  0  0  0  0
 20 23  1  0  0  0  0
 17 18  1  0  0  0  0
 17 19  1  0  0  0  0
 17 20  1  0  0  0  0
 13 14  1  0  0  0  0
 13 15  1  0  0  0  0
 13 16  1  0  0  0  0
 11 12  1  0  0  0  0
 11 13  1  0  0  0  0
 11 17  1  0  0  0  0
  9 10  1  0  0  0  0
  9 11  1  0  0  0  0
  9 24  1  0  0  0  0
  7  8  1  0  0  0  0
  7  9  1  0  0  0  0
 28 29  1  0  0  0  0
 28 30  1  0  0  0  0
 28 31  1  0  0  0  0
 26 27  1  0  0  0  0
 26 28  1  0  0  0  0
M  END
$$$$
default_name
  -OEChem-01062215323D

 31 30  0     1  0  0  0  0  0999 V2000
   -3.0760   -3.6390    1.5496 H   0  0  0  0  0  0  0  0  0  0  0  0
   -3.0940   -2.6290    1.1426 C   0  0  0  0  0  0  0  0  0  0  0  0
   -3.7160   -1.9930    1.7706 H   0  0  0  0  0  0  0  0  0  0  0  0
   -3.4880   -2.6500    0.1286 H   0  0  0  0  0  0  0  0  0  0  0  0
   -1.6860   -2.0850    1.1196 C   0  0  0  0  0  0  0  0  0  0  0  0
   -0.7540   -2.7700    1.5226 O   0  0  0  0  0  0  0  0  0  0  0  0
   -1.5320   -0.8490    0.6496 N   0  0  0  0  0  0  0  0  0  0  0  0
   -2.3500   -0.3360    0.3566 H   0  0  0  0  0  0  0  0  0  0  0  0
   -0.2470   -0.1410    0.5576 C   0  0  1  0  0  0  0  0  0  0  0  0
    0.0793   -0.1853   -0.4820 H   0  0  0  0  0  0  0  0  0  0  0  0
   -0.4272    1.3512    0.9361 C   0  0  1  0  0  0  0  0  0  0  0  0
   -0.9040    1.3788    1.9177 H   0  0  0  0  0  0  0  0  0  0  0  0
    0.9167    2.0966    1.0467 C   0  0  0  0  0  0  0  0  0  0  0  0
    1.4003    2.1631    0.0705 H   0  0  0  0  0  0  0  0  0  0  0  0
    0.7609    3.1016    1.4357 H   0  0  0  0  0  0  0  0  0  0  0  0
    1.5822    1.5731    1.7340 H   0  0  0  0  0  0  0  0  0  0  0  0
   -1.3737    2.0640   -0.0557 C   0  0  0  0  0  0  0  0  0  0  0  0
   -0.8934    2.1513   -1.0312 H   0  0  0  0  0  0  0  0  0  0  0  0
   -2.2765    1.4644   -0.1714 H   0  0  0  0  0  0  0  0  0  0  0  0
   -1.8088    3.4625    0.4029 C   0  0  0  0  0  0  0  0  0  0  0  0
   -0.9542    4.1381    0.4328 H   0  0  0  0  0  0  0  0  0  0  0  0
   -2.5405    3.8601   -0.3008 H   0  0  0  0  0  0  0  0  0  0  0  0
   -2.2635    3.4059    1.3925 H   0  0  0  0  0  0  0  0  0  0  0  0
    0.8159   -0.8570    1.4062 C   0  0  0  0  0  0  0  0  0  0  0  0
    1.8663   -0.2865    1.6967 O   0  0  0  0  0  0  0  0  0  0  0  0
    0.5422   -2.1029    1.8136 N   0  0  0  0  0  0  0  0  0  0  0  0
   -0.3440   -2.5014    1.5462 H   0  0  0  0  0  0  0  0  0  0  0  0
    1.4484   -2.9183    2.6200 C   0  0  0  0  0  0  0  0  0  0  0  0
    1.7516   -2.3620    3.5097 H   0  0  0  0  0  0  0  0  0  0  0  0
    0.9558   -3.8426    2.9254 H   0  0  0  0  0  0  0  0  0  0  0  0
    2.3417   -3.1576    2.0399 H   0  0  0  0  0  0  0  0  0  0  0  0
  5  6  2  0  0  0  0
  5  7  1  0  0  0  0
  2  3  1  0  0  0  0
  2  4  1  0  0  0  0
  2  5  1  0  0  0  0
  1  2  1  0  0  0  0
 24 25  2  0  0  0  0
 24 26  1  0  0  0  0
 20 21  1  0  0  0  0
 20 22  1  0  0  0  0
 20 23  1  0  0  0  0
 17 18  1  0  0  0  0
 17 19  1  0  0  0  0
 17 20  1  0  0  0  0
 13 14  1  0  0  0  0
 13 15  1  0  0  0  0
 13 16  1  0  0  0  0
 11 12  1  0  0  0  0
 11 13  1  0  0  0  0
 11 17  1  0  0  0  0
  9 10  1  0  0  0  0
  9 11  1  0  0  0  0
  9 24  1  0  0  0  0
  7  8  1  0  0  0  0
  7  9  1  0  0  0  0
 28 29  1  0  0  0  0
 28 30  1  0  0  0  0
 28 31  1  0  0  0  0
 26 27  1  0  0  0  0
 26 28  1  0  0  0  0
M  END
$$$$
default_name
  -OEChem-01062215323D

 31 30  0     1  0  0  0  0  0999 V2000
   -3.0760   -3.6390    1.5496 H   0  0  0  0  0  0  0  0  0  0  0  0
   -3.0940   -2.6290    1.1426 C   0  0  0  0  0  0  0  0  0  0  0  0
   -3.7160   -1.9930    1.7706 H   0  0  0  0  0  0  0  0  0  0  0  0
   -3.4880   -2.6500    0.1286 H   0  0  0  0  0  0  0  0  0  0  0  0
   -1.6860   -2.0850    1.1196 C   0  0  0  0  0  0  0  0  0  0  0  0
   -0.7540   -2.7700    1.5226 O   0  0  0  0  0  0  0  0  0  0  0  0
   -1.5320   -0.8490    0.6496 N   0  0  0  0  0  0  0  0  0  0  0  0
   -2.3500   -0.3360    0.3566 H   0  0  0  0  0  0  0  0  0  0  0  0
   -0.2470   -0.1410    0.5576 C   0  0  1  0  0  0  0  0  0  0  0  0
    0.0793   -0.1853   -0.4820 H   0  0  0  0  0  0  0  0  0  0  0  0
   -0.4272    1.3512    0.9361 C   0  0  1  0  0  0  0  0  0  0  0  0
   -0.9040    1.3788    1.9177 H   0  0  0  0  0  0  0  0  0  0  0  0
    0.9167    2.0966    1.0467 C   0  0  0  0  0  0  0  0  0  0  0  0
    1.4003    2.1631    0.0705 H   0  0  0  0  0  0  0  0  0  0  0  0
    0.7609    3.1016    1.4357 H   0  0  0  0  0  0  0  0  0  0  0  0
    1.5822    1.5731    1.7340 H   0  0  0  0  0  0  0  0  0  0  0  0
   -1.3737    2.0640   -0.0557 C   0  0  0  0  0  0  0  0  0  0  0  0
   -0.8934    2.1513   -1.0312 H   0  0  0  0  0  0  0  0  0  0  0  0
   -2.2765    1.4644   -0.1714 H   0  0  0  0  0  0  0  0  0  0  0  0
   -1.8088    3.4625    0.4029 C   0  0  0  0  0  0  0  0  0  0  0  0
   -0.9542    4.1381    0.4328 H   0  0  0  0  0  0  0  0  0  0  0  0
   -2.5405    3.8601   -0.3008 H   0  0  0  0  0  0  0  0  0  0  0  0
   -2.2635    3.4059    1.3925 H   0  0  0  0  0  0  0  0  0  0  0  0
    0.8159   -0.8570    1.4062 C   0  0  0  0  0  0  0  0  0  0  0  0
    1.7286   -0.2177    1.9272 O   0  0  0  0  0  0  0  0  0  0  0  0
    0.6949   -2.1823    1.5553 N   0  0  0  0  0  0  0  0  0  0  0  0
   -0.0854   -2.6368    1.1080 H   0  0  0  0  0  0  0  0  0  0  0  0
    1.6237   -3.0078    2.3249 C   0  0  0  0  0  0  0  0  0  0  0  0
    1.7402   -2.5933    3.3287 H   0  0  0  0  0  0  0  0  0  0  0  0
    1.2493   -4.0297    2.3999 H   0  0  0  0  0  0  0  0  0  0  0  0
    2.6003   -3.0139    1.8371 H   0  0  0  0  0  0  0  0  0  0  0  0
  5  6  2  0  0  0  0
  5  7  1  0  0  0  0
  2  3  1  0  0  0  0
  2  4  1  0  0  0  0
  2  5  1  0  0  0  0
  1  2  1  0  0  0  0
 24 25  2  0  0  0  0
 24 26  1  0  0  0  0
 20 21  1  0  0  0  0
 20 22  1  0  0  0  0
 20 23  1  0  0  0  0
 17 18  1  0  0  0  0
 17 19  1  0  0  0  0
 17 20  1  0  0  0  0
 13 14  1  0  0  0  0
 13 15  1  0  0  0  0
 13 16  1  0  0  0  0
 11 12  1  0  0  0  0
 11 13  1  0  0  0  0
 11 17  1  0  0  0  0
  9 10  1  0  0  0  0
  9 11  1  0  0  0  0
  9 24  1  0  0  0  0
  7  8  1  0  0  0  0
  7  9  1  0  0  0  0
 28 29  1  0  0  0  0
 28 30  1  0  0  0  0
 28 31  1  0  0  0  0
 26 27  1  0  0  0  0
 26 28  1  0  0  0  0
M  END
$$$$
default_name
  -OEChem-01062215323D

 31 30  0     1  0  0  0  0  0999 V2000
   -3.0760   -3.6390    1.5496 H   0  0  0  0  0  0  0  0  0  0  0  0
   -3.0940   -2.6290    1.1426 C   0  0  0  0  0  0  0  0  0  0  0  0
   -3.7160   -1.9930    1.7706 H   0  0  0  0  0  0  0  0  0  0  0  0
   -3.4880   -2.6500    0.1286 H   0  0  0  0  0  0  0  0  0  0  0  0
   -1.6860   -2.0850    1.1196 C   0  0  0  0  0  0  0  0  0  0  0  0
   -0.7540   -2.7700    1.5226 O   0  0  0  0  0  0  0  0  0  0  0  0
   -1.5320   -0.8490    0.6496 N   0  0  0  0  0  0  0  0  0  0  0  0
   -2.3500   -0.3360    0.3566 H   0  0  0  0  0  0  0  0  0  0  0  0
   -0.2470   -0.1410    0.5576 C   0  0  1  0  0  0  0  0  0  0  0  0
    0.0793   -0.1853   -0.4820 H   0  0  0  0  0  0  0  0  0  0  0  0
   -0.4272    1.3512    0.9361 C   0  0  1  0  0  0  0  0  0  0  0  0
   -0.9040    1.3788    1.9177 H   0  0  0  0  0  0  0  0  0  0  0  0
    0.9167    2.0966    1.0467 C   0  0  0  0  0  0  0  0  0  0  0  0
    1.4003    2.1631    0.0705 H   0  0  0  0  0  0  0  0  0  0  0  0
    0.7609    3.1016    1.4357 H   0  0  0  0  0  0  0  0  0  0  0  0
    1.5822    1.5731    1.7340 H   0  0  0  0  0  0  0  0  0  0  0  0
   -1.3737    2.0640   -0.0557 C   0  0  0  0  0  0  0  0  0  0  0  0
   -0.8934    2.1513   -1.0312 H   0  0  0  0  0  0  0  0  0  0  0  0
   -2.2765    1.4644   -0.1714 H   0  0  0  0  0  0  0  0  0  0  0  0
   -1.8088    3.4625    0.4029 C   0  0  0  0  0  0  0  0  0  0  0  0
   -0.9542    4.1381    0.4328 H   0  0  0  0  0  0  0  0  0  0  0  0
   -2.5405    3.8601   -0.3008 H   0  0  0  0  0  0  0  0  0  0  0  0
   -2.2635    3.4059    1.3925 H   0  0  0  0  0  0  0  0  0  0  0  0
    0.8159   -0.8570    1.4062 C   0  0  0  0  0  0  0  0  0  0  0  0
    1.5580   -0.2121    2.1456 O   0  0  0  0  0  0  0  0  0  0  0  0
    0.8849   -2.1909    1.3100 N   0  0  0  0  0  0  0  0  0  0  0  0
    0.2365   -2.6522    0.6917 H   0  0  0  0  0  0  0  0  0  0  0  0
    1.8415   -3.0163    2.0449 C   0  0  0  0  0  0  0  0  0  0  0  0
    1.7842   -2.7860    3.1111 H   0  0  0  0  0  0  0  0  0  0  0  0
    1.6228   -4.0744    1.8942 H   0  0  0  0  0  0  0  0  0  0  0  0
    2.8541   -2.8019    1.6981 H   0  0  0  0  0  0  0  0  0  0  0  0
  5  6  2  0  0  0  0
  5  7  1  0  0  0  0
  2  3  1  0  0  0  0
  2  4  1  0  0  0  0
  2  5  1  0  0  0  0
  1  2  1  0  0  0  0
 24 25  2  0  0  0  0
 24 26  1  0  0  0  0
 20 21  1  0  0  0  0
 20 22  1  0  0  0  0
 20 23  1  0  0  0  0
 17 18  1  0  0  0  0
 17 19  1  0  0  0  0
 17 20  1  0  0  0  0
 13 14  1  0  0  0  0
 13 15  1  0  0  0  0
 13 16  1  0  0  0  0
 11 12  1  0  0  0  0
 11 13  1  0  0  0  0
 11 17  1  0  0  0  0
  9 10  1  0  0  0  0
  9 11  1  0  0  0  0
  9 24  1  0  0  0  0
  7  8  1  0  0  0  0
  7  9  1  0  0  0  0
 28 29  1  0  0  0  0
 28 30  1  0  0  0  0
 28 31  1  0  0  0  0
 26 27  1  0  0  0  0
 26 28  1  0  0  0  0
M  END
$$$$
default_name
  -OEChem-01062215323D

 31 30  0     1  0  0  0  0  0999 V2000
   -3.0760   -3.6390    1.5496 H   0  0  0  0  0  0  0  0  0  0  0  0
   -3.0940   -2.6290    1.1426 C   0  0  0  0  0  0  0  0  0  0  0  0
   -3.7160   -1.9930    1.7706 H   0  0  0  0  0  0  0  0  0  0  0  0
   -3.4880   -2.6500    0.1286 H   0  0  0  0  0  0  0  0  0  0  0  0
   -1.6860   -2.0850    1.1196 C   0  0  0  0  0  0  0  0  0  0  0  0
   -0.7540   -2.7700    1.5226 O   0  0  0  0  0  0  0  0  0  0  0  0
   -1.5320   -0.8490    0.6496 N   0  0  0  0  0  0  0  0  0  0  0  0
   -2.3500   -0.3360    0.3566 H   0  0  0  0  0  0  0  0  0  0  0  0
   -0.2470   -0.1410    0.5576 C   0  0  1  0  0  0  0  0  0  0  0  0
    0.0793   -0.1853   -0.4820 H   0  0  0  0  0  0  0  0  0  0  0  0
   -0.4272    1.3512    0.9361 C   0  0  1  0  0  0  0  0  0  0  0  0
   -0.9040    1.3788    1.9177 H   0  0  0  0  0  0  0  0  0  0  0  0
    0.9167    2.0966    1.0467 C   0  0  0  0  0  0  0  0  0  0  0  0
    1.4003    2.1631    0.0705 H   0  0  0  0  0  0  0  0  0  0  0  0
    0.7609    3.1016    1.4357 H   0  0  0  0  0  0  0  0  0  0  0  0
    1.5822    1.5731    1.7340 H   0  0  0  0  0  0  0  0  0  0  0  0
   -1.3737    2.0640   -0.0557 C   0  0  0  0  0  0  0  0  0  0  0  0
   -0.8934    2.1513   -1.0312 H   0  0  0  0  0  0  0  0  0  0  0  0
   -2.2765    1.4644   -0.1714 H   0  0  0  0  0  0  0  0  0  0  0  0
   -1.8088    3.4625    0.4029 C   0  0  0  0  0  0  0  0  0  0  0  0
   -0.9542    4.1381    0.4328 H   0  0  0  0  0  0  0  0  0  0  0  0
   -2.5405    3.8601   -0.3008 H   0  0  0  0  0  0  0  0  0  0  0  0
   -2.2635    3.4059    1.3925 H   0  0  0  0  0  0  0  0  0  0  0  0
    0.8159   -0.8570    1.4062 C   0  0  0  0  0  0  0  0  0  0  0  0
    1.3660   -0.2703    2.3370 O   0  0  0  0  0  0  0  0  0  0  0  0
    1.0993   -2.1281    1.0945 N   0  0  0  0  0  0  0  0  0  0  0  0
    0.5999   -2.5466    0.3257 H   0  0  0  0  0  0  0  0  0  0  0  0
    2.0868   -2.9433    1.7992 C   0  0  0  0  0  0  0  0  0  0  0  0
    1.8804   -2.9269    2.8717 H   0  0  0  0  0  0  0  0  0  0  0  0
    2.0510   -3.9738    1.4428 H   0  0  0  0  0  0  0  0  0  0  0  0
    3.0857   -2.5359    1.6324 H   0  0  0  0  0  0  0  0  0  0  0  0
  5  6  2  0  0  0  0
  5  7  1  0  0  0  0
  2  3  1  0  0  0  0
  2  4  1  0  0  0  0
  2  5  1  0  0  0  0
  1  2  1  0  0  0  0
 24 25  2  0  0  0  0
 24 26  1  0  0  0  0
 20 21  1  0  0  0  0
 20 22  1  0  0  0  0
 20 23  1  0  0  0  0
 17 18  1  0  0  0  0
 17 19  1  0  0  0  0
 17 20  1  0  0  0  0
 13 14  1  0  0  0  0
 13 15  1  0  0  0  0
 13 16  1  0  0  0  0
 11 12  1  0  0  0  0
 11 13  1  0  0  0  0
 11 17  1  0  0  0  0
  9 10  1  0  0  0  0
  9 11  1  0  0  0  0
  9 24  1  0  0  0  0
  7  8  1  0  0  0  0
  7  9  1  0  0  0  0
 28 29  1  0  0  0  0
 28 30  1  0  0  0  0
 28 31  1  0  0  0  0
 26 27  1  0  0  0  0
 26 28  1  0  0  0  0
M  END
$$$$
default_name
  -OEChem-01062215323D

 31 30  0     1  0  0  0  0  0999 V2000
   -3.0760   -3.6390    1.5496 H   0  0  0  0  0  0  0  0  0  0  0  0
   -3.0940   -2.6290    1.1426 C   0  0  0  0  0  0  0  0  0  0  0  0
   -3.7160   -1.9930    1.7706 H   0  0  0  0  0  0  0  0  0  0  0  0
   -3.4880   -2.6500    0.1286 H   0  0  0  0  0  0  0  0  0  0  0  0
   -1.6860   -2.0850    1.1196 C   0  0  0  0  0  0  0  0  0  0  0  0
   -0.7540   -2.7700    1.5226 O   0  0  0  0  0  0  0  0  0  0  0  0
   -1.5320   -0.8490    0.6496 N   0  0  0  0  0  0  0  0  0  0  0  0
   -2.3500   -0.3360    0.3566 H   0  0  0  0  0  0  0  0  0  0  0  0
   -0.2470   -0.1410    0.5576 C   0  0  1  0  0  0  0  0  0  0  0  0
    0.0793   -0.1853   -0.4820 H   0  0  0  0  0  0  0  0  0  0  0  0
   -0.4272    1.3512    0.9361 C   0  0  1  0  0  0  0  0  0  0  0  0
   -0.9040    1.3788    1.9177 H   0  0  0  0  0  0  0  0  0  0  0  0
    0.9167    2.0966    1.0467 C   0  0  0  0  0  0  0  0  0  0  0  0
    1.4003    2.1631    0.0705 H   0  0  0  0  0  0  0  0  0  0  0  0
    0.7609    3.1016    1.4357 H   0  0  0  0  0  0  0  0  0  0  0  0
    1.5822    1.5731    1.7340 H   0  0  0  0  0  0  0  0  0  0  0  0
   -1.3737    2.0640   -0.0557 C   0  0  0  0  0  0  0  0  0  0  0  0
   -0.8934    2.1513   -1.0312 H   0  0  0  0  0  0  0  0  0  0  0  0
   -2.2765    1.4644   -0.1714 H   0  0  0  0  0  0  0  0  0  0  0  0
   -1.8088    3.4625    0.4029 C   0  0  0  0  0  0  0  0  0  0  0  0
   -0.9542    4.1381    0.4328 H   0  0  0  0  0  0  0  0  0  0  0  0
   -2.5405    3.8601   -0.3008 H   0  0  0  0  0  0  0  0  0  0  0  0
   -2.2635    3.4059    1.3925 H   0  0  0  0  0  0  0  0  0  0  0  0
    0.8159   -0.8570    1.4062 C   0  0  0  0  0  0  0  0  0  0  0  0
    1.1659   -0.3881    2.4883 O   0  0  0  0  0  0  0  0  0  0  0  0
    1.3233   -1.9983    0.9234 N   0  0  0  0  0  0  0  0  0  0  0  0
    0.9799   -2.3272    0.0348 H   0  0  0  0  0  0  0  0  0  0  0  0
    2.3429   -2.7938    1.6045 C   0  0  0  0  0  0  0  0  0  0  0  0
    2.0223   -3.0064    2.6268 H   0  0  0  0  0  0  0  0  0  0  0  0
    2.5047   -3.7346    1.0764 H   0  0  0  0  0  0  0  0  0  0  0  0
    3.2794   -2.2342    1.6444 H   0  0  0  0  0  0  0  0  0  0  0  0
  5  6  2  0  0  0  0
  5  7  1  0  0  0  0
  2  3  1  0  0  0  0
  2  4  1  0  0  0  0
  2  5  1  0  0  0  0
  1  2  1  0  0  0  0
 24 25  2  0  0  0  0
 24 26  1  0  0  0  0
 20 21  1  0  0  0  0
 20 22  1  0  0  0  0
 20 23  1  0  0  0  0
 17 18  1  0  0  0  0
 17 19  1  0  0  0  0
 17 20  1  0  0  0  0
 13 14  1  0  0  0  0
 13 15  1  0  0  0  0
 13 16  1  0  0  0  0
 11 12  1  0  0  0  0
 11 13  1  0  0  0  0
 11 17  1  0  0  0  0
  9 10  1  0  0  0  0
  9 11  1  0  0  0  0
  9 24  1  0  0  0  0
  7  8  1  0  0  0  0
  7  9  1  0  0  0  0
 28 29  1  0  0  0  0
 28 30  1  0  0  0  0
 28 31  1  0  0  0  0
 26 27  1  0  0  0  0
 26 28  1  0  0  0  0
M  END
$$$$
default_name
  -OEChem-01062215323D

 31 30  0     1  0  0  0  0  0999 V2000
   -3.0760   -3.6390    1.5496 H   0  0  0  0  0  0  0  0  0  0  0  0
   -3.0940   -2.6290    1.1426 C   0  0  0  0  0  0  0  0  0  0  0  0
   -3.7160   -1.9930    1.7706 H   0  0  0  0  0  0  0  0  0  0  0  0
   -3.4880   -2.6500    0.1286 H   0  0  0  0  0  0  0  0  0  0  0  0
   -1.6860   -2.0850    1.1196 C   0  0  0  0  0  0  0  0  0  0  0  0
   -0.7540   -2.7700    1.5226 O   0  0  0  0  0  0  0  0  0  0  0  0
   -1.5320   -0.8490    0.6496 N   0  0  0  0  0  0  0  0  0  0  0  0
   -2.3500   -0.3360    0.3566 H   0  0  0  0  0  0  0  0  0  0  0  0
   -0.2470   -0.1410    0.5576 C   0  0  1  0  0  0  0  0  0  0  0  0
    0.0793   -0.1853   -0.4820 H   0  0  0  0  0  0  0  0  0  0  0  0
   -0.4272    1.3512    0.9361 C   0  0  1  0  0  0  0  0  0  0  0  0
   -0.9040    1.3788    1.9177 H   0  0  0  0  0  0  0  0  0  0  0  0
    0.9167    2.0966    1.0467 C   0  0  0  0  0  0  0  0  0  0  0  0
    1.4003    2.1631    0.0705 H   0  0  0  0  0  0  0  0  0  0  0  0
    0.7609    3.1016    1.4357 H   0  0  0  0  0  0  0  0  0  0  0  0
    1.5822    1.5731    1.7340 H   0  0  0  0  0  0  0  0  0  0  0  0
   -1.3737    2.0640   -0.0557 C   0  0  0  0  0  0  0  0  0  0  0  0
   -0.8934    2.1513   -1.0312 H   0  0  0  0  0  0  0  0  0  0  0  0
   -2.2765    1.4644   -0.1714 H   0  0  0  0  0  0  0  0  0  0  0  0
   -1.8088    3.4625    0.4029 C   0  0  0  0  0  0  0  0  0  0  0  0
   -0.9542    4.1381    0.4328 H   0  0  0  0  0  0  0  0  0  0  0  0
   -2.5405    3.8601   -0.3008 H   0  0  0  0  0  0  0  0  0  0  0  0
   -2.2635    3.4059    1.3925 H   0  0  0  0  0  0  0  0  0  0  0  0
    0.8159   -0.8570    1.4062 C   0  0  0  0  0  0  0  0  0  0  0  0
    0.9711   -0.5576    2.5892 O   0  0  0  0  0  0  0  0  0  0  0  0
    1.5419   -1.8103    0.8083 N   0  0  0  0  0  0  0  0  0  0  0  0
    1.3507   -2.0088   -0.1610 H   0  0  0  0  0  0  0  0  0  0  0  0
    2.5924   -2.5779    1.4741 C   0  0  0  0  0  0  0  0  0  0  0  0
    2.2003   -3.0191    2.3932 H   0  0  0  0  0  0  0  0  0  0  0  0
    2.9529   -3.3731    0.8199 H   0  0  0  0  0  0  0  0  0  0  0  0
    3.4218   -1.9172    1.7334 H   0  0  0  0  0  0  0  0  0  0  0  0
  5  6  2  0  0  0  0
  5  7  1  0  0  0  0
  2  3  1  0  0  0  0
  2  4  1  0  0  0  0
  2  5  1  0  0  0  0
  1  2  1  0  0  0  0
 24 25  2  0  0  0  0
 24 26  1  0  0  0  0
 20 21  1  0  0  0  0
 20 22  1  0  0  0  0
 20 23  1  0  0  0  0
 17 18  1  0  0  0  0
 17 19  1  0  0  0  0
 17 20  1  0  0  0  0
 13 14  1  0  0  0  0
 13 15  1  0  0  0  0
 13 16  1  0  0  0  0
 11 12  1  0  0  0  0
 11 13  1  0  0  0  0
 11 17  1  0  0  0  0
  9 10  1  0  0  0  0
  9 11  1  0  0  0  0
  9 24  1  0  0  0  0
  7  8  1  0  0  0  0
  7  9  1  0  0  0  0
 28 29  1  0  0  0  0
 28 30  1  0  0  0  0
 28 31  1  0  0  0  0
 26 27  1  0  0  0  0
 26 28  1  0  0  0  0
M  END
$$$$
default_name
  -OEChem-01062215323D

 31 30  0     1  0  0  0  0  0999 V2000
   -3.0760   -3.6390    1.5496 H   0  0  0  0  0  0  0  0  0  0  0  0
   -3.0940   -2.6290    1.1426 C   0  0  0  0  0  0  0  0  0  0  0  0
   -3.7160   -1.9930    1.7706 H   0  0  0  0  0  0  0  0  0  0  0  0
   -3.4880   -2.6500    0.1286 H   0  0  0  0  0  0  0  0  0  0  0  0
   -1.6860   -2.0850    1.1196 C   0  0  0  0  0  0  0  0  0  0  0  0
   -0.7540   -2.7700    1.5226 O   0  0  0  0  0  0  0  0  0  0  0  0
   -1.5320   -0.8490    0.6496 N   0  0  0  0  0  0  0  0  0  0  0  0
   -2.3500   -0.3360    0.3566 H   0  0  0  0  0  0  0  0  0  0  0  0
   -0.2470   -0.1410    0.5576 C   0  0  1  0  0  0  0  0  0  0  0  0
    0.0793   -0.1853   -0.4820 H   0  0  0  0  0  0  0  0  0  0  0  0
   -0.4272    1.3512    0.9361 C   0  0  1  0  0  0  0  0  0  0  0  0
   -0.9040    1.3788    1.9177 H   0  0  0  0  0  0  0  0  0  0  0  0
    0.9167    2.0966    1.0467 C   0  0  0  0  0  0  0  0  0  0  0  0
    1.4003    2.1631    0.0705 H   0  0  0  0  0  0  0  0  0  0  0  0
    0.7609    3.1016    1.4357 H   0  0  0  0  0  0  0  0  0  0  0  0
    1.5822    1.5731    1.7340 H   0  0  0  0  0  0  0  0  0  0  0  0
   -1.3737    2.0640   -0.0557 C   0  0  0  0  0  0  0  0  0  0  0  0
   -0.8934    2.1513   -1.0312 H   0  0  0  0  0  0  0  0  0  0  0  0
   -2.2765    1.4644   -0.1714 H   0  0  0  0  0  0  0  0  0  0  0  0
   -1.8088    3.4625    0.4029 C   0  0  0  0  0  0  0  0  0  0  0  0
   -0.9542    4.1381    0.4328 H   0  0  0  0  0  0  0  0  0  0  0  0
   -2.5405    3.8601   -0.3008 H   0  0  0  0  0  0  0  0  0  0  0  0
   -2.2635    3.4059    1.3925 H   0  0  0  0  0  0  0  0  0  0  0  0
    0.8159   -0.8570    1.4062 C   0  0  0  0  0  0  0  0  0  0  0  0
    0.7950   -0.7672    2.6329 O   0  0  0  0  0  0  0  0  0  0  0  0
    1.7399   -1.5768    0.7572 N   0  0  0  0  0  0  0  0  0  0  0  0
    1.6870   -1.6133   -0.2485 H   0  0  0  0  0  0  0  0  0  0  0  0
    2.8183   -2.3105    1.4169 C   0  0  0  0  0  0  0  0  0  0  0  0
    2.4022   -2.9641    2.1867 H   0  0  0  0  0  0  0  0  0  0  0  0
    3.3651   -2.9140    0.6910 H   0  0  0  0  0  0  0  0  0  0  0  0
    3.5034   -1.6066    1.8933 H   0  0  0  0  0  0  0  0  0  0  0  0
  5  6  2  0  0  0  0
  5  7  1  0  0  0  0
  2  3  1  0  0  0  0
  2  4  1  0  0  0  0
  2  5  1  0  0  0  0
  1  2  1  0  0  0  0
 24 25  2  0  0  0  0
 24 26  1  0  0  0  0
 20 21  1  0  0  0  0
 20 22  1  0  0  0  0
 20 23  1  0  0  0  0
 17 18  1  0  0  0  0
 17 19  1  0  0  0  0
 17 20  1  0  0  0  0
 13 14  1  0  0  0  0
 13 15  1  0  0  0  0
 13 16  1  0  0  0  0
 11 12  1  0  0  0  0
 11 13  1  0  0  0  0
 11 17  1  0  0  0  0
  9 10  1  0  0  0  0
  9 11  1  0  0  0  0
  9 24  1  0  0  0  0
  7  8  1  0  0  0  0
  7  9  1  0  0  0  0
 28 29  1  0  0  0  0
 28 30  1  0  0  0  0
 28 31  1  0  0  0  0
 26 27  1  0  0  0  0
 26 28  1  0  0  0  0
M  END
$$$$
default_name
  -OEChem-01062215323D

 31 30  0     1  0  0  0  0  0999 V2000
   -3.0760   -3.6390    1.5496 H   0  0  0  0  0  0  0  0  0  0  0  0
   -3.0940   -2.6290    1.1426 C   0  0  0  0  0  0  0  0  0  0  0  0
   -3.7160   -1.9930    1.7706 H   0  0  0  0  0  0  0  0  0  0  0  0
   -3.4880   -2.6500    0.1286 H   0  0  0  0  0  0  0  0  0  0  0  0
   -1.6860   -2.0850    1.1196 C   0  0  0  0  0  0  0  0  0  0  0  0
   -0.7540   -2.7700    1.5226 O   0  0  0  0  0  0  0  0  0  0  0  0
   -1.5320   -0.8490    0.6496 N   0  0  0  0  0  0  0  0  0  0  0  0
   -2.3500   -0.3360    0.3566 H   0  0  0  0  0  0  0  0  0  0  0  0
   -0.2470   -0.1410    0.5576 C   0  0  1  0  0  0  0  0  0  0  0  0
    0.0793   -0.1853   -0.4820 H   0  0  0  0  0  0  0  0  0  0  0  0
   -0.4272    1.3512    0.9361 C   0  0  1  0  0  0  0  0  0  0  0  0
   -0.9040    1.3788    1.9177 H   0  0  0  0  0  0  0  0  0  0  0  0
    0.9167    2.0966    1.0467 C   0  0  0  0  0  0  0  0  0  0  0  0
    1.4003    2.1631    0.0705 H   0  0  0  0  0  0  0  0  0  0  0  0
    0.7609    3.1016    1.4357 H   0  0  0  0  0  0  0  0  0  0  0  0
    1.5822    1.5731    1.7340 H   0  0  0  0  0  0  0  0  0  0  0  0
   -1.3737    2.0640   -0.0557 C   0  0  0  0  0  0  0  0  0  0  0  0
   -0.8934    2.1513   -1.0312 H   0  0  0  0  0  0  0  0  0  0  0  0
   -2.2765    1.4644   -0.1714 H   0  0  0  0  0  0  0  0  0  0  0  0
   -1.8088    3.4625    0.4029 C   0  0  0  0  0  0  0  0  0  0  0  0
   -0.9542    4.1381    0.4328 H   0  0  0  0  0  0  0  0  0  0  0  0
   -2.5405    3.8601   -0.3008 H   0  0  0  0  0  0  0  0  0  0  0  0
   -2.2635    3.4059    1.3925 H   0  0  0  0  0  0  0  0  0  0  0  0
    0.8159   -0.8570    1.4062 C   0  0  0  0  0  0  0  0  0  0  0  0
    0.6496   -1.0027    2.6163 O   0  0  0  0  0  0  0  0  0  0  0  0
    1.9041   -1.3139    0.7735 N   0  0  0  0  0  0  0  0  0  0  0  0
    1.9659   -1.1676   -0.2217 H   0  0  0  0  0  0  0  0  0  0  0  0
    3.0052   -2.0096    1.4367 C   0  0  0  0  0  0  0  0  0  0  0  0
    2.6142   -2.8452    2.0214 H   0  0  0  0  0  0  0  0  0  0  0  0
    3.7132   -2.3886    0.6983 H   0  0  0  0  0  0  0  0  0  0  0  0
    3.5186   -1.3236    2.1132 H   0  0  0  0  0  0  0  0  0  0  0  0
  5  6  2  0  0  0  0
  5  7  1  0  0  0  0
  2  3  1  0  0  0  0
  2  4  1  0  0  0  0
  2  5  1  0  0  0  0
  1  2  1  0  0  0  0
 24 25  2  0  0  0  0
 24 26  1  0  0  0  0
 20 21  1  0  0  0  0
 20 22  1  0  0  0  0
 20 23  1  0  0  0  0
 17 18  1  0  0  0  0
 17 19  1  0  0  0  0
 17 20  1  0  0  0  0
 13 14  1  0  0  0  0
 13 15  1  0  0  0  0
 13 16  1  0  0  0  0
 11 12  1  0  0  0  0
 11 13  1  0  0  0  0
 11 17  1  0  0  0  0
  9 10  1  0  0  0  0
  9 11  1  0  0  0  0
  9 24  1  0  0  0  0
  7  8  1  0  0  0  0
  7  9  1  0  0  0  0
 28 29  1  0  0  0  0
 28 30  1  0  0  0  0
 28 31  1  0  0  0  0
 26 27  1  0  0  0  0
 26 28  1  0  0  0  0
M  END
$$$$
default_name
  -OEChem-01062215323D

 31 30  0     1  0  0  0  0  0999 V2000
   -3.0760   -3.6390    1.5496 H   0  0  0  0  0  0  0  0  0  0  0  0
   -3.0940   -2.6290    1.1426 C   0  0  0  0  0  0  0  0  0  0  0  0
   -3.7160   -1.9930    1.7706 H   0  0  0  0  0  0  0  0  0  0  0  0
   -3.4880   -2.6500    0.1286 H   0  0  0  0  0  0  0  0  0  0  0  0
   -1.6860   -2.0850    1.1196 C   0  0  0  0  0  0  0  0  0  0  0  0
   -0.7540   -2.7700    1.5226 O   0  0  0  0  0  0  0  0  0  0  0  0
   -1.5320   -0.8490    0.6496 N   0  0  0  0  0  0  0  0  0  0  0  0
   -2.3500   -0.3360    0.3566 H   0  0  0  0  0  0  0  0  0  0  0  0
   -0.2470   -0.1410    0.5576 C   0  0  1  0  0  0  0  0  0  0  0  0
    0.0793   -0.1853   -0.4820 H   0  0  0  0  0  0  0  0  0  0  0  0
   -0.4272    1.3512    0.9361 C   0  0  1  0  0  0  0  0  0  0  0  0
   -0.9040    1.3788    1.9177 H   0  0  0  0  0  0  0  0  0  0  0  0
    0.9167    2.0966    1.0467 C   0  0  0  0  0  0  0  0  0  0  0  0
    1.4003    2.1631    0.0705 H   0  0  0  0  0  0  0  0  0  0  0  0
    0.7609    3.1016    1.4357 H   0  0  0  0  0  0  0  0  0  0  0  0
    1.5822    1.5731    1.7340 H   0  0  0  0  0  0  0  0  0  0  0  0
   -1.3737    2.0640   -0.0557 C   0  0  0  0  0  0  0  0  0  0  0  0
   -0.8934    2.1513   -1.0312 H   0  0  0  0  0  0  0  0  0  0  0  0
   -2.2765    1.4644   -0.1714 H   0  0  0  0  0  0  0  0  0  0  0  0
   -1.8088    3.4625    0.4029 C   0  0  0  0  0  0  0  0  0  0  0  0
   -0.9542    4.1381    0.4328 H   0  0  0  0  0  0  0  0  0  0  0  0
   -2.5405    3.8601   -0.3008 H   0  0  0  0  0  0  0  0  0  0  0  0
   -2.2635    3.4059    1.3925 H   0  0  0  0  0  0  0  0  0  0  0  0
    0.8159   -0.8570    1.4062 C   0  0  0  0  0  0  0  0  0  0  0  0
    0.5448   -1.2479    2.5407 O   0  0  0  0  0  0  0  0  0  0  0  0
    2.0231   -1.0394    0.8561 N   0  0  0  0  0  0  0  0  0  0  0  0
    2.1683   -0.7020   -0.0824 H   0  0  0  0  0  0  0  0  0  0  0  0
    3.1403   -1.6958    1.5323 C   0  0  0  0  0  0  0  0  0  0  0  0
    2.8220   -2.6704    1.9087 H   0  0  0  0  0  0  0  0  0  0  0  0
    3.9735   -1.8327    0.8414 H   0  0  0  0  0  0  0  0  0  0  0  0
    3.4663   -1.0873    2.3780 H   0  0  0  0  0  0  0  0  0  0  0  0
  5  6  2  0  0  0  0
  5  7  1  0  0  0  0
  2  3  1  0  0  0  0
  2  4  1  0  0  0  0
  2  5  1  0  0  0  0
  1  2  1  0  0  0  0
 24 25  2  0  0  0  0
 24 26  1  0  0  0  0
 20 21  1  0  0  0  0
 20 22  1  0  0  0  0
 20 23  1  0  0  0  0
 17 18  1  0  0  0  0
 17 19  1  0  0  0  0
 17 20  1  0  0  0  0
 13 14  1  0  0  0  0
 13 15  1  0  0  0  0
 13 16  1  0  0  0  0
 11 12  1  0  0  0  0
 11 13  1  0  0  0  0
 11 17  1  0  0  0  0
  9 10  1  0  0  0  0
  9 11  1  0  0  0  0
  9 24  1  0  0  0  0
  7  8  1  0  0  0  0
  7  9  1  0  0  0  0
 28 29  1  0  0  0  0
 28 30  1  0  0  0  0
 28 31  1  0  0  0  0
 26 27  1  0  0  0  0
 26 28  1  0  0  0  0
M  END
$$$$
default_name
  -OEChem-01062215323D

 31 30  0     1  0  0  0  0  0999 V2000
   -3.0760   -3.6390    1.5496 H   0  0  0  0  0  0  0  0  0  0  0  0
   -3.0940   -2.6290    1.1426 C   0  0  0  0  0  0  0  0  0  0  0  0
   -3.7160   -1.9930    1.7706 H   0  0  0  0  0  0  0  0  0  0  0  0
   -3.4880   -2.6500    0.1286 H   0  0  0  0  0  0  0  0  0  0  0  0
   -1.6860   -2.0850    1.1196 C   0  0  0  0  0  0  0  0  0  0  0  0
   -0.7540   -2.7700    1.5226 O   0  0  0  0  0  0  0  0  0  0  0  0
   -1.5320   -0.8490    0.6496 N   0  0  0  0  0  0  0  0  0  0  0  0
   -2.3500   -0.3360    0.3566 H   0  0  0  0  0  0  0  0  0  0  0  0
   -0.2470   -0.1410    0.5576 C   0  0  1  0  0  0  0  0  0  0  0  0
    0.0793   -0.1853   -0.4820 H   0  0  0  0  0  0  0  0  0  0  0  0
   -0.4272    1.3512    0.9361 C   0  0  1  0  0  0  0  0  0  0  0  0
   -0.9040    1.3788    1.9177 H   0  0  0  0  0  0  0  0  0  0  0  0
    0.9167    2.0966    1.0467 C   0  0  0  0  0  0  0  0  0  0  0  0
    1.4003    2.1631    0.0705 H   0  0  0  0  0  0  0  0  0  0  0  0
    0.7609    3.1016    1.4357 H   0  0  0  0  0  0  0  0  0  0  0  0
    1.5822    1.5731    1.7340 H   0  0  0  0  0  0  0  0  0  0  0  0
   -1.3737    2.0640   -0.0557 C   0  0  0  0  0  0  0  0  0  0  0  0
   -0.8934    2.1513   -1.0312 H   0  0  0  0  0  0  0  0  0  0  0  0
   -2.2765    1.4644   -0.1714 H   0  0  0  0  0  0  0  0  0  0  0  0
   -1.8088    3.4625    0.4029 C   0  0  0  0  0  0  0  0  0  0  0  0
   -0.9542    4.1381    0.4328 H   0  0  0  0  0  0  0  0  0  0  0  0
   -2.5405    3.8601   -0.3008 H   0  0  0  0  0  0  0  0  0  0  0  0
   -2.2635    3.4059    1.3925 H   0  0  0  0  0  0  0  0  0  0  0  0
    0.8159   -0.8570    1.4062 C   0  0  0  0  0  0  0  0  0  0  0  0
    0.4878   -1.4863    2.4110 O   0  0  0  0  0  0  0  0  0  0  0  0
    2.0888   -0.7720    0.9993 N   0  0  0  0  0  0  0  0  0  0  0  0
    2.2805   -0.2483    0.1599 H   0  0  0  0  0  0  0  0  0  0  0  0
    3.2145   -1.3904    1.6970 C   0  0  0  0  0  0  0  0  0  0  0  0
    3.0113   -2.4518    1.8561 H   0  0  0  0  0  0  0  0  0  0  0  0
    4.1282   -1.2841    1.1105 H   0  0  0  0  0  0  0  0  0  0  0  0
    3.3501   -0.9140    2.6699 H   0  0  0  0  0  0  0  0  0  0  0  0
  5  6  2  0  0  0  0
  5  7  1  0  0  0  0
  2  3  1  0  0  0  0
  2  4  1  0  0  0  0
  2  5  1  0  0  0  0
  1  2  1  0  0  0  0
 24 25  2  0  0  0  0
 24 26  1  0  0  0  0
 20 21  1  0  0  0  0
 20 22  1  0  0  0  0
 20 23  1  0  0  0  0
 17 18  1  0  0  0  0
 17 19  1  0  0  0  0
 17 20  1  0  0  0  0
 13 14  1  0  0  0  0
 13 15  1  0  0  0  0
 13 16  1  0  0  0  0
 11 12  1  0  0  0  0
 11 13  1  0  0  0  0
 11 17  1  0  0  0  0
  9 10  1  0  0  0  0
  9 11  1  0  0  0  0
  9 24  1  0  0  0  0
  7  8  1  0  0  0  0
  7  9  1  0  0  0  0
 28 29  1  0  0  0  0
 28 30  1  0  0  0  0
 28 31  1  0  0  0  0
 26 27  1  0  0  0  0
 26 28  1  0  0  0  0
M  END
$$$$
default_name
  -OEChem-01062215323D

 31 30  0     1  0  0  0  0  0999 V2000
   -3.0760   -3.6390    1.5496 H   0  0  0  0  0  0  0  0  0  0  0  0
   -3.0940   -2.6290    1.1426 C   0  0  0  0  0  0  0  0  0  0  0  0
   -3.7160   -1.9930    1.7706 H   0  0  0  0  0  0  0  0  0  0  0  0
   -3.4880   -2.6500    0.1286 H   0  0  0  0  0  0  0  0  0  0  0  0
   -1.6860   -2.0850    1.1196 C   0  0  0  0  0  0  0  0  0  0  0  0
   -0.7540   -2.7700    1.5226 O   0  0  0  0  0  0  0  0  0  0  0  0
   -1.5320   -0.8490    0.6496 N   0  0  0  0  0  0  0  0  0  0  0  0
   -2.3500   -0.3360    0.3566 H   0  0  0  0  0  0  0  0  0  0  0  0
   -0.2470   -0.1410    0.5576 C   0  0  1  0  0  0  0  0  0  0  0  0
    0.0793   -0.1853   -0.4820 H   0  0  0  0  0  0  0  0  0  0  0  0
   -0.4272    1.3512    0.9361 C   0  0  1  0  0  0  0  0  0  0  0  0
   -0.9040    1.3788    1.9177 H   0  0  0  0  0  0  0  0  0  0  0  0
    0.9167    2.0966    1.0467 C   0  0  0  0  0  0  0  0  0  0  0  0
    1.4003    2.1631    0.0705 H   0  0  0  0  0  0  0  0  0  0  0  0
    0.7609    3.1016    1.4357 H   0  0  0  0  0  0  0  0  0  0  0  0
    1.5822    1.5731    1.7340 H   0  0  0  0  0  0  0  0  0  0  0  0
   -1.3737    2.0640   -0.0557 C   0  0  0  0  0  0  0  0  0  0  0  0
   -0.8934    2.1513   -1.0312 H   0  0  0  0  0  0  0  0  0  0  0  0
   -2.2765    1.4644   -0.1714 H   0  0  0  0  0  0  0  0  0  0  0  0
   -1.8088    3.4625    0.4029 C   0  0  0  0  0  0  0  0  0  0  0  0
   -0.9542    4.1381    0.4328 H   0  0  0  0  0  0  0  0  0  0  0  0
   -2.5405    3.8601   -0.3008 H   0  0  0  0  0  0  0  0  0  0  0  0
   -2.2635    3.4059    1.3925 H   0  0  0  0  0  0  0  0  0  0  0  0
    0.8159   -0.8570    1.4062 C   0  0  0  0  0  0  0  0  0  0  0  0
    0.4824   -1.7014    2.2363 O   0  0  0  0  0  0  0  0  0  0  0  0
    2.0969   -0.5300    1.1934 N   0  0  0  0  0  0  0  0  0  0  0  0
    2.2949    0.1627    0.4887 H   0  0  0  0  0  0  0  0  0  0  0  0
    3.2226   -1.1144    1.9197 C   0  0  0  0  0  0  0  0  0  0  0  0
    3.1692   -2.2041    1.8672 H   0  0  0  0  0  0  0  0  0  0  0  0
    4.1668   -0.7803    1.4872 H   0  0  0  0  0  0  0  0  0  0  0  0
    3.1779   -0.8155    2.9687 H   0  0  0  0  0  0  0  0  0  0  0  0
  5  6  2  0  0  0  0
  5  7  1  0  0  0  0
  2  3  1  0  0  0  0
  2  4  1  0  0  0  0
  2  5  1  0  0  0  0
  1  2  1  0  0  0  0
 24 25  2  0  0  0  0
 24 26  1  0  0  0  0
 20 21  1  0  0  0  0
 20 22  1  0  0  0  0
 20 23  1  0  0  0  0
 17 18  1  0  0  0  0
 17 19  1  0  0  0  0
 17 20  1  0  0  0  0
 13 14  1  0  0  0  0
 13 15  1  0  0  0  0
 13 16  1  0  0  0  0
 11 12  1  0  0  0  0
 11 13  1  0  0  0  0
 11 17  1  0  0  0  0
  9 10  1  0  0  0  0
  9 11  1  0  0  0  0
  9 24  1  0  0  0  0
  7  8  1  0  0  0  0
  7  9  1  0  0  0  0
 28 29  1  0  0  0  0
 28 30  1  0  0  0  0
 28 31  1  0  0  0  0
 26 27  1  0  0  0  0
 26 28  1  0  0  0  0
M  END
$$$$
default_name
  -OEChem-01062215323D

 31 30  0     1  0  0  0  0  0999 V2000
   -3.0760   -3.6390    1.5496 H   0  0  0  0  0  0  0  0  0  0  0  0
   -3.0940   -2.6290    1.1426 C   0  0  0  0  0  0  0  0  0  0  0  0
   -3.7160   -1.9930    1.7706 H   0  0  0  0  0  0  0  0  0  0  0  0
   -3.4880   -2.6500    0.1286 H   0  0  0  0  0  0  0  0  0  0  0  0
   -1.6860   -2.0850    1.1196 C   0  0  0  0  0  0  0  0  0  0  0  0
   -0.7540   -2.7700    1.5226 O   0  0  0  0  0  0  0  0  0  0  0  0
   -1.5320   -0.8490    0.6496 N   0  0  0  0  0  0  0  0  0  0  0  0
   -2.3500   -0.3360    0.3566 H   0  0  0  0  0  0  0  0  0  0  0  0
   -0.2470   -0.1410    0.5576 C   0  0  1  0  0  0  0  0  0  0  0  0
   -0.0524    0.0516   -0.4980 H   0  0  0  0  0  0  0  0  0  0  0  0
   -0.3337    1.2265    1.2821 C   0  0  1  0  0  0  0  0  0  0  0  0
   -0.6853    1.0311    2.2969 H   0  0  0  0  0  0  0  0  0  0  0  0
    1.0357    1.9247    1.3868 C   0  0  0  0  0  0  0  0  0  0  0  0
    1.3977    2.2104    0.3976 H   0  0  0  0  0  0  0  0  0  0  0  0
    0.9597    2.8153    2.0087 H   0  0  0  0  0  0  0  0  0  0  0  0
    1.7643    1.2575    1.8487 H   0  0  0  0  0  0  0  0  0  0  0  0
   -1.3726    2.1478    0.6043 C   0  0  0  0  0  0  0  0  0  0  0  0
   -1.0133    2.4536   -0.3792 H   0  0  0  0  0  0  0  0  0  0  0  0
   -2.3006    1.5918    0.4716 H   0  0  0  0  0  0  0  0  0  0  0  0
   -1.7052    3.4062    1.4173 C   0  0  0  0  0  0  0  0  0  0  0  0
   -0.8331    4.0558    1.4903 H   0  0  0  0  0  0  0  0  0  0  0  0
   -2.5053    3.9547    0.9196 H   0  0  0  0  0  0  0  0  0  0  0  0
   -2.0365    3.1271    2.4181 H   0  0  0  0  0  0  0  0  0  0  0  0
    0.8897   -1.0331    1.0816 C   0  0  0  0  0  0  0  0  0  0  0  0
    0.6502   -2.1689    1.4889 O   0  0  0  0  0  0  0  0  0  0  0  0
    2.1290   -0.5263    1.0631 N   0  0  0  0  0  0  0  0  0  0  0  0
    2.2500    0.4078    0.7046 H   0  0  0  0  0  0  0  0  0  0  0  0
    3.3139   -1.2432    1.5305 C   0  0  0  0  0  0  0  0  0  0  0  0
    3.3715   -2.2181    1.0414 H   0  0  0  0  0  0  0  0  0  0  0  0
    4.2158   -0.6735    1.3023 H   0  0  0  0  0  0  0  0  0  0  0  0
    3.2467   -1.4000    2.6088 H   0  0  0  0  0  0  0  0  0  0  0  0
  5  6  2  0  0  0  0
  5  7  1  0  0  0  0
  2  3  1  0  0  0  0
  2  4  1  0  0  0  0
  2  5  1  0  0  0  0
  1  2  1  0  0  0  0
 24 25  2  0  0  0  0
 24 26  1  0  0  0  0
 20 21  1  0  0  0  0
 20 22  1  0  0  0  0
 20 23  1  0  0  0  0
 17 18  1  0  0  0  0
 17 19  1  0  0  0  0
 17 20  1  0  0  0  0
 13 14  1  0  0  0  0
 13 15  1  0  0  0  0
 13 16  1  0  0  0  0
 11 12  1  0  0  0  0
 11 13  1  0  0  0  0
 11 17  1  0  0  0  0
  9 10  1  0  0  0  0
  9 11  1  0  0  0  0
  9 24  1  0  0  0  0
  7  8  1  0  0  0  0
  7  9  1  0  0  0  0
 28 29  1  0  0  0  0
 28 30  1  0  0  0  0
 28 31  1  0  0  0  0
 26 27  1  0  0  0  0
 26 28  1  0  0  0  0
M  END
$$$$
default_name
  -OEChem-01062215323D

 31 30  0     1  0  0  0  0  0999 V2000
   -3.0760   -3.6390    1.5496 H   0  0  0  0  0  0  0  0  0  0  0  0
   -3.0940   -2.6290    1.1426 C   0  0  0  0  0  0  0  0  0  0  0  0
   -3.7160   -1.9930    1.7706 H   0  0  0  0  0  0  0  0  0  0  0  0
   -3.4880   -2.6500    0.1286 H   0  0  0  0  0  0  0  0  0  0  0  0
   -1.6860   -2.0850    1.1196 C   0  0  0  0  0  0  0  0  0  0  0  0
   -0.7540   -2.7700    1.5226 O   0  0  0  0  0  0  0  0  0  0  0  0
   -1.5320   -0.8490    0.6496 N   0  0  0  0  0  0  0  0  0  0  0  0
   -2.3500   -0.3360    0.3566 H   0  0  0  0  0  0  0  0  0  0  0  0
   -0.2470   -0.1410    0.5576 C   0  0  1  0  0  0  0  0  0  0  0  0
   -0.0524    0.0516   -0.4980 H   0  0  0  0  0  0  0  0  0  0  0  0
   -0.3337    1.2265    1.2821 C   0  0  1  0  0  0  0  0  0  0  0  0
   -0.6853    1.0311    2.2969 H   0  0  0  0  0  0  0  0  0  0  0  0
    1.0357    1.9247    1.3868 C   0  0  0  0  0  0  0  0  0  0  0  0
    1.3977    2.2104    0.3976 H   0  0  0  0  0  0  0  0  0  0  0  0
    0.9597    2.8153    2.0087 H   0  0  0  0  0  0  0  0  0  0  0  0
    1.7643    1.2575    1.8487 H   0  0  0  0  0  0  0  0  0  0  0  0
   -1.3726    2.1478    0.6043 C   0  0  0  0  0  0  0  0  0  0  0  0
   -1.0133    2.4536   -0.3792 H   0  0  0  0  0  0  0  0  0  0  0  0
   -2.3006    1.5918    0.4716 H   0  0  0  0  0  0  0  0  0  0  0  0
   -1.7052    3.4062    1.4173 C   0  0  0  0  0  0  0  0  0  0  0  0
   -0.8331    4.0558    1.4903 H   0  0  0  0  0  0  0  0  0  0  0  0
   -2.5053    3.9547    0.9196 H   0  0  0  0  0  0  0  0  0  0  0  0
   -2.0365    3.1271    2.4181 H   0  0  0  0  0  0  0  0  0  0  0  0
    0.8897   -1.0331    1.0816 C   0  0  0  0  0  0  0  0  0  0  0  0
    0.7130   -2.2416    1.2289 O   0  0  0  0  0  0  0  0  0  0  0  0
    2.0604   -0.4428    1.3541 N   0  0  0  0  0  0  0  0  0  0  0  0
    2.1342    0.5501    1.1981 H   0  0  0  0  0  0  0  0  0  0  0  0
    3.2345   -1.1489    1.8632 C   0  0  0  0  0  0  0  0  0  0  0  0
    3.4608   -2.0007    1.2179 H   0  0  0  0  0  0  0  0  0  0  0  0
    4.0962   -0.4805    1.8903 H   0  0  0  0  0  0  0  0  0  0  0  0
    3.0317   -1.5208    2.8693 H   0  0  0  0  0  0  0  0  0  0  0  0
  5  6  2  0  0  0  0
  5  7  1  0  0  0  0
  2  3  1  0  0  0  0
  2  4  1  0  0  0  0
  2  5  1  0  0  0  0
  1  2  1  0  0  0  0
 24 25  2  0  0  0  0
 24 26  1  0  0  0  0
 20 21  1  0  0  0  0
 20 22  1  0  0  0  0
 20 23  1  0  0  0  0
 17 18  1  0  0  0  0
 17 19  1  0  0  0  0
 17 20  1  0  0  0  0
 13 14  1  0  0  0  0
 13 15  1  0  0  0  0
 13 16  1  0  0  0  0
 11 12  1  0  0  0  0
 11 13  1  0  0  0  0
 11 17  1  0  0  0  0
  9 10  1  0  0  0  0
  9 11  1  0  0  0  0
  9 24  1  0  0  0  0
  7  8  1  0  0  0  0
  7  9  1  0  0  0  0
 28 29  1  0  0  0  0
 28 30  1  0  0  0  0
 28 31  1  0  0  0  0
 26 27  1  0  0  0  0
 26 28  1  0  0  0  0
M  END
$$$$
default_name
  -OEChem-01062215323D

 31 30  0     1  0  0  0  0  0999 V2000
   -3.0760   -3.6390    1.5496 H   0  0  0  0  0  0  0  0  0  0  0  0
   -3.0940   -2.6290    1.1426 C   0  0  0  0  0  0  0  0  0  0  0  0
   -3.7160   -1.9930    1.7706 H   0  0  0  0  0  0  0  0  0  0  0  0
   -3.4880   -2.6500    0.1286 H   0  0  0  0  0  0  0  0  0  0  0  0
   -1.6860   -2.0850    1.1196 C   0  0  0  0  0  0  0  0  0  0  0  0
   -0.7540   -2.7700    1.5226 O   0  0  0  0  0  0  0  0  0  0  0  0
   -1.5320   -0.8490    0.6496 N   0  0  0  0  0  0  0  0  0  0  0  0
   -2.3500   -0.3360    0.3566 H   0  0  0  0  0  0  0  0  0  0  0  0
   -0.2470   -0.1410    0.5576 C   0  0  1  0  0  0  0  0  0  0  0  0
   -0.0524    0.0516   -0.4980 H   0  0  0  0  0  0  0  0  0  0  0  0
   -0.3337    1.2265    1.2821 C   0  0  1  0  0  0  0  0  0  0  0  0
   -0.6853    1.0311    2.2969 H   0  0  0  0  0  0  0  0  0  0  0  0
    1.0357    1.9247    1.3868 C   0  0  0  0  0  0  0  0  0  0  0  0
    1.3977    2.2104    0.3976 H   0  0  0  0  0  0  0  0  0  0  0  0
    0.9597    2.8153    2.0087 H   0  0  0  0  0  0  0  0  0  0  0  0
    1.7643    1.2575    1.8487 H   0  0  0  0  0  0  0  0  0  0  0  0
   -1.3726    2.1478    0.6043 C   0  0  0  0  0  0  0  0  0  0  0  0
   -1.0133    2.4536   -0.3792 H   0  0  0  0  0  0  0  0  0  0  0  0
   -2.3006    1.5918    0.4716 H   0  0  0  0  0  0  0  0  0  0  0  0
   -1.7052    3.4062    1.4173 C   0  0  0  0  0  0  0  0  0  0  0  0
   -0.8331    4.0558    1.4903 H   0  0  0  0  0  0  0  0  0  0  0  0
   -2.5053    3.9547    0.9196 H   0  0  0  0  0  0  0  0  0  0  0  0
   -2.0365    3.1271    2.4181 H   0  0  0  0  0  0  0  0  0  0  0  0
    0.8897   -1.0331    1.0816 C   0  0  0  0  0  0  0  0  0  0  0  0
    0.8192   -2.2565    0.9732 O   0  0  0  0  0  0  0  0  0  0  0  0
    1.9430   -0.4240    1.6408 N   0  0  0  0  0  0  0  0  0  0  0  0
    1.9357    0.5828    1.6846 H   0  0  0  0  0  0  0  0  0  0  0  0
    3.0995   -1.1286    2.1906 C   0  0  0  0  0  0  0  0  0  0  0  0
    3.5013   -1.8165    1.4434 H   0  0  0  0  0  0  0  0  0  0  0  0
    3.8754   -0.4171    2.4772 H   0  0  0  0  0  0  0  0  0  0  0  0
    2.7956   -1.7063    3.0656 H   0  0  0  0  0  0  0  0  0  0  0  0
  5  6  2  0  0  0  0
  5  7  1  0  0  0  0
  2  3  1  0  0  0  0
  2  4  1  0  0  0  0
  2  5  1  0  0  0  0
  1  2  1  0  0  0  0
 24 25  2  0  0  0  0
 24 26  1  0  0  0  0
 20 21  1  0  0  0  0
 20 22  1  0  0  0  0
 20 23  1  0  0  0  0
 17 18  1  0  0  0  0
 17 19  1  0  0  0  0
 17 20  1  0  0  0  0
 13 14  1  0  0  0  0
 13 15  1  0  0  0  0
 13 16  1  0  0  0  0
 11 12  1  0  0  0  0
 11 13  1  0  0  0  0
 11 17  1  0  0  0  0
  9 10  1  0  0  0  0
  9 11  1  0  0  0  0
  9 24  1  0  0  0  0
  7  8  1  0  0  0  0
  7  9  1  0  0  0  0
 28 29  1  0  0  0  0
 28 30  1  0  0  0  0
 28 31  1  0  0  0  0
 26 27  1  0  0  0  0
 26 28  1  0  0  0  0
M  END
$$$$
default_name
  -OEChem-01062215323D

 31 30  0     1  0  0  0  0  0999 V2000
   -3.0760   -3.6390    1.5496 H   0  0  0  0  0  0  0  0  0  0  0  0
   -3.0940   -2.6290    1.1426 C   0  0  0  0  0  0  0  0  0  0  0  0
   -3.7160   -1.9930    1.7706 H   0  0  0  0  0  0  0  0  0  0  0  0
   -3.4880   -2.6500    0.1286 H   0  0  0  0  0  0  0  0  0  0  0  0
   -1.6860   -2.0850    1.1196 C   0  0  0  0  0  0  0  0  0  0  0  0
   -0.7540   -2.7700    1.5226 O   0  0  0  0  0  0  0  0  0  0  0  0
   -1.5320   -0.8490    0.6496 N   0  0  0  0  0  0  0  0  0  0  0  0
   -2.3500   -0.3360    0.3566 H   0  0  0  0  0  0  0  0  0  0  0  0
   -0.2470   -0.1410    0.5576 C   0  0  1  0  0  0  0  0  0  0  0  0
   -0.0524    0.0516   -0.4980 H   0  0  0  0  0  0  0  0  0  0  0  0
   -0.3337    1.2265    1.2821 C   0  0  1  0  0  0  0  0  0  0  0  0
   -0.6853    1.0311    2.2969 H   0  0  0  0  0  0  0  0  0  0  0  0
    1.0357    1.9247    1.3868 C   0  0  0  0  0  0  0  0  0  0  0  0
    1.3977    2.2104    0.3976 H   0  0  0  0  0  0  0  0  0  0  0  0
    0.9597    2.8153    2.0087 H   0  0  0  0  0  0  0  0  0  0  0  0
    1.7643    1.2575    1.8487 H   0  0  0  0  0  0  0  0  0  0  0  0
   -1.3726    2.1478    0.6043 C   0  0  0  0  0  0  0  0  0  0  0  0
   -1.0133    2.4536   -0.3792 H   0  0  0  0  0  0  0  0  0  0  0  0
   -2.3006    1.5918    0.4716 H   0  0  0  0  0  0  0  0  0  0  0  0
   -1.7052    3.4062    1.4173 C   0  0  0  0  0  0  0  0  0  0  0  0
   -0.8331    4.0558    1.4903 H   0  0  0  0  0  0  0  0  0  0  0  0
   -2.5053    3.9547    0.9196 H   0  0  0  0  0  0  0  0  0  0  0  0
   -2.0365    3.1271    2.4181 H   0  0  0  0  0  0  0  0  0  0  0  0
    0.8897   -1.0331    1.0816 C   0  0  0  0  0  0  0  0  0  0  0  0
    0.9615   -2.2125    0.7394 O   0  0  0  0  0  0  0  0  0  0  0  0
    1.7849   -0.4710    1.9037 N   0  0  0  0  0  0  0  0  0  0  0  0
    1.6679    0.5039    2.1310 H   0  0  0  0  0  0  0  0  0  0  0  0
    2.9181   -1.1835    2.4905 C   0  0  0  0  0  0  0  0  0  0  0  0
    3.4903   -1.6783    1.7026 H   0  0  0  0  0  0  0  0  0  0  0  0
    3.5682   -0.4878    3.0231 H   0  0  0  0  0  0  0  0  0  0  0  0
    2.5545   -1.9439    3.1842 H   0  0  0  0  0  0  0  0  0  0  0  0
  5  6  2  0  0  0  0
  5  7  1  0  0  0  0
  2  3  1  0  0  0  0
  2  4  1  0  0  0  0
  2  5  1  0  0  0  0
  1  2  1  0  0  0  0
 24 25  2  0  0  0  0
 24 26  1  0  0  0  0
 20 21  1  0  0  0  0
 20 22  1  0  0  0  0
 20 23  1  0  0  0  0
 17 18  1  0  0  0  0
 17 19  1  0  0  0  0
 17 20  1  0  0  0  0
 13 14  1  0  0  0  0
 13 15  1  0  0  0  0
 13 16  1  0  0  0  0
 11 12  1  0  0  0  0
 11 13  1  0  0  0  0
 11 17  1  0  0  0  0
  9 10  1  0  0  0  0
  9 11  1  0  0  0  0
  9 24  1  0  0  0  0
  7  8  1  0  0  0  0
  7  9  1  0  0  0  0
 28 29  1  0  0  0  0
 28 30  1  0  0  0  0
 28 31  1  0  0  0  0
 26 27  1  0  0  0  0
 26 28  1  0  0  0  0
M  END
$$$$
default_name
  -OEChem-01062215323D

 31 30  0     1  0  0  0  0  0999 V2000
   -3.0760   -3.6390    1.5496 H   0  0  0  0  0  0  0  0  0  0  0  0
   -3.0940   -2.6290    1.1426 C   0  0  0  0  0  0  0  0  0  0  0  0
   -3.7160   -1.9930    1.7706 H   0  0  0  0  0  0  0  0  0  0  0  0
   -3.4880   -2.6500    0.1286 H   0  0  0  0  0  0  0  0  0  0  0  0
   -1.6860   -2.0850    1.1196 C   0  0  0  0  0  0  0  0  0  0  0  0
   -0.7540   -2.7700    1.5226 O   0  0  0  0  0  0  0  0  0  0  0  0
   -1.5320   -0.8490    0.6496 N   0  0  0  0  0  0  0  0  0  0  0  0
   -2.3500   -0.3360    0.3566 H   0  0  0  0  0  0  0  0  0  0  0  0
   -0.2470   -0.1410    0.5576 C   0  0  1  0  0  0  0  0  0  0  0  0
   -0.0524    0.0516   -0.4980 H   0  0  0  0  0  0  0  0  0  0  0  0
   -0.3337    1.2265    1.2821 C   0  0  1  0  0  0  0  0  0  0  0  0
   -0.6853    1.0311    2.2969 H   0  0  0  0  0  0  0  0  0  0  0  0
    1.0357    1.9247    1.3868 C   0  0  0  0  0  0  0  0  0  0  0  0
    1.3977    2.2104    0.3976 H   0  0  0  0  0  0  0  0  0  0  0  0
    0.9597    2.8153    2.0087 H   0  0  0  0  0  0  0  0  0  0  0  0
    1.7643    1.2575    1.8487 H   0  0  0  0  0  0  0  0  0  0  0  0
   -1.3726    2.1478    0.6043 C   0  0  0  0  0  0  0  0  0  0  0  0
   -1.0133    2.4536   -0.3792 H   0  0  0  0  0  0  0  0  0  0  0  0
   -2.3006    1.5918    0.4716 H   0  0  0  0  0  0  0  0  0  0  0  0
   -1.7052    3.4062    1.4173 C   0  0  0  0  0  0  0  0  0  0  0  0
   -0.8331    4.0558    1.4903 H   0  0  0  0  0  0  0  0  0  0  0  0
   -2.5053    3.9547    0.9196 H   0  0  0  0  0  0  0  0  0  0  0  0
   -2.0365    3.1271    2.4181 H   0  0  0  0  0  0  0  0  0  0  0  0
    0.8897   -1.0331    1.0816 C   0  0  0  0  0  0  0  0  0  0  0  0
    1.1302   -2.1128    0.5433 O   0  0  0  0  0  0  0  0  0  0  0  0
    1.5968   -0.5807    2.1249 N   0  0  0  0  0  0  0  0  0  0  0  0
    1.3492    0.3185    2.5068 H   0  0  0  0  0  0  0  0  0  0  0  0
    2.7028   -1.3099    2.7425 C   0  0  0  0  0  0  0  0  0  0  0  0
    3.4286   -1.5953    1.9778 H   0  0  0  0  0  0  0  0  0  0  0  0
    3.1958   -0.6876    3.4907 H   0  0  0  0  0  0  0  0  0  0  0  0
    2.3247   -2.2174    3.2171 H   0  0  0  0  0  0  0  0  0  0  0  0
  5  6  2  0  0  0  0
  5  7  1  0  0  0  0
  2  3  1  0  0  0  0
  2  4  1  0  0  0  0
  2  5  1  0  0  0  0
  1  2  1  0  0  0  0
 24 25  2  0  0  0  0
 24 26  1  0  0  0  0
 20 21  1  0  0  0  0
 20 22  1  0  0  0  0
 20 23  1  0  0  0  0
 17 18  1  0  0  0  0
 17 19  1  0  0  0  0
 17 20  1  0  0  0  0
 13 14  1  0  0  0  0
 13 15  1  0  0  0  0
 13 16  1  0  0  0  0
 11 12  1  0  0  0  0
 11 13  1  0  0  0  0
 11 17  1  0  0  0  0
  9 10  1  0  0  0  0
  9 11  1  0  0  0  0
  9 24  1  0  0  0  0
  7  8  1  0  0  0  0
  7  9  1  0  0  0  0
 28 29  1  0  0  0  0
 28 30  1  0  0  0  0
 28 31  1  0  0  0  0
 26 27  1  0  0  0  0
 26 28  1  0  0  0  0
M  END
$$$$
default_name
  -OEChem-01062215323D

 31 30  0     1  0  0  0  0  0999 V2000
   -3.0760   -3.6390    1.5496 H   0  0  0  0  0  0  0  0  0  0  0  0
   -3.0940   -2.6290    1.1426 C   0  0  0  0  0  0  0  0  0  0  0  0
   -3.7160   -1.9930    1.7706 H   0  0  0  0  0  0  0  0  0  0  0  0
   -3.4880   -2.6500    0.1286 H   0  0  0  0  0  0  0  0  0  0  0  0
   -1.6860   -2.0850    1.1196 C   0  0  0  0  0  0  0  0  0  0  0  0
   -0.7540   -2.7700    1.5226 O   0  0  0  0  0  0  0  0  0  0  0  0
   -1.5320   -0.8490    0.6496 N   0  0  0  0  0  0  0  0  0  0  0  0
   -2.3500   -0.3360    0.3566 H   0  0  0  0  0  0  0  0  0  0  0  0
   -0.2470   -0.1410    0.5576 C   0  0  1  0  0  0  0  0  0  0  0  0
   -0.0524    0.0516   -0.4980 H   0  0  0  0  0  0  0  0  0  0  0  0
   -0.3337    1.2265    1.2821 C   0  0  1  0  0  0  0  0  0  0  0  0
   -0.6853    1.0311    2.2969 H   0  0  0  0  0  0  0  0  0  0  0  0
    1.0357    1.9247    1.3868 C   0  0  0  0  0  0  0  0  0  0  0  0
    1.3977    2.2104    0.3976 H   0  0  0  0  0  0  0  0  0  0  0  0
    0.9597    2.8153    2.0087 H   0  0  0  0  0  0  0  0  0  0  0  0
    1.7643    1.2575    1.8487 H   0  0  0  0  0  0  0  0  0  0  0  0
   -1.3726    2.1478    0.6043 C   0  0  0  0  0  0  0  0  0  0  0  0
   -1.0133    2.4536   -0.3792 H   0  0  0  0  0  0  0  0  0  0  0  0
   -2.3006    1.5918    0.4716 H   0  0  0  0  0  0  0  0  0  0  0  0
   -1.7052    3.4062    1.4173 C   0  0  0  0  0  0  0  0  0  0  0  0
   -0.8331    4.0558    1.4903 H   0  0  0  0  0  0  0  0  0  0  0  0
   -2.5053    3.9547    0.9196 H   0  0  0  0  0  0  0  0  0  0  0  0
   -2.0365    3.1271    2.4181 H   0  0  0  0  0  0  0  0  0  0  0  0
    0.8897   -1.0331    1.0816 C   0  0  0  0  0  0  0  0  0  0  0  0
    1.3138   -1.9640    0.3983 O   0  0  0  0  0  0  0  0  0  0  0  0
    1.3916   -0.7456    2.2893 N   0  0  0  0  0  0  0  0  0  0  0  0
    1.0012    0.0394    2.7864 H   0  0  0  0  0  0  0  0  0  0  0  0
    2.4680   -1.4993    2.9293 C   0  0  0  0  0  0  0  0  0  0  0  0
    3.3203   -1.5733    2.2502 H   0  0  0  0  0  0  0  0  0  0  0  0
    2.7835   -1.0030    3.8482 H   0  0  0  0  0  0  0  0  0  0  0  0
    2.1219   -2.5082    3.1620 H   0  0  0  0  0  0  0  0  0  0  0  0
  5  6  2  0  0  0  0
  5  7  1  0  0  0  0
  2  3  1  0  0  0  0
  2  4  1  0  0  0  0
  2  5  1  0  0  0  0
  1  2  1  0  0  0  0
 24 25  2  0  0  0  0
 24 26  1  0  0  0  0
 20 21  1  0  0  0  0
 20 22  1  0  0  0  0
 20 23  1  0  0  0  0
 17 18  1  0  0  0  0
 17 19  1  0  0  0  0
 17 20  1  0  0  0  0
 13 14  1  0  0  0  0
 13 15  1  0  0  0  0
 13 16  1  0  0  0  0
 11 12  1  0  0  0  0
 11 13  1  0  0  0  0
 11 17  1  0  0  0  0
  9 10  1  0  0  0  0
  9 11  1  0  0  0  0
  9 24  1  0  0  0  0
  7  8  1  0  0  0  0
  7  9  1  0  0  0  0
 28 29  1  0  0  0  0
 28 30  1  0  0  0  0
 28 31  1  0  0  0  0
 26 27  1  0  0  0  0
 26 28  1  0  0  0  0
M  END
$$$$
default_name
  -OEChem-01062215323D

 31 30  0     1  0  0  0  0  0999 V2000
   -3.0760   -3.6390    1.5496 H   0  0  0  0  0  0  0  0  0  0  0  0
   -3.0940   -2.6290    1.1426 C   0  0  0  0  0  0  0  0  0  0  0  0
   -3.7160   -1.9930    1.7706 H   0  0  0  0  0  0  0  0  0  0  0  0
   -3.4880   -2.6500    0.1286 H   0  0  0  0  0  0  0  0  0  0  0  0
   -1.6860   -2.0850    1.1196 C   0  0  0  0  0  0  0  0  0  0  0  0
   -0.7540   -2.7700    1.5226 O   0  0  0  0  0  0  0  0  0  0  0  0
   -1.5320   -0.8490    0.6496 N   0  0  0  0  0  0  0  0  0  0  0  0
   -2.3500   -0.3360    0.3566 H   0  0  0  0  0  0  0  0  0  0  0  0
   -0.2470   -0.1410    0.5576 C   0  0  1  0  0  0  0  0  0  0  0  0
   -0.0524    0.0516   -0.4980 H   0  0  0  0  0  0  0  0  0  0  0  0
   -0.3337    1.2265    1.2821 C   0  0  1  0  0  0  0  0  0  0  0  0
   -0.6853    1.0311    2.2969 H   0  0  0  0  0  0  0  0  0  0  0  0
    1.0357    1.9247    1.3868 C   0  0  0  0  0  0  0  0  0  0  0  0
    1.3977    2.2104    0.3976 H   0  0  0  0  0  0  0  0  0  0  0  0
    0.9597    2.8153    2.0087 H   0  0  0  0  0  0  0  0  0  0  0  0
    1.7643    1.2575    1.8487 H   0  0  0  0  0  0  0  0  0  0  0  0
   -1.3726    2.1478    0.6043 C   0  0  0  0  0  0  0  0  0  0  0  0
   -1.0133    2.4536   -0.3792 H   0  0  0  0  0  0  0  0  0  0  0  0
   -2.3006    1.5918    0.4716 H   0  0  0  0  0  0  0  0  0  0  0  0
   -1.7052    3.4062    1.4173 C   0  0  0  0  0  0  0  0  0  0  0  0
   -0.8331    4.0558    1.4903 H   0  0  0  0  0  0  0  0  0  0  0  0
   -2.5053    3.9547    0.9196 H   0  0  0  0  0  0  0  0  0  0  0  0
   -2.0365    3.1271    2.4181 H   0  0  0  0  0  0  0  0  0  0  0  0
    0.8897   -1.0331    1.0816 C   0  0  0  0  0  0  0  0  0  0  0  0
    1.4998   -1.7763    0.3144 O   0  0  0  0  0  0  0  0  0  0  0  0
    1.1832   -0.9544    2.3858 N   0  0  0  0  0  0  0  0  0  0  0  0
    0.6477   -0.3144    2.9508 H   0  0  0  0  0  0  0  0  0  0  0  0
    2.2299   -1.7387    3.0382 C   0  0  0  0  0  0  0  0  0  0  0  0
    3.1728   -1.6137    2.5013 H   0  0  0  0  0  0  0  0  0  0  0  0
    2.3594   -1.4125    4.0712 H   0  0  0  0  0  0  0  0  0  0  0  0
    1.9600   -2.7963    3.0227 H   0  0  0  0  0  0  0  0  0  0  0  0
  5  6  2  0  0  0  0
  5  7  1  0  0  0  0
  2  3  1  0  0  0  0
  2  4  1  0  0  0  0
  2  5  1  0  0  0  0
  1  2  1  0  0  0  0
 24 25  2  0  0  0  0
 24 26  1  0  0  0  0
 20 21  1  0  0  0  0
 20 22  1  0  0  0  0
 20 23  1  0  0  0  0
 17 18  1  0  0  0  0
 17 19  1  0  0  0  0
 17 20  1  0  0  0  0
 13 14  1  0  0  0  0
 13 15  1  0  0  0  0
 13 16  1  0  0  0  0
 11 12  1  0  0  0  0
 11 13  1  0  0  0  0
 11 17  1  0  0  0  0
  9 10  1  0  0  0  0
  9 11  1  0  0  0  0
  9 24  1  0  0  0  0
  7  8  1  0  0  0  0
  7  9  1  0  0  0  0
 28 29  1  0  0  0  0
 28 30  1  0  0  0  0
 28 31  1  0  0  0  0
 26 27  1  0  0  0  0
 26 28  1  0  0  0  0
M  END
$$$$
default_name
  -OEChem-01062215323D

 31 30  0     1  0  0  0  0  0999 V2000
   -3.0760   -3.6390    1.5496 H   0  0  0  0  0  0  0  0  0  0  0  0
   -3.0940   -2.6290    1.1426 C   0  0  0  0  0  0  0  0  0  0  0  0
   -3.7160   -1.9930    1.7706 H   0  0  0  0  0  0  0  0  0  0  0  0
   -3.4880   -2.6500    0.1286 H   0  0  0  0  0  0  0  0  0  0  0  0
   -1.6860   -2.0850    1.1196 C   0  0  0  0  0  0  0  0  0  0  0  0
   -0.7540   -2.7700    1.5226 O   0  0  0  0  0  0  0  0  0  0  0  0
   -1.5320   -0.8490    0.6496 N   0  0  0  0  0  0  0  0  0  0  0  0
   -2.3500   -0.3360    0.3566 H   0  0  0  0  0  0  0  0  0  0  0  0
   -0.2470   -0.1410    0.5576 C   0  0  1  0  0  0  0  0  0  0  0  0
   -0.0524    0.0516   -0.4980 H   0  0  0  0  0  0  0  0  0  0  0  0
   -0.3337    1.2265    1.2821 C   0  0  1  0  0  0  0  0  0  0  0  0
   -0.6853    1.0311    2.2969 H   0  0  0  0  0  0  0  0  0  0  0  0
    1.0357    1.9247    1.3868 C   0  0  0  0  0  0  0  0  0  0  0  0
    1.3977    2.2104    0.3976 H   0  0  0  0  0  0  0  0  0  0  0  0
    0.9597    2.8153    2.0087 H   0  0  0  0  0  0  0  0  0  0  0  0
    1.7643    1.2575    1.8487 H   0  0  0  0  0  0  0  0  0  0  0  0
   -1.3726    2.1478    0.6043 C   0  0  0  0  0  0  0  0  0  0  0  0
   -1.0133    2.4536   -0.3792 H   0  0  0  0  0  0  0  0  0  0  0  0
   -2.3006    1.5918    0.4716 H   0  0  0  0  0  0  0  0  0  0  0  0
   -1.7052    3.4062    1.4173 C   0  0  0  0  0  0  0  0  0  0  0  0
   -0.8331    4.0558    1.4903 H   0  0  0  0  0  0  0  0  0  0  0  0
   -2.5053    3.9547    0.9196 H   0  0  0  0  0  0  0  0  0  0  0  0
   -2.0365    3.1271    2.4181 H   0  0  0  0  0  0  0  0  0  0  0  0
    0.8897   -1.0331    1.0816 C   0  0  0  0  0  0  0  0  0  0  0  0
    1.6755   -1.5626    0.2971 O   0  0  0  0  0  0  0  0  0  0  0  0
    0.9859   -1.1930    2.4077 N   0  0  0  0  0  0  0  0  0  0  0  0
    0.3128   -0.7188    2.9888 H   0  0  0  0  0  0  0  0  0  0  0  0
    2.0047   -2.0118    3.0618 C   0  0  0  0  0  0  0  0  0  0  0  0
    2.9962   -1.7138    2.7139 H   0  0  0  0  0  0  0  0  0  0  0  0
    1.9523   -1.8881    4.1445 H   0  0  0  0  0  0  0  0  0  0  0  0
    1.8499   -3.0623    2.8086 H   0  0  0  0  0  0  0  0  0  0  0  0
  5  6  2  0  0  0  0
  5  7  1  0  0  0  0
  2  3  1  0  0  0  0
  2  4  1  0  0  0  0
  2  5  1  0  0  0  0
  1  2  1  0  0  0  0
 24 25  2  0  0  0  0
 24 26  1  0  0  0  0
 20 21  1  0  0  0  0
 20 22  1  0  0  0  0
 20 23  1  0  0  0  0
 17 18  1  0  0  0  0
 17 19  1  0  0  0  0
 17 20  1  0  0  0  0
 13 14  1  0  0  0  0
 13 15  1  0  0  0  0
 13 16  1  0  0  0  0
 11 12  1  0  0  0  0
 11 13  1  0  0  0  0
 11 17  1  0  0  0  0
  9 10  1  0  0  0  0
  9 11  1  0  0  0  0
  9 24  1  0  0  0  0
  7  8  1  0  0  0  0
  7  9  1  0  0  0  0
 28 29  1  0  0  0  0
 28 30  1  0  0  0  0
 28 31  1  0  0  0  0
 26 27  1  0  0  0  0
 26 28  1  0  0  0  0
M  END
$$$$
default_name
  -OEChem-01062215323D

 31 30  0     1  0  0  0  0  0999 V2000
   -3.0760   -3.6390    1.5496 H   0  0  0  0  0  0  0  0  0  0  0  0
   -3.0940   -2.6290    1.1426 C   0  0  0  0  0  0  0  0  0  0  0  0
   -3.7160   -1.9930    1.7706 H   0  0  0  0  0  0  0  0  0  0  0  0
   -3.4880   -2.6500    0.1286 H   0  0  0  0  0  0  0  0  0  0  0  0
   -1.6860   -2.0850    1.1196 C   0  0  0  0  0  0  0  0  0  0  0  0
   -0.7540   -2.7700    1.5226 O   0  0  0  0  0  0  0  0  0  0  0  0
   -1.5320   -0.8490    0.6496 N   0  0  0  0  0  0  0  0  0  0  0  0
   -2.3500   -0.3360    0.3566 H   0  0  0  0  0  0  0  0  0  0  0  0
   -0.2470   -0.1410    0.5576 C   0  0  1  0  0  0  0  0  0  0  0  0
   -0.0524    0.0516   -0.4980 H   0  0  0  0  0  0  0  0  0  0  0  0
   -0.3337    1.2265    1.2821 C   0  0  1  0  0  0  0  0  0  0  0  0
   -0.6853    1.0311    2.2969 H   0  0  0  0  0  0  0  0  0  0  0  0
    1.0357    1.9247    1.3868 C   0  0  0  0  0  0  0  0  0  0  0  0
    1.3977    2.2104    0.3976 H   0  0  0  0  0  0  0  0  0  0  0  0
    0.9597    2.8153    2.0087 H   0  0  0  0  0  0  0  0  0  0  0  0
    1.7643    1.2575    1.8487 H   0  0  0  0  0  0  0  0  0  0  0  0
   -1.3726    2.1478    0.6043 C   0  0  0  0  0  0  0  0  0  0  0  0
   -1.0133    2.4536   -0.3792 H   0  0  0  0  0  0  0  0  0  0  0  0
   -2.3006    1.5918    0.4716 H   0  0  0  0  0  0  0  0  0  0  0  0
   -1.7052    3.4062    1.4173 C   0  0  0  0  0  0  0  0  0  0  0  0
   -0.8331    4.0558    1.4903 H   0  0  0  0  0  0  0  0  0  0  0  0
   -2.5053    3.9547    0.9196 H   0  0  0  0  0  0  0  0  0  0  0  0
   -2.0365    3.1271    2.4181 H   0  0  0  0  0  0  0  0  0  0  0  0
    0.8897   -1.0331    1.0816 C   0  0  0  0  0  0  0  0  0  0  0  0
    1.8289   -1.3373    0.3478 O   0  0  0  0  0  0  0  0  0  0  0  0
    0.8131   -1.4450    2.3535 N   0  0  0  0  0  0  0  0  0  0  0  0
    0.0193   -1.1463    2.8978 H   0  0  0  0  0  0  0  0  0  0  0  0
    1.8077   -2.2999    2.9986 C   0  0  0  0  0  0  0  0  0  0  0  0
    2.8026   -1.8668    2.8736 H   0  0  0  0  0  0  0  0  0  0  0  0
    1.5900   -2.3974    4.0631 H   0  0  0  0  0  0  0  0  0  0  0  0
    1.7992   -3.2880    2.5343 H   0  0  0  0  0  0  0  0  0  0  0  0
  5  6  2  0  0  0  0
  5  7  1  0  0  0  0
  2  3  1  0  0  0  0
  2  4  1  0  0  0  0
  2  5  1  0  0  0  0
  1  2  1  0  0  0  0
 24 25  2  0  0  0  0
 24 26  1  0  0  0  0
 20 21  1  0  0  0  0
 20 22  1  0  0  0  0
 20 23  1  0  0  0  0
 17 18  1  0  0  0  0
 17 19  1  0  0  0  0
 17 20  1  0  0  0  0
 13 14  1  0  0  0  0
 13 15  1  0  0  0  0
 13 16  1  0  0  0  0
 11 12  1  0  0  0  0
 11 13  1  0  0  0  0
 11 17  1  0  0  0  0
  9 10  1  0  0  0  0
  9 11  1  0  0  0  0
  9 24  1  0  0  0  0
  7  8  1  0  0  0  0
  7  9  1  0  0  0  0
 28 29  1  0  0  0  0
 28 30  1  0  0  0  0
 28 31  1  0  0  0  0
 26 27  1  0  0  0  0
 26 28  1  0  0  0  0
M  END
$$$$
default_name
  -OEChem-01062215323D

 31 30  0     1  0  0  0  0  0999 V2000
   -3.0760   -3.6390    1.5496 H   0  0  0  0  0  0  0  0  0  0  0  0
   -3.0940   -2.6290    1.1426 C   0  0  0  0  0  0  0  0  0  0  0  0
   -3.7160   -1.9930    1.7706 H   0  0  0  0  0  0  0  0  0  0  0  0
   -3.4880   -2.6500    0.1286 H   0  0  0  0  0  0  0  0  0  0  0  0
   -1.6860   -2.0850    1.1196 C   0  0  0  0  0  0  0  0  0  0  0  0
   -0.7540   -2.7700    1.5226 O   0  0  0  0  0  0  0  0  0  0  0  0
   -1.5320   -0.8490    0.6496 N   0  0  0  0  0  0  0  0  0  0  0  0
   -2.3500   -0.3360    0.3566 H   0  0  0  0  0  0  0  0  0  0  0  0
   -0.2470   -0.1410    0.5576 C   0  0  1  0  0  0  0  0  0  0  0  0
   -0.0524    0.0516   -0.4980 H   0  0  0  0  0  0  0  0  0  0  0  0
   -0.3337    1.2265    1.2821 C   0  0  1  0  0  0  0  0  0  0  0  0
   -0.6853    1.0311    2.2969 H   0  0  0  0  0  0  0  0  0  0  0  0
    1.0357    1.9247    1.3868 C   0  0  0  0  0  0  0  0  0  0  0  0
    1.3977    2.2104    0.3976 H   0  0  0  0  0  0  0  0  0  0  0  0
    0.9597    2.8153    2.0087 H   0  0  0  0  0  0  0  0  0  0  0  0
    1.7643    1.2575    1.8487 H   0  0  0  0  0  0  0  0  0  0  0  0
   -1.3726    2.1478    0.6043 C   0  0  0  0  0  0  0  0  0  0  0  0
   -1.0133    2.4536   -0.3792 H   0  0  0  0  0  0  0  0  0  0  0  0
   -2.3006    1.5918    0.4716 H   0  0  0  0  0  0  0  0  0  0  0  0
   -1.7052    3.4062    1.4173 C   0  0  0  0  0  0  0  0  0  0  0  0
   -0.8331    4.0558    1.4903 H   0  0  0  0  0  0  0  0  0  0  0  0
   -2.5053    3.9547    0.9196 H   0  0  0  0  0  0  0  0  0  0  0  0
   -2.0365    3.1271    2.4181 H   0  0  0  0  0  0  0  0  0  0  0  0
    0.8897   -1.0331    1.0816 C   0  0  0  0  0  0  0  0  0  0  0  0
    1.9497   -1.1159    0.4628 O   0  0  0  0  0  0  0  0  0  0  0  0
    0.6765   -1.6934    2.2270 N   0  0  0  0  0  0  0  0  0  0  0  0
   -0.2129   -1.5677    2.6840 H   0  0  0  0  0  0  0  0  0  0  0  0
    1.6524   -2.5836    2.8527 C   0  0  0  0  0  0  0  0  0  0  0  0
    2.6050   -2.0622    2.9695 H   0  0  0  0  0  0  0  0  0  0  0  0
    1.2973   -2.9058    3.8326 H   0  0  0  0  0  0  0  0  0  0  0  0
    1.8114   -3.4579    2.2187 H   0  0  0  0  0  0  0  0  0  0  0  0
  5  6  2  0  0  0  0
  5  7  1  0  0  0  0
  2  3  1  0  0  0  0
  2  4  1  0  0  0  0
  2  5  1  0  0  0  0
  1  2  1  0  0  0  0
 24 25  2  0  0  0  0
 24 26  1  0  0  0  0
 20 21  1  0  0  0  0
 20 22  1  0  0  0  0
 20 23  1  0  0  0  0
 17 18  1  0  0  0  0
 17 19  1  0  0  0  0
 17 20  1  0  0  0  0
 13 14  1  0  0  0  0
 13 15  1  0  0  0  0
 13 16  1  0  0  0  0
 11 12  1  0  0  0  0
 11 13  1  0  0  0  0
 11 17  1  0  0  0  0
  9 10  1  0  0  0  0
  9 11  1  0  0  0  0
  9 24  1  0  0  0  0
  7  8  1  0  0  0  0
  7  9  1  0  0  0  0
 28 29  1  0  0  0  0
 28 30  1  0  0  0  0
 28 31  1  0  0  0  0
 26 27  1  0  0  0  0
 26 28  1  0  0  0  0
M  END
$$$$
default_name
  -OEChem-01062215323D

 31 30  0     1  0  0  0  0  0999 V2000
   -3.0760   -3.6390    1.5496 H   0  0  0  0  0  0  0  0  0  0  0  0
   -3.0940   -2.6290    1.1426 C   0  0  0  0  0  0  0  0  0  0  0  0
   -3.7160   -1.9930    1.7706 H   0  0  0  0  0  0  0  0  0  0  0  0
   -3.4880   -2.6500    0.1286 H   0  0  0  0  0  0  0  0  0  0  0  0
   -1.6860   -2.0850    1.1196 C   0  0  0  0  0  0  0  0  0  0  0  0
   -0.7540   -2.7700    1.5226 O   0  0  0  0  0  0  0  0  0  0  0  0
   -1.5320   -0.8490    0.6496 N   0  0  0  0  0  0  0  0  0  0  0  0
   -2.3500   -0.3360    0.3566 H   0  0  0  0  0  0  0  0  0  0  0  0
   -0.2470   -0.1410    0.5576 C   0  0  1  0  0  0  0  0  0  0  0  0
   -0.0524    0.0516   -0.4980 H   0  0  0  0  0  0  0  0  0  0  0  0
   -0.3337    1.2265    1.2821 C   0  0  1  0  0  0  0  0  0  0  0  0
   -0.6853    1.0311    2.2969 H   0  0  0  0  0  0  0  0  0  0  0  0
    1.0357    1.9247    1.3868 C   0  0  0  0  0  0  0  0  0  0  0  0
    1.3977    2.2104    0.3976 H   0  0  0  0  0  0  0  0  0  0  0  0
    0.9597    2.8153    2.0087 H   0  0  0  0  0  0  0  0  0  0  0  0
    1.7643    1.2575    1.8487 H   0  0  0  0  0  0  0  0  0  0  0  0
   -1.3726    2.1478    0.6043 C   0  0  0  0  0  0  0  0  0  0  0  0
   -1.0133    2.4536   -0.3792 H   0  0  0  0  0  0  0  0  0  0  0  0
   -2.3006    1.5918    0.4716 H   0  0  0  0  0  0  0  0  0  0  0  0
   -1.7052    3.4062    1.4173 C   0  0  0  0  0  0  0  0  0  0  0  0
   -0.8331    4.0558    1.4903 H   0  0  0  0  0  0  0  0  0  0  0  0
   -2.5053    3.9547    0.9196 H   0  0  0  0  0  0  0  0  0  0  0  0
   -2.0365    3.1271    2.4181 H   0  0  0  0  0  0  0  0  0  0  0  0
    0.8897   -1.0331    1.0816 C   0  0  0  0  0  0  0  0  0  0  0  0
    2.0295   -0.9134    0.6345 O   0  0  0  0  0  0  0  0  0  0  0  0
    0.5855   -1.9211    2.0367 N   0  0  0  0  0  0  0  0  0  0  0  0
   -0.3678   -1.9543    2.3619 H   0  0  0  0  0  0  0  0  0  0  0  0
    1.5492   -2.8433    2.6342 C   0  0  0  0  0  0  0  0  0  0  0  0
    2.4170   -2.2867    2.9950 H   0  0  0  0  0  0  0  0  0  0  0  0
    1.0940   -3.3786    3.4687 H   0  0  0  0  0  0  0  0  0  0  0  0
    1.8855   -3.5606    1.8830 H   0  0  0  0  0  0  0  0  0  0  0  0
  5  6  2  0  0  0  0
  5  7  1  0  0  0  0
  2  3  1  0  0  0  0
  2  4  1  0  0  0  0
  2  5  1  0  0  0  0
  1  2  1  0  0  0  0
 24 25  2  0  0  0  0
 24 26  1  0  0  0  0
 20 21  1  0  0  0  0
 20 22  1  0  0  0  0
 20 23  1  0  0  0  0
 17 18  1  0  0  0  0
 17 19  1  0  0  0  0
 17 20  1  0  0  0  0
 13 14  1  0  0  0  0
 13 15  1  0  0  0  0
 13 16  1  0  0  0  0
 11 12  1  0  0  0  0
 11 13  1  0  0  0  0
 11 17  1  0  0  0  0
  9 10  1  0  0  0  0
  9 11  1  0  0  0  0
  9 24  1  0  0  0  0
  7  8  1  0  0  0  0
  7  9  1  0  0  0  0
 28 29  1  0  0  0  0
 28 30  1  0  0  0  0
 28 31  1  0  0  0  0
 26 27  1  0  0  0  0
 26 28  1  0  0  0  0
M  END
$$$$
default_name
  -OEChem-01062215323D

 31 30  0     1  0  0  0  0  0999 V2000
   -3.0760   -3.6390    1.5496 H   0  0  0  0  0  0  0  0  0  0  0  0
   -3.0940   -2.6290    1.1426 C   0  0  0  0  0  0  0  0  0  0  0  0
   -3.7160   -1.9930    1.7706 H   0  0  0  0  0  0  0  0  0  0  0  0
   -3.4880   -2.6500    0.1286 H   0  0  0  0  0  0  0  0  0  0  0  0
   -1.6860   -2.0850    1.1196 C   0  0  0  0  0  0  0  0  0  0  0  0
   -0.7540   -2.7700    1.5226 O   0  0  0  0  0  0  0  0  0  0  0  0
   -1.5320   -0.8490    0.6496 N   0  0  0  0  0  0  0  0  0  0  0  0
   -2.3500   -0.3360    0.3566 H   0  0  0  0  0  0  0  0  0  0  0  0
   -0.2470   -0.1410    0.5576 C   0  0  1  0  0  0  0  0  0  0  0  0
   -0.0524    0.0516   -0.4980 H   0  0  0  0  0  0  0  0  0  0  0  0
   -0.3337    1.2265    1.2821 C   0  0  1  0  0  0  0  0  0  0  0  0
   -0.6853    1.0311    2.2969 H   0  0  0  0  0  0  0  0  0  0  0  0
    1.0357    1.9247    1.3868 C   0  0  0  0  0  0  0  0  0  0  0  0
    1.3977    2.2104    0.3976 H   0  0  0  0  0  0  0  0  0  0  0  0
    0.9597    2.8153    2.0087 H   0  0  0  0  0  0  0  0  0  0  0  0
    1.7643    1.2575    1.8487 H   0  0  0  0  0  0  0  0  0  0  0  0
   -1.3726    2.1478    0.6043 C   0  0  0  0  0  0  0  0  0  0  0  0
   -1.0133    2.4536   -0.3792 H   0  0  0  0  0  0  0  0  0  0  0  0
   -2.3006    1.5918    0.4716 H   0  0  0  0  0  0  0  0  0  0  0  0
   -1.7052    3.4062    1.4173 C   0  0  0  0  0  0  0  0  0  0  0  0
   -0.8331    4.0558    1.4903 H   0  0  0  0  0  0  0  0  0  0  0  0
   -2.5053    3.9547    0.9196 H   0  0  0  0  0  0  0  0  0  0  0  0
   -2.0365    3.1271    2.4181 H   0  0  0  0  0  0  0  0  0  0  0  0
    0.8897   -1.0331    1.0816 C   0  0  0  0  0  0  0  0  0  0  0  0
    2.0629   -0.7436    0.8511 O   0  0  0  0  0  0  0  0  0  0  0  0
    0.5463   -2.1127    1.7956 N   0  0  0  0  0  0  0  0  0  0  0  0
   -0.4349   -2.2797    1.9536 H   0  0  0  0  0  0  0  0  0  0  0  0
    1.5054   -3.0615    2.3579 C   0  0  0  0  0  0  0  0  0  0  0  0
    2.2514   -2.5251    2.9484 H   0  0  0  0  0  0  0  0  0  0  0  0
    0.9940   -3.7835    2.9962 H   0  0  0  0  0  0  0  0  0  0  0  0
    2.0167   -3.5889    1.5503 H   0  0  0  0  0  0  0  0  0  0  0  0
  5  6  2  0  0  0  0
  5  7  1  0  0  0  0
  2  3  1  0  0  0  0
  2  4  1  0  0  0  0
  2  5  1  0  0  0  0
  1  2  1  0  0  0  0
 24 25  2  0  0  0  0
 24 26  1  0  0  0  0
 20 21  1  0  0  0  0
 20 22  1  0  0  0  0
 20 23  1  0  0  0  0
 17 18  1  0  0  0  0
 17 19  1  0  0  0  0
 17 20  1  0  0  0  0
 13 14  1  0  0  0  0
 13 15  1  0  0  0  0
 13 16  1  0  0  0  0
 11 12  1  0  0  0  0
 11 13  1  0  0  0  0
 11 17  1  0  0  0  0
  9 10  1  0  0  0  0
  9 11  1  0  0  0  0
  9 24  1  0  0  0  0
  7  8  1  0  0  0  0
  7  9  1  0  0  0  0
 28 29  1  0  0  0  0
 28 30  1  0  0  0  0
 28 31  1  0  0  0  0
 26 27  1  0  0  0  0
 26 28  1  0  0  0  0
M  END
$$$$
default_name
  -OEChem-01062215323D

 31 30  0     1  0  0  0  0  0999 V2000
   -3.0760   -3.6390    1.5496 H   0  0  0  0  0  0  0  0  0  0  0  0
   -3.0940   -2.6290    1.1426 C   0  0  0  0  0  0  0  0  0  0  0  0
   -3.7160   -1.9930    1.7706 H   0  0  0  0  0  0  0  0  0  0  0  0
   -3.4880   -2.6500    0.1286 H   0  0  0  0  0  0  0  0  0  0  0  0
   -1.6860   -2.0850    1.1196 C   0  0  0  0  0  0  0  0  0  0  0  0
   -0.7540   -2.7700    1.5226 O   0  0  0  0  0  0  0  0  0  0  0  0
   -1.5320   -0.8490    0.6496 N   0  0  0  0  0  0  0  0  0  0  0  0
   -2.3500   -0.3360    0.3566 H   0  0  0  0  0  0  0  0  0  0  0  0
   -0.2470   -0.1410    0.5576 C   0  0  1  0  0  0  0  0  0  0  0  0
   -0.0524    0.0516   -0.4980 H   0  0  0  0  0  0  0  0  0  0  0  0
   -0.3337    1.2265    1.2821 C   0  0  1  0  0  0  0  0  0  0  0  0
   -0.6853    1.0311    2.2969 H   0  0  0  0  0  0  0  0  0  0  0  0
    1.0357    1.9247    1.3868 C   0  0  0  0  0  0  0  0  0  0  0  0
    1.3977    2.2104    0.3976 H   0  0  0  0  0  0  0  0  0  0  0  0
    0.9597    2.8153    2.0087 H   0  0  0  0  0  0  0  0  0  0  0  0
    1.7643    1.2575    1.8487 H   0  0  0  0  0  0  0  0  0  0  0  0
   -1.3726    2.1478    0.6043 C   0  0  0  0  0  0  0  0  0  0  0  0
   -1.0133    2.4536   -0.3792 H   0  0  0  0  0  0  0  0  0  0  0  0
   -2.3006    1.5918    0.4716 H   0  0  0  0  0  0  0  0  0  0  0  0
   -1.7052    3.4062    1.4173 C   0  0  0  0  0  0  0  0  0  0  0  0
   -0.8331    4.0558    1.4903 H   0  0  0  0  0  0  0  0  0  0  0  0
   -2.5053    3.9547    0.9196 H   0  0  0  0  0  0  0  0  0  0  0  0
   -2.0365    3.1271    2.4181 H   0  0  0  0  0  0  0  0  0  0  0  0
    0.8897   -1.0331    1.0816 C   0  0  0  0  0  0  0  0  0  0  0  0
    2.0476   -0.6181    1.0978 O   0  0  0  0  0  0  0  0  0  0  0  0
    0.5615   -2.2550    1.5202 N   0  0  0  0  0  0  0  0  0  0  0  0
   -0.4098   -2.5218    1.4867 H   0  0  0  0  0  0  0  0  0  0  0  0
    1.5238   -3.2232    2.0427 C   0  0  0  0  0  0  0  0  0  0  0  0
    2.1194   -2.7610    2.8330 H   0  0  0  0  0  0  0  0  0  0  0  0
    1.0042   -4.0931    2.4472 H   0  0  0  0  0  0  0  0  0  0  0  0
    2.1958   -3.5411    1.2432 H   0  0  0  0  0  0  0  0  0  0  0  0
  5  6  2  0  0  0  0
  5  7  1  0  0  0  0
  2  3  1  0  0  0  0
  2  4  1  0  0  0  0
  2  5  1  0  0  0  0
  1  2  1  0  0  0  0
 24 25  2  0  0  0  0
 24 26  1  0  0  0  0
 20 21  1  0  0  0  0
 20 22  1  0  0  0  0
 20 23  1  0  0  0  0
 17 18  1  0  0  0  0
 17 19  1  0  0  0  0
 17 20  1  0  0  0  0
 13 14  1  0  0  0  0
 13 15  1  0  0  0  0
 13 16  1  0  0  0  0
 11 12  1  0  0  0  0
 11 13  1  0  0  0  0
 11 17  1  0  0  0  0
  9 10  1  0  0  0  0
  9 11  1  0  0  0  0
  9 24  1  0  0  0  0
  7  8  1  0  0  0  0
  7  9  1  0  0  0  0
 28 29  1  0  0  0  0
 28 30  1  0  0  0  0
 28 31  1  0  0  0  0
 26 27  1  0  0  0  0
 26 28  1  0  0  0  0
M  END
$$$$
default_name
  -OEChem-01062215323D

 31 30  0     1  0  0  0  0  0999 V2000
   -3.0760   -3.6390    1.5496 H   0  0  0  0  0  0  0  0  0  0  0  0
   -3.0940   -2.6290    1.1426 C   0  0  0  0  0  0  0  0  0  0  0  0
   -3.7160   -1.9930    1.7706 H   0  0  0  0  0  0  0  0  0  0  0  0
   -3.4880   -2.6500    0.1286 H   0  0  0  0  0  0  0  0  0  0  0  0
   -1.6860   -2.0850    1.1196 C   0  0  0  0  0  0  0  0  0  0  0  0
   -0.7540   -2.7700    1.5226 O   0  0  0  0  0  0  0  0  0  0  0  0
   -1.5320   -0.8490    0.6496 N   0  0  0  0  0  0  0  0  0  0  0  0
   -2.3500   -0.3360    0.3566 H   0  0  0  0  0  0  0  0  0  0  0  0
   -0.2470   -0.1410    0.5576 C   0  0  1  0  0  0  0  0  0  0  0  0
   -0.0524    0.0516   -0.4980 H   0  0  0  0  0  0  0  0  0  0  0  0
   -0.3337    1.2265    1.2821 C   0  0  1  0  0  0  0  0  0  0  0  0
   -0.6853    1.0311    2.2969 H   0  0  0  0  0  0  0  0  0  0  0  0
    1.0357    1.9247    1.3868 C   0  0  0  0  0  0  0  0  0  0  0  0
    1.3977    2.2104    0.3976 H   0  0  0  0  0  0  0  0  0  0  0  0
    0.9597    2.8153    2.0087 H   0  0  0  0  0  0  0  0  0  0  0  0
    1.7643    1.2575    1.8487 H   0  0  0  0  0  0  0  0  0  0  0  0
   -1.3726    2.1478    0.6043 C   0  0  0  0  0  0  0  0  0  0  0  0
   -1.0133    2.4536   -0.3792 H   0  0  0  0  0  0  0  0  0  0  0  0
   -2.3006    1.5918    0.4716 H   0  0  0  0  0  0  0  0  0  0  0  0
   -1.7052    3.4062    1.4173 C   0  0  0  0  0  0  0  0  0  0  0  0
   -0.8331    4.0558    1.4903 H   0  0  0  0  0  0  0  0  0  0  0  0
   -2.5053    3.9547    0.9196 H   0  0  0  0  0  0  0  0  0  0  0  0
   -2.0365    3.1271    2.4181 H   0  0  0  0  0  0  0  0  0  0  0  0
    0.8897   -1.0331    1.0816 C   0  0  0  0  0  0  0  0  0  0  0  0
    1.9848   -0.5454    1.3578 O   0  0  0  0  0  0  0  0  0  0  0  0
    0.6301   -2.3385    1.2293 N   0  0  0  0  0  0  0  0  0  0  0  0
   -0.2939   -2.6641    0.9933 H   0  0  0  0  0  0  0  0  0  0  0  0
    1.6032   -3.3175    1.7100 C   0  0  0  0  0  0  0  0  0  0  0  0
    2.0302   -2.9785    2.6564 H   0  0  0  0  0  0  0  0  0  0  0  0
    1.1238   -4.2861    1.8592 H   0  0  0  0  0  0  0  0  0  0  0  0
    2.4107   -3.4203    0.9826 H   0  0  0  0  0  0  0  0  0  0  0  0
  5  6  2  0  0  0  0
  5  7  1  0  0  0  0
  2  3  1  0  0  0  0
  2  4  1  0  0  0  0
  2  5  1  0  0  0  0
  1  2  1  0  0  0  0
 24 25  2  0  0  0  0
 24 26  1  0  0  0  0
 20 21  1  0  0  0  0
 20 22  1  0  0  0  0
 20 23  1  0  0  0  0
 17 18  1  0  0  0  0
 17 19  1  0  0  0  0
 17 20  1  0  0  0  0
 13 14  1  0  0  0  0
 13 15  1  0  0  0  0
 13 16  1  0  0  0  0
 11 12  1  0  0  0  0
 11 13  1  0  0  0  0
 11 17  1  0  0  0  0
  9 10  1  0  0  0  0
  9 11  1  0  0  0  0
  9 24  1  0  0  0  0
  7  8  1  0  0  0  0
  7  9  1  0  0  0  0
 28 29  1  0  0  0  0
 28 30  1  0  0  0  0
 28 31  1  0  0  0  0
 26 27  1  0  0  0  0
 26 28  1  0  0  0  0
M  END
$$$$
default_name
  -OEChem-01062215323D

 31 30  0     1  0  0  0  0  0999 V2000
   -3.0760   -3.6390    1.5496 H   0  0  0  0  0  0  0  0  0  0  0  0
   -3.0940   -2.6290    1.1426 C   0  0  0  0  0  0  0  0  0  0  0  0
   -3.7160   -1.9930    1.7706 H   0  0  0  0  0  0  0  0  0  0  0  0
   -3.4880   -2.6500    0.1286 H   0  0  0  0  0  0  0  0  0  0  0  0
   -1.6860   -2.0850    1.1196 C   0  0  0  0  0  0  0  0  0  0  0  0
   -0.7540   -2.7700    1.5226 O   0  0  0  0  0  0  0  0  0  0  0  0
   -1.5320   -0.8490    0.6496 N   0  0  0  0  0  0  0  0  0  0  0  0
   -2.3500   -0.3360    0.3566 H   0  0  0  0  0  0  0  0  0  0  0  0
   -0.2470   -0.1410    0.5576 C   0  0  1  0  0  0  0  0  0  0  0  0
   -0.0524    0.0516   -0.4980 H   0  0  0  0  0  0  0  0  0  0  0  0
   -0.3337    1.2265    1.2821 C   0  0  1  0  0  0  0  0  0  0  0  0
   -0.6853    1.0311    2.2969 H   0  0  0  0  0  0  0  0  0  0  0  0
    1.0357    1.9247    1.3868 C   0  0  0  0  0  0  0  0  0  0  0  0
    1.3977    2.2104    0.3976 H   0  0  0  0  0  0  0  0  0  0  0  0
    0.9597    2.8153    2.0087 H   0  0  0  0  0  0  0  0  0  0  0  0
    1.7643    1.2575    1.8487 H   0  0  0  0  0  0  0  0  0  0  0  0
   -1.3726    2.1478    0.6043 C   0  0  0  0  0  0  0  0  0  0  0  0
   -1.0133    2.4536   -0.3792 H   0  0  0  0  0  0  0  0  0  0  0  0
   -2.3006    1.5918    0.4716 H   0  0  0  0  0  0  0  0  0  0  0  0
   -1.7052    3.4062    1.4173 C   0  0  0  0  0  0  0  0  0  0  0  0
   -0.8331    4.0558    1.4903 H   0  0  0  0  0  0  0  0  0  0  0  0
   -2.5053    3.9547    0.9196 H   0  0  0  0  0  0  0  0  0  0  0  0
   -2.0365    3.1271    2.4181 H   0  0  0  0  0  0  0  0  0  0  0  0
    0.8897   -1.0331    1.0816 C   0  0  0  0  0  0  0  0  0  0  0  0
    1.8786   -0.5306    1.6135 O   0  0  0  0  0  0  0  0  0  0  0  0
    0.7475   -2.3573    0.9425 N   0  0  0  0  0  0  0  0  0  0  0  0
   -0.0954   -2.6969    0.5068 H   0  0  0  0  0  0  0  0  0  0  0  0
    1.7381   -3.3378    1.3825 C   0  0  0  0  0  0  0  0  0  0  0  0
    1.9896   -3.1626    2.4309 H   0  0  0  0  0  0  0  0  0  0  0  0
    1.3447   -4.3494    1.2723 H   0  0  0  0  0  0  0  0  0  0  0  0
    2.6468   -3.2348    0.7863 H   0  0  0  0  0  0  0  0  0  0  0  0
  5  6  2  0  0  0  0
  5  7  1  0  0  0  0
  2  3  1  0  0  0  0
  2  4  1  0  0  0  0
  2  5  1  0  0  0  0
  1  2  1  0  0  0  0
 24 25  2  0  0  0  0
 24 26  1  0  0  0  0
 20 21  1  0  0  0  0
 20 22  1  0  0  0  0
 20 23  1  0  0  0  0
 17 18  1  0  0  0  0
 17 19  1  0  0  0  0
 17 20  1  0  0  0  0
 13 14  1  0  0  0  0
 13 15  1  0  0  0  0
 13 16  1  0  0  0  0
 11 12  1  0  0  0  0
 11 13  1  0  0  0  0
 11 17  1  0  0  0  0
  9 10  1  0  0  0  0
  9 11  1  0  0  0  0
  9 24  1  0  0  0  0
  7  8  1  0  0  0  0
  7  9  1  0  0  0  0
 28 29  1  0  0  0  0
 28 30  1  0  0  0  0
 28 31  1  0  0  0  0
 26 27  1  0  0  0  0
 26 28  1  0  0  0  0
M  END
$$$$
default_name
  -OEChem-01062215323D

 31 30  0     1  0  0  0  0  0999 V2000
   -3.0760   -3.6390    1.5496 H   0  0  0  0  0  0  0  0  0  0  0  0
   -3.0940   -2.6290    1.1426 C   0  0  0  0  0  0  0  0  0  0  0  0
   -3.7160   -1.9930    1.7706 H   0  0  0  0  0  0  0  0  0  0  0  0
   -3.4880   -2.6500    0.1286 H   0  0  0  0  0  0  0  0  0  0  0  0
   -1.6860   -2.0850    1.1196 C   0  0  0  0  0  0  0  0  0  0  0  0
   -0.7540   -2.7700    1.5226 O   0  0  0  0  0  0  0  0  0  0  0  0
   -1.5320   -0.8490    0.6496 N   0  0  0  0  0  0  0  0  0  0  0  0
   -2.3500   -0.3360    0.3566 H   0  0  0  0  0  0  0  0  0  0  0  0
   -0.2470   -0.1410    0.5576 C   0  0  1  0  0  0  0  0  0  0  0  0
   -0.0524    0.0516   -0.4980 H   0  0  0  0  0  0  0  0  0  0  0  0
   -0.3337    1.2265    1.2821 C   0  0  1  0  0  0  0  0  0  0  0  0
   -0.6853    1.0311    2.2969 H   0  0  0  0  0  0  0  0  0  0  0  0
    1.0357    1.9247    1.3868 C   0  0  0  0  0  0  0  0  0  0  0  0
    1.3977    2.2104    0.3976 H   0  0  0  0  0  0  0  0  0  0  0  0
    0.9597    2.8153    2.0087 H   0  0  0  0  0  0  0  0  0  0  0  0
    1.7643    1.2575    1.8487 H   0  0  0  0  0  0  0  0  0  0  0  0
   -1.3726    2.1478    0.6043 C   0  0  0  0  0  0  0  0  0  0  0  0
   -1.0133    2.4536   -0.3792 H   0  0  0  0  0  0  0  0  0  0  0  0
   -2.3006    1.5918    0.4716 H   0  0  0  0  0  0  0  0  0  0  0  0
   -1.7052    3.4062    1.4173 C   0  0  0  0  0  0  0  0  0  0  0  0
   -0.8331    4.0558    1.4903 H   0  0  0  0  0  0  0  0  0  0  0  0
   -2.5053    3.9547    0.9196 H   0  0  0  0  0  0  0  0  0  0  0  0
   -2.0365    3.1271    2.4181 H   0  0  0  0  0  0  0  0  0  0  0  0
    0.8897   -1.0331    1.0816 C   0  0  0  0  0  0  0  0  0  0  0  0
    1.7363   -0.5745    1.8473 O   0  0  0  0  0  0  0  0  0  0  0  0
    0.9056   -2.3103    0.6796 N   0  0  0  0  0  0  0  0  0  0  0  0
    0.1724   -2.6179    0.0604 H   0  0  0  0  0  0  0  0  0  0  0  0
    1.9195   -3.2829    1.0826 C   0  0  0  0  0  0  0  0  0  0  0  0
    2.0006   -3.3009    2.1717 H   0  0  0  0  0  0  0  0  0  0  0  0
    1.6518   -4.2787    0.7264 H   0  0  0  0  0  0  0  0  0  0  0  0
    2.8880   -2.9972    0.6677 H   0  0  0  0  0  0  0  0  0  0  0  0
  5  6  2  0  0  0  0
  5  7  1  0  0  0  0
  2  3  1  0  0  0  0
  2  4  1  0  0  0  0
  2  5  1  0  0  0  0
  1  2  1  0  0  0  0
 24 25  2  0  0  0  0
 24 26  1  0  0  0  0
 20 21  1  0  0  0  0
 20 22  1  0  0  0  0
 20 23  1  0  0  0  0
 17 18  1  0  0  0  0
 17 19  1  0  0  0  0
 17 20  1  0  0  0  0
 13 14  1  0  0  0  0
 13 15  1  0  0  0  0
 13 16  1  0  0  0  0
 11 12  1  0  0  0  0
 11 13  1  0  0  0  0
 11 17  1  0  0  0  0
  9 10  1  0  0  0  0
  9 11  1  0  0  0  0
  9 24  1  0  0  0  0
  7  8  1  0  0  0  0
  7  9  1  0  0  0  0
 28 29  1  0  0  0  0
 28 30  1  0  0  0  0
 28 31  1  0  0  0  0
 26 27  1  0  0  0  0
 26 28  1  0  0  0  0
M  END
$$$$
default_name
  -OEChem-01062215323D

 31 30  0     1  0  0  0  0  0999 V2000
   -3.0760   -3.6390    1.5496 H   0  0  0  0  0  0  0  0  0  0  0  0
   -3.0940   -2.6290    1.1426 C   0  0  0  0  0  0  0  0  0  0  0  0
   -3.7160   -1.9930    1.7706 H   0  0  0  0  0  0  0  0  0  0  0  0
   -3.4880   -2.6500    0.1286 H   0  0  0  0  0  0  0  0  0  0  0  0
   -1.6860   -2.0850    1.1196 C   0  0  0  0  0  0  0  0  0  0  0  0
   -0.7540   -2.7700    1.5226 O   0  0  0  0  0  0  0  0  0  0  0  0
   -1.5320   -0.8490    0.6496 N   0  0  0  0  0  0  0  0  0  0  0  0
   -2.3500   -0.3360    0.3566 H   0  0  0  0  0  0  0  0  0  0  0  0
   -0.2470   -0.1410    0.5576 C   0  0  1  0  0  0  0  0  0  0  0  0
   -0.0524    0.0516   -0.4980 H   0  0  0  0  0  0  0  0  0  0  0  0
   -0.3337    1.2265    1.2821 C   0  0  1  0  0  0  0  0  0  0  0  0
   -0.6853    1.0311    2.2969 H   0  0  0  0  0  0  0  0  0  0  0  0
    1.0357    1.9247    1.3868 C   0  0  0  0  0  0  0  0  0  0  0  0
    1.3977    2.2104    0.3976 H   0  0  0  0  0  0  0  0  0  0  0  0
    0.9597    2.8153    2.0087 H   0  0  0  0  0  0  0  0  0  0  0  0
    1.7643    1.2575    1.8487 H   0  0  0  0  0  0  0  0  0  0  0  0
   -1.3726    2.1478    0.6043 C   0  0  0  0  0  0  0  0  0  0  0  0
   -1.0133    2.4536   -0.3792 H   0  0  0  0  0  0  0  0  0  0  0  0
   -2.3006    1.5918    0.4716 H   0  0  0  0  0  0  0  0  0  0  0  0
   -1.7052    3.4062    1.4173 C   0  0  0  0  0  0  0  0  0  0  0  0
   -0.8331    4.0558    1.4903 H   0  0  0  0  0  0  0  0  0  0  0  0
   -2.5053    3.9547    0.9196 H   0  0  0  0  0  0  0  0  0  0  0  0
   -2.0365    3.1271    2.4181 H   0  0  0  0  0  0  0  0  0  0  0  0
    0.8897   -1.0331    1.0816 C   0  0  0  0  0  0  0  0  0  0  0  0
    1.5676   -0.6743    2.0434 O   0  0  0  0  0  0  0  0  0  0  0  0
    1.0937   -2.2006    0.4584 N   0  0  0  0  0  0  0  0  0  0  0  0
    0.4911   -2.4325   -0.3154 H   0  0  0  0  0  0  0  0  0  0  0  0
    2.1349   -3.1565    0.8307 C   0  0  0  0  0  0  0  0  0  0  0  0
    2.0623   -3.3839    1.8965 H   0  0  0  0  0  0  0  0  0  0  0  0
    2.0242   -4.0789    0.2588 H   0  0  0  0  0  0  0  0  0  0  0  0
    3.1178   -2.7237    0.6349 H   0  0  0  0  0  0  0  0  0  0  0  0
  5  6  2  0  0  0  0
  5  7  1  0  0  0  0
  2  3  1  0  0  0  0
  2  4  1  0  0  0  0
  2  5  1  0  0  0  0
  1  2  1  0  0  0  0
 24 25  2  0  0  0  0
 24 26  1  0  0  0  0
 20 21  1  0  0  0  0
 20 22  1  0  0  0  0
 20 23  1  0  0  0  0
 17 18  1  0  0  0  0
 17 19  1  0  0  0  0
 17 20  1  0  0  0  0
 13 14  1  0  0  0  0
 13 15  1  0  0  0  0
 13 16  1  0  0  0  0
 11 12  1  0  0  0  0
 11 13  1  0  0  0  0
 11 17  1  0  0  0  0
  9 10  1  0  0  0  0
  9 11  1  0  0  0  0
  9 24  1  0  0  0  0
  7  8  1  0  0  0  0
  7  9  1  0  0  0  0
 28 29  1  0  0  0  0
 28 30  1  0  0  0  0
 28 31  1  0  0  0  0
 26 27  1  0  0  0  0
 26 28  1  0  0  0  0
M  END
$$$$
default_name
  -OEChem-01062215323D

 31 30  0     1  0  0  0  0  0999 V2000
   -3.0760   -3.6390    1.5496 H   0  0  0  0  0  0  0  0  0  0  0  0
   -3.0940   -2.6290    1.1426 C   0  0  0  0  0  0  0  0  0  0  0  0
   -3.7160   -1.9930    1.7706 H   0  0  0  0  0  0  0  0  0  0  0  0
   -3.4880   -2.6500    0.1286 H   0  0  0  0  0  0  0  0  0  0  0  0
   -1.6860   -2.0850    1.1196 C   0  0  0  0  0  0  0  0  0  0  0  0
   -0.7540   -2.7700    1.5226 O   0  0  0  0  0  0  0  0  0  0  0  0
   -1.5320   -0.8490    0.6496 N   0  0  0  0  0  0  0  0  0  0  0  0
   -2.3500   -0.3360    0.3566 H   0  0  0  0  0  0  0  0  0  0  0  0
   -0.2470   -0.1410    0.5576 C   0  0  1  0  0  0  0  0  0  0  0  0
   -0.0524    0.0516   -0.4980 H   0  0  0  0  0  0  0  0  0  0  0  0
   -0.3337    1.2265    1.2821 C   0  0  1  0  0  0  0  0  0  0  0  0
   -0.6853    1.0311    2.2969 H   0  0  0  0  0  0  0  0  0  0  0  0
    1.0357    1.9247    1.3868 C   0  0  0  0  0  0  0  0  0  0  0  0
    1.3977    2.2104    0.3976 H   0  0  0  0  0  0  0  0  0  0  0  0
    0.9597    2.8153    2.0087 H   0  0  0  0  0  0  0  0  0  0  0  0
    1.7643    1.2575    1.8487 H   0  0  0  0  0  0  0  0  0  0  0  0
   -1.3726    2.1478    0.6043 C   0  0  0  0  0  0  0  0  0  0  0  0
   -1.0133    2.4536   -0.3792 H   0  0  0  0  0  0  0  0  0  0  0  0
   -2.3006    1.5918    0.4716 H   0  0  0  0  0  0  0  0  0  0  0  0
   -1.7052    3.4062    1.4173 C   0  0  0  0  0  0  0  0  0  0  0  0
   -0.8331    4.0558    1.4903 H   0  0  0  0  0  0  0  0  0  0  0  0
   -2.5053    3.9547    0.9196 H   0  0  0  0  0  0  0  0  0  0  0  0
   -2.0365    3.1271    2.4181 H   0  0  0  0  0  0  0  0  0  0  0  0
    0.8897   -1.0331    1.0816 C   0  0  0  0  0  0  0  0  0  0  0  0
    1.3840   -0.8230    2.1884 O   0  0  0  0  0  0  0  0  0  0  0  0
    1.2989   -2.0357    0.2940 N   0  0  0  0  0  0  0  0  0  0  0  0
    0.8391   -2.1534   -0.5950 H   0  0  0  0  0  0  0  0  0  0  0  0
    2.3696   -2.9671    0.6439 C   0  0  0  0  0  0  0  0  0  0  0  0
    2.1706   -3.4059    1.6241 H   0  0  0  0  0  0  0  0  0  0  0  0
    2.4365   -3.7635   -0.0987 H   0  0  0  0  0  0  0  0  0  0  0  0
    3.3206   -2.4329    0.6900 H   0  0  0  0  0  0  0  0  0  0  0  0
  5  6  2  0  0  0  0
  5  7  1  0  0  0  0
  2  3  1  0  0  0  0
  2  4  1  0  0  0  0
  2  5  1  0  0  0  0
  1  2  1  0  0  0  0
 24 25  2  0  0  0  0
 24 26  1  0  0  0  0
 20 21  1  0  0  0  0
 20 22  1  0  0  0  0
 20 23  1  0  0  0  0
 17 18  1  0  0  0  0
 17 19  1  0  0  0  0
 17 20  1  0  0  0  0
 13 14  1  0  0  0  0
 13 15  1  0  0  0  0
 13 16  1  0  0  0  0
 11 12  1  0  0  0  0
 11 13  1  0  0  0  0
 11 17  1  0  0  0  0
  9 10  1  0  0  0  0
  9 11  1  0  0  0  0
  9 24  1  0  0  0  0
  7  8  1  0  0  0  0
  7  9  1  0  0  0  0
 28 29  1  0  0  0  0
 28 30  1  0  0  0  0
 28 31  1  0  0  0  0
 26 27  1  0  0  0  0
 26 28  1  0  0  0  0
M  END
$$$$
default_name
  -OEChem-01062215323D

 31 30  0     1  0  0  0  0  0999 V2000
   -3.0760   -3.6390    1.5496 H   0  0  0  0  0  0  0  0  0  0  0  0
   -3.0940   -2.6290    1.1426 C   0  0  0  0  0  0  0  0  0  0  0  0
   -3.7160   -1.9930    1.7706 H   0  0  0  0  0  0  0  0  0  0  0  0
   -3.4880   -2.6500    0.1286 H   0  0  0  0  0  0  0  0  0  0  0  0
   -1.6860   -2.0850    1.1196 C   0  0  0  0  0  0  0  0  0  0  0  0
   -0.7540   -2.7700    1.5226 O   0  0  0  0  0  0  0  0  0  0  0  0
   -1.5320   -0.8490    0.6496 N   0  0  0  0  0  0  0  0  0  0  0  0
   -2.3500   -0.3360    0.3566 H   0  0  0  0  0  0  0  0  0  0  0  0
   -0.2470   -0.1410    0.5576 C   0  0  1  0  0  0  0  0  0  0  0  0
   -0.0524    0.0516   -0.4980 H   0  0  0  0  0  0  0  0  0  0  0  0
   -0.3337    1.2265    1.2821 C   0  0  1  0  0  0  0  0  0  0  0  0
   -0.6853    1.0311    2.2969 H   0  0  0  0  0  0  0  0  0  0  0  0
    1.0357    1.9247    1.3868 C   0  0  0  0  0  0  0  0  0  0  0  0
    1.3977    2.2104    0.3976 H   0  0  0  0  0  0  0  0  0  0  0  0
    0.9597    2.8153    2.0087 H   0  0  0  0  0  0  0  0  0  0  0  0
    1.7643    1.2575    1.8487 H   0  0  0  0  0  0  0  0  0  0  0  0
   -1.3726    2.1478    0.6043 C   0  0  0  0  0  0  0  0  0  0  0  0
   -1.0133    2.4536   -0.3792 H   0  0  0  0  0  0  0  0  0  0  0  0
   -2.3006    1.5918    0.4716 H   0  0  0  0  0  0  0  0  0  0  0  0
   -1.7052    3.4062    1.4173 C   0  0  0  0  0  0  0  0  0  0  0  0
   -0.8331    4.0558    1.4903 H   0  0  0  0  0  0  0  0  0  0  0  0
   -2.5053    3.9547    0.9196 H   0  0  0  0  0  0  0  0  0  0  0  0
   -2.0365    3.1271    2.4181 H   0  0  0  0  0  0  0  0  0  0  0  0
    0.8897   -1.0331    1.0816 C   0  0  0  0  0  0  0  0  0  0  0  0
    1.1981   -1.0107    2.2723 O   0  0  0  0  0  0  0  0  0  0  0  0
    1.5073   -1.8269    0.1975 N   0  0  0  0  0  0  0  0  0  0  0  0
    1.1926   -1.7996   -0.7595 H   0  0  0  0  0  0  0  0  0  0  0  0
    2.6077   -2.7277    0.5349 C   0  0  0  0  0  0  0  0  0  0  0  0
    2.3181   -3.3655    1.3731 H   0  0  0  0  0  0  0  0  0  0  0  0
    2.8607   -3.3541   -0.3217 H   0  0  0  0  0  0  0  0  0  0  0  0
    3.4825   -2.1448    0.8293 H   0  0  0  0  0  0  0  0  0  0  0  0
  5  6  2  0  0  0  0
  5  7  1  0  0  0  0
  2  3  1  0  0  0  0
  2  4  1  0  0  0  0
  2  5  1  0  0  0  0
  1  2  1  0  0  0  0
 24 25  2  0  0  0  0
 24 26  1  0  0  0  0
 20 21  1  0  0  0  0
 20 22  1  0  0  0  0
 20 23  1  0  0  0  0
 17 18  1  0  0  0  0
 17 19  1  0  0  0  0
 17 20  1  0  0  0  0
 13 14  1  0  0  0  0
 13 15  1  0  0  0  0
 13 16  1  0  0  0  0
 11 12  1  0  0  0  0
 11 13  1  0  0  0  0
 11 17  1  0  0  0  0
  9 10  1  0  0  0  0
  9 11  1  0  0  0  0
  9 24  1  0  0  0  0
  7  8  1  0  0  0  0
  7  9  1  0  0  0  0
 28 29  1  0  0  0  0
 28 30  1  0  0  0  0
 28 31  1  0  0  0  0
 26 27  1  0  0  0  0
 26 28  1  0  0  0  0
M  END
$$$$
default_name
  -OEChem-01062215323D

 31 30  0     1  0  0  0  0  0999 V2000
   -3.0760   -3.6390    1.5496 H   0  0  0  0  0  0  0  0  0  0  0  0
   -3.0940   -2.6290    1.1426 C   0  0  0  0  0  0  0  0  0  0  0  0
   -3.7160   -1.9930    1.7706 H   0  0  0  0  0  0  0  0  0  0  0  0
   -3.4880   -2.6500    0.1286 H   0  0  0  0  0  0  0  0  0  0  0  0
   -1.6860   -2.0850    1.1196 C   0  0  0  0  0  0  0  0  0  0  0  0
   -0.7540   -2.7700    1.5226 O   0  0  0  0  0  0  0  0  0  0  0  0
   -1.5320   -0.8490    0.6496 N   0  0  0  0  0  0  0  0  0  0  0  0
   -2.3500   -0.3360    0.3566 H   0  0  0  0  0  0  0  0  0  0  0  0
   -0.2470   -0.1410    0.5576 C   0  0  1  0  0  0  0  0  0  0  0  0
   -0.0524    0.0516   -0.4980 H   0  0  0  0  0  0  0  0  0  0  0  0
   -0.3337    1.2265    1.2821 C   0  0  1  0  0  0  0  0  0  0  0  0
   -0.6853    1.0311    2.2969 H   0  0  0  0  0  0  0  0  0  0  0  0
    1.0357    1.9247    1.3868 C   0  0  0  0  0  0  0  0  0  0  0  0
    1.3977    2.2104    0.3976 H   0  0  0  0  0  0  0  0  0  0  0  0
    0.9597    2.8153    2.0087 H   0  0  0  0  0  0  0  0  0  0  0  0
    1.7643    1.2575    1.8487 H   0  0  0  0  0  0  0  0  0  0  0  0
   -1.3726    2.1478    0.6043 C   0  0  0  0  0  0  0  0  0  0  0  0
   -1.0133    2.4536   -0.3792 H   0  0  0  0  0  0  0  0  0  0  0  0
   -2.3006    1.5918    0.4716 H   0  0  0  0  0  0  0  0  0  0  0  0
   -1.7052    3.4062    1.4173 C   0  0  0  0  0  0  0  0  0  0  0  0
   -0.8331    4.0558    1.4903 H   0  0  0  0  0  0  0  0  0  0  0  0
   -2.5053    3.9547    0.9196 H   0  0  0  0  0  0  0  0  0  0  0  0
   -2.0365    3.1271    2.4181 H   0  0  0  0  0  0  0  0  0  0  0  0
    0.8897   -1.0331    1.0816 C   0  0  0  0  0  0  0  0  0  0  0  0
    1.0224   -1.2244    2.2896 O   0  0  0  0  0  0  0  0  0  0  0  0
    1.7046   -1.5883    0.1757 N   0  0  0  0  0  0  0  0  0  0  0  0
    1.5275   -1.3952   -0.7975 H   0  0  0  0  0  0  0  0  0  0  0  0
    2.8329   -2.4546    0.5113 C   0  0  0  0  0  0  0  0  0  0  0  0
    2.4947   -3.2654    1.1604 H   0  0  0  0  0  0  0  0  0  0  0  0
    3.2677   -2.8785   -0.3951 H   0  0  0  0  0  0  0  0  0  0  0  0
    3.5925   -1.8788    1.0434 H   0  0  0  0  0  0  0  0  0  0  0  0
  5  6  2  0  0  0  0
  5  7  1  0  0  0  0
  2  3  1  0  0  0  0
  2  4  1  0  0  0  0
  2  5  1  0  0  0  0
  1  2  1  0  0  0  0
 24 25  2  0  0  0  0
 24 26  1  0  0  0  0
 20 21  1  0  0  0  0
 20 22  1  0  0  0  0
 20 23  1  0  0  0  0
 17 18  1  0  0  0  0
 17 19  1  0  0  0  0
 17 20  1  0  0  0  0
 13 14  1  0  0  0  0
 13 15  1  0  0  0  0
 13 16  1  0  0  0  0
 11 12  1  0  0  0  0
 11 13  1  0  0  0  0
 11 17  1  0  0  0  0
  9 10  1  0  0  0  0
  9 11  1  0  0  0  0
  9 24  1  0  0  0  0
  7  8  1  0  0  0  0
  7  9  1  0  0  0  0
 28 29  1  0  0  0  0
 28 30  1  0  0  0  0
 28 31  1  0  0  0  0
 26 27  1  0  0  0  0
 26 28  1  0  0  0  0
M  END
$$$$
default_name
  -OEChem-01062215323D

 31 30  0     1  0  0  0  0  0999 V2000
   -3.0760   -3.6390    1.5496 H   0  0  0  0  0  0  0  0  0  0  0  0
   -3.0940   -2.6290    1.1426 C   0  0  0  0  0  0  0  0  0  0  0  0
   -3.7160   -1.9930    1.7706 H   0  0  0  0  0  0  0  0  0  0  0  0
   -3.4880   -2.6500    0.1286 H   0  0  0  0  0  0  0  0  0  0  0  0
   -1.6860   -2.0850    1.1196 C   0  0  0  0  0  0  0  0  0  0  0  0
   -0.7540   -2.7700    1.5226 O   0  0  0  0  0  0  0  0  0  0  0  0
   -1.5320   -0.8490    0.6496 N   0  0  0  0  0  0  0  0  0  0  0  0
   -2.3500   -0.3360    0.3566 H   0  0  0  0  0  0  0  0  0  0  0  0
   -0.2470   -0.1410    0.5576 C   0  0  1  0  0  0  0  0  0  0  0  0
   -0.0524    0.0516   -0.4980 H   0  0  0  0  0  0  0  0  0  0  0  0
   -0.3337    1.2265    1.2821 C   0  0  1  0  0  0  0  0  0  0  0  0
   -0.6853    1.0311    2.2969 H   0  0  0  0  0  0  0  0  0  0  0  0
    1.0357    1.9247    1.3868 C   0  0  0  0  0  0  0  0  0  0  0  0
    1.3977    2.2104    0.3976 H   0  0  0  0  0  0  0  0  0  0  0  0
    0.9597    2.8153    2.0087 H   0  0  0  0  0  0  0  0  0  0  0  0
    1.7643    1.2575    1.8487 H   0  0  0  0  0  0  0  0  0  0  0  0
   -1.3726    2.1478    0.6043 C   0  0  0  0  0  0  0  0  0  0  0  0
   -1.0133    2.4536   -0.3792 H   0  0  0  0  0  0  0  0  0  0  0  0
   -2.3006    1.5918    0.4716 H   0  0  0  0  0  0  0  0  0  0  0  0
   -1.7052    3.4062    1.4173 C   0  0  0  0  0  0  0  0  0  0  0  0
   -0.8331    4.0558    1.4903 H   0  0  0  0  0  0  0  0  0  0  0  0
   -2.5053    3.9547    0.9196 H   0  0  0  0  0  0  0  0  0  0  0  0
   -2.0365    3.1271    2.4181 H   0  0  0  0  0  0  0  0  0  0  0  0
    0.8897   -1.0331    1.0816 C   0  0  0  0  0  0  0  0  0  0  0  0
    0.8689   -1.4497    2.2389 O   0  0  0  0  0  0  0  0  0  0  0  0
    1.8775   -1.3363    0.2298 N   0  0  0  0  0  0  0  0  0  0  0  0
    1.8210   -0.9677   -0.7064 H   0  0  0  0  0  0  0  0  0  0  0  0
    3.0299   -2.1665    0.5746 C   0  0  0  0  0  0  0  0  0  0  0  0
    2.6884   -3.1124    1.0007 H   0  0  0  0  0  0  0  0  0  0  0  0
    3.6300   -2.3691   -0.3137 H   0  0  0  0  0  0  0  0  0  0  0  0
    3.6432   -1.6531    1.3176 H   0  0  0  0  0  0  0  0  0  0  0  0
  5  6  2  0  0  0  0
  5  7  1  0  0  0  0
  2  3  1  0  0  0  0
  2  4  1  0  0  0  0
  2  5  1  0  0  0  0
  1  2  1  0  0  0  0
 24 25  2  0  0  0  0
 24 26  1  0  0  0  0
 20 21  1  0  0  0  0
 20 22  1  0  0  0  0
 20 23  1  0  0  0  0
 17 18  1  0  0  0  0
 17 19  1  0  0  0  0
 17 20  1  0  0  0  0
 13 14  1  0  0  0  0
 13 15  1  0  0  0  0
 13 16  1  0  0  0  0
 11 12  1  0  0  0  0
 11 13  1  0  0  0  0
 11 17  1  0  0  0  0
  9 10  1  0  0  0  0
  9 11  1  0  0  0  0
  9 24  1  0  0  0  0
  7  8  1  0  0  0  0
  7  9  1  0  0  0  0
 28 29  1  0  0  0  0
 28 30  1  0  0  0  0
 28 31  1  0  0  0  0
 26 27  1  0  0  0  0
 26 28  1  0  0  0  0
M  END
$$$$
default_name
  -OEChem-01062215323D

 31 30  0     1  0  0  0  0  0999 V2000
   -3.0760   -3.6390    1.5496 H   0  0  0  0  0  0  0  0  0  0  0  0
   -3.0940   -2.6290    1.1426 C   0  0  0  0  0  0  0  0  0  0  0  0
   -3.7160   -1.9930    1.7706 H   0  0  0  0  0  0  0  0  0  0  0  0
   -3.4880   -2.6500    0.1286 H   0  0  0  0  0  0  0  0  0  0  0  0
   -1.6860   -2.0850    1.1196 C   0  0  0  0  0  0  0  0  0  0  0  0
   -0.7540   -2.7700    1.5226 O   0  0  0  0  0  0  0  0  0  0  0  0
   -1.5320   -0.8490    0.6496 N   0  0  0  0  0  0  0  0  0  0  0  0
   -2.3500   -0.3360    0.3566 H   0  0  0  0  0  0  0  0  0  0  0  0
   -0.2470   -0.1410    0.5576 C   0  0  1  0  0  0  0  0  0  0  0  0
   -0.0524    0.0516   -0.4980 H   0  0  0  0  0  0  0  0  0  0  0  0
   -0.3337    1.2265    1.2821 C   0  0  1  0  0  0  0  0  0  0  0  0
   -0.6853    1.0311    2.2969 H   0  0  0  0  0  0  0  0  0  0  0  0
    1.0357    1.9247    1.3868 C   0  0  0  0  0  0  0  0  0  0  0  0
    1.3977    2.2104    0.3976 H   0  0  0  0  0  0  0  0  0  0  0  0
    0.9597    2.8153    2.0087 H   0  0  0  0  0  0  0  0  0  0  0  0
    1.7643    1.2575    1.8487 H   0  0  0  0  0  0  0  0  0  0  0  0
   -1.3726    2.1478    0.6043 C   0  0  0  0  0  0  0  0  0  0  0  0
   -1.0133    2.4536   -0.3792 H   0  0  0  0  0  0  0  0  0  0  0  0
   -2.3006    1.5918    0.4716 H   0  0  0  0  0  0  0  0  0  0  0  0
   -1.7052    3.4062    1.4173 C   0  0  0  0  0  0  0  0  0  0  0  0
   -0.8331    4.0558    1.4903 H   0  0  0  0  0  0  0  0  0  0  0  0
   -2.5053    3.9547    0.9196 H   0  0  0  0  0  0  0  0  0  0  0  0
   -2.0365    3.1271    2.4181 H   0  0  0  0  0  0  0  0  0  0  0  0
    0.8897   -1.0331    1.0816 C   0  0  0  0  0  0  0  0  0  0  0  0
    0.7482   -1.6711    2.1239 O   0  0  0  0  0  0  0  0  0  0  0  0
    2.0140   -1.0879    0.3564 N   0  0  0  0  0  0  0  0  0  0  0  0
    2.0532   -0.5463   -0.4926 H   0  0  0  0  0  0  0  0  0  0  0  0
    3.1853   -1.8828    0.7205 C   0  0  0  0  0  0  0  0  0  0  0  0
    2.8859   -2.9170    0.9049 H   0  0  0  0  0  0  0  0  0  0  0  0
    3.9227   -1.8607   -0.0832 H   0  0  0  0  0  0  0  0  0  0  0  0
    3.6311   -1.4832    1.6333 H   0  0  0  0  0  0  0  0  0  0  0  0
  5  6  2  0  0  0  0
  5  7  1  0  0  0  0
  2  3  1  0  0  0  0
  2  4  1  0  0  0  0
  2  5  1  0  0  0  0
  1  2  1  0  0  0  0
 24 25  2  0  0  0  0
 24 26  1  0  0  0  0
 20 21  1  0  0  0  0
 20 22  1  0  0  0  0
 20 23  1  0  0  0  0
 17 18  1  0  0  0  0
 17 19  1  0  0  0  0
 17 20  1  0  0  0  0
 13 14  1  0  0  0  0
 13 15  1  0  0  0  0
 13 16  1  0  0  0  0
 11 12  1  0  0  0  0
 11 13  1  0  0  0  0
 11 17  1  0  0  0  0
  9 10  1  0  0  0  0
  9 11  1  0  0  0  0
  9 24  1  0  0  0  0
  7  8  1  0  0  0  0
  7  9  1  0  0  0  0
 28 29  1  0  0  0  0
 28 30  1  0  0  0  0
 28 31  1  0  0  0  0
 26 27  1  0  0  0  0
 26 28  1  0  0  0  0
M  END
$$$$
default_name
  -OEChem-01062215323D

 31 30  0     1  0  0  0  0  0999 V2000
   -3.0760   -3.6390    1.5496 H   0  0  0  0  0  0  0  0  0  0  0  0
   -3.0940   -2.6290    1.1426 C   0  0  0  0  0  0  0  0  0  0  0  0
   -3.7160   -1.9930    1.7706 H   0  0  0  0  0  0  0  0  0  0  0  0
   -3.4880   -2.6500    0.1286 H   0  0  0  0  0  0  0  0  0  0  0  0
   -1.6860   -2.0850    1.1196 C   0  0  0  0  0  0  0  0  0  0  0  0
   -0.7540   -2.7700    1.5226 O   0  0  0  0  0  0  0  0  0  0  0  0
   -1.5320   -0.8490    0.6496 N   0  0  0  0  0  0  0  0  0  0  0  0
   -2.3500   -0.3360    0.3566 H   0  0  0  0  0  0  0  0  0  0  0  0
   -0.2470   -0.1410    0.5576 C   0  0  1  0  0  0  0  0  0  0  0  0
   -0.0524    0.0516   -0.4980 H   0  0  0  0  0  0  0  0  0  0  0  0
   -0.3337    1.2265    1.2821 C   0  0  1  0  0  0  0  0  0  0  0  0
   -0.6853    1.0311    2.2969 H   0  0  0  0  0  0  0  0  0  0  0  0
    1.0357    1.9247    1.3868 C   0  0  0  0  0  0  0  0  0  0  0  0
    1.3977    2.2104    0.3976 H   0  0  0  0  0  0  0  0  0  0  0  0
    0.9597    2.8153    2.0087 H   0  0  0  0  0  0  0  0  0  0  0  0
    1.7643    1.2575    1.8487 H   0  0  0  0  0  0  0  0  0  0  0  0
   -1.3726    2.1478    0.6043 C   0  0  0  0  0  0  0  0  0  0  0  0
   -1.0133    2.4536   -0.3792 H   0  0  0  0  0  0  0  0  0  0  0  0
   -2.3006    1.5918    0.4716 H   0  0  0  0  0  0  0  0  0  0  0  0
   -1.7052    3.4062    1.4173 C   0  0  0  0  0  0  0  0  0  0  0  0
   -0.8331    4.0558    1.4903 H   0  0  0  0  0  0  0  0  0  0  0  0
   -2.5053    3.9547    0.9196 H   0  0  0  0  0  0  0  0  0  0  0  0
   -2.0365    3.1271    2.4181 H   0  0  0  0  0  0  0  0  0  0  0  0
    0.8897   -1.0331    1.0816 C   0  0  0  0  0  0  0  0  0  0  0  0
    0.6684   -1.8736    1.9522 O   0  0  0  0  0  0  0  0  0  0  0  0
    2.1050   -0.8602    0.5467 N   0  0  0  0  0  0  0  0  0  0  0  0
    2.2081   -0.1597   -0.1705 H   0  0  0  0  0  0  0  0  0  0  0  0
    3.2884   -1.6231    0.9390 C   0  0  0  0  0  0  0  0  0  0  0  0
    3.0739   -2.6924    0.8793 H   0  0  0  0  0  0  0  0  0  0  0  0
    4.1260   -1.3879    0.2807 H   0  0  0  0  0  0  0  0  0  0  0  0
    3.5569   -1.3805    1.9690 H   0  0  0  0  0  0  0  0  0  0  0  0
  5  6  2  0  0  0  0
  5  7  1  0  0  0  0
  2  3  1  0  0  0  0
  2  4  1  0  0  0  0
  2  5  1  0  0  0  0
  1  2  1  0  0  0  0
 24 25  2  0  0  0  0
 24 26  1  0  0  0  0
 20 21  1  0  0  0  0
 20 22  1  0  0  0  0
 20 23  1  0  0  0  0
 17 18  1  0  0  0  0
 17 19  1  0  0  0  0
 17 20  1  0  0  0  0
 13 14  1  0  0  0  0
 13 15  1  0  0  0  0
 13 16  1  0  0  0  0
 11 12  1  0  0  0  0
 11 13  1  0  0  0  0
 11 17  1  0  0  0  0
  9 10  1  0  0  0  0
  9 11  1  0  0  0  0
  9 24  1  0  0  0  0
  7  8  1  0  0  0  0
  7  9  1  0  0  0  0
 28 29  1  0  0  0  0
 28 30  1  0  0  0  0
 28 31  1  0  0  0  0
 26 27  1  0  0  0  0
 26 28  1  0  0  0  0
M  END
$$$$
default_name
  -OEChem-01062215323D

 31 30  0     1  0  0  0  0  0999 V2000
   -3.0760   -3.6390    1.5496 H   0  0  0  0  0  0  0  0  0  0  0  0
   -3.0940   -2.6290    1.1426 C   0  0  0  0  0  0  0  0  0  0  0  0
   -3.7160   -1.9930    1.7706 H   0  0  0  0  0  0  0  0  0  0  0  0
   -3.4880   -2.6500    0.1286 H   0  0  0  0  0  0  0  0  0  0  0  0
   -1.6860   -2.0850    1.1196 C   0  0  0  0  0  0  0  0  0  0  0  0
   -0.7540   -2.7700    1.5226 O   0  0  0  0  0  0  0  0  0  0  0  0
   -1.5320   -0.8490    0.6496 N   0  0  0  0  0  0  0  0  0  0  0  0
   -2.3500   -0.3360    0.3566 H   0  0  0  0  0  0  0  0  0  0  0  0
   -0.2470   -0.1410    0.5576 C   0  0  1  0  0  0  0  0  0  0  0  0
   -0.0524    0.0516   -0.4980 H   0  0  0  0  0  0  0  0  0  0  0  0
   -0.3337    1.2265    1.2821 C   0  0  1  0  0  0  0  0  0  0  0  0
   -0.6853    1.0311    2.2969 H   0  0  0  0  0  0  0  0  0  0  0  0
    1.0357    1.9247    1.3868 C   0  0  0  0  0  0  0  0  0  0  0  0
    1.3977    2.2104    0.3976 H   0  0  0  0  0  0  0  0  0  0  0  0
    0.9597    2.8153    2.0087 H   0  0  0  0  0  0  0  0  0  0  0  0
    1.7643    1.2575    1.8487 H   0  0  0  0  0  0  0  0  0  0  0  0
   -1.3726    2.1478    0.6043 C   0  0  0  0  0  0  0  0  0  0  0  0
   -1.0133    2.4536   -0.3792 H   0  0  0  0  0  0  0  0  0  0  0  0
   -2.3006    1.5918    0.4716 H   0  0  0  0  0  0  0  0  0  0  0  0
   -1.7052    3.4062    1.4173 C   0  0  0  0  0  0  0  0  0  0  0  0
   -0.8331    4.0558    1.4903 H   0  0  0  0  0  0  0  0  0  0  0  0
   -2.5053    3.9547    0.9196 H   0  0  0  0  0  0  0  0  0  0  0  0
   -2.0365    3.1271    2.4181 H   0  0  0  0  0  0  0  0  0  0  0  0
    0.8897   -1.0331    1.0816 C   0  0  0  0  0  0  0  0  0  0  0  0
    0.6350   -2.0434    1.7356 O   0  0  0  0  0  0  0  0  0  0  0  0
    2.1442   -0.6686    0.7877 N   0  0  0  0  0  0  0  0  0  0  0  0
    2.2752    0.1657    0.2378 H   0  0  0  0  0  0  0  0  0  0  0  0
    3.3322   -1.4049    1.2153 C   0  0  0  0  0  0  0  0  0  0  0  0
    3.2395   -2.4541    0.9259 H   0  0  0  0  0  0  0  0  0  0  0  0
    4.2260   -0.9830    0.7533 H   0  0  0  0  0  0  0  0  0  0  0  0
    3.4258   -1.3522    2.3017 H   0  0  0  0  0  0  0  0  0  0  0  0
  5  6  2  0  0  0  0
  5  7  1  0  0  0  0
  2  3  1  0  0  0  0
  2  4  1  0  0  0  0
  2  5  1  0  0  0  0
  1  2  1  0  0  0  0
 24 25  2  0  0  0  0
 24 26  1  0  0  0  0
 20 21  1  0  0  0  0
 20 22  1  0  0  0  0
 20 23  1  0  0  0  0
 17 18  1  0  0  0  0
 17 19  1  0  0  0  0
 17 20  1  0  0  0  0
 13 14  1  0  0  0  0
 13 15  1  0  0  0  0
 13 16  1  0  0  0  0
 11 12  1  0  0  0  0
 11 13  1  0  0  0  0
 11 17  1  0  0  0  0
  9 10  1  0  0  0  0
  9 11  1  0  0  0  0
  9 24  1  0  0  0  0
  7  8  1  0  0  0  0
  7  9  1  0  0  0  0
 28 29  1  0  0  0  0
 28 30  1  0  0  0  0
 28 31  1  0  0  0  0
 26 27  1  0  0  0  0
 26 28  1  0  0  0  0
M  END
$$$$
default_name
  -OEChem-01062215323D

 31 30  0     1  0  0  0  0  0999 V2000
   -3.0760   -3.6390    1.5496 H   0  0  0  0  0  0  0  0  0  0  0  0
   -3.0940   -2.6290    1.1426 C   0  0  0  0  0  0  0  0  0  0  0  0
   -3.7160   -1.9930    1.7706 H   0  0  0  0  0  0  0  0  0  0  0  0
   -3.4880   -2.6500    0.1286 H   0  0  0  0  0  0  0  0  0  0  0  0
   -1.6860   -2.0850    1.1196 C   0  0  0  0  0  0  0  0  0  0  0  0
   -0.7540   -2.7700    1.5226 O   0  0  0  0  0  0  0  0  0  0  0  0
   -1.5320   -0.8490    0.6496 N   0  0  0  0  0  0  0  0  0  0  0  0
   -2.3500   -0.3360    0.3566 H   0  0  0  0  0  0  0  0  0  0  0  0
   -0.2470   -0.1410    0.5576 C   0  0  1  0  0  0  0  0  0  0  0  0
   -0.1777    0.2861   -0.4434 H   0  0  0  0  0  0  0  0  0  0  0  0
   -0.2022    1.0262    1.5764 C   0  0  1  0  0  0  0  0  0  0  0  0
   -0.4324    0.6060    2.5573 H   0  0  0  0  0  0  0  0  0  0  0  0
    1.1903    1.6798    1.6616 C   0  0  0  0  0  0  0  0  0  0  0  0
    1.4366    2.1822    0.7245 H   0  0  0  0  0  0  0  0  0  0  0  0
    1.2184    2.4059    2.4725 H   0  0  0  0  0  0  0  0  0  0  0  0
    1.9494    0.9237    1.8654 H   0  0  0  0  0  0  0  0  0  0  0  0
   -1.2879    2.0794    1.2606 C   0  0  0  0  0  0  0  0  0  0  0  0
   -1.0429    2.6001    0.3339 H   0  0  0  0  0  0  0  0  0  0  0  0
   -2.2418    1.5698    1.1246 H   0  0  0  0  0  0  0  0  0  0  0  0
   -1.4796    3.1207    2.3715 C   0  0  0  0  0  0  0  0  0  0  0  0
   -0.5857    3.7351    2.4779 H   0  0  0  0  0  0  0  0  0  0  0  0
   -2.3176    3.7694    2.1154 H   0  0  0  0  0  0  0  0  0  0  0  0
   -1.6938    2.6220    3.3174 H   0  0  0  0  0  0  0  0  0  0  0  0
    0.9177   -1.1310    0.7191 C   0  0  0  0  0  0  0  0  0  0  0  0
    0.6954   -2.3292    0.8870 O   0  0  0  0  0  0  0  0  0  0  0  0
    2.1602   -0.6355    0.6585 N   0  0  0  0  0  0  0  0  0  0  0  0
    2.2648    0.3554    0.5073 H   0  0  0  0  0  0  0  0  0  0  0  0
    3.3710   -1.4421    0.7987 C   0  0  0  0  0  0  0  0  0  0  0  0
    3.3384   -2.2804    0.0993 H   0  0  0  0  0  0  0  0  0  0  0  0
    4.2551   -0.8370    0.5924 H   0  0  0  0  0  0  0  0  0  0  0  0
    3.4320   -1.8397    1.8136 H   0  0  0  0  0  0  0  0  0  0  0  0
  5  6  2  0  0  0  0
  5  7  1  0  0  0  0
  2  3  1  0  0  0  0
  2  4  1  0  0  0  0
  2  5  1  0  0  0  0
  1  2  1  0  0  0  0
 24 25  2  0  0  0  0
 24 26  1  0  0  0  0
 20 21  1  0  0  0  0
 20 22  1  0  0  0  0
 20 23  1  0  0  0  0
 17 18  1  0  0  0  0
 17 19  1  0  0  0  0
 17 20  1  0  0  0  0
 13 14  1  0  0  0  0
 13 15  1  0  0  0  0
 13 16  1  0  0  0  0
 11 12  1  0  0  0  0
 11 13  1  0  0  0  0
 11 17  1  0  0  0  0
  9 10  1  0  0  0  0
  9 11  1  0  0  0  0
  9 24  1  0  0  0  0
  7  8  1  0  0  0  0
  7  9  1  0  0  0  0
 28 29  1  0  0  0  0
 28 30  1  0  0  0  0
 28 31  1  0  0  0  0
 26 27  1  0  0  0  0
 26 28  1  0  0  0  0
M  END
$$$$
default_name
  -OEChem-01062215323D

 31 30  0     1  0  0  0  0  0999 V2000
   -3.0760   -3.6390    1.5496 H   0  0  0  0  0  0  0  0  0  0  0  0
   -3.0940   -2.6290    1.1426 C   0  0  0  0  0  0  0  0  0  0  0  0
   -3.7160   -1.9930    1.7706 H   0  0  0  0  0  0  0  0  0  0  0  0
   -3.4880   -2.6500    0.1286 H   0  0  0  0  0  0  0  0  0  0  0  0
   -1.6860   -2.0850    1.1196 C   0  0  0  0  0  0  0  0  0  0  0  0
   -0.7540   -2.7700    1.5226 O   0  0  0  0  0  0  0  0  0  0  0  0
   -1.5320   -0.8490    0.6496 N   0  0  0  0  0  0  0  0  0  0  0  0
   -2.3500   -0.3360    0.3566 H   0  0  0  0  0  0  0  0  0  0  0  0
   -0.2470   -0.1410    0.5576 C   0  0  1  0  0  0  0  0  0  0  0  0
   -0.1777    0.2861   -0.4434 H   0  0  0  0  0  0  0  0  0  0  0  0
   -0.2022    1.0262    1.5764 C   0  0  1  0  0  0  0  0  0  0  0  0
   -0.4324    0.6060    2.5573 H   0  0  0  0  0  0  0  0  0  0  0  0
    1.1903    1.6798    1.6616 C   0  0  0  0  0  0  0  0  0  0  0  0
    1.4366    2.1822    0.7245 H   0  0  0  0  0  0  0  0  0  0  0  0
    1.2184    2.4059    2.4725 H   0  0  0  0  0  0  0  0  0  0  0  0
    1.9494    0.9237    1.8654 H   0  0  0  0  0  0  0  0  0  0  0  0
   -1.2879    2.0794    1.2606 C   0  0  0  0  0  0  0  0  0  0  0  0
   -1.0429    2.6001    0.3339 H   0  0  0  0  0  0  0  0  0  0  0  0
   -2.2418    1.5698    1.1246 H   0  0  0  0  0  0  0  0  0  0  0  0
   -1.4796    3.1207    2.3715 C   0  0  0  0  0  0  0  0  0  0  0  0
   -0.5857    3.7351    2.4779 H   0  0  0  0  0  0  0  0  0  0  0  0
   -2.3176    3.7694    2.1154 H   0  0  0  0  0  0  0  0  0  0  0  0
   -1.6938    2.6220    3.3174 H   0  0  0  0  0  0  0  0  0  0  0  0
    0.9177   -1.1310    0.7191 C   0  0  0  0  0  0  0  0  0  0  0  0
    0.7236   -2.3410    0.6115 O   0  0  0  0  0  0  0  0  0  0  0  0
    2.1304   -0.6202    0.9671 N   0  0  0  0  0  0  0  0  0  0  0  0
    2.2148    0.3820    1.0307 H   0  0  0  0  0  0  0  0  0  0  0  0
    3.3360   -1.4257    1.1514 C   0  0  0  0  0  0  0  0  0  0  0  0
    3.4552   -2.1089    0.3075 H   0  0  0  0  0  0  0  0  0  0  0  0
    4.2146   -0.7825    1.2191 H   0  0  0  0  0  0  0  0  0  0  0  0
    3.2471   -2.0162    2.0653 H   0  0  0  0  0  0  0  0  0  0  0  0
  5  6  2  0  0  0  0
  5  7  1  0  0  0  0
  2  3  1  0  0  0  0
  2  4  1  0  0  0  0
  2  5  1  0  0  0  0
  1  2  1  0  0  0  0
 24 25  2  0  0  0  0
 24 26  1  0  0  0  0
 20 21  1  0  0  0  0
 20 22  1  0  0  0  0
 20 23  1  0  0  0  0
 17 18  1  0  0  0  0
 17 19  1  0  0  0  0
 17 20  1  0  0  0  0
 13 14  1  0  0  0  0
 13 15  1  0  0  0  0
 13 16  1  0  0  0  0
 11 12  1  0  0  0  0
 11 13  1  0  0  0  0
 11 17  1  0  0  0  0
  9 10  1  0  0  0  0
  9 11  1  0  0  0  0
  9 24  1  0  0  0  0
  7  8  1  0  0  0  0
  7  9  1  0  0  0  0
 28 29  1  0  0  0  0
 28 30  1  0  0  0  0
 28 31  1  0  0  0  0
 26 27  1  0  0  0  0
 26 28  1  0  0  0  0
M  END
$$$$
default_name
  -OEChem-01062215323D

 31 30  0     1  0  0  0  0  0999 V2000
   -3.0760   -3.6390    1.5496 H   0  0  0  0  0  0  0  0  0  0  0  0
   -3.0940   -2.6290    1.1426 C   0  0  0  0  0  0  0  0  0  0  0  0
   -3.7160   -1.9930    1.7706 H   0  0  0  0  0  0  0  0  0  0  0  0
   -3.4880   -2.6500    0.1286 H   0  0  0  0  0  0  0  0  0  0  0  0
   -1.6860   -2.0850    1.1196 C   0  0  0  0  0  0  0  0  0  0  0  0
   -0.7540   -2.7700    1.5226 O   0  0  0  0  0  0  0  0  0  0  0  0
   -1.5320   -0.8490    0.6496 N   0  0  0  0  0  0  0  0  0  0  0  0
   -2.3500   -0.3360    0.3566 H   0  0  0  0  0  0  0  0  0  0  0  0
   -0.2470   -0.1410    0.5576 C   0  0  1  0  0  0  0  0  0  0  0  0
   -0.1777    0.2861   -0.4434 H   0  0  0  0  0  0  0  0  0  0  0  0
   -0.2022    1.0262    1.5764 C   0  0  1  0  0  0  0  0  0  0  0  0
   -0.4324    0.6060    2.5573 H   0  0  0  0  0  0  0  0  0  0  0  0
    1.1903    1.6798    1.6616 C   0  0  0  0  0  0  0  0  0  0  0  0
    1.4366    2.1822    0.7245 H   0  0  0  0  0  0  0  0  0  0  0  0
    1.2184    2.4059    2.4725 H   0  0  0  0  0  0  0  0  0  0  0  0
    1.9494    0.9237    1.8654 H   0  0  0  0  0  0  0  0  0  0  0  0
   -1.2879    2.0794    1.2606 C   0  0  0  0  0  0  0  0  0  0  0  0
   -1.0429    2.6001    0.3339 H   0  0  0  0  0  0  0  0  0  0  0  0
   -2.2418    1.5698    1.1246 H   0  0  0  0  0  0  0  0  0  0  0  0
   -1.4796    3.1207    2.3715 C   0  0  0  0  0  0  0  0  0  0  0  0
   -0.5857    3.7351    2.4779 H   0  0  0  0  0  0  0  0  0  0  0  0
   -2.3176    3.7694    2.1154 H   0  0  0  0  0  0  0  0  0  0  0  0
   -1.6938    2.6220    3.3174 H   0  0  0  0  0  0  0  0  0  0  0  0
    0.9177   -1.1310    0.7191 C   0  0  0  0  0  0  0  0  0  0  0  0
    0.7971   -2.2975    0.3478 O   0  0  0  0  0  0  0  0  0  0  0  0
    2.0498   -0.6668    1.2632 N   0  0  0  0  0  0  0  0  0  0  0  0
    2.0786    0.3037    1.5332 H   0  0  0  0  0  0  0  0  0  0  0  0
    3.2430   -1.4801    1.4894 C   0  0  0  0  0  0  0  0  0  0  0  0
    3.5288   -1.9809    0.5618 H   0  0  0  0  0  0  0  0  0  0  0  0
    4.0695   -0.8538    1.8283 H   0  0  0  0  0  0  0  0  0  0  0  0
    3.0313   -2.2410    2.2430 H   0  0  0  0  0  0  0  0  0  0  0  0
  5  6  2  0  0  0  0
  5  7  1  0  0  0  0
  2  3  1  0  0  0  0
  2  4  1  0  0  0  0
  2  5  1  0  0  0  0
  1  2  1  0  0  0  0
 24 25  2  0  0  0  0
 24 26  1  0  0  0  0
 20 21  1  0  0  0  0
 20 22  1  0  0  0  0
 20 23  1  0  0  0  0
 17 18  1  0  0  0  0
 17 19  1  0  0  0  0
 17 20  1  0  0  0  0
 13 14  1  0  0  0  0
 13 15  1  0  0  0  0
 13 16  1  0  0  0  0
 11 12  1  0  0  0  0
 11 13  1  0  0  0  0
 11 17  1  0  0  0  0
  9 10  1  0  0  0  0
  9 11  1  0  0  0  0
  9 24  1  0  0  0  0
  7  8  1  0  0  0  0
  7  9  1  0  0  0  0
 28 29  1  0  0  0  0
 28 30  1  0  0  0  0
 28 31  1  0  0  0  0
 26 27  1  0  0  0  0
 26 28  1  0  0  0  0
M  END
$$$$
default_name
  -OEChem-01062215323D

 31 30  0     1  0  0  0  0  0999 V2000
   -3.0760   -3.6390    1.5496 H   0  0  0  0  0  0  0  0  0  0  0  0
   -3.0940   -2.6290    1.1426 C   0  0  0  0  0  0  0  0  0  0  0  0
   -3.7160   -1.9930    1.7706 H   0  0  0  0  0  0  0  0  0  0  0  0
   -3.4880   -2.6500    0.1286 H   0  0  0  0  0  0  0  0  0  0  0  0
   -1.6860   -2.0850    1.1196 C   0  0  0  0  0  0  0  0  0  0  0  0
   -0.7540   -2.7700    1.5226 O   0  0  0  0  0  0  0  0  0  0  0  0
   -1.5320   -0.8490    0.6496 N   0  0  0  0  0  0  0  0  0  0  0  0
   -2.3500   -0.3360    0.3566 H   0  0  0  0  0  0  0  0  0  0  0  0
   -0.2470   -0.1410    0.5576 C   0  0  1  0  0  0  0  0  0  0  0  0
   -0.1777    0.2861   -0.4434 H   0  0  0  0  0  0  0  0  0  0  0  0
   -0.2022    1.0262    1.5764 C   0  0  1  0  0  0  0  0  0  0  0  0
   -0.4324    0.6060    2.5573 H   0  0  0  0  0  0  0  0  0  0  0  0
    1.1903    1.6798    1.6616 C   0  0  0  0  0  0  0  0  0  0  0  0
    1.4366    2.1822    0.7245 H   0  0  0  0  0  0  0  0  0  0  0  0
    1.2184    2.4059    2.4725 H   0  0  0  0  0  0  0  0  0  0  0  0
    1.9494    0.9237    1.8654 H   0  0  0  0  0  0  0  0  0  0  0  0
   -1.2879    2.0794    1.2606 C   0  0  0  0  0  0  0  0  0  0  0  0
   -1.0429    2.6001    0.3339 H   0  0  0  0  0  0  0  0  0  0  0  0
   -2.2418    1.5698    1.1246 H   0  0  0  0  0  0  0  0  0  0  0  0
   -1.4796    3.1207    2.3715 C   0  0  0  0  0  0  0  0  0  0  0  0
   -0.5857    3.7351    2.4779 H   0  0  0  0  0  0  0  0  0  0  0  0
   -2.3176    3.7694    2.1154 H   0  0  0  0  0  0  0  0  0  0  0  0
   -1.6938    2.6220    3.3174 H   0  0  0  0  0  0  0  0  0  0  0  0
    0.9177   -1.1310    0.7191 C   0  0  0  0  0  0  0  0  0  0  0  0
    0.9109   -2.2019    0.1138 O   0  0  0  0  0  0  0  0  0  0  0  0
    1.9238   -0.7720    1.5266 N   0  0  0  0  0  0  0  0  0  0  0  0
    1.8654    0.1259    1.9805 H   0  0  0  0  0  0  0  0  0  0  0  0
    3.0982   -1.6014    1.7897 C   0  0  0  0  0  0  0  0  0  0  0  0
    3.5539   -1.9052    0.8447 H   0  0  0  0  0  0  0  0  0  0  0  0
    3.8297   -1.0461    2.3786 H   0  0  0  0  0  0  0  0  0  0  0  0
    2.7994   -2.4989    2.3346 H   0  0  0  0  0  0  0  0  0  0  0  0
  5  6  2  0  0  0  0
  5  7  1  0  0  0  0
  2  3  1  0  0  0  0
  2  4  1  0  0  0  0
  2  5  1  0  0  0  0
  1  2  1  0  0  0  0
 24 25  2  0  0  0  0
 24 26  1  0  0  0  0
 20 21  1  0  0  0  0
 20 22  1  0  0  0  0
 20 23  1  0  0  0  0
 17 18  1  0  0  0  0
 17 19  1  0  0  0  0
 17 20  1  0  0  0  0
 13 14  1  0  0  0  0
 13 15  1  0  0  0  0
 13 16  1  0  0  0  0
 11 12  1  0  0  0  0
 11 13  1  0  0  0  0
 11 17  1  0  0  0  0
  9 10  1  0  0  0  0
  9 11  1  0  0  0  0
  9 24  1  0  0  0  0
  7  8  1  0  0  0  0
  7  9  1  0  0  0  0
 28 29  1  0  0  0  0
 28 30  1  0  0  0  0
 28 31  1  0  0  0  0
 26 27  1  0  0  0  0
 26 28  1  0  0  0  0
M  END
$$$$
default_name
  -OEChem-01062215323D

 31 30  0     1  0  0  0  0  0999 V2000
   -3.0760   -3.6390    1.5496 H   0  0  0  0  0  0  0  0  0  0  0  0
   -3.0940   -2.6290    1.1426 C   0  0  0  0  0  0  0  0  0  0  0  0
   -3.7160   -1.9930    1.7706 H   0  0  0  0  0  0  0  0  0  0  0  0
   -3.4880   -2.6500    0.1286 H   0  0  0  0  0  0  0  0  0  0  0  0
   -1.6860   -2.0850    1.1196 C   0  0  0  0  0  0  0  0  0  0  0  0
   -0.7540   -2.7700    1.5226 O   0  0  0  0  0  0  0  0  0  0  0  0
   -1.5320   -0.8490    0.6496 N   0  0  0  0  0  0  0  0  0  0  0  0
   -2.3500   -0.3360    0.3566 H   0  0  0  0  0  0  0  0  0  0  0  0
   -0.2470   -0.1410    0.5576 C   0  0  1  0  0  0  0  0  0  0  0  0
   -0.1777    0.2861   -0.4434 H   0  0  0  0  0  0  0  0  0  0  0  0
   -0.2022    1.0262    1.5764 C   0  0  1  0  0  0  0  0  0  0  0  0
   -0.4324    0.6060    2.5573 H   0  0  0  0  0  0  0  0  0  0  0  0
    1.1903    1.6798    1.6616 C   0  0  0  0  0  0  0  0  0  0  0  0
    1.4366    2.1822    0.7245 H   0  0  0  0  0  0  0  0  0  0  0  0
    1.2184    2.4059    2.4725 H   0  0  0  0  0  0  0  0  0  0  0  0
    1.9494    0.9237    1.8654 H   0  0  0  0  0  0  0  0  0  0  0  0
   -1.2879    2.0794    1.2606 C   0  0  0  0  0  0  0  0  0  0  0  0
   -1.0429    2.6001    0.3339 H   0  0  0  0  0  0  0  0  0  0  0  0
   -2.2418    1.5698    1.1246 H   0  0  0  0  0  0  0  0  0  0  0  0
   -1.4796    3.1207    2.3715 C   0  0  0  0  0  0  0  0  0  0  0  0
   -0.5857    3.7351    2.4779 H   0  0  0  0  0  0  0  0  0  0  0  0
   -2.3176    3.7694    2.1154 H   0  0  0  0  0  0  0  0  0  0  0  0
   -1.6938    2.6220    3.3174 H   0  0  0  0  0  0  0  0  0  0  0  0
    0.9177   -1.1310    0.7191 C   0  0  0  0  0  0  0  0  0  0  0  0
    1.0572   -2.0605   -0.0745 O   0  0  0  0  0  0  0  0  0  0  0  0
    1.7610   -0.9288    1.7394 N   0  0  0  0  0  0  0  0  0  0  0  0
    1.5897   -0.1395    2.3421 H   0  0  0  0  0  0  0  0  0  0  0  0
    2.9116   -1.7814    2.0318 C   0  0  0  0  0  0  0  0  0  0  0  0
    3.5290   -1.8868    1.1370 H   0  0  0  0  0  0  0  0  0  0  0  0
    3.5116   -1.3463    2.8324 H   0  0  0  0  0  0  0  0  0  0  0  0
    2.5671   -2.7723    2.3338 H   0  0  0  0  0  0  0  0  0  0  0  0
  5  6  2  0  0  0  0
  5  7  1  0  0  0  0
  2  3  1  0  0  0  0
  2  4  1  0  0  0  0
  2  5  1  0  0  0  0
  1  2  1  0  0  0  0
 24 25  2  0  0  0  0
 24 26  1  0  0  0  0
 20 21  1  0  0  0  0
 20 22  1  0  0  0  0
 20 23  1  0  0  0  0
 17 18  1  0  0  0  0
 17 19  1  0  0  0  0
 17 20  1  0  0  0  0
 13 14  1  0  0  0  0
 13 15  1  0  0  0  0
 13 16  1  0  0  0  0
 11 12  1  0  0  0  0
 11 13  1  0  0  0  0
 11 17  1  0  0  0  0
  9 10  1  0  0  0  0
  9 11  1  0  0  0  0
  9 24  1  0  0  0  0
  7  8  1  0  0  0  0
  7  9  1  0  0  0  0
 28 29  1  0  0  0  0
 28 30  1  0  0  0  0
 28 31  1  0  0  0  0
 26 27  1  0  0  0  0
 26 28  1  0  0  0  0
M  END
$$$$
default_name
  -OEChem-01062215323D

 31 30  0     1  0  0  0  0  0999 V2000
   -3.0760   -3.6390    1.5496 H   0  0  0  0  0  0  0  0  0  0  0  0
   -3.0940   -2.6290    1.1426 C   0  0  0  0  0  0  0  0  0  0  0  0
   -3.7160   -1.9930    1.7706 H   0  0  0  0  0  0  0  0  0  0  0  0
   -3.4880   -2.6500    0.1286 H   0  0  0  0  0  0  0  0  0  0  0  0
   -1.6860   -2.0850    1.1196 C   0  0  0  0  0  0  0  0  0  0  0  0
   -0.7540   -2.7700    1.5226 O   0  0  0  0  0  0  0  0  0  0  0  0
   -1.5320   -0.8490    0.6496 N   0  0  0  0  0  0  0  0  0  0  0  0
   -2.3500   -0.3360    0.3566 H   0  0  0  0  0  0  0  0  0  0  0  0
   -0.2470   -0.1410    0.5576 C   0  0  1  0  0  0  0  0  0  0  0  0
   -0.1777    0.2861   -0.4434 H   0  0  0  0  0  0  0  0  0  0  0  0
   -0.2022    1.0262    1.5764 C   0  0  1  0  0  0  0  0  0  0  0  0
   -0.4324    0.6060    2.5573 H   0  0  0  0  0  0  0  0  0  0  0  0
    1.1903    1.6798    1.6616 C   0  0  0  0  0  0  0  0  0  0  0  0
    1.4366    2.1822    0.7245 H   0  0  0  0  0  0  0  0  0  0  0  0
    1.2184    2.4059    2.4725 H   0  0  0  0  0  0  0  0  0  0  0  0
    1.9494    0.9237    1.8654 H   0  0  0  0  0  0  0  0  0  0  0  0
   -1.2879    2.0794    1.2606 C   0  0  0  0  0  0  0  0  0  0  0  0
   -1.0429    2.6001    0.3339 H   0  0  0  0  0  0  0  0  0  0  0  0
   -2.2418    1.5698    1.1246 H   0  0  0  0  0  0  0  0  0  0  0  0
   -1.4796    3.1207    2.3715 C   0  0  0  0  0  0  0  0  0  0  0  0
   -0.5857    3.7351    2.4779 H   0  0  0  0  0  0  0  0  0  0  0  0
   -2.3176    3.7694    2.1154 H   0  0  0  0  0  0  0  0  0  0  0  0
   -1.6938    2.6220    3.3174 H   0  0  0  0  0  0  0  0  0  0  0  0
    0.9177   -1.1310    0.7191 C   0  0  0  0  0  0  0  0  0  0  0  0
    1.2260   -1.8830   -0.2043 O   0  0  0  0  0  0  0  0  0  0  0  0
    1.5726   -1.1263    1.8871 N   0  0  0  0  0  0  0  0  0  0  0  0
    1.2704   -0.4742    2.5935 H   0  0  0  0  0  0  0  0  0  0  0  0
    2.6959   -2.0078    2.1994 C   0  0  0  0  0  0  0  0  0  0  0  0
    3.4557   -1.9271    1.4188 H   0  0  0  0  0  0  0  0  0  0  0  0
    3.1369   -1.7339    3.1589 H   0  0  0  0  0  0  0  0  0  0  0  0
    2.3503   -3.0425    2.2408 H   0  0  0  0  0  0  0  0  0  0  0  0
  5  6  2  0  0  0  0
  5  7  1  0  0  0  0
  2  3  1  0  0  0  0
  2  4  1  0  0  0  0
  2  5  1  0  0  0  0
  1  2  1  0  0  0  0
 24 25  2  0  0  0  0
 24 26  1  0  0  0  0
 20 21  1  0  0  0  0
 20 22  1  0  0  0  0
 20 23  1  0  0  0  0
 17 18  1  0  0  0  0
 17 19  1  0  0  0  0
 17 20  1  0  0  0  0
 13 14  1  0  0  0  0
 13 15  1  0  0  0  0
 13 16  1  0  0  0  0
 11 12  1  0  0  0  0
 11 13  1  0  0  0  0
 11 17  1  0  0  0  0
  9 10  1  0  0  0  0
  9 11  1  0  0  0  0
  9 24  1  0  0  0  0
  7  8  1  0  0  0  0
  7  9  1  0  0  0  0
 28 29  1  0  0  0  0
 28 30  1  0  0  0  0
 28 31  1  0  0  0  0
 26 27  1  0  0  0  0
 26 28  1  0  0  0  0
M  END
$$$$
default_name
  -OEChem-01062215323D

 31 30  0     1  0  0  0  0  0999 V2000
   -3.0760   -3.6390    1.5496 H   0  0  0  0  0  0  0  0  0  0  0  0
   -3.0940   -2.6290    1.1426 C   0  0  0  0  0  0  0  0  0  0  0  0
   -3.7160   -1.9930    1.7706 H   0  0  0  0  0  0  0  0  0  0  0  0
   -3.4880   -2.6500    0.1286 H   0  0  0  0  0  0  0  0  0  0  0  0
   -1.6860   -2.0850    1.1196 C   0  0  0  0  0  0  0  0  0  0  0  0
   -0.7540   -2.7700    1.5226 O   0  0  0  0  0  0  0  0  0  0  0  0
   -1.5320   -0.8490    0.6496 N   0  0  0  0  0  0  0  0  0  0  0  0
   -2.3500   -0.3360    0.3566 H   0  0  0  0  0  0  0  0  0  0  0  0
   -0.2470   -0.1410    0.5576 C   0  0  1  0  0  0  0  0  0  0  0  0
   -0.1777    0.2861   -0.4434 H   0  0  0  0  0  0  0  0  0  0  0  0
   -0.2022    1.0262    1.5764 C   0  0  1  0  0  0  0  0  0  0  0  0
   -0.4324    0.6060    2.5573 H   0  0  0  0  0  0  0  0  0  0  0  0
    1.1903    1.6798    1.6616 C   0  0  0  0  0  0  0  0  0  0  0  0
    1.4366    2.1822    0.7245 H   0  0  0  0  0  0  0  0  0  0  0  0
    1.2184    2.4059    2.4725 H   0  0  0  0  0  0  0  0  0  0  0  0
    1.9494    0.9237    1.8654 H   0  0  0  0  0  0  0  0  0  0  0  0
   -1.2879    2.0794    1.2606 C   0  0  0  0  0  0  0  0  0  0  0  0
   -1.0429    2.6001    0.3339 H   0  0  0  0  0  0  0  0  0  0  0  0
   -2.2418    1.5698    1.1246 H   0  0  0  0  0  0  0  0  0  0  0  0
   -1.4796    3.1207    2.3715 C   0  0  0  0  0  0  0  0  0  0  0  0
   -0.5857    3.7351    2.4779 H   0  0  0  0  0  0  0  0  0  0  0  0
   -2.3176    3.7694    2.1154 H   0  0  0  0  0  0  0  0  0  0  0  0
   -1.6938    2.6220    3.3174 H   0  0  0  0  0  0  0  0  0  0  0  0
    0.9177   -1.1310    0.7191 C   0  0  0  0  0  0  0  0  0  0  0  0
    1.4059   -1.6815   -0.2667 O   0  0  0  0  0  0  0  0  0  0  0  0
    1.3714   -1.3513    1.9596 N   0  0  0  0  0  0  0  0  0  0  0  0
    0.9291   -0.8554    2.7173 H   0  0  0  0  0  0  0  0  0  0  0  0
    2.4658   -2.2652    2.2808 C   0  0  0  0  0  0  0  0  0  0  0  0
    3.3390   -2.0232    1.6709 H   0  0  0  0  0  0  0  0  0  0  0  0
    2.7310   -2.1825    3.3358 H   0  0  0  0  0  0  0  0  0  0  0  0
    2.1638   -3.2912    2.0617 H   0  0  0  0  0  0  0  0  0  0  0  0
  5  6  2  0  0  0  0
  5  7  1  0  0  0  0
  2  3  1  0  0  0  0
  2  4  1  0  0  0  0
  2  5  1  0  0  0  0
  1  2  1  0  0  0  0
 24 25  2  0  0  0  0
 24 26  1  0  0  0  0
 20 21  1  0  0  0  0
 20 22  1  0  0  0  0
 20 23  1  0  0  0  0
 17 18  1  0  0  0  0
 17 19  1  0  0  0  0
 17 20  1  0  0  0  0
 13 14  1  0  0  0  0
 13 15  1  0  0  0  0
 13 16  1  0  0  0  0
 11 12  1  0  0  0  0
 11 13  1  0  0  0  0
 11 17  1  0  0  0  0
  9 10  1  0  0  0  0
  9 11  1  0  0  0  0
  9 24  1  0  0  0  0
  7  8  1  0  0  0  0
  7  9  1  0  0  0  0
 28 29  1  0  0  0  0
 28 30  1  0  0  0  0
 28 31  1  0  0  0  0
 26 27  1  0  0  0  0
 26 28  1  0  0  0  0
M  END
$$$$
default_name
  -OEChem-01062215323D

 31 30  0     1  0  0  0  0  0999 V2000
   -3.0760   -3.6390    1.5496 H   0  0  0  0  0  0  0  0  0  0  0  0
   -3.0940   -2.6290    1.1426 C   0  0  0  0  0  0  0  0  0  0  0  0
   -3.7160   -1.9930    1.7706 H   0  0  0  0  0  0  0  0  0  0  0  0
   -3.4880   -2.6500    0.1286 H   0  0  0  0  0  0  0  0  0  0  0  0
   -1.6860   -2.0850    1.1196 C   0  0  0  0  0  0  0  0  0  0  0  0
   -0.7540   -2.7700    1.5226 O   0  0  0  0  0  0  0  0  0  0  0  0
   -1.5320   -0.8490    0.6496 N   0  0  0  0  0  0  0  0  0  0  0  0
   -2.3500   -0.3360    0.3566 H   0  0  0  0  0  0  0  0  0  0  0  0
   -0.2470   -0.1410    0.5576 C   0  0  1  0  0  0  0  0  0  0  0  0
   -0.1777    0.2861   -0.4434 H   0  0  0  0  0  0  0  0  0  0  0  0
   -0.2022    1.0262    1.5764 C   0  0  1  0  0  0  0  0  0  0  0  0
   -0.4324    0.6060    2.5573 H   0  0  0  0  0  0  0  0  0  0  0  0
    1.1903    1.6798    1.6616 C   0  0  0  0  0  0  0  0  0  0  0  0
    1.4366    2.1822    0.7245 H   0  0  0  0  0  0  0  0  0  0  0  0
    1.2184    2.4059    2.4725 H   0  0  0  0  0  0  0  0  0  0  0  0
    1.9494    0.9237    1.8654 H   0  0  0  0  0  0  0  0  0  0  0  0
   -1.2879    2.0794    1.2606 C   0  0  0  0  0  0  0  0  0  0  0  0
   -1.0429    2.6001    0.3339 H   0  0  0  0  0  0  0  0  0  0  0  0
   -2.2418    1.5698    1.1246 H   0  0  0  0  0  0  0  0  0  0  0  0
   -1.4796    3.1207    2.3715 C   0  0  0  0  0  0  0  0  0  0  0  0
   -0.5857    3.7351    2.4779 H   0  0  0  0  0  0  0  0  0  0  0  0
   -2.3176    3.7694    2.1154 H   0  0  0  0  0  0  0  0  0  0  0  0
   -1.6938    2.6220    3.3174 H   0  0  0  0  0  0  0  0  0  0  0  0
    0.9177   -1.1310    0.7191 C   0  0  0  0  0  0  0  0  0  0  0  0
    1.5846   -1.4698   -0.2575 O   0  0  0  0  0  0  0  0  0  0  0  0
    1.1710   -1.5882    1.9520 N   0  0  0  0  0  0  0  0  0  0  0  0
    0.5892   -1.2573    2.7053 H   0  0  0  0  0  0  0  0  0  0  0  0
    2.2370   -2.5361    2.2706 C   0  0  0  0  0  0  0  0  0  0  0  0
    3.1869   -2.1687    1.8762 H   0  0  0  0  0  0  0  0  0  0  0  0
    2.3217   -2.6616    3.3510 H   0  0  0  0  0  0  0  0  0  0  0  0
    2.0202   -3.5013    1.8089 H   0  0  0  0  0  0  0  0  0  0  0  0
  5  6  2  0  0  0  0
  5  7  1  0  0  0  0
  2  3  1  0  0  0  0
  2  4  1  0  0  0  0
  2  5  1  0  0  0  0
  1  2  1  0  0  0  0
 24 25  2  0  0  0  0
 24 26  1  0  0  0  0
 20 21  1  0  0  0  0
 20 22  1  0  0  0  0
 20 23  1  0  0  0  0
 17 18  1  0  0  0  0
 17 19  1  0  0  0  0
 17 20  1  0  0  0  0
 13 14  1  0  0  0  0
 13 15  1  0  0  0  0
 13 16  1  0  0  0  0
 11 12  1  0  0  0  0
 11 13  1  0  0  0  0
 11 17  1  0  0  0  0
  9 10  1  0  0  0  0
  9 11  1  0  0  0  0
  9 24  1  0  0  0  0
  7  8  1  0  0  0  0
  7  9  1  0  0  0  0
 28 29  1  0  0  0  0
 28 30  1  0  0  0  0
 28 31  1  0  0  0  0
 26 27  1  0  0  0  0
 26 28  1  0  0  0  0
M  END
$$$$
default_name
  -OEChem-01062215323D

 31 30  0     1  0  0  0  0  0999 V2000
   -3.0760   -3.6390    1.5496 H   0  0  0  0  0  0  0  0  0  0  0  0
   -3.0940   -2.6290    1.1426 C   0  0  0  0  0  0  0  0  0  0  0  0
   -3.7160   -1.9930    1.7706 H   0  0  0  0  0  0  0  0  0  0  0  0
   -3.4880   -2.6500    0.1286 H   0  0  0  0  0  0  0  0  0  0  0  0
   -1.6860   -2.0850    1.1196 C   0  0  0  0  0  0  0  0  0  0  0  0
   -0.7540   -2.7700    1.5226 O   0  0  0  0  0  0  0  0  0  0  0  0
   -1.5320   -0.8490    0.6496 N   0  0  0  0  0  0  0  0  0  0  0  0
   -2.3500   -0.3360    0.3566 H   0  0  0  0  0  0  0  0  0  0  0  0
   -0.2470   -0.1410    0.5576 C   0  0  1  0  0  0  0  0  0  0  0  0
   -0.1777    0.2861   -0.4434 H   0  0  0  0  0  0  0  0  0  0  0  0
   -0.2022    1.0262    1.5764 C   0  0  1  0  0  0  0  0  0  0  0  0
   -0.4324    0.6060    2.5573 H   0  0  0  0  0  0  0  0  0  0  0  0
    1.1903    1.6798    1.6616 C   0  0  0  0  0  0  0  0  0  0  0  0
    1.4366    2.1822    0.7245 H   0  0  0  0  0  0  0  0  0  0  0  0
    1.2184    2.4059    2.4725 H   0  0  0  0  0  0  0  0  0  0  0  0
    1.9494    0.9237    1.8654 H   0  0  0  0  0  0  0  0  0  0  0  0
   -1.2879    2.0794    1.2606 C   0  0  0  0  0  0  0  0  0  0  0  0
   -1.0429    2.6001    0.3339 H   0  0  0  0  0  0  0  0  0  0  0  0
   -2.2418    1.5698    1.1246 H   0  0  0  0  0  0  0  0  0  0  0  0
   -1.4796    3.1207    2.3715 C   0  0  0  0  0  0  0  0  0  0  0  0
   -0.5857    3.7351    2.4779 H   0  0  0  0  0  0  0  0  0  0  0  0
   -2.3176    3.7694    2.1154 H   0  0  0  0  0  0  0  0  0  0  0  0
   -1.6938    2.6220    3.3174 H   0  0  0  0  0  0  0  0  0  0  0  0
    0.9177   -1.1310    0.7191 C   0  0  0  0  0  0  0  0  0  0  0  0
    1.7499   -1.2622   -0.1772 O   0  0  0  0  0  0  0  0  0  0  0  0
    0.9852   -1.8210    1.8647 N   0  0  0  0  0  0  0  0  0  0  0  0
    0.2738   -1.6524    2.5583 H   0  0  0  0  0  0  0  0  0  0  0  0
    2.0250   -2.8020    2.1695 C   0  0  0  0  0  0  0  0  0  0  0  0
    3.0097   -2.3536    2.0205 H   0  0  0  0  0  0  0  0  0  0  0  0
    1.9368   -3.1385    3.2035 H   0  0  0  0  0  0  0  0  0  0  0  0
    1.9294   -3.6587    1.4996 H   0  0  0  0  0  0  0  0  0  0  0  0
  5  6  2  0  0  0  0
  5  7  1  0  0  0  0
  2  3  1  0  0  0  0
  2  4  1  0  0  0  0
  2  5  1  0  0  0  0
  1  2  1  0  0  0  0
 24 25  2  0  0  0  0
 24 26  1  0  0  0  0
 20 21  1  0  0  0  0
 20 22  1  0  0  0  0
 20 23  1  0  0  0  0
 17 18  1  0  0  0  0
 17 19  1  0  0  0  0
 17 20  1  0  0  0  0
 13 14  1  0  0  0  0
 13 15  1  0  0  0  0
 13 16  1  0  0  0  0
 11 12  1  0  0  0  0
 11 13  1  0  0  0  0
 11 17  1  0  0  0  0
  9 10  1  0  0  0  0
  9 11  1  0  0  0  0
  9 24  1  0  0  0  0
  7  8  1  0  0  0  0
  7  9  1  0  0  0  0
 28 29  1  0  0  0  0
 28 30  1  0  0  0  0
 28 31  1  0  0  0  0
 26 27  1  0  0  0  0
 26 28  1  0  0  0  0
M  END
$$$$
default_name
  -OEChem-01062215323D

 31 30  0     1  0  0  0  0  0999 V2000
   -3.0760   -3.6390    1.5496 H   0  0  0  0  0  0  0  0  0  0  0  0
   -3.0940   -2.6290    1.1426 C   0  0  0  0  0  0  0  0  0  0  0  0
   -3.7160   -1.9930    1.7706 H   0  0  0  0  0  0  0  0  0  0  0  0
   -3.4880   -2.6500    0.1286 H   0  0  0  0  0  0  0  0  0  0  0  0
   -1.6860   -2.0850    1.1196 C   0  0  0  0  0  0  0  0  0  0  0  0
   -0.7540   -2.7700    1.5226 O   0  0  0  0  0  0  0  0  0  0  0  0
   -1.5320   -0.8490    0.6496 N   0  0  0  0  0  0  0  0  0  0  0  0
   -2.3500   -0.3360    0.3566 H   0  0  0  0  0  0  0  0  0  0  0  0
   -0.2470   -0.1410    0.5576 C   0  0  1  0  0  0  0  0  0  0  0  0
   -0.1777    0.2861   -0.4434 H   0  0  0  0  0  0  0  0  0  0  0  0
   -0.2022    1.0262    1.5764 C   0  0  1  0  0  0  0  0  0  0  0  0
   -0.4324    0.6060    2.5573 H   0  0  0  0  0  0  0  0  0  0  0  0
    1.1903    1.6798    1.6616 C   0  0  0  0  0  0  0  0  0  0  0  0
    1.4366    2.1822    0.7245 H   0  0  0  0  0  0  0  0  0  0  0  0
    1.2184    2.4059    2.4725 H   0  0  0  0  0  0  0  0  0  0  0  0
    1.9494    0.9237    1.8654 H   0  0  0  0  0  0  0  0  0  0  0  0
   -1.2879    2.0794    1.2606 C   0  0  0  0  0  0  0  0  0  0  0  0
   -1.0429    2.6001    0.3339 H   0  0  0  0  0  0  0  0  0  0  0  0
   -2.2418    1.5698    1.1246 H   0  0  0  0  0  0  0  0  0  0  0  0
   -1.4796    3.1207    2.3715 C   0  0  0  0  0  0  0  0  0  0  0  0
   -0.5857    3.7351    2.4779 H   0  0  0  0  0  0  0  0  0  0  0  0
   -2.3176    3.7694    2.1154 H   0  0  0  0  0  0  0  0  0  0  0  0
   -1.6938    2.6220    3.3174 H   0  0  0  0  0  0  0  0  0  0  0  0
    0.9177   -1.1310    0.7191 C   0  0  0  0  0  0  0  0  0  0  0  0
    1.8906   -1.0729   -0.0314 O   0  0  0  0  0  0  0  0  0  0  0  0
    0.8266   -2.0339    1.7038 N   0  0  0  0  0  0  0  0  0  0  0  0
    0.0044   -2.0137    2.2862 H   0  0  0  0  0  0  0  0  0  0  0  0
    1.8443   -3.0448    1.9844 C   0  0  0  0  0  0  0  0  0  0  0  0
    2.8195   -2.5653    2.0941 H   0  0  0  0  0  0  0  0  0  0  0  0
    1.6026   -3.5806    2.9034 H   0  0  0  0  0  0  0  0  0  0  0  0
    1.8975   -3.7524    1.1548 H   0  0  0  0  0  0  0  0  0  0  0  0
  5  6  2  0  0  0  0
  5  7  1  0  0  0  0
  2  3  1  0  0  0  0
  2  4  1  0  0  0  0
  2  5  1  0  0  0  0
  1  2  1  0  0  0  0
 24 25  2  0  0  0  0
 24 26  1  0  0  0  0
 20 21  1  0  0  0  0
 20 22  1  0  0  0  0
 20 23  1  0  0  0  0
 17 18  1  0  0  0  0
 17 19  1  0  0  0  0
 17 20  1  0  0  0  0
 13 14  1  0  0  0  0
 13 15  1  0  0  0  0
 13 16  1  0  0  0  0
 11 12  1  0  0  0  0
 11 13  1  0  0  0  0
 11 17  1  0  0  0  0
  9 10  1  0  0  0  0
  9 11  1  0  0  0  0
  9 24  1  0  0  0  0
  7  8  1  0  0  0  0
  7  9  1  0  0  0  0
 28 29  1  0  0  0  0
 28 30  1  0  0  0  0
 28 31  1  0  0  0  0
 26 27  1  0  0  0  0
 26 28  1  0  0  0  0
M  END
$$$$
default_name
  -OEChem-01062215323D

 31 30  0     1  0  0  0  0  0999 V2000
   -3.0760   -3.6390    1.5496 H   0  0  0  0  0  0  0  0  0  0  0  0
   -3.0940   -2.6290    1.1426 C   0  0  0  0  0  0  0  0  0  0  0  0
   -3.7160   -1.9930    1.7706 H   0  0  0  0  0  0  0  0  0  0  0  0
   -3.4880   -2.6500    0.1286 H   0  0  0  0  0  0  0  0  0  0  0  0
   -1.6860   -2.0850    1.1196 C   0  0  0  0  0  0  0  0  0  0  0  0
   -0.7540   -2.7700    1.5226 O   0  0  0  0  0  0  0  0  0  0  0  0
   -1.5320   -0.8490    0.6496 N   0  0  0  0  0  0  0  0  0  0  0  0
   -2.3500   -0.3360    0.3566 H   0  0  0  0  0  0  0  0  0  0  0  0
   -0.2470   -0.1410    0.5576 C   0  0  1  0  0  0  0  0  0  0  0  0
   -0.1777    0.2861   -0.4434 H   0  0  0  0  0  0  0  0  0  0  0  0
   -0.2022    1.0262    1.5764 C   0  0  1  0  0  0  0  0  0  0  0  0
   -0.4324    0.6060    2.5573 H   0  0  0  0  0  0  0  0  0  0  0  0
    1.1903    1.6798    1.6616 C   0  0  0  0  0  0  0  0  0  0  0  0
    1.4366    2.1822    0.7245 H   0  0  0  0  0  0  0  0  0  0  0  0
    1.2184    2.4059    2.4725 H   0  0  0  0  0  0  0  0  0  0  0  0
    1.9494    0.9237    1.8654 H   0  0  0  0  0  0  0  0  0  0  0  0
   -1.2879    2.0794    1.2606 C   0  0  0  0  0  0  0  0  0  0  0  0
   -1.0429    2.6001    0.3339 H   0  0  0  0  0  0  0  0  0  0  0  0
   -2.2418    1.5698    1.1246 H   0  0  0  0  0  0  0  0  0  0  0  0
   -1.4796    3.1207    2.3715 C   0  0  0  0  0  0  0  0  0  0  0  0
   -0.5857    3.7351    2.4779 H   0  0  0  0  0  0  0  0  0  0  0  0
   -2.3176    3.7694    2.1154 H   0  0  0  0  0  0  0  0  0  0  0  0
   -1.6938    2.6220    3.3174 H   0  0  0  0  0  0  0  0  0  0  0  0
    0.9177   -1.1310    0.7191 C   0  0  0  0  0  0  0  0  0  0  0  0
    1.9970   -0.9149    0.1699 O   0  0  0  0  0  0  0  0  0  0  0  0
    0.7060   -2.2122    1.4802 N   0  0  0  0  0  0  0  0  0  0  0  0
   -0.2007   -2.3167    1.9076 H   0  0  0  0  0  0  0  0  0  0  0  0
    1.7072   -3.2479    1.7278 C   0  0  0  0  0  0  0  0  0  0  0  0
    2.6293   -2.7895    2.0920 H   0  0  0  0  0  0  0  0  0  0  0  0
    1.3418   -3.9579    2.4711 H   0  0  0  0  0  0  0  0  0  0  0  0
    1.9267   -3.7763    0.7981 H   0  0  0  0  0  0  0  0  0  0  0  0
  5  6  2  0  0  0  0
  5  7  1  0  0  0  0
  2  3  1  0  0  0  0
  2  4  1  0  0  0  0
  2  5  1  0  0  0  0
  1  2  1  0  0  0  0
 24 25  2  0  0  0  0
 24 26  1  0  0  0  0
 20 21  1  0  0  0  0
 20 22  1  0  0  0  0
 20 23  1  0  0  0  0
 17 18  1  0  0  0  0
 17 19  1  0  0  0  0
 17 20  1  0  0  0  0
 13 14  1  0  0  0  0
 13 15  1  0  0  0  0
 13 16  1  0  0  0  0
 11 12  1  0  0  0  0
 11 13  1  0  0  0  0
 11 17  1  0  0  0  0
  9 10  1  0  0  0  0
  9 11  1  0  0  0  0
  9 24  1  0  0  0  0
  7  8  1  0  0  0  0
  7  9  1  0  0  0  0
 28 29  1  0  0  0  0
 28 30  1  0  0  0  0
 28 31  1  0  0  0  0
 26 27  1  0  0  0  0
 26 28  1  0  0  0  0
M  END
$$$$
default_name
  -OEChem-01062215323D

 31 30  0     1  0  0  0  0  0999 V2000
   -3.0760   -3.6390    1.5496 H   0  0  0  0  0  0  0  0  0  0  0  0
   -3.0940   -2.6290    1.1426 C   0  0  0  0  0  0  0  0  0  0  0  0
   -3.7160   -1.9930    1.7706 H   0  0  0  0  0  0  0  0  0  0  0  0
   -3.4880   -2.6500    0.1286 H   0  0  0  0  0  0  0  0  0  0  0  0
   -1.6860   -2.0850    1.1196 C   0  0  0  0  0  0  0  0  0  0  0  0
   -0.7540   -2.7700    1.5226 O   0  0  0  0  0  0  0  0  0  0  0  0
   -1.5320   -0.8490    0.6496 N   0  0  0  0  0  0  0  0  0  0  0  0
   -2.3500   -0.3360    0.3566 H   0  0  0  0  0  0  0  0  0  0  0  0
   -0.2470   -0.1410    0.5576 C   0  0  1  0  0  0  0  0  0  0  0  0
   -0.1777    0.2861   -0.4434 H   0  0  0  0  0  0  0  0  0  0  0  0
   -0.2022    1.0262    1.5764 C   0  0  1  0  0  0  0  0  0  0  0  0
   -0.4324    0.6060    2.5573 H   0  0  0  0  0  0  0  0  0  0  0  0
    1.1903    1.6798    1.6616 C   0  0  0  0  0  0  0  0  0  0  0  0
    1.4366    2.1822    0.7245 H   0  0  0  0  0  0  0  0  0  0  0  0
    1.2184    2.4059    2.4725 H   0  0  0  0  0  0  0  0  0  0  0  0
    1.9494    0.9237    1.8654 H   0  0  0  0  0  0  0  0  0  0  0  0
   -1.2879    2.0794    1.2606 C   0  0  0  0  0  0  0  0  0  0  0  0
   -1.0429    2.6001    0.3339 H   0  0  0  0  0  0  0  0  0  0  0  0
   -2.2418    1.5698    1.1246 H   0  0  0  0  0  0  0  0  0  0  0  0
   -1.4796    3.1207    2.3715 C   0  0  0  0  0  0  0  0  0  0  0  0
   -0.5857    3.7351    2.4779 H   0  0  0  0  0  0  0  0  0  0  0  0
   -2.3176    3.7694    2.1154 H   0  0  0  0  0  0  0  0  0  0  0  0
   -1.6938    2.6220    3.3174 H   0  0  0  0  0  0  0  0  0  0  0  0
    0.9177   -1.1310    0.7191 C   0  0  0  0  0  0  0  0  0  0  0  0
    2.0619   -0.7988    0.4132 O   0  0  0  0  0  0  0  0  0  0  0  0
    0.6317   -2.3439    1.2092 N   0  0  0  0  0  0  0  0  0  0  0  0
   -0.3274   -2.5406    1.4483 H   0  0  0  0  0  0  0  0  0  0  0  0
    1.6231   -3.3975    1.4173 C   0  0  0  0  0  0  0  0  0  0  0  0
    2.4521   -3.0107    2.0142 H   0  0  0  0  0  0  0  0  0  0  0  0
    1.1722   -4.2447    1.9360 H   0  0  0  0  0  0  0  0  0  0  0  0
    2.0150   -3.7285    0.4537 H   0  0  0  0  0  0  0  0  0  0  0  0
  5  6  2  0  0  0  0
  5  7  1  0  0  0  0
  2  3  1  0  0  0  0
  2  4  1  0  0  0  0
  2  5  1  0  0  0  0
  1  2  1  0  0  0  0
 24 25  2  0  0  0  0
 24 26  1  0  0  0  0
 20 21  1  0  0  0  0
 20 22  1  0  0  0  0
 20 23  1  0  0  0  0
 17 18  1  0  0  0  0
 17 19  1  0  0  0  0
 17 20  1  0  0  0  0
 13 14  1  0  0  0  0
 13 15  1  0  0  0  0
 13 16  1  0  0  0  0
 11 12  1  0  0  0  0
 11 13  1  0  0  0  0
 11 17  1  0  0  0  0
  9 10  1  0  0  0  0
  9 11  1  0  0  0  0
  9 24  1  0  0  0  0
  7  8  1  0  0  0  0
  7  9  1  0  0  0  0
 28 29  1  0  0  0  0
 28 30  1  0  0  0  0
 28 31  1  0  0  0  0
 26 27  1  0  0  0  0
 26 28  1  0  0  0  0
M  END
$$$$
default_name
  -OEChem-01062215323D

 31 30  0     1  0  0  0  0  0999 V2000
   -3.0760   -3.6390    1.5496 H   0  0  0  0  0  0  0  0  0  0  0  0
   -3.0940   -2.6290    1.1426 C   0  0  0  0  0  0  0  0  0  0  0  0
   -3.7160   -1.9930    1.7706 H   0  0  0  0  0  0  0  0  0  0  0  0
   -3.4880   -2.6500    0.1286 H   0  0  0  0  0  0  0  0  0  0  0  0
   -1.6860   -2.0850    1.1196 C   0  0  0  0  0  0  0  0  0  0  0  0
   -0.7540   -2.7700    1.5226 O   0  0  0  0  0  0  0  0  0  0  0  0
   -1.5320   -0.8490    0.6496 N   0  0  0  0  0  0  0  0  0  0  0  0
   -2.3500   -0.3360    0.3566 H   0  0  0  0  0  0  0  0  0  0  0  0
   -0.2470   -0.1410    0.5576 C   0  0  1  0  0  0  0  0  0  0  0  0
   -0.1777    0.2861   -0.4434 H   0  0  0  0  0  0  0  0  0  0  0  0
   -0.2022    1.0262    1.5764 C   0  0  1  0  0  0  0  0  0  0  0  0
   -0.4324    0.6060    2.5573 H   0  0  0  0  0  0  0  0  0  0  0  0
    1.1903    1.6798    1.6616 C   0  0  0  0  0  0  0  0  0  0  0  0
    1.4366    2.1822    0.7245 H   0  0  0  0  0  0  0  0  0  0  0  0
    1.2184    2.4059    2.4725 H   0  0  0  0  0  0  0  0  0  0  0  0
    1.9494    0.9237    1.8654 H   0  0  0  0  0  0  0  0  0  0  0  0
   -1.2879    2.0794    1.2606 C   0  0  0  0  0  0  0  0  0  0  0  0
   -1.0429    2.6001    0.3339 H   0  0  0  0  0  0  0  0  0  0  0  0
   -2.2418    1.5698    1.1246 H   0  0  0  0  0  0  0  0  0  0  0  0
   -1.4796    3.1207    2.3715 C   0  0  0  0  0  0  0  0  0  0  0  0
   -0.5857    3.7351    2.4779 H   0  0  0  0  0  0  0  0  0  0  0  0
   -2.3176    3.7694    2.1154 H   0  0  0  0  0  0  0  0  0  0  0  0
   -1.6938    2.6220    3.3174 H   0  0  0  0  0  0  0  0  0  0  0  0
    0.9177   -1.1310    0.7191 C   0  0  0  0  0  0  0  0  0  0  0  0
    2.0809   -0.7326    0.6817 O   0  0  0  0  0  0  0  0  0  0  0  0
    0.6086   -2.4200    0.9091 N   0  0  0  0  0  0  0  0  0  0  0  0
   -0.3671   -2.6704    0.9396 H   0  0  0  0  0  0  0  0  0  0  0  0
    1.5977   -3.4833    1.0740 C   0  0  0  0  0  0  0  0  0  0  0  0
    2.2998   -3.2140    1.8662 H   0  0  0  0  0  0  0  0  0  0  0  0
    1.1055   -4.4214    1.3347 H   0  0  0  0  0  0  0  0  0  0  0  0
    2.1565   -3.6125    0.1451 H   0  0  0  0  0  0  0  0  0  0  0  0
  5  6  2  0  0  0  0
  5  7  1  0  0  0  0
  2  3  1  0  0  0  0
  2  4  1  0  0  0  0
  2  5  1  0  0  0  0
  1  2  1  0  0  0  0
 24 25  2  0  0  0  0
 24 26  1  0  0  0  0
 20 21  1  0  0  0  0
 20 22  1  0  0  0  0
 20 23  1  0  0  0  0
 17 18  1  0  0  0  0
 17 19  1  0  0  0  0
 17 20  1  0  0  0  0
 13 14  1  0  0  0  0
 13 15  1  0  0  0  0
 13 16  1  0  0  0  0
 11 12  1  0  0  0  0
 11 13  1  0  0  0  0
 11 17  1  0  0  0  0
  9 10  1  0  0  0  0
  9 11  1  0  0  0  0
  9 24  1  0  0  0  0
  7  8  1  0  0  0  0
  7  9  1  0  0  0  0
 28 29  1  0  0  0  0
 28 30  1  0  0  0  0
 28 31  1  0  0  0  0
 26 27  1  0  0  0  0
 26 28  1  0  0  0  0
M  END
$$$$
default_name
  -OEChem-01062215323D

 31 30  0     1  0  0  0  0  0999 V2000
   -3.0760   -3.6390    1.5496 H   0  0  0  0  0  0  0  0  0  0  0  0
   -3.0940   -2.6290    1.1426 C   0  0  0  0  0  0  0  0  0  0  0  0
   -3.7160   -1.9930    1.7706 H   0  0  0  0  0  0  0  0  0  0  0  0
   -3.4880   -2.6500    0.1286 H   0  0  0  0  0  0  0  0  0  0  0  0
   -1.6860   -2.0850    1.1196 C   0  0  0  0  0  0  0  0  0  0  0  0
   -0.7540   -2.7700    1.5226 O   0  0  0  0  0  0  0  0  0  0  0  0
   -1.5320   -0.8490    0.6496 N   0  0  0  0  0  0  0  0  0  0  0  0
   -2.3500   -0.3360    0.3566 H   0  0  0  0  0  0  0  0  0  0  0  0
   -0.2470   -0.1410    0.5576 C   0  0  1  0  0  0  0  0  0  0  0  0
   -0.1777    0.2861   -0.4434 H   0  0  0  0  0  0  0  0  0  0  0  0
   -0.2022    1.0262    1.5764 C   0  0  1  0  0  0  0  0  0  0  0  0
   -0.4324    0.6060    2.5573 H   0  0  0  0  0  0  0  0  0  0  0  0
    1.1903    1.6798    1.6616 C   0  0  0  0  0  0  0  0  0  0  0  0
    1.4366    2.1822    0.7245 H   0  0  0  0  0  0  0  0  0  0  0  0
    1.2184    2.4059    2.4725 H   0  0  0  0  0  0  0  0  0  0  0  0
    1.9494    0.9237    1.8654 H   0  0  0  0  0  0  0  0  0  0  0  0
   -1.2879    2.0794    1.2606 C   0  0  0  0  0  0  0  0  0  0  0  0
   -1.0429    2.6001    0.3339 H   0  0  0  0  0  0  0  0  0  0  0  0
   -2.2418    1.5698    1.1246 H   0  0  0  0  0  0  0  0  0  0  0  0
   -1.4796    3.1207    2.3715 C   0  0  0  0  0  0  0  0  0  0  0  0
   -0.5857    3.7351    2.4779 H   0  0  0  0  0  0  0  0  0  0  0  0
   -2.3176    3.7694    2.1154 H   0  0  0  0  0  0  0  0  0  0  0  0
   -1.6938    2.6220    3.3174 H   0  0  0  0  0  0  0  0  0  0  0  0
    0.9177   -1.1310    0.7191 C   0  0  0  0  0  0  0  0  0  0  0  0
    2.0527   -0.7209    0.9572 O   0  0  0  0  0  0  0  0  0  0  0  0
    0.6384   -2.4352    0.6006 N   0  0  0  0  0  0  0  0  0  0  0  0
   -0.3171   -2.6970    0.4162 H   0  0  0  0  0  0  0  0  0  0  0  0
    1.6328   -3.4997    0.7214 C   0  0  0  0  0  0  0  0  0  0  0  0
    2.1829   -3.3855    1.6580 H   0  0  0  0  0  0  0  0  0  0  0  0
    1.1460   -4.4759    0.7080 H   0  0  0  0  0  0  0  0  0  0  0  0
    2.3414   -3.4360   -0.1066 H   0  0  0  0  0  0  0  0  0  0  0  0
  5  6  2  0  0  0  0
  5  7  1  0  0  0  0
  2  3  1  0  0  0  0
  2  4  1  0  0  0  0
  2  5  1  0  0  0  0
  1  2  1  0  0  0  0
 24 25  2  0  0  0  0
 24 26  1  0  0  0  0
 20 21  1  0  0  0  0
 20 22  1  0  0  0  0
 20 23  1  0  0  0  0
 17 18  1  0  0  0  0
 17 19  1  0  0  0  0
 17 20  1  0  0  0  0
 13 14  1  0  0  0  0
 13 15  1  0  0  0  0
 13 16  1  0  0  0  0
 11 12  1  0  0  0  0
 11 13  1  0  0  0  0
 11 17  1  0  0  0  0
  9 10  1  0  0  0  0
  9 11  1  0  0  0  0
  9 24  1  0  0  0  0
  7  8  1  0  0  0  0
  7  9  1  0  0  0  0
 28 29  1  0  0  0  0
 28 30  1  0  0  0  0
 28 31  1  0  0  0  0
 26 27  1  0  0  0  0
 26 28  1  0  0  0  0
M  END
$$$$
default_name
  -OEChem-01062215323D

 31 30  0     1  0  0  0  0  0999 V2000
   -3.0760   -3.6390    1.5496 H   0  0  0  0  0  0  0  0  0  0  0  0
   -3.0940   -2.6290    1.1426 C   0  0  0  0  0  0  0  0  0  0  0  0
   -3.7160   -1.9930    1.7706 H   0  0  0  0  0  0  0  0  0  0  0  0
   -3.4880   -2.6500    0.1286 H   0  0  0  0  0  0  0  0  0  0  0  0
   -1.6860   -2.0850    1.1196 C   0  0  0  0  0  0  0  0  0  0  0  0
   -0.7540   -2.7700    1.5226 O   0  0  0  0  0  0  0  0  0  0  0  0
   -1.5320   -0.8490    0.6496 N   0  0  0  0  0  0  0  0  0  0  0  0
   -2.3500   -0.3360    0.3566 H   0  0  0  0  0  0  0  0  0  0  0  0
   -0.2470   -0.1410    0.5576 C   0  0  1  0  0  0  0  0  0  0  0  0
   -0.1777    0.2861   -0.4434 H   0  0  0  0  0  0  0  0  0  0  0  0
   -0.2022    1.0262    1.5764 C   0  0  1  0  0  0  0  0  0  0  0  0
   -0.4324    0.6060    2.5573 H   0  0  0  0  0  0  0  0  0  0  0  0
    1.1903    1.6798    1.6616 C   0  0  0  0  0  0  0  0  0  0  0  0
    1.4366    2.1822    0.7245 H   0  0  0  0  0  0  0  0  0  0  0  0
    1.2184    2.4059    2.4725 H   0  0  0  0  0  0  0  0  0  0  0  0
    1.9494    0.9237    1.8654 H   0  0  0  0  0  0  0  0  0  0  0  0
   -1.2879    2.0794    1.2606 C   0  0  0  0  0  0  0  0  0  0  0  0
   -1.0429    2.6001    0.3339 H   0  0  0  0  0  0  0  0  0  0  0  0
   -2.2418    1.5698    1.1246 H   0  0  0  0  0  0  0  0  0  0  0  0
   -1.4796    3.1207    2.3715 C   0  0  0  0  0  0  0  0  0  0  0  0
   -0.5857    3.7351    2.4779 H   0  0  0  0  0  0  0  0  0  0  0  0
   -2.3176    3.7694    2.1154 H   0  0  0  0  0  0  0  0  0  0  0  0
   -1.6938    2.6220    3.3174 H   0  0  0  0  0  0  0  0  0  0  0  0
    0.9177   -1.1310    0.7191 C   0  0  0  0  0  0  0  0  0  0  0  0
    1.9793   -0.7643    1.2210 O   0  0  0  0  0  0  0  0  0  0  0  0
    0.7191   -2.3887    0.3045 N   0  0  0  0  0  0  0  0  0  0  0  0
   -0.1809   -2.6187   -0.0863 H   0  0  0  0  0  0  0  0  0  0  0  0
    1.7258   -3.4453    0.3834 C   0  0  0  0  0  0  0  0  0  0  0  0
    2.1094   -3.5134    1.4038 H   0  0  0  0  0  0  0  0  0  0  0  0
    1.2911   -4.4046    0.0988 H   0  0  0  0  0  0  0  0  0  0  0  0
    2.5571   -3.2112   -0.2843 H   0  0  0  0  0  0  0  0  0  0  0  0
  5  6  2  0  0  0  0
  5  7  1  0  0  0  0
  2  3  1  0  0  0  0
  2  4  1  0  0  0  0
  2  5  1  0  0  0  0
  1  2  1  0  0  0  0
 24 25  2  0  0  0  0
 24 26  1  0  0  0  0
 20 21  1  0  0  0  0
 20 22  1  0  0  0  0
 20 23  1  0  0  0  0
 17 18  1  0  0  0  0
 17 19  1  0  0  0  0
 17 20  1  0  0  0  0
 13 14  1  0  0  0  0
 13 15  1  0  0  0  0
 13 16  1  0  0  0  0
 11 12  1  0  0  0  0
 11 13  1  0  0  0  0
 11 17  1  0  0  0  0
  9 10  1  0  0  0  0
  9 11  1  0  0  0  0
  9 24  1  0  0  0  0
  7  8  1  0  0  0  0
  7  9  1  0  0  0  0
 28 29  1  0  0  0  0
 28 30  1  0  0  0  0
 28 31  1  0  0  0  0
 26 27  1  0  0  0  0
 26 28  1  0  0  0  0
M  END
$$$$
default_name
  -OEChem-01062215323D

 31 30  0     1  0  0  0  0  0999 V2000
   -3.0760   -3.6390    1.5496 H   0  0  0  0  0  0  0  0  0  0  0  0
   -3.0940   -2.6290    1.1426 C   0  0  0  0  0  0  0  0  0  0  0  0
   -3.7160   -1.9930    1.7706 H   0  0  0  0  0  0  0  0  0  0  0  0
   -3.4880   -2.6500    0.1286 H   0  0  0  0  0  0  0  0  0  0  0  0
   -1.6860   -2.0850    1.1196 C   0  0  0  0  0  0  0  0  0  0  0  0
   -0.7540   -2.7700    1.5226 O   0  0  0  0  0  0  0  0  0  0  0  0
   -1.5320   -0.8490    0.6496 N   0  0  0  0  0  0  0  0  0  0  0  0
   -2.3500   -0.3360    0.3566 H   0  0  0  0  0  0  0  0  0  0  0  0
   -0.2470   -0.1410    0.5576 C   0  0  1  0  0  0  0  0  0  0  0  0
   -0.1777    0.2861   -0.4434 H   0  0  0  0  0  0  0  0  0  0  0  0
   -0.2022    1.0262    1.5764 C   0  0  1  0  0  0  0  0  0  0  0  0
   -0.4324    0.6060    2.5573 H   0  0  0  0  0  0  0  0  0  0  0  0
    1.1903    1.6798    1.6616 C   0  0  0  0  0  0  0  0  0  0  0  0
    1.4366    2.1822    0.7245 H   0  0  0  0  0  0  0  0  0  0  0  0
    1.2184    2.4059    2.4725 H   0  0  0  0  0  0  0  0  0  0  0  0
    1.9494    0.9237    1.8654 H   0  0  0  0  0  0  0  0  0  0  0  0
   -1.2879    2.0794    1.2606 C   0  0  0  0  0  0  0  0  0  0  0  0
   -1.0429    2.6001    0.3339 H   0  0  0  0  0  0  0  0  0  0  0  0
   -2.2418    1.5698    1.1246 H   0  0  0  0  0  0  0  0  0  0  0  0
   -1.4796    3.1207    2.3715 C   0  0  0  0  0  0  0  0  0  0  0  0
   -0.5857    3.7351    2.4779 H   0  0  0  0  0  0  0  0  0  0  0  0
   -2.3176    3.7694    2.1154 H   0  0  0  0  0  0  0  0  0  0  0  0
   -1.6938    2.6220    3.3174 H   0  0  0  0  0  0  0  0  0  0  0  0
    0.9177   -1.1310    0.7191 C   0  0  0  0  0  0  0  0  0  0  0  0
    1.8655   -0.8600    1.4550 O   0  0  0  0  0  0  0  0  0  0  0  0
    0.8451   -2.2834    0.0411 N   0  0  0  0  0  0  0  0  0  0  0  0
    0.0323   -2.4408   -0.5336 H   0  0  0  0  0  0  0  0  0  0  0  0
    1.8706   -3.3240    0.0831 C   0  0  0  0  0  0  0  0  0  0  0  0
    2.0842   -3.5892    1.1209 H   0  0  0  0  0  0  0  0  0  0  0  0
    1.5308   -4.2123   -0.4515 H   0  0  0  0  0  0  0  0  0  0  0  0
    2.7891   -2.9533   -0.3759 H   0  0  0  0  0  0  0  0  0  0  0  0
  5  6  2  0  0  0  0
  5  7  1  0  0  0  0
  2  3  1  0  0  0  0
  2  4  1  0  0  0  0
  2  5  1  0  0  0  0
  1  2  1  0  0  0  0
 24 25  2  0  0  0  0
 24 26  1  0  0  0  0
 20 21  1  0  0  0  0
 20 22  1  0  0  0  0
 20 23  1  0  0  0  0
 17 18  1  0  0  0  0
 17 19  1  0  0  0  0
 17 20  1  0  0  0  0
 13 14  1  0  0  0  0
 13 15  1  0  0  0  0
 13 16  1  0  0  0  0
 11 12  1  0  0  0  0
 11 13  1  0  0  0  0
 11 17  1  0  0  0  0
  9 10  1  0  0  0  0
  9 11  1  0  0  0  0
  9 24  1  0  0  0  0
  7  8  1  0  0  0  0
  7  9  1  0  0  0  0
 28 29  1  0  0  0  0
 28 30  1  0  0  0  0
 28 31  1  0  0  0  0
 26 27  1  0  0  0  0
 26 28  1  0  0  0  0
M  END
$$$$
default_name
  -OEChem-01062215323D

 31 30  0     1  0  0  0  0  0999 V2000
   -3.0760   -3.6390    1.5496 H   0  0  0  0  0  0  0  0  0  0  0  0
   -3.0940   -2.6290    1.1426 C   0  0  0  0  0  0  0  0  0  0  0  0
   -3.7160   -1.9930    1.7706 H   0  0  0  0  0  0  0  0  0  0  0  0
   -3.4880   -2.6500    0.1286 H   0  0  0  0  0  0  0  0  0  0  0  0
   -1.6860   -2.0850    1.1196 C   0  0  0  0  0  0  0  0  0  0  0  0
   -0.7540   -2.7700    1.5226 O   0  0  0  0  0  0  0  0  0  0  0  0
   -1.5320   -0.8490    0.6496 N   0  0  0  0  0  0  0  0  0  0  0  0
   -2.3500   -0.3360    0.3566 H   0  0  0  0  0  0  0  0  0  0  0  0
   -0.2470   -0.1410    0.5576 C   0  0  1  0  0  0  0  0  0  0  0  0
   -0.1777    0.2861   -0.4434 H   0  0  0  0  0  0  0  0  0  0  0  0
   -0.2022    1.0262    1.5764 C   0  0  1  0  0  0  0  0  0  0  0  0
   -0.4324    0.6060    2.5573 H   0  0  0  0  0  0  0  0  0  0  0  0
    1.1903    1.6798    1.6616 C   0  0  0  0  0  0  0  0  0  0  0  0
    1.4366    2.1822    0.7245 H   0  0  0  0  0  0  0  0  0  0  0  0
    1.2184    2.4059    2.4725 H   0  0  0  0  0  0  0  0  0  0  0  0
    1.9494    0.9237    1.8654 H   0  0  0  0  0  0  0  0  0  0  0  0
   -1.2879    2.0794    1.2606 C   0  0  0  0  0  0  0  0  0  0  0  0
   -1.0429    2.6001    0.3339 H   0  0  0  0  0  0  0  0  0  0  0  0
   -2.2418    1.5698    1.1246 H   0  0  0  0  0  0  0  0  0  0  0  0
   -1.4796    3.1207    2.3715 C   0  0  0  0  0  0  0  0  0  0  0  0
   -0.5857    3.7351    2.4779 H   0  0  0  0  0  0  0  0  0  0  0  0
   -2.3176    3.7694    2.1154 H   0  0  0  0  0  0  0  0  0  0  0  0
   -1.6938    2.6220    3.3174 H   0  0  0  0  0  0  0  0  0  0  0  0
    0.9177   -1.1310    0.7191 C   0  0  0  0  0  0  0  0  0  0  0  0
    1.7192   -1.0014    1.6433 O   0  0  0  0  0  0  0  0  0  0  0  0
    1.0078   -2.1267   -0.1717 N   0  0  0  0  0  0  0  0  0  0  0  0
    0.3080   -2.1755   -0.8952 H   0  0  0  0  0  0  0  0  0  0  0  0
    2.0571   -3.1440   -0.1591 C   0  0  0  0  0  0  0  0  0  0  0  0
    2.1091   -3.6076    0.8286 H   0  0  0  0  0  0  0  0  0  0  0  0
    1.8489   -3.9121   -0.9053 H   0  0  0  0  0  0  0  0  0  0  0  0
    3.0213   -2.6799   -0.3751 H   0  0  0  0  0  0  0  0  0  0  0  0
  5  6  2  0  0  0  0
  5  7  1  0  0  0  0
  2  3  1  0  0  0  0
  2  4  1  0  0  0  0
  2  5  1  0  0  0  0
  1  2  1  0  0  0  0
 24 25  2  0  0  0  0
 24 26  1  0  0  0  0
 20 21  1  0  0  0  0
 20 22  1  0  0  0  0
 20 23  1  0  0  0  0
 17 18  1  0  0  0  0
 17 19  1  0  0  0  0
 17 20  1  0  0  0  0
 13 14  1  0  0  0  0
 13 15  1  0  0  0  0
 13 16  1  0  0  0  0
 11 12  1  0  0  0  0
 11 13  1  0  0  0  0
 11 17  1  0  0  0  0
  9 10  1  0  0  0  0
  9 11  1  0  0  0  0
  9 24  1  0  0  0  0
  7  8  1  0  0  0  0
  7  9  1  0  0  0  0
 28 29  1  0  0  0  0
 28 30  1  0  0  0  0
 28 31  1  0  0  0  0
 26 27  1  0  0  0  0
 26 28  1  0  0  0  0
M  END
$$$$
default_name
  -OEChem-01062215323D

 31 30  0     1  0  0  0  0  0999 V2000
   -3.0760   -3.6390    1.5496 H   0  0  0  0  0  0  0  0  0  0  0  0
   -3.0940   -2.6290    1.1426 C   0  0  0  0  0  0  0  0  0  0  0  0
   -3.7160   -1.9930    1.7706 H   0  0  0  0  0  0  0  0  0  0  0  0
   -3.4880   -2.6500    0.1286 H   0  0  0  0  0  0  0  0  0  0  0  0
   -1.6860   -2.0850    1.1196 C   0  0  0  0  0  0  0  0  0  0  0  0
   -0.7540   -2.7700    1.5226 O   0  0  0  0  0  0  0  0  0  0  0  0
   -1.5320   -0.8490    0.6496 N   0  0  0  0  0  0  0  0  0  0  0  0
   -2.3500   -0.3360    0.3566 H   0  0  0  0  0  0  0  0  0  0  0  0
   -0.2470   -0.1410    0.5576 C   0  0  1  0  0  0  0  0  0  0  0  0
   -0.1777    0.2861   -0.4434 H   0  0  0  0  0  0  0  0  0  0  0  0
   -0.2022    1.0262    1.5764 C   0  0  1  0  0  0  0  0  0  0  0  0
   -0.4324    0.6060    2.5573 H   0  0  0  0  0  0  0  0  0  0  0  0
    1.1903    1.6798    1.6616 C   0  0  0  0  0  0  0  0  0  0  0  0
    1.4366    2.1822    0.7245 H   0  0  0  0  0  0  0  0  0  0  0  0
    1.2184    2.4059    2.4725 H   0  0  0  0  0  0  0  0  0  0  0  0
    1.9494    0.9237    1.8654 H   0  0  0  0  0  0  0  0  0  0  0  0
   -1.2879    2.0794    1.2606 C   0  0  0  0  0  0  0  0  0  0  0  0
   -1.0429    2.6001    0.3339 H   0  0  0  0  0  0  0  0  0  0  0  0
   -2.2418    1.5698    1.1246 H   0  0  0  0  0  0  0  0  0  0  0  0
   -1.4796    3.1207    2.3715 C   0  0  0  0  0  0  0  0  0  0  0  0
   -0.5857    3.7351    2.4779 H   0  0  0  0  0  0  0  0  0  0  0  0
   -2.3176    3.7694    2.1154 H   0  0  0  0  0  0  0  0  0  0  0  0
   -1.6938    2.6220    3.3174 H   0  0  0  0  0  0  0  0  0  0  0  0
    0.9177   -1.1310    0.7191 C   0  0  0  0  0  0  0  0  0  0  0  0
    1.5503   -1.1788    1.7730 O   0  0  0  0  0  0  0  0  0  0  0  0
    1.1962   -1.9291   -0.3194 N   0  0  0  0  0  0  0  0  0  0  0  0
    0.6273   -1.8408   -1.1466 H   0  0  0  0  0  0  0  0  0  0  0  0
    2.2728   -2.9176   -0.3266 C   0  0  0  0  0  0  0  0  0  0  0  0
    2.1824   -3.5673    0.5467 H   0  0  0  0  0  0  0  0  0  0  0  0
    2.2237   -3.5245   -1.2318 H   0  0  0  0  0  0  0  0  0  0  0  0
    3.2381   -2.4096   -0.2821 H   0  0  0  0  0  0  0  0  0  0  0  0
  5  6  2  0  0  0  0
  5  7  1  0  0  0  0
  2  3  1  0  0  0  0
  2  4  1  0  0  0  0
  2  5  1  0  0  0  0
  1  2  1  0  0  0  0
 24 25  2  0  0  0  0
 24 26  1  0  0  0  0
 20 21  1  0  0  0  0
 20 22  1  0  0  0  0
 20 23  1  0  0  0  0
 17 18  1  0  0  0  0
 17 19  1  0  0  0  0
 17 20  1  0  0  0  0
 13 14  1  0  0  0  0
 13 15  1  0  0  0  0
 13 16  1  0  0  0  0
 11 12  1  0  0  0  0
 11 13  1  0  0  0  0
 11 17  1  0  0  0  0
  9 10  1  0  0  0  0
  9 11  1  0  0  0  0
  9 24  1  0  0  0  0
  7  8  1  0  0  0  0
  7  9  1  0  0  0  0
 28 29  1  0  0  0  0
 28 30  1  0  0  0  0
 28 31  1  0  0  0  0
 26 27  1  0  0  0  0
 26 28  1  0  0  0  0
M  END
$$$$
default_name
  -OEChem-01062215323D

 31 30  0     1  0  0  0  0  0999 V2000
   -3.0760   -3.6390    1.5496 H   0  0  0  0  0  0  0  0  0  0  0  0
   -3.0940   -2.6290    1.1426 C   0  0  0  0  0  0  0  0  0  0  0  0
   -3.7160   -1.9930    1.7706 H   0  0  0  0  0  0  0  0  0  0  0  0
   -3.4880   -2.6500    0.1286 H   0  0  0  0  0  0  0  0  0  0  0  0
   -1.6860   -2.0850    1.1196 C   0  0  0  0  0  0  0  0  0  0  0  0
   -0.7540   -2.7700    1.5226 O   0  0  0  0  0  0  0  0  0  0  0  0
   -1.5320   -0.8490    0.6496 N   0  0  0  0  0  0  0  0  0  0  0  0
   -2.3500   -0.3360    0.3566 H   0  0  0  0  0  0  0  0  0  0  0  0
   -0.2470   -0.1410    0.5576 C   0  0  1  0  0  0  0  0  0  0  0  0
   -0.1777    0.2861   -0.4434 H   0  0  0  0  0  0  0  0  0  0  0  0
   -0.2022    1.0262    1.5764 C   0  0  1  0  0  0  0  0  0  0  0  0
   -0.4324    0.6060    2.5573 H   0  0  0  0  0  0  0  0  0  0  0  0
    1.1903    1.6798    1.6616 C   0  0  0  0  0  0  0  0  0  0  0  0
    1.4366    2.1822    0.7245 H   0  0  0  0  0  0  0  0  0  0  0  0
    1.2184    2.4059    2.4725 H   0  0  0  0  0  0  0  0  0  0  0  0
    1.9494    0.9237    1.8654 H   0  0  0  0  0  0  0  0  0  0  0  0
   -1.2879    2.0794    1.2606 C   0  0  0  0  0  0  0  0  0  0  0  0
   -1.0429    2.6001    0.3339 H   0  0  0  0  0  0  0  0  0  0  0  0
   -2.2418    1.5698    1.1246 H   0  0  0  0  0  0  0  0  0  0  0  0
   -1.4796    3.1207    2.3715 C   0  0  0  0  0  0  0  0  0  0  0  0
   -0.5857    3.7351    2.4779 H   0  0  0  0  0  0  0  0  0  0  0  0
   -2.3176    3.7694    2.1154 H   0  0  0  0  0  0  0  0  0  0  0  0
   -1.6938    2.6220    3.3174 H   0  0  0  0  0  0  0  0  0  0  0  0
    0.9177   -1.1310    0.7191 C   0  0  0  0  0  0  0  0  0  0  0  0
    1.3704   -1.3803    1.8354 O   0  0  0  0  0  0  0  0  0  0  0  0
    1.3975   -1.7042   -0.3919 N   0  0  0  0  0  0  0  0  0  0  0  0
    0.9686   -1.4595   -1.2704 H   0  0  0  0  0  0  0  0  0  0  0  0
    2.5030   -2.6602   -0.4080 C   0  0  0  0  0  0  0  0  0  0  0  0
    2.2991   -3.4712    0.2946 H   0  0  0  0  0  0  0  0  0  0  0  0
    2.6296   -3.0759   -1.4087 H   0  0  0  0  0  0  0  0  0  0  0  0
    3.4247   -2.1610   -0.1030 H   0  0  0  0  0  0  0  0  0  0  0  0
  5  6  2  0  0  0  0
  5  7  1  0  0  0  0
  2  3  1  0  0  0  0
  2  4  1  0  0  0  0
  2  5  1  0  0  0  0
  1  2  1  0  0  0  0
 24 25  2  0  0  0  0
 24 26  1  0  0  0  0
 20 21  1  0  0  0  0
 20 22  1  0  0  0  0
 20 23  1  0  0  0  0
 17 18  1  0  0  0  0
 17 19  1  0  0  0  0
 17 20  1  0  0  0  0
 13 14  1  0  0  0  0
 13 15  1  0  0  0  0
 13 16  1  0  0  0  0
 11 12  1  0  0  0  0
 11 13  1  0  0  0  0
 11 17  1  0  0  0  0
  9 10  1  0  0  0  0
  9 11  1  0  0  0  0
  9 24  1  0  0  0  0
  7  8  1  0  0  0  0
  7  9  1  0  0  0  0
 28 29  1  0  0  0  0
 28 30  1  0  0  0  0
 28 31  1  0  0  0  0
 26 27  1  0  0  0  0
 26 28  1  0  0  0  0
M  END
$$$$
default_name
  -OEChem-01062215323D

 31 30  0     1  0  0  0  0  0999 V2000
   -3.0760   -3.6390    1.5496 H   0  0  0  0  0  0  0  0  0  0  0  0
   -3.0940   -2.6290    1.1426 C   0  0  0  0  0  0  0  0  0  0  0  0
   -3.7160   -1.9930    1.7706 H   0  0  0  0  0  0  0  0  0  0  0  0
   -3.4880   -2.6500    0.1286 H   0  0  0  0  0  0  0  0  0  0  0  0
   -1.6860   -2.0850    1.1196 C   0  0  0  0  0  0  0  0  0  0  0  0
   -0.7540   -2.7700    1.5226 O   0  0  0  0  0  0  0  0  0  0  0  0
   -1.5320   -0.8490    0.6496 N   0  0  0  0  0  0  0  0  0  0  0  0
   -2.3500   -0.3360    0.3566 H   0  0  0  0  0  0  0  0  0  0  0  0
   -0.2470   -0.1410    0.5576 C   0  0  1  0  0  0  0  0  0  0  0  0
   -0.1777    0.2861   -0.4434 H   0  0  0  0  0  0  0  0  0  0  0  0
   -0.2022    1.0262    1.5764 C   0  0  1  0  0  0  0  0  0  0  0  0
   -0.4324    0.6060    2.5573 H   0  0  0  0  0  0  0  0  0  0  0  0
    1.1903    1.6798    1.6616 C   0  0  0  0  0  0  0  0  0  0  0  0
    1.4366    2.1822    0.7245 H   0  0  0  0  0  0  0  0  0  0  0  0
    1.2184    2.4059    2.4725 H   0  0  0  0  0  0  0  0  0  0  0  0
    1.9494    0.9237    1.8654 H   0  0  0  0  0  0  0  0  0  0  0  0
   -1.2879    2.0794    1.2606 C   0  0  0  0  0  0  0  0  0  0  0  0
   -1.0429    2.6001    0.3339 H   0  0  0  0  0  0  0  0  0  0  0  0
   -2.2418    1.5698    1.1246 H   0  0  0  0  0  0  0  0  0  0  0  0
   -1.4796    3.1207    2.3715 C   0  0  0  0  0  0  0  0  0  0  0  0
   -0.5857    3.7351    2.4779 H   0  0  0  0  0  0  0  0  0  0  0  0
   -2.3176    3.7694    2.1154 H   0  0  0  0  0  0  0  0  0  0  0  0
   -1.6938    2.6220    3.3174 H   0  0  0  0  0  0  0  0  0  0  0  0
    0.9177   -1.1310    0.7191 C   0  0  0  0  0  0  0  0  0  0  0  0
    1.1917   -1.5921    1.8262 O   0  0  0  0  0  0  0  0  0  0  0  0
    1.5978   -1.4672   -0.3843 N   0  0  0  0  0  0  0  0  0  0  0  0
    1.3085   -1.0577   -1.2584 H   0  0  0  0  0  0  0  0  0  0  0  0
    2.7318   -2.3893   -0.3979 C   0  0  0  0  0  0  0  0  0  0  0  0
    2.4512   -3.3257    0.0894 H   0  0  0  0  0  0  0  0  0  0  0  0
    3.0389   -2.5968   -1.4239 H   0  0  0  0  0  0  0  0  0  0  0  0
    3.5683   -1.9508    0.1498 H   0  0  0  0  0  0  0  0  0  0  0  0
  5  6  2  0  0  0  0
  5  7  1  0  0  0  0
  2  3  1  0  0  0  0
  2  4  1  0  0  0  0
  2  5  1  0  0  0  0
  1  2  1  0  0  0  0
 24 25  2  0  0  0  0
 24 26  1  0  0  0  0
 20 21  1  0  0  0  0
 20 22  1  0  0  0  0
 20 23  1  0  0  0  0
 17 18  1  0  0  0  0
 17 19  1  0  0  0  0
 17 20  1  0  0  0  0
 13 14  1  0  0  0  0
 13 15  1  0  0  0  0
 13 16  1  0  0  0  0
 11 12  1  0  0  0  0
 11 13  1  0  0  0  0
 11 17  1  0  0  0  0
  9 10  1  0  0  0  0
  9 11  1  0  0  0  0
  9 24  1  0  0  0  0
  7  8  1  0  0  0  0
  7  9  1  0  0  0  0
 28 29  1  0  0  0  0
 28 30  1  0  0  0  0
 28 31  1  0  0  0  0
 26 27  1  0  0  0  0
 26 28  1  0  0  0  0
M  END
$$$$
default_name
  -OEChem-01062215323D

 31 30  0     1  0  0  0  0  0999 V2000
   -3.0760   -3.6390    1.5496 H   0  0  0  0  0  0  0  0  0  0  0  0
   -3.0940   -2.6290    1.1426 C   0  0  0  0  0  0  0  0  0  0  0  0
   -3.7160   -1.9930    1.7706 H   0  0  0  0  0  0  0  0  0  0  0  0
   -3.4880   -2.6500    0.1286 H   0  0  0  0  0  0  0  0  0  0  0  0
   -1.6860   -2.0850    1.1196 C   0  0  0  0  0  0  0  0  0  0  0  0
   -0.7540   -2.7700    1.5226 O   0  0  0  0  0  0  0  0  0  0  0  0
   -1.5320   -0.8490    0.6496 N   0  0  0  0  0  0  0  0  0  0  0  0
   -2.3500   -0.3360    0.3566 H   0  0  0  0  0  0  0  0  0  0  0  0
   -0.2470   -0.1410    0.5576 C   0  0  1  0  0  0  0  0  0  0  0  0
   -0.1777    0.2861   -0.4434 H   0  0  0  0  0  0  0  0  0  0  0  0
   -0.2022    1.0262    1.5764 C   0  0  1  0  0  0  0  0  0  0  0  0
   -0.4324    0.6060    2.5573 H   0  0  0  0  0  0  0  0  0  0  0  0
    1.1903    1.6798    1.6616 C   0  0  0  0  0  0  0  0  0  0  0  0
    1.4366    2.1822    0.7245 H   0  0  0  0  0  0  0  0  0  0  0  0
    1.2184    2.4059    2.4725 H   0  0  0  0  0  0  0  0  0  0  0  0
    1.9494    0.9237    1.8654 H   0  0  0  0  0  0  0  0  0  0  0  0
   -1.2879    2.0794    1.2606 C   0  0  0  0  0  0  0  0  0  0  0  0
   -1.0429    2.6001    0.3339 H   0  0  0  0  0  0  0  0  0  0  0  0
   -2.2418    1.5698    1.1246 H   0  0  0  0  0  0  0  0  0  0  0  0
   -1.4796    3.1207    2.3715 C   0  0  0  0  0  0  0  0  0  0  0  0
   -0.5857    3.7351    2.4779 H   0  0  0  0  0  0  0  0  0  0  0  0
   -2.3176    3.7694    2.1154 H   0  0  0  0  0  0  0  0  0  0  0  0
   -1.6938    2.6220    3.3174 H   0  0  0  0  0  0  0  0  0  0  0  0
    0.9177   -1.1310    0.7191 C   0  0  0  0  0  0  0  0  0  0  0  0
    1.0264   -1.7996    1.7459 O   0  0  0  0  0  0  0  0  0  0  0  0
    1.7836   -1.2344   -0.2970 N   0  0  0  0  0  0  0  0  0  0  0  0
    1.6239   -0.6626   -1.1114 H   0  0  0  0  0  0  0  0  0  0  0  0
    2.9438   -2.1234   -0.2968 C   0  0  0  0  0  0  0  0  0  0  0  0
    2.6284   -3.1408   -0.0549 H   0  0  0  0  0  0  0  0  0  0  0  0
    3.4238   -2.1200   -1.2765 H   0  0  0  0  0  0  0  0  0  0  0  0
    3.6591   -1.7935    0.4591 H   0  0  0  0  0  0  0  0  0  0  0  0
  5  6  2  0  0  0  0
  5  7  1  0  0  0  0
  2  3  1  0  0  0  0
  2  4  1  0  0  0  0
  2  5  1  0  0  0  0
  1  2  1  0  0  0  0
 24 25  2  0  0  0  0
 24 26  1  0  0  0  0
 20 21  1  0  0  0  0
 20 22  1  0  0  0  0
 20 23  1  0  0  0  0
 17 18  1  0  0  0  0
 17 19  1  0  0  0  0
 17 20  1  0  0  0  0
 13 14  1  0  0  0  0
 13 15  1  0  0  0  0
 13 16  1  0  0  0  0
 11 12  1  0  0  0  0
 11 13  1  0  0  0  0
 11 17  1  0  0  0  0
  9 10  1  0  0  0  0
  9 11  1  0  0  0  0
  9 24  1  0  0  0  0
  7  8  1  0  0  0  0
  7  9  1  0  0  0  0
 28 29  1  0  0  0  0
 28 30  1  0  0  0  0
 28 31  1  0  0  0  0
 26 27  1  0  0  0  0
 26 28  1  0  0  0  0
M  END
$$$$
default_name
  -OEChem-01062215323D

 31 30  0     1  0  0  0  0  0999 V2000
   -3.0760   -3.6390    1.5496 H   0  0  0  0  0  0  0  0  0  0  0  0
   -3.0940   -2.6290    1.1426 C   0  0  0  0  0  0  0  0  0  0  0  0
   -3.7160   -1.9930    1.7706 H   0  0  0  0  0  0  0  0  0  0  0  0
   -3.4880   -2.6500    0.1286 H   0  0  0  0  0  0  0  0  0  0  0  0
   -1.6860   -2.0850    1.1196 C   0  0  0  0  0  0  0  0  0  0  0  0
   -0.7540   -2.7700    1.5226 O   0  0  0  0  0  0  0  0  0  0  0  0
   -1.5320   -0.8490    0.6496 N   0  0  0  0  0  0  0  0  0  0  0  0
   -2.3500   -0.3360    0.3566 H   0  0  0  0  0  0  0  0  0  0  0  0
   -0.2470   -0.1410    0.5576 C   0  0  1  0  0  0  0  0  0  0  0  0
   -0.1777    0.2861   -0.4434 H   0  0  0  0  0  0  0  0  0  0  0  0
   -0.2022    1.0262    1.5764 C   0  0  1  0  0  0  0  0  0  0  0  0
   -0.4324    0.6060    2.5573 H   0  0  0  0  0  0  0  0  0  0  0  0
    1.1903    1.6798    1.6616 C   0  0  0  0  0  0  0  0  0  0  0  0
    1.4366    2.1822    0.7245 H   0  0  0  0  0  0  0  0  0  0  0  0
    1.2184    2.4059    2.4725 H   0  0  0  0  0  0  0  0  0  0  0  0
    1.9494    0.9237    1.8654 H   0  0  0  0  0  0  0  0  0  0  0  0
   -1.2879    2.0794    1.2606 C   0  0  0  0  0  0  0  0  0  0  0  0
   -1.0429    2.6001    0.3339 H   0  0  0  0  0  0  0  0  0  0  0  0
   -2.2418    1.5698    1.1246 H   0  0  0  0  0  0  0  0  0  0  0  0
   -1.4796    3.1207    2.3715 C   0  0  0  0  0  0  0  0  0  0  0  0
   -0.5857    3.7351    2.4779 H   0  0  0  0  0  0  0  0  0  0  0  0
   -2.3176    3.7694    2.1154 H   0  0  0  0  0  0  0  0  0  0  0  0
   -1.6938    2.6220    3.3174 H   0  0  0  0  0  0  0  0  0  0  0  0
    0.9177   -1.1310    0.7191 C   0  0  0  0  0  0  0  0  0  0  0  0
    0.8858   -1.9889    1.6002 O   0  0  0  0  0  0  0  0  0  0  0  0
    1.9422   -1.0216   -0.1361 N   0  0  0  0  0  0  0  0  0  0  0  0
    1.8933   -0.3013   -0.8393 H   0  0  0  0  0  0  0  0  0  0  0  0
    3.1245   -1.8806   -0.1116 C   0  0  0  0  0  0  0  0  0  0  0  0
    2.8186   -2.9290   -0.1285 H   0  0  0  0  0  0  0  0  0  0  0  0
    3.7580   -1.6778   -0.9763 H   0  0  0  0  0  0  0  0  0  0  0  0
    3.6910   -1.6997    0.8039 H   0  0  0  0  0  0  0  0  0  0  0  0
  5  6  2  0  0  0  0
  5  7  1  0  0  0  0
  2  3  1  0  0  0  0
  2  4  1  0  0  0  0
  2  5  1  0  0  0  0
  1  2  1  0  0  0  0
 24 25  2  0  0  0  0
 24 26  1  0  0  0  0
 20 21  1  0  0  0  0
 20 22  1  0  0  0  0
 20 23  1  0  0  0  0
 17 18  1  0  0  0  0
 17 19  1  0  0  0  0
 17 20  1  0  0  0  0
 13 14  1  0  0  0  0
 13 15  1  0  0  0  0
 13 16  1  0  0  0  0
 11 12  1  0  0  0  0
 11 13  1  0  0  0  0
 11 17  1  0  0  0  0
  9 10  1  0  0  0  0
  9 11  1  0  0  0  0
  9 24  1  0  0  0  0
  7  8  1  0  0  0  0
  7  9  1  0  0  0  0
 28 29  1  0  0  0  0
 28 30  1  0  0  0  0
 28 31  1  0  0  0  0
 26 27  1  0  0  0  0
 26 28  1  0  0  0  0
M  END
$$$$
default_name
  -OEChem-01062215323D

 31 30  0     1  0  0  0  0  0999 V2000
   -3.0760   -3.6390    1.5496 H   0  0  0  0  0  0  0  0  0  0  0  0
   -3.0940   -2.6290    1.1426 C   0  0  0  0  0  0  0  0  0  0  0  0
   -3.7160   -1.9930    1.7706 H   0  0  0  0  0  0  0  0  0  0  0  0
   -3.4880   -2.6500    0.1286 H   0  0  0  0  0  0  0  0  0  0  0  0
   -1.6860   -2.0850    1.1196 C   0  0  0  0  0  0  0  0  0  0  0  0
   -0.7540   -2.7700    1.5226 O   0  0  0  0  0  0  0  0  0  0  0  0
   -1.5320   -0.8490    0.6496 N   0  0  0  0  0  0  0  0  0  0  0  0
   -2.3500   -0.3360    0.3566 H   0  0  0  0  0  0  0  0  0  0  0  0
   -0.2470   -0.1410    0.5576 C   0  0  1  0  0  0  0  0  0  0  0  0
   -0.1777    0.2861   -0.4434 H   0  0  0  0  0  0  0  0  0  0  0  0
   -0.2022    1.0262    1.5764 C   0  0  1  0  0  0  0  0  0  0  0  0
   -0.4324    0.6060    2.5573 H   0  0  0  0  0  0  0  0  0  0  0  0
    1.1903    1.6798    1.6616 C   0  0  0  0  0  0  0  0  0  0  0  0
    1.4366    2.1822    0.7245 H   0  0  0  0  0  0  0  0  0  0  0  0
    1.2184    2.4059    2.4725 H   0  0  0  0  0  0  0  0  0  0  0  0
    1.9494    0.9237    1.8654 H   0  0  0  0  0  0  0  0  0  0  0  0
   -1.2879    2.0794    1.2606 C   0  0  0  0  0  0  0  0  0  0  0  0
   -1.0429    2.6001    0.3339 H   0  0  0  0  0  0  0  0  0  0  0  0
   -2.2418    1.5698    1.1246 H   0  0  0  0  0  0  0  0  0  0  0  0
   -1.4796    3.1207    2.3715 C   0  0  0  0  0  0  0  0  0  0  0  0
   -0.5857    3.7351    2.4779 H   0  0  0  0  0  0  0  0  0  0  0  0
   -2.3176    3.7694    2.1154 H   0  0  0  0  0  0  0  0  0  0  0  0
   -1.6938    2.6220    3.3174 H   0  0  0  0  0  0  0  0  0  0  0  0
    0.9177   -1.1310    0.7191 C   0  0  0  0  0  0  0  0  0  0  0  0
    0.7793   -2.1469    1.3988 O   0  0  0  0  0  0  0  0  0  0  0  0
    2.0628   -0.8432    0.0875 N   0  0  0  0  0  0  0  0  0  0  0  0
    2.0984    0.0017   -0.4607 H   0  0  0  0  0  0  0  0  0  0  0  0
    3.2615   -1.6775    0.1449 C   0  0  0  0  0  0  0  0  0  0  0  0
    3.0088   -2.7049   -0.1264 H   0  0  0  0  0  0  0  0  0  0  0  0
    4.0188   -1.3005   -0.5440 H   0  0  0  0  0  0  0  0  0  0  0  0
    3.6618   -1.6759    1.1606 H   0  0  0  0  0  0  0  0  0  0  0  0
  5  6  2  0  0  0  0
  5  7  1  0  0  0  0
  2  3  1  0  0  0  0
  2  4  1  0  0  0  0
  2  5  1  0  0  0  0
  1  2  1  0  0  0  0
 24 25  2  0  0  0  0
 24 26  1  0  0  0  0
 20 21  1  0  0  0  0
 20 22  1  0  0  0  0
 20 23  1  0  0  0  0
 17 18  1  0  0  0  0
 17 19  1  0  0  0  0
 17 20  1  0  0  0  0
 13 14  1  0  0  0  0
 13 15  1  0  0  0  0
 13 16  1  0  0  0  0
 11 12  1  0  0  0  0
 11 13  1  0  0  0  0
 11 17  1  0  0  0  0
  9 10  1  0  0  0  0
  9 11  1  0  0  0  0
  9 24  1  0  0  0  0
  7  8  1  0  0  0  0
  7  9  1  0  0  0  0
 28 29  1  0  0  0  0
 28 30  1  0  0  0  0
 28 31  1  0  0  0  0
 26 27  1  0  0  0  0
 26 28  1  0  0  0  0
M  END
$$$$
default_name
  -OEChem-01062215323D

 31 30  0     1  0  0  0  0  0999 V2000
   -3.0760   -3.6390    1.5496 H   0  0  0  0  0  0  0  0  0  0  0  0
   -3.0940   -2.6290    1.1426 C   0  0  0  0  0  0  0  0  0  0  0  0
   -3.7160   -1.9930    1.7706 H   0  0  0  0  0  0  0  0  0  0  0  0
   -3.4880   -2.6500    0.1286 H   0  0  0  0  0  0  0  0  0  0  0  0
   -1.6860   -2.0850    1.1196 C   0  0  0  0  0  0  0  0  0  0  0  0
   -0.7540   -2.7700    1.5226 O   0  0  0  0  0  0  0  0  0  0  0  0
   -1.5320   -0.8490    0.6496 N   0  0  0  0  0  0  0  0  0  0  0  0
   -2.3500   -0.3360    0.3566 H   0  0  0  0  0  0  0  0  0  0  0  0
   -0.2470   -0.1410    0.5576 C   0  0  1  0  0  0  0  0  0  0  0  0
   -0.1777    0.2861   -0.4434 H   0  0  0  0  0  0  0  0  0  0  0  0
   -0.2022    1.0262    1.5764 C   0  0  1  0  0  0  0  0  0  0  0  0
   -0.4324    0.6060    2.5573 H   0  0  0  0  0  0  0  0  0  0  0  0
    1.1903    1.6798    1.6616 C   0  0  0  0  0  0  0  0  0  0  0  0
    1.4366    2.1822    0.7245 H   0  0  0  0  0  0  0  0  0  0  0  0
    1.2184    2.4059    2.4725 H   0  0  0  0  0  0  0  0  0  0  0  0
    1.9494    0.9237    1.8654 H   0  0  0  0  0  0  0  0  0  0  0  0
   -1.2879    2.0794    1.2606 C   0  0  0  0  0  0  0  0  0  0  0  0
   -1.0429    2.6001    0.3339 H   0  0  0  0  0  0  0  0  0  0  0  0
   -2.2418    1.5698    1.1246 H   0  0  0  0  0  0  0  0  0  0  0  0
   -1.4796    3.1207    2.3715 C   0  0  0  0  0  0  0  0  0  0  0  0
   -0.5857    3.7351    2.4779 H   0  0  0  0  0  0  0  0  0  0  0  0
   -2.3176    3.7694    2.1154 H   0  0  0  0  0  0  0  0  0  0  0  0
   -1.6938    2.6220    3.3174 H   0  0  0  0  0  0  0  0  0  0  0  0
    0.9177   -1.1310    0.7191 C   0  0  0  0  0  0  0  0  0  0  0  0
    0.7144   -2.2630    1.1556 O   0  0  0  0  0  0  0  0  0  0  0  0
    2.1372   -0.7115    0.3585 N   0  0  0  0  0  0  0  0  0  0  0  0
    2.2251    0.2257   -0.0014 H   0  0  0  0  0  0  0  0  0  0  0  0
    3.3456   -1.5279    0.4554 C   0  0  0  0  0  0  0  0  0  0  0  0
    3.1861   -2.4837   -0.0487 H   0  0  0  0  0  0  0  0  0  0  0  0
    4.1883   -1.0137   -0.0089 H   0  0  0  0  0  0  0  0  0  0  0  0
    3.5734   -1.7236    1.5050 H   0  0  0  0  0  0  0  0  0  0  0  0
  5  6  2  0  0  0  0
  5  7  1  0  0  0  0
  2  3  1  0  0  0  0
  2  4  1  0  0  0  0
  2  5  1  0  0  0  0
  1  2  1  0  0  0  0
 24 25  2  0  0  0  0
 24 26  1  0  0  0  0
 20 21  1  0  0  0  0
 20 22  1  0  0  0  0
 20 23  1  0  0  0  0
 17 18  1  0  0  0  0
 17 19  1  0  0  0  0
 17 20  1  0  0  0  0
 13 14  1  0  0  0  0
 13 15  1  0  0  0  0
 13 16  1  0  0  0  0
 11 12  1  0  0  0  0
 11 13  1  0  0  0  0
 11 17  1  0  0  0  0
  9 10  1  0  0  0  0
  9 11  1  0  0  0  0
  9 24  1  0  0  0  0
  7  8  1  0  0  0  0
  7  9  1  0  0  0  0
 28 29  1  0  0  0  0
 28 30  1  0  0  0  0
 28 31  1  0  0  0  0
 26 27  1  0  0  0  0
 26 28  1  0  0  0  0
M  END
$$$$
default_name
  -OEChem-01062215323D

 31 30  0     1  0  0  0  0  0999 V2000
   -3.0760   -3.6390    1.5496 H   0  0  0  0  0  0  0  0  0  0  0  0
   -3.0940   -2.6290    1.1426 C   0  0  0  0  0  0  0  0  0  0  0  0
   -3.7160   -1.9930    1.7706 H   0  0  0  0  0  0  0  0  0  0  0  0
   -3.4880   -2.6500    0.1286 H   0  0  0  0  0  0  0  0  0  0  0  0
   -1.6860   -2.0850    1.1196 C   0  0  0  0  0  0  0  0  0  0  0  0
   -0.7540   -2.7700    1.5226 O   0  0  0  0  0  0  0  0  0  0  0  0
   -1.5320   -0.8490    0.6496 N   0  0  0  0  0  0  0  0  0  0  0  0
   -2.3500   -0.3360    0.3566 H   0  0  0  0  0  0  0  0  0  0  0  0
   -0.2470   -0.1410    0.5576 C   0  0  1  0  0  0  0  0  0  0  0  0
   -0.2881    0.5023   -0.3220 H   0  0  0  0  0  0  0  0  0  0  0  0
   -0.0418    0.7641    1.7991 C   0  0  1  0  0  0  0  0  0  0  0  0
   -0.1626    0.1323    2.6811 H   0  0  0  0  0  0  0  0  0  0  0  0
    1.3699    1.3786    1.8524 C   0  0  0  0  0  0  0  0  0  0  0  0
    1.5145    2.0804    1.0290 H   0  0  0  0  0  0  0  0  0  0  0  0
    1.5196    1.9013    2.7957 H   0  0  0  0  0  0  0  0  0  0  0  0
    2.1248    0.5946    1.7829 H   0  0  0  0  0  0  0  0  0  0  0  0
   -1.1254    1.8634    1.8685 C   0  0  0  0  0  0  0  0  0  0  0  0
   -0.9802    2.5807    1.0595 H   0  0  0  0  0  0  0  0  0  0  0  0
   -2.1038    1.3998    1.7430 H   0  0  0  0  0  0  0  0  0  0  0  0
   -1.1473    2.6254    3.2005 C   0  0  0  0  0  0  0  0  0  0  0  0
   -0.2288    3.1979    3.3286 H   0  0  0  0  0  0  0  0  0  0  0  0
   -1.9902    3.3169    3.2052 H   0  0  0  0  0  0  0  0  0  0  0  0
   -1.2589    1.9252    4.0290 H   0  0  0  0  0  0  0  0  0  0  0  0
    0.8979   -1.1439    0.3433 C   0  0  0  0  0  0  0  0  0  0  0  0
    0.6614   -2.3485    0.2638 O   0  0  0  0  0  0  0  0  0  0  0  0
    2.1382   -0.6499    0.2392 N   0  0  0  0  0  0  0  0  0  0  0  0
    2.2536    0.3492    0.3030 H   0  0  0  0  0  0  0  0  0  0  0  0
    3.3318   -1.4695    0.0397 C   0  0  0  0  0  0  0  0  0  0  0  0
    3.1879   -2.1269   -0.8206 H   0  0  0  0  0  0  0  0  0  0  0  0
    4.2019   -0.8351   -0.1351 H   0  0  0  0  0  0  0  0  0  0  0  0
    3.5048   -2.0875    0.9229 H   0  0  0  0  0  0  0  0  0  0  0  0
  5  6  2  0  0  0  0
  5  7  1  0  0  0  0
  2  3  1  0  0  0  0
  2  4  1  0  0  0  0
  2  5  1  0  0  0  0
  1  2  1  0  0  0  0
 24 25  2  0  0  0  0
 24 26  1  0  0  0  0
 20 21  1  0  0  0  0
 20 22  1  0  0  0  0
 20 23  1  0  0  0  0
 17 18  1  0  0  0  0
 17 19  1  0  0  0  0
 17 20  1  0  0  0  0
 13 14  1  0  0  0  0
 13 15  1  0  0  0  0
 13 16  1  0  0  0  0
 11 12  1  0  0  0  0
 11 13  1  0  0  0  0
 11 17  1  0  0  0  0
  9 10  1  0  0  0  0
  9 11  1  0  0  0  0
  9 24  1  0  0  0  0
  7  8  1  0  0  0  0
  7  9  1  0  0  0  0
 28 29  1  0  0  0  0
 28 30  1  0  0  0  0
 28 31  1  0  0  0  0
 26 27  1  0  0  0  0
 26 28  1  0  0  0  0
M  END
$$$$
default_name
  -OEChem-01062215323D

 31 30  0     1  0  0  0  0  0999 V2000
   -3.0760   -3.6390    1.5496 H   0  0  0  0  0  0  0  0  0  0  0  0
   -3.0940   -2.6290    1.1426 C   0  0  0  0  0  0  0  0  0  0  0  0
   -3.7160   -1.9930    1.7706 H   0  0  0  0  0  0  0  0  0  0  0  0
   -3.4880   -2.6500    0.1286 H   0  0  0  0  0  0  0  0  0  0  0  0
   -1.6860   -2.0850    1.1196 C   0  0  0  0  0  0  0  0  0  0  0  0
   -0.7540   -2.7700    1.5226 O   0  0  0  0  0  0  0  0  0  0  0  0
   -1.5320   -0.8490    0.6496 N   0  0  0  0  0  0  0  0  0  0  0  0
   -2.3500   -0.3360    0.3566 H   0  0  0  0  0  0  0  0  0  0  0  0
   -0.2470   -0.1410    0.5576 C   0  0  1  0  0  0  0  0  0  0  0  0
   -0.2881    0.5023   -0.3220 H   0  0  0  0  0  0  0  0  0  0  0  0
   -0.0418    0.7641    1.7991 C   0  0  1  0  0  0  0  0  0  0  0  0
   -0.1626    0.1323    2.6811 H   0  0  0  0  0  0  0  0  0  0  0  0
    1.3699    1.3786    1.8524 C   0  0  0  0  0  0  0  0  0  0  0  0
    1.5145    2.0804    1.0290 H   0  0  0  0  0  0  0  0  0  0  0  0
    1.5196    1.9013    2.7957 H   0  0  0  0  0  0  0  0  0  0  0  0
    2.1248    0.5946    1.7829 H   0  0  0  0  0  0  0  0  0  0  0  0
   -1.1254    1.8634    1.8685 C   0  0  0  0  0  0  0  0  0  0  0  0
   -0.9802    2.5807    1.0595 H   0  0  0  0  0  0  0  0  0  0  0  0
   -2.1038    1.3998    1.7430 H   0  0  0  0  0  0  0  0  0  0  0  0
   -1.1473    2.6254    3.2005 C   0  0  0  0  0  0  0  0  0  0  0  0
   -0.2288    3.1979    3.3286 H   0  0  0  0  0  0  0  0  0  0  0  0
   -1.9902    3.3169    3.2052 H   0  0  0  0  0  0  0  0  0  0  0  0
   -1.2589    1.9252    4.0290 H   0  0  0  0  0  0  0  0  0  0  0  0
    0.8979   -1.1439    0.3433 C   0  0  0  0  0  0  0  0  0  0  0  0
    0.6552   -2.2974   -0.0086 O   0  0  0  0  0  0  0  0  0  0  0  0
    2.1469   -0.7051    0.5445 N   0  0  0  0  0  0  0  0  0  0  0  0
    2.2691    0.2562    0.8210 H   0  0  0  0  0  0  0  0  0  0  0  0
    3.3409   -1.5337    0.3885 C   0  0  0  0  0  0  0  0  0  0  0  0
    3.3347   -2.0074   -0.5956 H   0  0  0  0  0  0  0  0  0  0  0  0
    4.2403   -0.9243    0.4876 H   0  0  0  0  0  0  0  0  0  0  0  0
    3.3469   -2.3162    1.1497 H   0  0  0  0  0  0  0  0  0  0  0  0
  5  6  2  0  0  0  0
  5  7  1  0  0  0  0
  2  3  1  0  0  0  0
  2  4  1  0  0  0  0
  2  5  1  0  0  0  0
  1  2  1  0  0  0  0
 24 25  2  0  0  0  0
 24 26  1  0  0  0  0
 20 21  1  0  0  0  0
 20 22  1  0  0  0  0
 20 23  1  0  0  0  0
 17 18  1  0  0  0  0
 17 19  1  0  0  0  0
 17 20  1  0  0  0  0
 13 14  1  0  0  0  0
 13 15  1  0  0  0  0
 13 16  1  0  0  0  0
 11 12  1  0  0  0  0
 11 13  1  0  0  0  0
 11 17  1  0  0  0  0
  9 10  1  0  0  0  0
  9 11  1  0  0  0  0
  9 24  1  0  0  0  0
  7  8  1  0  0  0  0
  7  9  1  0  0  0  0
 28 29  1  0  0  0  0
 28 30  1  0  0  0  0
 28 31  1  0  0  0  0
 26 27  1  0  0  0  0
 26 28  1  0  0  0  0
M  END
$$$$
default_name
  -OEChem-01062215323D

 31 30  0     1  0  0  0  0  0999 V2000
   -3.0760   -3.6390    1.5496 H   0  0  0  0  0  0  0  0  0  0  0  0
   -3.0940   -2.6290    1.1426 C   0  0  0  0  0  0  0  0  0  0  0  0
   -3.7160   -1.9930    1.7706 H   0  0  0  0  0  0  0  0  0  0  0  0
   -3.4880   -2.6500    0.1286 H   0  0  0  0  0  0  0  0  0  0  0  0
   -1.6860   -2.0850    1.1196 C   0  0  0  0  0  0  0  0  0  0  0  0
   -0.7540   -2.7700    1.5226 O   0  0  0  0  0  0  0  0  0  0  0  0
   -1.5320   -0.8490    0.6496 N   0  0  0  0  0  0  0  0  0  0  0  0
   -2.3500   -0.3360    0.3566 H   0  0  0  0  0  0  0  0  0  0  0  0
   -0.2470   -0.1410    0.5576 C   0  0  1  0  0  0  0  0  0  0  0  0
   -0.2881    0.5023   -0.3220 H   0  0  0  0  0  0  0  0  0  0  0  0
   -0.0418    0.7641    1.7991 C   0  0  1  0  0  0  0  0  0  0  0  0
   -0.1626    0.1323    2.6811 H   0  0  0  0  0  0  0  0  0  0  0  0
    1.3699    1.3786    1.8524 C   0  0  0  0  0  0  0  0  0  0  0  0
    1.5145    2.0804    1.0290 H   0  0  0  0  0  0  0  0  0  0  0  0
    1.5196    1.9013    2.7957 H   0  0  0  0  0  0  0  0  0  0  0  0
    2.1248    0.5946    1.7829 H   0  0  0  0  0  0  0  0  0  0  0  0
   -1.1254    1.8634    1.8685 C   0  0  0  0  0  0  0  0  0  0  0  0
   -0.9802    2.5807    1.0595 H   0  0  0  0  0  0  0  0  0  0  0  0
   -2.1038    1.3998    1.7430 H   0  0  0  0  0  0  0  0  0  0  0  0
   -1.1473    2.6254    3.2005 C   0  0  0  0  0  0  0  0  0  0  0  0
   -0.2288    3.1979    3.3286 H   0  0  0  0  0  0  0  0  0  0  0  0
   -1.9902    3.3169    3.2052 H   0  0  0  0  0  0  0  0  0  0  0  0
   -1.2589    1.9252    4.0290 H   0  0  0  0  0  0  0  0  0  0  0  0
    0.8979   -1.1439    0.3433 C   0  0  0  0  0  0  0  0  0  0  0  0
    0.6971   -2.1953   -0.2629 O   0  0  0  0  0  0  0  0  0  0  0  0
    2.1019   -0.8176    0.8302 N   0  0  0  0  0  0  0  0  0  0  0  0
    2.1933    0.0661    1.3060 H   0  0  0  0  0  0  0  0  0  0  0  0
    3.2884   -1.6632    0.7146 C   0  0  0  0  0  0  0  0  0  0  0  0
    3.4427   -1.9407   -0.3305 H   0  0  0  0  0  0  0  0  0  0  0  0
    4.1690   -1.1319    1.0785 H   0  0  0  0  0  0  0  0  0  0  0  0
    3.1478   -2.5751    1.2981 H   0  0  0  0  0  0  0  0  0  0  0  0
  5  6  2  0  0  0  0
  5  7  1  0  0  0  0
  2  3  1  0  0  0  0
  2  4  1  0  0  0  0
  2  5  1  0  0  0  0
  1  2  1  0  0  0  0
 24 25  2  0  0  0  0
 24 26  1  0  0  0  0
 20 21  1  0  0  0  0
 20 22  1  0  0  0  0
 20 23  1  0  0  0  0
 17 18  1  0  0  0  0
 17 19  1  0  0  0  0
 17 20  1  0  0  0  0
 13 14  1  0  0  0  0
 13 15  1  0  0  0  0
 13 16  1  0  0  0  0
 11 12  1  0  0  0  0
 11 13  1  0  0  0  0
 11 17  1  0  0  0  0
  9 10  1  0  0  0  0
  9 11  1  0  0  0  0
  9 24  1  0  0  0  0
  7  8  1  0  0  0  0
  7  9  1  0  0  0  0
 28 29  1  0  0  0  0
 28 30  1  0  0  0  0
 28 31  1  0  0  0  0
 26 27  1  0  0  0  0
 26 28  1  0  0  0  0
M  END
$$$$
default_name
  -OEChem-01062215323D

 31 30  0     1  0  0  0  0  0999 V2000
   -3.0760   -3.6390    1.5496 H   0  0  0  0  0  0  0  0  0  0  0  0
   -3.0940   -2.6290    1.1426 C   0  0  0  0  0  0  0  0  0  0  0  0
   -3.7160   -1.9930    1.7706 H   0  0  0  0  0  0  0  0  0  0  0  0
   -3.4880   -2.6500    0.1286 H   0  0  0  0  0  0  0  0  0  0  0  0
   -1.6860   -2.0850    1.1196 C   0  0  0  0  0  0  0  0  0  0  0  0
   -0.7540   -2.7700    1.5226 O   0  0  0  0  0  0  0  0  0  0  0  0
   -1.5320   -0.8490    0.6496 N   0  0  0  0  0  0  0  0  0  0  0  0
   -2.3500   -0.3360    0.3566 H   0  0  0  0  0  0  0  0  0  0  0  0
   -0.2470   -0.1410    0.5576 C   0  0  1  0  0  0  0  0  0  0  0  0
   -0.2881    0.5023   -0.3220 H   0  0  0  0  0  0  0  0  0  0  0  0
   -0.0418    0.7641    1.7991 C   0  0  1  0  0  0  0  0  0  0  0  0
   -0.1626    0.1323    2.6811 H   0  0  0  0  0  0  0  0  0  0  0  0
    1.3699    1.3786    1.8524 C   0  0  0  0  0  0  0  0  0  0  0  0
    1.5145    2.0804    1.0290 H   0  0  0  0  0  0  0  0  0  0  0  0
    1.5196    1.9013    2.7957 H   0  0  0  0  0  0  0  0  0  0  0  0
    2.1248    0.5946    1.7829 H   0  0  0  0  0  0  0  0  0  0  0  0
   -1.1254    1.8634    1.8685 C   0  0  0  0  0  0  0  0  0  0  0  0
   -0.9802    2.5807    1.0595 H   0  0  0  0  0  0  0  0  0  0  0  0
   -2.1038    1.3998    1.7430 H   0  0  0  0  0  0  0  0  0  0  0  0
   -1.1473    2.6254    3.2005 C   0  0  0  0  0  0  0  0  0  0  0  0
   -0.2288    3.1979    3.3286 H   0  0  0  0  0  0  0  0  0  0  0  0
   -1.9902    3.3169    3.2052 H   0  0  0  0  0  0  0  0  0  0  0  0
   -1.2589    1.9252    4.0290 H   0  0  0  0  0  0  0  0  0  0  0  0
    0.8979   -1.1439    0.3433 C   0  0  0  0  0  0  0  0  0  0  0  0
    0.7841   -2.0492   -0.4818 O   0  0  0  0  0  0  0  0  0  0  0  0
    2.0060   -0.9798    1.0770 N   0  0  0  0  0  0  0  0  0  0  0  0
    2.0313   -0.2084    1.7250 H   0  0  0  0  0  0  0  0  0  0  0  0
    3.1780   -1.8494    0.9957 C   0  0  0  0  0  0  0  0  0  0  0  0
    3.5047   -1.9313   -0.0433 H   0  0  0  0  0  0  0  0  0  0  0  0
    3.9929   -1.4438    1.5971 H   0  0  0  0  0  0  0  0  0  0  0  0
    2.9211   -2.8467    1.3578 H   0  0  0  0  0  0  0  0  0  0  0  0
  5  6  2  0  0  0  0
  5  7  1  0  0  0  0
  2  3  1  0  0  0  0
  2  4  1  0  0  0  0
  2  5  1  0  0  0  0
  1  2  1  0  0  0  0
 24 25  2  0  0  0  0
 24 26  1  0  0  0  0
 20 21  1  0  0  0  0
 20 22  1  0  0  0  0
 20 23  1  0  0  0  0
 17 18  1  0  0  0  0
 17 19  1  0  0  0  0
 17 20  1  0  0  0  0
 13 14  1  0  0  0  0
 13 15  1  0  0  0  0
 13 16  1  0  0  0  0
 11 12  1  0  0  0  0
 11 13  1  0  0  0  0
 11 17  1  0  0  0  0
  9 10  1  0  0  0  0
  9 11  1  0  0  0  0
  9 24  1  0  0  0  0
  7  8  1  0  0  0  0
  7  9  1  0  0  0  0
 28 29  1  0  0  0  0
 28 30  1  0  0  0  0
 28 31  1  0  0  0  0
 26 27  1  0  0  0  0
 26 28  1  0  0  0  0
M  END
$$$$
default_name
  -OEChem-01062215323D

 31 30  0     1  0  0  0  0  0999 V2000
   -3.0760   -3.6390    1.5496 H   0  0  0  0  0  0  0  0  0  0  0  0
   -3.0940   -2.6290    1.1426 C   0  0  0  0  0  0  0  0  0  0  0  0
   -3.7160   -1.9930    1.7706 H   0  0  0  0  0  0  0  0  0  0  0  0
   -3.4880   -2.6500    0.1286 H   0  0  0  0  0  0  0  0  0  0  0  0
   -1.6860   -2.0850    1.1196 C   0  0  0  0  0  0  0  0  0  0  0  0
   -0.7540   -2.7700    1.5226 O   0  0  0  0  0  0  0  0  0  0  0  0
   -1.5320   -0.8490    0.6496 N   0  0  0  0  0  0  0  0  0  0  0  0
   -2.3500   -0.3360    0.3566 H   0  0  0  0  0  0  0  0  0  0  0  0
   -0.2470   -0.1410    0.5576 C   0  0  1  0  0  0  0  0  0  0  0  0
   -0.2881    0.5023   -0.3220 H   0  0  0  0  0  0  0  0  0  0  0  0
   -0.0418    0.7641    1.7991 C   0  0  1  0  0  0  0  0  0  0  0  0
   -0.1626    0.1323    2.6811 H   0  0  0  0  0  0  0  0  0  0  0  0
    1.3699    1.3786    1.8524 C   0  0  0  0  0  0  0  0  0  0  0  0
    1.5145    2.0804    1.0290 H   0  0  0  0  0  0  0  0  0  0  0  0
    1.5196    1.9013    2.7957 H   0  0  0  0  0  0  0  0  0  0  0  0
    2.1248    0.5946    1.7829 H   0  0  0  0  0  0  0  0  0  0  0  0
   -1.1254    1.8634    1.8685 C   0  0  0  0  0  0  0  0  0  0  0  0
   -0.9802    2.5807    1.0595 H   0  0  0  0  0  0  0  0  0  0  0  0
   -2.1038    1.3998    1.7430 H   0  0  0  0  0  0  0  0  0  0  0  0
   -1.1473    2.6254    3.2005 C   0  0  0  0  0  0  0  0  0  0  0  0
   -0.2288    3.1979    3.3286 H   0  0  0  0  0  0  0  0  0  0  0  0
   -1.9902    3.3169    3.2052 H   0  0  0  0  0  0  0  0  0  0  0  0
   -1.2589    1.9252    4.0290 H   0  0  0  0  0  0  0  0  0  0  0  0
    0.8979   -1.1439    0.3433 C   0  0  0  0  0  0  0  0  0  0  0  0
    0.9104   -1.8690   -0.6504 O   0  0  0  0  0  0  0  0  0  0  0  0
    1.8659   -1.1805    1.2678 N   0  0  0  0  0  0  0  0  0  0  0  0
    1.7941   -0.5485    2.0495 H   0  0  0  0  0  0  0  0  0  0  0  0
    3.0171   -2.0793    1.2127 C   0  0  0  0  0  0  0  0  0  0  0  0
    3.5165   -1.9798    0.2464 H   0  0  0  0  0  0  0  0  0  0  0  0
    3.7239   -1.8387    2.0082 H   0  0  0  0  0  0  0  0  0  0  0  0
    2.6823   -3.1123    1.3249 H   0  0  0  0  0  0  0  0  0  0  0  0
  5  6  2  0  0  0  0
  5  7  1  0  0  0  0
  2  3  1  0  0  0  0
  2  4  1  0  0  0  0
  2  5  1  0  0  0  0
  1  2  1  0  0  0  0
 24 25  2  0  0  0  0
 24 26  1  0  0  0  0
 20 21  1  0  0  0  0
 20 22  1  0  0  0  0
 20 23  1  0  0  0  0
 17 18  1  0  0  0  0
 17 19  1  0  0  0  0
 17 20  1  0  0  0  0
 13 14  1  0  0  0  0
 13 15  1  0  0  0  0
 13 16  1  0  0  0  0
 11 12  1  0  0  0  0
 11 13  1  0  0  0  0
 11 17  1  0  0  0  0
  9 10  1  0  0  0  0
  9 11  1  0  0  0  0
  9 24  1  0  0  0  0
  7  8  1  0  0  0  0
  7  9  1  0  0  0  0
 28 29  1  0  0  0  0
 28 30  1  0  0  0  0
 28 31  1  0  0  0  0
 26 27  1  0  0  0  0
 26 28  1  0  0  0  0
M  END
$$$$
default_name
  -OEChem-01062215323D

 31 30  0     1  0  0  0  0  0999 V2000
   -3.0760   -3.6390    1.5496 H   0  0  0  0  0  0  0  0  0  0  0  0
   -3.0940   -2.6290    1.1426 C   0  0  0  0  0  0  0  0  0  0  0  0
   -3.7160   -1.9930    1.7706 H   0  0  0  0  0  0  0  0  0  0  0  0
   -3.4880   -2.6500    0.1286 H   0  0  0  0  0  0  0  0  0  0  0  0
   -1.6860   -2.0850    1.1196 C   0  0  0  0  0  0  0  0  0  0  0  0
   -0.7540   -2.7700    1.5226 O   0  0  0  0  0  0  0  0  0  0  0  0
   -1.5320   -0.8490    0.6496 N   0  0  0  0  0  0  0  0  0  0  0  0
   -2.3500   -0.3360    0.3566 H   0  0  0  0  0  0  0  0  0  0  0  0
   -0.2470   -0.1410    0.5576 C   0  0  1  0  0  0  0  0  0  0  0  0
   -0.2881    0.5023   -0.3220 H   0  0  0  0  0  0  0  0  0  0  0  0
   -0.0418    0.7641    1.7991 C   0  0  1  0  0  0  0  0  0  0  0  0
   -0.1626    0.1323    2.6811 H   0  0  0  0  0  0  0  0  0  0  0  0
    1.3699    1.3786    1.8524 C   0  0  0  0  0  0  0  0  0  0  0  0
    1.5145    2.0804    1.0290 H   0  0  0  0  0  0  0  0  0  0  0  0
    1.5196    1.9013    2.7957 H   0  0  0  0  0  0  0  0  0  0  0  0
    2.1248    0.5946    1.7829 H   0  0  0  0  0  0  0  0  0  0  0  0
   -1.1254    1.8634    1.8685 C   0  0  0  0  0  0  0  0  0  0  0  0
   -0.9802    2.5807    1.0595 H   0  0  0  0  0  0  0  0  0  0  0  0
   -2.1038    1.3998    1.7430 H   0  0  0  0  0  0  0  0  0  0  0  0
   -1.1473    2.6254    3.2005 C   0  0  0  0  0  0  0  0  0  0  0  0
   -0.2288    3.1979    3.3286 H   0  0  0  0  0  0  0  0  0  0  0  0
   -1.9902    3.3169    3.2052 H   0  0  0  0  0  0  0  0  0  0  0  0
   -1.2589    1.9252    4.0290 H   0  0  0  0  0  0  0  0  0  0  0  0
    0.8979   -1.1439    0.3433 C   0  0  0  0  0  0  0  0  0  0  0  0
    1.0674   -1.6670   -0.7571 O   0  0  0  0  0  0  0  0  0  0  0  0
    1.6911   -1.4061    1.3898 N   0  0  0  0  0  0  0  0  0  0  0  0
    1.4980   -0.9310    2.2573 H   0  0  0  0  0  0  0  0  0  0  0  0
    2.8168   -2.3375    1.3509 C   0  0  0  0  0  0  0  0  0  0  0  0
    3.4771   -2.0829    0.5189 H   0  0  0  0  0  0  0  0  0  0  0  0
    3.3804   -2.2897    2.2837 H   0  0  0  0  0  0  0  0  0  0  0  0
    2.4475   -3.3539    1.2015 H   0  0  0  0  0  0  0  0  0  0  0  0
  5  6  2  0  0  0  0
  5  7  1  0  0  0  0
  2  3  1  0  0  0  0
  2  4  1  0  0  0  0
  2  5  1  0  0  0  0
  1  2  1  0  0  0  0
 24 25  2  0  0  0  0
 24 26  1  0  0  0  0
 20 21  1  0  0  0  0
 20 22  1  0  0  0  0
 20 23  1  0  0  0  0
 17 18  1  0  0  0  0
 17 19  1  0  0  0  0
 17 20  1  0  0  0  0
 13 14  1  0  0  0  0
 13 15  1  0  0  0  0
 13 16  1  0  0  0  0
 11 12  1  0  0  0  0
 11 13  1  0  0  0  0
 11 17  1  0  0  0  0
  9 10  1  0  0  0  0
  9 11  1  0  0  0  0
  9 24  1  0  0  0  0
  7  8  1  0  0  0  0
  7  9  1  0  0  0  0
 28 29  1  0  0  0  0
 28 30  1  0  0  0  0
 28 31  1  0  0  0  0
 26 27  1  0  0  0  0
 26 28  1  0  0  0  0
M  END
$$$$
default_name
  -OEChem-01062215323D

 31 30  0     1  0  0  0  0  0999 V2000
   -3.0760   -3.6390    1.5496 H   0  0  0  0  0  0  0  0  0  0  0  0
   -3.0940   -2.6290    1.1426 C   0  0  0  0  0  0  0  0  0  0  0  0
   -3.7160   -1.9930    1.7706 H   0  0  0  0  0  0  0  0  0  0  0  0
   -3.4880   -2.6500    0.1286 H   0  0  0  0  0  0  0  0  0  0  0  0
   -1.6860   -2.0850    1.1196 C   0  0  0  0  0  0  0  0  0  0  0  0
   -0.7540   -2.7700    1.5226 O   0  0  0  0  0  0  0  0  0  0  0  0
   -1.5320   -0.8490    0.6496 N   0  0  0  0  0  0  0  0  0  0  0  0
   -2.3500   -0.3360    0.3566 H   0  0  0  0  0  0  0  0  0  0  0  0
   -0.2470   -0.1410    0.5576 C   0  0  1  0  0  0  0  0  0  0  0  0
   -0.2881    0.5023   -0.3220 H   0  0  0  0  0  0  0  0  0  0  0  0
   -0.0418    0.7641    1.7991 C   0  0  1  0  0  0  0  0  0  0  0  0
   -0.1626    0.1323    2.6811 H   0  0  0  0  0  0  0  0  0  0  0  0
    1.3699    1.3786    1.8524 C   0  0  0  0  0  0  0  0  0  0  0  0
    1.5145    2.0804    1.0290 H   0  0  0  0  0  0  0  0  0  0  0  0
    1.5196    1.9013    2.7957 H   0  0  0  0  0  0  0  0  0  0  0  0
    2.1248    0.5946    1.7829 H   0  0  0  0  0  0  0  0  0  0  0  0
   -1.1254    1.8634    1.8685 C   0  0  0  0  0  0  0  0  0  0  0  0
   -0.9802    2.5807    1.0595 H   0  0  0  0  0  0  0  0  0  0  0  0
   -2.1038    1.3998    1.7430 H   0  0  0  0  0  0  0  0  0  0  0  0
   -1.1473    2.6254    3.2005 C   0  0  0  0  0  0  0  0  0  0  0  0
   -0.2288    3.1979    3.3286 H   0  0  0  0  0  0  0  0  0  0  0  0
   -1.9902    3.3169    3.2052 H   0  0  0  0  0  0  0  0  0  0  0  0
   -1.2589    1.9252    4.0290 H   0  0  0  0  0  0  0  0  0  0  0  0
    0.8979   -1.1439    0.3433 C   0  0  0  0  0  0  0  0  0  0  0  0
    1.2444   -1.4569   -0.7948 O   0  0  0  0  0  0  0  0  0  0  0  0
    1.4935   -1.6412    1.4347 N   0  0  0  0  0  0  0  0  0  0  0  0
    1.1630   -1.3298    2.3343 H   0  0  0  0  0  0  0  0  0  0  0  0
    2.5907   -2.6063    1.4007 C   0  0  0  0  0  0  0  0  0  0  0  0
    3.3894   -2.2336    0.7555 H   0  0  0  0  0  0  0  0  0  0  0  0
    2.9858   -2.7660    2.4049 H   0  0  0  0  0  0  0  0  0  0  0  0
    2.2329   -3.5550    0.9962 H   0  0  0  0  0  0  0  0  0  0  0  0
  5  6  2  0  0  0  0
  5  7  1  0  0  0  0
  2  3  1  0  0  0  0
  2  4  1  0  0  0  0
  2  5  1  0  0  0  0
  1  2  1  0  0  0  0
 24 25  2  0  0  0  0
 24 26  1  0  0  0  0
 20 21  1  0  0  0  0
 20 22  1  0  0  0  0
 20 23  1  0  0  0  0
 17 18  1  0  0  0  0
 17 19  1  0  0  0  0
 17 20  1  0  0  0  0
 13 14  1  0  0  0  0
 13 15  1  0  0  0  0
 13 16  1  0  0  0  0
 11 12  1  0  0  0  0
 11 13  1  0  0  0  0
 11 17  1  0  0  0  0
  9 10  1  0  0  0  0
  9 11  1  0  0  0  0
  9 24  1  0  0  0  0
  7  8  1  0  0  0  0
  7  9  1  0  0  0  0
 28 29  1  0  0  0  0
 28 30  1  0  0  0  0
 28 31  1  0  0  0  0
 26 27  1  0  0  0  0
 26 28  1  0  0  0  0
M  END
$$$$
default_name
  -OEChem-01062215323D

 31 30  0     1  0  0  0  0  0999 V2000
   -3.0760   -3.6390    1.5496 H   0  0  0  0  0  0  0  0  0  0  0  0
   -3.0940   -2.6290    1.1426 C   0  0  0  0  0  0  0  0  0  0  0  0
   -3.7160   -1.9930    1.7706 H   0  0  0  0  0  0  0  0  0  0  0  0
   -3.4880   -2.6500    0.1286 H   0  0  0  0  0  0  0  0  0  0  0  0
   -1.6860   -2.0850    1.1196 C   0  0  0  0  0  0  0  0  0  0  0  0
   -0.7540   -2.7700    1.5226 O   0  0  0  0  0  0  0  0  0  0  0  0
   -1.5320   -0.8490    0.6496 N   0  0  0  0  0  0  0  0  0  0  0  0
   -2.3500   -0.3360    0.3566 H   0  0  0  0  0  0  0  0  0  0  0  0
   -0.2470   -0.1410    0.5576 C   0  0  1  0  0  0  0  0  0  0  0  0
   -0.2881    0.5023   -0.3220 H   0  0  0  0  0  0  0  0  0  0  0  0
   -0.0418    0.7641    1.7991 C   0  0  1  0  0  0  0  0  0  0  0  0
   -0.1626    0.1323    2.6811 H   0  0  0  0  0  0  0  0  0  0  0  0
    1.3699    1.3786    1.8524 C   0  0  0  0  0  0  0  0  0  0  0  0
    1.5145    2.0804    1.0290 H   0  0  0  0  0  0  0  0  0  0  0  0
    1.5196    1.9013    2.7957 H   0  0  0  0  0  0  0  0  0  0  0  0
    2.1248    0.5946    1.7829 H   0  0  0  0  0  0  0  0  0  0  0  0
   -1.1254    1.8634    1.8685 C   0  0  0  0  0  0  0  0  0  0  0  0
   -0.9802    2.5807    1.0595 H   0  0  0  0  0  0  0  0  0  0  0  0
   -2.1038    1.3998    1.7430 H   0  0  0  0  0  0  0  0  0  0  0  0
   -1.1473    2.6254    3.2005 C   0  0  0  0  0  0  0  0  0  0  0  0
   -0.2288    3.1979    3.3286 H   0  0  0  0  0  0  0  0  0  0  0  0
   -1.9902    3.3169    3.2052 H   0  0  0  0  0  0  0  0  0  0  0  0
   -1.2589    1.9252    4.0290 H   0  0  0  0  0  0  0  0  0  0  0  0
    0.8979   -1.1439    0.3433 C   0  0  0  0  0  0  0  0  0  0  0  0
    1.4292   -1.2531   -0.7608 O   0  0  0  0  0  0  0  0  0  0  0  0
    1.2866   -1.8699    1.3993 N   0  0  0  0  0  0  0  0  0  0  0  0
    0.8121   -1.7177    2.2752 H   0  0  0  0  0  0  0  0  0  0  0  0
    2.3542   -2.8673    1.3588 C   0  0  0  0  0  0  0  0  0  0  0  0
    3.2593   -2.4217    0.9403 H   0  0  0  0  0  0  0  0  0  0  0  0
    2.5670   -3.2353    2.3635 H   0  0  0  0  0  0  0  0  0  0  0  0
    2.0530   -3.7020    0.7228 H   0  0  0  0  0  0  0  0  0  0  0  0
  5  6  2  0  0  0  0
  5  7  1  0  0  0  0
  2  3  1  0  0  0  0
  2  4  1  0  0  0  0
  2  5  1  0  0  0  0
  1  2  1  0  0  0  0
 24 25  2  0  0  0  0
 24 26  1  0  0  0  0
 20 21  1  0  0  0  0
 20 22  1  0  0  0  0
 20 23  1  0  0  0  0
 17 18  1  0  0  0  0
 17 19  1  0  0  0  0
 17 20  1  0  0  0  0
 13 14  1  0  0  0  0
 13 15  1  0  0  0  0
 13 16  1  0  0  0  0
 11 12  1  0  0  0  0
 11 13  1  0  0  0  0
 11 17  1  0  0  0  0
  9 10  1  0  0  0  0
  9 11  1  0  0  0  0
  9 24  1  0  0  0  0
  7  8  1  0  0  0  0
  7  9  1  0  0  0  0
 28 29  1  0  0  0  0
 28 30  1  0  0  0  0
 28 31  1  0  0  0  0
 26 27  1  0  0  0  0
 26 28  1  0  0  0  0
M  END
$$$$
default_name
  -OEChem-01062215323D

 31 30  0     1  0  0  0  0  0999 V2000
   -3.0760   -3.6390    1.5496 H   0  0  0  0  0  0  0  0  0  0  0  0
   -3.0940   -2.6290    1.1426 C   0  0  0  0  0  0  0  0  0  0  0  0
   -3.7160   -1.9930    1.7706 H   0  0  0  0  0  0  0  0  0  0  0  0
   -3.4880   -2.6500    0.1286 H   0  0  0  0  0  0  0  0  0  0  0  0
   -1.6860   -2.0850    1.1196 C   0  0  0  0  0  0  0  0  0  0  0  0
   -0.7540   -2.7700    1.5226 O   0  0  0  0  0  0  0  0  0  0  0  0
   -1.5320   -0.8490    0.6496 N   0  0  0  0  0  0  0  0  0  0  0  0
   -2.3500   -0.3360    0.3566 H   0  0  0  0  0  0  0  0  0  0  0  0
   -0.2470   -0.1410    0.5576 C   0  0  1  0  0  0  0  0  0  0  0  0
   -0.2881    0.5023   -0.3220 H   0  0  0  0  0  0  0  0  0  0  0  0
   -0.0418    0.7641    1.7991 C   0  0  1  0  0  0  0  0  0  0  0  0
   -0.1626    0.1323    2.6811 H   0  0  0  0  0  0  0  0  0  0  0  0
    1.3699    1.3786    1.8524 C   0  0  0  0  0  0  0  0  0  0  0  0
    1.5145    2.0804    1.0290 H   0  0  0  0  0  0  0  0  0  0  0  0
    1.5196    1.9013    2.7957 H   0  0  0  0  0  0  0  0  0  0  0  0
    2.1248    0.5946    1.7829 H   0  0  0  0  0  0  0  0  0  0  0  0
   -1.1254    1.8634    1.8685 C   0  0  0  0  0  0  0  0  0  0  0  0
   -0.9802    2.5807    1.0595 H   0  0  0  0  0  0  0  0  0  0  0  0
   -2.1038    1.3998    1.7430 H   0  0  0  0  0  0  0  0  0  0  0  0
   -1.1473    2.6254    3.2005 C   0  0  0  0  0  0  0  0  0  0  0  0
   -0.2288    3.1979    3.3286 H   0  0  0  0  0  0  0  0  0  0  0  0
   -1.9902    3.3169    3.2052 H   0  0  0  0  0  0  0  0  0  0  0  0
   -1.2589    1.9252    4.0290 H   0  0  0  0  0  0  0  0  0  0  0  0
    0.8979   -1.1439    0.3433 C   0  0  0  0  0  0  0  0  0  0  0  0
    1.6094   -1.0695   -0.6574 O   0  0  0  0  0  0  0  0  0  0  0  0
    1.0845   -2.0764    1.2861 N   0  0  0  0  0  0  0  0  0  0  0  0
    0.4691   -2.0685    2.0841 H   0  0  0  0  0  0  0  0  0  0  0  0
    2.1234   -3.1029    1.2280 C   0  0  0  0  0  0  0  0  0  0  0  0
    3.0956   -2.6342    1.0605 H   0  0  0  0  0  0  0  0  0  0  0  0
    2.1526   -3.6654    2.1624 H   0  0  0  0  0  0  0  0  0  0  0  0
    1.9201   -3.7847    0.4000 H   0  0  0  0  0  0  0  0  0  0  0  0
  5  6  2  0  0  0  0
  5  7  1  0  0  0  0
  2  3  1  0  0  0  0
  2  4  1  0  0  0  0
  2  5  1  0  0  0  0
  1  2  1  0  0  0  0
 24 25  2  0  0  0  0
 24 26  1  0  0  0  0
 20 21  1  0  0  0  0
 20 22  1  0  0  0  0
 20 23  1  0  0  0  0
 17 18  1  0  0  0  0
 17 19  1  0  0  0  0
 17 20  1  0  0  0  0
 13 14  1  0  0  0  0
 13 15  1  0  0  0  0
 13 16  1  0  0  0  0
 11 12  1  0  0  0  0
 11 13  1  0  0  0  0
 11 17  1  0  0  0  0
  9 10  1  0  0  0  0
  9 11  1  0  0  0  0
  9 24  1  0  0  0  0
  7  8  1  0  0  0  0
  7  9  1  0  0  0  0
 28 29  1  0  0  0  0
 28 30  1  0  0  0  0
 28 31  1  0  0  0  0
 26 27  1  0  0  0  0
 26 28  1  0  0  0  0
M  END
$$$$
default_name
  -OEChem-01062215323D

 31 30  0     1  0  0  0  0  0999 V2000
   -3.0760   -3.6390    1.5496 H   0  0  0  0  0  0  0  0  0  0  0  0
   -3.0940   -2.6290    1.1426 C   0  0  0  0  0  0  0  0  0  0  0  0
   -3.7160   -1.9930    1.7706 H   0  0  0  0  0  0  0  0  0  0  0  0
   -3.4880   -2.6500    0.1286 H   0  0  0  0  0  0  0  0  0  0  0  0
   -1.6860   -2.0850    1.1196 C   0  0  0  0  0  0  0  0  0  0  0  0
   -0.7540   -2.7700    1.5226 O   0  0  0  0  0  0  0  0  0  0  0  0
   -1.5320   -0.8490    0.6496 N   0  0  0  0  0  0  0  0  0  0  0  0
   -2.3500   -0.3360    0.3566 H   0  0  0  0  0  0  0  0  0  0  0  0
   -0.2470   -0.1410    0.5576 C   0  0  1  0  0  0  0  0  0  0  0  0
   -0.2881    0.5023   -0.3220 H   0  0  0  0  0  0  0  0  0  0  0  0
   -0.0418    0.7641    1.7991 C   0  0  1  0  0  0  0  0  0  0  0  0
   -0.1626    0.1323    2.6811 H   0  0  0  0  0  0  0  0  0  0  0  0
    1.3699    1.3786    1.8524 C   0  0  0  0  0  0  0  0  0  0  0  0
    1.5145    2.0804    1.0290 H   0  0  0  0  0  0  0  0  0  0  0  0
    1.5196    1.9013    2.7957 H   0  0  0  0  0  0  0  0  0  0  0  0
    2.1248    0.5946    1.7829 H   0  0  0  0  0  0  0  0  0  0  0  0
   -1.1254    1.8634    1.8685 C   0  0  0  0  0  0  0  0  0  0  0  0
   -0.9802    2.5807    1.0595 H   0  0  0  0  0  0  0  0  0  0  0  0
   -2.1038    1.3998    1.7430 H   0  0  0  0  0  0  0  0  0  0  0  0
   -1.1473    2.6254    3.2005 C   0  0  0  0  0  0  0  0  0  0  0  0
   -0.2288    3.1979    3.3286 H   0  0  0  0  0  0  0  0  0  0  0  0
   -1.9902    3.3169    3.2052 H   0  0  0  0  0  0  0  0  0  0  0  0
   -1.2589    1.9252    4.0290 H   0  0  0  0  0  0  0  0  0  0  0  0
    0.8979   -1.1439    0.3433 C   0  0  0  0  0  0  0  0  0  0  0  0
    1.7726   -0.9186   -0.4918 O   0  0  0  0  0  0  0  0  0  0  0  0
    0.9009   -2.2468    1.1028 N   0  0  0  0  0  0  0  0  0  0  0  0
    0.1574   -2.3580    1.7739 H   0  0  0  0  0  0  0  0  0  0  0  0
    1.9140   -3.2969    1.0174 C   0  0  0  0  0  0  0  0  0  0  0  0
    2.9095   -2.8568    1.1079 H   0  0  0  0  0  0  0  0  0  0  0  0
    1.7707   -4.0272    1.8151 H   0  0  0  0  0  0  0  0  0  0  0  0
    1.8433   -3.7976    0.0499 H   0  0  0  0  0  0  0  0  0  0  0  0
  5  6  2  0  0  0  0
  5  7  1  0  0  0  0
  2  3  1  0  0  0  0
  2  4  1  0  0  0  0
  2  5  1  0  0  0  0
  1  2  1  0  0  0  0
 24 25  2  0  0  0  0
 24 26  1  0  0  0  0
 20 21  1  0  0  0  0
 20 22  1  0  0  0  0
 20 23  1  0  0  0  0
 17 18  1  0  0  0  0
 17 19  1  0  0  0  0
 17 20  1  0  0  0  0
 13 14  1  0  0  0  0
 13 15  1  0  0  0  0
 13 16  1  0  0  0  0
 11 12  1  0  0  0  0
 11 13  1  0  0  0  0
 11 17  1  0  0  0  0
  9 10  1  0  0  0  0
  9 11  1  0  0  0  0
  9 24  1  0  0  0  0
  7  8  1  0  0  0  0
  7  9  1  0  0  0  0
 28 29  1  0  0  0  0
 28 30  1  0  0  0  0
 28 31  1  0  0  0  0
 26 27  1  0  0  0  0
 26 28  1  0  0  0  0
M  END
$$$$
default_name
  -OEChem-01062215323D

 31 30  0     1  0  0  0  0  0999 V2000
   -3.0760   -3.6390    1.5496 H   0  0  0  0  0  0  0  0  0  0  0  0
   -3.0940   -2.6290    1.1426 C   0  0  0  0  0  0  0  0  0  0  0  0
   -3.7160   -1.9930    1.7706 H   0  0  0  0  0  0  0  0  0  0  0  0
   -3.4880   -2.6500    0.1286 H   0  0  0  0  0  0  0  0  0  0  0  0
   -1.6860   -2.0850    1.1196 C   0  0  0  0  0  0  0  0  0  0  0  0
   -0.7540   -2.7700    1.5226 O   0  0  0  0  0  0  0  0  0  0  0  0
   -1.5320   -0.8490    0.6496 N   0  0  0  0  0  0  0  0  0  0  0  0
   -2.3500   -0.3360    0.3566 H   0  0  0  0  0  0  0  0  0  0  0  0
   -0.2470   -0.1410    0.5576 C   0  0  1  0  0  0  0  0  0  0  0  0
   -0.2881    0.5023   -0.3220 H   0  0  0  0  0  0  0  0  0  0  0  0
   -0.0418    0.7641    1.7991 C   0  0  1  0  0  0  0  0  0  0  0  0
   -0.1626    0.1323    2.6811 H   0  0  0  0  0  0  0  0  0  0  0  0
    1.3699    1.3786    1.8524 C   0  0  0  0  0  0  0  0  0  0  0  0
    1.5145    2.0804    1.0290 H   0  0  0  0  0  0  0  0  0  0  0  0
    1.5196    1.9013    2.7957 H   0  0  0  0  0  0  0  0  0  0  0  0
    2.1248    0.5946    1.7829 H   0  0  0  0  0  0  0  0  0  0  0  0
   -1.1254    1.8634    1.8685 C   0  0  0  0  0  0  0  0  0  0  0  0
   -0.9802    2.5807    1.0595 H   0  0  0  0  0  0  0  0  0  0  0  0
   -2.1038    1.3998    1.7430 H   0  0  0  0  0  0  0  0  0  0  0  0
   -1.1473    2.6254    3.2005 C   0  0  0  0  0  0  0  0  0  0  0  0
   -0.2288    3.1979    3.3286 H   0  0  0  0  0  0  0  0  0  0  0  0
   -1.9902    3.3169    3.2052 H   0  0  0  0  0  0  0  0  0  0  0  0
   -1.2589    1.9252    4.0290 H   0  0  0  0  0  0  0  0  0  0  0  0
    0.8979   -1.1439    0.3433 C   0  0  0  0  0  0  0  0  0  0  0  0
    1.9077   -0.8107   -0.2751 O   0  0  0  0  0  0  0  0  0  0  0  0
    0.7484   -2.3694    0.8619 N   0  0  0  0  0  0  0  0  0  0  0  0
   -0.1017   -2.5666    1.3659 H   0  0  0  0  0  0  0  0  0  0  0  0
    1.7403   -3.4361    0.7411 C   0  0  0  0  0  0  0  0  0  0  0  0
    2.7137   -3.0742    1.0795 H   0  0  0  0  0  0  0  0  0  0  0  0
    1.4474   -4.2959    1.3455 H   0  0  0  0  0  0  0  0  0  0  0  0
    1.8277   -3.7398   -0.3038 H   0  0  0  0  0  0  0  0  0  0  0  0
  5  6  2  0  0  0  0
  5  7  1  0  0  0  0
  2  3  1  0  0  0  0
  2  4  1  0  0  0  0
  2  5  1  0  0  0  0
  1  2  1  0  0  0  0
 24 25  2  0  0  0  0
 24 26  1  0  0  0  0
 20 21  1  0  0  0  0
 20 22  1  0  0  0  0
 20 23  1  0  0  0  0
 17 18  1  0  0  0  0
 17 19  1  0  0  0  0
 17 20  1  0  0  0  0
 13 14  1  0  0  0  0
 13 15  1  0  0  0  0
 13 16  1  0  0  0  0
 11 12  1  0  0  0  0
 11 13  1  0  0  0  0
 11 17  1  0  0  0  0
  9 10  1  0  0  0  0
  9 11  1  0  0  0  0
  9 24  1  0  0  0  0
  7  8  1  0  0  0  0
  7  9  1  0  0  0  0
 28 29  1  0  0  0  0
 28 30  1  0  0  0  0
 28 31  1  0  0  0  0
 26 27  1  0  0  0  0
 26 28  1  0  0  0  0
M  END
$$$$
default_name
  -OEChem-01062215323D

 31 30  0     1  0  0  0  0  0999 V2000
   -3.0760   -3.6390    1.5496 H   0  0  0  0  0  0  0  0  0  0  0  0
   -3.0940   -2.6290    1.1426 C   0  0  0  0  0  0  0  0  0  0  0  0
   -3.7160   -1.9930    1.7706 H   0  0  0  0  0  0  0  0  0  0  0  0
   -3.4880   -2.6500    0.1286 H   0  0  0  0  0  0  0  0  0  0  0  0
   -1.6860   -2.0850    1.1196 C   0  0  0  0  0  0  0  0  0  0  0  0
   -0.7540   -2.7700    1.5226 O   0  0  0  0  0  0  0  0  0  0  0  0
   -1.5320   -0.8490    0.6496 N   0  0  0  0  0  0  0  0  0  0  0  0
   -2.3500   -0.3360    0.3566 H   0  0  0  0  0  0  0  0  0  0  0  0
   -0.2470   -0.1410    0.5576 C   0  0  1  0  0  0  0  0  0  0  0  0
   -0.2881    0.5023   -0.3220 H   0  0  0  0  0  0  0  0  0  0  0  0
   -0.0418    0.7641    1.7991 C   0  0  1  0  0  0  0  0  0  0  0  0
   -0.1626    0.1323    2.6811 H   0  0  0  0  0  0  0  0  0  0  0  0
    1.3699    1.3786    1.8524 C   0  0  0  0  0  0  0  0  0  0  0  0
    1.5145    2.0804    1.0290 H   0  0  0  0  0  0  0  0  0  0  0  0
    1.5196    1.9013    2.7957 H   0  0  0  0  0  0  0  0  0  0  0  0
    2.1248    0.5946    1.7829 H   0  0  0  0  0  0  0  0  0  0  0  0
   -1.1254    1.8634    1.8685 C   0  0  0  0  0  0  0  0  0  0  0  0
   -0.9802    2.5807    1.0595 H   0  0  0  0  0  0  0  0  0  0  0  0
   -2.1038    1.3998    1.7430 H   0  0  0  0  0  0  0  0  0  0  0  0
   -1.1473    2.6254    3.2005 C   0  0  0  0  0  0  0  0  0  0  0  0
   -0.2288    3.1979    3.3286 H   0  0  0  0  0  0  0  0  0  0  0  0
   -1.9902    3.3169    3.2052 H   0  0  0  0  0  0  0  0  0  0  0  0
   -1.2589    1.9252    4.0290 H   0  0  0  0  0  0  0  0  0  0  0  0
    0.8979   -1.1439    0.3433 C   0  0  0  0  0  0  0  0  0  0  0  0
    2.0055   -0.7530   -0.0222 O   0  0  0  0  0  0  0  0  0  0  0  0
    0.6373   -2.4360    0.5798 N   0  0  0  0  0  0  0  0  0  0  0  0
   -0.2906   -2.6801    0.8878 H   0  0  0  0  0  0  0  0  0  0  0  0
    1.6142   -3.5111    0.4181 C   0  0  0  0  0  0  0  0  0  0  0  0
    2.5216   -3.2716    0.9770 H   0  0  0  0  0  0  0  0  0  0  0  0
    1.2047   -4.4532    0.7854 H   0  0  0  0  0  0  0  0  0  0  0  0
    1.8745   -3.6152   -0.6370 H   0  0  0  0  0  0  0  0  0  0  0  0
  5  6  2  0  0  0  0
  5  7  1  0  0  0  0
  2  3  1  0  0  0  0
  2  4  1  0  0  0  0
  2  5  1  0  0  0  0
  1  2  1  0  0  0  0
 24 25  2  0  0  0  0
 24 26  1  0  0  0  0
 20 21  1  0  0  0  0
 20 22  1  0  0  0  0
 20 23  1  0  0  0  0
 17 18  1  0  0  0  0
 17 19  1  0  0  0  0
 17 20  1  0  0  0  0
 13 14  1  0  0  0  0
 13 15  1  0  0  0  0
 13 16  1  0  0  0  0
 11 12  1  0  0  0  0
 11 13  1  0  0  0  0
 11 17  1  0  0  0  0
  9 10  1  0  0  0  0
  9 11  1  0  0  0  0
  9 24  1  0  0  0  0
  7  8  1  0  0  0  0
  7  9  1  0  0  0  0
 28 29  1  0  0  0  0
 28 30  1  0  0  0  0
 28 31  1  0  0  0  0
 26 27  1  0  0  0  0
 26 28  1  0  0  0  0
M  END
$$$$
default_name
  -OEChem-01062215323D

 31 30  0     1  0  0  0  0  0999 V2000
   -3.0760   -3.6390    1.5496 H   0  0  0  0  0  0  0  0  0  0  0  0
   -3.0940   -2.6290    1.1426 C   0  0  0  0  0  0  0  0  0  0  0  0
   -3.7160   -1.9930    1.7706 H   0  0  0  0  0  0  0  0  0  0  0  0
   -3.4880   -2.6500    0.1286 H   0  0  0  0  0  0  0  0  0  0  0  0
   -1.6860   -2.0850    1.1196 C   0  0  0  0  0  0  0  0  0  0  0  0
   -0.7540   -2.7700    1.5226 O   0  0  0  0  0  0  0  0  0  0  0  0
   -1.5320   -0.8490    0.6496 N   0  0  0  0  0  0  0  0  0  0  0  0
   -2.3500   -0.3360    0.3566 H   0  0  0  0  0  0  0  0  0  0  0  0
   -0.2470   -0.1410    0.5576 C   0  0  1  0  0  0  0  0  0  0  0  0
   -0.2881    0.5023   -0.3220 H   0  0  0  0  0  0  0  0  0  0  0  0
   -0.0418    0.7641    1.7991 C   0  0  1  0  0  0  0  0  0  0  0  0
   -0.1626    0.1323    2.6811 H   0  0  0  0  0  0  0  0  0  0  0  0
    1.3699    1.3786    1.8524 C   0  0  0  0  0  0  0  0  0  0  0  0
    1.5145    2.0804    1.0290 H   0  0  0  0  0  0  0  0  0  0  0  0
    1.5196    1.9013    2.7957 H   0  0  0  0  0  0  0  0  0  0  0  0
    2.1248    0.5946    1.7829 H   0  0  0  0  0  0  0  0  0  0  0  0
   -1.1254    1.8634    1.8685 C   0  0  0  0  0  0  0  0  0  0  0  0
   -0.9802    2.5807    1.0595 H   0  0  0  0  0  0  0  0  0  0  0  0
   -2.1038    1.3998    1.7430 H   0  0  0  0  0  0  0  0  0  0  0  0
   -1.1473    2.6254    3.2005 C   0  0  0  0  0  0  0  0  0  0  0  0
   -0.2288    3.1979    3.3286 H   0  0  0  0  0  0  0  0  0  0  0  0
   -1.9902    3.3169    3.2052 H   0  0  0  0  0  0  0  0  0  0  0  0
   -1.2589    1.9252    4.0290 H   0  0  0  0  0  0  0  0  0  0  0  0
    0.8979   -1.1439    0.3433 C   0  0  0  0  0  0  0  0  0  0  0  0
    2.0594   -0.7497    0.2497 O   0  0  0  0  0  0  0  0  0  0  0  0
    0.5753   -2.4418    0.2757 N   0  0  0  0  0  0  0  0  0  0  0  0
   -0.3965   -2.6908    0.3721 H   0  0  0  0  0  0  0  0  0  0  0  0
    1.5442   -3.5167    0.0704 C   0  0  0  0  0  0  0  0  0  0  0  0
    2.3461   -3.4357    0.8075 H   0  0  0  0  0  0  0  0  0  0  0  0
    1.0593   -4.4885    0.1731 H   0  0  0  0  0  0  0  0  0  0  0  0
    1.9805   -3.4323   -0.9268 H   0  0  0  0  0  0  0  0  0  0  0  0
  5  6  2  0  0  0  0
  5  7  1  0  0  0  0
  2  3  1  0  0  0  0
  2  4  1  0  0  0  0
  2  5  1  0  0  0  0
  1  2  1  0  0  0  0
 24 25  2  0  0  0  0
 24 26  1  0  0  0  0
 20 21  1  0  0  0  0
 20 22  1  0  0  0  0
 20 23  1  0  0  0  0
 17 18  1  0  0  0  0
 17 19  1  0  0  0  0
 17 20  1  0  0  0  0
 13 14  1  0  0  0  0
 13 15  1  0  0  0  0
 13 16  1  0  0  0  0
 11 12  1  0  0  0  0
 11 13  1  0  0  0  0
 11 17  1  0  0  0  0
  9 10  1  0  0  0  0
  9 11  1  0  0  0  0
  9 24  1  0  0  0  0
  7  8  1  0  0  0  0
  7  9  1  0  0  0  0
 28 29  1  0  0  0  0
 28 30  1  0  0  0  0
 28 31  1  0  0  0  0
 26 27  1  0  0  0  0
 26 28  1  0  0  0  0
M  END
$$$$
default_name
  -OEChem-01062215323D

 31 30  0     1  0  0  0  0  0999 V2000
   -3.0760   -3.6390    1.5496 H   0  0  0  0  0  0  0  0  0  0  0  0
   -3.0940   -2.6290    1.1426 C   0  0  0  0  0  0  0  0  0  0  0  0
   -3.7160   -1.9930    1.7706 H   0  0  0  0  0  0  0  0  0  0  0  0
   -3.4880   -2.6500    0.1286 H   0  0  0  0  0  0  0  0  0  0  0  0
   -1.6860   -2.0850    1.1196 C   0  0  0  0  0  0  0  0  0  0  0  0
   -0.7540   -2.7700    1.5226 O   0  0  0  0  0  0  0  0  0  0  0  0
   -1.5320   -0.8490    0.6496 N   0  0  0  0  0  0  0  0  0  0  0  0
   -2.3500   -0.3360    0.3566 H   0  0  0  0  0  0  0  0  0  0  0  0
   -0.2470   -0.1410    0.5576 C   0  0  1  0  0  0  0  0  0  0  0  0
   -0.2881    0.5023   -0.3220 H   0  0  0  0  0  0  0  0  0  0  0  0
   -0.0418    0.7641    1.7991 C   0  0  1  0  0  0  0  0  0  0  0  0
   -0.1626    0.1323    2.6811 H   0  0  0  0  0  0  0  0  0  0  0  0
    1.3699    1.3786    1.8524 C   0  0  0  0  0  0  0  0  0  0  0  0
    1.5145    2.0804    1.0290 H   0  0  0  0  0  0  0  0  0  0  0  0
    1.5196    1.9013    2.7957 H   0  0  0  0  0  0  0  0  0  0  0  0
    2.1248    0.5946    1.7829 H   0  0  0  0  0  0  0  0  0  0  0  0
   -1.1254    1.8634    1.8685 C   0  0  0  0  0  0  0  0  0  0  0  0
   -0.9802    2.5807    1.0595 H   0  0  0  0  0  0  0  0  0  0  0  0
   -2.1038    1.3998    1.7430 H   0  0  0  0  0  0  0  0  0  0  0  0
   -1.1473    2.6254    3.2005 C   0  0  0  0  0  0  0  0  0  0  0  0
   -0.2288    3.1979    3.3286 H   0  0  0  0  0  0  0  0  0  0  0  0
   -1.9902    3.3169    3.2052 H   0  0  0  0  0  0  0  0  0  0  0  0
   -1.2589    1.9252    4.0290 H   0  0  0  0  0  0  0  0  0  0  0  0
    0.8979   -1.1439    0.3433 C   0  0  0  0  0  0  0  0  0  0  0  0
    2.0656   -0.8008    0.5221 O   0  0  0  0  0  0  0  0  0  0  0  0
    0.5665   -2.3866   -0.0296 N   0  0  0  0  0  0  0  0  0  0  0  0
   -0.4120   -2.5978   -0.1458 H   0  0  0  0  0  0  0  0  0  0  0  0
    1.5352   -3.4525   -0.2784 C   0  0  0  0  0  0  0  0  0  0  0  0
    2.1994   -3.5551    0.5825 H   0  0  0  0  0  0  0  0  0  0  0  0
    1.0209   -4.3993   -0.4496 H   0  0  0  0  0  0  0  0  0  0  0  0
    2.1384   -3.2036   -1.1536 H   0  0  0  0  0  0  0  0  0  0  0  0
  5  6  2  0  0  0  0
  5  7  1  0  0  0  0
  2  3  1  0  0  0  0
  2  4  1  0  0  0  0
  2  5  1  0  0  0  0
  1  2  1  0  0  0  0
 24 25  2  0  0  0  0
 24 26  1  0  0  0  0
 20 21  1  0  0  0  0
 20 22  1  0  0  0  0
 20 23  1  0  0  0  0
 17 18  1  0  0  0  0
 17 19  1  0  0  0  0
 17 20  1  0  0  0  0
 13 14  1  0  0  0  0
 13 15  1  0  0  0  0
 13 16  1  0  0  0  0
 11 12  1  0  0  0  0
 11 13  1  0  0  0  0
 11 17  1  0  0  0  0
  9 10  1  0  0  0  0
  9 11  1  0  0  0  0
  9 24  1  0  0  0  0
  7  8  1  0  0  0  0
  7  9  1  0  0  0  0
 28 29  1  0  0  0  0
 28 30  1  0  0  0  0
 28 31  1  0  0  0  0
 26 27  1  0  0  0  0
 26 28  1  0  0  0  0
M  END
$$$$
default_name
  -OEChem-01062215323D

 31 30  0     1  0  0  0  0  0999 V2000
   -3.0760   -3.6390    1.5496 H   0  0  0  0  0  0  0  0  0  0  0  0
   -3.0940   -2.6290    1.1426 C   0  0  0  0  0  0  0  0  0  0  0  0
   -3.7160   -1.9930    1.7706 H   0  0  0  0  0  0  0  0  0  0  0  0
   -3.4880   -2.6500    0.1286 H   0  0  0  0  0  0  0  0  0  0  0  0
   -1.6860   -2.0850    1.1196 C   0  0  0  0  0  0  0  0  0  0  0  0
   -0.7540   -2.7700    1.5226 O   0  0  0  0  0  0  0  0  0  0  0  0
   -1.5320   -0.8490    0.6496 N   0  0  0  0  0  0  0  0  0  0  0  0
   -2.3500   -0.3360    0.3566 H   0  0  0  0  0  0  0  0  0  0  0  0
   -0.2470   -0.1410    0.5576 C   0  0  1  0  0  0  0  0  0  0  0  0
   -0.2881    0.5023   -0.3220 H   0  0  0  0  0  0  0  0  0  0  0  0
   -0.0418    0.7641    1.7991 C   0  0  1  0  0  0  0  0  0  0  0  0
   -0.1626    0.1323    2.6811 H   0  0  0  0  0  0  0  0  0  0  0  0
    1.3699    1.3786    1.8524 C   0  0  0  0  0  0  0  0  0  0  0  0
    1.5145    2.0804    1.0290 H   0  0  0  0  0  0  0  0  0  0  0  0
    1.5196    1.9013    2.7957 H   0  0  0  0  0  0  0  0  0  0  0  0
    2.1248    0.5946    1.7829 H   0  0  0  0  0  0  0  0  0  0  0  0
   -1.1254    1.8634    1.8685 C   0  0  0  0  0  0  0  0  0  0  0  0
   -0.9802    2.5807    1.0595 H   0  0  0  0  0  0  0  0  0  0  0  0
   -2.1038    1.3998    1.7430 H   0  0  0  0  0  0  0  0  0  0  0  0
   -1.1473    2.6254    3.2005 C   0  0  0  0  0  0  0  0  0  0  0  0
   -0.2288    3.1979    3.3286 H   0  0  0  0  0  0  0  0  0  0  0  0
   -1.9902    3.3169    3.2052 H   0  0  0  0  0  0  0  0  0  0  0  0
   -1.2589    1.9252    4.0290 H   0  0  0  0  0  0  0  0  0  0  0  0
    0.8979   -1.1439    0.3433 C   0  0  0  0  0  0  0  0  0  0  0  0
    2.0238   -0.9029    0.7764 O   0  0  0  0  0  0  0  0  0  0  0  0
    0.6116   -2.2741   -0.3154 N   0  0  0  0  0  0  0  0  0  0  0  0
   -0.3362   -2.4076   -0.6309 H   0  0  0  0  0  0  0  0  0  0  0  0
    1.5876   -3.3229   -0.6045 C   0  0  0  0  0  0  0  0  0  0  0  0
    2.0913   -3.6218    0.3174 H   0  0  0  0  0  0  0  0  0  0  0  0
    1.0922   -4.1916   -1.0405 H   0  0  0  0  0  0  0  0  0  0  0  0
    2.3374   -2.9447   -1.3020 H   0  0  0  0  0  0  0  0  0  0  0  0
  5  6  2  0  0  0  0
  5  7  1  0  0  0  0
  2  3  1  0  0  0  0
  2  4  1  0  0  0  0
  2  5  1  0  0  0  0
  1  2  1  0  0  0  0
 24 25  2  0  0  0  0
 24 26  1  0  0  0  0
 20 21  1  0  0  0  0
 20 22  1  0  0  0  0
 20 23  1  0  0  0  0
 17 18  1  0  0  0  0
 17 19  1  0  0  0  0
 17 20  1  0  0  0  0
 13 14  1  0  0  0  0
 13 15  1  0  0  0  0
 13 16  1  0  0  0  0
 11 12  1  0  0  0  0
 11 13  1  0  0  0  0
 11 17  1  0  0  0  0
  9 10  1  0  0  0  0
  9 11  1  0  0  0  0
  9 24  1  0  0  0  0
  7  8  1  0  0  0  0
  7  9  1  0  0  0  0
 28 29  1  0  0  0  0
 28 30  1  0  0  0  0
 28 31  1  0  0  0  0
 26 27  1  0  0  0  0
 26 28  1  0  0  0  0
M  END
$$$$
default_name
  -OEChem-01062215323D

 31 30  0     1  0  0  0  0  0999 V2000
   -3.0760   -3.6390    1.5496 H   0  0  0  0  0  0  0  0  0  0  0  0
   -3.0940   -2.6290    1.1426 C   0  0  0  0  0  0  0  0  0  0  0  0
   -3.7160   -1.9930    1.7706 H   0  0  0  0  0  0  0  0  0  0  0  0
   -3.4880   -2.6500    0.1286 H   0  0  0  0  0  0  0  0  0  0  0  0
   -1.6860   -2.0850    1.1196 C   0  0  0  0  0  0  0  0  0  0  0  0
   -0.7540   -2.7700    1.5226 O   0  0  0  0  0  0  0  0  0  0  0  0
   -1.5320   -0.8490    0.6496 N   0  0  0  0  0  0  0  0  0  0  0  0
   -2.3500   -0.3360    0.3566 H   0  0  0  0  0  0  0  0  0  0  0  0
   -0.2470   -0.1410    0.5576 C   0  0  1  0  0  0  0  0  0  0  0  0
   -0.2881    0.5023   -0.3220 H   0  0  0  0  0  0  0  0  0  0  0  0
   -0.0418    0.7641    1.7991 C   0  0  1  0  0  0  0  0  0  0  0  0
   -0.1626    0.1323    2.6811 H   0  0  0  0  0  0  0  0  0  0  0  0
    1.3699    1.3786    1.8524 C   0  0  0  0  0  0  0  0  0  0  0  0
    1.5145    2.0804    1.0290 H   0  0  0  0  0  0  0  0  0  0  0  0
    1.5196    1.9013    2.7957 H   0  0  0  0  0  0  0  0  0  0  0  0
    2.1248    0.5946    1.7829 H   0  0  0  0  0  0  0  0  0  0  0  0
   -1.1254    1.8634    1.8685 C   0  0  0  0  0  0  0  0  0  0  0  0
   -0.9802    2.5807    1.0595 H   0  0  0  0  0  0  0  0  0  0  0  0
   -2.1038    1.3998    1.7430 H   0  0  0  0  0  0  0  0  0  0  0  0
   -1.1473    2.6254    3.2005 C   0  0  0  0  0  0  0  0  0  0  0  0
   -0.2288    3.1979    3.3286 H   0  0  0  0  0  0  0  0  0  0  0  0
   -1.9902    3.3169    3.2052 H   0  0  0  0  0  0  0  0  0  0  0  0
   -1.2589    1.9252    4.0290 H   0  0  0  0  0  0  0  0  0  0  0  0
    0.8979   -1.1439    0.3433 C   0  0  0  0  0  0  0  0  0  0  0  0
    1.9367   -1.0490    0.9953 O   0  0  0  0  0  0  0  0  0  0  0  0
    0.7074   -2.1120   -0.5621 N   0  0  0  0  0  0  0  0  0  0  0  0
   -0.1742   -2.1332   -1.0499 H   0  0  0  0  0  0  0  0  0  0  0  0
    1.6981   -3.1368   -0.8856 C   0  0  0  0  0  0  0  0  0  0  0  0
    2.0293   -3.6313    0.0302 H   0  0  0  0  0  0  0  0  0  0  0  0
    1.2683   -3.8797   -1.5591 H   0  0  0  0  0  0  0  0  0  0  0  0
    2.5641   -2.6731   -1.3617 H   0  0  0  0  0  0  0  0  0  0  0  0
  5  6  2  0  0  0  0
  5  7  1  0  0  0  0
  2  3  1  0  0  0  0
  2  4  1  0  0  0  0
  2  5  1  0  0  0  0
  1  2  1  0  0  0  0
 24 25  2  0  0  0  0
 24 26  1  0  0  0  0
 20 21  1  0  0  0  0
 20 22  1  0  0  0  0
 20 23  1  0  0  0  0
 17 18  1  0  0  0  0
 17 19  1  0  0  0  0
 17 20  1  0  0  0  0
 13 14  1  0  0  0  0
 13 15  1  0  0  0  0
 13 16  1  0  0  0  0
 11 12  1  0  0  0  0
 11 13  1  0  0  0  0
 11 17  1  0  0  0  0
  9 10  1  0  0  0  0
  9 11  1  0  0  0  0
  9 24  1  0  0  0  0
  7  8  1  0  0  0  0
  7  9  1  0  0  0  0
 28 29  1  0  0  0  0
 28 30  1  0  0  0  0
 28 31  1  0  0  0  0
 26 27  1  0  0  0  0
 26 28  1  0  0  0  0
M  END
$$$$
default_name
  -OEChem-01062215323D

 31 30  0     1  0  0  0  0  0999 V2000
   -3.0760   -3.6390    1.5496 H   0  0  0  0  0  0  0  0  0  0  0  0
   -3.0940   -2.6290    1.1426 C   0  0  0  0  0  0  0  0  0  0  0  0
   -3.7160   -1.9930    1.7706 H   0  0  0  0  0  0  0  0  0  0  0  0
   -3.4880   -2.6500    0.1286 H   0  0  0  0  0  0  0  0  0  0  0  0
   -1.6860   -2.0850    1.1196 C   0  0  0  0  0  0  0  0  0  0  0  0
   -0.7540   -2.7700    1.5226 O   0  0  0  0  0  0  0  0  0  0  0  0
   -1.5320   -0.8490    0.6496 N   0  0  0  0  0  0  0  0  0  0  0  0
   -2.3500   -0.3360    0.3566 H   0  0  0  0  0  0  0  0  0  0  0  0
   -0.2470   -0.1410    0.5576 C   0  0  1  0  0  0  0  0  0  0  0  0
   -0.2881    0.5023   -0.3220 H   0  0  0  0  0  0  0  0  0  0  0  0
   -0.0418    0.7641    1.7991 C   0  0  1  0  0  0  0  0  0  0  0  0
   -0.1626    0.1323    2.6811 H   0  0  0  0  0  0  0  0  0  0  0  0
    1.3699    1.3786    1.8524 C   0  0  0  0  0  0  0  0  0  0  0  0
    1.5145    2.0804    1.0290 H   0  0  0  0  0  0  0  0  0  0  0  0
    1.5196    1.9013    2.7957 H   0  0  0  0  0  0  0  0  0  0  0  0
    2.1248    0.5946    1.7829 H   0  0  0  0  0  0  0  0  0  0  0  0
   -1.1254    1.8634    1.8685 C   0  0  0  0  0  0  0  0  0  0  0  0
   -0.9802    2.5807    1.0595 H   0  0  0  0  0  0  0  0  0  0  0  0
   -2.1038    1.3998    1.7430 H   0  0  0  0  0  0  0  0  0  0  0  0
   -1.1473    2.6254    3.2005 C   0  0  0  0  0  0  0  0  0  0  0  0
   -0.2288    3.1979    3.3286 H   0  0  0  0  0  0  0  0  0  0  0  0
   -1.9902    3.3169    3.2052 H   0  0  0  0  0  0  0  0  0  0  0  0
   -1.2589    1.9252    4.0290 H   0  0  0  0  0  0  0  0  0  0  0  0
    0.8979   -1.1439    0.3433 C   0  0  0  0  0  0  0  0  0  0  0  0
    1.8104   -1.2292    1.1639 O   0  0  0  0  0  0  0  0  0  0  0  0
    0.8475   -1.9113   -0.7529 N   0  0  0  0  0  0  0  0  0  0  0  0
    0.0630   -1.7931   -1.3744 H   0  0  0  0  0  0  0  0  0  0  0  0
    1.8589   -2.9068   -1.1026 C   0  0  0  0  0  0  0  0  0  0  0  0
    2.0176   -3.5828   -0.2595 H   0  0  0  0  0  0  0  0  0  0  0  0
    1.5373   -3.4848   -1.9702 H   0  0  0  0  0  0  0  0  0  0  0  0
    2.8030   -2.4075   -1.3288 H   0  0  0  0  0  0  0  0  0  0  0  0
  5  6  2  0  0  0  0
  5  7  1  0  0  0  0
  2  3  1  0  0  0  0
  2  4  1  0  0  0  0
  2  5  1  0  0  0  0
  1  2  1  0  0  0  0
 24 25  2  0  0  0  0
 24 26  1  0  0  0  0
 20 21  1  0  0  0  0
 20 22  1  0  0  0  0
 20 23  1  0  0  0  0
 17 18  1  0  0  0  0
 17 19  1  0  0  0  0
 17 20  1  0  0  0  0
 13 14  1  0  0  0  0
 13 15  1  0  0  0  0
 13 16  1  0  0  0  0
 11 12  1  0  0  0  0
 11 13  1  0  0  0  0
 11 17  1  0  0  0  0
  9 10  1  0  0  0  0
  9 11  1  0  0  0  0
  9 24  1  0  0  0  0
  7  8  1  0  0  0  0
  7  9  1  0  0  0  0
 28 29  1  0  0  0  0
 28 30  1  0  0  0  0
 28 31  1  0  0  0  0
 26 27  1  0  0  0  0
 26 28  1  0  0  0  0
M  END
$$$$
default_name
  -OEChem-01062215323D

 31 30  0     1  0  0  0  0  0999 V2000
   -3.0760   -3.6390    1.5496 H   0  0  0  0  0  0  0  0  0  0  0  0
   -3.0940   -2.6290    1.1426 C   0  0  0  0  0  0  0  0  0  0  0  0
   -3.7160   -1.9930    1.7706 H   0  0  0  0  0  0  0  0  0  0  0  0
   -3.4880   -2.6500    0.1286 H   0  0  0  0  0  0  0  0  0  0  0  0
   -1.6860   -2.0850    1.1196 C   0  0  0  0  0  0  0  0  0  0  0  0
   -0.7540   -2.7700    1.5226 O   0  0  0  0  0  0  0  0  0  0  0  0
   -1.5320   -0.8490    0.6496 N   0  0  0  0  0  0  0  0  0  0  0  0
   -2.3500   -0.3360    0.3566 H   0  0  0  0  0  0  0  0  0  0  0  0
   -0.2470   -0.1410    0.5576 C   0  0  1  0  0  0  0  0  0  0  0  0
   -0.2881    0.5023   -0.3220 H   0  0  0  0  0  0  0  0  0  0  0  0
   -0.0418    0.7641    1.7991 C   0  0  1  0  0  0  0  0  0  0  0  0
   -0.1626    0.1323    2.6811 H   0  0  0  0  0  0  0  0  0  0  0  0
    1.3699    1.3786    1.8524 C   0  0  0  0  0  0  0  0  0  0  0  0
    1.5145    2.0804    1.0290 H   0  0  0  0  0  0  0  0  0  0  0  0
    1.5196    1.9013    2.7957 H   0  0  0  0  0  0  0  0  0  0  0  0
    2.1248    0.5946    1.7829 H   0  0  0  0  0  0  0  0  0  0  0  0
   -1.1254    1.8634    1.8685 C   0  0  0  0  0  0  0  0  0  0  0  0
   -0.9802    2.5807    1.0595 H   0  0  0  0  0  0  0  0  0  0  0  0
   -2.1038    1.3998    1.7430 H   0  0  0  0  0  0  0  0  0  0  0  0
   -1.1473    2.6254    3.2005 C   0  0  0  0  0  0  0  0  0  0  0  0
   -0.2288    3.1979    3.3286 H   0  0  0  0  0  0  0  0  0  0  0  0
   -1.9902    3.3169    3.2052 H   0  0  0  0  0  0  0  0  0  0  0  0
   -1.2589    1.9252    4.0290 H   0  0  0  0  0  0  0  0  0  0  0  0
    0.8979   -1.1439    0.3433 C   0  0  0  0  0  0  0  0  0  0  0  0
    1.6534   -1.4312    1.2706 O   0  0  0  0  0  0  0  0  0  0  0  0
    1.0223   -1.6857   -0.8749 N   0  0  0  0  0  0  0  0  0  0  0  0
    0.3591   -1.4106   -1.5822 H   0  0  0  0  0  0  0  0  0  0  0  0
    2.0592   -2.6487   -1.2407 C   0  0  0  0  0  0  0  0  0  0  0  0
    2.0569   -3.4797   -0.5319 H   0  0  0  0  0  0  0  0  0  0  0  0
    1.8808   -3.0339   -2.2457 H   0  0  0  0  0  0  0  0  0  0  0  0
    3.0377   -2.1659   -1.2055 H   0  0  0  0  0  0  0  0  0  0  0  0
  5  6  2  0  0  0  0
  5  7  1  0  0  0  0
  2  3  1  0  0  0  0
  2  4  1  0  0  0  0
  2  5  1  0  0  0  0
  1  2  1  0  0  0  0
 24 25  2  0  0  0  0
 24 26  1  0  0  0  0
 20 21  1  0  0  0  0
 20 22  1  0  0  0  0
 20 23  1  0  0  0  0
 17 18  1  0  0  0  0
 17 19  1  0  0  0  0
 17 20  1  0  0  0  0
 13 14  1  0  0  0  0
 13 15  1  0  0  0  0
 13 16  1  0  0  0  0
 11 12  1  0  0  0  0
 11 13  1  0  0  0  0
 11 17  1  0  0  0  0
  9 10  1  0  0  0  0
  9 11  1  0  0  0  0
  9 24  1  0  0  0  0
  7  8  1  0  0  0  0
  7  9  1  0  0  0  0
 28 29  1  0  0  0  0
 28 30  1  0  0  0  0
 28 31  1  0  0  0  0
 26 27  1  0  0  0  0
 26 28  1  0  0  0  0
M  END
$$$$
default_name
  -OEChem-01062215323D

 31 30  0     1  0  0  0  0  0999 V2000
   -3.0760   -3.6390    1.5496 H   0  0  0  0  0  0  0  0  0  0  0  0
   -3.0940   -2.6290    1.1426 C   0  0  0  0  0  0  0  0  0  0  0  0
   -3.7160   -1.9930    1.7706 H   0  0  0  0  0  0  0  0  0  0  0  0
   -3.4880   -2.6500    0.1286 H   0  0  0  0  0  0  0  0  0  0  0  0
   -1.6860   -2.0850    1.1196 C   0  0  0  0  0  0  0  0  0  0  0  0
   -0.7540   -2.7700    1.5226 O   0  0  0  0  0  0  0  0  0  0  0  0
   -1.5320   -0.8490    0.6496 N   0  0  0  0  0  0  0  0  0  0  0  0
   -2.3500   -0.3360    0.3566 H   0  0  0  0  0  0  0  0  0  0  0  0
   -0.2470   -0.1410    0.5576 C   0  0  1  0  0  0  0  0  0  0  0  0
   -0.2881    0.5023   -0.3220 H   0  0  0  0  0  0  0  0  0  0  0  0
   -0.0418    0.7641    1.7991 C   0  0  1  0  0  0  0  0  0  0  0  0
   -0.1626    0.1323    2.6811 H   0  0  0  0  0  0  0  0  0  0  0  0
    1.3699    1.3786    1.8524 C   0  0  0  0  0  0  0  0  0  0  0  0
    1.5145    2.0804    1.0290 H   0  0  0  0  0  0  0  0  0  0  0  0
    1.5196    1.9013    2.7957 H   0  0  0  0  0  0  0  0  0  0  0  0
    2.1248    0.5946    1.7829 H   0  0  0  0  0  0  0  0  0  0  0  0
   -1.1254    1.8634    1.8685 C   0  0  0  0  0  0  0  0  0  0  0  0
   -0.9802    2.5807    1.0595 H   0  0  0  0  0  0  0  0  0  0  0  0
   -2.1038    1.3998    1.7430 H   0  0  0  0  0  0  0  0  0  0  0  0
   -1.1473    2.6254    3.2005 C   0  0  0  0  0  0  0  0  0  0  0  0
   -0.2288    3.1979    3.3286 H   0  0  0  0  0  0  0  0  0  0  0  0
   -1.9902    3.3169    3.2052 H   0  0  0  0  0  0  0  0  0  0  0  0
   -1.2589    1.9252    4.0290 H   0  0  0  0  0  0  0  0  0  0  0  0
    0.8979   -1.1439    0.3433 C   0  0  0  0  0  0  0  0  0  0  0  0
    1.4765   -1.6413    1.3083 O   0  0  0  0  0  0  0  0  0  0  0  0
    1.2199   -1.4505   -0.9198 N   0  0  0  0  0  0  0  0  0  0  0  0
    0.6941   -1.0118   -1.6592 H   0  0  0  0  0  0  0  0  0  0  0  0
    2.2853   -2.3799   -1.2906 C   0  0  0  0  0  0  0  0  0  0  0  0
    2.1446   -3.3290   -0.7686 H   0  0  0  0  0  0  0  0  0  0  0  0
    2.2754   -2.5575   -2.3669 H   0  0  0  0  0  0  0  0  0  0  0  0
    3.2523   -1.9648   -1.0001 H   0  0  0  0  0  0  0  0  0  0  0  0
  5  6  2  0  0  0  0
  5  7  1  0  0  0  0
  2  3  1  0  0  0  0
  2  4  1  0  0  0  0
  2  5  1  0  0  0  0
  1  2  1  0  0  0  0
 24 25  2  0  0  0  0
 24 26  1  0  0  0  0
 20 21  1  0  0  0  0
 20 22  1  0  0  0  0
 20 23  1  0  0  0  0
 17 18  1  0  0  0  0
 17 19  1  0  0  0  0
 17 20  1  0  0  0  0
 13 14  1  0  0  0  0
 13 15  1  0  0  0  0
 13 16  1  0  0  0  0
 11 12  1  0  0  0  0
 11 13  1  0  0  0  0
 11 17  1  0  0  0  0
  9 10  1  0  0  0  0
  9 11  1  0  0  0  0
  9 24  1  0  0  0  0
  7  8  1  0  0  0  0
  7  9  1  0  0  0  0
 28 29  1  0  0  0  0
 28 30  1  0  0  0  0
 28 31  1  0  0  0  0
 26 27  1  0  0  0  0
 26 28  1  0  0  0  0
M  END
$$$$
default_name
  -OEChem-01062215323D

 31 30  0     1  0  0  0  0  0999 V2000
   -3.0760   -3.6390    1.5496 H   0  0  0  0  0  0  0  0  0  0  0  0
   -3.0940   -2.6290    1.1426 C   0  0  0  0  0  0  0  0  0  0  0  0
   -3.7160   -1.9930    1.7706 H   0  0  0  0  0  0  0  0  0  0  0  0
   -3.4880   -2.6500    0.1286 H   0  0  0  0  0  0  0  0  0  0  0  0
   -1.6860   -2.0850    1.1196 C   0  0  0  0  0  0  0  0  0  0  0  0
   -0.7540   -2.7700    1.5226 O   0  0  0  0  0  0  0  0  0  0  0  0
   -1.5320   -0.8490    0.6496 N   0  0  0  0  0  0  0  0  0  0  0  0
   -2.3500   -0.3360    0.3566 H   0  0  0  0  0  0  0  0  0  0  0  0
   -0.2470   -0.1410    0.5576 C   0  0  1  0  0  0  0  0  0  0  0  0
   -0.2881    0.5023   -0.3220 H   0  0  0  0  0  0  0  0  0  0  0  0
   -0.0418    0.7641    1.7991 C   0  0  1  0  0  0  0  0  0  0  0  0
   -0.1626    0.1323    2.6811 H   0  0  0  0  0  0  0  0  0  0  0  0
    1.3699    1.3786    1.8524 C   0  0  0  0  0  0  0  0  0  0  0  0
    1.5145    2.0804    1.0290 H   0  0  0  0  0  0  0  0  0  0  0  0
    1.5196    1.9013    2.7957 H   0  0  0  0  0  0  0  0  0  0  0  0
    2.1248    0.5946    1.7829 H   0  0  0  0  0  0  0  0  0  0  0  0
   -1.1254    1.8634    1.8685 C   0  0  0  0  0  0  0  0  0  0  0  0
   -0.9802    2.5807    1.0595 H   0  0  0  0  0  0  0  0  0  0  0  0
   -2.1038    1.3998    1.7430 H   0  0  0  0  0  0  0  0  0  0  0  0
   -1.1473    2.6254    3.2005 C   0  0  0  0  0  0  0  0  0  0  0  0
   -0.2288    3.1979    3.3286 H   0  0  0  0  0  0  0  0  0  0  0  0
   -1.9902    3.3169    3.2052 H   0  0  0  0  0  0  0  0  0  0  0  0
   -1.2589    1.9252    4.0290 H   0  0  0  0  0  0  0  0  0  0  0  0
    0.8979   -1.1439    0.3433 C   0  0  0  0  0  0  0  0  0  0  0  0
    1.2916   -1.8451    1.2743 O   0  0  0  0  0  0  0  0  0  0  0  0
    1.4268   -1.2219   -0.8844 N   0  0  0  0  0  0  0  0  0  0  0  0
    1.0450   -0.6238   -1.6001 H   0  0  0  0  0  0  0  0  0  0  0  0
    2.5219   -2.1188   -1.2487 C   0  0  0  0  0  0  0  0  0  0  0  0
    2.2748   -3.1409   -0.9533 H   0  0  0  0  0  0  0  0  0  0  0  0
    2.6942   -2.0883   -2.3255 H   0  0  0  0  0  0  0  0  0  0  0  0
    3.4322   -1.8178   -0.7267 H   0  0  0  0  0  0  0  0  0  0  0  0
  5  6  2  0  0  0  0
  5  7  1  0  0  0  0
  2  3  1  0  0  0  0
  2  4  1  0  0  0  0
  2  5  1  0  0  0  0
  1  2  1  0  0  0  0
 24 25  2  0  0  0  0
 24 26  1  0  0  0  0
 20 21  1  0  0  0  0
 20 22  1  0  0  0  0
 20 23  1  0  0  0  0
 17 18  1  0  0  0  0
 17 19  1  0  0  0  0
 17 20  1  0  0  0  0
 13 14  1  0  0  0  0
 13 15  1  0  0  0  0
 13 16  1  0  0  0  0
 11 12  1  0  0  0  0
 11 13  1  0  0  0  0
 11 17  1  0  0  0  0
  9 10  1  0  0  0  0
  9 11  1  0  0  0  0
  9 24  1  0  0  0  0
  7  8  1  0  0  0  0
  7  9  1  0  0  0  0
 28 29  1  0  0  0  0
 28 30  1  0  0  0  0
 28 31  1  0  0  0  0
 26 27  1  0  0  0  0
 26 28  1  0  0  0  0
M  END
$$$$
default_name
  -OEChem-01062215323D

 31 30  0     1  0  0  0  0  0999 V2000
   -3.0760   -3.6390    1.5496 H   0  0  0  0  0  0  0  0  0  0  0  0
   -3.0940   -2.6290    1.1426 C   0  0  0  0  0  0  0  0  0  0  0  0
   -3.7160   -1.9930    1.7706 H   0  0  0  0  0  0  0  0  0  0  0  0
   -3.4880   -2.6500    0.1286 H   0  0  0  0  0  0  0  0  0  0  0  0
   -1.6860   -2.0850    1.1196 C   0  0  0  0  0  0  0  0  0  0  0  0
   -0.7540   -2.7700    1.5226 O   0  0  0  0  0  0  0  0  0  0  0  0
   -1.5320   -0.8490    0.6496 N   0  0  0  0  0  0  0  0  0  0  0  0
   -2.3500   -0.3360    0.3566 H   0  0  0  0  0  0  0  0  0  0  0  0
   -0.2470   -0.1410    0.5576 C   0  0  1  0  0  0  0  0  0  0  0  0
   -0.2881    0.5023   -0.3220 H   0  0  0  0  0  0  0  0  0  0  0  0
   -0.0418    0.7641    1.7991 C   0  0  1  0  0  0  0  0  0  0  0  0
   -0.1626    0.1323    2.6811 H   0  0  0  0  0  0  0  0  0  0  0  0
    1.3699    1.3786    1.8524 C   0  0  0  0  0  0  0  0  0  0  0  0
    1.5145    2.0804    1.0290 H   0  0  0  0  0  0  0  0  0  0  0  0
    1.5196    1.9013    2.7957 H   0  0  0  0  0  0  0  0  0  0  0  0
    2.1248    0.5946    1.7829 H   0  0  0  0  0  0  0  0  0  0  0  0
   -1.1254    1.8634    1.8685 C   0  0  0  0  0  0  0  0  0  0  0  0
   -0.9802    2.5807    1.0595 H   0  0  0  0  0  0  0  0  0  0  0  0
   -2.1038    1.3998    1.7430 H   0  0  0  0  0  0  0  0  0  0  0  0
   -1.1473    2.6254    3.2005 C   0  0  0  0  0  0  0  0  0  0  0  0
   -0.2288    3.1979    3.3286 H   0  0  0  0  0  0  0  0  0  0  0  0
   -1.9902    3.3169    3.2052 H   0  0  0  0  0  0  0  0  0  0  0  0
   -1.2589    1.9252    4.0290 H   0  0  0  0  0  0  0  0  0  0  0  0
    0.8979   -1.1439    0.3433 C   0  0  0  0  0  0  0  0  0  0  0  0
    1.1114   -2.0287    1.1709 O   0  0  0  0  0  0  0  0  0  0  0  0
    1.6290   -1.0153   -0.7712 N   0  0  0  0  0  0  0  0  0  0  0  0
    1.3880   -0.2731   -1.4089 H   0  0  0  0  0  0  0  0  0  0  0  0
    2.7527   -1.8833   -1.1179 C   0  0  0  0  0  0  0  0  0  0  0  0
    2.4385   -2.9284   -1.0735 H   0  0  0  0  0  0  0  0  0  0  0  0
    3.1086   -1.6581   -2.1243 H   0  0  0  0  0  0  0  0  0  0  0  0
    3.5651   -1.7351   -0.4039 H   0  0  0  0  0  0  0  0  0  0  0  0
  5  6  2  0  0  0  0
  5  7  1  0  0  0  0
  2  3  1  0  0  0  0
  2  4  1  0  0  0  0
  2  5  1  0  0  0  0
  1  2  1  0  0  0  0
 24 25  2  0  0  0  0
 24 26  1  0  0  0  0
 20 21  1  0  0  0  0
 20 22  1  0  0  0  0
 20 23  1  0  0  0  0
 17 18  1  0  0  0  0
 17 19  1  0  0  0  0
 17 20  1  0  0  0  0
 13 14  1  0  0  0  0
 13 15  1  0  0  0  0
 13 16  1  0  0  0  0
 11 12  1  0  0  0  0
 11 13  1  0  0  0  0
 11 17  1  0  0  0  0
  9 10  1  0  0  0  0
  9 11  1  0  0  0  0
  9 24  1  0  0  0  0
  7  8  1  0  0  0  0
  7  9  1  0  0  0  0
 28 29  1  0  0  0  0
 28 30  1  0  0  0  0
 28 31  1  0  0  0  0
 26 27  1  0  0  0  0
 26 28  1  0  0  0  0
M  END
$$$$
default_name
  -OEChem-01062215323D

 31 30  0     1  0  0  0  0  0999 V2000
   -3.0760   -3.6390    1.5496 H   0  0  0  0  0  0  0  0  0  0  0  0
   -3.0940   -2.6290    1.1426 C   0  0  0  0  0  0  0  0  0  0  0  0
   -3.7160   -1.9930    1.7706 H   0  0  0  0  0  0  0  0  0  0  0  0
   -3.4880   -2.6500    0.1286 H   0  0  0  0  0  0  0  0  0  0  0  0
   -1.6860   -2.0850    1.1196 C   0  0  0  0  0  0  0  0  0  0  0  0
   -0.7540   -2.7700    1.5226 O   0  0  0  0  0  0  0  0  0  0  0  0
   -1.5320   -0.8490    0.6496 N   0  0  0  0  0  0  0  0  0  0  0  0
   -2.3500   -0.3360    0.3566 H   0  0  0  0  0  0  0  0  0  0  0  0
   -0.2470   -0.1410    0.5576 C   0  0  1  0  0  0  0  0  0  0  0  0
   -0.2881    0.5023   -0.3220 H   0  0  0  0  0  0  0  0  0  0  0  0
   -0.0418    0.7641    1.7991 C   0  0  1  0  0  0  0  0  0  0  0  0
   -0.1626    0.1323    2.6811 H   0  0  0  0  0  0  0  0  0  0  0  0
    1.3699    1.3786    1.8524 C   0  0  0  0  0  0  0  0  0  0  0  0
    1.5145    2.0804    1.0290 H   0  0  0  0  0  0  0  0  0  0  0  0
    1.5196    1.9013    2.7957 H   0  0  0  0  0  0  0  0  0  0  0  0
    2.1248    0.5946    1.7829 H   0  0  0  0  0  0  0  0  0  0  0  0
   -1.1254    1.8634    1.8685 C   0  0  0  0  0  0  0  0  0  0  0  0
   -0.9802    2.5807    1.0595 H   0  0  0  0  0  0  0  0  0  0  0  0
   -2.1038    1.3998    1.7430 H   0  0  0  0  0  0  0  0  0  0  0  0
   -1.1473    2.6254    3.2005 C   0  0  0  0  0  0  0  0  0  0  0  0
   -0.2288    3.1979    3.3286 H   0  0  0  0  0  0  0  0  0  0  0  0
   -1.9902    3.3169    3.2052 H   0  0  0  0  0  0  0  0  0  0  0  0
   -1.2589    1.9252    4.0290 H   0  0  0  0  0  0  0  0  0  0  0  0
    0.8979   -1.1439    0.3433 C   0  0  0  0  0  0  0  0  0  0  0  0
    0.9482   -2.1796    1.0053 O   0  0  0  0  0  0  0  0  0  0  0  0
    1.8125   -0.8449   -0.5879 N   0  0  0  0  0  0  0  0  0  0  0  0
    1.6997    0.0164   -1.0988 H   0  0  0  0  0  0  0  0  0  0  0  0
    2.9621   -1.6893   -0.9073 C   0  0  0  0  0  0  0  0  0  0  0  0
    2.6246   -2.7058   -1.1210 H   0  0  0  0  0  0  0  0  0  0  0  0
    3.4905   -1.2964   -1.7771 H   0  0  0  0  0  0  0  0  0  0  0  0
    3.6420   -1.7222   -0.0538 H   0  0  0  0  0  0  0  0  0  0  0  0
  5  6  2  0  0  0  0
  5  7  1  0  0  0  0
  2  3  1  0  0  0  0
  2  4  1  0  0  0  0
  2  5  1  0  0  0  0
  1  2  1  0  0  0  0
 24 25  2  0  0  0  0
 24 26  1  0  0  0  0
 20 21  1  0  0  0  0
 20 22  1  0  0  0  0
 20 23  1  0  0  0  0
 17 18  1  0  0  0  0
 17 19  1  0  0  0  0
 17 20  1  0  0  0  0
 13 14  1  0  0  0  0
 13 15  1  0  0  0  0
 13 16  1  0  0  0  0
 11 12  1  0  0  0  0
 11 13  1  0  0  0  0
 11 17  1  0  0  0  0
  9 10  1  0  0  0  0
  9 11  1  0  0  0  0
  9 24  1  0  0  0  0
  7  8  1  0  0  0  0
  7  9  1  0  0  0  0
 28 29  1  0  0  0  0
 28 30  1  0  0  0  0
 28 31  1  0  0  0  0
 26 27  1  0  0  0  0
 26 28  1  0  0  0  0
M  END
$$$$
default_name
  -OEChem-01062215323D

 31 30  0     1  0  0  0  0  0999 V2000
   -3.0760   -3.6390    1.5496 H   0  0  0  0  0  0  0  0  0  0  0  0
   -3.0940   -2.6290    1.1426 C   0  0  0  0  0  0  0  0  0  0  0  0
   -3.7160   -1.9930    1.7706 H   0  0  0  0  0  0  0  0  0  0  0  0
   -3.4880   -2.6500    0.1286 H   0  0  0  0  0  0  0  0  0  0  0  0
   -1.6860   -2.0850    1.1196 C   0  0  0  0  0  0  0  0  0  0  0  0
   -0.7540   -2.7700    1.5226 O   0  0  0  0  0  0  0  0  0  0  0  0
   -1.5320   -0.8490    0.6496 N   0  0  0  0  0  0  0  0  0  0  0  0
   -2.3500   -0.3360    0.3566 H   0  0  0  0  0  0  0  0  0  0  0  0
   -0.2470   -0.1410    0.5576 C   0  0  1  0  0  0  0  0  0  0  0  0
   -0.2881    0.5023   -0.3220 H   0  0  0  0  0  0  0  0  0  0  0  0
   -0.0418    0.7641    1.7991 C   0  0  1  0  0  0  0  0  0  0  0  0
   -0.1626    0.1323    2.6811 H   0  0  0  0  0  0  0  0  0  0  0  0
    1.3699    1.3786    1.8524 C   0  0  0  0  0  0  0  0  0  0  0  0
    1.5145    2.0804    1.0290 H   0  0  0  0  0  0  0  0  0  0  0  0
    1.5196    1.9013    2.7957 H   0  0  0  0  0  0  0  0  0  0  0  0
    2.1248    0.5946    1.7829 H   0  0  0  0  0  0  0  0  0  0  0  0
   -1.1254    1.8634    1.8685 C   0  0  0  0  0  0  0  0  0  0  0  0
   -0.9802    2.5807    1.0595 H   0  0  0  0  0  0  0  0  0  0  0  0
   -2.1038    1.3998    1.7430 H   0  0  0  0  0  0  0  0  0  0  0  0
   -1.1473    2.6254    3.2005 C   0  0  0  0  0  0  0  0  0  0  0  0
   -0.2288    3.1979    3.3286 H   0  0  0  0  0  0  0  0  0  0  0  0
   -1.9902    3.3169    3.2052 H   0  0  0  0  0  0  0  0  0  0  0  0
   -1.2589    1.9252    4.0290 H   0  0  0  0  0  0  0  0  0  0  0  0
    0.8979   -1.1439    0.3433 C   0  0  0  0  0  0  0  0  0  0  0  0
    0.8131   -2.2875    0.7886 O   0  0  0  0  0  0  0  0  0  0  0  0
    1.9651   -0.7223   -0.3470 N   0  0  0  0  0  0  0  0  0  0  0  0
    1.9588    0.2250   -0.6907 H   0  0  0  0  0  0  0  0  0  0  0  0
    3.1357   -1.5500   -0.6310 C   0  0  0  0  0  0  0  0  0  0  0  0
    2.8203   -2.4884   -1.0925 H   0  0  0  0  0  0  0  0  0  0  0  0
    3.8138   -1.0277   -1.3074 H   0  0  0  0  0  0  0  0  0  0  0  0
    3.6575   -1.7800    0.2999 H   0  0  0  0  0  0  0  0  0  0  0  0
  5  6  2  0  0  0  0
  5  7  1  0  0  0  0
  2  3  1  0  0  0  0
  2  4  1  0  0  0  0
  2  5  1  0  0  0  0
  1  2  1  0  0  0  0
 24 25  2  0  0  0  0
 24 26  1  0  0  0  0
 20 21  1  0  0  0  0
 20 22  1  0  0  0  0
 20 23  1  0  0  0  0
 17 18  1  0  0  0  0
 17 19  1  0  0  0  0
 17 20  1  0  0  0  0
 13 14  1  0  0  0  0
 13 15  1  0  0  0  0
 13 16  1  0  0  0  0
 11 12  1  0  0  0  0
 11 13  1  0  0  0  0
 11 17  1  0  0  0  0
  9 10  1  0  0  0  0
  9 11  1  0  0  0  0
  9 24  1  0  0  0  0
  7  8  1  0  0  0  0
  7  9  1  0  0  0  0
 28 29  1  0  0  0  0
 28 30  1  0  0  0  0
 28 31  1  0  0  0  0
 26 27  1  0  0  0  0
 26 28  1  0  0  0  0
M  END
$$$$
default_name
  -OEChem-01062215323D

 31 30  0     1  0  0  0  0  0999 V2000
   -3.0760   -3.6390    1.5496 H   0  0  0  0  0  0  0  0  0  0  0  0
   -3.0940   -2.6290    1.1426 C   0  0  0  0  0  0  0  0  0  0  0  0
   -3.7160   -1.9930    1.7706 H   0  0  0  0  0  0  0  0  0  0  0  0
   -3.4880   -2.6500    0.1286 H   0  0  0  0  0  0  0  0  0  0  0  0
   -1.6860   -2.0850    1.1196 C   0  0  0  0  0  0  0  0  0  0  0  0
   -0.7540   -2.7700    1.5226 O   0  0  0  0  0  0  0  0  0  0  0  0
   -1.5320   -0.8490    0.6496 N   0  0  0  0  0  0  0  0  0  0  0  0
   -2.3500   -0.3360    0.3566 H   0  0  0  0  0  0  0  0  0  0  0  0
   -0.2470   -0.1410    0.5576 C   0  0  1  0  0  0  0  0  0  0  0  0
   -0.2881    0.5023   -0.3220 H   0  0  0  0  0  0  0  0  0  0  0  0
   -0.0418    0.7641    1.7991 C   0  0  1  0  0  0  0  0  0  0  0  0
   -0.1626    0.1323    2.6811 H   0  0  0  0  0  0  0  0  0  0  0  0
    1.3699    1.3786    1.8524 C   0  0  0  0  0  0  0  0  0  0  0  0
    1.5145    2.0804    1.0290 H   0  0  0  0  0  0  0  0  0  0  0  0
    1.5196    1.9013    2.7957 H   0  0  0  0  0  0  0  0  0  0  0  0
    2.1248    0.5946    1.7829 H   0  0  0  0  0  0  0  0  0  0  0  0
   -1.1254    1.8634    1.8685 C   0  0  0  0  0  0  0  0  0  0  0  0
   -0.9802    2.5807    1.0595 H   0  0  0  0  0  0  0  0  0  0  0  0
   -2.1038    1.3998    1.7430 H   0  0  0  0  0  0  0  0  0  0  0  0
   -1.1473    2.6254    3.2005 C   0  0  0  0  0  0  0  0  0  0  0  0
   -0.2288    3.1979    3.3286 H   0  0  0  0  0  0  0  0  0  0  0  0
   -1.9902    3.3169    3.2052 H   0  0  0  0  0  0  0  0  0  0  0  0
   -1.2589    1.9252    4.0290 H   0  0  0  0  0  0  0  0  0  0  0  0
    0.8979   -1.1439    0.3433 C   0  0  0  0  0  0  0  0  0  0  0  0
    0.7153   -2.3451    0.5357 O   0  0  0  0  0  0  0  0  0  0  0  0
    2.0761   -0.6558   -0.0649 N   0  0  0  0  0  0  0  0  0  0  0  0
    2.1478    0.3385   -0.2126 H   0  0  0  0  0  0  0  0  0  0  0  0
    3.2618   -1.4751   -0.3080 C   0  0  0  0  0  0  0  0  0  0  0  0
    3.0125   -2.2909   -0.9901 H   0  0  0  0  0  0  0  0  0  0  0  0
    4.0565   -0.8703   -0.7474 H   0  0  0  0  0  0  0  0  0  0  0  0
    3.6107   -1.9046    0.6331 H   0  0  0  0  0  0  0  0  0  0  0  0
  5  6  2  0  0  0  0
  5  7  1  0  0  0  0
  2  3  1  0  0  0  0
  2  4  1  0  0  0  0
  2  5  1  0  0  0  0
  1  2  1  0  0  0  0
 24 25  2  0  0  0  0
 24 26  1  0  0  0  0
 20 21  1  0  0  0  0
 20 22  1  0  0  0  0
 20 23  1  0  0  0  0
 17 18  1  0  0  0  0
 17 19  1  0  0  0  0
 17 20  1  0  0  0  0
 13 14  1  0  0  0  0
 13 15  1  0  0  0  0
 13 16  1  0  0  0  0
 11 12  1  0  0  0  0
 11 13  1  0  0  0  0
 11 17  1  0  0  0  0
  9 10  1  0  0  0  0
  9 11  1  0  0  0  0
  9 24  1  0  0  0  0
  7  8  1  0  0  0  0
  7  9  1  0  0  0  0
 28 29  1  0  0  0  0
 28 30  1  0  0  0  0
 28 31  1  0  0  0  0
 26 27  1  0  0  0  0
 26 28  1  0  0  0  0
M  END
$$$$
default_name
  -OEChem-01062215323D

 31 30  0     1  0  0  0  0  0999 V2000
   -3.0760   -3.6390    1.5496 H   0  0  0  0  0  0  0  0  0  0  0  0
   -3.0940   -2.6290    1.1426 C   0  0  0  0  0  0  0  0  0  0  0  0
   -3.7160   -1.9930    1.7706 H   0  0  0  0  0  0  0  0  0  0  0  0
   -3.4880   -2.6500    0.1286 H   0  0  0  0  0  0  0  0  0  0  0  0
   -1.6860   -2.0850    1.1196 C   0  0  0  0  0  0  0  0  0  0  0  0
   -0.7540   -2.7700    1.5226 O   0  0  0  0  0  0  0  0  0  0  0  0
   -1.5320   -0.8490    0.6496 N   0  0  0  0  0  0  0  0  0  0  0  0
   -2.3500   -0.3360    0.3566 H   0  0  0  0  0  0  0  0  0  0  0  0
   -0.2470   -0.1410    0.5576 C   0  0  1  0  0  0  0  0  0  0  0  0
   -0.3761    0.6854   -0.1421 H   0  0  0  0  0  0  0  0  0  0  0  0
    0.1366    0.4578    1.9348 C   0  0  1  0  0  0  0  0  0  0  0  0
    0.1058   -0.3577    2.6599 H   0  0  0  0  0  0  0  0  0  0  0  0
    1.5623    1.0416    1.9461 C   0  0  0  0  0  0  0  0  0  0  0  0
    1.6261    1.9119    1.2904 H   0  0  0  0  0  0  0  0  0  0  0  0
    1.8426    1.3359    2.9562 H   0  0  0  0  0  0  0  0  0  0  0  0
    2.2787    0.2925    1.6069 H   0  0  0  0  0  0  0  0  0  0  0  0
   -0.8962    1.5147    2.3865 C   0  0  0  0  0  0  0  0  0  0  0  0
   -0.8296    2.3967    1.7482 H   0  0  0  0  0  0  0  0  0  0  0  0
   -1.8963    1.0935    2.2847 H   0  0  0  0  0  0  0  0  0  0  0  0
   -0.7311    1.9541    3.8477 C   0  0  0  0  0  0  0  0  0  0  0  0
    0.2133    2.4807    3.9842 H   0  0  0  0  0  0  0  0  0  0  0  0
   -1.5455    2.6279    4.1147 H   0  0  0  0  0  0  0  0  0  0  0  0
   -0.7614    1.0840    4.5045 H   0  0  0  0  0  0  0  0  0  0  0  0
    0.8317   -1.0711   -0.0201 C   0  0  0  0  0  0  0  0  0  0  0  0
    0.5506   -2.2257   -0.3383 O   0  0  0  0  0  0  0  0  0  0  0  0
    2.0643   -0.5687   -0.1664 N   0  0  0  0  0  0  0  0  0  0  0  0
    2.2172    0.3896    0.1057 H   0  0  0  0  0  0  0  0  0  0  0  0
    3.1989   -1.3237   -0.6947 C   0  0  0  0  0  0  0  0  0  0  0  0
    2.9304   -1.7681   -1.6556 H   0  0  0  0  0  0  0  0  0  0  0  0
    4.0599   -0.6677   -0.8308 H   0  0  0  0  0  0  0  0  0  0  0  0
    3.4600   -2.1265   -0.0026 H   0  0  0  0  0  0  0  0  0  0  0  0
  5  6  2  0  0  0  0
  5  7  1  0  0  0  0
  2  3  1  0  0  0  0
  2  4  1  0  0  0  0
  2  5  1  0  0  0  0
  1  2  1  0  0  0  0
 24 25  2  0  0  0  0
 24 26  1  0  0  0  0
 20 21  1  0  0  0  0
 20 22  1  0  0  0  0
 20 23  1  0  0  0  0
 17 18  1  0  0  0  0
 17 19  1  0  0  0  0
 17 20  1  0  0  0  0
 13 14  1  0  0  0  0
 13 15  1  0  0  0  0
 13 16  1  0  0  0  0
 11 12  1  0  0  0  0
 11 13  1  0  0  0  0
 11 17  1  0  0  0  0
  9 10  1  0  0  0  0
  9 11  1  0  0  0  0
  9 24  1  0  0  0  0
  7  8  1  0  0  0  0
  7  9  1  0  0  0  0
 28 29  1  0  0  0  0
 28 30  1  0  0  0  0
 28 31  1  0  0  0  0
 26 27  1  0  0  0  0
 26 28  1  0  0  0  0
M  END
$$$$
default_name
  -OEChem-01062215323D

 31 30  0     1  0  0  0  0  0999 V2000
   -3.0760   -3.6390    1.5496 H   0  0  0  0  0  0  0  0  0  0  0  0
   -3.0940   -2.6290    1.1426 C   0  0  0  0  0  0  0  0  0  0  0  0
   -3.7160   -1.9930    1.7706 H   0  0  0  0  0  0  0  0  0  0  0  0
   -3.4880   -2.6500    0.1286 H   0  0  0  0  0  0  0  0  0  0  0  0
   -1.6860   -2.0850    1.1196 C   0  0  0  0  0  0  0  0  0  0  0  0
   -0.7540   -2.7700    1.5226 O   0  0  0  0  0  0  0  0  0  0  0  0
   -1.5320   -0.8490    0.6496 N   0  0  0  0  0  0  0  0  0  0  0  0
   -2.3500   -0.3360    0.3566 H   0  0  0  0  0  0  0  0  0  0  0  0
   -0.2470   -0.1410    0.5576 C   0  0  1  0  0  0  0  0  0  0  0  0
   -0.3761    0.6854   -0.1421 H   0  0  0  0  0  0  0  0  0  0  0  0
    0.1366    0.4578    1.9348 C   0  0  1  0  0  0  0  0  0  0  0  0
    0.1058   -0.3577    2.6599 H   0  0  0  0  0  0  0  0  0  0  0  0
    1.5623    1.0416    1.9461 C   0  0  0  0  0  0  0  0  0  0  0  0
    1.6261    1.9119    1.2904 H   0  0  0  0  0  0  0  0  0  0  0  0
    1.8426    1.3359    2.9562 H   0  0  0  0  0  0  0  0  0  0  0  0
    2.2787    0.2925    1.6069 H   0  0  0  0  0  0  0  0  0  0  0  0
   -0.8962    1.5147    2.3865 C   0  0  0  0  0  0  0  0  0  0  0  0
   -0.8296    2.3967    1.7482 H   0  0  0  0  0  0  0  0  0  0  0  0
   -1.8963    1.0935    2.2847 H   0  0  0  0  0  0  0  0  0  0  0  0
   -0.7311    1.9541    3.8477 C   0  0  0  0  0  0  0  0  0  0  0  0
    0.2133    2.4807    3.9842 H   0  0  0  0  0  0  0  0  0  0  0  0
   -1.5455    2.6279    4.1147 H   0  0  0  0  0  0  0  0  0  0  0  0
   -0.7614    1.0840    4.5045 H   0  0  0  0  0  0  0  0  0  0  0  0
    0.8317   -1.0711   -0.0201 C   0  0  0  0  0  0  0  0  0  0  0  0
    0.5126   -2.1140   -0.5892 O   0  0  0  0  0  0  0  0  0  0  0  0
    2.1089   -0.6918    0.1150 N   0  0  0  0  0  0  0  0  0  0  0  0
    2.2934    0.1813    0.5832 H   0  0  0  0  0  0  0  0  0  0  0  0
    3.2487   -1.4655   -0.3733 C   0  0  0  0  0  0  0  0  0  0  0  0
    3.1073   -1.7031   -1.4300 H   0  0  0  0  0  0  0  0  0  0  0  0
    4.1718   -0.8962   -0.2541 H   0  0  0  0  0  0  0  0  0  0  0  0
    3.3242   -2.4005    0.1850 H   0  0  0  0  0  0  0  0  0  0  0  0
  5  6  2  0  0  0  0
  5  7  1  0  0  0  0
  2  3  1  0  0  0  0
  2  4  1  0  0  0  0
  2  5  1  0  0  0  0
  1  2  1  0  0  0  0
 24 25  2  0  0  0  0
 24 26  1  0  0  0  0
 20 21  1  0  0  0  0
 20 22  1  0  0  0  0
 20 23  1  0  0  0  0
 17 18  1  0  0  0  0
 17 19  1  0  0  0  0
 17 20  1  0  0  0  0
 13 14  1  0  0  0  0
 13 15  1  0  0  0  0
 13 16  1  0  0  0  0
 11 12  1  0  0  0  0
 11 13  1  0  0  0  0
 11 17  1  0  0  0  0
  9 10  1  0  0  0  0
  9 11  1  0  0  0  0
  9 24  1  0  0  0  0
  7  8  1  0  0  0  0
  7  9  1  0  0  0  0
 28 29  1  0  0  0  0
 28 30  1  0  0  0  0
 28 31  1  0  0  0  0
 26 27  1  0  0  0  0
 26 28  1  0  0  0  0
M  END
$$$$
default_name
  -OEChem-01062215323D

 31 30  0     1  0  0  0  0  0999 V2000
   -3.0760   -3.6390    1.5496 H   0  0  0  0  0  0  0  0  0  0  0  0
   -3.0940   -2.6290    1.1426 C   0  0  0  0  0  0  0  0  0  0  0  0
   -3.7160   -1.9930    1.7706 H   0  0  0  0  0  0  0  0  0  0  0  0
   -3.4880   -2.6500    0.1286 H   0  0  0  0  0  0  0  0  0  0  0  0
   -1.6860   -2.0850    1.1196 C   0  0  0  0  0  0  0  0  0  0  0  0
   -0.7540   -2.7700    1.5226 O   0  0  0  0  0  0  0  0  0  0  0  0
   -1.5320   -0.8490    0.6496 N   0  0  0  0  0  0  0  0  0  0  0  0
   -2.3500   -0.3360    0.3566 H   0  0  0  0  0  0  0  0  0  0  0  0
   -0.2470   -0.1410    0.5576 C   0  0  1  0  0  0  0  0  0  0  0  0
   -0.3761    0.6854   -0.1421 H   0  0  0  0  0  0  0  0  0  0  0  0
    0.1366    0.4578    1.9348 C   0  0  1  0  0  0  0  0  0  0  0  0
    0.1058   -0.3577    2.6599 H   0  0  0  0  0  0  0  0  0  0  0  0
    1.5623    1.0416    1.9461 C   0  0  0  0  0  0  0  0  0  0  0  0
    1.6261    1.9119    1.2904 H   0  0  0  0  0  0  0  0  0  0  0  0
    1.8426    1.3359    2.9562 H   0  0  0  0  0  0  0  0  0  0  0  0
    2.2787    0.2925    1.6069 H   0  0  0  0  0  0  0  0  0  0  0  0
   -0.8962    1.5147    2.3865 C   0  0  0  0  0  0  0  0  0  0  0  0
   -0.8296    2.3967    1.7482 H   0  0  0  0  0  0  0  0  0  0  0  0
   -1.8963    1.0935    2.2847 H   0  0  0  0  0  0  0  0  0  0  0  0
   -0.7311    1.9541    3.8477 C   0  0  0  0  0  0  0  0  0  0  0  0
    0.2133    2.4807    3.9842 H   0  0  0  0  0  0  0  0  0  0  0  0
   -1.5455    2.6279    4.1147 H   0  0  0  0  0  0  0  0  0  0  0  0
   -0.7614    1.0840    4.5045 H   0  0  0  0  0  0  0  0  0  0  0  0
    0.8317   -1.0711   -0.0201 C   0  0  0  0  0  0  0  0  0  0  0  0
    0.5260   -1.9568   -0.8172 O   0  0  0  0  0  0  0  0  0  0  0  0
    2.0958   -0.8662    0.3714 N   0  0  0  0  0  0  0  0  0  0  0  0
    2.2719   -0.1140    1.0185 H   0  0  0  0  0  0  0  0  0  0  0  0
    3.2328   -1.6656   -0.0809 C   0  0  0  0  0  0  0  0  0  0  0  0
    3.2491   -1.6986   -1.1725 H   0  0  0  0  0  0  0  0  0  0  0  0
    4.1672   -1.2326    0.2789 H   0  0  0  0  0  0  0  0  0  0  0  0
    3.1371   -2.6860    0.2952 H   0  0  0  0  0  0  0  0  0  0  0  0
  5  6  2  0  0  0  0
  5  7  1  0  0  0  0
  2  3  1  0  0  0  0
  2  4  1  0  0  0  0
  2  5  1  0  0  0  0
  1  2  1  0  0  0  0
 24 25  2  0  0  0  0
 24 26  1  0  0  0  0
 20 21  1  0  0  0  0
 20 22  1  0  0  0  0
 20 23  1  0  0  0  0
 17 18  1  0  0  0  0
 17 19  1  0  0  0  0
 17 20  1  0  0  0  0
 13 14  1  0  0  0  0
 13 15  1  0  0  0  0
 13 16  1  0  0  0  0
 11 12  1  0  0  0  0
 11 13  1  0  0  0  0
 11 17  1  0  0  0  0
  9 10  1  0  0  0  0
  9 11  1  0  0  0  0
  9 24  1  0  0  0  0
  7  8  1  0  0  0  0
  7  9  1  0  0  0  0
 28 29  1  0  0  0  0
 28 30  1  0  0  0  0
 28 31  1  0  0  0  0
 26 27  1  0  0  0  0
 26 28  1  0  0  0  0
M  END
$$$$
default_name
  -OEChem-01062215323D

 31 30  0     1  0  0  0  0  0999 V2000
   -3.0760   -3.6390    1.5496 H   0  0  0  0  0  0  0  0  0  0  0  0
   -3.0940   -2.6290    1.1426 C   0  0  0  0  0  0  0  0  0  0  0  0
   -3.7160   -1.9930    1.7706 H   0  0  0  0  0  0  0  0  0  0  0  0
   -3.4880   -2.6500    0.1286 H   0  0  0  0  0  0  0  0  0  0  0  0
   -1.6860   -2.0850    1.1196 C   0  0  0  0  0  0  0  0  0  0  0  0
   -0.7540   -2.7700    1.5226 O   0  0  0  0  0  0  0  0  0  0  0  0
   -1.5320   -0.8490    0.6496 N   0  0  0  0  0  0  0  0  0  0  0  0
   -2.3500   -0.3360    0.3566 H   0  0  0  0  0  0  0  0  0  0  0  0
   -0.2470   -0.1410    0.5576 C   0  0  1  0  0  0  0  0  0  0  0  0
   -0.3761    0.6854   -0.1421 H   0  0  0  0  0  0  0  0  0  0  0  0
    0.1366    0.4578    1.9348 C   0  0  1  0  0  0  0  0  0  0  0  0
    0.1058   -0.3577    2.6599 H   0  0  0  0  0  0  0  0  0  0  0  0
    1.5623    1.0416    1.9461 C   0  0  0  0  0  0  0  0  0  0  0  0
    1.6261    1.9119    1.2904 H   0  0  0  0  0  0  0  0  0  0  0  0
    1.8426    1.3359    2.9562 H   0  0  0  0  0  0  0  0  0  0  0  0
    2.2787    0.2925    1.6069 H   0  0  0  0  0  0  0  0  0  0  0  0
   -0.8962    1.5147    2.3865 C   0  0  0  0  0  0  0  0  0  0  0  0
   -0.8296    2.3967    1.7482 H   0  0  0  0  0  0  0  0  0  0  0  0
   -1.8963    1.0935    2.2847 H   0  0  0  0  0  0  0  0  0  0  0  0
   -0.7311    1.9541    3.8477 C   0  0  0  0  0  0  0  0  0  0  0  0
    0.2133    2.4807    3.9842 H   0  0  0  0  0  0  0  0  0  0  0  0
   -1.5455    2.6279    4.1147 H   0  0  0  0  0  0  0  0  0  0  0  0
   -0.7614    1.0840    4.5045 H   0  0  0  0  0  0  0  0  0  0  0  0
    0.8317   -1.0711   -0.0201 C   0  0  0  0  0  0  0  0  0  0  0  0
    0.5899   -1.7649   -1.0068 O   0  0  0  0  0  0  0  0  0  0  0  0
    2.0261   -1.0800    0.5854 N   0  0  0  0  0  0  0  0  0  0  0  0
    2.1543   -0.4762    1.3820 H   0  0  0  0  0  0  0  0  0  0  0  0
    3.1521   -1.9106    0.1628 C   0  0  0  0  0  0  0  0  0  0  0  0
    3.3461   -1.7548   -0.9008 H   0  0  0  0  0  0  0  0  0  0  0  0
    4.0467   -1.6538    0.7320 H   0  0  0  0  0  0  0  0  0  0  0  0
    2.9113   -2.9636    0.3205 H   0  0  0  0  0  0  0  0  0  0  0  0
  5  6  2  0  0  0  0
  5  7  1  0  0  0  0
  2  3  1  0  0  0  0
  2  4  1  0  0  0  0
  2  5  1  0  0  0  0
  1  2  1  0  0  0  0
 24 25  2  0  0  0  0
 24 26  1  0  0  0  0
 20 21  1  0  0  0  0
 20 22  1  0  0  0  0
 20 23  1  0  0  0  0
 17 18  1  0  0  0  0
 17 19  1  0  0  0  0
 17 20  1  0  0  0  0
 13 14  1  0  0  0  0
 13 15  1  0  0  0  0
 13 16  1  0  0  0  0
 11 12  1  0  0  0  0
 11 13  1  0  0  0  0
 11 17  1  0  0  0  0
  9 10  1  0  0  0  0
  9 11  1  0  0  0  0
  9 24  1  0  0  0  0
  7  8  1  0  0  0  0
  7  9  1  0  0  0  0
 28 29  1  0  0  0  0
 28 30  1  0  0  0  0
 28 31  1  0  0  0  0
 26 27  1  0  0  0  0
 26 28  1  0  0  0  0
M  END
$$$$
default_name
  -OEChem-01062215323D

 31 30  0     1  0  0  0  0  0999 V2000
   -3.0760   -3.6390    1.5496 H   0  0  0  0  0  0  0  0  0  0  0  0
   -3.0940   -2.6290    1.1426 C   0  0  0  0  0  0  0  0  0  0  0  0
   -3.7160   -1.9930    1.7706 H   0  0  0  0  0  0  0  0  0  0  0  0
   -3.4880   -2.6500    0.1286 H   0  0  0  0  0  0  0  0  0  0  0  0
   -1.6860   -2.0850    1.1196 C   0  0  0  0  0  0  0  0  0  0  0  0
   -0.7540   -2.7700    1.5226 O   0  0  0  0  0  0  0  0  0  0  0  0
   -1.5320   -0.8490    0.6496 N   0  0  0  0  0  0  0  0  0  0  0  0
   -2.3500   -0.3360    0.3566 H   0  0  0  0  0  0  0  0  0  0  0  0
   -0.2470   -0.1410    0.5576 C   0  0  1  0  0  0  0  0  0  0  0  0
   -0.3761    0.6854   -0.1421 H   0  0  0  0  0  0  0  0  0  0  0  0
    0.1366    0.4578    1.9348 C   0  0  1  0  0  0  0  0  0  0  0  0
    0.1058   -0.3577    2.6599 H   0  0  0  0  0  0  0  0  0  0  0  0
    1.5623    1.0416    1.9461 C   0  0  0  0  0  0  0  0  0  0  0  0
    1.6261    1.9119    1.2904 H   0  0  0  0  0  0  0  0  0  0  0  0
    1.8426    1.3359    2.9562 H   0  0  0  0  0  0  0  0  0  0  0  0
    2.2787    0.2925    1.6069 H   0  0  0  0  0  0  0  0  0  0  0  0
   -0.8962    1.5147    2.3865 C   0  0  0  0  0  0  0  0  0  0  0  0
   -0.8296    2.3967    1.7482 H   0  0  0  0  0  0  0  0  0  0  0  0
   -1.8963    1.0935    2.2847 H   0  0  0  0  0  0  0  0  0  0  0  0
   -0.7311    1.9541    3.8477 C   0  0  0  0  0  0  0  0  0  0  0  0
    0.2133    2.4807    3.9842 H   0  0  0  0  0  0  0  0  0  0  0  0
   -1.5455    2.6279    4.1147 H   0  0  0  0  0  0  0  0  0  0  0  0
   -0.7614    1.0840    4.5045 H   0  0  0  0  0  0  0  0  0  0  0  0
    0.8317   -1.0711   -0.0201 C   0  0  0  0  0  0  0  0  0  0  0  0
    0.7000   -1.5513   -1.1450 O   0  0  0  0  0  0  0  0  0  0  0  0
    1.9044   -1.3186    0.7423 N   0  0  0  0  0  0  0  0  0  0  0  0
    1.9485   -0.8807    1.6489 H   0  0  0  0  0  0  0  0  0  0  0  0
    3.0122   -2.1835    0.3410 C   0  0  0  0  0  0  0  0  0  0  0  0
    3.3919   -1.8679   -0.6333 H   0  0  0  0  0  0  0  0  0  0  0  0
    3.8183   -2.1313    1.0742 H   0  0  0  0  0  0  0  0  0  0  0  0
    2.6622   -3.2144    0.2590 H   0  0  0  0  0  0  0  0  0  0  0  0
  5  6  2  0  0  0  0
  5  7  1  0  0  0  0
  2  3  1  0  0  0  0
  2  4  1  0  0  0  0
  2  5  1  0  0  0  0
  1  2  1  0  0  0  0
 24 25  2  0  0  0  0
 24 26  1  0  0  0  0
 20 21  1  0  0  0  0
 20 22  1  0  0  0  0
 20 23  1  0  0  0  0
 17 18  1  0  0  0  0
 17 19  1  0  0  0  0
 17 20  1  0  0  0  0
 13 14  1  0  0  0  0
 13 15  1  0  0  0  0
 13 16  1  0  0  0  0
 11 12  1  0  0  0  0
 11 13  1  0  0  0  0
 11 17  1  0  0  0  0
  9 10  1  0  0  0  0
  9 11  1  0  0  0  0
  9 24  1  0  0  0  0
  7  8  1  0  0  0  0
  7  9  1  0  0  0  0
 28 29  1  0  0  0  0
 28 30  1  0  0  0  0
 28 31  1  0  0  0  0
 26 27  1  0  0  0  0
 26 28  1  0  0  0  0
M  END
$$$$
default_name
  -OEChem-01062215323D

 31 30  0     1  0  0  0  0  0999 V2000
   -3.0760   -3.6390    1.5496 H   0  0  0  0  0  0  0  0  0  0  0  0
   -3.0940   -2.6290    1.1426 C   0  0  0  0  0  0  0  0  0  0  0  0
   -3.7160   -1.9930    1.7706 H   0  0  0  0  0  0  0  0  0  0  0  0
   -3.4880   -2.6500    0.1286 H   0  0  0  0  0  0  0  0  0  0  0  0
   -1.6860   -2.0850    1.1196 C   0  0  0  0  0  0  0  0  0  0  0  0
   -0.7540   -2.7700    1.5226 O   0  0  0  0  0  0  0  0  0  0  0  0
   -1.5320   -0.8490    0.6496 N   0  0  0  0  0  0  0  0  0  0  0  0
   -2.3500   -0.3360    0.3566 H   0  0  0  0  0  0  0  0  0  0  0  0
   -0.2470   -0.1410    0.5576 C   0  0  1  0  0  0  0  0  0  0  0  0
   -0.3761    0.6854   -0.1421 H   0  0  0  0  0  0  0  0  0  0  0  0
    0.1366    0.4578    1.9348 C   0  0  1  0  0  0  0  0  0  0  0  0
    0.1058   -0.3577    2.6599 H   0  0  0  0  0  0  0  0  0  0  0  0
    1.5623    1.0416    1.9461 C   0  0  0  0  0  0  0  0  0  0  0  0
    1.6261    1.9119    1.2904 H   0  0  0  0  0  0  0  0  0  0  0  0
    1.8426    1.3359    2.9562 H   0  0  0  0  0  0  0  0  0  0  0  0
    2.2787    0.2925    1.6069 H   0  0  0  0  0  0  0  0  0  0  0  0
   -0.8962    1.5147    2.3865 C   0  0  0  0  0  0  0  0  0  0  0  0
   -0.8296    2.3967    1.7482 H   0  0  0  0  0  0  0  0  0  0  0  0
   -1.8963    1.0935    2.2847 H   0  0  0  0  0  0  0  0  0  0  0  0
   -0.7311    1.9541    3.8477 C   0  0  0  0  0  0  0  0  0  0  0  0
    0.2133    2.4807    3.9842 H   0  0  0  0  0  0  0  0  0  0  0  0
   -1.5455    2.6279    4.1147 H   0  0  0  0  0  0  0  0  0  0  0  0
   -0.7614    1.0840    4.5045 H   0  0  0  0  0  0  0  0  0  0  0  0
    0.8317   -1.0711   -0.0201 C   0  0  0  0  0  0  0  0  0  0  0  0
    0.8488   -1.3306   -1.2225 O   0  0  0  0  0  0  0  0  0  0  0  0
    1.7391   -1.5657    0.8314 N   0  0  0  0  0  0  0  0  0  0  0  0
    1.6685   -1.2998    1.8010 H   0  0  0  0  0  0  0  0  0  0  0  0
    2.8225   -2.4660    0.4416 C   0  0  0  0  0  0  0  0  0  0  0  0
    3.3831   -2.0302   -0.3883 H   0  0  0  0  0  0  0  0  0  0  0  0
    3.4976   -2.6325    1.2823 H   0  0  0  0  0  0  0  0  0  0  0  0
    2.4068   -3.4212    0.1152 H   0  0  0  0  0  0  0  0  0  0  0  0
  5  6  2  0  0  0  0
  5  7  1  0  0  0  0
  2  3  1  0  0  0  0
  2  4  1  0  0  0  0
  2  5  1  0  0  0  0
  1  2  1  0  0  0  0
 24 25  2  0  0  0  0
 24 26  1  0  0  0  0
 20 21  1  0  0  0  0
 20 22  1  0  0  0  0
 20 23  1  0  0  0  0
 17 18  1  0  0  0  0
 17 19  1  0  0  0  0
 17 20  1  0  0  0  0
 13 14  1  0  0  0  0
 13 15  1  0  0  0  0
 13 16  1  0  0  0  0
 11 12  1  0  0  0  0
 11 13  1  0  0  0  0
 11 17  1  0  0  0  0
  9 10  1  0  0  0  0
  9 11  1  0  0  0  0
  9 24  1  0  0  0  0
  7  8  1  0  0  0  0
  7  9  1  0  0  0  0
 28 29  1  0  0  0  0
 28 30  1  0  0  0  0
 28 31  1  0  0  0  0
 26 27  1  0  0  0  0
 26 28  1  0  0  0  0
M  END
$$$$
default_name
  -OEChem-01062215323D

 31 30  0     1  0  0  0  0  0999 V2000
   -3.0760   -3.6390    1.5496 H   0  0  0  0  0  0  0  0  0  0  0  0
   -3.0940   -2.6290    1.1426 C   0  0  0  0  0  0  0  0  0  0  0  0
   -3.7160   -1.9930    1.7706 H   0  0  0  0  0  0  0  0  0  0  0  0
   -3.4880   -2.6500    0.1286 H   0  0  0  0  0  0  0  0  0  0  0  0
   -1.6860   -2.0850    1.1196 C   0  0  0  0  0  0  0  0  0  0  0  0
   -0.7540   -2.7700    1.5226 O   0  0  0  0  0  0  0  0  0  0  0  0
   -1.5320   -0.8490    0.6496 N   0  0  0  0  0  0  0  0  0  0  0  0
   -2.3500   -0.3360    0.3566 H   0  0  0  0  0  0  0  0  0  0  0  0
   -0.2470   -0.1410    0.5576 C   0  0  1  0  0  0  0  0  0  0  0  0
   -0.3761    0.6854   -0.1421 H   0  0  0  0  0  0  0  0  0  0  0  0
    0.1366    0.4578    1.9348 C   0  0  1  0  0  0  0  0  0  0  0  0
    0.1058   -0.3577    2.6599 H   0  0  0  0  0  0  0  0  0  0  0  0
    1.5623    1.0416    1.9461 C   0  0  0  0  0  0  0  0  0  0  0  0
    1.6261    1.9119    1.2904 H   0  0  0  0  0  0  0  0  0  0  0  0
    1.8426    1.3359    2.9562 H   0  0  0  0  0  0  0  0  0  0  0  0
    2.2787    0.2925    1.6069 H   0  0  0  0  0  0  0  0  0  0  0  0
   -0.8962    1.5147    2.3865 C   0  0  0  0  0  0  0  0  0  0  0  0
   -0.8296    2.3967    1.7482 H   0  0  0  0  0  0  0  0  0  0  0  0
   -1.8963    1.0935    2.2847 H   0  0  0  0  0  0  0  0  0  0  0  0
   -0.7311    1.9541    3.8477 C   0  0  0  0  0  0  0  0  0  0  0  0
    0.2133    2.4807    3.9842 H   0  0  0  0  0  0  0  0  0  0  0  0
   -1.5455    2.6279    4.1147 H   0  0  0  0  0  0  0  0  0  0  0  0
   -0.7614    1.0840    4.5045 H   0  0  0  0  0  0  0  0  0  0  0  0
    0.8317   -1.0711   -0.0201 C   0  0  0  0  0  0  0  0  0  0  0  0
    1.0261   -1.1179   -1.2340 O   0  0  0  0  0  0  0  0  0  0  0  0
    1.5414   -1.8045    0.8468 N   0  0  0  0  0  0  0  0  0  0  0  0
    1.3335   -1.7051    1.8279 H   0  0  0  0  0  0  0  0  0  0  0  0
    2.5961   -2.7386    0.4578 C   0  0  0  0  0  0  0  0  0  0  0  0
    3.3206   -2.2306   -0.1826 H   0  0  0  0  0  0  0  0  0  0  0  0
    3.1065   -3.1232    1.3420 H   0  0  0  0  0  0  0  0  0  0  0  0
    2.1625   -3.5700   -0.1014 H   0  0  0  0  0  0  0  0  0  0  0  0
  5  6  2  0  0  0  0
  5  7  1  0  0  0  0
  2  3  1  0  0  0  0
  2  4  1  0  0  0  0
  2  5  1  0  0  0  0
  1  2  1  0  0  0  0
 24 25  2  0  0  0  0
 24 26  1  0  0  0  0
 20 21  1  0  0  0  0
 20 22  1  0  0  0  0
 20 23  1  0  0  0  0
 17 18  1  0  0  0  0
 17 19  1  0  0  0  0
 17 20  1  0  0  0  0
 13 14  1  0  0  0  0
 13 15  1  0  0  0  0
 13 16  1  0  0  0  0
 11 12  1  0  0  0  0
 11 13  1  0  0  0  0
 11 17  1  0  0  0  0
  9 10  1  0  0  0  0
  9 11  1  0  0  0  0
  9 24  1  0  0  0  0
  7  8  1  0  0  0  0
  7  9  1  0  0  0  0
 28 29  1  0  0  0  0
 28 30  1  0  0  0  0
 28 31  1  0  0  0  0
 26 27  1  0  0  0  0
 26 28  1  0  0  0  0
M  END
$$$$
default_name
  -OEChem-01062215323D

 31 30  0     1  0  0  0  0  0999 V2000
   -3.0760   -3.6390    1.5496 H   0  0  0  0  0  0  0  0  0  0  0  0
   -3.0940   -2.6290    1.1426 C   0  0  0  0  0  0  0  0  0  0  0  0
   -3.7160   -1.9930    1.7706 H   0  0  0  0  0  0  0  0  0  0  0  0
   -3.4880   -2.6500    0.1286 H   0  0  0  0  0  0  0  0  0  0  0  0
   -1.6860   -2.0850    1.1196 C   0  0  0  0  0  0  0  0  0  0  0  0
   -0.7540   -2.7700    1.5226 O   0  0  0  0  0  0  0  0  0  0  0  0
   -1.5320   -0.8490    0.6496 N   0  0  0  0  0  0  0  0  0  0  0  0
   -2.3500   -0.3360    0.3566 H   0  0  0  0  0  0  0  0  0  0  0  0
   -0.2470   -0.1410    0.5576 C   0  0  1  0  0  0  0  0  0  0  0  0
   -0.3761    0.6854   -0.1421 H   0  0  0  0  0  0  0  0  0  0  0  0
    0.1366    0.4578    1.9348 C   0  0  1  0  0  0  0  0  0  0  0  0
    0.1058   -0.3577    2.6599 H   0  0  0  0  0  0  0  0  0  0  0  0
    1.5623    1.0416    1.9461 C   0  0  0  0  0  0  0  0  0  0  0  0
    1.6261    1.9119    1.2904 H   0  0  0  0  0  0  0  0  0  0  0  0
    1.8426    1.3359    2.9562 H   0  0  0  0  0  0  0  0  0  0  0  0
    2.2787    0.2925    1.6069 H   0  0  0  0  0  0  0  0  0  0  0  0
   -0.8962    1.5147    2.3865 C   0  0  0  0  0  0  0  0  0  0  0  0
   -0.8296    2.3967    1.7482 H   0  0  0  0  0  0  0  0  0  0  0  0
   -1.8963    1.0935    2.2847 H   0  0  0  0  0  0  0  0  0  0  0  0
   -0.7311    1.9541    3.8477 C   0  0  0  0  0  0  0  0  0  0  0  0
    0.2133    2.4807    3.9842 H   0  0  0  0  0  0  0  0  0  0  0  0
   -1.5455    2.6279    4.1147 H   0  0  0  0  0  0  0  0  0  0  0  0
   -0.7614    1.0840    4.5045 H   0  0  0  0  0  0  0  0  0  0  0  0
    0.8317   -1.0711   -0.0201 C   0  0  0  0  0  0  0  0  0  0  0  0
    1.2199   -0.9275   -1.1786 O   0  0  0  0  0  0  0  0  0  0  0  0
    1.3249   -2.0187    0.7873 N   0  0  0  0  0  0  0  0  0  0  0  0
    0.9663   -2.0688    1.7278 H   0  0  0  0  0  0  0  0  0  0  0  0
    2.3484   -2.9829    0.3885 C   0  0  0  0  0  0  0  0  0  0  0  0
    3.2084   -2.4554   -0.0300 H   0  0  0  0  0  0  0  0  0  0  0  0
    2.6717   -3.5699    1.2493 H   0  0  0  0  0  0  0  0  0  0  0  0
    1.9460   -3.6506   -0.3758 H   0  0  0  0  0  0  0  0  0  0  0  0
  5  6  2  0  0  0  0
  5  7  1  0  0  0  0
  2  3  1  0  0  0  0
  2  4  1  0  0  0  0
  2  5  1  0  0  0  0
  1  2  1  0  0  0  0
 24 25  2  0  0  0  0
 24 26  1  0  0  0  0
 20 21  1  0  0  0  0
 20 22  1  0  0  0  0
 20 23  1  0  0  0  0
 17 18  1  0  0  0  0
 17 19  1  0  0  0  0
 17 20  1  0  0  0  0
 13 14  1  0  0  0  0
 13 15  1  0  0  0  0
 13 16  1  0  0  0  0
 11 12  1  0  0  0  0
 11 13  1  0  0  0  0
 11 17  1  0  0  0  0
  9 10  1  0  0  0  0
  9 11  1  0  0  0  0
  9 24  1  0  0  0  0
  7  8  1  0  0  0  0
  7  9  1  0  0  0  0
 28 29  1  0  0  0  0
 28 30  1  0  0  0  0
 28 31  1  0  0  0  0
 26 27  1  0  0  0  0
 26 28  1  0  0  0  0
M  END
$$$$
default_name
  -OEChem-01062215323D

 31 30  0     1  0  0  0  0  0999 V2000
   -3.0760   -3.6390    1.5496 H   0  0  0  0  0  0  0  0  0  0  0  0
   -3.0940   -2.6290    1.1426 C   0  0  0  0  0  0  0  0  0  0  0  0
   -3.7160   -1.9930    1.7706 H   0  0  0  0  0  0  0  0  0  0  0  0
   -3.4880   -2.6500    0.1286 H   0  0  0  0  0  0  0  0  0  0  0  0
   -1.6860   -2.0850    1.1196 C   0  0  0  0  0  0  0  0  0  0  0  0
   -0.7540   -2.7700    1.5226 O   0  0  0  0  0  0  0  0  0  0  0  0
   -1.5320   -0.8490    0.6496 N   0  0  0  0  0  0  0  0  0  0  0  0
   -2.3500   -0.3360    0.3566 H   0  0  0  0  0  0  0  0  0  0  0  0
   -0.2470   -0.1410    0.5576 C   0  0  1  0  0  0  0  0  0  0  0  0
   -0.3761    0.6854   -0.1421 H   0  0  0  0  0  0  0  0  0  0  0  0
    0.1366    0.4578    1.9348 C   0  0  1  0  0  0  0  0  0  0  0  0
    0.1058   -0.3577    2.6599 H   0  0  0  0  0  0  0  0  0  0  0  0
    1.5623    1.0416    1.9461 C   0  0  0  0  0  0  0  0  0  0  0  0
    1.6261    1.9119    1.2904 H   0  0  0  0  0  0  0  0  0  0  0  0
    1.8426    1.3359    2.9562 H   0  0  0  0  0  0  0  0  0  0  0  0
    2.2787    0.2925    1.6069 H   0  0  0  0  0  0  0  0  0  0  0  0
   -0.8962    1.5147    2.3865 C   0  0  0  0  0  0  0  0  0  0  0  0
   -0.8296    2.3967    1.7482 H   0  0  0  0  0  0  0  0  0  0  0  0
   -1.8963    1.0935    2.2847 H   0  0  0  0  0  0  0  0  0  0  0  0
   -0.7311    1.9541    3.8477 C   0  0  0  0  0  0  0  0  0  0  0  0
    0.2133    2.4807    3.9842 H   0  0  0  0  0  0  0  0  0  0  0  0
   -1.5455    2.6279    4.1147 H   0  0  0  0  0  0  0  0  0  0  0  0
   -0.7614    1.0840    4.5045 H   0  0  0  0  0  0  0  0  0  0  0  0
    0.8317   -1.0711   -0.0201 C   0  0  0  0  0  0  0  0  0  0  0  0
    1.4169   -0.7725   -1.0602 O   0  0  0  0  0  0  0  0  0  0  0  0
    1.1041   -2.1938    0.6570 N   0  0  0  0  0  0  0  0  0  0  0  0
    0.5919   -2.3663    1.5076 H   0  0  0  0  0  0  0  0  0  0  0  0
    2.0962   -3.1822    0.2383 C   0  0  0  0  0  0  0  0  0  0  0  0
    3.0543   -2.6894    0.0590 H   0  0  0  0  0  0  0  0  0  0  0  0
    2.2227   -3.9423    1.0105 H   0  0  0  0  0  0  0  0  0  0  0  0
    1.7721   -3.6576   -0.6894 H   0  0  0  0  0  0  0  0  0  0  0  0
  5  6  2  0  0  0  0
  5  7  1  0  0  0  0
  2  3  1  0  0  0  0
  2  4  1  0  0  0  0
  2  5  1  0  0  0  0
  1  2  1  0  0  0  0
 24 25  2  0  0  0  0
 24 26  1  0  0  0  0
 20 21  1  0  0  0  0
 20 22  1  0  0  0  0
 20 23  1  0  0  0  0
 17 18  1  0  0  0  0
 17 19  1  0  0  0  0
 17 20  1  0  0  0  0
 13 14  1  0  0  0  0
 13 15  1  0  0  0  0
 13 16  1  0  0  0  0
 11 12  1  0  0  0  0
 11 13  1  0  0  0  0
 11 17  1  0  0  0  0
  9 10  1  0  0  0  0
  9 11  1  0  0  0  0
  9 24  1  0  0  0  0
  7  8  1  0  0  0  0
  7  9  1  0  0  0  0
 28 29  1  0  0  0  0
 28 30  1  0  0  0  0
 28 31  1  0  0  0  0
 26 27  1  0  0  0  0
 26 28  1  0  0  0  0
M  END
$$$$
default_name
  -OEChem-01062215323D

 31 30  0     1  0  0  0  0  0999 V2000
   -3.0760   -3.6390    1.5496 H   0  0  0  0  0  0  0  0  0  0  0  0
   -3.0940   -2.6290    1.1426 C   0  0  0  0  0  0  0  0  0  0  0  0
   -3.7160   -1.9930    1.7706 H   0  0  0  0  0  0  0  0  0  0  0  0
   -3.4880   -2.6500    0.1286 H   0  0  0  0  0  0  0  0  0  0  0  0
   -1.6860   -2.0850    1.1196 C   0  0  0  0  0  0  0  0  0  0  0  0
   -0.7540   -2.7700    1.5226 O   0  0  0  0  0  0  0  0  0  0  0  0
   -1.5320   -0.8490    0.6496 N   0  0  0  0  0  0  0  0  0  0  0  0
   -2.3500   -0.3360    0.3566 H   0  0  0  0  0  0  0  0  0  0  0  0
   -0.2470   -0.1410    0.5576 C   0  0  1  0  0  0  0  0  0  0  0  0
   -0.3761    0.6854   -0.1421 H   0  0  0  0  0  0  0  0  0  0  0  0
    0.1366    0.4578    1.9348 C   0  0  1  0  0  0  0  0  0  0  0  0
    0.1058   -0.3577    2.6599 H   0  0  0  0  0  0  0  0  0  0  0  0
    1.5623    1.0416    1.9461 C   0  0  0  0  0  0  0  0  0  0  0  0
    1.6261    1.9119    1.2904 H   0  0  0  0  0  0  0  0  0  0  0  0
    1.8426    1.3359    2.9562 H   0  0  0  0  0  0  0  0  0  0  0  0
    2.2787    0.2925    1.6069 H   0  0  0  0  0  0  0  0  0  0  0  0
   -0.8962    1.5147    2.3865 C   0  0  0  0  0  0  0  0  0  0  0  0
   -0.8296    2.3967    1.7482 H   0  0  0  0  0  0  0  0  0  0  0  0
   -1.8963    1.0935    2.2847 H   0  0  0  0  0  0  0  0  0  0  0  0
   -0.7311    1.9541    3.8477 C   0  0  0  0  0  0  0  0  0  0  0  0
    0.2133    2.4807    3.9842 H   0  0  0  0  0  0  0  0  0  0  0  0
   -1.5455    2.6279    4.1147 H   0  0  0  0  0  0  0  0  0  0  0  0
   -0.7614    1.0840    4.5045 H   0  0  0  0  0  0  0  0  0  0  0  0
    0.8317   -1.0711   -0.0201 C   0  0  0  0  0  0  0  0  0  0  0  0
    1.6038   -0.6635   -0.8868 O   0  0  0  0  0  0  0  0  0  0  0  0
    0.8943   -2.3177    0.4648 N   0  0  0  0  0  0  0  0  0  0  0  0
    0.2358   -2.5771    1.1822 H   0  0  0  0  0  0  0  0  0  0  0  0
    1.8567   -3.3228    0.0176 C   0  0  0  0  0  0  0  0  0  0  0  0
    2.8688   -2.9166    0.0783 H   0  0  0  0  0  0  0  0  0  0  0  0
    1.7902   -4.2150    0.6419 H   0  0  0  0  0  0  0  0  0  0  0  0
    1.6524   -3.5904   -1.0209 H   0  0  0  0  0  0  0  0  0  0  0  0
  5  6  2  0  0  0  0
  5  7  1  0  0  0  0
  2  3  1  0  0  0  0
  2  4  1  0  0  0  0
  2  5  1  0  0  0  0
  1  2  1  0  0  0  0
 24 25  2  0  0  0  0
 24 26  1  0  0  0  0
 20 21  1  0  0  0  0
 20 22  1  0  0  0  0
 20 23  1  0  0  0  0
 17 18  1  0  0  0  0
 17 19  1  0  0  0  0
 17 20  1  0  0  0  0
 13 14  1  0  0  0  0
 13 15  1  0  0  0  0
 13 16  1  0  0  0  0
 11 12  1  0  0  0  0
 11 13  1  0  0  0  0
 11 17  1  0  0  0  0
  9 10  1  0  0  0  0
  9 11  1  0  0  0  0
  9 24  1  0  0  0  0
  7  8  1  0  0  0  0
  7  9  1  0  0  0  0
 28 29  1  0  0  0  0
 28 30  1  0  0  0  0
 28 31  1  0  0  0  0
 26 27  1  0  0  0  0
 26 28  1  0  0  0  0
M  END
$$$$
default_name
  -OEChem-01062215323D

 31 30  0     1  0  0  0  0  0999 V2000
   -3.0760   -3.6390    1.5496 H   0  0  0  0  0  0  0  0  0  0  0  0
   -3.0940   -2.6290    1.1426 C   0  0  0  0  0  0  0  0  0  0  0  0
   -3.7160   -1.9930    1.7706 H   0  0  0  0  0  0  0  0  0  0  0  0
   -3.4880   -2.6500    0.1286 H   0  0  0  0  0  0  0  0  0  0  0  0
   -1.6860   -2.0850    1.1196 C   0  0  0  0  0  0  0  0  0  0  0  0
   -0.7540   -2.7700    1.5226 O   0  0  0  0  0  0  0  0  0  0  0  0
   -1.5320   -0.8490    0.6496 N   0  0  0  0  0  0  0  0  0  0  0  0
   -2.3500   -0.3360    0.3566 H   0  0  0  0  0  0  0  0  0  0  0  0
   -0.2470   -0.1410    0.5576 C   0  0  1  0  0  0  0  0  0  0  0  0
   -0.3761    0.6854   -0.1421 H   0  0  0  0  0  0  0  0  0  0  0  0
    0.1366    0.4578    1.9348 C   0  0  1  0  0  0  0  0  0  0  0  0
    0.1058   -0.3577    2.6599 H   0  0  0  0  0  0  0  0  0  0  0  0
    1.5623    1.0416    1.9461 C   0  0  0  0  0  0  0  0  0  0  0  0
    1.6261    1.9119    1.2904 H   0  0  0  0  0  0  0  0  0  0  0  0
    1.8426    1.3359    2.9562 H   0  0  0  0  0  0  0  0  0  0  0  0
    2.2787    0.2925    1.6069 H   0  0  0  0  0  0  0  0  0  0  0  0
   -0.8962    1.5147    2.3865 C   0  0  0  0  0  0  0  0  0  0  0  0
   -0.8296    2.3967    1.7482 H   0  0  0  0  0  0  0  0  0  0  0  0
   -1.8963    1.0935    2.2847 H   0  0  0  0  0  0  0  0  0  0  0  0
   -0.7311    1.9541    3.8477 C   0  0  0  0  0  0  0  0  0  0  0  0
    0.2133    2.4807    3.9842 H   0  0  0  0  0  0  0  0  0  0  0  0
   -1.5455    2.6279    4.1147 H   0  0  0  0  0  0  0  0  0  0  0  0
   -0.7614    1.0840    4.5045 H   0  0  0  0  0  0  0  0  0  0  0  0
    0.8317   -1.0711   -0.0201 C   0  0  0  0  0  0  0  0  0  0  0  0
    1.7677   -0.6079   -0.6703 O   0  0  0  0  0  0  0  0  0  0  0  0
    0.7097   -2.3821    0.2237 N   0  0  0  0  0  0  0  0  0  0  0  0
   -0.0777   -2.6871    0.7738 H   0  0  0  0  0  0  0  0  0  0  0  0
    1.6462   -3.3953   -0.2587 C   0  0  0  0  0  0  0  0  0  0  0  0
    2.6644   -3.1215    0.0266 H   0  0  0  0  0  0  0  0  0  0  0  0
    1.4036   -4.3693    0.1686 H   0  0  0  0  0  0  0  0  0  0  0  0
    1.5954   -3.4537   -1.3476 H   0  0  0  0  0  0  0  0  0  0  0  0
  5  6  2  0  0  0  0
  5  7  1  0  0  0  0
  2  3  1  0  0  0  0
  2  4  1  0  0  0  0
  2  5  1  0  0  0  0
  1  2  1  0  0  0  0
 24 25  2  0  0  0  0
 24 26  1  0  0  0  0
 20 21  1  0  0  0  0
 20 22  1  0  0  0  0
 20 23  1  0  0  0  0
 17 18  1  0  0  0  0
 17 19  1  0  0  0  0
 17 20  1  0  0  0  0
 13 14  1  0  0  0  0
 13 15  1  0  0  0  0
 13 16  1  0  0  0  0
 11 12  1  0  0  0  0
 11 13  1  0  0  0  0
 11 17  1  0  0  0  0
  9 10  1  0  0  0  0
  9 11  1  0  0  0  0
  9 24  1  0  0  0  0
  7  8  1  0  0  0  0
  7  9  1  0  0  0  0
 28 29  1  0  0  0  0
 28 30  1  0  0  0  0
 28 31  1  0  0  0  0
 26 27  1  0  0  0  0
 26 28  1  0  0  0  0
M  END
$$$$
default_name
  -OEChem-01062215323D

 31 30  0     1  0  0  0  0  0999 V2000
   -3.0760   -3.6390    1.5496 H   0  0  0  0  0  0  0  0  0  0  0  0
   -3.0940   -2.6290    1.1426 C   0  0  0  0  0  0  0  0  0  0  0  0
   -3.7160   -1.9930    1.7706 H   0  0  0  0  0  0  0  0  0  0  0  0
   -3.4880   -2.6500    0.1286 H   0  0  0  0  0  0  0  0  0  0  0  0
   -1.6860   -2.0850    1.1196 C   0  0  0  0  0  0  0  0  0  0  0  0
   -0.7540   -2.7700    1.5226 O   0  0  0  0  0  0  0  0  0  0  0  0
   -1.5320   -0.8490    0.6496 N   0  0  0  0  0  0  0  0  0  0  0  0
   -2.3500   -0.3360    0.3566 H   0  0  0  0  0  0  0  0  0  0  0  0
   -0.2470   -0.1410    0.5576 C   0  0  1  0  0  0  0  0  0  0  0  0
   -0.3761    0.6854   -0.1421 H   0  0  0  0  0  0  0  0  0  0  0  0
    0.1366    0.4578    1.9348 C   0  0  1  0  0  0  0  0  0  0  0  0
    0.1058   -0.3577    2.6599 H   0  0  0  0  0  0  0  0  0  0  0  0
    1.5623    1.0416    1.9461 C   0  0  0  0  0  0  0  0  0  0  0  0
    1.6261    1.9119    1.2904 H   0  0  0  0  0  0  0  0  0  0  0  0
    1.8426    1.3359    2.9562 H   0  0  0  0  0  0  0  0  0  0  0  0
    2.2787    0.2925    1.6069 H   0  0  0  0  0  0  0  0  0  0  0  0
   -0.8962    1.5147    2.3865 C   0  0  0  0  0  0  0  0  0  0  0  0
   -0.8296    2.3967    1.7482 H   0  0  0  0  0  0  0  0  0  0  0  0
   -1.8963    1.0935    2.2847 H   0  0  0  0  0  0  0  0  0  0  0  0
   -0.7311    1.9541    3.8477 C   0  0  0  0  0  0  0  0  0  0  0  0
    0.2133    2.4807    3.9842 H   0  0  0  0  0  0  0  0  0  0  0  0
   -1.5455    2.6279    4.1147 H   0  0  0  0  0  0  0  0  0  0  0  0
   -0.7614    1.0840    4.5045 H   0  0  0  0  0  0  0  0  0  0  0  0
    0.8317   -1.0711   -0.0201 C   0  0  0  0  0  0  0  0  0  0  0  0
    1.8975   -0.6094   -0.4254 O   0  0  0  0  0  0  0  0  0  0  0  0
    0.5629   -2.3826   -0.0498 N   0  0  0  0  0  0  0  0  0  0  0  0
   -0.3273   -2.6886    0.3102 H   0  0  0  0  0  0  0  0  0  0  0  0
    1.4792   -3.3946   -0.5716 C   0  0  0  0  0  0  0  0  0  0  0  0
    2.4552   -3.2902   -0.0926 H   0  0  0  0  0  0  0  0  0  0  0  0
    1.0893   -4.3948   -0.3772 H   0  0  0  0  0  0  0  0  0  0  0  0
    1.6047   -3.2567   -1.6473 H   0  0  0  0  0  0  0  0  0  0  0  0
  5  6  2  0  0  0  0
  5  7  1  0  0  0  0
  2  3  1  0  0  0  0
  2  4  1  0  0  0  0
  2  5  1  0  0  0  0
  1  2  1  0  0  0  0
 24 25  2  0  0  0  0
 24 26  1  0  0  0  0
 20 21  1  0  0  0  0
 20 22  1  0  0  0  0
 20 23  1  0  0  0  0
 17 18  1  0  0  0  0
 17 19  1  0  0  0  0
 17 20  1  0  0  0  0
 13 14  1  0  0  0  0
 13 15  1  0  0  0  0
 13 16  1  0  0  0  0
 11 12  1  0  0  0  0
 11 13  1  0  0  0  0
 11 17  1  0  0  0  0
  9 10  1  0  0  0  0
  9 11  1  0  0  0  0
  9 24  1  0  0  0  0
  7  8  1  0  0  0  0
  7  9  1  0  0  0  0
 28 29  1  0  0  0  0
 28 30  1  0  0  0  0
 28 31  1  0  0  0  0
 26 27  1  0  0  0  0
 26 28  1  0  0  0  0
M  END
$$$$
default_name
  -OEChem-01062215323D

 31 30  0     1  0  0  0  0  0999 V2000
   -3.0760   -3.6390    1.5496 H   0  0  0  0  0  0  0  0  0  0  0  0
   -3.0940   -2.6290    1.1426 C   0  0  0  0  0  0  0  0  0  0  0  0
   -3.7160   -1.9930    1.7706 H   0  0  0  0  0  0  0  0  0  0  0  0
   -3.4880   -2.6500    0.1286 H   0  0  0  0  0  0  0  0  0  0  0  0
   -1.6860   -2.0850    1.1196 C   0  0  0  0  0  0  0  0  0  0  0  0
   -0.7540   -2.7700    1.5226 O   0  0  0  0  0  0  0  0  0  0  0  0
   -1.5320   -0.8490    0.6496 N   0  0  0  0  0  0  0  0  0  0  0  0
   -2.3500   -0.3360    0.3566 H   0  0  0  0  0  0  0  0  0  0  0  0
   -0.2470   -0.1410    0.5576 C   0  0  1  0  0  0  0  0  0  0  0  0
   -0.3761    0.6854   -0.1421 H   0  0  0  0  0  0  0  0  0  0  0  0
    0.1366    0.4578    1.9348 C   0  0  1  0  0  0  0  0  0  0  0  0
    0.1058   -0.3577    2.6599 H   0  0  0  0  0  0  0  0  0  0  0  0
    1.5623    1.0416    1.9461 C   0  0  0  0  0  0  0  0  0  0  0  0
    1.6261    1.9119    1.2904 H   0  0  0  0  0  0  0  0  0  0  0  0
    1.8426    1.3359    2.9562 H   0  0  0  0  0  0  0  0  0  0  0  0
    2.2787    0.2925    1.6069 H   0  0  0  0  0  0  0  0  0  0  0  0
   -0.8962    1.5147    2.3865 C   0  0  0  0  0  0  0  0  0  0  0  0
   -0.8296    2.3967    1.7482 H   0  0  0  0  0  0  0  0  0  0  0  0
   -1.8963    1.0935    2.2847 H   0  0  0  0  0  0  0  0  0  0  0  0
   -0.7311    1.9541    3.8477 C   0  0  0  0  0  0  0  0  0  0  0  0
    0.2133    2.4807    3.9842 H   0  0  0  0  0  0  0  0  0  0  0  0
   -1.5455    2.6279    4.1147 H   0  0  0  0  0  0  0  0  0  0  0  0
   -0.7614    1.0840    4.5045 H   0  0  0  0  0  0  0  0  0  0  0  0
    0.8317   -1.0711   -0.0201 C   0  0  0  0  0  0  0  0  0  0  0  0
    1.9845   -0.6680   -0.1687 O   0  0  0  0  0  0  0  0  0  0  0  0
    0.4638   -2.3190   -0.3370 N   0  0  0  0  0  0  0  0  0  0  0  0
   -0.4959   -2.5816   -0.1769 H   0  0  0  0  0  0  0  0  0  0  0  0
    1.3669   -3.3209   -0.9000 C   0  0  0  0  0  0  0  0  0  0  0  0
    2.2554   -3.4111   -0.2711 H   0  0  0  0  0  0  0  0  0  0  0  0
    0.8688   -4.2897   -0.9582 H   0  0  0  0  0  0  0  0  0  0  0  0
    1.6798   -3.0129   -1.8995 H   0  0  0  0  0  0  0  0  0  0  0  0
  5  6  2  0  0  0  0
  5  7  1  0  0  0  0
  2  3  1  0  0  0  0
  2  4  1  0  0  0  0
  2  5  1  0  0  0  0
  1  2  1  0  0  0  0
 24 25  2  0  0  0  0
 24 26  1  0  0  0  0
 20 21  1  0  0  0  0
 20 22  1  0  0  0  0
 20 23  1  0  0  0  0
 17 18  1  0  0  0  0
 17 19  1  0  0  0  0
 17 20  1  0  0  0  0
 13 14  1  0  0  0  0
 13 15  1  0  0  0  0
 13 16  1  0  0  0  0
 11 12  1  0  0  0  0
 11 13  1  0  0  0  0
 11 17  1  0  0  0  0
  9 10  1  0  0  0  0
  9 11  1  0  0  0  0
  9 24  1  0  0  0  0
  7  8  1  0  0  0  0
  7  9  1  0  0  0  0
 28 29  1  0  0  0  0
 28 30  1  0  0  0  0
 28 31  1  0  0  0  0
 26 27  1  0  0  0  0
 26 28  1  0  0  0  0
M  END
$$$$
default_name
  -OEChem-01062215323D

 31 30  0     1  0  0  0  0  0999 V2000
   -3.0760   -3.6390    1.5496 H   0  0  0  0  0  0  0  0  0  0  0  0
   -3.0940   -2.6290    1.1426 C   0  0  0  0  0  0  0  0  0  0  0  0
   -3.7160   -1.9930    1.7706 H   0  0  0  0  0  0  0  0  0  0  0  0
   -3.4880   -2.6500    0.1286 H   0  0  0  0  0  0  0  0  0  0  0  0
   -1.6860   -2.0850    1.1196 C   0  0  0  0  0  0  0  0  0  0  0  0
   -0.7540   -2.7700    1.5226 O   0  0  0  0  0  0  0  0  0  0  0  0
   -1.5320   -0.8490    0.6496 N   0  0  0  0  0  0  0  0  0  0  0  0
   -2.3500   -0.3360    0.3566 H   0  0  0  0  0  0  0  0  0  0  0  0
   -0.2470   -0.1410    0.5576 C   0  0  1  0  0  0  0  0  0  0  0  0
   -0.3761    0.6854   -0.1421 H   0  0  0  0  0  0  0  0  0  0  0  0
    0.1366    0.4578    1.9348 C   0  0  1  0  0  0  0  0  0  0  0  0
    0.1058   -0.3577    2.6599 H   0  0  0  0  0  0  0  0  0  0  0  0
    1.5623    1.0416    1.9461 C   0  0  0  0  0  0  0  0  0  0  0  0
    1.6261    1.9119    1.2904 H   0  0  0  0  0  0  0  0  0  0  0  0
    1.8426    1.3359    2.9562 H   0  0  0  0  0  0  0  0  0  0  0  0
    2.2787    0.2925    1.6069 H   0  0  0  0  0  0  0  0  0  0  0  0
   -0.8962    1.5147    2.3865 C   0  0  0  0  0  0  0  0  0  0  0  0
   -0.8296    2.3967    1.7482 H   0  0  0  0  0  0  0  0  0  0  0  0
   -1.8963    1.0935    2.2847 H   0  0  0  0  0  0  0  0  0  0  0  0
   -0.7311    1.9541    3.8477 C   0  0  0  0  0  0  0  0  0  0  0  0
    0.2133    2.4807    3.9842 H   0  0  0  0  0  0  0  0  0  0  0  0
   -1.5455    2.6279    4.1147 H   0  0  0  0  0  0  0  0  0  0  0  0
   -0.7614    1.0840    4.5045 H   0  0  0  0  0  0  0  0  0  0  0  0
    0.8317   -1.0711   -0.0201 C   0  0  0  0  0  0  0  0  0  0  0  0
    2.0225   -0.7797    0.0821 O   0  0  0  0  0  0  0  0  0  0  0  0
    0.4193   -2.1959   -0.6184 N   0  0  0  0  0  0  0  0  0  0  0  0
   -0.5721   -2.3733   -0.6544 H   0  0  0  0  0  0  0  0  0  0  0  0
    1.3170   -3.1791   -1.2213 C   0  0  0  0  0  0  0  0  0  0  0  0
    2.0785   -3.4760   -0.4968 H   0  0  0  0  0  0  0  0  0  0  0  0
    0.7569   -4.0612   -1.5349 H   0  0  0  0  0  0  0  0  0  0  0  0
    1.8155   -2.7390   -2.0871 H   0  0  0  0  0  0  0  0  0  0  0  0
  5  6  2  0  0  0  0
  5  7  1  0  0  0  0
  2  3  1  0  0  0  0
  2  4  1  0  0  0  0
  2  5  1  0  0  0  0
  1  2  1  0  0  0  0
 24 25  2  0  0  0  0
 24 26  1  0  0  0  0
 20 21  1  0  0  0  0
 20 22  1  0  0  0  0
 20 23  1  0  0  0  0
 17 18  1  0  0  0  0
 17 19  1  0  0  0  0
 17 20  1  0  0  0  0
 13 14  1  0  0  0  0
 13 15  1  0  0  0  0
 13 16  1  0  0  0  0
 11 12  1  0  0  0  0
 11 13  1  0  0  0  0
 11 17  1  0  0  0  0
  9 10  1  0  0  0  0
  9 11  1  0  0  0  0
  9 24  1  0  0  0  0
  7  8  1  0  0  0  0
  7  9  1  0  0  0  0
 28 29  1  0  0  0  0
 28 30  1  0  0  0  0
 28 31  1  0  0  0  0
 26 27  1  0  0  0  0
 26 28  1  0  0  0  0
M  END
$$$$
default_name
  -OEChem-01062215323D

 31 30  0     1  0  0  0  0  0999 V2000
   -3.0760   -3.6390    1.5496 H   0  0  0  0  0  0  0  0  0  0  0  0
   -3.0940   -2.6290    1.1426 C   0  0  0  0  0  0  0  0  0  0  0  0
   -3.7160   -1.9930    1.7706 H   0  0  0  0  0  0  0  0  0  0  0  0
   -3.4880   -2.6500    0.1286 H   0  0  0  0  0  0  0  0  0  0  0  0
   -1.6860   -2.0850    1.1196 C   0  0  0  0  0  0  0  0  0  0  0  0
   -0.7540   -2.7700    1.5226 O   0  0  0  0  0  0  0  0  0  0  0  0
   -1.5320   -0.8490    0.6496 N   0  0  0  0  0  0  0  0  0  0  0  0
   -2.3500   -0.3360    0.3566 H   0  0  0  0  0  0  0  0  0  0  0  0
   -0.2470   -0.1410    0.5576 C   0  0  1  0  0  0  0  0  0  0  0  0
   -0.3761    0.6854   -0.1421 H   0  0  0  0  0  0  0  0  0  0  0  0
    0.1366    0.4578    1.9348 C   0  0  1  0  0  0  0  0  0  0  0  0
    0.1058   -0.3577    2.6599 H   0  0  0  0  0  0  0  0  0  0  0  0
    1.5623    1.0416    1.9461 C   0  0  0  0  0  0  0  0  0  0  0  0
    1.6261    1.9119    1.2904 H   0  0  0  0  0  0  0  0  0  0  0  0
    1.8426    1.3359    2.9562 H   0  0  0  0  0  0  0  0  0  0  0  0
    2.2787    0.2925    1.6069 H   0  0  0  0  0  0  0  0  0  0  0  0
   -0.8962    1.5147    2.3865 C   0  0  0  0  0  0  0  0  0  0  0  0
   -0.8296    2.3967    1.7482 H   0  0  0  0  0  0  0  0  0  0  0  0
   -1.8963    1.0935    2.2847 H   0  0  0  0  0  0  0  0  0  0  0  0
   -0.7311    1.9541    3.8477 C   0  0  0  0  0  0  0  0  0  0  0  0
    0.2133    2.4807    3.9842 H   0  0  0  0  0  0  0  0  0  0  0  0
   -1.5455    2.6279    4.1147 H   0  0  0  0  0  0  0  0  0  0  0  0
   -0.7614    1.0840    4.5045 H   0  0  0  0  0  0  0  0  0  0  0  0
    0.8317   -1.0711   -0.0201 C   0  0  0  0  0  0  0  0  0  0  0  0
    2.0091   -0.9369    0.3101 O   0  0  0  0  0  0  0  0  0  0  0  0
    0.4323   -2.0215   -0.8748 N   0  0  0  0  0  0  0  0  0  0  0  0
   -0.5506   -2.0780   -1.0897 H   0  0  0  0  0  0  0  0  0  0  0  0
    1.3330   -2.9789   -1.5138 C   0  0  0  0  0  0  0  0  0  0  0  0
    1.9367   -3.4805   -0.7542 H   0  0  0  0  0  0  0  0  0  0  0  0
    0.7614   -3.7249   -2.0679 H   0  0  0  0  0  0  0  0  0  0  0  0
    2.0027   -2.4534   -2.1973 H   0  0  0  0  0  0  0  0  0  0  0  0
  5  6  2  0  0  0  0
  5  7  1  0  0  0  0
  2  3  1  0  0  0  0
  2  4  1  0  0  0  0
  2  5  1  0  0  0  0
  1  2  1  0  0  0  0
 24 25  2  0  0  0  0
 24 26  1  0  0  0  0
 20 21  1  0  0  0  0
 20 22  1  0  0  0  0
 20 23  1  0  0  0  0
 17 18  1  0  0  0  0
 17 19  1  0  0  0  0
 17 20  1  0  0  0  0
 13 14  1  0  0  0  0
 13 15  1  0  0  0  0
 13 16  1  0  0  0  0
 11 12  1  0  0  0  0
 11 13  1  0  0  0  0
 11 17  1  0  0  0  0
  9 10  1  0  0  0  0
  9 11  1  0  0  0  0
  9 24  1  0  0  0  0
  7  8  1  0  0  0  0
  7  9  1  0  0  0  0
 28 29  1  0  0  0  0
 28 30  1  0  0  0  0
 28 31  1  0  0  0  0
 26 27  1  0  0  0  0
 26 28  1  0  0  0  0
M  END
$$$$
default_name
  -OEChem-01062215323D

 31 30  0     1  0  0  0  0  0999 V2000
   -3.0760   -3.6390    1.5496 H   0  0  0  0  0  0  0  0  0  0  0  0
   -3.0940   -2.6290    1.1426 C   0  0  0  0  0  0  0  0  0  0  0  0
   -3.7160   -1.9930    1.7706 H   0  0  0  0  0  0  0  0  0  0  0  0
   -3.4880   -2.6500    0.1286 H   0  0  0  0  0  0  0  0  0  0  0  0
   -1.6860   -2.0850    1.1196 C   0  0  0  0  0  0  0  0  0  0  0  0
   -0.7540   -2.7700    1.5226 O   0  0  0  0  0  0  0  0  0  0  0  0
   -1.5320   -0.8490    0.6496 N   0  0  0  0  0  0  0  0  0  0  0  0
   -2.3500   -0.3360    0.3566 H   0  0  0  0  0  0  0  0  0  0  0  0
   -0.2470   -0.1410    0.5576 C   0  0  1  0  0  0  0  0  0  0  0  0
   -0.3761    0.6854   -0.1421 H   0  0  0  0  0  0  0  0  0  0  0  0
    0.1366    0.4578    1.9348 C   0  0  1  0  0  0  0  0  0  0  0  0
    0.1058   -0.3577    2.6599 H   0  0  0  0  0  0  0  0  0  0  0  0
    1.5623    1.0416    1.9461 C   0  0  0  0  0  0  0  0  0  0  0  0
    1.6261    1.9119    1.2904 H   0  0  0  0  0  0  0  0  0  0  0  0
    1.8426    1.3359    2.9562 H   0  0  0  0  0  0  0  0  0  0  0  0
    2.2787    0.2925    1.6069 H   0  0  0  0  0  0  0  0  0  0  0  0
   -0.8962    1.5147    2.3865 C   0  0  0  0  0  0  0  0  0  0  0  0
   -0.8296    2.3967    1.7482 H   0  0  0  0  0  0  0  0  0  0  0  0
   -1.8963    1.0935    2.2847 H   0  0  0  0  0  0  0  0  0  0  0  0
   -0.7311    1.9541    3.8477 C   0  0  0  0  0  0  0  0  0  0  0  0
    0.2133    2.4807    3.9842 H   0  0  0  0  0  0  0  0  0  0  0  0
   -1.5455    2.6279    4.1147 H   0  0  0  0  0  0  0  0  0  0  0  0
   -0.7614    1.0840    4.5045 H   0  0  0  0  0  0  0  0  0  0  0  0
    0.8317   -1.0711   -0.0201 C   0  0  0  0  0  0  0  0  0  0  0  0
    1.9452   -1.1288    0.4997 O   0  0  0  0  0  0  0  0  0  0  0  0
    0.5021   -1.8077   -1.0887 N   0  0  0  0  0  0  0  0  0  0  0  0
   -0.4330   -1.7158   -1.4532 H   0  0  0  0  0  0  0  0  0  0  0  0
    1.4137   -2.7340   -1.7574 C   0  0  0  0  0  0  0  0  0  0  0  0
    1.8397   -3.4243   -1.0260 H   0  0  0  0  0  0  0  0  0  0  0  0
    0.8820   -3.3036   -2.5210 H   0  0  0  0  0  0  0  0  0  0  0  0
    2.2285   -2.1759   -2.2225 H   0  0  0  0  0  0  0  0  0  0  0  0
  5  6  2  0  0  0  0
  5  7  1  0  0  0  0
  2  3  1  0  0  0  0
  2  4  1  0  0  0  0
  2  5  1  0  0  0  0
  1  2  1  0  0  0  0
 24 25  2  0  0  0  0
 24 26  1  0  0  0  0
 20 21  1  0  0  0  0
 20 22  1  0  0  0  0
 20 23  1  0  0  0  0
 17 18  1  0  0  0  0
 17 19  1  0  0  0  0
 17 20  1  0  0  0  0
 13 14  1  0  0  0  0
 13 15  1  0  0  0  0
 13 16  1  0  0  0  0
 11 12  1  0  0  0  0
 11 13  1  0  0  0  0
 11 17  1  0  0  0  0
  9 10  1  0  0  0  0
  9 11  1  0  0  0  0
  9 24  1  0  0  0  0
  7  8  1  0  0  0  0
  7  9  1  0  0  0  0
 28 29  1  0  0  0  0
 28 30  1  0  0  0  0
 28 31  1  0  0  0  0
 26 27  1  0  0  0  0
 26 28  1  0  0  0  0
M  END
$$$$
default_name
  -OEChem-01062215323D

 31 30  0     1  0  0  0  0  0999 V2000
   -3.0760   -3.6390    1.5496 H   0  0  0  0  0  0  0  0  0  0  0  0
   -3.0940   -2.6290    1.1426 C   0  0  0  0  0  0  0  0  0  0  0  0
   -3.7160   -1.9930    1.7706 H   0  0  0  0  0  0  0  0  0  0  0  0
   -3.4880   -2.6500    0.1286 H   0  0  0  0  0  0  0  0  0  0  0  0
   -1.6860   -2.0850    1.1196 C   0  0  0  0  0  0  0  0  0  0  0  0
   -0.7540   -2.7700    1.5226 O   0  0  0  0  0  0  0  0  0  0  0  0
   -1.5320   -0.8490    0.6496 N   0  0  0  0  0  0  0  0  0  0  0  0
   -2.3500   -0.3360    0.3566 H   0  0  0  0  0  0  0  0  0  0  0  0
   -0.2470   -0.1410    0.5576 C   0  0  1  0  0  0  0  0  0  0  0  0
   -0.3761    0.6854   -0.1421 H   0  0  0  0  0  0  0  0  0  0  0  0
    0.1366    0.4578    1.9348 C   0  0  1  0  0  0  0  0  0  0  0  0
    0.1058   -0.3577    2.6599 H   0  0  0  0  0  0  0  0  0  0  0  0
    1.5623    1.0416    1.9461 C   0  0  0  0  0  0  0  0  0  0  0  0
    1.6261    1.9119    1.2904 H   0  0  0  0  0  0  0  0  0  0  0  0
    1.8426    1.3359    2.9562 H   0  0  0  0  0  0  0  0  0  0  0  0
    2.2787    0.2925    1.6069 H   0  0  0  0  0  0  0  0  0  0  0  0
   -0.8962    1.5147    2.3865 C   0  0  0  0  0  0  0  0  0  0  0  0
   -0.8296    2.3967    1.7482 H   0  0  0  0  0  0  0  0  0  0  0  0
   -1.8963    1.0935    2.2847 H   0  0  0  0  0  0  0  0  0  0  0  0
   -0.7311    1.9541    3.8477 C   0  0  0  0  0  0  0  0  0  0  0  0
    0.2133    2.4807    3.9842 H   0  0  0  0  0  0  0  0  0  0  0  0
   -1.5455    2.6279    4.1147 H   0  0  0  0  0  0  0  0  0  0  0  0
   -0.7614    1.0840    4.5045 H   0  0  0  0  0  0  0  0  0  0  0  0
    0.8317   -1.0711   -0.0201 C   0  0  0  0  0  0  0  0  0  0  0  0
    1.8351   -1.3423    0.6379 O   0  0  0  0  0  0  0  0  0  0  0  0
    0.6237   -1.5691   -1.2456 N   0  0  0  0  0  0  0  0  0  0  0  0
   -0.2272   -1.3113   -1.7201 H   0  0  0  0  0  0  0  0  0  0  0  0
    1.5536   -2.4610   -1.9356 C   0  0  0  0  0  0  0  0  0  0  0  0
    1.7939   -3.3112   -1.2934 H   0  0  0  0  0  0  0  0  0  0  0  0
    1.1104   -2.8261   -2.8632 H   0  0  0  0  0  0  0  0  0  0  0  0
    2.4776   -1.9251   -2.1611 H   0  0  0  0  0  0  0  0  0  0  0  0
  5  6  2  0  0  0  0
  5  7  1  0  0  0  0
  2  3  1  0  0  0  0
  2  4  1  0  0  0  0
  2  5  1  0  0  0  0
  1  2  1  0  0  0  0
 24 25  2  0  0  0  0
 24 26  1  0  0  0  0
 20 21  1  0  0  0  0
 20 22  1  0  0  0  0
 20 23  1  0  0  0  0
 17 18  1  0  0  0  0
 17 19  1  0  0  0  0
 17 20  1  0  0  0  0
 13 14  1  0  0  0  0
 13 15  1  0  0  0  0
 13 16  1  0  0  0  0
 11 12  1  0  0  0  0
 11 13  1  0  0  0  0
 11 17  1  0  0  0  0
  9 10  1  0  0  0  0
  9 11  1  0  0  0  0
  9 24  1  0  0  0  0
  7  8  1  0  0  0  0
  7  9  1  0  0  0  0
 28 29  1  0  0  0  0
 28 30  1  0  0  0  0
 28 31  1  0  0  0  0
 26 27  1  0  0  0  0
 26 28  1  0  0  0  0
M  END
$$$$
default_name
  -OEChem-01062215323D

 31 30  0     1  0  0  0  0  0999 V2000
   -3.0760   -3.6390    1.5496 H   0  0  0  0  0  0  0  0  0  0  0  0
   -3.0940   -2.6290    1.1426 C   0  0  0  0  0  0  0  0  0  0  0  0
   -3.7160   -1.9930    1.7706 H   0  0  0  0  0  0  0  0  0  0  0  0
   -3.4880   -2.6500    0.1286 H   0  0  0  0  0  0  0  0  0  0  0  0
   -1.6860   -2.0850    1.1196 C   0  0  0  0  0  0  0  0  0  0  0  0
   -0.7540   -2.7700    1.5226 O   0  0  0  0  0  0  0  0  0  0  0  0
   -1.5320   -0.8490    0.6496 N   0  0  0  0  0  0  0  0  0  0  0  0
   -2.3500   -0.3360    0.3566 H   0  0  0  0  0  0  0  0  0  0  0  0
   -0.2470   -0.1410    0.5576 C   0  0  1  0  0  0  0  0  0  0  0  0
   -0.3761    0.6854   -0.1421 H   0  0  0  0  0  0  0  0  0  0  0  0
    0.1366    0.4578    1.9348 C   0  0  1  0  0  0  0  0  0  0  0  0
    0.1058   -0.3577    2.6599 H   0  0  0  0  0  0  0  0  0  0  0  0
    1.5623    1.0416    1.9461 C   0  0  0  0  0  0  0  0  0  0  0  0
    1.6261    1.9119    1.2904 H   0  0  0  0  0  0  0  0  0  0  0  0
    1.8426    1.3359    2.9562 H   0  0  0  0  0  0  0  0  0  0  0  0
    2.2787    0.2925    1.6069 H   0  0  0  0  0  0  0  0  0  0  0  0
   -0.8962    1.5147    2.3865 C   0  0  0  0  0  0  0  0  0  0  0  0
   -0.8296    2.3967    1.7482 H   0  0  0  0  0  0  0  0  0  0  0  0
   -1.8963    1.0935    2.2847 H   0  0  0  0  0  0  0  0  0  0  0  0
   -0.7311    1.9541    3.8477 C   0  0  0  0  0  0  0  0  0  0  0  0
    0.2133    2.4807    3.9842 H   0  0  0  0  0  0  0  0  0  0  0  0
   -1.5455    2.6279    4.1147 H   0  0  0  0  0  0  0  0  0  0  0  0
   -0.7614    1.0840    4.5045 H   0  0  0  0  0  0  0  0  0  0  0  0
    0.8317   -1.0711   -0.0201 C   0  0  0  0  0  0  0  0  0  0  0  0
    1.6863   -1.5630    0.7154 O   0  0  0  0  0  0  0  0  0  0  0  0
    0.7890   -1.3220   -1.3348 N   0  0  0  0  0  0  0  0  0  0  0  0
    0.0528   -0.8922   -1.8722 H   0  0  0  0  0  0  0  0  0  0  0  0
    1.7433   -2.1786   -2.0363 C   0  0  0  0  0  0  0  0  0  0  0  0
    1.8026   -3.1489   -1.5384 H   0  0  0  0  0  0  0  0  0  0  0  0
    1.4311   -2.3250   -3.0713 H   0  0  0  0  0  0  0  0  0  0  0  0
    2.7330   -1.7183   -2.0172 H   0  0  0  0  0  0  0  0  0  0  0  0
  5  6  2  0  0  0  0
  5  7  1  0  0  0  0
  2  3  1  0  0  0  0
  2  4  1  0  0  0  0
  2  5  1  0  0  0  0
  1  2  1  0  0  0  0
 24 25  2  0  0  0  0
 24 26  1  0  0  0  0
 20 21  1  0  0  0  0
 20 22  1  0  0  0  0
 20 23  1  0  0  0  0
 17 18  1  0  0  0  0
 17 19  1  0  0  0  0
 17 20  1  0  0  0  0
 13 14  1  0  0  0  0
 13 15  1  0  0  0  0
 13 16  1  0  0  0  0
 11 12  1  0  0  0  0
 11 13  1  0  0  0  0
 11 17  1  0  0  0  0
  9 10  1  0  0  0  0
  9 11  1  0  0  0  0
  9 24  1  0  0  0  0
  7  8  1  0  0  0  0
  7  9  1  0  0  0  0
 28 29  1  0  0  0  0
 28 30  1  0  0  0  0
 28 31  1  0  0  0  0
 26 27  1  0  0  0  0
 26 28  1  0  0  0  0
M  END
$$$$
default_name
  -OEChem-01062215323D

 31 30  0     1  0  0  0  0  0999 V2000
   -3.0760   -3.6390    1.5496 H   0  0  0  0  0  0  0  0  0  0  0  0
   -3.0940   -2.6290    1.1426 C   0  0  0  0  0  0  0  0  0  0  0  0
   -3.7160   -1.9930    1.7706 H   0  0  0  0  0  0  0  0  0  0  0  0
   -3.4880   -2.6500    0.1286 H   0  0  0  0  0  0  0  0  0  0  0  0
   -1.6860   -2.0850    1.1196 C   0  0  0  0  0  0  0  0  0  0  0  0
   -0.7540   -2.7700    1.5226 O   0  0  0  0  0  0  0  0  0  0  0  0
   -1.5320   -0.8490    0.6496 N   0  0  0  0  0  0  0  0  0  0  0  0
   -2.3500   -0.3360    0.3566 H   0  0  0  0  0  0  0  0  0  0  0  0
   -0.2470   -0.1410    0.5576 C   0  0  1  0  0  0  0  0  0  0  0  0
   -0.3761    0.6854   -0.1421 H   0  0  0  0  0  0  0  0  0  0  0  0
    0.1366    0.4578    1.9348 C   0  0  1  0  0  0  0  0  0  0  0  0
    0.1058   -0.3577    2.6599 H   0  0  0  0  0  0  0  0  0  0  0  0
    1.5623    1.0416    1.9461 C   0  0  0  0  0  0  0  0  0  0  0  0
    1.6261    1.9119    1.2904 H   0  0  0  0  0  0  0  0  0  0  0  0
    1.8426    1.3359    2.9562 H   0  0  0  0  0  0  0  0  0  0  0  0
    2.2787    0.2925    1.6069 H   0  0  0  0  0  0  0  0  0  0  0  0
   -0.8962    1.5147    2.3865 C   0  0  0  0  0  0  0  0  0  0  0  0
   -0.8296    2.3967    1.7482 H   0  0  0  0  0  0  0  0  0  0  0  0
   -1.8963    1.0935    2.2847 H   0  0  0  0  0  0  0  0  0  0  0  0
   -0.7311    1.9541    3.8477 C   0  0  0  0  0  0  0  0  0  0  0  0
    0.2133    2.4807    3.9842 H   0  0  0  0  0  0  0  0  0  0  0  0
   -1.5455    2.6279    4.1147 H   0  0  0  0  0  0  0  0  0  0  0  0
   -0.7614    1.0840    4.5045 H   0  0  0  0  0  0  0  0  0  0  0  0
    0.8317   -1.0711   -0.0201 C   0  0  0  0  0  0  0  0  0  0  0  0
    1.5090   -1.7758    0.7269 O   0  0  0  0  0  0  0  0  0  0  0  0
    0.9867   -1.0832   -1.3502 N   0  0  0  0  0  0  0  0  0  0  0  0
    0.3877   -0.4870   -1.8991 H   0  0  0  0  0  0  0  0  0  0  0  0
    1.9697   -1.9059   -2.0525 C   0  0  0  0  0  0  0  0  0  0  0  0
    1.8652   -2.9485   -1.7442 H   0  0  0  0  0  0  0  0  0  0  0  0
    1.8222   -1.8343   -3.1310 H   0  0  0  0  0  0  0  0  0  0  0  0
    2.9772   -1.5695   -1.8007 H   0  0  0  0  0  0  0  0  0  0  0  0
  5  6  2  0  0  0  0
  5  7  1  0  0  0  0
  2  3  1  0  0  0  0
  2  4  1  0  0  0  0
  2  5  1  0  0  0  0
  1  2  1  0  0  0  0
 24 25  2  0  0  0  0
 24 26  1  0  0  0  0
 20 21  1  0  0  0  0
 20 22  1  0  0  0  0
 20 23  1  0  0  0  0
 17 18  1  0  0  0  0
 17 19  1  0  0  0  0
 17 20  1  0  0  0  0
 13 14  1  0  0  0  0
 13 15  1  0  0  0  0
 13 16  1  0  0  0  0
 11 12  1  0  0  0  0
 11 13  1  0  0  0  0
 11 17  1  0  0  0  0
  9 10  1  0  0  0  0
  9 11  1  0  0  0  0
  9 24  1  0  0  0  0
  7  8  1  0  0  0  0
  7  9  1  0  0  0  0
 28 29  1  0  0  0  0
 28 30  1  0  0  0  0
 28 31  1  0  0  0  0
 26 27  1  0  0  0  0
 26 28  1  0  0  0  0
M  END
$$$$
default_name
  -OEChem-01062215323D

 31 30  0     1  0  0  0  0  0999 V2000
   -3.0760   -3.6390    1.5496 H   0  0  0  0  0  0  0  0  0  0  0  0
   -3.0940   -2.6290    1.1426 C   0  0  0  0  0  0  0  0  0  0  0  0
   -3.7160   -1.9930    1.7706 H   0  0  0  0  0  0  0  0  0  0  0  0
   -3.4880   -2.6500    0.1286 H   0  0  0  0  0  0  0  0  0  0  0  0
   -1.6860   -2.0850    1.1196 C   0  0  0  0  0  0  0  0  0  0  0  0
   -0.7540   -2.7700    1.5226 O   0  0  0  0  0  0  0  0  0  0  0  0
   -1.5320   -0.8490    0.6496 N   0  0  0  0  0  0  0  0  0  0  0  0
   -2.3500   -0.3360    0.3566 H   0  0  0  0  0  0  0  0  0  0  0  0
   -0.2470   -0.1410    0.5576 C   0  0  1  0  0  0  0  0  0  0  0  0
   -0.3761    0.6854   -0.1421 H   0  0  0  0  0  0  0  0  0  0  0  0
    0.1366    0.4578    1.9348 C   0  0  1  0  0  0  0  0  0  0  0  0
    0.1058   -0.3577    2.6599 H   0  0  0  0  0  0  0  0  0  0  0  0
    1.5623    1.0416    1.9461 C   0  0  0  0  0  0  0  0  0  0  0  0
    1.6261    1.9119    1.2904 H   0  0  0  0  0  0  0  0  0  0  0  0
    1.8426    1.3359    2.9562 H   0  0  0  0  0  0  0  0  0  0  0  0
    2.2787    0.2925    1.6069 H   0  0  0  0  0  0  0  0  0  0  0  0
   -0.8962    1.5147    2.3865 C   0  0  0  0  0  0  0  0  0  0  0  0
   -0.8296    2.3967    1.7482 H   0  0  0  0  0  0  0  0  0  0  0  0
   -1.8963    1.0935    2.2847 H   0  0  0  0  0  0  0  0  0  0  0  0
   -0.7311    1.9541    3.8477 C   0  0  0  0  0  0  0  0  0  0  0  0
    0.2133    2.4807    3.9842 H   0  0  0  0  0  0  0  0  0  0  0  0
   -1.5455    2.6279    4.1147 H   0  0  0  0  0  0  0  0  0  0  0  0
   -0.7614    1.0840    4.5045 H   0  0  0  0  0  0  0  0  0  0  0  0
    0.8317   -1.0711   -0.0201 C   0  0  0  0  0  0  0  0  0  0  0  0
    1.3152   -1.9662    0.6715 O   0  0  0  0  0  0  0  0  0  0  0  0
    1.2033   -0.8690   -1.2907 N   0  0  0  0  0  0  0  0  0  0  0  0
    0.7550   -0.1232   -1.7991 H   0  0  0  0  0  0  0  0  0  0  0  0
    2.2174   -1.6617   -1.9831 C   0  0  0  0  0  0  0  0  0  0  0  0
    1.9774   -2.7237   -1.8967 H   0  0  0  0  0  0  0  0  0  0  0  0
    2.2570   -1.3875   -3.0383 H   0  0  0  0  0  0  0  0  0  0  0  0
    3.1937   -1.4889   -1.5263 H   0  0  0  0  0  0  0  0  0  0  0  0
  5  6  2  0  0  0  0
  5  7  1  0  0  0  0
  2  3  1  0  0  0  0
  2  4  1  0  0  0  0
  2  5  1  0  0  0  0
  1  2  1  0  0  0  0
 24 25  2  0  0  0  0
 24 26  1  0  0  0  0
 20 21  1  0  0  0  0
 20 22  1  0  0  0  0
 20 23  1  0  0  0  0
 17 18  1  0  0  0  0
 17 19  1  0  0  0  0
 17 20  1  0  0  0  0
 13 14  1  0  0  0  0
 13 15  1  0  0  0  0
 13 16  1  0  0  0  0
 11 12  1  0  0  0  0
 11 13  1  0  0  0  0
 11 17  1  0  0  0  0
  9 10  1  0  0  0  0
  9 11  1  0  0  0  0
  9 24  1  0  0  0  0
  7  8  1  0  0  0  0
  7  9  1  0  0  0  0
 28 29  1  0  0  0  0
 28 30  1  0  0  0  0
 28 31  1  0  0  0  0
 26 27  1  0  0  0  0
 26 28  1  0  0  0  0
M  END
$$$$
default_name
  -OEChem-01062215323D

 31 30  0     1  0  0  0  0  0999 V2000
   -3.0760   -3.6390    1.5496 H   0  0  0  0  0  0  0  0  0  0  0  0
   -3.0940   -2.6290    1.1426 C   0  0  0  0  0  0  0  0  0  0  0  0
   -3.7160   -1.9930    1.7706 H   0  0  0  0  0  0  0  0  0  0  0  0
   -3.4880   -2.6500    0.1286 H   0  0  0  0  0  0  0  0  0  0  0  0
   -1.6860   -2.0850    1.1196 C   0  0  0  0  0  0  0  0  0  0  0  0
   -0.7540   -2.7700    1.5226 O   0  0  0  0  0  0  0  0  0  0  0  0
   -1.5320   -0.8490    0.6496 N   0  0  0  0  0  0  0  0  0  0  0  0
   -2.3500   -0.3360    0.3566 H   0  0  0  0  0  0  0  0  0  0  0  0
   -0.2470   -0.1410    0.5576 C   0  0  1  0  0  0  0  0  0  0  0  0
   -0.3761    0.6854   -0.1421 H   0  0  0  0  0  0  0  0  0  0  0  0
    0.1366    0.4578    1.9348 C   0  0  1  0  0  0  0  0  0  0  0  0
    0.1058   -0.3577    2.6599 H   0  0  0  0  0  0  0  0  0  0  0  0
    1.5623    1.0416    1.9461 C   0  0  0  0  0  0  0  0  0  0  0  0
    1.6261    1.9119    1.2904 H   0  0  0  0  0  0  0  0  0  0  0  0
    1.8426    1.3359    2.9562 H   0  0  0  0  0  0  0  0  0  0  0  0
    2.2787    0.2925    1.6069 H   0  0  0  0  0  0  0  0  0  0  0  0
   -0.8962    1.5147    2.3865 C   0  0  0  0  0  0  0  0  0  0  0  0
   -0.8296    2.3967    1.7482 H   0  0  0  0  0  0  0  0  0  0  0  0
   -1.8963    1.0935    2.2847 H   0  0  0  0  0  0  0  0  0  0  0  0
   -0.7311    1.9541    3.8477 C   0  0  0  0  0  0  0  0  0  0  0  0
    0.2133    2.4807    3.9842 H   0  0  0  0  0  0  0  0  0  0  0  0
   -1.5455    2.6279    4.1147 H   0  0  0  0  0  0  0  0  0  0  0  0
   -0.7614    1.0840    4.5045 H   0  0  0  0  0  0  0  0  0  0  0  0
    0.8317   -1.0711   -0.0201 C   0  0  0  0  0  0  0  0  0  0  0  0
    1.1182   -2.1212    0.5531 O   0  0  0  0  0  0  0  0  0  0  0  0
    1.4240   -0.6939   -1.1604 N   0  0  0  0  0  0  0  0  0  0  0  0
    1.1294    0.1742   -1.5788 H   0  0  0  0  0  0  0  0  0  0  0  0
    2.4696   -1.4624   -1.8330 C   0  0  0  0  0  0  0  0  0  0  0  0
    2.1315   -2.4897   -1.9857 H   0  0  0  0  0  0  0  0  0  0  0  0
    2.7060   -1.0151   -2.7995 H   0  0  0  0  0  0  0  0  0  0  0  0
    3.3677   -1.4819   -1.2126 H   0  0  0  0  0  0  0  0  0  0  0  0
  5  6  2  0  0  0  0
  5  7  1  0  0  0  0
  2  3  1  0  0  0  0
  2  4  1  0  0  0  0
  2  5  1  0  0  0  0
  1  2  1  0  0  0  0
 24 25  2  0  0  0  0
 24 26  1  0  0  0  0
 20 21  1  0  0  0  0
 20 22  1  0  0  0  0
 20 23  1  0  0  0  0
 17 18  1  0  0  0  0
 17 19  1  0  0  0  0
 17 20  1  0  0  0  0
 13 14  1  0  0  0  0
 13 15  1  0  0  0  0
 13 16  1  0  0  0  0
 11 12  1  0  0  0  0
 11 13  1  0  0  0  0
 11 17  1  0  0  0  0
  9 10  1  0  0  0  0
  9 11  1  0  0  0  0
  9 24  1  0  0  0  0
  7  8  1  0  0  0  0
  7  9  1  0  0  0  0
 28 29  1  0  0  0  0
 28 30  1  0  0  0  0
 28 31  1  0  0  0  0
 26 27  1  0  0  0  0
 26 28  1  0  0  0  0
M  END
$$$$
default_name
  -OEChem-01062215323D

 31 30  0     1  0  0  0  0  0999 V2000
   -3.0760   -3.6390    1.5496 H   0  0  0  0  0  0  0  0  0  0  0  0
   -3.0940   -2.6290    1.1426 C   0  0  0  0  0  0  0  0  0  0  0  0
   -3.7160   -1.9930    1.7706 H   0  0  0  0  0  0  0  0  0  0  0  0
   -3.4880   -2.6500    0.1286 H   0  0  0  0  0  0  0  0  0  0  0  0
   -1.6860   -2.0850    1.1196 C   0  0  0  0  0  0  0  0  0  0  0  0
   -0.7540   -2.7700    1.5226 O   0  0  0  0  0  0  0  0  0  0  0  0
   -1.5320   -0.8490    0.6496 N   0  0  0  0  0  0  0  0  0  0  0  0
   -2.3500   -0.3360    0.3566 H   0  0  0  0  0  0  0  0  0  0  0  0
   -0.2470   -0.1410    0.5576 C   0  0  1  0  0  0  0  0  0  0  0  0
   -0.3761    0.6854   -0.1421 H   0  0  0  0  0  0  0  0  0  0  0  0
    0.1366    0.4578    1.9348 C   0  0  1  0  0  0  0  0  0  0  0  0
    0.1058   -0.3577    2.6599 H   0  0  0  0  0  0  0  0  0  0  0  0
    1.5623    1.0416    1.9461 C   0  0  0  0  0  0  0  0  0  0  0  0
    1.6261    1.9119    1.2904 H   0  0  0  0  0  0  0  0  0  0  0  0
    1.8426    1.3359    2.9562 H   0  0  0  0  0  0  0  0  0  0  0  0
    2.2787    0.2925    1.6069 H   0  0  0  0  0  0  0  0  0  0  0  0
   -0.8962    1.5147    2.3865 C   0  0  0  0  0  0  0  0  0  0  0  0
   -0.8296    2.3967    1.7482 H   0  0  0  0  0  0  0  0  0  0  0  0
   -1.8963    1.0935    2.2847 H   0  0  0  0  0  0  0  0  0  0  0  0
   -0.7311    1.9541    3.8477 C   0  0  0  0  0  0  0  0  0  0  0  0
    0.2133    2.4807    3.9842 H   0  0  0  0  0  0  0  0  0  0  0  0
   -1.5455    2.6279    4.1147 H   0  0  0  0  0  0  0  0  0  0  0  0
   -0.7614    1.0840    4.5045 H   0  0  0  0  0  0  0  0  0  0  0  0
    0.8317   -1.0711   -0.0201 C   0  0  0  0  0  0  0  0  0  0  0  0
    0.9313   -2.2302    0.3797 O   0  0  0  0  0  0  0  0  0  0  0  0
    1.6338   -0.5700   -0.9681 N   0  0  0  0  0  0  0  0  0  0  0  0
    1.4855    0.3851   -1.2534 H   0  0  0  0  0  0  0  0  0  0  0  0
    2.7091   -1.3218   -1.6122 C   0  0  0  0  0  0  0  0  0  0  0  0
    2.3170   -2.2625   -2.0050 H   0  0  0  0  0  0  0  0  0  0  0  0
    3.1385   -0.7425   -2.4309 H   0  0  0  0  0  0  0  0  0  0  0  0
    3.4873   -1.5491   -0.8812 H   0  0  0  0  0  0  0  0  0  0  0  0
  5  6  2  0  0  0  0
  5  7  1  0  0  0  0
  2  3  1  0  0  0  0
  2  4  1  0  0  0  0
  2  5  1  0  0  0  0
  1  2  1  0  0  0  0
 24 25  2  0  0  0  0
 24 26  1  0  0  0  0
 20 21  1  0  0  0  0
 20 22  1  0  0  0  0
 20 23  1  0  0  0  0
 17 18  1  0  0  0  0
 17 19  1  0  0  0  0
 17 20  1  0  0  0  0
 13 14  1  0  0  0  0
 13 15  1  0  0  0  0
 13 16  1  0  0  0  0
 11 12  1  0  0  0  0
 11 13  1  0  0  0  0
 11 17  1  0  0  0  0
  9 10  1  0  0  0  0
  9 11  1  0  0  0  0
  9 24  1  0  0  0  0
  7  8  1  0  0  0  0
  7  9  1  0  0  0  0
 28 29  1  0  0  0  0
 28 30  1  0  0  0  0
 28 31  1  0  0  0  0
 26 27  1  0  0  0  0
 26 28  1  0  0  0  0
M  END
$$$$
default_name
  -OEChem-01062215323D

 31 30  0     1  0  0  0  0  0999 V2000
   -3.0760   -3.6390    1.5496 H   0  0  0  0  0  0  0  0  0  0  0  0
   -3.0940   -2.6290    1.1426 C   0  0  0  0  0  0  0  0  0  0  0  0
   -3.7160   -1.9930    1.7706 H   0  0  0  0  0  0  0  0  0  0  0  0
   -3.4880   -2.6500    0.1286 H   0  0  0  0  0  0  0  0  0  0  0  0
   -1.6860   -2.0850    1.1196 C   0  0  0  0  0  0  0  0  0  0  0  0
   -0.7540   -2.7700    1.5226 O   0  0  0  0  0  0  0  0  0  0  0  0
   -1.5320   -0.8490    0.6496 N   0  0  0  0  0  0  0  0  0  0  0  0
   -2.3500   -0.3360    0.3566 H   0  0  0  0  0  0  0  0  0  0  0  0
   -0.2470   -0.1410    0.5576 C   0  0  1  0  0  0  0  0  0  0  0  0
   -0.3761    0.6854   -0.1421 H   0  0  0  0  0  0  0  0  0  0  0  0
    0.1366    0.4578    1.9348 C   0  0  1  0  0  0  0  0  0  0  0  0
    0.1058   -0.3577    2.6599 H   0  0  0  0  0  0  0  0  0  0  0  0
    1.5623    1.0416    1.9461 C   0  0  0  0  0  0  0  0  0  0  0  0
    1.6261    1.9119    1.2904 H   0  0  0  0  0  0  0  0  0  0  0  0
    1.8426    1.3359    2.9562 H   0  0  0  0  0  0  0  0  0  0  0  0
    2.2787    0.2925    1.6069 H   0  0  0  0  0  0  0  0  0  0  0  0
   -0.8962    1.5147    2.3865 C   0  0  0  0  0  0  0  0  0  0  0  0
   -0.8296    2.3967    1.7482 H   0  0  0  0  0  0  0  0  0  0  0  0
   -1.8963    1.0935    2.2847 H   0  0  0  0  0  0  0  0  0  0  0  0
   -0.7311    1.9541    3.8477 C   0  0  0  0  0  0  0  0  0  0  0  0
    0.2133    2.4807    3.9842 H   0  0  0  0  0  0  0  0  0  0  0  0
   -1.5455    2.6279    4.1147 H   0  0  0  0  0  0  0  0  0  0  0  0
   -0.7614    1.0840    4.5045 H   0  0  0  0  0  0  0  0  0  0  0  0
    0.8317   -1.0711   -0.0201 C   0  0  0  0  0  0  0  0  0  0  0  0
    0.7674   -2.2858    0.1632 O   0  0  0  0  0  0  0  0  0  0  0  0
    1.8185   -0.5056   -0.7271 N   0  0  0  0  0  0  0  0  0  0  0  0
    1.7990    0.4951   -0.8450 H   0  0  0  0  0  0  0  0  0  0  0  0
    2.9195   -1.2493   -1.3360 C   0  0  0  0  0  0  0  0  0  0  0  0
    2.5214   -2.0576   -1.9533 H   0  0  0  0  0  0  0  0  0  0  0  0
    3.5251   -0.5881   -1.9576 H   0  0  0  0  0  0  0  0  0  0  0  0
    3.5444   -1.6858   -0.5545 H   0  0  0  0  0  0  0  0  0  0  0  0
  5  6  2  0  0  0  0
  5  7  1  0  0  0  0
  2  3  1  0  0  0  0
  2  4  1  0  0  0  0
  2  5  1  0  0  0  0
  1  2  1  0  0  0  0
 24 25  2  0  0  0  0
 24 26  1  0  0  0  0
 20 21  1  0  0  0  0
 20 22  1  0  0  0  0
 20 23  1  0  0  0  0
 17 18  1  0  0  0  0
 17 19  1  0  0  0  0
 17 20  1  0  0  0  0
 13 14  1  0  0  0  0
 13 15  1  0  0  0  0
 13 16  1  0  0  0  0
 11 12  1  0  0  0  0
 11 13  1  0  0  0  0
 11 17  1  0  0  0  0
  9 10  1  0  0  0  0
  9 11  1  0  0  0  0
  9 24  1  0  0  0  0
  7  8  1  0  0  0  0
  7  9  1  0  0  0  0
 28 29  1  0  0  0  0
 28 30  1  0  0  0  0
 28 31  1  0  0  0  0
 26 27  1  0  0  0  0
 26 28  1  0  0  0  0
M  END
$$$$
default_name
  -OEChem-01062215323D

 31 30  0     1  0  0  0  0  0999 V2000
   -3.0760   -3.6390    1.5496 H   0  0  0  0  0  0  0  0  0  0  0  0
   -3.0940   -2.6290    1.1426 C   0  0  0  0  0  0  0  0  0  0  0  0
   -3.7160   -1.9930    1.7706 H   0  0  0  0  0  0  0  0  0  0  0  0
   -3.4880   -2.6500    0.1286 H   0  0  0  0  0  0  0  0  0  0  0  0
   -1.6860   -2.0850    1.1196 C   0  0  0  0  0  0  0  0  0  0  0  0
   -0.7540   -2.7700    1.5226 O   0  0  0  0  0  0  0  0  0  0  0  0
   -1.5320   -0.8490    0.6496 N   0  0  0  0  0  0  0  0  0  0  0  0
   -2.3500   -0.3360    0.3566 H   0  0  0  0  0  0  0  0  0  0  0  0
   -0.2470   -0.1410    0.5576 C   0  0  1  0  0  0  0  0  0  0  0  0
   -0.3761    0.6854   -0.1421 H   0  0  0  0  0  0  0  0  0  0  0  0
    0.1366    0.4578    1.9348 C   0  0  1  0  0  0  0  0  0  0  0  0
    0.1058   -0.3577    2.6599 H   0  0  0  0  0  0  0  0  0  0  0  0
    1.5623    1.0416    1.9461 C   0  0  0  0  0  0  0  0  0  0  0  0
    1.6261    1.9119    1.2904 H   0  0  0  0  0  0  0  0  0  0  0  0
    1.8426    1.3359    2.9562 H   0  0  0  0  0  0  0  0  0  0  0  0
    2.2787    0.2925    1.6069 H   0  0  0  0  0  0  0  0  0  0  0  0
   -0.8962    1.5147    2.3865 C   0  0  0  0  0  0  0  0  0  0  0  0
   -0.8296    2.3967    1.7482 H   0  0  0  0  0  0  0  0  0  0  0  0
   -1.8963    1.0935    2.2847 H   0  0  0  0  0  0  0  0  0  0  0  0
   -0.7311    1.9541    3.8477 C   0  0  0  0  0  0  0  0  0  0  0  0
    0.2133    2.4807    3.9842 H   0  0  0  0  0  0  0  0  0  0  0  0
   -1.5455    2.6279    4.1147 H   0  0  0  0  0  0  0  0  0  0  0  0
   -0.7614    1.0840    4.5045 H   0  0  0  0  0  0  0  0  0  0  0  0
    0.8317   -1.0711   -0.0201 C   0  0  0  0  0  0  0  0  0  0  0  0
    0.6375   -2.2843   -0.0817 O   0  0  0  0  0  0  0  0  0  0  0  0
    1.9653   -0.5051   -0.4536 N   0  0  0  0  0  0  0  0  0  0  0  0
    2.0486    0.4966   -0.3814 H   0  0  0  0  0  0  0  0  0  0  0  0
    3.0866   -1.2499   -1.0230 C   0  0  0  0  0  0  0  0  0  0  0  0
    2.7306   -1.8890   -1.8341 H   0  0  0  0  0  0  0  0  0  0  0  0
    3.8393   -0.5626   -1.4118 H   0  0  0  0  0  0  0  0  0  0  0  0
    3.5351   -1.8827   -0.2548 H   0  0  0  0  0  0  0  0  0  0  0  0
  5  6  2  0  0  0  0
  5  7  1  0  0  0  0
  2  3  1  0  0  0  0
  2  4  1  0  0  0  0
  2  5  1  0  0  0  0
  1  2  1  0  0  0  0
 24 25  2  0  0  0  0
 24 26  1  0  0  0  0
 20 21  1  0  0  0  0
 20 22  1  0  0  0  0
 20 23  1  0  0  0  0
 17 18  1  0  0  0  0
 17 19  1  0  0  0  0
 17 20  1  0  0  0  0
 13 14  1  0  0  0  0
 13 15  1  0  0  0  0
 13 16  1  0  0  0  0
 11 12  1  0  0  0  0
 11 13  1  0  0  0  0
 11 17  1  0  0  0  0
  9 10  1  0  0  0  0
  9 11  1  0  0  0  0
  9 24  1  0  0  0  0
  7  8  1  0  0  0  0
  7  9  1  0  0  0  0
 28 29  1  0  0  0  0
 28 30  1  0  0  0  0
 28 31  1  0  0  0  0
 26 27  1  0  0  0  0
 26 28  1  0  0  0  0
M  END
$$$$
default_name
  -OEChem-01062215323D

 31 30  0     1  0  0  0  0  0999 V2000
   -3.0760   -3.6390    1.5496 H   0  0  0  0  0  0  0  0  0  0  0  0
   -3.0940   -2.6290    1.1426 C   0  0  0  0  0  0  0  0  0  0  0  0
   -3.7160   -1.9930    1.7706 H   0  0  0  0  0  0  0  0  0  0  0  0
   -3.4880   -2.6500    0.1286 H   0  0  0  0  0  0  0  0  0  0  0  0
   -1.6860   -2.0850    1.1196 C   0  0  0  0  0  0  0  0  0  0  0  0
   -0.7540   -2.7700    1.5226 O   0  0  0  0  0  0  0  0  0  0  0  0
   -1.5320   -0.8490    0.6496 N   0  0  0  0  0  0  0  0  0  0  0  0
   -2.3500   -0.3360    0.3566 H   0  0  0  0  0  0  0  0  0  0  0  0
   -0.2470   -0.1410    0.5576 C   0  0  1  0  0  0  0  0  0  0  0  0
   -0.4358    0.8231    0.0841 H   0  0  0  0  0  0  0  0  0  0  0  0
    0.3209    0.1285    1.9744 C   0  0  1  0  0  0  0  0  0  0  0  0
    0.3545   -0.8304    2.4951 H   0  0  0  0  0  0  0  0  0  0  0  0
    1.7544    0.6917    1.9364 C   0  0  0  0  0  0  0  0  0  0  0  0
    1.7637    1.6881    1.4909 H   0  0  0  0  0  0  0  0  0  0  0  0
    2.1654    0.7483    2.9430 H   0  0  0  0  0  0  0  0  0  0  0  0
    2.4004    0.0380    1.3493 H   0  0  0  0  0  0  0  0  0  0  0  0
   -0.6158    1.0569    2.7795 C   0  0  0  0  0  0  0  0  0  0  0  0
   -0.6012    2.0608    2.3530 H   0  0  0  0  0  0  0  0  0  0  0  0
   -1.6333    0.6718    2.7128 H   0  0  0  0  0  0  0  0  0  0  0  0
   -0.2592    1.1524    4.2691 C   0  0  0  0  0  0  0  0  0  0  0  0
    0.7104    1.6325    4.4001 H   0  0  0  0  0  0  0  0  0  0  0  0
   -1.0137    1.7494    4.7818 H   0  0  0  0  0  0  0  0  0  0  0  0
   -0.2352    0.1559    4.7116 H   0  0  0  0  0  0  0  0  0  0  0  0
    0.7237   -0.9174   -0.3465 C   0  0  0  0  0  0  0  0  0  0  0  0
    0.3705   -1.9690   -0.8784 O   0  0  0  0  0  0  0  0  0  0  0  0
    1.9438   -0.3972   -0.5306 N   0  0  0  0  0  0  0  0  0  0  0  0
    2.1581    0.4739   -0.0713 H   0  0  0  0  0  0  0  0  0  0  0  0
    2.9813   -1.0145   -1.3545 C   0  0  0  0  0  0  0  0  0  0  0  0
    2.5834   -1.2284   -2.3490 H   0  0  0  0  0  0  0  0  0  0  0  0
    3.8387   -0.3464   -1.4472 H   0  0  0  0  0  0  0  0  0  0  0  0
    3.3008   -1.9541   -0.8997 H   0  0  0  0  0  0  0  0  0  0  0  0
  5  6  2  0  0  0  0
  5  7  1  0  0  0  0
  2  3  1  0  0  0  0
  2  4  1  0  0  0  0
  2  5  1  0  0  0  0
  1  2  1  0  0  0  0
 24 25  2  0  0  0  0
 24 26  1  0  0  0  0
 20 21  1  0  0  0  0
 20 22  1  0  0  0  0
 20 23  1  0  0  0  0
 17 18  1  0  0  0  0
 17 19  1  0  0  0  0
 17 20  1  0  0  0  0
 13 14  1  0  0  0  0
 13 15  1  0  0  0  0
 13 16  1  0  0  0  0
 11 12  1  0  0  0  0
 11 13  1  0  0  0  0
 11 17  1  0  0  0  0
  9 10  1  0  0  0  0
  9 11  1  0  0  0  0
  9 24  1  0  0  0  0
  7  8  1  0  0  0  0
  7  9  1  0  0  0  0
 28 29  1  0  0  0  0
 28 30  1  0  0  0  0
 28 31  1  0  0  0  0
 26 27  1  0  0  0  0
 26 28  1  0  0  0  0
M  END
$$$$
default_name
  -OEChem-01062215323D

 31 30  0     1  0  0  0  0  0999 V2000
   -3.0760   -3.6390    1.5496 H   0  0  0  0  0  0  0  0  0  0  0  0
   -3.0940   -2.6290    1.1426 C   0  0  0  0  0  0  0  0  0  0  0  0
   -3.7160   -1.9930    1.7706 H   0  0  0  0  0  0  0  0  0  0  0  0
   -3.4880   -2.6500    0.1286 H   0  0  0  0  0  0  0  0  0  0  0  0
   -1.6860   -2.0850    1.1196 C   0  0  0  0  0  0  0  0  0  0  0  0
   -0.7540   -2.7700    1.5226 O   0  0  0  0  0  0  0  0  0  0  0  0
   -1.5320   -0.8490    0.6496 N   0  0  0  0  0  0  0  0  0  0  0  0
   -2.3500   -0.3360    0.3566 H   0  0  0  0  0  0  0  0  0  0  0  0
   -0.2470   -0.1410    0.5576 C   0  0  1  0  0  0  0  0  0  0  0  0
   -0.4358    0.8231    0.0841 H   0  0  0  0  0  0  0  0  0  0  0  0
    0.3209    0.1285    1.9744 C   0  0  1  0  0  0  0  0  0  0  0  0
    0.3545   -0.8304    2.4951 H   0  0  0  0  0  0  0  0  0  0  0  0
    1.7544    0.6917    1.9364 C   0  0  0  0  0  0  0  0  0  0  0  0
    1.7637    1.6881    1.4909 H   0  0  0  0  0  0  0  0  0  0  0  0
    2.1654    0.7483    2.9430 H   0  0  0  0  0  0  0  0  0  0  0  0
    2.4004    0.0380    1.3493 H   0  0  0  0  0  0  0  0  0  0  0  0
   -0.6158    1.0569    2.7795 C   0  0  0  0  0  0  0  0  0  0  0  0
   -0.6012    2.0608    2.3530 H   0  0  0  0  0  0  0  0  0  0  0  0
   -1.6333    0.6718    2.7128 H   0  0  0  0  0  0  0  0  0  0  0  0
   -0.2592    1.1524    4.2691 C   0  0  0  0  0  0  0  0  0  0  0  0
    0.7104    1.6325    4.4001 H   0  0  0  0  0  0  0  0  0  0  0  0
   -1.0137    1.7494    4.7818 H   0  0  0  0  0  0  0  0  0  0  0  0
   -0.2352    0.1559    4.7116 H   0  0  0  0  0  0  0  0  0  0  0  0
    0.7237   -0.9174   -0.3465 C   0  0  0  0  0  0  0  0  0  0  0  0
    0.3054   -1.8031   -1.0907 O   0  0  0  0  0  0  0  0  0  0  0  0
    2.0188   -0.5812   -0.2921 N   0  0  0  0  0  0  0  0  0  0  0  0
    2.2859    0.1624    0.3335 H   0  0  0  0  0  0  0  0  0  0  0  0
    3.0659   -1.2257   -1.0823 C   0  0  0  0  0  0  0  0  0  0  0  0
    2.7885   -1.2168   -2.1387 H   0  0  0  0  0  0  0  0  0  0  0  0
    4.0135   -0.7001   -0.9557 H   0  0  0  0  0  0  0  0  0  0  0  0
    3.1808   -2.2633   -0.7630 H   0  0  0  0  0  0  0  0  0  0  0  0
  5  6  2  0  0  0  0
  5  7  1  0  0  0  0
  2  3  1  0  0  0  0
  2  4  1  0  0  0  0
  2  5  1  0  0  0  0
  1  2  1  0  0  0  0
 24 25  2  0  0  0  0
 24 26  1  0  0  0  0
 20 21  1  0  0  0  0
 20 22  1  0  0  0  0
 20 23  1  0  0  0  0
 17 18  1  0  0  0  0
 17 19  1  0  0  0  0
 17 20  1  0  0  0  0
 13 14  1  0  0  0  0
 13 15  1  0  0  0  0
 13 16  1  0  0  0  0
 11 12  1  0  0  0  0
 11 13  1  0  0  0  0
 11 17  1  0  0  0  0
  9 10  1  0  0  0  0
  9 11  1  0  0  0  0
  9 24  1  0  0  0  0
  7  8  1  0  0  0  0
  7  9  1  0  0  0  0
 28 29  1  0  0  0  0
 28 30  1  0  0  0  0
 28 31  1  0  0  0  0
 26 27  1  0  0  0  0
 26 28  1  0  0  0  0
M  END
$$$$
default_name
  -OEChem-01062215323D

 31 30  0     1  0  0  0  0  0999 V2000
   -3.0760   -3.6390    1.5496 H   0  0  0  0  0  0  0  0  0  0  0  0
   -3.0940   -2.6290    1.1426 C   0  0  0  0  0  0  0  0  0  0  0  0
   -3.7160   -1.9930    1.7706 H   0  0  0  0  0  0  0  0  0  0  0  0
   -3.4880   -2.6500    0.1286 H   0  0  0  0  0  0  0  0  0  0  0  0
   -1.6860   -2.0850    1.1196 C   0  0  0  0  0  0  0  0  0  0  0  0
   -0.7540   -2.7700    1.5226 O   0  0  0  0  0  0  0  0  0  0  0  0
   -1.5320   -0.8490    0.6496 N   0  0  0  0  0  0  0  0  0  0  0  0
   -2.3500   -0.3360    0.3566 H   0  0  0  0  0  0  0  0  0  0  0  0
   -0.2470   -0.1410    0.5576 C   0  0  1  0  0  0  0  0  0  0  0  0
   -0.4358    0.8231    0.0841 H   0  0  0  0  0  0  0  0  0  0  0  0
    0.3209    0.1285    1.9744 C   0  0  1  0  0  0  0  0  0  0  0  0
    0.3545   -0.8304    2.4951 H   0  0  0  0  0  0  0  0  0  0  0  0
    1.7544    0.6917    1.9364 C   0  0  0  0  0  0  0  0  0  0  0  0
    1.7637    1.6881    1.4909 H   0  0  0  0  0  0  0  0  0  0  0  0
    2.1654    0.7483    2.9430 H   0  0  0  0  0  0  0  0  0  0  0  0
    2.4004    0.0380    1.3493 H   0  0  0  0  0  0  0  0  0  0  0  0
   -0.6158    1.0569    2.7795 C   0  0  0  0  0  0  0  0  0  0  0  0
   -0.6012    2.0608    2.3530 H   0  0  0  0  0  0  0  0  0  0  0  0
   -1.6333    0.6718    2.7128 H   0  0  0  0  0  0  0  0  0  0  0  0
   -0.2592    1.1524    4.2691 C   0  0  0  0  0  0  0  0  0  0  0  0
    0.7104    1.6325    4.4001 H   0  0  0  0  0  0  0  0  0  0  0  0
   -1.0137    1.7494    4.7818 H   0  0  0  0  0  0  0  0  0  0  0  0
   -0.2352    0.1559    4.7116 H   0  0  0  0  0  0  0  0  0  0  0  0
    0.7237   -0.9174   -0.3465 C   0  0  0  0  0  0  0  0  0  0  0  0
    0.2955   -1.5983   -1.2773 O   0  0  0  0  0  0  0  0  0  0  0  0
    2.0320   -0.8093   -0.0820 N   0  0  0  0  0  0  0  0  0  0  0  0
    2.3091   -0.2241    0.6902 H   0  0  0  0  0  0  0  0  0  0  0  0
    3.0798   -1.4871   -0.8428 C   0  0  0  0  0  0  0  0  0  0  0  0
    2.9609   -1.2711   -1.9069 H   0  0  0  0  0  0  0  0  0  0  0  0
    4.0642   -1.1488   -0.5160 H   0  0  0  0  0  0  0  0  0  0  0  0
    2.9999   -2.5660   -0.6972 H   0  0  0  0  0  0  0  0  0  0  0  0
  5  6  2  0  0  0  0
  5  7  1  0  0  0  0
  2  3  1  0  0  0  0
  2  4  1  0  0  0  0
  2  5  1  0  0  0  0
  1  2  1  0  0  0  0
 24 25  2  0  0  0  0
 24 26  1  0  0  0  0
 20 21  1  0  0  0  0
 20 22  1  0  0  0  0
 20 23  1  0  0  0  0
 17 18  1  0  0  0  0
 17 19  1  0  0  0  0
 17 20  1  0  0  0  0
 13 14  1  0  0  0  0
 13 15  1  0  0  0  0
 13 16  1  0  0  0  0
 11 12  1  0  0  0  0
 11 13  1  0  0  0  0
 11 17  1  0  0  0  0
  9 10  1  0  0  0  0
  9 11  1  0  0  0  0
  9 24  1  0  0  0  0
  7  8  1  0  0  0  0
  7  9  1  0  0  0  0
 28 29  1  0  0  0  0
 28 30  1  0  0  0  0
 28 31  1  0  0  0  0
 26 27  1  0  0  0  0
 26 28  1  0  0  0  0
M  END
$$$$
default_name
  -OEChem-01062215323D

 31 30  0     1  0  0  0  0  0999 V2000
   -3.0760   -3.6390    1.5496 H   0  0  0  0  0  0  0  0  0  0  0  0
   -3.0940   -2.6290    1.1426 C   0  0  0  0  0  0  0  0  0  0  0  0
   -3.7160   -1.9930    1.7706 H   0  0  0  0  0  0  0  0  0  0  0  0
   -3.4880   -2.6500    0.1286 H   0  0  0  0  0  0  0  0  0  0  0  0
   -1.6860   -2.0850    1.1196 C   0  0  0  0  0  0  0  0  0  0  0  0
   -0.7540   -2.7700    1.5226 O   0  0  0  0  0  0  0  0  0  0  0  0
   -1.5320   -0.8490    0.6496 N   0  0  0  0  0  0  0  0  0  0  0  0
   -2.3500   -0.3360    0.3566 H   0  0  0  0  0  0  0  0  0  0  0  0
   -0.2470   -0.1410    0.5576 C   0  0  1  0  0  0  0  0  0  0  0  0
   -0.4358    0.8231    0.0841 H   0  0  0  0  0  0  0  0  0  0  0  0
    0.3209    0.1285    1.9744 C   0  0  1  0  0  0  0  0  0  0  0  0
    0.3545   -0.8304    2.4951 H   0  0  0  0  0  0  0  0  0  0  0  0
    1.7544    0.6917    1.9364 C   0  0  0  0  0  0  0  0  0  0  0  0
    1.7637    1.6881    1.4909 H   0  0  0  0  0  0  0  0  0  0  0  0
    2.1654    0.7483    2.9430 H   0  0  0  0  0  0  0  0  0  0  0  0
    2.4004    0.0380    1.3493 H   0  0  0  0  0  0  0  0  0  0  0  0
   -0.6158    1.0569    2.7795 C   0  0  0  0  0  0  0  0  0  0  0  0
   -0.6012    2.0608    2.3530 H   0  0  0  0  0  0  0  0  0  0  0  0
   -1.6333    0.6718    2.7128 H   0  0  0  0  0  0  0  0  0  0  0  0
   -0.2592    1.1524    4.2691 C   0  0  0  0  0  0  0  0  0  0  0  0
    0.7104    1.6325    4.4001 H   0  0  0  0  0  0  0  0  0  0  0  0
   -1.0137    1.7494    4.7818 H   0  0  0  0  0  0  0  0  0  0  0  0
   -0.2352    0.1559    4.7116 H   0  0  0  0  0  0  0  0  0  0  0  0
    0.7237   -0.9174   -0.3465 C   0  0  0  0  0  0  0  0  0  0  0  0
    0.3415   -1.3684   -1.4253 O   0  0  0  0  0  0  0  0  0  0  0  0
    1.9825   -1.0660    0.0853 N   0  0  0  0  0  0  0  0  0  0  0  0
    2.2259   -0.6592    0.9747 H   0  0  0  0  0  0  0  0  0  0  0  0
    3.0222   -1.7808   -0.6524 C   0  0  0  0  0  0  0  0  0  0  0  0
    3.0889   -1.3878   -1.6693 H   0  0  0  0  0  0  0  0  0  0  0  0
    3.9874   -1.6618   -0.1579 H   0  0  0  0  0  0  0  0  0  0  0  0
    2.7705   -2.8417   -0.7068 H   0  0  0  0  0  0  0  0  0  0  0  0
  5  6  2  0  0  0  0
  5  7  1  0  0  0  0
  2  3  1  0  0  0  0
  2  4  1  0  0  0  0
  2  5  1  0  0  0  0
  1  2  1  0  0  0  0
 24 25  2  0  0  0  0
 24 26  1  0  0  0  0
 20 21  1  0  0  0  0
 20 22  1  0  0  0  0
 20 23  1  0  0  0  0
 17 18  1  0  0  0  0
 17 19  1  0  0  0  0
 17 20  1  0  0  0  0
 13 14  1  0  0  0  0
 13 15  1  0  0  0  0
 13 16  1  0  0  0  0
 11 12  1  0  0  0  0
 11 13  1  0  0  0  0
 11 17  1  0  0  0  0
  9 10  1  0  0  0  0
  9 11  1  0  0  0  0
  9 24  1  0  0  0  0
  7  8  1  0  0  0  0
  7  9  1  0  0  0  0
 28 29  1  0  0  0  0
 28 30  1  0  0  0  0
 28 31  1  0  0  0  0
 26 27  1  0  0  0  0
 26 28  1  0  0  0  0
M  END
$$$$
default_name
  -OEChem-01062215323D

 31 30  0     1  0  0  0  0  0999 V2000
   -3.0760   -3.6390    1.5496 H   0  0  0  0  0  0  0  0  0  0  0  0
   -3.0940   -2.6290    1.1426 C   0  0  0  0  0  0  0  0  0  0  0  0
   -3.7160   -1.9930    1.7706 H   0  0  0  0  0  0  0  0  0  0  0  0
   -3.4880   -2.6500    0.1286 H   0  0  0  0  0  0  0  0  0  0  0  0
   -1.6860   -2.0850    1.1196 C   0  0  0  0  0  0  0  0  0  0  0  0
   -0.7540   -2.7700    1.5226 O   0  0  0  0  0  0  0  0  0  0  0  0
   -1.5320   -0.8490    0.6496 N   0  0  0  0  0  0  0  0  0  0  0  0
   -2.3500   -0.3360    0.3566 H   0  0  0  0  0  0  0  0  0  0  0  0
   -0.2470   -0.1410    0.5576 C   0  0  1  0  0  0  0  0  0  0  0  0
   -0.4358    0.8231    0.0841 H   0  0  0  0  0  0  0  0  0  0  0  0
    0.3209    0.1285    1.9744 C   0  0  1  0  0  0  0  0  0  0  0  0
    0.3545   -0.8304    2.4951 H   0  0  0  0  0  0  0  0  0  0  0  0
    1.7544    0.6917    1.9364 C   0  0  0  0  0  0  0  0  0  0  0  0
    1.7637    1.6881    1.4909 H   0  0  0  0  0  0  0  0  0  0  0  0
    2.1654    0.7483    2.9430 H   0  0  0  0  0  0  0  0  0  0  0  0
    2.4004    0.0380    1.3493 H   0  0  0  0  0  0  0  0  0  0  0  0
   -0.6158    1.0569    2.7795 C   0  0  0  0  0  0  0  0  0  0  0  0
   -0.6012    2.0608    2.3530 H   0  0  0  0  0  0  0  0  0  0  0  0
   -1.6333    0.6718    2.7128 H   0  0  0  0  0  0  0  0  0  0  0  0
   -0.2592    1.1524    4.2691 C   0  0  0  0  0  0  0  0  0  0  0  0
    0.7104    1.6325    4.4001 H   0  0  0  0  0  0  0  0  0  0  0  0
   -1.0137    1.7494    4.7818 H   0  0  0  0  0  0  0  0  0  0  0  0
   -0.2352    0.1559    4.7116 H   0  0  0  0  0  0  0  0  0  0  0  0
    0.7237   -0.9174   -0.3465 C   0  0  0  0  0  0  0  0  0  0  0  0
    0.4403   -1.1292   -1.5247 O   0  0  0  0  0  0  0  0  0  0  0  0
    1.8738   -1.3337    0.1986 N   0  0  0  0  0  0  0  0  0  0  0  0
    2.0422   -1.1134    1.1675 H   0  0  0  0  0  0  0  0  0  0  0  0
    2.8970   -2.0869   -0.5240 C   0  0  0  0  0  0  0  0  0  0  0  0
    3.1636   -1.5588   -1.4422 H   0  0  0  0  0  0  0  0  0  0  0  0
    3.7882   -2.2042    0.0941 H   0  0  0  0  0  0  0  0  0  0  0  0
    2.5083   -3.0715   -0.7911 H   0  0  0  0  0  0  0  0  0  0  0  0
  5  6  2  0  0  0  0
  5  7  1  0  0  0  0
  2  3  1  0  0  0  0
  2  4  1  0  0  0  0
  2  5  1  0  0  0  0
  1  2  1  0  0  0  0
 24 25  2  0  0  0  0
 24 26  1  0  0  0  0
 20 21  1  0  0  0  0
 20 22  1  0  0  0  0
 20 23  1  0  0  0  0
 17 18  1  0  0  0  0
 17 19  1  0  0  0  0
 17 20  1  0  0  0  0
 13 14  1  0  0  0  0
 13 15  1  0  0  0  0
 13 16  1  0  0  0  0
 11 12  1  0  0  0  0
 11 13  1  0  0  0  0
 11 17  1  0  0  0  0
  9 10  1  0  0  0  0
  9 11  1  0  0  0  0
  9 24  1  0  0  0  0
  7  8  1  0  0  0  0
  7  9  1  0  0  0  0
 28 29  1  0  0  0  0
 28 30  1  0  0  0  0
 28 31  1  0  0  0  0
 26 27  1  0  0  0  0
 26 28  1  0  0  0  0
M  END
$$$$
default_name
  -OEChem-01062215323D

 31 30  0     1  0  0  0  0  0999 V2000
   -3.0760   -3.6390    1.5496 H   0  0  0  0  0  0  0  0  0  0  0  0
   -3.0940   -2.6290    1.1426 C   0  0  0  0  0  0  0  0  0  0  0  0
   -3.7160   -1.9930    1.7706 H   0  0  0  0  0  0  0  0  0  0  0  0
   -3.4880   -2.6500    0.1286 H   0  0  0  0  0  0  0  0  0  0  0  0
   -1.6860   -2.0850    1.1196 C   0  0  0  0  0  0  0  0  0  0  0  0
   -0.7540   -2.7700    1.5226 O   0  0  0  0  0  0  0  0  0  0  0  0
   -1.5320   -0.8490    0.6496 N   0  0  0  0  0  0  0  0  0  0  0  0
   -2.3500   -0.3360    0.3566 H   0  0  0  0  0  0  0  0  0  0  0  0
   -0.2470   -0.1410    0.5576 C   0  0  1  0  0  0  0  0  0  0  0  0
   -0.4358    0.8231    0.0841 H   0  0  0  0  0  0  0  0  0  0  0  0
    0.3209    0.1285    1.9744 C   0  0  1  0  0  0  0  0  0  0  0  0
    0.3545   -0.8304    2.4951 H   0  0  0  0  0  0  0  0  0  0  0  0
    1.7544    0.6917    1.9364 C   0  0  0  0  0  0  0  0  0  0  0  0
    1.7637    1.6881    1.4909 H   0  0  0  0  0  0  0  0  0  0  0  0
    2.1654    0.7483    2.9430 H   0  0  0  0  0  0  0  0  0  0  0  0
    2.4004    0.0380    1.3493 H   0  0  0  0  0  0  0  0  0  0  0  0
   -0.6158    1.0569    2.7795 C   0  0  0  0  0  0  0  0  0  0  0  0
   -0.6012    2.0608    2.3530 H   0  0  0  0  0  0  0  0  0  0  0  0
   -1.6333    0.6718    2.7128 H   0  0  0  0  0  0  0  0  0  0  0  0
   -0.2592    1.1524    4.2691 C   0  0  0  0  0  0  0  0  0  0  0  0
    0.7104    1.6325    4.4001 H   0  0  0  0  0  0  0  0  0  0  0  0
   -1.0137    1.7494    4.7818 H   0  0  0  0  0  0  0  0  0  0  0  0
   -0.2352    0.1559    4.7116 H   0  0  0  0  0  0  0  0  0  0  0  0
    0.7237   -0.9174   -0.3465 C   0  0  0  0  0  0  0  0  0  0  0  0
    0.5851   -0.8970   -1.5687 O   0  0  0  0  0  0  0  0  0  0  0  0
    1.7132   -1.5943    0.2500 N   0  0  0  0  0  0  0  0  0  0  0  0
    1.7704   -1.5556    1.2554 H   0  0  0  0  0  0  0  0  0  0  0  0
    2.7126   -2.3845   -0.4665 C   0  0  0  0  0  0  0  0  0  0  0  0
    3.1801   -1.7725   -1.2410 H   0  0  0  0  0  0  0  0  0  0  0  0
    3.4804   -2.7389    0.2228 H   0  0  0  0  0  0  0  0  0  0  0  0
    2.2310   -3.2397   -0.9443 H   0  0  0  0  0  0  0  0  0  0  0  0
  5  6  2  0  0  0  0
  5  7  1  0  0  0  0
  2  3  1  0  0  0  0
  2  4  1  0  0  0  0
  2  5  1  0  0  0  0
  1  2  1  0  0  0  0
 24 25  2  0  0  0  0
 24 26  1  0  0  0  0
 20 21  1  0  0  0  0
 20 22  1  0  0  0  0
 20 23  1  0  0  0  0
 17 18  1  0  0  0  0
 17 19  1  0  0  0  0
 17 20  1  0  0  0  0
 13 14  1  0  0  0  0
 13 15  1  0  0  0  0
 13 16  1  0  0  0  0
 11 12  1  0  0  0  0
 11 13  1  0  0  0  0
 11 17  1  0  0  0  0
  9 10  1  0  0  0  0
  9 11  1  0  0  0  0
  9 24  1  0  0  0  0
  7  8  1  0  0  0  0
  7  9  1  0  0  0  0
 28 29  1  0  0  0  0
 28 30  1  0  0  0  0
 28 31  1  0  0  0  0
 26 27  1  0  0  0  0
 26 28  1  0  0  0  0
M  END
$$$$
default_name
  -OEChem-01062215323D

 31 30  0     1  0  0  0  0  0999 V2000
   -3.0760   -3.6390    1.5496 H   0  0  0  0  0  0  0  0  0  0  0  0
   -3.0940   -2.6290    1.1426 C   0  0  0  0  0  0  0  0  0  0  0  0
   -3.7160   -1.9930    1.7706 H   0  0  0  0  0  0  0  0  0  0  0  0
   -3.4880   -2.6500    0.1286 H   0  0  0  0  0  0  0  0  0  0  0  0
   -1.6860   -2.0850    1.1196 C   0  0  0  0  0  0  0  0  0  0  0  0
   -0.7540   -2.7700    1.5226 O   0  0  0  0  0  0  0  0  0  0  0  0
   -1.5320   -0.8490    0.6496 N   0  0  0  0  0  0  0  0  0  0  0  0
   -2.3500   -0.3360    0.3566 H   0  0  0  0  0  0  0  0  0  0  0  0
   -0.2470   -0.1410    0.5576 C   0  0  1  0  0  0  0  0  0  0  0  0
   -0.4358    0.8231    0.0841 H   0  0  0  0  0  0  0  0  0  0  0  0
    0.3209    0.1285    1.9744 C   0  0  1  0  0  0  0  0  0  0  0  0
    0.3545   -0.8304    2.4951 H   0  0  0  0  0  0  0  0  0  0  0  0
    1.7544    0.6917    1.9364 C   0  0  0  0  0  0  0  0  0  0  0  0
    1.7637    1.6881    1.4909 H   0  0  0  0  0  0  0  0  0  0  0  0
    2.1654    0.7483    2.9430 H   0  0  0  0  0  0  0  0  0  0  0  0
    2.4004    0.0380    1.3493 H   0  0  0  0  0  0  0  0  0  0  0  0
   -0.6158    1.0569    2.7795 C   0  0  0  0  0  0  0  0  0  0  0  0
   -0.6012    2.0608    2.3530 H   0  0  0  0  0  0  0  0  0  0  0  0
   -1.6333    0.6718    2.7128 H   0  0  0  0  0  0  0  0  0  0  0  0
   -0.2592    1.1524    4.2691 C   0  0  0  0  0  0  0  0  0  0  0  0
    0.7104    1.6325    4.4001 H   0  0  0  0  0  0  0  0  0  0  0  0
   -1.0137    1.7494    4.7818 H   0  0  0  0  0  0  0  0  0  0  0  0
   -0.2352    0.1559    4.7116 H   0  0  0  0  0  0  0  0  0  0  0  0
    0.7237   -0.9174   -0.3465 C   0  0  0  0  0  0  0  0  0  0  0  0
    0.7661   -0.6875   -1.5542 O   0  0  0  0  0  0  0  0  0  0  0  0
    1.5118   -1.8300    0.2361 N   0  0  0  0  0  0  0  0  0  0  0  0
    1.4290   -1.9558    1.2325 H   0  0  0  0  0  0  0  0  0  0  0  0
    2.4817   -2.6532   -0.4836 C   0  0  0  0  0  0  0  0  0  0  0  0
    3.1372   -2.0143   -1.0794 H   0  0  0  0  0  0  0  0  0  0  0  0
    3.0848   -3.2296    0.2195 H   0  0  0  0  0  0  0  0  0  0  0  0
    1.9575   -3.3349   -1.1561 H   0  0  0  0  0  0  0  0  0  0  0  0
  5  6  2  0  0  0  0
  5  7  1  0  0  0  0
  2  3  1  0  0  0  0
  2  4  1  0  0  0  0
  2  5  1  0  0  0  0
  1  2  1  0  0  0  0
 24 25  2  0  0  0  0
 24 26  1  0  0  0  0
 20 21  1  0  0  0  0
 20 22  1  0  0  0  0
 20 23  1  0  0  0  0
 17 18  1  0  0  0  0
 17 19  1  0  0  0  0
 17 20  1  0  0  0  0
 13 14  1  0  0  0  0
 13 15  1  0  0  0  0
 13 16  1  0  0  0  0
 11 12  1  0  0  0  0
 11 13  1  0  0  0  0
 11 17  1  0  0  0  0
  9 10  1  0  0  0  0
  9 11  1  0  0  0  0
  9 24  1  0  0  0  0
  7  8  1  0  0  0  0
  7  9  1  0  0  0  0
 28 29  1  0  0  0  0
 28 30  1  0  0  0  0
 28 31  1  0  0  0  0
 26 27  1  0  0  0  0
 26 28  1  0  0  0  0
M  END
$$$$
default_name
  -OEChem-01062215323D

 31 30  0     1  0  0  0  0  0999 V2000
   -3.0760   -3.6390    1.5496 H   0  0  0  0  0  0  0  0  0  0  0  0
   -3.0940   -2.6290    1.1426 C   0  0  0  0  0  0  0  0  0  0  0  0
   -3.7160   -1.9930    1.7706 H   0  0  0  0  0  0  0  0  0  0  0  0
   -3.4880   -2.6500    0.1286 H   0  0  0  0  0  0  0  0  0  0  0  0
   -1.6860   -2.0850    1.1196 C   0  0  0  0  0  0  0  0  0  0  0  0
   -0.7540   -2.7700    1.5226 O   0  0  0  0  0  0  0  0  0  0  0  0
   -1.5320   -0.8490    0.6496 N   0  0  0  0  0  0  0  0  0  0  0  0
   -2.3500   -0.3360    0.3566 H   0  0  0  0  0  0  0  0  0  0  0  0
   -0.2470   -0.1410    0.5576 C   0  0  1  0  0  0  0  0  0  0  0  0
   -0.4358    0.8231    0.0841 H   0  0  0  0  0  0  0  0  0  0  0  0
    0.3209    0.1285    1.9744 C   0  0  1  0  0  0  0  0  0  0  0  0
    0.3545   -0.8304    2.4951 H   0  0  0  0  0  0  0  0  0  0  0  0
    1.7544    0.6917    1.9364 C   0  0  0  0  0  0  0  0  0  0  0  0
    1.7637    1.6881    1.4909 H   0  0  0  0  0  0  0  0  0  0  0  0
    2.1654    0.7483    2.9430 H   0  0  0  0  0  0  0  0  0  0  0  0
    2.4004    0.0380    1.3493 H   0  0  0  0  0  0  0  0  0  0  0  0
   -0.6158    1.0569    2.7795 C   0  0  0  0  0  0  0  0  0  0  0  0
   -0.6012    2.0608    2.3530 H   0  0  0  0  0  0  0  0  0  0  0  0
   -1.6333    0.6718    2.7128 H   0  0  0  0  0  0  0  0  0  0  0  0
   -0.2592    1.1524    4.2691 C   0  0  0  0  0  0  0  0  0  0  0  0
    0.7104    1.6325    4.4001 H   0  0  0  0  0  0  0  0  0  0  0  0
   -1.0137    1.7494    4.7818 H   0  0  0  0  0  0  0  0  0  0  0  0
   -0.2352    0.1559    4.7116 H   0  0  0  0  0  0  0  0  0  0  0  0
    0.7237   -0.9174   -0.3465 C   0  0  0  0  0  0  0  0  0  0  0  0
    0.9709   -0.5150   -1.4824 O   0  0  0  0  0  0  0  0  0  0  0  0
    1.2831   -2.0247    0.1577 N   0  0  0  0  0  0  0  0  0  0  0  0
    1.0414   -2.2866    1.1004 H   0  0  0  0  0  0  0  0  0  0  0  0
    2.2199   -2.8749   -0.5742 C   0  0  0  0  0  0  0  0  0  0  0  0
    3.0378   -2.2677   -0.9685 H   0  0  0  0  0  0  0  0  0  0  0  0
    2.6284   -3.6428    0.0843 H   0  0  0  0  0  0  0  0  0  0  0  0
    1.7066   -3.3507   -1.4120 H   0  0  0  0  0  0  0  0  0  0  0  0
  5  6  2  0  0  0  0
  5  7  1  0  0  0  0
  2  3  1  0  0  0  0
  2  4  1  0  0  0  0
  2  5  1  0  0  0  0
  1  2  1  0  0  0  0
 24 25  2  0  0  0  0
 24 26  1  0  0  0  0
 20 21  1  0  0  0  0
 20 22  1  0  0  0  0
 20 23  1  0  0  0  0
 17 18  1  0  0  0  0
 17 19  1  0  0  0  0
 17 20  1  0  0  0  0
 13 14  1  0  0  0  0
 13 15  1  0  0  0  0
 13 16  1  0  0  0  0
 11 12  1  0  0  0  0
 11 13  1  0  0  0  0
 11 17  1  0  0  0  0
  9 10  1  0  0  0  0
  9 11  1  0  0  0  0
  9 24  1  0  0  0  0
  7  8  1  0  0  0  0
  7  9  1  0  0  0  0
 28 29  1  0  0  0  0
 28 30  1  0  0  0  0
 28 31  1  0  0  0  0
 26 27  1  0  0  0  0
 26 28  1  0  0  0  0
M  END
$$$$
default_name
  -OEChem-01062215323D

 31 30  0     1  0  0  0  0  0999 V2000
   -3.0760   -3.6390    1.5496 H   0  0  0  0  0  0  0  0  0  0  0  0
   -3.0940   -2.6290    1.1426 C   0  0  0  0  0  0  0  0  0  0  0  0
   -3.7160   -1.9930    1.7706 H   0  0  0  0  0  0  0  0  0  0  0  0
   -3.4880   -2.6500    0.1286 H   0  0  0  0  0  0  0  0  0  0  0  0
   -1.6860   -2.0850    1.1196 C   0  0  0  0  0  0  0  0  0  0  0  0
   -0.7540   -2.7700    1.5226 O   0  0  0  0  0  0  0  0  0  0  0  0
   -1.5320   -0.8490    0.6496 N   0  0  0  0  0  0  0  0  0  0  0  0
   -2.3500   -0.3360    0.3566 H   0  0  0  0  0  0  0  0  0  0  0  0
   -0.2470   -0.1410    0.5576 C   0  0  1  0  0  0  0  0  0  0  0  0
   -0.4358    0.8231    0.0841 H   0  0  0  0  0  0  0  0  0  0  0  0
    0.3209    0.1285    1.9744 C   0  0  1  0  0  0  0  0  0  0  0  0
    0.3545   -0.8304    2.4951 H   0  0  0  0  0  0  0  0  0  0  0  0
    1.7544    0.6917    1.9364 C   0  0  0  0  0  0  0  0  0  0  0  0
    1.7637    1.6881    1.4909 H   0  0  0  0  0  0  0  0  0  0  0  0
    2.1654    0.7483    2.9430 H   0  0  0  0  0  0  0  0  0  0  0  0
    2.4004    0.0380    1.3493 H   0  0  0  0  0  0  0  0  0  0  0  0
   -0.6158    1.0569    2.7795 C   0  0  0  0  0  0  0  0  0  0  0  0
   -0.6012    2.0608    2.3530 H   0  0  0  0  0  0  0  0  0  0  0  0
   -1.6333    0.6718    2.7128 H   0  0  0  0  0  0  0  0  0  0  0  0
   -0.2592    1.1524    4.2691 C   0  0  0  0  0  0  0  0  0  0  0  0
    0.7104    1.6325    4.4001 H   0  0  0  0  0  0  0  0  0  0  0  0
   -1.0137    1.7494    4.7818 H   0  0  0  0  0  0  0  0  0  0  0  0
   -0.2352    0.1559    4.7116 H   0  0  0  0  0  0  0  0  0  0  0  0
    0.7237   -0.9174   -0.3465 C   0  0  0  0  0  0  0  0  0  0  0  0
    1.1856   -0.3914   -1.3581 O   0  0  0  0  0  0  0  0  0  0  0  0
    1.0428   -2.1651    0.0203 N   0  0  0  0  0  0  0  0  0  0  0  0
    0.6338   -2.5255    0.8680 H   0  0  0  0  0  0  0  0  0  0  0  0
    1.9452   -3.0343   -0.7322 C   0  0  0  0  0  0  0  0  0  0  0  0
    2.8887   -2.5155   -0.9157 H   0  0  0  0  0  0  0  0  0  0  0  0
    2.1423   -3.9504   -0.1734 H   0  0  0  0  0  0  0  0  0  0  0  0
    1.4953   -3.2859   -1.6946 H   0  0  0  0  0  0  0  0  0  0  0  0
  5  6  2  0  0  0  0
  5  7  1  0  0  0  0
  2  3  1  0  0  0  0
  2  4  1  0  0  0  0
  2  5  1  0  0  0  0
  1  2  1  0  0  0  0
 24 25  2  0  0  0  0
 24 26  1  0  0  0  0
 20 21  1  0  0  0  0
 20 22  1  0  0  0  0
 20 23  1  0  0  0  0
 17 18  1  0  0  0  0
 17 19  1  0  0  0  0
 17 20  1  0  0  0  0
 13 14  1  0  0  0  0
 13 15  1  0  0  0  0
 13 16  1  0  0  0  0
 11 12  1  0  0  0  0
 11 13  1  0  0  0  0
 11 17  1  0  0  0  0
  9 10  1  0  0  0  0
  9 11  1  0  0  0  0
  9 24  1  0  0  0  0
  7  8  1  0  0  0  0
  7  9  1  0  0  0  0
 28 29  1  0  0  0  0
 28 30  1  0  0  0  0
 28 31  1  0  0  0  0
 26 27  1  0  0  0  0
 26 28  1  0  0  0  0
M  END
$$$$
default_name
  -OEChem-01062215323D

 31 30  0     1  0  0  0  0  0999 V2000
   -3.0760   -3.6390    1.5496 H   0  0  0  0  0  0  0  0  0  0  0  0
   -3.0940   -2.6290    1.1426 C   0  0  0  0  0  0  0  0  0  0  0  0
   -3.7160   -1.9930    1.7706 H   0  0  0  0  0  0  0  0  0  0  0  0
   -3.4880   -2.6500    0.1286 H   0  0  0  0  0  0  0  0  0  0  0  0
   -1.6860   -2.0850    1.1196 C   0  0  0  0  0  0  0  0  0  0  0  0
   -0.7540   -2.7700    1.5226 O   0  0  0  0  0  0  0  0  0  0  0  0
   -1.5320   -0.8490    0.6496 N   0  0  0  0  0  0  0  0  0  0  0  0
   -2.3500   -0.3360    0.3566 H   0  0  0  0  0  0  0  0  0  0  0  0
   -0.2470   -0.1410    0.5576 C   0  0  1  0  0  0  0  0  0  0  0  0
   -0.4358    0.8231    0.0841 H   0  0  0  0  0  0  0  0  0  0  0  0
    0.3209    0.1285    1.9744 C   0  0  1  0  0  0  0  0  0  0  0  0
    0.3545   -0.8304    2.4951 H   0  0  0  0  0  0  0  0  0  0  0  0
    1.7544    0.6917    1.9364 C   0  0  0  0  0  0  0  0  0  0  0  0
    1.7637    1.6881    1.4909 H   0  0  0  0  0  0  0  0  0  0  0  0
    2.1654    0.7483    2.9430 H   0  0  0  0  0  0  0  0  0  0  0  0
    2.4004    0.0380    1.3493 H   0  0  0  0  0  0  0  0  0  0  0  0
   -0.6158    1.0569    2.7795 C   0  0  0  0  0  0  0  0  0  0  0  0
   -0.6012    2.0608    2.3530 H   0  0  0  0  0  0  0  0  0  0  0  0
   -1.6333    0.6718    2.7128 H   0  0  0  0  0  0  0  0  0  0  0  0
   -0.2592    1.1524    4.2691 C   0  0  0  0  0  0  0  0  0  0  0  0
    0.7104    1.6325    4.4001 H   0  0  0  0  0  0  0  0  0  0  0  0
   -1.0137    1.7494    4.7818 H   0  0  0  0  0  0  0  0  0  0  0  0
   -0.2352    0.1559    4.7116 H   0  0  0  0  0  0  0  0  0  0  0  0
    0.7237   -0.9174   -0.3465 C   0  0  0  0  0  0  0  0  0  0  0  0
    1.3956   -0.3250   -1.1897 O   0  0  0  0  0  0  0  0  0  0  0  0
    0.8073   -2.2418   -0.1667 N   0  0  0  0  0  0  0  0  0  0  0  0
    0.2342   -2.6562    0.5512 H   0  0  0  0  0  0  0  0  0  0  0  0
    1.6763   -3.1207   -0.9468 C   0  0  0  0  0  0  0  0  0  0  0  0
    2.7001   -2.7408   -0.9248 H   0  0  0  0  0  0  0  0  0  0  0  0
    1.6597   -4.1313   -0.5362 H   0  0  0  0  0  0  0  0  0  0  0  0
    1.3380   -3.1449   -1.9845 H   0  0  0  0  0  0  0  0  0  0  0  0
  5  6  2  0  0  0  0
  5  7  1  0  0  0  0
  2  3  1  0  0  0  0
  2  4  1  0  0  0  0
  2  5  1  0  0  0  0
  1  2  1  0  0  0  0
 24 25  2  0  0  0  0
 24 26  1  0  0  0  0
 20 21  1  0  0  0  0
 20 22  1  0  0  0  0
 20 23  1  0  0  0  0
 17 18  1  0  0  0  0
 17 19  1  0  0  0  0
 17 20  1  0  0  0  0
 13 14  1  0  0  0  0
 13 15  1  0  0  0  0
 13 16  1  0  0  0  0
 11 12  1  0  0  0  0
 11 13  1  0  0  0  0
 11 17  1  0  0  0  0
  9 10  1  0  0  0  0
  9 11  1  0  0  0  0
  9 24  1  0  0  0  0
  7  8  1  0  0  0  0
  7  9  1  0  0  0  0
 28 29  1  0  0  0  0
 28 30  1  0  0  0  0
 28 31  1  0  0  0  0
 26 27  1  0  0  0  0
 26 28  1  0  0  0  0
M  END
$$$$
default_name
  -OEChem-01062215323D

 31 30  0     1  0  0  0  0  0999 V2000
   -3.0760   -3.6390    1.5496 H   0  0  0  0  0  0  0  0  0  0  0  0
   -3.0940   -2.6290    1.1426 C   0  0  0  0  0  0  0  0  0  0  0  0
   -3.7160   -1.9930    1.7706 H   0  0  0  0  0  0  0  0  0  0  0  0
   -3.4880   -2.6500    0.1286 H   0  0  0  0  0  0  0  0  0  0  0  0
   -1.6860   -2.0850    1.1196 C   0  0  0  0  0  0  0  0  0  0  0  0
   -0.7540   -2.7700    1.5226 O   0  0  0  0  0  0  0  0  0  0  0  0
   -1.5320   -0.8490    0.6496 N   0  0  0  0  0  0  0  0  0  0  0  0
   -2.3500   -0.3360    0.3566 H   0  0  0  0  0  0  0  0  0  0  0  0
   -0.2470   -0.1410    0.5576 C   0  0  1  0  0  0  0  0  0  0  0  0
   -0.4358    0.8231    0.0841 H   0  0  0  0  0  0  0  0  0  0  0  0
    0.3209    0.1285    1.9744 C   0  0  1  0  0  0  0  0  0  0  0  0
    0.3545   -0.8304    2.4951 H   0  0  0  0  0  0  0  0  0  0  0  0
    1.7544    0.6917    1.9364 C   0  0  0  0  0  0  0  0  0  0  0  0
    1.7637    1.6881    1.4909 H   0  0  0  0  0  0  0  0  0  0  0  0
    2.1654    0.7483    2.9430 H   0  0  0  0  0  0  0  0  0  0  0  0
    2.4004    0.0380    1.3493 H   0  0  0  0  0  0  0  0  0  0  0  0
   -0.6158    1.0569    2.7795 C   0  0  0  0  0  0  0  0  0  0  0  0
   -0.6012    2.0608    2.3530 H   0  0  0  0  0  0  0  0  0  0  0  0
   -1.6333    0.6718    2.7128 H   0  0  0  0  0  0  0  0  0  0  0  0
   -0.2592    1.1524    4.2691 C   0  0  0  0  0  0  0  0  0  0  0  0
    0.7104    1.6325    4.4001 H   0  0  0  0  0  0  0  0  0  0  0  0
   -1.0137    1.7494    4.7818 H   0  0  0  0  0  0  0  0  0  0  0  0
   -0.2352    0.1559    4.7116 H   0  0  0  0  0  0  0  0  0  0  0  0
    0.7237   -0.9174   -0.3465 C   0  0  0  0  0  0  0  0  0  0  0  0
    1.5865   -0.3203   -0.9887 O   0  0  0  0  0  0  0  0  0  0  0  0
    0.5926   -2.2493   -0.3908 N   0  0  0  0  0  0  0  0  0  0  0  0
   -0.1303   -2.6699    0.1716 H   0  0  0  0  0  0  0  0  0  0  0  0
    1.4314   -3.1281   -1.2034 C   0  0  0  0  0  0  0  0  0  0  0  0
    2.4848   -2.9282   -0.9950 H   0  0  0  0  0  0  0  0  0  0  0  0
    1.2134   -4.1733   -0.9793 H   0  0  0  0  0  0  0  0  0  0  0  0
    1.2454   -2.9374   -2.2621 H   0  0  0  0  0  0  0  0  0  0  0  0
  5  6  2  0  0  0  0
  5  7  1  0  0  0  0
  2  3  1  0  0  0  0
  2  4  1  0  0  0  0
  2  5  1  0  0  0  0
  1  2  1  0  0  0  0
 24 25  2  0  0  0  0
 24 26  1  0  0  0  0
 20 21  1  0  0  0  0
 20 22  1  0  0  0  0
 20 23  1  0  0  0  0
 17 18  1  0  0  0  0
 17 19  1  0  0  0  0
 17 20  1  0  0  0  0
 13 14  1  0  0  0  0
 13 15  1  0  0  0  0
 13 16  1  0  0  0  0
 11 12  1  0  0  0  0
 11 13  1  0  0  0  0
 11 17  1  0  0  0  0
  9 10  1  0  0  0  0
  9 11  1  0  0  0  0
  9 24  1  0  0  0  0
  7  8  1  0  0  0  0
  7  9  1  0  0  0  0
 28 29  1  0  0  0  0
 28 30  1  0  0  0  0
 28 31  1  0  0  0  0
 26 27  1  0  0  0  0
 26 28  1  0  0  0  0
M  END
$$$$
default_name
  -OEChem-01062215323D

 31 30  0     1  0  0  0  0  0999 V2000
   -3.0760   -3.6390    1.5496 H   0  0  0  0  0  0  0  0  0  0  0  0
   -3.0940   -2.6290    1.1426 C   0  0  0  0  0  0  0  0  0  0  0  0
   -3.7160   -1.9930    1.7706 H   0  0  0  0  0  0  0  0  0  0  0  0
   -3.4880   -2.6500    0.1286 H   0  0  0  0  0  0  0  0  0  0  0  0
   -1.6860   -2.0850    1.1196 C   0  0  0  0  0  0  0  0  0  0  0  0
   -0.7540   -2.7700    1.5226 O   0  0  0  0  0  0  0  0  0  0  0  0
   -1.5320   -0.8490    0.6496 N   0  0  0  0  0  0  0  0  0  0  0  0
   -2.3500   -0.3360    0.3566 H   0  0  0  0  0  0  0  0  0  0  0  0
   -0.2470   -0.1410    0.5576 C   0  0  1  0  0  0  0  0  0  0  0  0
   -0.4358    0.8231    0.0841 H   0  0  0  0  0  0  0  0  0  0  0  0
    0.3209    0.1285    1.9744 C   0  0  1  0  0  0  0  0  0  0  0  0
    0.3545   -0.8304    2.4951 H   0  0  0  0  0  0  0  0  0  0  0  0
    1.7544    0.6917    1.9364 C   0  0  0  0  0  0  0  0  0  0  0  0
    1.7637    1.6881    1.4909 H   0  0  0  0  0  0  0  0  0  0  0  0
    2.1654    0.7483    2.9430 H   0  0  0  0  0  0  0  0  0  0  0  0
    2.4004    0.0380    1.3493 H   0  0  0  0  0  0  0  0  0  0  0  0
   -0.6158    1.0569    2.7795 C   0  0  0  0  0  0  0  0  0  0  0  0
   -0.6012    2.0608    2.3530 H   0  0  0  0  0  0  0  0  0  0  0  0
   -1.6333    0.6718    2.7128 H   0  0  0  0  0  0  0  0  0  0  0  0
   -0.2592    1.1524    4.2691 C   0  0  0  0  0  0  0  0  0  0  0  0
    0.7104    1.6325    4.4001 H   0  0  0  0  0  0  0  0  0  0  0  0
   -1.0137    1.7494    4.7818 H   0  0  0  0  0  0  0  0  0  0  0  0
   -0.2352    0.1559    4.7116 H   0  0  0  0  0  0  0  0  0  0  0  0
    0.7237   -0.9174   -0.3465 C   0  0  0  0  0  0  0  0  0  0  0  0
    1.7453   -0.3777   -0.7689 O   0  0  0  0  0  0  0  0  0  0  0  0
    0.4133   -2.1874   -0.6364 N   0  0  0  0  0  0  0  0  0  0  0  0
   -0.4348   -2.5656   -0.2450 H   0  0  0  0  0  0  0  0  0  0  0  0
    1.2273   -3.0560   -1.4845 C   0  0  0  0  0  0  0  0  0  0  0  0
    2.2574   -3.0650   -1.1216 H   0  0  0  0  0  0  0  0  0  0  0  0
    0.8339   -4.0735   -1.4726 H   0  0  0  0  0  0  0  0  0  0  0  0
    1.2239   -2.6775   -2.5084 H   0  0  0  0  0  0  0  0  0  0  0  0
  5  6  2  0  0  0  0
  5  7  1  0  0  0  0
  2  3  1  0  0  0  0
  2  4  1  0  0  0  0
  2  5  1  0  0  0  0
  1  2  1  0  0  0  0
 24 25  2  0  0  0  0
 24 26  1  0  0  0  0
 20 21  1  0  0  0  0
 20 22  1  0  0  0  0
 20 23  1  0  0  0  0
 17 18  1  0  0  0  0
 17 19  1  0  0  0  0
 17 20  1  0  0  0  0
 13 14  1  0  0  0  0
 13 15  1  0  0  0  0
 13 16  1  0  0  0  0
 11 12  1  0  0  0  0
 11 13  1  0  0  0  0
 11 17  1  0  0  0  0
  9 10  1  0  0  0  0
  9 11  1  0  0  0  0
  9 24  1  0  0  0  0
  7  8  1  0  0  0  0
  7  9  1  0  0  0  0
 28 29  1  0  0  0  0
 28 30  1  0  0  0  0
 28 31  1  0  0  0  0
 26 27  1  0  0  0  0
 26 28  1  0  0  0  0
M  END
$$$$
default_name
  -OEChem-01062215323D

 31 30  0     1  0  0  0  0  0999 V2000
   -3.0760   -3.6390    1.5496 H   0  0  0  0  0  0  0  0  0  0  0  0
   -3.0940   -2.6290    1.1426 C   0  0  0  0  0  0  0  0  0  0  0  0
   -3.7160   -1.9930    1.7706 H   0  0  0  0  0  0  0  0  0  0  0  0
   -3.4880   -2.6500    0.1286 H   0  0  0  0  0  0  0  0  0  0  0  0
   -1.6860   -2.0850    1.1196 C   0  0  0  0  0  0  0  0  0  0  0  0
   -0.7540   -2.7700    1.5226 O   0  0  0  0  0  0  0  0  0  0  0  0
   -1.5320   -0.8490    0.6496 N   0  0  0  0  0  0  0  0  0  0  0  0
   -2.3500   -0.3360    0.3566 H   0  0  0  0  0  0  0  0  0  0  0  0
   -0.2470   -0.1410    0.5576 C   0  0  1  0  0  0  0  0  0  0  0  0
   -0.4358    0.8231    0.0841 H   0  0  0  0  0  0  0  0  0  0  0  0
    0.3209    0.1285    1.9744 C   0  0  1  0  0  0  0  0  0  0  0  0
    0.3545   -0.8304    2.4951 H   0  0  0  0  0  0  0  0  0  0  0  0
    1.7544    0.6917    1.9364 C   0  0  0  0  0  0  0  0  0  0  0  0
    1.7637    1.6881    1.4909 H   0  0  0  0  0  0  0  0  0  0  0  0
    2.1654    0.7483    2.9430 H   0  0  0  0  0  0  0  0  0  0  0  0
    2.4004    0.0380    1.3493 H   0  0  0  0  0  0  0  0  0  0  0  0
   -0.6158    1.0569    2.7795 C   0  0  0  0  0  0  0  0  0  0  0  0
   -0.6012    2.0608    2.3530 H   0  0  0  0  0  0  0  0  0  0  0  0
   -1.6333    0.6718    2.7128 H   0  0  0  0  0  0  0  0  0  0  0  0
   -0.2592    1.1524    4.2691 C   0  0  0  0  0  0  0  0  0  0  0  0
    0.7104    1.6325    4.4001 H   0  0  0  0  0  0  0  0  0  0  0  0
   -1.0137    1.7494    4.7818 H   0  0  0  0  0  0  0  0  0  0  0  0
   -0.2352    0.1559    4.7116 H   0  0  0  0  0  0  0  0  0  0  0  0
    0.7237   -0.9174   -0.3465 C   0  0  0  0  0  0  0  0  0  0  0  0
    1.8612   -0.4933   -0.5451 O   0  0  0  0  0  0  0  0  0  0  0  0
    0.2817   -2.0600   -0.8871 N   0  0  0  0  0  0  0  0  0  0  0  0
   -0.6587   -2.3503   -0.6702 H   0  0  0  0  0  0  0  0  0  0  0  0
    1.0778   -2.9094   -1.7709 C   0  0  0  0  0  0  0  0  0  0  0  0
    2.0336   -3.1418   -1.2960 H   0  0  0  0  0  0  0  0  0  0  0  0
    0.5470   -3.8387   -1.9823 H   0  0  0  0  0  0  0  0  0  0  0  0
    1.2749   -2.3829   -2.7067 H   0  0  0  0  0  0  0  0  0  0  0  0
  5  6  2  0  0  0  0
  5  7  1  0  0  0  0
  2  3  1  0  0  0  0
  2  4  1  0  0  0  0
  2  5  1  0  0  0  0
  1  2  1  0  0  0  0
 24 25  2  0  0  0  0
 24 26  1  0  0  0  0
 20 21  1  0  0  0  0
 20 22  1  0  0  0  0
 20 23  1  0  0  0  0
 17 18  1  0  0  0  0
 17 19  1  0  0  0  0
 17 20  1  0  0  0  0
 13 14  1  0  0  0  0
 13 15  1  0  0  0  0
 13 16  1  0  0  0  0
 11 12  1  0  0  0  0
 11 13  1  0  0  0  0
 11 17  1  0  0  0  0
  9 10  1  0  0  0  0
  9 11  1  0  0  0  0
  9 24  1  0  0  0  0
  7  8  1  0  0  0  0
  7  9  1  0  0  0  0
 28 29  1  0  0  0  0
 28 30  1  0  0  0  0
 28 31  1  0  0  0  0
 26 27  1  0  0  0  0
 26 28  1  0  0  0  0
M  END
$$$$
default_name
  -OEChem-01062215323D

 31 30  0     1  0  0  0  0  0999 V2000
   -3.0760   -3.6390    1.5496 H   0  0  0  0  0  0  0  0  0  0  0  0
   -3.0940   -2.6290    1.1426 C   0  0  0  0  0  0  0  0  0  0  0  0
   -3.7160   -1.9930    1.7706 H   0  0  0  0  0  0  0  0  0  0  0  0
   -3.4880   -2.6500    0.1286 H   0  0  0  0  0  0  0  0  0  0  0  0
   -1.6860   -2.0850    1.1196 C   0  0  0  0  0  0  0  0  0  0  0  0
   -0.7540   -2.7700    1.5226 O   0  0  0  0  0  0  0  0  0  0  0  0
   -1.5320   -0.8490    0.6496 N   0  0  0  0  0  0  0  0  0  0  0  0
   -2.3500   -0.3360    0.3566 H   0  0  0  0  0  0  0  0  0  0  0  0
   -0.2470   -0.1410    0.5576 C   0  0  1  0  0  0  0  0  0  0  0  0
   -0.4358    0.8231    0.0841 H   0  0  0  0  0  0  0  0  0  0  0  0
    0.3209    0.1285    1.9744 C   0  0  1  0  0  0  0  0  0  0  0  0
    0.3545   -0.8304    2.4951 H   0  0  0  0  0  0  0  0  0  0  0  0
    1.7544    0.6917    1.9364 C   0  0  0  0  0  0  0  0  0  0  0  0
    1.7637    1.6881    1.4909 H   0  0  0  0  0  0  0  0  0  0  0  0
    2.1654    0.7483    2.9430 H   0  0  0  0  0  0  0  0  0  0  0  0
    2.4004    0.0380    1.3493 H   0  0  0  0  0  0  0  0  0  0  0  0
   -0.6158    1.0569    2.7795 C   0  0  0  0  0  0  0  0  0  0  0  0
   -0.6012    2.0608    2.3530 H   0  0  0  0  0  0  0  0  0  0  0  0
   -1.6333    0.6718    2.7128 H   0  0  0  0  0  0  0  0  0  0  0  0
   -0.2592    1.1524    4.2691 C   0  0  0  0  0  0  0  0  0  0  0  0
    0.7104    1.6325    4.4001 H   0  0  0  0  0  0  0  0  0  0  0  0
   -1.0137    1.7494    4.7818 H   0  0  0  0  0  0  0  0  0  0  0  0
   -0.2352    0.1559    4.7116 H   0  0  0  0  0  0  0  0  0  0  0  0
    0.7237   -0.9174   -0.3465 C   0  0  0  0  0  0  0  0  0  0  0  0
    1.9264   -0.6591   -0.3327 O   0  0  0  0  0  0  0  0  0  0  0  0
    0.2068   -1.8761   -1.1256 N   0  0  0  0  0  0  0  0  0  0  0  0
   -0.7865   -2.0389   -1.0749 H   0  0  0  0  0  0  0  0  0  0  0  0
    0.9932   -2.6982   -2.0431 C   0  0  0  0  0  0  0  0  0  0  0  0
    1.8285   -3.1534   -1.5063 H   0  0  0  0  0  0  0  0  0  0  0  0
    0.3722   -3.4849   -2.4738 H   0  0  0  0  0  0  0  0  0  0  0  0
    1.3949   -2.0737   -2.8434 H   0  0  0  0  0  0  0  0  0  0  0  0
  5  6  2  0  0  0  0
  5  7  1  0  0  0  0
  2  3  1  0  0  0  0
  2  4  1  0  0  0  0
  2  5  1  0  0  0  0
  1  2  1  0  0  0  0
 24 25  2  0  0  0  0
 24 26  1  0  0  0  0
 20 21  1  0  0  0  0
 20 22  1  0  0  0  0
 20 23  1  0  0  0  0
 17 18  1  0  0  0  0
 17 19  1  0  0  0  0
 17 20  1  0  0  0  0
 13 14  1  0  0  0  0
 13 15  1  0  0  0  0
 13 16  1  0  0  0  0
 11 12  1  0  0  0  0
 11 13  1  0  0  0  0
 11 17  1  0  0  0  0
  9 10  1  0  0  0  0
  9 11  1  0  0  0  0
  9 24  1  0  0  0  0
  7  8  1  0  0  0  0
  7  9  1  0  0  0  0
 28 29  1  0  0  0  0
 28 30  1  0  0  0  0
 28 31  1  0  0  0  0
 26 27  1  0  0  0  0
 26 28  1  0  0  0  0
M  END
$$$$
default_name
  -OEChem-01062215323D

 31 30  0     1  0  0  0  0  0999 V2000
   -3.0760   -3.6390    1.5496 H   0  0  0  0  0  0  0  0  0  0  0  0
   -3.0940   -2.6290    1.1426 C   0  0  0  0  0  0  0  0  0  0  0  0
   -3.7160   -1.9930    1.7706 H   0  0  0  0  0  0  0  0  0  0  0  0
   -3.4880   -2.6500    0.1286 H   0  0  0  0  0  0  0  0  0  0  0  0
   -1.6860   -2.0850    1.1196 C   0  0  0  0  0  0  0  0  0  0  0  0
   -0.7540   -2.7700    1.5226 O   0  0  0  0  0  0  0  0  0  0  0  0
   -1.5320   -0.8490    0.6496 N   0  0  0  0  0  0  0  0  0  0  0  0
   -2.3500   -0.3360    0.3566 H   0  0  0  0  0  0  0  0  0  0  0  0
   -0.2470   -0.1410    0.5576 C   0  0  1  0  0  0  0  0  0  0  0  0
   -0.4358    0.8231    0.0841 H   0  0  0  0  0  0  0  0  0  0  0  0
    0.3209    0.1285    1.9744 C   0  0  1  0  0  0  0  0  0  0  0  0
    0.3545   -0.8304    2.4951 H   0  0  0  0  0  0  0  0  0  0  0  0
    1.7544    0.6917    1.9364 C   0  0  0  0  0  0  0  0  0  0  0  0
    1.7637    1.6881    1.4909 H   0  0  0  0  0  0  0  0  0  0  0  0
    2.1654    0.7483    2.9430 H   0  0  0  0  0  0  0  0  0  0  0  0
    2.4004    0.0380    1.3493 H   0  0  0  0  0  0  0  0  0  0  0  0
   -0.6158    1.0569    2.7795 C   0  0  0  0  0  0  0  0  0  0  0  0
   -0.6012    2.0608    2.3530 H   0  0  0  0  0  0  0  0  0  0  0  0
   -1.6333    0.6718    2.7128 H   0  0  0  0  0  0  0  0  0  0  0  0
   -0.2592    1.1524    4.2691 C   0  0  0  0  0  0  0  0  0  0  0  0
    0.7104    1.6325    4.4001 H   0  0  0  0  0  0  0  0  0  0  0  0
   -1.0137    1.7494    4.7818 H   0  0  0  0  0  0  0  0  0  0  0  0
   -0.2352    0.1559    4.7116 H   0  0  0  0  0  0  0  0  0  0  0  0
    0.7237   -0.9174   -0.3465 C   0  0  0  0  0  0  0  0  0  0  0  0
    1.9363   -0.8640   -0.1462 O   0  0  0  0  0  0  0  0  0  0  0  0
    0.1936   -1.6480   -1.3356 N   0  0  0  0  0  0  0  0  0  0  0  0
   -0.8096   -1.6524   -1.4317 H   0  0  0  0  0  0  0  0  0  0  0  0
    0.9793   -2.4368   -2.2826 C   0  0  0  0  0  0  0  0  0  0  0  0
    1.6561   -3.0990   -1.7381 H   0  0  0  0  0  0  0  0  0  0  0  0
    0.3215   -3.0363   -2.9136 H   0  0  0  0  0  0  0  0  0  0  0  0
    1.5757   -1.7710   -2.9092 H   0  0  0  0  0  0  0  0  0  0  0  0
  5  6  2  0  0  0  0
  5  7  1  0  0  0  0
  2  3  1  0  0  0  0
  2  4  1  0  0  0  0
  2  5  1  0  0  0  0
  1  2  1  0  0  0  0
 24 25  2  0  0  0  0
 24 26  1  0  0  0  0
 20 21  1  0  0  0  0
 20 22  1  0  0  0  0
 20 23  1  0  0  0  0
 17 18  1  0  0  0  0
 17 19  1  0  0  0  0
 17 20  1  0  0  0  0
 13 14  1  0  0  0  0
 13 15  1  0  0  0  0
 13 16  1  0  0  0  0
 11 12  1  0  0  0  0
 11 13  1  0  0  0  0
 11 17  1  0  0  0  0
  9 10  1  0  0  0  0
  9 11  1  0  0  0  0
  9 24  1  0  0  0  0
  7  8  1  0  0  0  0
  7  9  1  0  0  0  0
 28 29  1  0  0  0  0
 28 30  1  0  0  0  0
 28 31  1  0  0  0  0
 26 27  1  0  0  0  0
 26 28  1  0  0  0  0
M  END
$$$$
default_name
  -OEChem-01062215323D

 31 30  0     1  0  0  0  0  0999 V2000
   -3.0760   -3.6390    1.5496 H   0  0  0  0  0  0  0  0  0  0  0  0
   -3.0940   -2.6290    1.1426 C   0  0  0  0  0  0  0  0  0  0  0  0
   -3.7160   -1.9930    1.7706 H   0  0  0  0  0  0  0  0  0  0  0  0
   -3.4880   -2.6500    0.1286 H   0  0  0  0  0  0  0  0  0  0  0  0
   -1.6860   -2.0850    1.1196 C   0  0  0  0  0  0  0  0  0  0  0  0
   -0.7540   -2.7700    1.5226 O   0  0  0  0  0  0  0  0  0  0  0  0
   -1.5320   -0.8490    0.6496 N   0  0  0  0  0  0  0  0  0  0  0  0
   -2.3500   -0.3360    0.3566 H   0  0  0  0  0  0  0  0  0  0  0  0
   -0.2470   -0.1410    0.5576 C   0  0  1  0  0  0  0  0  0  0  0  0
   -0.4358    0.8231    0.0841 H   0  0  0  0  0  0  0  0  0  0  0  0
    0.3209    0.1285    1.9744 C   0  0  1  0  0  0  0  0  0  0  0  0
    0.3545   -0.8304    2.4951 H   0  0  0  0  0  0  0  0  0  0  0  0
    1.7544    0.6917    1.9364 C   0  0  0  0  0  0  0  0  0  0  0  0
    1.7637    1.6881    1.4909 H   0  0  0  0  0  0  0  0  0  0  0  0
    2.1654    0.7483    2.9430 H   0  0  0  0  0  0  0  0  0  0  0  0
    2.4004    0.0380    1.3493 H   0  0  0  0  0  0  0  0  0  0  0  0
   -0.6158    1.0569    2.7795 C   0  0  0  0  0  0  0  0  0  0  0  0
   -0.6012    2.0608    2.3530 H   0  0  0  0  0  0  0  0  0  0  0  0
   -1.6333    0.6718    2.7128 H   0  0  0  0  0  0  0  0  0  0  0  0
   -0.2592    1.1524    4.2691 C   0  0  0  0  0  0  0  0  0  0  0  0
    0.7104    1.6325    4.4001 H   0  0  0  0  0  0  0  0  0  0  0  0
   -1.0137    1.7494    4.7818 H   0  0  0  0  0  0  0  0  0  0  0  0
   -0.2352    0.1559    4.7116 H   0  0  0  0  0  0  0  0  0  0  0  0
    0.7237   -0.9174   -0.3465 C   0  0  0  0  0  0  0  0  0  0  0  0
    1.8903   -1.0938    0.0018 O   0  0  0  0  0  0  0  0  0  0  0  0
    0.2430   -1.3913   -1.5030 N   0  0  0  0  0  0  0  0  0  0  0  0
   -0.7265   -1.2173   -1.7161 H   0  0  0  0  0  0  0  0  0  0  0  0
    1.0369   -2.1431   -2.4730 C   0  0  0  0  0  0  0  0  0  0  0  0
    1.5282   -2.9823   -1.9757 H   0  0  0  0  0  0  0  0  0  0  0  0
    0.3983   -2.5233   -3.2716 H   0  0  0  0  0  0  0  0  0  0  0  0
    1.8051   -1.4953   -2.8997 H   0  0  0  0  0  0  0  0  0  0  0  0
  5  6  2  0  0  0  0
  5  7  1  0  0  0  0
  2  3  1  0  0  0  0
  2  4  1  0  0  0  0
  2  5  1  0  0  0  0
  1  2  1  0  0  0  0
 24 25  2  0  0  0  0
 24 26  1  0  0  0  0
 20 21  1  0  0  0  0
 20 22  1  0  0  0  0
 20 23  1  0  0  0  0
 17 18  1  0  0  0  0
 17 19  1  0  0  0  0
 17 20  1  0  0  0  0
 13 14  1  0  0  0  0
 13 15  1  0  0  0  0
 13 16  1  0  0  0  0
 11 12  1  0  0  0  0
 11 13  1  0  0  0  0
 11 17  1  0  0  0  0
  9 10  1  0  0  0  0
  9 11  1  0  0  0  0
  9 24  1  0  0  0  0
  7  8  1  0  0  0  0
  7  9  1  0  0  0  0
 28 29  1  0  0  0  0
 28 30  1  0  0  0  0
 28 31  1  0  0  0  0
 26 27  1  0  0  0  0
 26 28  1  0  0  0  0
M  END
$$$$
default_name
  -OEChem-01062215323D

 31 30  0     1  0  0  0  0  0999 V2000
   -3.0760   -3.6390    1.5496 H   0  0  0  0  0  0  0  0  0  0  0  0
   -3.0940   -2.6290    1.1426 C   0  0  0  0  0  0  0  0  0  0  0  0
   -3.7160   -1.9930    1.7706 H   0  0  0  0  0  0  0  0  0  0  0  0
   -3.4880   -2.6500    0.1286 H   0  0  0  0  0  0  0  0  0  0  0  0
   -1.6860   -2.0850    1.1196 C   0  0  0  0  0  0  0  0  0  0  0  0
   -0.7540   -2.7700    1.5226 O   0  0  0  0  0  0  0  0  0  0  0  0
   -1.5320   -0.8490    0.6496 N   0  0  0  0  0  0  0  0  0  0  0  0
   -2.3500   -0.3360    0.3566 H   0  0  0  0  0  0  0  0  0  0  0  0
   -0.2470   -0.1410    0.5576 C   0  0  1  0  0  0  0  0  0  0  0  0
   -0.4358    0.8231    0.0841 H   0  0  0  0  0  0  0  0  0  0  0  0
    0.3209    0.1285    1.9744 C   0  0  1  0  0  0  0  0  0  0  0  0
    0.3545   -0.8304    2.4951 H   0  0  0  0  0  0  0  0  0  0  0  0
    1.7544    0.6917    1.9364 C   0  0  0  0  0  0  0  0  0  0  0  0
    1.7637    1.6881    1.4909 H   0  0  0  0  0  0  0  0  0  0  0  0
    2.1654    0.7483    2.9430 H   0  0  0  0  0  0  0  0  0  0  0  0
    2.4004    0.0380    1.3493 H   0  0  0  0  0  0  0  0  0  0  0  0
   -0.6158    1.0569    2.7795 C   0  0  0  0  0  0  0  0  0  0  0  0
   -0.6012    2.0608    2.3530 H   0  0  0  0  0  0  0  0  0  0  0  0
   -1.6333    0.6718    2.7128 H   0  0  0  0  0  0  0  0  0  0  0  0
   -0.2592    1.1524    4.2691 C   0  0  0  0  0  0  0  0  0  0  0  0
    0.7104    1.6325    4.4001 H   0  0  0  0  0  0  0  0  0  0  0  0
   -1.0137    1.7494    4.7818 H   0  0  0  0  0  0  0  0  0  0  0  0
   -0.2352    0.1559    4.7116 H   0  0  0  0  0  0  0  0  0  0  0  0
    0.7237   -0.9174   -0.3465 C   0  0  0  0  0  0  0  0  0  0  0  0
    1.7915   -1.3330    0.1012 O   0  0  0  0  0  0  0  0  0  0  0  0
    0.3517   -1.1235   -1.6163 N   0  0  0  0  0  0  0  0  0  0  0  0
   -0.5428   -0.7631   -1.9089 H   0  0  0  0  0  0  0  0  0  0  0  0
    1.1622   -1.8370   -2.6013 C   0  0  0  0  0  0  0  0  0  0  0  0
    1.4534   -2.8113   -2.2028 H   0  0  0  0  0  0  0  0  0  0  0  0
    0.5974   -1.9809   -3.5236 H   0  0  0  0  0  0  0  0  0  0  0  0
    2.0674   -1.2656   -2.8154 H   0  0  0  0  0  0  0  0  0  0  0  0
  5  6  2  0  0  0  0
  5  7  1  0  0  0  0
  2  3  1  0  0  0  0
  2  4  1  0  0  0  0
  2  5  1  0  0  0  0
  1  2  1  0  0  0  0
 24 25  2  0  0  0  0
 24 26  1  0  0  0  0
 20 21  1  0  0  0  0
 20 22  1  0  0  0  0
 20 23  1  0  0  0  0
 17 18  1  0  0  0  0
 17 19  1  0  0  0  0
 17 20  1  0  0  0  0
 13 14  1  0  0  0  0
 13 15  1  0  0  0  0
 13 16  1  0  0  0  0
 11 12  1  0  0  0  0
 11 13  1  0  0  0  0
 11 17  1  0  0  0  0
  9 10  1  0  0  0  0
  9 11  1  0  0  0  0
  9 24  1  0  0  0  0
  7  8  1  0  0  0  0
  7  9  1  0  0  0  0
 28 29  1  0  0  0  0
 28 30  1  0  0  0  0
 28 31  1  0  0  0  0
 26 27  1  0  0  0  0
 26 28  1  0  0  0  0
M  END
$$$$
default_name
  -OEChem-01062215323D

 31 30  0     1  0  0  0  0  0999 V2000
   -3.0760   -3.6390    1.5496 H   0  0  0  0  0  0  0  0  0  0  0  0
   -3.0940   -2.6290    1.1426 C   0  0  0  0  0  0  0  0  0  0  0  0
   -3.7160   -1.9930    1.7706 H   0  0  0  0  0  0  0  0  0  0  0  0
   -3.4880   -2.6500    0.1286 H   0  0  0  0  0  0  0  0  0  0  0  0
   -1.6860   -2.0850    1.1196 C   0  0  0  0  0  0  0  0  0  0  0  0
   -0.7540   -2.7700    1.5226 O   0  0  0  0  0  0  0  0  0  0  0  0
   -1.5320   -0.8490    0.6496 N   0  0  0  0  0  0  0  0  0  0  0  0
   -2.3500   -0.3360    0.3566 H   0  0  0  0  0  0  0  0  0  0  0  0
   -0.2470   -0.1410    0.5576 C   0  0  1  0  0  0  0  0  0  0  0  0
   -0.4358    0.8231    0.0841 H   0  0  0  0  0  0  0  0  0  0  0  0
    0.3209    0.1285    1.9744 C   0  0  1  0  0  0  0  0  0  0  0  0
    0.3545   -0.8304    2.4951 H   0  0  0  0  0  0  0  0  0  0  0  0
    1.7544    0.6917    1.9364 C   0  0  0  0  0  0  0  0  0  0  0  0
    1.7637    1.6881    1.4909 H   0  0  0  0  0  0  0  0  0  0  0  0
    2.1654    0.7483    2.9430 H   0  0  0  0  0  0  0  0  0  0  0  0
    2.4004    0.0380    1.3493 H   0  0  0  0  0  0  0  0  0  0  0  0
   -0.6158    1.0569    2.7795 C   0  0  0  0  0  0  0  0  0  0  0  0
   -0.6012    2.0608    2.3530 H   0  0  0  0  0  0  0  0  0  0  0  0
   -1.6333    0.6718    2.7128 H   0  0  0  0  0  0  0  0  0  0  0  0
   -0.2592    1.1524    4.2691 C   0  0  0  0  0  0  0  0  0  0  0  0
    0.7104    1.6325    4.4001 H   0  0  0  0  0  0  0  0  0  0  0  0
   -1.0137    1.7494    4.7818 H   0  0  0  0  0  0  0  0  0  0  0  0
   -0.2352    0.1559    4.7116 H   0  0  0  0  0  0  0  0  0  0  0  0
    0.7237   -0.9174   -0.3465 C   0  0  0  0  0  0  0  0  0  0  0  0
    1.6467   -1.5653    0.1452 O   0  0  0  0  0  0  0  0  0  0  0  0
    0.5123   -0.8629   -1.6677 N   0  0  0  0  0  0  0  0  0  0  0  0
   -0.2710   -0.3209   -1.9968 H   0  0  0  0  0  0  0  0  0  0  0  0
    1.3465   -1.5394   -2.6589 C   0  0  0  0  0  0  0  0  0  0  0  0
    1.4369   -2.5977   -2.4040 H   0  0  0  0  0  0  0  0  0  0  0  0
    0.9053   -1.4462   -3.6523 H   0  0  0  0  0  0  0  0  0  0  0  0
    2.3447   -1.0973   -2.6621 H   0  0  0  0  0  0  0  0  0  0  0  0
  5  6  2  0  0  0  0
  5  7  1  0  0  0  0
  2  3  1  0  0  0  0
  2  4  1  0  0  0  0
  2  5  1  0  0  0  0
  1  2  1  0  0  0  0
 24 25  2  0  0  0  0
 24 26  1  0  0  0  0
 20 21  1  0  0  0  0
 20 22  1  0  0  0  0
 20 23  1  0  0  0  0
 17 18  1  0  0  0  0
 17 19  1  0  0  0  0
 17 20  1  0  0  0  0
 13 14  1  0  0  0  0
 13 15  1  0  0  0  0
 13 16  1  0  0  0  0
 11 12  1  0  0  0  0
 11 13  1  0  0  0  0
 11 17  1  0  0  0  0
  9 10  1  0  0  0  0
  9 11  1  0  0  0  0
  9 24  1  0  0  0  0
  7  8  1  0  0  0  0
  7  9  1  0  0  0  0
 28 29  1  0  0  0  0
 28 30  1  0  0  0  0
 28 31  1  0  0  0  0
 26 27  1  0  0  0  0
 26 28  1  0  0  0  0
M  END
$$$$
default_name
  -OEChem-01062215323D

 31 30  0     1  0  0  0  0  0999 V2000
   -3.0760   -3.6390    1.5496 H   0  0  0  0  0  0  0  0  0  0  0  0
   -3.0940   -2.6290    1.1426 C   0  0  0  0  0  0  0  0  0  0  0  0
   -3.7160   -1.9930    1.7706 H   0  0  0  0  0  0  0  0  0  0  0  0
   -3.4880   -2.6500    0.1286 H   0  0  0  0  0  0  0  0  0  0  0  0
   -1.6860   -2.0850    1.1196 C   0  0  0  0  0  0  0  0  0  0  0  0
   -0.7540   -2.7700    1.5226 O   0  0  0  0  0  0  0  0  0  0  0  0
   -1.5320   -0.8490    0.6496 N   0  0  0  0  0  0  0  0  0  0  0  0
   -2.3500   -0.3360    0.3566 H   0  0  0  0  0  0  0  0  0  0  0  0
   -0.2470   -0.1410    0.5576 C   0  0  1  0  0  0  0  0  0  0  0  0
   -0.4358    0.8231    0.0841 H   0  0  0  0  0  0  0  0  0  0  0  0
    0.3209    0.1285    1.9744 C   0  0  1  0  0  0  0  0  0  0  0  0
    0.3545   -0.8304    2.4951 H   0  0  0  0  0  0  0  0  0  0  0  0
    1.7544    0.6917    1.9364 C   0  0  0  0  0  0  0  0  0  0  0  0
    1.7637    1.6881    1.4909 H   0  0  0  0  0  0  0  0  0  0  0  0
    2.1654    0.7483    2.9430 H   0  0  0  0  0  0  0  0  0  0  0  0
    2.4004    0.0380    1.3493 H   0  0  0  0  0  0  0  0  0  0  0  0
   -0.6158    1.0569    2.7795 C   0  0  0  0  0  0  0  0  0  0  0  0
   -0.6012    2.0608    2.3530 H   0  0  0  0  0  0  0  0  0  0  0  0
   -1.6333    0.6718    2.7128 H   0  0  0  0  0  0  0  0  0  0  0  0
   -0.2592    1.1524    4.2691 C   0  0  0  0  0  0  0  0  0  0  0  0
    0.7104    1.6325    4.4001 H   0  0  0  0  0  0  0  0  0  0  0  0
   -1.0137    1.7494    4.7818 H   0  0  0  0  0  0  0  0  0  0  0  0
   -0.2352    0.1559    4.7116 H   0  0  0  0  0  0  0  0  0  0  0  0
    0.7237   -0.9174   -0.3465 C   0  0  0  0  0  0  0  0  0  0  0  0
    1.4657   -1.7748    0.1308 O   0  0  0  0  0  0  0  0  0  0  0  0
    0.7138   -0.6272   -1.6537 N   0  0  0  0  0  0  0  0  0  0  0  0
    0.0704    0.0793   -1.9740 H   0  0  0  0  0  0  0  0  0  0  0  0
    1.5774   -1.2707   -2.6418 C   0  0  0  0  0  0  0  0  0  0  0  0
    1.4798   -2.3559   -2.5656 H   0  0  0  0  0  0  0  0  0  0  0  0
    1.3009   -0.9555   -3.6490 H   0  0  0  0  0  0  0  0  0  0  0  0
    2.6181   -1.0021   -2.4503 H   0  0  0  0  0  0  0  0  0  0  0  0
  5  6  2  0  0  0  0
  5  7  1  0  0  0  0
  2  3  1  0  0  0  0
  2  4  1  0  0  0  0
  2  5  1  0  0  0  0
  1  2  1  0  0  0  0
 24 25  2  0  0  0  0
 24 26  1  0  0  0  0
 20 21  1  0  0  0  0
 20 22  1  0  0  0  0
 20 23  1  0  0  0  0
 17 18  1  0  0  0  0
 17 19  1  0  0  0  0
 17 20  1  0  0  0  0
 13 14  1  0  0  0  0
 13 15  1  0  0  0  0
 13 16  1  0  0  0  0
 11 12  1  0  0  0  0
 11 13  1  0  0  0  0
 11 17  1  0  0  0  0
  9 10  1  0  0  0  0
  9 11  1  0  0  0  0
  9 24  1  0  0  0  0
  7  8  1  0  0  0  0
  7  9  1  0  0  0  0
 28 29  1  0  0  0  0
 28 30  1  0  0  0  0
 28 31  1  0  0  0  0
 26 27  1  0  0  0  0
 26 28  1  0  0  0  0
M  END
$$$$
default_name
  -OEChem-01062215323D

 31 30  0     1  0  0  0  0  0999 V2000
   -3.0760   -3.6390    1.5496 H   0  0  0  0  0  0  0  0  0  0  0  0
   -3.0940   -2.6290    1.1426 C   0  0  0  0  0  0  0  0  0  0  0  0
   -3.7160   -1.9930    1.7706 H   0  0  0  0  0  0  0  0  0  0  0  0
   -3.4880   -2.6500    0.1286 H   0  0  0  0  0  0  0  0  0  0  0  0
   -1.6860   -2.0850    1.1196 C   0  0  0  0  0  0  0  0  0  0  0  0
   -0.7540   -2.7700    1.5226 O   0  0  0  0  0  0  0  0  0  0  0  0
   -1.5320   -0.8490    0.6496 N   0  0  0  0  0  0  0  0  0  0  0  0
   -2.3500   -0.3360    0.3566 H   0  0  0  0  0  0  0  0  0  0  0  0
   -0.2470   -0.1410    0.5576 C   0  0  1  0  0  0  0  0  0  0  0  0
   -0.4358    0.8231    0.0841 H   0  0  0  0  0  0  0  0  0  0  0  0
    0.3209    0.1285    1.9744 C   0  0  1  0  0  0  0  0  0  0  0  0
    0.3545   -0.8304    2.4951 H   0  0  0  0  0  0  0  0  0  0  0  0
    1.7544    0.6917    1.9364 C   0  0  0  0  0  0  0  0  0  0  0  0
    1.7637    1.6881    1.4909 H   0  0  0  0  0  0  0  0  0  0  0  0
    2.1654    0.7483    2.9430 H   0  0  0  0  0  0  0  0  0  0  0  0
    2.4004    0.0380    1.3493 H   0  0  0  0  0  0  0  0  0  0  0  0
   -0.6158    1.0569    2.7795 C   0  0  0  0  0  0  0  0  0  0  0  0
   -0.6012    2.0608    2.3530 H   0  0  0  0  0  0  0  0  0  0  0  0
   -1.6333    0.6718    2.7128 H   0  0  0  0  0  0  0  0  0  0  0  0
   -0.2592    1.1524    4.2691 C   0  0  0  0  0  0  0  0  0  0  0  0
    0.7104    1.6325    4.4001 H   0  0  0  0  0  0  0  0  0  0  0  0
   -1.0137    1.7494    4.7818 H   0  0  0  0  0  0  0  0  0  0  0  0
   -0.2352    0.1559    4.7116 H   0  0  0  0  0  0  0  0  0  0  0  0
    0.7237   -0.9174   -0.3465 C   0  0  0  0  0  0  0  0  0  0  0  0
    1.2609   -1.9472    0.0589 O   0  0  0  0  0  0  0  0  0  0  0  0
    0.9425   -0.4325   -1.5754 N   0  0  0  0  0  0  0  0  0  0  0  0
    0.4581    0.4101   -1.8418 H   0  0  0  0  0  0  0  0  0  0  0  0
    1.8392   -1.0490   -2.5512 C   0  0  0  0  0  0  0  0  0  0  0  0
    1.5792   -2.1024   -2.6765 H   0  0  0  0  0  0  0  0  0  0  0  0
    1.7573   -0.5423   -3.5138 H   0  0  0  0  0  0  0  0  0  0  0  0
    2.8690   -0.9864   -2.1944 H   0  0  0  0  0  0  0  0  0  0  0  0
  5  6  2  0  0  0  0
  5  7  1  0  0  0  0
  2  3  1  0  0  0  0
  2  4  1  0  0  0  0
  2  5  1  0  0  0  0
  1  2  1  0  0  0  0
 24 25  2  0  0  0  0
 24 26  1  0  0  0  0
 20 21  1  0  0  0  0
 20 22  1  0  0  0  0
 20 23  1  0  0  0  0
 17 18  1  0  0  0  0
 17 19  1  0  0  0  0
 17 20  1  0  0  0  0
 13 14  1  0  0  0  0
 13 15  1  0  0  0  0
 13 16  1  0  0  0  0
 11 12  1  0  0  0  0
 11 13  1  0  0  0  0
 11 17  1  0  0  0  0
  9 10  1  0  0  0  0
  9 11  1  0  0  0  0
  9 24  1  0  0  0  0
  7  8  1  0  0  0  0
  7  9  1  0  0  0  0
 28 29  1  0  0  0  0
 28 30  1  0  0  0  0
 28 31  1  0  0  0  0
 26 27  1  0  0  0  0
 26 28  1  0  0  0  0
M  END
$$$$
default_name
  -OEChem-01062215323D

 31 30  0     1  0  0  0  0  0999 V2000
   -3.0760   -3.6390    1.5496 H   0  0  0  0  0  0  0  0  0  0  0  0
   -3.0940   -2.6290    1.1426 C   0  0  0  0  0  0  0  0  0  0  0  0
   -3.7160   -1.9930    1.7706 H   0  0  0  0  0  0  0  0  0  0  0  0
   -3.4880   -2.6500    0.1286 H   0  0  0  0  0  0  0  0  0  0  0  0
   -1.6860   -2.0850    1.1196 C   0  0  0  0  0  0  0  0  0  0  0  0
   -0.7540   -2.7700    1.5226 O   0  0  0  0  0  0  0  0  0  0  0  0
   -1.5320   -0.8490    0.6496 N   0  0  0  0  0  0  0  0  0  0  0  0
   -2.3500   -0.3360    0.3566 H   0  0  0  0  0  0  0  0  0  0  0  0
   -0.2470   -0.1410    0.5576 C   0  0  1  0  0  0  0  0  0  0  0  0
   -0.4358    0.8231    0.0841 H   0  0  0  0  0  0  0  0  0  0  0  0
    0.3209    0.1285    1.9744 C   0  0  1  0  0  0  0  0  0  0  0  0
    0.3545   -0.8304    2.4951 H   0  0  0  0  0  0  0  0  0  0  0  0
    1.7544    0.6917    1.9364 C   0  0  0  0  0  0  0  0  0  0  0  0
    1.7637    1.6881    1.4909 H   0  0  0  0  0  0  0  0  0  0  0  0
    2.1654    0.7483    2.9430 H   0  0  0  0  0  0  0  0  0  0  0  0
    2.4004    0.0380    1.3493 H   0  0  0  0  0  0  0  0  0  0  0  0
   -0.6158    1.0569    2.7795 C   0  0  0  0  0  0  0  0  0  0  0  0
   -0.6012    2.0608    2.3530 H   0  0  0  0  0  0  0  0  0  0  0  0
   -1.6333    0.6718    2.7128 H   0  0  0  0  0  0  0  0  0  0  0  0
   -0.2592    1.1524    4.2691 C   0  0  0  0  0  0  0  0  0  0  0  0
    0.7104    1.6325    4.4001 H   0  0  0  0  0  0  0  0  0  0  0  0
   -1.0137    1.7494    4.7818 H   0  0  0  0  0  0  0  0  0  0  0  0
   -0.2352    0.1559    4.7116 H   0  0  0  0  0  0  0  0  0  0  0  0
    0.7237   -0.9174   -0.3465 C   0  0  0  0  0  0  0  0  0  0  0  0
    1.0462   -2.0708   -0.0654 O   0  0  0  0  0  0  0  0  0  0  0  0
    1.1827   -0.2921   -1.4380 N   0  0  0  0  0  0  0  0  0  0  0  0
    0.8656    0.6490   -1.6094 H   0  0  0  0  0  0  0  0  0  0  0  0
    2.1139   -0.8896   -2.3932 C   0  0  0  0  0  0  0  0  0  0  0  0
    1.7283   -1.8546   -2.7293 H   0  0  0  0  0  0  0  0  0  0  0  0
    2.2433   -0.2347   -3.2561 H   0  0  0  0  0  0  0  0  0  0  0  0
    3.0803   -1.0512   -1.9119 H   0  0  0  0  0  0  0  0  0  0  0  0
  5  6  2  0  0  0  0
  5  7  1  0  0  0  0
  2  3  1  0  0  0  0
  2  4  1  0  0  0  0
  2  5  1  0  0  0  0
  1  2  1  0  0  0  0
 24 25  2  0  0  0  0
 24 26  1  0  0  0  0
 20 21  1  0  0  0  0
 20 22  1  0  0  0  0
 20 23  1  0  0  0  0
 17 18  1  0  0  0  0
 17 19  1  0  0  0  0
 17 20  1  0  0  0  0
 13 14  1  0  0  0  0
 13 15  1  0  0  0  0
 13 16  1  0  0  0  0
 11 12  1  0  0  0  0
 11 13  1  0  0  0  0
 11 17  1  0  0  0  0
  9 10  1  0  0  0  0
  9 11  1  0  0  0  0
  9 24  1  0  0  0  0
  7  8  1  0  0  0  0
  7  9  1  0  0  0  0
 28 29  1  0  0  0  0
 28 30  1  0  0  0  0
 28 31  1  0  0  0  0
 26 27  1  0  0  0  0
 26 28  1  0  0  0  0
M  END
$$$$
default_name
  -OEChem-01062215323D

 31 30  0     1  0  0  0  0  0999 V2000
   -3.0760   -3.6390    1.5496 H   0  0  0  0  0  0  0  0  0  0  0  0
   -3.0940   -2.6290    1.1426 C   0  0  0  0  0  0  0  0  0  0  0  0
   -3.7160   -1.9930    1.7706 H   0  0  0  0  0  0  0  0  0  0  0  0
   -3.4880   -2.6500    0.1286 H   0  0  0  0  0  0  0  0  0  0  0  0
   -1.6860   -2.0850    1.1196 C   0  0  0  0  0  0  0  0  0  0  0  0
   -0.7540   -2.7700    1.5226 O   0  0  0  0  0  0  0  0  0  0  0  0
   -1.5320   -0.8490    0.6496 N   0  0  0  0  0  0  0  0  0  0  0  0
   -2.3500   -0.3360    0.3566 H   0  0  0  0  0  0  0  0  0  0  0  0
   -0.2470   -0.1410    0.5576 C   0  0  1  0  0  0  0  0  0  0  0  0
   -0.4358    0.8231    0.0841 H   0  0  0  0  0  0  0  0  0  0  0  0
    0.3209    0.1285    1.9744 C   0  0  1  0  0  0  0  0  0  0  0  0
    0.3545   -0.8304    2.4951 H   0  0  0  0  0  0  0  0  0  0  0  0
    1.7544    0.6917    1.9364 C   0  0  0  0  0  0  0  0  0  0  0  0
    1.7637    1.6881    1.4909 H   0  0  0  0  0  0  0  0  0  0  0  0
    2.1654    0.7483    2.9430 H   0  0  0  0  0  0  0  0  0  0  0  0
    2.4004    0.0380    1.3493 H   0  0  0  0  0  0  0  0  0  0  0  0
   -0.6158    1.0569    2.7795 C   0  0  0  0  0  0  0  0  0  0  0  0
   -0.6012    2.0608    2.3530 H   0  0  0  0  0  0  0  0  0  0  0  0
   -1.6333    0.6718    2.7128 H   0  0  0  0  0  0  0  0  0  0  0  0
   -0.2592    1.1524    4.2691 C   0  0  0  0  0  0  0  0  0  0  0  0
    0.7104    1.6325    4.4001 H   0  0  0  0  0  0  0  0  0  0  0  0
   -1.0137    1.7494    4.7818 H   0  0  0  0  0  0  0  0  0  0  0  0
   -0.2352    0.1559    4.7116 H   0  0  0  0  0  0  0  0  0  0  0  0
    0.7237   -0.9174   -0.3465 C   0  0  0  0  0  0  0  0  0  0  0  0
    0.8362   -2.1373   -0.2338 O   0  0  0  0  0  0  0  0  0  0  0  0
    1.4183   -0.2155   -1.2509 N   0  0  0  0  0  0  0  0  0  0  0  0
    1.2652    0.7797   -1.2926 H   0  0  0  0  0  0  0  0  0  0  0  0
    2.3828   -0.8032   -2.1785 C   0  0  0  0  0  0  0  0  0  0  0  0
    1.9170   -1.6293   -2.7202 H   0  0  0  0  0  0  0  0  0  0  0  0
    2.7260   -0.0538   -2.8933 H   0  0  0  0  0  0  0  0  0  0  0  0
    3.2376   -1.1921   -1.6219 H   0  0  0  0  0  0  0  0  0  0  0  0
  5  6  2  0  0  0  0
  5  7  1  0  0  0  0
  2  3  1  0  0  0  0
  2  4  1  0  0  0  0
  2  5  1  0  0  0  0
  1  2  1  0  0  0  0
 24 25  2  0  0  0  0
 24 26  1  0  0  0  0
 20 21  1  0  0  0  0
 20 22  1  0  0  0  0
 20 23  1  0  0  0  0
 17 18  1  0  0  0  0
 17 19  1  0  0  0  0
 17 20  1  0  0  0  0
 13 14  1  0  0  0  0
 13 15  1  0  0  0  0
 13 16  1  0  0  0  0
 11 12  1  0  0  0  0
 11 13  1  0  0  0  0
 11 17  1  0  0  0  0
  9 10  1  0  0  0  0
  9 11  1  0  0  0  0
  9 24  1  0  0  0  0
  7  8  1  0  0  0  0
  7  9  1  0  0  0  0
 28 29  1  0  0  0  0
 28 30  1  0  0  0  0
 28 31  1  0  0  0  0
 26 27  1  0  0  0  0
 26 28  1  0  0  0  0
M  END
$$$$
default_name
  -OEChem-01062215323D

 31 30  0     1  0  0  0  0  0999 V2000
   -3.0760   -3.6390    1.5496 H   0  0  0  0  0  0  0  0  0  0  0  0
   -3.0940   -2.6290    1.1426 C   0  0  0  0  0  0  0  0  0  0  0  0
   -3.7160   -1.9930    1.7706 H   0  0  0  0  0  0  0  0  0  0  0  0
   -3.4880   -2.6500    0.1286 H   0  0  0  0  0  0  0  0  0  0  0  0
   -1.6860   -2.0850    1.1196 C   0  0  0  0  0  0  0  0  0  0  0  0
   -0.7540   -2.7700    1.5226 O   0  0  0  0  0  0  0  0  0  0  0  0
   -1.5320   -0.8490    0.6496 N   0  0  0  0  0  0  0  0  0  0  0  0
   -2.3500   -0.3360    0.3566 H   0  0  0  0  0  0  0  0  0  0  0  0
   -0.2470   -0.1410    0.5576 C   0  0  1  0  0  0  0  0  0  0  0  0
   -0.4358    0.8231    0.0841 H   0  0  0  0  0  0  0  0  0  0  0  0
    0.3209    0.1285    1.9744 C   0  0  1  0  0  0  0  0  0  0  0  0
    0.3545   -0.8304    2.4951 H   0  0  0  0  0  0  0  0  0  0  0  0
    1.7544    0.6917    1.9364 C   0  0  0  0  0  0  0  0  0  0  0  0
    1.7637    1.6881    1.4909 H   0  0  0  0  0  0  0  0  0  0  0  0
    2.1654    0.7483    2.9430 H   0  0  0  0  0  0  0  0  0  0  0  0
    2.4004    0.0380    1.3493 H   0  0  0  0  0  0  0  0  0  0  0  0
   -0.6158    1.0569    2.7795 C   0  0  0  0  0  0  0  0  0  0  0  0
   -0.6012    2.0608    2.3530 H   0  0  0  0  0  0  0  0  0  0  0  0
   -1.6333    0.6718    2.7128 H   0  0  0  0  0  0  0  0  0  0  0  0
   -0.2592    1.1524    4.2691 C   0  0  0  0  0  0  0  0  0  0  0  0
    0.7104    1.6325    4.4001 H   0  0  0  0  0  0  0  0  0  0  0  0
   -1.0137    1.7494    4.7818 H   0  0  0  0  0  0  0  0  0  0  0  0
   -0.2352    0.1559    4.7116 H   0  0  0  0  0  0  0  0  0  0  0  0
    0.7237   -0.9174   -0.3465 C   0  0  0  0  0  0  0  0  0  0  0  0
    0.6453   -2.1419   -0.4348 O   0  0  0  0  0  0  0  0  0  0  0  0
    1.6330   -0.2079   -1.0269 N   0  0  0  0  0  0  0  0  0  0  0  0
    1.6298    0.7934   -0.9130 H   0  0  0  0  0  0  0  0  0  0  0  0
    2.6277   -0.7958   -1.9220 C   0  0  0  0  0  0  0  0  0  0  0  0
    2.1323   -1.4419   -2.6500 H   0  0  0  0  0  0  0  0  0  0  0  0
    3.1723   -0.0118   -2.4502 H   0  0  0  0  0  0  0  0  0  0  0  0
    3.3302   -1.3996   -1.3443 H   0  0  0  0  0  0  0  0  0  0  0  0
  5  6  2  0  0  0  0
  5  7  1  0  0  0  0
  2  3  1  0  0  0  0
  2  4  1  0  0  0  0
  2  5  1  0  0  0  0
  1  2  1  0  0  0  0
 24 25  2  0  0  0  0
 24 26  1  0  0  0  0
 20 21  1  0  0  0  0
 20 22  1  0  0  0  0
 20 23  1  0  0  0  0
 17 18  1  0  0  0  0
 17 19  1  0  0  0  0
 17 20  1  0  0  0  0
 13 14  1  0  0  0  0
 13 15  1  0  0  0  0
 13 16  1  0  0  0  0
 11 12  1  0  0  0  0
 11 13  1  0  0  0  0
 11 17  1  0  0  0  0
  9 10  1  0  0  0  0
  9 11  1  0  0  0  0
  9 24  1  0  0  0  0
  7  8  1  0  0  0  0
  7  9  1  0  0  0  0
 28 29  1  0  0  0  0
 28 30  1  0  0  0  0
 28 31  1  0  0  0  0
 26 27  1  0  0  0  0
 26 28  1  0  0  0  0
M  END
$$$$
default_name
  -OEChem-01062215323D

 31 30  0     1  0  0  0  0  0999 V2000
   -3.0760   -3.6390    1.5496 H   0  0  0  0  0  0  0  0  0  0  0  0
   -3.0940   -2.6290    1.1426 C   0  0  0  0  0  0  0  0  0  0  0  0
   -3.7160   -1.9930    1.7706 H   0  0  0  0  0  0  0  0  0  0  0  0
   -3.4880   -2.6500    0.1286 H   0  0  0  0  0  0  0  0  0  0  0  0
   -1.6860   -2.0850    1.1196 C   0  0  0  0  0  0  0  0  0  0  0  0
   -0.7540   -2.7700    1.5226 O   0  0  0  0  0  0  0  0  0  0  0  0
   -1.5320   -0.8490    0.6496 N   0  0  0  0  0  0  0  0  0  0  0  0
   -2.3500   -0.3360    0.3566 H   0  0  0  0  0  0  0  0  0  0  0  0
   -0.2470   -0.1410    0.5576 C   0  0  1  0  0  0  0  0  0  0  0  0
   -0.4358    0.8231    0.0841 H   0  0  0  0  0  0  0  0  0  0  0  0
    0.3209    0.1285    1.9744 C   0  0  1  0  0  0  0  0  0  0  0  0
    0.3545   -0.8304    2.4951 H   0  0  0  0  0  0  0  0  0  0  0  0
    1.7544    0.6917    1.9364 C   0  0  0  0  0  0  0  0  0  0  0  0
    1.7637    1.6881    1.4909 H   0  0  0  0  0  0  0  0  0  0  0  0
    2.1654    0.7483    2.9430 H   0  0  0  0  0  0  0  0  0  0  0  0
    2.4004    0.0380    1.3493 H   0  0  0  0  0  0  0  0  0  0  0  0
   -0.6158    1.0569    2.7795 C   0  0  0  0  0  0  0  0  0  0  0  0
   -0.6012    2.0608    2.3530 H   0  0  0  0  0  0  0  0  0  0  0  0
   -1.6333    0.6718    2.7128 H   0  0  0  0  0  0  0  0  0  0  0  0
   -0.2592    1.1524    4.2691 C   0  0  0  0  0  0  0  0  0  0  0  0
    0.7104    1.6325    4.4001 H   0  0  0  0  0  0  0  0  0  0  0  0
   -1.0137    1.7494    4.7818 H   0  0  0  0  0  0  0  0  0  0  0  0
   -0.2352    0.1559    4.7116 H   0  0  0  0  0  0  0  0  0  0  0  0
    0.7237   -0.9174   -0.3465 C   0  0  0  0  0  0  0  0  0  0  0  0
    0.4865   -2.0845   -0.6546 O   0  0  0  0  0  0  0  0  0  0  0  0
    1.8122   -0.2699   -0.7812 N   0  0  0  0  0  0  0  0  0  0  0  0
    1.9343    0.6891   -0.4964 H   0  0  0  0  0  0  0  0  0  0  0  0
    2.8318   -0.8679   -1.6409 C   0  0  0  0  0  0  0  0  0  0  0  0
    2.3596   -1.3052   -2.5234 H   0  0  0  0  0  0  0  0  0  0  0  0
    3.5518   -0.1116   -1.9570 H   0  0  0  0  0  0  0  0  0  0  0  0
    3.3517   -1.6595   -1.0980 H   0  0  0  0  0  0  0  0  0  0  0  0
  5  6  2  0  0  0  0
  5  7  1  0  0  0  0
  2  3  1  0  0  0  0
  2  4  1  0  0  0  0
  2  5  1  0  0  0  0
  1  2  1  0  0  0  0
 24 25  2  0  0  0  0
 24 26  1  0  0  0  0
 20 21  1  0  0  0  0
 20 22  1  0  0  0  0
 20 23  1  0  0  0  0
 17 18  1  0  0  0  0
 17 19  1  0  0  0  0
 17 20  1  0  0  0  0
 13 14  1  0  0  0  0
 13 15  1  0  0  0  0
 13 16  1  0  0  0  0
 11 12  1  0  0  0  0
 11 13  1  0  0  0  0
 11 17  1  0  0  0  0
  9 10  1  0  0  0  0
  9 11  1  0  0  0  0
  9 24  1  0  0  0  0
  7  8  1  0  0  0  0
  7  9  1  0  0  0  0
 28 29  1  0  0  0  0
 28 30  1  0  0  0  0
 28 31  1  0  0  0  0
 26 27  1  0  0  0  0
 26 28  1  0  0  0  0
M  END
$$$$
default_name
  -OEChem-01062215323D

 31 30  0     1  0  0  0  0  0999 V2000
   -3.0760   -3.6390    1.5496 H   0  0  0  0  0  0  0  0  0  0  0  0
   -3.0940   -2.6290    1.1426 C   0  0  0  0  0  0  0  0  0  0  0  0
   -3.7160   -1.9930    1.7706 H   0  0  0  0  0  0  0  0  0  0  0  0
   -3.4880   -2.6500    0.1286 H   0  0  0  0  0  0  0  0  0  0  0  0
   -1.6860   -2.0850    1.1196 C   0  0  0  0  0  0  0  0  0  0  0  0
   -0.7540   -2.7700    1.5226 O   0  0  0  0  0  0  0  0  0  0  0  0
   -1.5320   -0.8490    0.6496 N   0  0  0  0  0  0  0  0  0  0  0  0
   -2.3500   -0.3360    0.3566 H   0  0  0  0  0  0  0  0  0  0  0  0
   -0.2470   -0.1410    0.5576 C   0  0  1  0  0  0  0  0  0  0  0  0
   -0.4630    0.9058    0.3411 H   0  0  0  0  0  0  0  0  0  0  0  0
    0.4985   -0.2016    1.9151 C   0  0  1  0  0  0  0  0  0  0  0  0
    0.5665   -1.2538    2.1980 H   0  0  0  0  0  0  0  0  0  0  0  0
    1.9330    0.3529    1.8239 C   0  0  0  0  0  0  0  0  0  0  0  0
    1.9180    1.4244    1.6168 H   0  0  0  0  0  0  0  0  0  0  0  0
    2.4661    0.1784    2.7571 H   0  0  0  0  0  0  0  0  0  0  0  0
    2.4818   -0.1516    1.0278 H   0  0  0  0  0  0  0  0  0  0  0  0
   -0.3034    0.5213    3.0205 C   0  0  0  0  0  0  0  0  0  0  0  0
   -0.3107    1.5958    2.8328 H   0  0  0  0  0  0  0  0  0  0  0  0
   -1.3327    0.1632    2.9981 H   0  0  0  0  0  0  0  0  0  0  0  0
    0.2361    0.2750    4.4360 C   0  0  0  0  0  0  0  0  0  0  0  0
    1.2287    0.7110    4.5479 H   0  0  0  0  0  0  0  0  0  0  0  0
   -0.4311    0.7413    5.1612 H   0  0  0  0  0  0  0  0  0  0  0  0
    0.2838   -0.7960    4.6359 H   0  0  0  0  0  0  0  0  0  0  0  0
    0.5812   -0.6934   -0.6135 C   0  0  0  0  0  0  0  0  0  0  0  0
    0.1334   -1.5959   -1.3194 O   0  0  0  0  0  0  0  0  0  0  0  0
    1.7847   -0.1472   -0.8285 N   0  0  0  0  0  0  0  0  0  0  0  0
    2.0803    0.5962   -0.2157 H   0  0  0  0  0  0  0  0  0  0  0  0
    2.6939   -0.5630   -1.8948 C   0  0  0  0  0  0  0  0  0  0  0  0
    2.1706   -0.5446   -2.8533 H   0  0  0  0  0  0  0  0  0  0  0  0
    3.5534    0.1071   -1.9424 H   0  0  0  0  0  0  0  0  0  0  0  0
    3.0379   -1.5820   -1.7075 H   0  0  0  0  0  0  0  0  0  0  0  0
  5  6  2  0  0  0  0
  5  7  1  0  0  0  0
  2  3  1  0  0  0  0
  2  4  1  0  0  0  0
  2  5  1  0  0  0  0
  1  2  1  0  0  0  0
 24 25  2  0  0  0  0
 24 26  1  0  0  0  0
 20 21  1  0  0  0  0
 20 22  1  0  0  0  0
 20 23  1  0  0  0  0
 17 18  1  0  0  0  0
 17 19  1  0  0  0  0
 17 20  1  0  0  0  0
 13 14  1  0  0  0  0
 13 15  1  0  0  0  0
 13 16  1  0  0  0  0
 11 12  1  0  0  0  0
 11 13  1  0  0  0  0
 11 17  1  0  0  0  0
  9 10  1  0  0  0  0
  9 11  1  0  0  0  0
  9 24  1  0  0  0  0
  7  8  1  0  0  0  0
  7  9  1  0  0  0  0
 28 29  1  0  0  0  0
 28 30  1  0  0  0  0
 28 31  1  0  0  0  0
 26 27  1  0  0  0  0
 26 28  1  0  0  0  0
M  END
$$$$
default_name
  -OEChem-01062215323D

 31 30  0     1  0  0  0  0  0999 V2000
   -3.0760   -3.6390    1.5496 H   0  0  0  0  0  0  0  0  0  0  0  0
   -3.0940   -2.6290    1.1426 C   0  0  0  0  0  0  0  0  0  0  0  0
   -3.7160   -1.9930    1.7706 H   0  0  0  0  0  0  0  0  0  0  0  0
   -3.4880   -2.6500    0.1286 H   0  0  0  0  0  0  0  0  0  0  0  0
   -1.6860   -2.0850    1.1196 C   0  0  0  0  0  0  0  0  0  0  0  0
   -0.7540   -2.7700    1.5226 O   0  0  0  0  0  0  0  0  0  0  0  0
   -1.5320   -0.8490    0.6496 N   0  0  0  0  0  0  0  0  0  0  0  0
   -2.3500   -0.3360    0.3566 H   0  0  0  0  0  0  0  0  0  0  0  0
   -0.2470   -0.1410    0.5576 C   0  0  1  0  0  0  0  0  0  0  0  0
   -0.4630    0.9058    0.3411 H   0  0  0  0  0  0  0  0  0  0  0  0
    0.4985   -0.2016    1.9151 C   0  0  1  0  0  0  0  0  0  0  0  0
    0.5665   -1.2538    2.1980 H   0  0  0  0  0  0  0  0  0  0  0  0
    1.9330    0.3529    1.8239 C   0  0  0  0  0  0  0  0  0  0  0  0
    1.9180    1.4244    1.6168 H   0  0  0  0  0  0  0  0  0  0  0  0
    2.4661    0.1784    2.7571 H   0  0  0  0  0  0  0  0  0  0  0  0
    2.4818   -0.1516    1.0278 H   0  0  0  0  0  0  0  0  0  0  0  0
   -0.3034    0.5213    3.0205 C   0  0  0  0  0  0  0  0  0  0  0  0
   -0.3107    1.5958    2.8328 H   0  0  0  0  0  0  0  0  0  0  0  0
   -1.3327    0.1632    2.9981 H   0  0  0  0  0  0  0  0  0  0  0  0
    0.2361    0.2750    4.4360 C   0  0  0  0  0  0  0  0  0  0  0  0
    1.2287    0.7110    4.5479 H   0  0  0  0  0  0  0  0  0  0  0  0
   -0.4311    0.7413    5.1612 H   0  0  0  0  0  0  0  0  0  0  0  0
    0.2838   -0.7960    4.6359 H   0  0  0  0  0  0  0  0  0  0  0  0
    0.5812   -0.6934   -0.6135 C   0  0  0  0  0  0  0  0  0  0  0  0
    0.0478   -1.3860   -1.4790 O   0  0  0  0  0  0  0  0  0  0  0  0
    1.8828   -0.3807   -0.6491 N   0  0  0  0  0  0  0  0  0  0  0  0
    2.2473    0.2007    0.0889 H   0  0  0  0  0  0  0  0  0  0  0  0
    2.8048   -0.8307   -1.6901 C   0  0  0  0  0  0  0  0  0  0  0  0
    2.4002   -0.5814   -2.6735 H   0  0  0  0  0  0  0  0  0  0  0  0
    3.7764   -0.3495   -1.5693 H   0  0  0  0  0  0  0  0  0  0  0  0
    2.9262   -1.9140   -1.6299 H   0  0  0  0  0  0  0  0  0  0  0  0
  5  6  2  0  0  0  0
  5  7  1  0  0  0  0
  2  3  1  0  0  0  0
  2  4  1  0  0  0  0
  2  5  1  0  0  0  0
  1  2  1  0  0  0  0
 24 25  2  0  0  0  0
 24 26  1  0  0  0  0
 20 21  1  0  0  0  0
 20 22  1  0  0  0  0
 20 23  1  0  0  0  0
 17 18  1  0  0  0  0
 17 19  1  0  0  0  0
 17 20  1  0  0  0  0
 13 14  1  0  0  0  0
 13 15  1  0  0  0  0
 13 16  1  0  0  0  0
 11 12  1  0  0  0  0
 11 13  1  0  0  0  0
 11 17  1  0  0  0  0
  9 10  1  0  0  0  0
  9 11  1  0  0  0  0
  9 24  1  0  0  0  0
  7  8  1  0  0  0  0
  7  9  1  0  0  0  0
 28 29  1  0  0  0  0
 28 30  1  0  0  0  0
 28 31  1  0  0  0  0
 26 27  1  0  0  0  0
 26 28  1  0  0  0  0
M  END
$$$$
default_name
  -OEChem-01062215323D

 31 30  0     1  0  0  0  0  0999 V2000
   -3.0760   -3.6390    1.5496 H   0  0  0  0  0  0  0  0  0  0  0  0
   -3.0940   -2.6290    1.1426 C   0  0  0  0  0  0  0  0  0  0  0  0
   -3.7160   -1.9930    1.7706 H   0  0  0  0  0  0  0  0  0  0  0  0
   -3.4880   -2.6500    0.1286 H   0  0  0  0  0  0  0  0  0  0  0  0
   -1.6860   -2.0850    1.1196 C   0  0  0  0  0  0  0  0  0  0  0  0
   -0.7540   -2.7700    1.5226 O   0  0  0  0  0  0  0  0  0  0  0  0
   -1.5320   -0.8490    0.6496 N   0  0  0  0  0  0  0  0  0  0  0  0
   -2.3500   -0.3360    0.3566 H   0  0  0  0  0  0  0  0  0  0  0  0
   -0.2470   -0.1410    0.5576 C   0  0  1  0  0  0  0  0  0  0  0  0
   -0.4630    0.9058    0.3411 H   0  0  0  0  0  0  0  0  0  0  0  0
    0.4985   -0.2016    1.9151 C   0  0  1  0  0  0  0  0  0  0  0  0
    0.5665   -1.2538    2.1980 H   0  0  0  0  0  0  0  0  0  0  0  0
    1.9330    0.3529    1.8239 C   0  0  0  0  0  0  0  0  0  0  0  0
    1.9180    1.4244    1.6168 H   0  0  0  0  0  0  0  0  0  0  0  0
    2.4661    0.1784    2.7571 H   0  0  0  0  0  0  0  0  0  0  0  0
    2.4818   -0.1516    1.0278 H   0  0  0  0  0  0  0  0  0  0  0  0
   -0.3034    0.5213    3.0205 C   0  0  0  0  0  0  0  0  0  0  0  0
   -0.3107    1.5958    2.8328 H   0  0  0  0  0  0  0  0  0  0  0  0
   -1.3327    0.1632    2.9981 H   0  0  0  0  0  0  0  0  0  0  0  0
    0.2361    0.2750    4.4360 C   0  0  0  0  0  0  0  0  0  0  0  0
    1.2287    0.7110    4.5479 H   0  0  0  0  0  0  0  0  0  0  0  0
   -0.4311    0.7413    5.1612 H   0  0  0  0  0  0  0  0  0  0  0  0
    0.2838   -0.7960    4.6359 H   0  0  0  0  0  0  0  0  0  0  0  0
    0.5812   -0.6934   -0.6135 C   0  0  0  0  0  0  0  0  0  0  0  0
    0.0213   -1.1441   -1.6119 O   0  0  0  0  0  0  0  0  0  0  0  0
    1.9147   -0.6506   -0.4992 N   0  0  0  0  0  0  0  0  0  0  0  0
    2.3023   -0.2568    0.3436 H   0  0  0  0  0  0  0  0  0  0  0  0
    2.8400   -1.1397   -1.5194 C   0  0  0  0  0  0  0  0  0  0  0  0
    2.5980   -0.6874   -2.4837 H   0  0  0  0  0  0  0  0  0  0  0  0
    3.8669   -0.8864   -1.2520 H   0  0  0  0  0  0  0  0  0  0  0  0
    2.7457   -2.2234   -1.6116 H   0  0  0  0  0  0  0  0  0  0  0  0
  5  6  2  0  0  0  0
  5  7  1  0  0  0  0
  2  3  1  0  0  0  0
  2  4  1  0  0  0  0
  2  5  1  0  0  0  0
  1  2  1  0  0  0  0
 24 25  2  0  0  0  0
 24 26  1  0  0  0  0
 20 21  1  0  0  0  0
 20 22  1  0  0  0  0
 20 23  1  0  0  0  0
 17 18  1  0  0  0  0
 17 19  1  0  0  0  0
 17 20  1  0  0  0  0
 13 14  1  0  0  0  0
 13 15  1  0  0  0  0
 13 16  1  0  0  0  0
 11 12  1  0  0  0  0
 11 13  1  0  0  0  0
 11 17  1  0  0  0  0
  9 10  1  0  0  0  0
  9 11  1  0  0  0  0
  9 24  1  0  0  0  0
  7  8  1  0  0  0  0
  7  9  1  0  0  0  0
 28 29  1  0  0  0  0
 28 30  1  0  0  0  0
 28 31  1  0  0  0  0
 26 27  1  0  0  0  0
 26 28  1  0  0  0  0
M  END
$$$$
default_name
  -OEChem-01062215323D

 31 30  0     1  0  0  0  0  0999 V2000
   -3.0760   -3.6390    1.5496 H   0  0  0  0  0  0  0  0  0  0  0  0
   -3.0940   -2.6290    1.1426 C   0  0  0  0  0  0  0  0  0  0  0  0
   -3.7160   -1.9930    1.7706 H   0  0  0  0  0  0  0  0  0  0  0  0
   -3.4880   -2.6500    0.1286 H   0  0  0  0  0  0  0  0  0  0  0  0
   -1.6860   -2.0850    1.1196 C   0  0  0  0  0  0  0  0  0  0  0  0
   -0.7540   -2.7700    1.5226 O   0  0  0  0  0  0  0  0  0  0  0  0
   -1.5320   -0.8490    0.6496 N   0  0  0  0  0  0  0  0  0  0  0  0
   -2.3500   -0.3360    0.3566 H   0  0  0  0  0  0  0  0  0  0  0  0
   -0.2470   -0.1410    0.5576 C   0  0  1  0  0  0  0  0  0  0  0  0
   -0.4630    0.9058    0.3411 H   0  0  0  0  0  0  0  0  0  0  0  0
    0.4985   -0.2016    1.9151 C   0  0  1  0  0  0  0  0  0  0  0  0
    0.5665   -1.2538    2.1980 H   0  0  0  0  0  0  0  0  0  0  0  0
    1.9330    0.3529    1.8239 C   0  0  0  0  0  0  0  0  0  0  0  0
    1.9180    1.4244    1.6168 H   0  0  0  0  0  0  0  0  0  0  0  0
    2.4661    0.1784    2.7571 H   0  0  0  0  0  0  0  0  0  0  0  0
    2.4818   -0.1516    1.0278 H   0  0  0  0  0  0  0  0  0  0  0  0
   -0.3034    0.5213    3.0205 C   0  0  0  0  0  0  0  0  0  0  0  0
   -0.3107    1.5958    2.8328 H   0  0  0  0  0  0  0  0  0  0  0  0
   -1.3327    0.1632    2.9981 H   0  0  0  0  0  0  0  0  0  0  0  0
    0.2361    0.2750    4.4360 C   0  0  0  0  0  0  0  0  0  0  0  0
    1.2287    0.7110    4.5479 H   0  0  0  0  0  0  0  0  0  0  0  0
   -0.4311    0.7413    5.1612 H   0  0  0  0  0  0  0  0  0  0  0  0
    0.2838   -0.7960    4.6359 H   0  0  0  0  0  0  0  0  0  0  0  0
    0.5812   -0.6934   -0.6135 C   0  0  0  0  0  0  0  0  0  0  0  0
    0.0558   -0.8868   -1.7089 O   0  0  0  0  0  0  0  0  0  0  0  0
    1.8784   -0.9385   -0.3890 N   0  0  0  0  0  0  0  0  0  0  0  0
    2.2415   -0.7450    0.5309 H   0  0  0  0  0  0  0  0  0  0  0  0
    2.7973   -1.4689   -1.3943 C   0  0  0  0  0  0  0  0  0  0  0  0
    2.7505   -0.8552   -2.2966 H   0  0  0  0  0  0  0  0  0  0  0  0
    3.8190   -1.4673   -1.0119 H   0  0  0  0  0  0  0  0  0  0  0  0
    2.5085   -2.4892   -1.6539 H   0  0  0  0  0  0  0  0  0  0  0  0
  5  6  2  0  0  0  0
  5  7  1  0  0  0  0
  2  3  1  0  0  0  0
  2  4  1  0  0  0  0
  2  5  1  0  0  0  0
  1  2  1  0  0  0  0
 24 25  2  0  0  0  0
 24 26  1  0  0  0  0
 20 21  1  0  0  0  0
 20 22  1  0  0  0  0
 20 23  1  0  0  0  0
 17 18  1  0  0  0  0
 17 19  1  0  0  0  0
 17 20  1  0  0  0  0
 13 14  1  0  0  0  0
 13 15  1  0  0  0  0
 13 16  1  0  0  0  0
 11 12  1  0  0  0  0
 11 13  1  0  0  0  0
 11 17  1  0  0  0  0
  9 10  1  0  0  0  0
  9 11  1  0  0  0  0
  9 24  1  0  0  0  0
  7  8  1  0  0  0  0
  7  9  1  0  0  0  0
 28 29  1  0  0  0  0
 28 30  1  0  0  0  0
 28 31  1  0  0  0  0
 26 27  1  0  0  0  0
 26 28  1  0  0  0  0
M  END
$$$$
default_name
  -OEChem-01062215323D

 31 30  0     1  0  0  0  0  0999 V2000
   -3.0760   -3.6390    1.5496 H   0  0  0  0  0  0  0  0  0  0  0  0
   -3.0940   -2.6290    1.1426 C   0  0  0  0  0  0  0  0  0  0  0  0
   -3.7160   -1.9930    1.7706 H   0  0  0  0  0  0  0  0  0  0  0  0
   -3.4880   -2.6500    0.1286 H   0  0  0  0  0  0  0  0  0  0  0  0
   -1.6860   -2.0850    1.1196 C   0  0  0  0  0  0  0  0  0  0  0  0
   -0.7540   -2.7700    1.5226 O   0  0  0  0  0  0  0  0  0  0  0  0
   -1.5320   -0.8490    0.6496 N   0  0  0  0  0  0  0  0  0  0  0  0
   -2.3500   -0.3360    0.3566 H   0  0  0  0  0  0  0  0  0  0  0  0
   -0.2470   -0.1410    0.5576 C   0  0  1  0  0  0  0  0  0  0  0  0
   -0.4630    0.9058    0.3411 H   0  0  0  0  0  0  0  0  0  0  0  0
    0.4985   -0.2016    1.9151 C   0  0  1  0  0  0  0  0  0  0  0  0
    0.5665   -1.2538    2.1980 H   0  0  0  0  0  0  0  0  0  0  0  0
    1.9330    0.3529    1.8239 C   0  0  0  0  0  0  0  0  0  0  0  0
    1.9180    1.4244    1.6168 H   0  0  0  0  0  0  0  0  0  0  0  0
    2.4661    0.1784    2.7571 H   0  0  0  0  0  0  0  0  0  0  0  0
    2.4818   -0.1516    1.0278 H   0  0  0  0  0  0  0  0  0  0  0  0
   -0.3034    0.5213    3.0205 C   0  0  0  0  0  0  0  0  0  0  0  0
   -0.3107    1.5958    2.8328 H   0  0  0  0  0  0  0  0  0  0  0  0
   -1.3327    0.1632    2.9981 H   0  0  0  0  0  0  0  0  0  0  0  0
    0.2361    0.2750    4.4360 C   0  0  0  0  0  0  0  0  0  0  0  0
    1.2287    0.7110    4.5479 H   0  0  0  0  0  0  0  0  0  0  0  0
   -0.4311    0.7413    5.1612 H   0  0  0  0  0  0  0  0  0  0  0  0
    0.2838   -0.7960    4.6359 H   0  0  0  0  0  0  0  0  0  0  0  0
    0.5812   -0.6934   -0.6135 C   0  0  0  0  0  0  0  0  0  0  0  0
    0.1489   -0.6314   -1.7635 O   0  0  0  0  0  0  0  0  0  0  0  0
    1.7763   -1.2248   -0.3262 N   0  0  0  0  0  0  0  0  0  0  0  0
    2.0690   -1.2308    0.6381 H   0  0  0  0  0  0  0  0  0  0  0  0
    2.6794   -1.7960   -1.3234 C   0  0  0  0  0  0  0  0  0  0  0  0
    2.8474   -1.0735   -2.1252 H   0  0  0  0  0  0  0  0  0  0  0  0
    3.6359   -2.0523   -0.8654 H   0  0  0  0  0  0  0  0  0  0  0  0
    2.2310   -2.6934   -1.7539 H   0  0  0  0  0  0  0  0  0  0  0  0
  5  6  2  0  0  0  0
  5  7  1  0  0  0  0
  2  3  1  0  0  0  0
  2  4  1  0  0  0  0
  2  5  1  0  0  0  0
  1  2  1  0  0  0  0
 24 25  2  0  0  0  0
 24 26  1  0  0  0  0
 20 21  1  0  0  0  0
 20 22  1  0  0  0  0
 20 23  1  0  0  0  0
 17 18  1  0  0  0  0
 17 19  1  0  0  0  0
 17 20  1  0  0  0  0
 13 14  1  0  0  0  0
 13 15  1  0  0  0  0
 13 16  1  0  0  0  0
 11 12  1  0  0  0  0
 11 13  1  0  0  0  0
 11 17  1  0  0  0  0
  9 10  1  0  0  0  0
  9 11  1  0  0  0  0
  9 24  1  0  0  0  0
  7  8  1  0  0  0  0
  7  9  1  0  0  0  0
 28 29  1  0  0  0  0
 28 30  1  0  0  0  0
 28 31  1  0  0  0  0
 26 27  1  0  0  0  0
 26 28  1  0  0  0  0
M  END
$$$$
default_name
  -OEChem-01062215323D

 31 30  0     1  0  0  0  0  0999 V2000
   -3.0760   -3.6390    1.5496 H   0  0  0  0  0  0  0  0  0  0  0  0
   -3.0940   -2.6290    1.1426 C   0  0  0  0  0  0  0  0  0  0  0  0
   -3.7160   -1.9930    1.7706 H   0  0  0  0  0  0  0  0  0  0  0  0
   -3.4880   -2.6500    0.1286 H   0  0  0  0  0  0  0  0  0  0  0  0
   -1.6860   -2.0850    1.1196 C   0  0  0  0  0  0  0  0  0  0  0  0
   -0.7540   -2.7700    1.5226 O   0  0  0  0  0  0  0  0  0  0  0  0
   -1.5320   -0.8490    0.6496 N   0  0  0  0  0  0  0  0  0  0  0  0
   -2.3500   -0.3360    0.3566 H   0  0  0  0  0  0  0  0  0  0  0  0
   -0.2470   -0.1410    0.5576 C   0  0  1  0  0  0  0  0  0  0  0  0
   -0.4630    0.9058    0.3411 H   0  0  0  0  0  0  0  0  0  0  0  0
    0.4985   -0.2016    1.9151 C   0  0  1  0  0  0  0  0  0  0  0  0
    0.5665   -1.2538    2.1980 H   0  0  0  0  0  0  0  0  0  0  0  0
    1.9330    0.3529    1.8239 C   0  0  0  0  0  0  0  0  0  0  0  0
    1.9180    1.4244    1.6168 H   0  0  0  0  0  0  0  0  0  0  0  0
    2.4661    0.1784    2.7571 H   0  0  0  0  0  0  0  0  0  0  0  0
    2.4818   -0.1516    1.0278 H   0  0  0  0  0  0  0  0  0  0  0  0
   -0.3034    0.5213    3.0205 C   0  0  0  0  0  0  0  0  0  0  0  0
   -0.3107    1.5958    2.8328 H   0  0  0  0  0  0  0  0  0  0  0  0
   -1.3327    0.1632    2.9981 H   0  0  0  0  0  0  0  0  0  0  0  0
    0.2361    0.2750    4.4360 C   0  0  0  0  0  0  0  0  0  0  0  0
    1.2287    0.7110    4.5479 H   0  0  0  0  0  0  0  0  0  0  0  0
   -0.4311    0.7413    5.1612 H   0  0  0  0  0  0  0  0  0  0  0  0
    0.2838   -0.7960    4.6359 H   0  0  0  0  0  0  0  0  0  0  0  0
    0.5812   -0.6934   -0.6135 C   0  0  0  0  0  0  0  0  0  0  0  0
    0.2942   -0.3955   -1.7720 O   0  0  0  0  0  0  0  0  0  0  0  0
    1.6153   -1.4900   -0.3149 N   0  0  0  0  0  0  0  0  0  0  0  0
    1.7967   -1.6809    0.6579 H   0  0  0  0  0  0  0  0  0  0  0  0
    2.4945   -2.0985   -1.3114 C   0  0  0  0  0  0  0  0  0  0  0  0
    2.8819   -1.3274   -1.9810 H   0  0  0  0  0  0  0  0  0  0  0  0
    3.3300   -2.6017   -0.8225 H   0  0  0  0  0  0  0  0  0  0  0  0
    1.9320   -2.8218   -1.9047 H   0  0  0  0  0  0  0  0  0  0  0  0
  5  6  2  0  0  0  0
  5  7  1  0  0  0  0
  2  3  1  0  0  0  0
  2  4  1  0  0  0  0
  2  5  1  0  0  0  0
  1  2  1  0  0  0  0
 24 25  2  0  0  0  0
 24 26  1  0  0  0  0
 20 21  1  0  0  0  0
 20 22  1  0  0  0  0
 20 23  1  0  0  0  0
 17 18  1  0  0  0  0
 17 19  1  0  0  0  0
 17 20  1  0  0  0  0
 13 14  1  0  0  0  0
 13 15  1  0  0  0  0
 13 16  1  0  0  0  0
 11 12  1  0  0  0  0
 11 13  1  0  0  0  0
 11 17  1  0  0  0  0
  9 10  1  0  0  0  0
  9 11  1  0  0  0  0
  9 24  1  0  0  0  0
  7  8  1  0  0  0  0
  7  9  1  0  0  0  0
 28 29  1  0  0  0  0
 28 30  1  0  0  0  0
 28 31  1  0  0  0  0
 26 27  1  0  0  0  0
 26 28  1  0  0  0  0
M  END
$$$$
default_name
  -OEChem-01062215323D

 31 30  0     1  0  0  0  0  0999 V2000
   -3.0760   -3.6390    1.5496 H   0  0  0  0  0  0  0  0  0  0  0  0
   -3.0940   -2.6290    1.1426 C   0  0  0  0  0  0  0  0  0  0  0  0
   -3.7160   -1.9930    1.7706 H   0  0  0  0  0  0  0  0  0  0  0  0
   -3.4880   -2.6500    0.1286 H   0  0  0  0  0  0  0  0  0  0  0  0
   -1.6860   -2.0850    1.1196 C   0  0  0  0  0  0  0  0  0  0  0  0
   -0.7540   -2.7700    1.5226 O   0  0  0  0  0  0  0  0  0  0  0  0
   -1.5320   -0.8490    0.6496 N   0  0  0  0  0  0  0  0  0  0  0  0
   -2.3500   -0.3360    0.3566 H   0  0  0  0  0  0  0  0  0  0  0  0
   -0.2470   -0.1410    0.5576 C   0  0  1  0  0  0  0  0  0  0  0  0
   -0.4630    0.9058    0.3411 H   0  0  0  0  0  0  0  0  0  0  0  0
    0.4985   -0.2016    1.9151 C   0  0  1  0  0  0  0  0  0  0  0  0
    0.5665   -1.2538    2.1980 H   0  0  0  0  0  0  0  0  0  0  0  0
    1.9330    0.3529    1.8239 C   0  0  0  0  0  0  0  0  0  0  0  0
    1.9180    1.4244    1.6168 H   0  0  0  0  0  0  0  0  0  0  0  0
    2.4661    0.1784    2.7571 H   0  0  0  0  0  0  0  0  0  0  0  0
    2.4818   -0.1516    1.0278 H   0  0  0  0  0  0  0  0  0  0  0  0
   -0.3034    0.5213    3.0205 C   0  0  0  0  0  0  0  0  0  0  0  0
   -0.3107    1.5958    2.8328 H   0  0  0  0  0  0  0  0  0  0  0  0
   -1.3327    0.1632    2.9981 H   0  0  0  0  0  0  0  0  0  0  0  0
    0.2361    0.2750    4.4360 C   0  0  0  0  0  0  0  0  0  0  0  0
    1.2287    0.7110    4.5479 H   0  0  0  0  0  0  0  0  0  0  0  0
   -0.4311    0.7413    5.1612 H   0  0  0  0  0  0  0  0  0  0  0  0
    0.2838   -0.7960    4.6359 H   0  0  0  0  0  0  0  0  0  0  0  0
    0.5812   -0.6934   -0.6135 C   0  0  0  0  0  0  0  0  0  0  0  0
    0.4819   -0.1951   -1.7338 O   0  0  0  0  0  0  0  0  0  0  0  0
    1.4065   -1.7160   -0.3559 N   0  0  0  0  0  0  0  0  0  0  0  0
    1.4430   -2.0648    0.5889 H   0  0  0  0  0  0  0  0  0  0  0  0
    2.2552   -2.3559   -1.3593 C   0  0  0  0  0  0  0  0  0  0  0  0
    2.8518   -1.5995   -1.8739 H   0  0  0  0  0  0  0  0  0  0  0  0
    2.9222   -3.0781   -0.8862 H   0  0  0  0  0  0  0  0  0  0  0  0
    1.6318   -2.8659   -2.0962 H   0  0  0  0  0  0  0  0  0  0  0  0
  5  6  2  0  0  0  0
  5  7  1  0  0  0  0
  2  3  1  0  0  0  0
  2  4  1  0  0  0  0
  2  5  1  0  0  0  0
  1  2  1  0  0  0  0
 24 25  2  0  0  0  0
 24 26  1  0  0  0  0
 20 21  1  0  0  0  0
 20 22  1  0  0  0  0
 20 23  1  0  0  0  0
 17 18  1  0  0  0  0
 17 19  1  0  0  0  0
 17 20  1  0  0  0  0
 13 14  1  0  0  0  0
 13 15  1  0  0  0  0
 13 16  1  0  0  0  0
 11 12  1  0  0  0  0
 11 13  1  0  0  0  0
 11 17  1  0  0  0  0
  9 10  1  0  0  0  0
  9 11  1  0  0  0  0
  9 24  1  0  0  0  0
  7  8  1  0  0  0  0
  7  9  1  0  0  0  0
 28 29  1  0  0  0  0
 28 30  1  0  0  0  0
 28 31  1  0  0  0  0
 26 27  1  0  0  0  0
 26 28  1  0  0  0  0
M  END
$$$$
default_name
  -OEChem-01062215323D

 31 30  0     1  0  0  0  0  0999 V2000
   -3.0760   -3.6390    1.5496 H   0  0  0  0  0  0  0  0  0  0  0  0
   -3.0940   -2.6290    1.1426 C   0  0  0  0  0  0  0  0  0  0  0  0
   -3.7160   -1.9930    1.7706 H   0  0  0  0  0  0  0  0  0  0  0  0
   -3.4880   -2.6500    0.1286 H   0  0  0  0  0  0  0  0  0  0  0  0
   -1.6860   -2.0850    1.1196 C   0  0  0  0  0  0  0  0  0  0  0  0
   -0.7540   -2.7700    1.5226 O   0  0  0  0  0  0  0  0  0  0  0  0
   -1.5320   -0.8490    0.6496 N   0  0  0  0  0  0  0  0  0  0  0  0
   -2.3500   -0.3360    0.3566 H   0  0  0  0  0  0  0  0  0  0  0  0
   -0.2470   -0.1410    0.5576 C   0  0  1  0  0  0  0  0  0  0  0  0
   -0.4630    0.9058    0.3411 H   0  0  0  0  0  0  0  0  0  0  0  0
    0.4985   -0.2016    1.9151 C   0  0  1  0  0  0  0  0  0  0  0  0
    0.5665   -1.2538    2.1980 H   0  0  0  0  0  0  0  0  0  0  0  0
    1.9330    0.3529    1.8239 C   0  0  0  0  0  0  0  0  0  0  0  0
    1.9180    1.4244    1.6168 H   0  0  0  0  0  0  0  0  0  0  0  0
    2.4661    0.1784    2.7571 H   0  0  0  0  0  0  0  0  0  0  0  0
    2.4818   -0.1516    1.0278 H   0  0  0  0  0  0  0  0  0  0  0  0
   -0.3034    0.5213    3.0205 C   0  0  0  0  0  0  0  0  0  0  0  0
   -0.3107    1.5958    2.8328 H   0  0  0  0  0  0  0  0  0  0  0  0
   -1.3327    0.1632    2.9981 H   0  0  0  0  0  0  0  0  0  0  0  0
    0.2361    0.2750    4.4360 C   0  0  0  0  0  0  0  0  0  0  0  0
    1.2287    0.7110    4.5479 H   0  0  0  0  0  0  0  0  0  0  0  0
   -0.4311    0.7413    5.1612 H   0  0  0  0  0  0  0  0  0  0  0  0
    0.2838   -0.7960    4.6359 H   0  0  0  0  0  0  0  0  0  0  0  0
    0.5812   -0.6934   -0.6135 C   0  0  0  0  0  0  0  0  0  0  0  0
    0.6992   -0.0439   -1.6515 O   0  0  0  0  0  0  0  0  0  0  0  0
    1.1641   -1.8874   -0.4465 N   0  0  0  0  0  0  0  0  0  0  0  0
    1.0321   -2.3562    0.4358 H   0  0  0  0  0  0  0  0  0  0  0  0
    1.9776   -2.5507   -1.4636 C   0  0  0  0  0  0  0  0  0  0  0  0
    2.7591   -1.8713   -1.8113 H   0  0  0  0  0  0  0  0  0  0  0  0
    2.4402   -3.4489   -1.0521 H   0  0  0  0  0  0  0  0  0  0  0  0
    1.3510   -2.8227   -2.3152 H   0  0  0  0  0  0  0  0  0  0  0  0
  5  6  2  0  0  0  0
  5  7  1  0  0  0  0
  2  3  1  0  0  0  0
  2  4  1  0  0  0  0
  2  5  1  0  0  0  0
  1  2  1  0  0  0  0
 24 25  2  0  0  0  0
 24 26  1  0  0  0  0
 20 21  1  0  0  0  0
 20 22  1  0  0  0  0
 20 23  1  0  0  0  0
 17 18  1  0  0  0  0
 17 19  1  0  0  0  0
 17 20  1  0  0  0  0
 13 14  1  0  0  0  0
 13 15  1  0  0  0  0
 13 16  1  0  0  0  0
 11 12  1  0  0  0  0
 11 13  1  0  0  0  0
 11 17  1  0  0  0  0
  9 10  1  0  0  0  0
  9 11  1  0  0  0  0
  9 24  1  0  0  0  0
  7  8  1  0  0  0  0
  7  9  1  0  0  0  0
 28 29  1  0  0  0  0
 28 30  1  0  0  0  0
 28 31  1  0  0  0  0
 26 27  1  0  0  0  0
 26 28  1  0  0  0  0
M  END
$$$$
default_name
  -OEChem-01062215323D

 31 30  0     1  0  0  0  0  0999 V2000
   -3.0760   -3.6390    1.5496 H   0  0  0  0  0  0  0  0  0  0  0  0
   -3.0940   -2.6290    1.1426 C   0  0  0  0  0  0  0  0  0  0  0  0
   -3.7160   -1.9930    1.7706 H   0  0  0  0  0  0  0  0  0  0  0  0
   -3.4880   -2.6500    0.1286 H   0  0  0  0  0  0  0  0  0  0  0  0
   -1.6860   -2.0850    1.1196 C   0  0  0  0  0  0  0  0  0  0  0  0
   -0.7540   -2.7700    1.5226 O   0  0  0  0  0  0  0  0  0  0  0  0
   -1.5320   -0.8490    0.6496 N   0  0  0  0  0  0  0  0  0  0  0  0
   -2.3500   -0.3360    0.3566 H   0  0  0  0  0  0  0  0  0  0  0  0
   -0.2470   -0.1410    0.5576 C   0  0  1  0  0  0  0  0  0  0  0  0
   -0.4630    0.9058    0.3411 H   0  0  0  0  0  0  0  0  0  0  0  0
    0.4985   -0.2016    1.9151 C   0  0  1  0  0  0  0  0  0  0  0  0
    0.5665   -1.2538    2.1980 H   0  0  0  0  0  0  0  0  0  0  0  0
    1.9330    0.3529    1.8239 C   0  0  0  0  0  0  0  0  0  0  0  0
    1.9180    1.4244    1.6168 H   0  0  0  0  0  0  0  0  0  0  0  0
    2.4661    0.1784    2.7571 H   0  0  0  0  0  0  0  0  0  0  0  0
    2.4818   -0.1516    1.0278 H   0  0  0  0  0  0  0  0  0  0  0  0
   -0.3034    0.5213    3.0205 C   0  0  0  0  0  0  0  0  0  0  0  0
   -0.3107    1.5958    2.8328 H   0  0  0  0  0  0  0  0  0  0  0  0
   -1.3327    0.1632    2.9981 H   0  0  0  0  0  0  0  0  0  0  0  0
    0.2361    0.2750    4.4360 C   0  0  0  0  0  0  0  0  0  0  0  0
    1.2287    0.7110    4.5479 H   0  0  0  0  0  0  0  0  0  0  0  0
   -0.4311    0.7413    5.1612 H   0  0  0  0  0  0  0  0  0  0  0  0
    0.2838   -0.7960    4.6359 H   0  0  0  0  0  0  0  0  0  0  0  0
    0.5812   -0.6934   -0.6135 C   0  0  0  0  0  0  0  0  0  0  0  0
    0.9312    0.0479   -1.5307 O   0  0  0  0  0  0  0  0  0  0  0  0
    0.9046   -1.9925   -0.5805 N   0  0  0  0  0  0  0  0  0  0  0  0
    0.5920   -2.5353    0.2090 H   0  0  0  0  0  0  0  0  0  0  0  0
    1.6809   -2.6695   -1.6175 C   0  0  0  0  0  0  0  0  0  0  0  0
    2.6101   -2.1243   -1.7973 H   0  0  0  0  0  0  0  0  0  0  0  0
    1.9170   -3.6889   -1.3089 H   0  0  0  0  0  0  0  0  0  0  0  0
    1.1087   -2.6949   -2.5468 H   0  0  0  0  0  0  0  0  0  0  0  0
  5  6  2  0  0  0  0
  5  7  1  0  0  0  0
  2  3  1  0  0  0  0
  2  4  1  0  0  0  0
  2  5  1  0  0  0  0
  1  2  1  0  0  0  0
 24 25  2  0  0  0  0
 24 26  1  0  0  0  0
 20 21  1  0  0  0  0
 20 22  1  0  0  0  0
 20 23  1  0  0  0  0
 17 18  1  0  0  0  0
 17 19  1  0  0  0  0
 17 20  1  0  0  0  0
 13 14  1  0  0  0  0
 13 15  1  0  0  0  0
 13 16  1  0  0  0  0
 11 12  1  0  0  0  0
 11 13  1  0  0  0  0
 11 17  1  0  0  0  0
  9 10  1  0  0  0  0
  9 11  1  0  0  0  0
  9 24  1  0  0  0  0
  7  8  1  0  0  0  0
  7  9  1  0  0  0  0
 28 29  1  0  0  0  0
 28 30  1  0  0  0  0
 28 31  1  0  0  0  0
 26 27  1  0  0  0  0
 26 28  1  0  0  0  0
M  END
$$$$
default_name
  -OEChem-01062215323D

 31 30  0     1  0  0  0  0  0999 V2000
   -3.0760   -3.6390    1.5496 H   0  0  0  0  0  0  0  0  0  0  0  0
   -3.0940   -2.6290    1.1426 C   0  0  0  0  0  0  0  0  0  0  0  0
   -3.7160   -1.9930    1.7706 H   0  0  0  0  0  0  0  0  0  0  0  0
   -3.4880   -2.6500    0.1286 H   0  0  0  0  0  0  0  0  0  0  0  0
   -1.6860   -2.0850    1.1196 C   0  0  0  0  0  0  0  0  0  0  0  0
   -0.7540   -2.7700    1.5226 O   0  0  0  0  0  0  0  0  0  0  0  0
   -1.5320   -0.8490    0.6496 N   0  0  0  0  0  0  0  0  0  0  0  0
   -2.3500   -0.3360    0.3566 H   0  0  0  0  0  0  0  0  0  0  0  0
   -0.2470   -0.1410    0.5576 C   0  0  1  0  0  0  0  0  0  0  0  0
   -0.4630    0.9058    0.3411 H   0  0  0  0  0  0  0  0  0  0  0  0
    0.4985   -0.2016    1.9151 C   0  0  1  0  0  0  0  0  0  0  0  0
    0.5665   -1.2538    2.1980 H   0  0  0  0  0  0  0  0  0  0  0  0
    1.9330    0.3529    1.8239 C   0  0  0  0  0  0  0  0  0  0  0  0
    1.9180    1.4244    1.6168 H   0  0  0  0  0  0  0  0  0  0  0  0
    2.4661    0.1784    2.7571 H   0  0  0  0  0  0  0  0  0  0  0  0
    2.4818   -0.1516    1.0278 H   0  0  0  0  0  0  0  0  0  0  0  0
   -0.3034    0.5213    3.0205 C   0  0  0  0  0  0  0  0  0  0  0  0
   -0.3107    1.5958    2.8328 H   0  0  0  0  0  0  0  0  0  0  0  0
   -1.3327    0.1632    2.9981 H   0  0  0  0  0  0  0  0  0  0  0  0
    0.2361    0.2750    4.4360 C   0  0  0  0  0  0  0  0  0  0  0  0
    1.2287    0.7110    4.5479 H   0  0  0  0  0  0  0  0  0  0  0  0
   -0.4311    0.7413    5.1612 H   0  0  0  0  0  0  0  0  0  0  0  0
    0.2838   -0.7960    4.6359 H   0  0  0  0  0  0  0  0  0  0  0  0
    0.5812   -0.6934   -0.6135 C   0  0  0  0  0  0  0  0  0  0  0  0
    1.1622    0.0739   -1.3796 O   0  0  0  0  0  0  0  0  0  0  0  0
    0.6457   -2.0241   -0.7487 N   0  0  0  0  0  0  0  0  0  0  0  0
    0.1527   -2.5898   -0.0759 H   0  0  0  0  0  0  0  0  0  0  0  0
    1.3851   -2.7044   -1.8102 C   0  0  0  0  0  0  0  0  0  0  0  0
    2.4150   -2.3413   -1.8329 H   0  0  0  0  0  0  0  0  0  0  0  0
    1.3882   -3.7818   -1.6390 H   0  0  0  0  0  0  0  0  0  0  0  0
    0.9214   -2.4915   -2.7753 H   0  0  0  0  0  0  0  0  0  0  0  0
  5  6  2  0  0  0  0
  5  7  1  0  0  0  0
  2  3  1  0  0  0  0
  2  4  1  0  0  0  0
  2  5  1  0  0  0  0
  1  2  1  0  0  0  0
 24 25  2  0  0  0  0
 24 26  1  0  0  0  0
 20 21  1  0  0  0  0
 20 22  1  0  0  0  0
 20 23  1  0  0  0  0
 17 18  1  0  0  0  0
 17 19  1  0  0  0  0
 17 20  1  0  0  0  0
 13 14  1  0  0  0  0
 13 15  1  0  0  0  0
 13 16  1  0  0  0  0
 11 12  1  0  0  0  0
 11 13  1  0  0  0  0
 11 17  1  0  0  0  0
  9 10  1  0  0  0  0
  9 11  1  0  0  0  0
  9 24  1  0  0  0  0
  7  8  1  0  0  0  0
  7  9  1  0  0  0  0
 28 29  1  0  0  0  0
 28 30  1  0  0  0  0
 28 31  1  0  0  0  0
 26 27  1  0  0  0  0
 26 28  1  0  0  0  0
M  END
$$$$
default_name
  -OEChem-01062215323D

 31 30  0     1  0  0  0  0  0999 V2000
   -3.0760   -3.6390    1.5496 H   0  0  0  0  0  0  0  0  0  0  0  0
   -3.0940   -2.6290    1.1426 C   0  0  0  0  0  0  0  0  0  0  0  0
   -3.7160   -1.9930    1.7706 H   0  0  0  0  0  0  0  0  0  0  0  0
   -3.4880   -2.6500    0.1286 H   0  0  0  0  0  0  0  0  0  0  0  0
   -1.6860   -2.0850    1.1196 C   0  0  0  0  0  0  0  0  0  0  0  0
   -0.7540   -2.7700    1.5226 O   0  0  0  0  0  0  0  0  0  0  0  0
   -1.5320   -0.8490    0.6496 N   0  0  0  0  0  0  0  0  0  0  0  0
   -2.3500   -0.3360    0.3566 H   0  0  0  0  0  0  0  0  0  0  0  0
   -0.2470   -0.1410    0.5576 C   0  0  1  0  0  0  0  0  0  0  0  0
   -0.4630    0.9058    0.3411 H   0  0  0  0  0  0  0  0  0  0  0  0
    0.4985   -0.2016    1.9151 C   0  0  1  0  0  0  0  0  0  0  0  0
    0.5665   -1.2538    2.1980 H   0  0  0  0  0  0  0  0  0  0  0  0
    1.9330    0.3529    1.8239 C   0  0  0  0  0  0  0  0  0  0  0  0
    1.9180    1.4244    1.6168 H   0  0  0  0  0  0  0  0  0  0  0  0
    2.4661    0.1784    2.7571 H   0  0  0  0  0  0  0  0  0  0  0  0
    2.4818   -0.1516    1.0278 H   0  0  0  0  0  0  0  0  0  0  0  0
   -0.3034    0.5213    3.0205 C   0  0  0  0  0  0  0  0  0  0  0  0
   -0.3107    1.5958    2.8328 H   0  0  0  0  0  0  0  0  0  0  0  0
   -1.3327    0.1632    2.9981 H   0  0  0  0  0  0  0  0  0  0  0  0
    0.2361    0.2750    4.4360 C   0  0  0  0  0  0  0  0  0  0  0  0
    1.2287    0.7110    4.5479 H   0  0  0  0  0  0  0  0  0  0  0  0
   -0.4311    0.7413    5.1612 H   0  0  0  0  0  0  0  0  0  0  0  0
    0.2838   -0.7960    4.6359 H   0  0  0  0  0  0  0  0  0  0  0  0
    0.5812   -0.6934   -0.6135 C   0  0  0  0  0  0  0  0  0  0  0  0
    1.3764    0.0324   -1.2086 O   0  0  0  0  0  0  0  0  0  0  0  0
    0.4050   -1.9802   -0.9396 N   0  0  0  0  0  0  0  0  0  0  0  0
   -0.2559   -2.5162   -0.3996 H   0  0  0  0  0  0  0  0  0  0  0  0
    1.1104   -2.6528   -2.0288 C   0  0  0  0  0  0  0  0  0  0  0  0
    2.1870   -2.5075   -1.9157 H   0  0  0  0  0  0  0  0  0  0  0  0
    0.8898   -3.7212   -2.0201 H   0  0  0  0  0  0  0  0  0  0  0  0
    0.8018   -2.2261   -2.9850 H   0  0  0  0  0  0  0  0  0  0  0  0
  5  6  2  0  0  0  0
  5  7  1  0  0  0  0
  2  3  1  0  0  0  0
  2  4  1  0  0  0  0
  2  5  1  0  0  0  0
  1  2  1  0  0  0  0
 24 25  2  0  0  0  0
 24 26  1  0  0  0  0
 20 21  1  0  0  0  0
 20 22  1  0  0  0  0
 20 23  1  0  0  0  0
 17 18  1  0  0  0  0
 17 19  1  0  0  0  0
 17 20  1  0  0  0  0
 13 14  1  0  0  0  0
 13 15  1  0  0  0  0
 13 16  1  0  0  0  0
 11 12  1  0  0  0  0
 11 13  1  0  0  0  0
 11 17  1  0  0  0  0
  9 10  1  0  0  0  0
  9 11  1  0  0  0  0
  9 24  1  0  0  0  0
  7  8  1  0  0  0  0
  7  9  1  0  0  0  0
 28 29  1  0  0  0  0
 28 30  1  0  0  0  0
 28 31  1  0  0  0  0
 26 27  1  0  0  0  0
 26 28  1  0  0  0  0
M  END
$$$$
default_name
  -OEChem-01062215323D

 31 30  0     1  0  0  0  0  0999 V2000
   -3.0760   -3.6390    1.5496 H   0  0  0  0  0  0  0  0  0  0  0  0
   -3.0940   -2.6290    1.1426 C   0  0  0  0  0  0  0  0  0  0  0  0
   -3.7160   -1.9930    1.7706 H   0  0  0  0  0  0  0  0  0  0  0  0
   -3.4880   -2.6500    0.1286 H   0  0  0  0  0  0  0  0  0  0  0  0
   -1.6860   -2.0850    1.1196 C   0  0  0  0  0  0  0  0  0  0  0  0
   -0.7540   -2.7700    1.5226 O   0  0  0  0  0  0  0  0  0  0  0  0
   -1.5320   -0.8490    0.6496 N   0  0  0  0  0  0  0  0  0  0  0  0
   -2.3500   -0.3360    0.3566 H   0  0  0  0  0  0  0  0  0  0  0  0
   -0.2470   -0.1410    0.5576 C   0  0  1  0  0  0  0  0  0  0  0  0
   -0.4630    0.9058    0.3411 H   0  0  0  0  0  0  0  0  0  0  0  0
    0.4985   -0.2016    1.9151 C   0  0  1  0  0  0  0  0  0  0  0  0
    0.5665   -1.2538    2.1980 H   0  0  0  0  0  0  0  0  0  0  0  0
    1.9330    0.3529    1.8239 C   0  0  0  0  0  0  0  0  0  0  0  0
    1.9180    1.4244    1.6168 H   0  0  0  0  0  0  0  0  0  0  0  0
    2.4661    0.1784    2.7571 H   0  0  0  0  0  0  0  0  0  0  0  0
    2.4818   -0.1516    1.0278 H   0  0  0  0  0  0  0  0  0  0  0  0
   -0.3034    0.5213    3.0205 C   0  0  0  0  0  0  0  0  0  0  0  0
   -0.3107    1.5958    2.8328 H   0  0  0  0  0  0  0  0  0  0  0  0
   -1.3327    0.1632    2.9981 H   0  0  0  0  0  0  0  0  0  0  0  0
    0.2361    0.2750    4.4360 C   0  0  0  0  0  0  0  0  0  0  0  0
    1.2287    0.7110    4.5479 H   0  0  0  0  0  0  0  0  0  0  0  0
   -0.4311    0.7413    5.1612 H   0  0  0  0  0  0  0  0  0  0  0  0
    0.2838   -0.7960    4.6359 H   0  0  0  0  0  0  0  0  0  0  0  0
    0.5812   -0.6934   -0.6135 C   0  0  0  0  0  0  0  0  0  0  0  0
    1.5592   -0.0738   -1.0292 O   0  0  0  0  0  0  0  0  0  0  0  0
    0.1989   -1.8637   -1.1404 N   0  0  0  0  0  0  0  0  0  0  0  0
   -0.6059   -2.3194   -0.7401 H   0  0  0  0  0  0  0  0  0  0  0  0
    0.8756   -2.5184   -2.2582 C   0  0  0  0  0  0  0  0  0  0  0  0
    1.9418   -2.6115   -2.0401 H   0  0  0  0  0  0  0  0  0  0  0  0
    0.4558   -3.5112   -2.4261 H   0  0  0  0  0  0  0  0  0  0  0  0
    0.7581   -1.9170   -3.1617 H   0  0  0  0  0  0  0  0  0  0  0  0
  5  6  2  0  0  0  0
  5  7  1  0  0  0  0
  2  3  1  0  0  0  0
  2  4  1  0  0  0  0
  2  5  1  0  0  0  0
  1  2  1  0  0  0  0
 24 25  2  0  0  0  0
 24 26  1  0  0  0  0
 20 21  1  0  0  0  0
 20 22  1  0  0  0  0
 20 23  1  0  0  0  0
 17 18  1  0  0  0  0
 17 19  1  0  0  0  0
 17 20  1  0  0  0  0
 13 14  1  0  0  0  0
 13 15  1  0  0  0  0
 13 16  1  0  0  0  0
 11 12  1  0  0  0  0
 11 13  1  0  0  0  0
 11 17  1  0  0  0  0
  9 10  1  0  0  0  0
  9 11  1  0  0  0  0
  9 24  1  0  0  0  0
  7  8  1  0  0  0  0
  7  9  1  0  0  0  0
 28 29  1  0  0  0  0
 28 30  1  0  0  0  0
 28 31  1  0  0  0  0
 26 27  1  0  0  0  0
 26 28  1  0  0  0  0
M  END
$$$$
default_name
  -OEChem-01062215323D

 31 30  0     1  0  0  0  0  0999 V2000
   -3.0760   -3.6390    1.5496 H   0  0  0  0  0  0  0  0  0  0  0  0
   -3.0940   -2.6290    1.1426 C   0  0  0  0  0  0  0  0  0  0  0  0
   -3.7160   -1.9930    1.7706 H   0  0  0  0  0  0  0  0  0  0  0  0
   -3.4880   -2.6500    0.1286 H   0  0  0  0  0  0  0  0  0  0  0  0
   -1.6860   -2.0850    1.1196 C   0  0  0  0  0  0  0  0  0  0  0  0
   -0.7540   -2.7700    1.5226 O   0  0  0  0  0  0  0  0  0  0  0  0
   -1.5320   -0.8490    0.6496 N   0  0  0  0  0  0  0  0  0  0  0  0
   -2.3500   -0.3360    0.3566 H   0  0  0  0  0  0  0  0  0  0  0  0
   -0.2470   -0.1410    0.5576 C   0  0  1  0  0  0  0  0  0  0  0  0
   -0.4630    0.9058    0.3411 H   0  0  0  0  0  0  0  0  0  0  0  0
    0.4985   -0.2016    1.9151 C   0  0  1  0  0  0  0  0  0  0  0  0
    0.5665   -1.2538    2.1980 H   0  0  0  0  0  0  0  0  0  0  0  0
    1.9330    0.3529    1.8239 C   0  0  0  0  0  0  0  0  0  0  0  0
    1.9180    1.4244    1.6168 H   0  0  0  0  0  0  0  0  0  0  0  0
    2.4661    0.1784    2.7571 H   0  0  0  0  0  0  0  0  0  0  0  0
    2.4818   -0.1516    1.0278 H   0  0  0  0  0  0  0  0  0  0  0  0
   -0.3034    0.5213    3.0205 C   0  0  0  0  0  0  0  0  0  0  0  0
   -0.3107    1.5958    2.8328 H   0  0  0  0  0  0  0  0  0  0  0  0
   -1.3327    0.1632    2.9981 H   0  0  0  0  0  0  0  0  0  0  0  0
    0.2361    0.2750    4.4360 C   0  0  0  0  0  0  0  0  0  0  0  0
    1.2287    0.7110    4.5479 H   0  0  0  0  0  0  0  0  0  0  0  0
   -0.4311    0.7413    5.1612 H   0  0  0  0  0  0  0  0  0  0  0  0
    0.2838   -0.7960    4.6359 H   0  0  0  0  0  0  0  0  0  0  0  0
    0.5812   -0.6934   -0.6135 C   0  0  0  0  0  0  0  0  0  0  0  0
    1.6981   -0.2374   -0.8538 O   0  0  0  0  0  0  0  0  0  0  0  0
    0.0415   -1.6825   -1.3372 N   0  0  0  0  0  0  0  0  0  0  0  0
   -0.8736   -2.0127   -1.0740 H   0  0  0  0  0  0  0  0  0  0  0  0
    0.6967   -2.3102   -2.4830 C   0  0  0  0  0  0  0  0  0  0  0  0
    1.6960   -2.6462   -2.1975 H   0  0  0  0  0  0  0  0  0  0  0  0
    0.1158   -3.1662   -2.8293 H   0  0  0  0  0  0  0  0  0  0  0  0
    0.7933   -1.5852   -3.2934 H   0  0  0  0  0  0  0  0  0  0  0  0
  5  6  2  0  0  0  0
  5  7  1  0  0  0  0
  2  3  1  0  0  0  0
  2  4  1  0  0  0  0
  2  5  1  0  0  0  0
  1  2  1  0  0  0  0
 24 25  2  0  0  0  0
 24 26  1  0  0  0  0
 20 21  1  0  0  0  0
 20 22  1  0  0  0  0
 20 23  1  0  0  0  0
 17 18  1  0  0  0  0
 17 19  1  0  0  0  0
 17 20  1  0  0  0  0
 13 14  1  0  0  0  0
 13 15  1  0  0  0  0
 13 16  1  0  0  0  0
 11 12  1  0  0  0  0
 11 13  1  0  0  0  0
 11 17  1  0  0  0  0
  9 10  1  0  0  0  0
  9 11  1  0  0  0  0
  9 24  1  0  0  0  0
  7  8  1  0  0  0  0
  7  9  1  0  0  0  0
 28 29  1  0  0  0  0
 28 30  1  0  0  0  0
 28 31  1  0  0  0  0
 26 27  1  0  0  0  0
 26 28  1  0  0  0  0
M  END
$$$$
default_name
  -OEChem-01062215323D

 31 30  0     1  0  0  0  0  0999 V2000
   -3.0760   -3.6390    1.5496 H   0  0  0  0  0  0  0  0  0  0  0  0
   -3.0940   -2.6290    1.1426 C   0  0  0  0  0  0  0  0  0  0  0  0
   -3.7160   -1.9930    1.7706 H   0  0  0  0  0  0  0  0  0  0  0  0
   -3.4880   -2.6500    0.1286 H   0  0  0  0  0  0  0  0  0  0  0  0
   -1.6860   -2.0850    1.1196 C   0  0  0  0  0  0  0  0  0  0  0  0
   -0.7540   -2.7700    1.5226 O   0  0  0  0  0  0  0  0  0  0  0  0
   -1.5320   -0.8490    0.6496 N   0  0  0  0  0  0  0  0  0  0  0  0
   -2.3500   -0.3360    0.3566 H   0  0  0  0  0  0  0  0  0  0  0  0
   -0.2470   -0.1410    0.5576 C   0  0  1  0  0  0  0  0  0  0  0  0
   -0.4630    0.9058    0.3411 H   0  0  0  0  0  0  0  0  0  0  0  0
    0.4985   -0.2016    1.9151 C   0  0  1  0  0  0  0  0  0  0  0  0
    0.5665   -1.2538    2.1980 H   0  0  0  0  0  0  0  0  0  0  0  0
    1.9330    0.3529    1.8239 C   0  0  0  0  0  0  0  0  0  0  0  0
    1.9180    1.4244    1.6168 H   0  0  0  0  0  0  0  0  0  0  0  0
    2.4661    0.1784    2.7571 H   0  0  0  0  0  0  0  0  0  0  0  0
    2.4818   -0.1516    1.0278 H   0  0  0  0  0  0  0  0  0  0  0  0
   -0.3034    0.5213    3.0205 C   0  0  0  0  0  0  0  0  0  0  0  0
   -0.3107    1.5958    2.8328 H   0  0  0  0  0  0  0  0  0  0  0  0
   -1.3327    0.1632    2.9981 H   0  0  0  0  0  0  0  0  0  0  0  0
    0.2361    0.2750    4.4360 C   0  0  0  0  0  0  0  0  0  0  0  0
    1.2287    0.7110    4.5479 H   0  0  0  0  0  0  0  0  0  0  0  0
   -0.4311    0.7413    5.1612 H   0  0  0  0  0  0  0  0  0  0  0  0
    0.2838   -0.7960    4.6359 H   0  0  0  0  0  0  0  0  0  0  0  0
    0.5812   -0.6934   -0.6135 C   0  0  0  0  0  0  0  0  0  0  0  0
    1.7838   -0.4472   -0.6942 O   0  0  0  0  0  0  0  0  0  0  0  0
   -0.0566   -1.4490   -1.5166 N   0  0  0  0  0  0  0  0  0  0  0  0
   -1.0406   -1.6172   -1.3787 H   0  0  0  0  0  0  0  0  0  0  0  0
    0.5858   -2.0425   -2.6877 C   0  0  0  0  0  0  0  0  0  0  0  0
    1.4664   -2.6093   -2.3773 H   0  0  0  0  0  0  0  0  0  0  0  0
   -0.1072   -2.7096   -3.2024 H   0  0  0  0  0  0  0  0  0  0  0  0
    0.9050   -1.2532   -3.3710 H   0  0  0  0  0  0  0  0  0  0  0  0
  5  6  2  0  0  0  0
  5  7  1  0  0  0  0
  2  3  1  0  0  0  0
  2  4  1  0  0  0  0
  2  5  1  0  0  0  0
  1  2  1  0  0  0  0
 24 25  2  0  0  0  0
 24 26  1  0  0  0  0
 20 21  1  0  0  0  0
 20 22  1  0  0  0  0
 20 23  1  0  0  0  0
 17 18  1  0  0  0  0
 17 19  1  0  0  0  0
 17 20  1  0  0  0  0
 13 14  1  0  0  0  0
 13 15  1  0  0  0  0
 13 16  1  0  0  0  0
 11 12  1  0  0  0  0
 11 13  1  0  0  0  0
 11 17  1  0  0  0  0
  9 10  1  0  0  0  0
  9 11  1  0  0  0  0
  9 24  1  0  0  0  0
  7  8  1  0  0  0  0
  7  9  1  0  0  0  0
 28 29  1  0  0  0  0
 28 30  1  0  0  0  0
 28 31  1  0  0  0  0
 26 27  1  0  0  0  0
 26 28  1  0  0  0  0
M  END
$$$$
default_name
  -OEChem-01062215323D

 31 30  0     1  0  0  0  0  0999 V2000
   -3.0760   -3.6390    1.5496 H   0  0  0  0  0  0  0  0  0  0  0  0
   -3.0940   -2.6290    1.1426 C   0  0  0  0  0  0  0  0  0  0  0  0
   -3.7160   -1.9930    1.7706 H   0  0  0  0  0  0  0  0  0  0  0  0
   -3.4880   -2.6500    0.1286 H   0  0  0  0  0  0  0  0  0  0  0  0
   -1.6860   -2.0850    1.1196 C   0  0  0  0  0  0  0  0  0  0  0  0
   -0.7540   -2.7700    1.5226 O   0  0  0  0  0  0  0  0  0  0  0  0
   -1.5320   -0.8490    0.6496 N   0  0  0  0  0  0  0  0  0  0  0  0
   -2.3500   -0.3360    0.3566 H   0  0  0  0  0  0  0  0  0  0  0  0
   -0.2470   -0.1410    0.5576 C   0  0  1  0  0  0  0  0  0  0  0  0
   -0.4630    0.9058    0.3411 H   0  0  0  0  0  0  0  0  0  0  0  0
    0.4985   -0.2016    1.9151 C   0  0  1  0  0  0  0  0  0  0  0  0
    0.5665   -1.2538    2.1980 H   0  0  0  0  0  0  0  0  0  0  0  0
    1.9330    0.3529    1.8239 C   0  0  0  0  0  0  0  0  0  0  0  0
    1.9180    1.4244    1.6168 H   0  0  0  0  0  0  0  0  0  0  0  0
    2.4661    0.1784    2.7571 H   0  0  0  0  0  0  0  0  0  0  0  0
    2.4818   -0.1516    1.0278 H   0  0  0  0  0  0  0  0  0  0  0  0
   -0.3034    0.5213    3.0205 C   0  0  0  0  0  0  0  0  0  0  0  0
   -0.3107    1.5958    2.8328 H   0  0  0  0  0  0  0  0  0  0  0  0
   -1.3327    0.1632    2.9981 H   0  0  0  0  0  0  0  0  0  0  0  0
    0.2361    0.2750    4.4360 C   0  0  0  0  0  0  0  0  0  0  0  0
    1.2287    0.7110    4.5479 H   0  0  0  0  0  0  0  0  0  0  0  0
   -0.4311    0.7413    5.1612 H   0  0  0  0  0  0  0  0  0  0  0  0
    0.2838   -0.7960    4.6359 H   0  0  0  0  0  0  0  0  0  0  0  0
    0.5812   -0.6934   -0.6135 C   0  0  0  0  0  0  0  0  0  0  0  0
    1.8102   -0.6891   -0.5614 O   0  0  0  0  0  0  0  0  0  0  0  0
   -0.0885   -1.1791   -1.6665 N   0  0  0  0  0  0  0  0  0  0  0  0
   -1.0955   -1.1597   -1.6334 H   0  0  0  0  0  0  0  0  0  0  0  0
    0.5506   -1.7335   -2.8584 C   0  0  0  0  0  0  0  0  0  0  0  0
    1.2686   -2.5034   -2.5672 H   0  0  0  0  0  0  0  0  0  0  0  0
   -0.1977   -2.1726   -3.5198 H   0  0  0  0  0  0  0  0  0  0  0  0
    1.0856   -0.9438   -3.3893 H   0  0  0  0  0  0  0  0  0  0  0  0
  5  6  2  0  0  0  0
  5  7  1  0  0  0  0
  2  3  1  0  0  0  0
  2  4  1  0  0  0  0
  2  5  1  0  0  0  0
  1  2  1  0  0  0  0
 24 25  2  0  0  0  0
 24 26  1  0  0  0  0
 20 21  1  0  0  0  0
 20 22  1  0  0  0  0
 20 23  1  0  0  0  0
 17 18  1  0  0  0  0
 17 19  1  0  0  0  0
 17 20  1  0  0  0  0
 13 14  1  0  0  0  0
 13 15  1  0  0  0  0
 13 16  1  0  0  0  0
 11 12  1  0  0  0  0
 11 13  1  0  0  0  0
 11 17  1  0  0  0  0
  9 10  1  0  0  0  0
  9 11  1  0  0  0  0
  9 24  1  0  0  0  0
  7  8  1  0  0  0  0
  7  9  1  0  0  0  0
 28 29  1  0  0  0  0
 28 30  1  0  0  0  0
 28 31  1  0  0  0  0
 26 27  1  0  0  0  0
 26 28  1  0  0  0  0
M  END
$$$$
default_name
  -OEChem-01062215323D

 31 30  0     1  0  0  0  0  0999 V2000
   -3.0760   -3.6390    1.5496 H   0  0  0  0  0  0  0  0  0  0  0  0
   -3.0940   -2.6290    1.1426 C   0  0  0  0  0  0  0  0  0  0  0  0
   -3.7160   -1.9930    1.7706 H   0  0  0  0  0  0  0  0  0  0  0  0
   -3.4880   -2.6500    0.1286 H   0  0  0  0  0  0  0  0  0  0  0  0
   -1.6860   -2.0850    1.1196 C   0  0  0  0  0  0  0  0  0  0  0  0
   -0.7540   -2.7700    1.5226 O   0  0  0  0  0  0  0  0  0  0  0  0
   -1.5320   -0.8490    0.6496 N   0  0  0  0  0  0  0  0  0  0  0  0
   -2.3500   -0.3360    0.3566 H   0  0  0  0  0  0  0  0  0  0  0  0
   -0.2470   -0.1410    0.5576 C   0  0  1  0  0  0  0  0  0  0  0  0
   -0.4630    0.9058    0.3411 H   0  0  0  0  0  0  0  0  0  0  0  0
    0.4985   -0.2016    1.9151 C   0  0  1  0  0  0  0  0  0  0  0  0
    0.5665   -1.2538    2.1980 H   0  0  0  0  0  0  0  0  0  0  0  0
    1.9330    0.3529    1.8239 C   0  0  0  0  0  0  0  0  0  0  0  0
    1.9180    1.4244    1.6168 H   0  0  0  0  0  0  0  0  0  0  0  0
    2.4661    0.1784    2.7571 H   0  0  0  0  0  0  0  0  0  0  0  0
    2.4818   -0.1516    1.0278 H   0  0  0  0  0  0  0  0  0  0  0  0
   -0.3034    0.5213    3.0205 C   0  0  0  0  0  0  0  0  0  0  0  0
   -0.3107    1.5958    2.8328 H   0  0  0  0  0  0  0  0  0  0  0  0
   -1.3327    0.1632    2.9981 H   0  0  0  0  0  0  0  0  0  0  0  0
    0.2361    0.2750    4.4360 C   0  0  0  0  0  0  0  0  0  0  0  0
    1.2287    0.7110    4.5479 H   0  0  0  0  0  0  0  0  0  0  0  0
   -0.4311    0.7413    5.1612 H   0  0  0  0  0  0  0  0  0  0  0  0
    0.2838   -0.7960    4.6359 H   0  0  0  0  0  0  0  0  0  0  0  0
    0.5812   -0.6934   -0.6135 C   0  0  0  0  0  0  0  0  0  0  0  0
    1.7758   -0.9465   -0.4643 O   0  0  0  0  0  0  0  0  0  0  0  0
   -0.0522   -0.8912   -1.7767 N   0  0  0  0  0  0  0  0  0  0  0  0
   -1.0347   -0.6714   -1.8207 H   0  0  0  0  0  0  0  0  0  0  0  0
    0.5933   -1.4043   -2.9835 C   0  0  0  0  0  0  0  0  0  0  0  0
    1.1160   -2.3355   -2.7542 H   0  0  0  0  0  0  0  0  0  0  0  0
   -0.1498   -1.5918   -3.7599 H   0  0  0  0  0  0  0  0  0  0  0  0
    1.3227   -0.6780   -3.3470 H   0  0  0  0  0  0  0  0  0  0  0  0
  5  6  2  0  0  0  0
  5  7  1  0  0  0  0
  2  3  1  0  0  0  0
  2  4  1  0  0  0  0
  2  5  1  0  0  0  0
  1  2  1  0  0  0  0
 24 25  2  0  0  0  0
 24 26  1  0  0  0  0
 20 21  1  0  0  0  0
 20 22  1  0  0  0  0
 20 23  1  0  0  0  0
 17 18  1  0  0  0  0
 17 19  1  0  0  0  0
 17 20  1  0  0  0  0
 13 14  1  0  0  0  0
 13 15  1  0  0  0  0
 13 16  1  0  0  0  0
 11 12  1  0  0  0  0
 11 13  1  0  0  0  0
 11 17  1  0  0  0  0
  9 10  1  0  0  0  0
  9 11  1  0  0  0  0
  9 24  1  0  0  0  0
  7  8  1  0  0  0  0
  7  9  1  0  0  0  0
 28 29  1  0  0  0  0
 28 30  1  0  0  0  0
 28 31  1  0  0  0  0
 26 27  1  0  0  0  0
 26 28  1  0  0  0  0
M  END
$$$$
default_name
  -OEChem-01062215323D

 31 30  0     1  0  0  0  0  0999 V2000
   -3.0760   -3.6390    1.5496 H   0  0  0  0  0  0  0  0  0  0  0  0
   -3.0940   -2.6290    1.1426 C   0  0  0  0  0  0  0  0  0  0  0  0
   -3.7160   -1.9930    1.7706 H   0  0  0  0  0  0  0  0  0  0  0  0
   -3.4880   -2.6500    0.1286 H   0  0  0  0  0  0  0  0  0  0  0  0
   -1.6860   -2.0850    1.1196 C   0  0  0  0  0  0  0  0  0  0  0  0
   -0.7540   -2.7700    1.5226 O   0  0  0  0  0  0  0  0  0  0  0  0
   -1.5320   -0.8490    0.6496 N   0  0  0  0  0  0  0  0  0  0  0  0
   -2.3500   -0.3360    0.3566 H   0  0  0  0  0  0  0  0  0  0  0  0
   -0.2470   -0.1410    0.5576 C   0  0  1  0  0  0  0  0  0  0  0  0
   -0.4630    0.9058    0.3411 H   0  0  0  0  0  0  0  0  0  0  0  0
    0.4985   -0.2016    1.9151 C   0  0  1  0  0  0  0  0  0  0  0  0
    0.5665   -1.2538    2.1980 H   0  0  0  0  0  0  0  0  0  0  0  0
    1.9330    0.3529    1.8239 C   0  0  0  0  0  0  0  0  0  0  0  0
    1.9180    1.4244    1.6168 H   0  0  0  0  0  0  0  0  0  0  0  0
    2.4661    0.1784    2.7571 H   0  0  0  0  0  0  0  0  0  0  0  0
    2.4818   -0.1516    1.0278 H   0  0  0  0  0  0  0  0  0  0  0  0
   -0.3034    0.5213    3.0205 C   0  0  0  0  0  0  0  0  0  0  0  0
   -0.3107    1.5958    2.8328 H   0  0  0  0  0  0  0  0  0  0  0  0
   -1.3327    0.1632    2.9981 H   0  0  0  0  0  0  0  0  0  0  0  0
    0.2361    0.2750    4.4360 C   0  0  0  0  0  0  0  0  0  0  0  0
    1.2287    0.7110    4.5479 H   0  0  0  0  0  0  0  0  0  0  0  0
   -0.4311    0.7413    5.1612 H   0  0  0  0  0  0  0  0  0  0  0  0
    0.2838   -0.7960    4.6359 H   0  0  0  0  0  0  0  0  0  0  0  0
    0.5812   -0.6934   -0.6135 C   0  0  0  0  0  0  0  0  0  0  0  0
    1.6827   -1.2019   -0.4097 O   0  0  0  0  0  0  0  0  0  0  0  0
    0.0499   -0.6049   -1.8395 N   0  0  0  0  0  0  0  0  0  0  0  0
   -0.8623   -0.1857   -1.9279 H   0  0  0  0  0  0  0  0  0  0  0  0
    0.7111   -1.0773   -3.0544 C   0  0  0  0  0  0  0  0  0  0  0  0
    1.0192   -2.1172   -2.9257 H   0  0  0  0  0  0  0  0  0  0  0  0
    0.0333   -1.0068   -3.9063 H   0  0  0  0  0  0  0  0  0  0  0  0
    1.6003   -0.4738   -3.2470 H   0  0  0  0  0  0  0  0  0  0  0  0
  5  6  2  0  0  0  0
  5  7  1  0  0  0  0
  2  3  1  0  0  0  0
  2  4  1  0  0  0  0
  2  5  1  0  0  0  0
  1  2  1  0  0  0  0
 24 25  2  0  0  0  0
 24 26  1  0  0  0  0
 20 21  1  0  0  0  0
 20 22  1  0  0  0  0
 20 23  1  0  0  0  0
 17 18  1  0  0  0  0
 17 19  1  0  0  0  0
 17 20  1  0  0  0  0
 13 14  1  0  0  0  0
 13 15  1  0  0  0  0
 13 16  1  0  0  0  0
 11 12  1  0  0  0  0
 11 13  1  0  0  0  0
 11 17  1  0  0  0  0
  9 10  1  0  0  0  0
  9 11  1  0  0  0  0
  9 24  1  0  0  0  0
  7  8  1  0  0  0  0
  7  9  1  0  0  0  0
 28 29  1  0  0  0  0
 28 30  1  0  0  0  0
 28 31  1  0  0  0  0
 26 27  1  0  0  0  0
 26 28  1  0  0  0  0
M  END
$$$$
default_name
  -OEChem-01062215323D

 31 30  0     1  0  0  0  0  0999 V2000
   -3.0760   -3.6390    1.5496 H   0  0  0  0  0  0  0  0  0  0  0  0
   -3.0940   -2.6290    1.1426 C   0  0  0  0  0  0  0  0  0  0  0  0
   -3.7160   -1.9930    1.7706 H   0  0  0  0  0  0  0  0  0  0  0  0
   -3.4880   -2.6500    0.1286 H   0  0  0  0  0  0  0  0  0  0  0  0
   -1.6860   -2.0850    1.1196 C   0  0  0  0  0  0  0  0  0  0  0  0
   -0.7540   -2.7700    1.5226 O   0  0  0  0  0  0  0  0  0  0  0  0
   -1.5320   -0.8490    0.6496 N   0  0  0  0  0  0  0  0  0  0  0  0
   -2.3500   -0.3360    0.3566 H   0  0  0  0  0  0  0  0  0  0  0  0
   -0.2470   -0.1410    0.5576 C   0  0  1  0  0  0  0  0  0  0  0  0
   -0.4630    0.9058    0.3411 H   0  0  0  0  0  0  0  0  0  0  0  0
    0.4985   -0.2016    1.9151 C   0  0  1  0  0  0  0  0  0  0  0  0
    0.5665   -1.2538    2.1980 H   0  0  0  0  0  0  0  0  0  0  0  0
    1.9330    0.3529    1.8239 C   0  0  0  0  0  0  0  0  0  0  0  0
    1.9180    1.4244    1.6168 H   0  0  0  0  0  0  0  0  0  0  0  0
    2.4661    0.1784    2.7571 H   0  0  0  0  0  0  0  0  0  0  0  0
    2.4818   -0.1516    1.0278 H   0  0  0  0  0  0  0  0  0  0  0  0
   -0.3034    0.5213    3.0205 C   0  0  0  0  0  0  0  0  0  0  0  0
   -0.3107    1.5958    2.8328 H   0  0  0  0  0  0  0  0  0  0  0  0
   -1.3327    0.1632    2.9981 H   0  0  0  0  0  0  0  0  0  0  0  0
    0.2361    0.2750    4.4360 C   0  0  0  0  0  0  0  0  0  0  0  0
    1.2287    0.7110    4.5479 H   0  0  0  0  0  0  0  0  0  0  0  0
   -0.4311    0.7413    5.1612 H   0  0  0  0  0  0  0  0  0  0  0  0
    0.2838   -0.7960    4.6359 H   0  0  0  0  0  0  0  0  0  0  0  0
    0.5812   -0.6934   -0.6135 C   0  0  0  0  0  0  0  0  0  0  0  0
    1.5373   -1.4378   -0.4012 O   0  0  0  0  0  0  0  0  0  0  0  0
    0.2109   -0.3397   -1.8508 N   0  0  0  0  0  0  0  0  0  0  0  0
   -0.5899    0.2644   -1.9476 H   0  0  0  0  0  0  0  0  0  0  0  0
    0.8960   -0.7748   -3.0663 C   0  0  0  0  0  0  0  0  0  0  0  0
    0.9847   -1.8634   -3.0698 H   0  0  0  0  0  0  0  0  0  0  0  0
    0.3392   -0.4574   -3.9492 H   0  0  0  0  0  0  0  0  0  0  0  0
    1.8993   -0.3454   -3.0961 H   0  0  0  0  0  0  0  0  0  0  0  0
  5  6  2  0  0  0  0
  5  7  1  0  0  0  0
  2  3  1  0  0  0  0
  2  4  1  0  0  0  0
  2  5  1  0  0  0  0
  1  2  1  0  0  0  0
 24 25  2  0  0  0  0
 24 26  1  0  0  0  0
 20 21  1  0  0  0  0
 20 22  1  0  0  0  0
 20 23  1  0  0  0  0
 17 18  1  0  0  0  0
 17 19  1  0  0  0  0
 17 20  1  0  0  0  0
 13 14  1  0  0  0  0
 13 15  1  0  0  0  0
 13 16  1  0  0  0  0
 11 12  1  0  0  0  0
 11 13  1  0  0  0  0
 11 17  1  0  0  0  0
  9 10  1  0  0  0  0
  9 11  1  0  0  0  0
  9 24  1  0  0  0  0
  7  8  1  0  0  0  0
  7  9  1  0  0  0  0
 28 29  1  0  0  0  0
 28 30  1  0  0  0  0
 28 31  1  0  0  0  0
 26 27  1  0  0  0  0
 26 28  1  0  0  0  0
M  END
$$$$
default_name
  -OEChem-01062215323D

 31 30  0     1  0  0  0  0  0999 V2000
   -3.0760   -3.6390    1.5496 H   0  0  0  0  0  0  0  0  0  0  0  0
   -3.0940   -2.6290    1.1426 C   0  0  0  0  0  0  0  0  0  0  0  0
   -3.7160   -1.9930    1.7706 H   0  0  0  0  0  0  0  0  0  0  0  0
   -3.4880   -2.6500    0.1286 H   0  0  0  0  0  0  0  0  0  0  0  0
   -1.6860   -2.0850    1.1196 C   0  0  0  0  0  0  0  0  0  0  0  0
   -0.7540   -2.7700    1.5226 O   0  0  0  0  0  0  0  0  0  0  0  0
   -1.5320   -0.8490    0.6496 N   0  0  0  0  0  0  0  0  0  0  0  0
   -2.3500   -0.3360    0.3566 H   0  0  0  0  0  0  0  0  0  0  0  0
   -0.2470   -0.1410    0.5576 C   0  0  1  0  0  0  0  0  0  0  0  0
   -0.4630    0.9058    0.3411 H   0  0  0  0  0  0  0  0  0  0  0  0
    0.4985   -0.2016    1.9151 C   0  0  1  0  0  0  0  0  0  0  0  0
    0.5665   -1.2538    2.1980 H   0  0  0  0  0  0  0  0  0  0  0  0
    1.9330    0.3529    1.8239 C   0  0  0  0  0  0  0  0  0  0  0  0
    1.9180    1.4244    1.6168 H   0  0  0  0  0  0  0  0  0  0  0  0
    2.4661    0.1784    2.7571 H   0  0  0  0  0  0  0  0  0  0  0  0
    2.4818   -0.1516    1.0278 H   0  0  0  0  0  0  0  0  0  0  0  0
   -0.3034    0.5213    3.0205 C   0  0  0  0  0  0  0  0  0  0  0  0
   -0.3107    1.5958    2.8328 H   0  0  0  0  0  0  0  0  0  0  0  0
   -1.3327    0.1632    2.9981 H   0  0  0  0  0  0  0  0  0  0  0  0
    0.2361    0.2750    4.4360 C   0  0  0  0  0  0  0  0  0  0  0  0
    1.2287    0.7110    4.5479 H   0  0  0  0  0  0  0  0  0  0  0  0
   -0.4311    0.7413    5.1612 H   0  0  0  0  0  0  0  0  0  0  0  0
    0.2838   -0.7960    4.6359 H   0  0  0  0  0  0  0  0  0  0  0  0
    0.5812   -0.6934   -0.6135 C   0  0  0  0  0  0  0  0  0  0  0  0
    1.3496   -1.6382   -0.4394 O   0  0  0  0  0  0  0  0  0  0  0  0
    0.4197   -0.1137   -1.8097 N   0  0  0  0  0  0  0  0  0  0  0  0
   -0.2363    0.6483   -1.8786 H   0  0  0  0  0  0  0  0  0  0  0  0
    1.1354   -0.5173   -3.0185 C   0  0  0  0  0  0  0  0  0  0  0  0
    1.0148   -1.5913   -3.1769 H   0  0  0  0  0  0  0  0  0  0  0  0
    0.7470    0.0190   -3.8855 H   0  0  0  0  0  0  0  0  0  0  0  0
    2.1994   -0.3013   -2.9047 H   0  0  0  0  0  0  0  0  0  0  0  0
  5  6  2  0  0  0  0
  5  7  1  0  0  0  0
  2  3  1  0  0  0  0
  2  4  1  0  0  0  0
  2  5  1  0  0  0  0
  1  2  1  0  0  0  0
 24 25  2  0  0  0  0
 24 26  1  0  0  0  0
 20 21  1  0  0  0  0
 20 22  1  0  0  0  0
 20 23  1  0  0  0  0
 17 18  1  0  0  0  0
 17 19  1  0  0  0  0
 17 20  1  0  0  0  0
 13 14  1  0  0  0  0
 13 15  1  0  0  0  0
 13 16  1  0  0  0  0
 11 12  1  0  0  0  0
 11 13  1  0  0  0  0
 11 17  1  0  0  0  0
  9 10  1  0  0  0  0
  9 11  1  0  0  0  0
  9 24  1  0  0  0  0
  7  8  1  0  0  0  0
  7  9  1  0  0  0  0
 28 29  1  0  0  0  0
 28 30  1  0  0  0  0
 28 31  1  0  0  0  0
 26 27  1  0  0  0  0
 26 28  1  0  0  0  0
M  END
$$$$
default_name
  -OEChem-01062215323D

 31 30  0     1  0  0  0  0  0999 V2000
   -3.0760   -3.6390    1.5496 H   0  0  0  0  0  0  0  0  0  0  0  0
   -3.0940   -2.6290    1.1426 C   0  0  0  0  0  0  0  0  0  0  0  0
   -3.7160   -1.9930    1.7706 H   0  0  0  0  0  0  0  0  0  0  0  0
   -3.4880   -2.6500    0.1286 H   0  0  0  0  0  0  0  0  0  0  0  0
   -1.6860   -2.0850    1.1196 C   0  0  0  0  0  0  0  0  0  0  0  0
   -0.7540   -2.7700    1.5226 O   0  0  0  0  0  0  0  0  0  0  0  0
   -1.5320   -0.8490    0.6496 N   0  0  0  0  0  0  0  0  0  0  0  0
   -2.3500   -0.3360    0.3566 H   0  0  0  0  0  0  0  0  0  0  0  0
   -0.2470   -0.1410    0.5576 C   0  0  1  0  0  0  0  0  0  0  0  0
   -0.4630    0.9058    0.3411 H   0  0  0  0  0  0  0  0  0  0  0  0
    0.4985   -0.2016    1.9151 C   0  0  1  0  0  0  0  0  0  0  0  0
    0.5665   -1.2538    2.1980 H   0  0  0  0  0  0  0  0  0  0  0  0
    1.9330    0.3529    1.8239 C   0  0  0  0  0  0  0  0  0  0  0  0
    1.9180    1.4244    1.6168 H   0  0  0  0  0  0  0  0  0  0  0  0
    2.4661    0.1784    2.7571 H   0  0  0  0  0  0  0  0  0  0  0  0
    2.4818   -0.1516    1.0278 H   0  0  0  0  0  0  0  0  0  0  0  0
   -0.3034    0.5213    3.0205 C   0  0  0  0  0  0  0  0  0  0  0  0
   -0.3107    1.5958    2.8328 H   0  0  0  0  0  0  0  0  0  0  0  0
   -1.3327    0.1632    2.9981 H   0  0  0  0  0  0  0  0  0  0  0  0
    0.2361    0.2750    4.4360 C   0  0  0  0  0  0  0  0  0  0  0  0
    1.2287    0.7110    4.5479 H   0  0  0  0  0  0  0  0  0  0  0  0
   -0.4311    0.7413    5.1612 H   0  0  0  0  0  0  0  0  0  0  0  0
    0.2838   -0.7960    4.6359 H   0  0  0  0  0  0  0  0  0  0  0  0
    0.5812   -0.6934   -0.6135 C   0  0  0  0  0  0  0  0  0  0  0  0
    1.1324   -1.7894   -0.5217 O   0  0  0  0  0  0  0  0  0  0  0  0
    0.6621    0.0577   -1.7192 N   0  0  0  0  0  0  0  0  0  0  0  0
    0.1746    0.9397   -1.7255 H   0  0  0  0  0  0  0  0  0  0  0  0
    1.4130   -0.3226   -2.9141 C   0  0  0  0  0  0  0  0  0  0  0  0
    1.1075   -1.3194   -3.2396 H   0  0  0  0  0  0  0  0  0  0  0  0
    1.2290    0.3898   -3.7196 H   0  0  0  0  0  0  0  0  0  0  0  0
    2.4802   -0.3445   -2.6857 H   0  0  0  0  0  0  0  0  0  0  0  0
  5  6  2  0  0  0  0
  5  7  1  0  0  0  0
  2  3  1  0  0  0  0
  2  4  1  0  0  0  0
  2  5  1  0  0  0  0
  1  2  1  0  0  0  0
 24 25  2  0  0  0  0
 24 26  1  0  0  0  0
 20 21  1  0  0  0  0
 20 22  1  0  0  0  0
 20 23  1  0  0  0  0
 17 18  1  0  0  0  0
 17 19  1  0  0  0  0
 17 20  1  0  0  0  0
 13 14  1  0  0  0  0
 13 15  1  0  0  0  0
 13 16  1  0  0  0  0
 11 12  1  0  0  0  0
 11 13  1  0  0  0  0
 11 17  1  0  0  0  0
  9 10  1  0  0  0  0
  9 11  1  0  0  0  0
  9 24  1  0  0  0  0
  7  8  1  0  0  0  0
  7  9  1  0  0  0  0
 28 29  1  0  0  0  0
 28 30  1  0  0  0  0
 28 31  1  0  0  0  0
 26 27  1  0  0  0  0
 26 28  1  0  0  0  0
M  END
$$$$
default_name
  -OEChem-01062215323D

 31 30  0     1  0  0  0  0  0999 V2000
   -3.0760   -3.6390    1.5496 H   0  0  0  0  0  0  0  0  0  0  0  0
   -3.0940   -2.6290    1.1426 C   0  0  0  0  0  0  0  0  0  0  0  0
   -3.7160   -1.9930    1.7706 H   0  0  0  0  0  0  0  0  0  0  0  0
   -3.4880   -2.6500    0.1286 H   0  0  0  0  0  0  0  0  0  0  0  0
   -1.6860   -2.0850    1.1196 C   0  0  0  0  0  0  0  0  0  0  0  0
   -0.7540   -2.7700    1.5226 O   0  0  0  0  0  0  0  0  0  0  0  0
   -1.5320   -0.8490    0.6496 N   0  0  0  0  0  0  0  0  0  0  0  0
   -2.3500   -0.3360    0.3566 H   0  0  0  0  0  0  0  0  0  0  0  0
   -0.2470   -0.1410    0.5576 C   0  0  1  0  0  0  0  0  0  0  0  0
   -0.4630    0.9058    0.3411 H   0  0  0  0  0  0  0  0  0  0  0  0
    0.4985   -0.2016    1.9151 C   0  0  1  0  0  0  0  0  0  0  0  0
    0.5665   -1.2538    2.1980 H   0  0  0  0  0  0  0  0  0  0  0  0
    1.9330    0.3529    1.8239 C   0  0  0  0  0  0  0  0  0  0  0  0
    1.9180    1.4244    1.6168 H   0  0  0  0  0  0  0  0  0  0  0  0
    2.4661    0.1784    2.7571 H   0  0  0  0  0  0  0  0  0  0  0  0
    2.4818   -0.1516    1.0278 H   0  0  0  0  0  0  0  0  0  0  0  0
   -0.3034    0.5213    3.0205 C   0  0  0  0  0  0  0  0  0  0  0  0
   -0.3107    1.5958    2.8328 H   0  0  0  0  0  0  0  0  0  0  0  0
   -1.3327    0.1632    2.9981 H   0  0  0  0  0  0  0  0  0  0  0  0
    0.2361    0.2750    4.4360 C   0  0  0  0  0  0  0  0  0  0  0  0
    1.2287    0.7110    4.5479 H   0  0  0  0  0  0  0  0  0  0  0  0
   -0.4311    0.7413    5.1612 H   0  0  0  0  0  0  0  0  0  0  0  0
    0.2838   -0.7960    4.6359 H   0  0  0  0  0  0  0  0  0  0  0  0
    0.5812   -0.6934   -0.6135 C   0  0  0  0  0  0  0  0  0  0  0  0
    0.9003   -1.8811   -0.6425 O   0  0  0  0  0  0  0  0  0  0  0  0
    0.9216    0.1628   -1.5852 N   0  0  0  0  0  0  0  0  0  0  0  0
    0.6147    1.1188   -1.4988 H   0  0  0  0  0  0  0  0  0  0  0  0
    1.7097   -0.2037   -2.7603 C   0  0  0  0  0  0  0  0  0  0  0  0
    1.2565   -1.0664   -3.2536 H   0  0  0  0  0  0  0  0  0  0  0  0
    1.7522    0.6299   -3.4628 H   0  0  0  0  0  0  0  0  0  0  0  0
    2.7226   -0.4723   -2.4540 H   0  0  0  0  0  0  0  0  0  0  0  0
  5  6  2  0  0  0  0
  5  7  1  0  0  0  0
  2  3  1  0  0  0  0
  2  4  1  0  0  0  0
  2  5  1  0  0  0  0
  1  2  1  0  0  0  0
 24 25  2  0  0  0  0
 24 26  1  0  0  0  0
 20 21  1  0  0  0  0
 20 22  1  0  0  0  0
 20 23  1  0  0  0  0
 17 18  1  0  0  0  0
 17 19  1  0  0  0  0
 17 20  1  0  0  0  0
 13 14  1  0  0  0  0
 13 15  1  0  0  0  0
 13 16  1  0  0  0  0
 11 12  1  0  0  0  0
 11 13  1  0  0  0  0
 11 17  1  0  0  0  0
  9 10  1  0  0  0  0
  9 11  1  0  0  0  0
  9 24  1  0  0  0  0
  7  8  1  0  0  0  0
  7  9  1  0  0  0  0
 28 29  1  0  0  0  0
 28 30  1  0  0  0  0
 28 31  1  0  0  0  0
 26 27  1  0  0  0  0
 26 28  1  0  0  0  0
M  END
$$$$
default_name
  -OEChem-01062215323D

 31 30  0     1  0  0  0  0  0999 V2000
   -3.0760   -3.6390    1.5496 H   0  0  0  0  0  0  0  0  0  0  0  0
   -3.0940   -2.6290    1.1426 C   0  0  0  0  0  0  0  0  0  0  0  0
   -3.7160   -1.9930    1.7706 H   0  0  0  0  0  0  0  0  0  0  0  0
   -3.4880   -2.6500    0.1286 H   0  0  0  0  0  0  0  0  0  0  0  0
   -1.6860   -2.0850    1.1196 C   0  0  0  0  0  0  0  0  0  0  0  0
   -0.7540   -2.7700    1.5226 O   0  0  0  0  0  0  0  0  0  0  0  0
   -1.5320   -0.8490    0.6496 N   0  0  0  0  0  0  0  0  0  0  0  0
   -2.3500   -0.3360    0.3566 H   0  0  0  0  0  0  0  0  0  0  0  0
   -0.2470   -0.1410    0.5576 C   0  0  1  0  0  0  0  0  0  0  0  0
   -0.4630    0.9058    0.3411 H   0  0  0  0  0  0  0  0  0  0  0  0
    0.4985   -0.2016    1.9151 C   0  0  1  0  0  0  0  0  0  0  0  0
    0.5665   -1.2538    2.1980 H   0  0  0  0  0  0  0  0  0  0  0  0
    1.9330    0.3529    1.8239 C   0  0  0  0  0  0  0  0  0  0  0  0
    1.9180    1.4244    1.6168 H   0  0  0  0  0  0  0  0  0  0  0  0
    2.4661    0.1784    2.7571 H   0  0  0  0  0  0  0  0  0  0  0  0
    2.4818   -0.1516    1.0278 H   0  0  0  0  0  0  0  0  0  0  0  0
   -0.3034    0.5213    3.0205 C   0  0  0  0  0  0  0  0  0  0  0  0
   -0.3107    1.5958    2.8328 H   0  0  0  0  0  0  0  0  0  0  0  0
   -1.3327    0.1632    2.9981 H   0  0  0  0  0  0  0  0  0  0  0  0
    0.2361    0.2750    4.4360 C   0  0  0  0  0  0  0  0  0  0  0  0
    1.2287    0.7110    4.5479 H   0  0  0  0  0  0  0  0  0  0  0  0
   -0.4311    0.7413    5.1612 H   0  0  0  0  0  0  0  0  0  0  0  0
    0.2838   -0.7960    4.6359 H   0  0  0  0  0  0  0  0  0  0  0  0
    0.5812   -0.6934   -0.6135 C   0  0  0  0  0  0  0  0  0  0  0  0
    0.6693   -1.9072   -0.7936 O   0  0  0  0  0  0  0  0  0  0  0  0
    1.1805    0.1944   -1.4170 N   0  0  0  0  0  0  0  0  0  0  0  0
    1.0540    1.1734   -1.2138 H   0  0  0  0  0  0  0  0  0  0  0  0
    2.0055   -0.1689   -2.5675 C   0  0  0  0  0  0  0  0  0  0  0  0
    1.4516   -0.8494   -3.2179 H   0  0  0  0  0  0  0  0  0  0  0  0
    2.2810    0.7227   -3.1327 H   0  0  0  0  0  0  0  0  0  0  0  0
    2.9099   -0.6757   -2.2256 H   0  0  0  0  0  0  0  0  0  0  0  0
  5  6  2  0  0  0  0
  5  7  1  0  0  0  0
  2  3  1  0  0  0  0
  2  4  1  0  0  0  0
  2  5  1  0  0  0  0
  1  2  1  0  0  0  0
 24 25  2  0  0  0  0
 24 26  1  0  0  0  0
 20 21  1  0  0  0  0
 20 22  1  0  0  0  0
 20 23  1  0  0  0  0
 17 18  1  0  0  0  0
 17 19  1  0  0  0  0
 17 20  1  0  0  0  0
 13 14  1  0  0  0  0
 13 15  1  0  0  0  0
 13 16  1  0  0  0  0
 11 12  1  0  0  0  0
 11 13  1  0  0  0  0
 11 17  1  0  0  0  0
  9 10  1  0  0  0  0
  9 11  1  0  0  0  0
  9 24  1  0  0  0  0
  7  8  1  0  0  0  0
  7  9  1  0  0  0  0
 28 29  1  0  0  0  0
 28 30  1  0  0  0  0
 28 31  1  0  0  0  0
 26 27  1  0  0  0  0
 26 28  1  0  0  0  0
M  END
$$$$
default_name
  -OEChem-01062215323D

 31 30  0     1  0  0  0  0  0999 V2000
   -3.0760   -3.6390    1.5496 H   0  0  0  0  0  0  0  0  0  0  0  0
   -3.0940   -2.6290    1.1426 C   0  0  0  0  0  0  0  0  0  0  0  0
   -3.7160   -1.9930    1.7706 H   0  0  0  0  0  0  0  0  0  0  0  0
   -3.4880   -2.6500    0.1286 H   0  0  0  0  0  0  0  0  0  0  0  0
   -1.6860   -2.0850    1.1196 C   0  0  0  0  0  0  0  0  0  0  0  0
   -0.7540   -2.7700    1.5226 O   0  0  0  0  0  0  0  0  0  0  0  0
   -1.5320   -0.8490    0.6496 N   0  0  0  0  0  0  0  0  0  0  0  0
   -2.3500   -0.3360    0.3566 H   0  0  0  0  0  0  0  0  0  0  0  0
   -0.2470   -0.1410    0.5576 C   0  0  1  0  0  0  0  0  0  0  0  0
   -0.4630    0.9058    0.3411 H   0  0  0  0  0  0  0  0  0  0  0  0
    0.4985   -0.2016    1.9151 C   0  0  1  0  0  0  0  0  0  0  0  0
    0.5665   -1.2538    2.1980 H   0  0  0  0  0  0  0  0  0  0  0  0
    1.9330    0.3529    1.8239 C   0  0  0  0  0  0  0  0  0  0  0  0
    1.9180    1.4244    1.6168 H   0  0  0  0  0  0  0  0  0  0  0  0
    2.4661    0.1784    2.7571 H   0  0  0  0  0  0  0  0  0  0  0  0
    2.4818   -0.1516    1.0278 H   0  0  0  0  0  0  0  0  0  0  0  0
   -0.3034    0.5213    3.0205 C   0  0  0  0  0  0  0  0  0  0  0  0
   -0.3107    1.5958    2.8328 H   0  0  0  0  0  0  0  0  0  0  0  0
   -1.3327    0.1632    2.9981 H   0  0  0  0  0  0  0  0  0  0  0  0
    0.2361    0.2750    4.4360 C   0  0  0  0  0  0  0  0  0  0  0  0
    1.2287    0.7110    4.5479 H   0  0  0  0  0  0  0  0  0  0  0  0
   -0.4311    0.7413    5.1612 H   0  0  0  0  0  0  0  0  0  0  0  0
    0.2838   -0.7960    4.6359 H   0  0  0  0  0  0  0  0  0  0  0  0
    0.5812   -0.6934   -0.6135 C   0  0  0  0  0  0  0  0  0  0  0  0
    0.4552   -1.8657   -0.9647 O   0  0  0  0  0  0  0  0  0  0  0  0
    1.4212    0.1505   -1.2261 N   0  0  0  0  0  0  0  0  0  0  0  0
    1.4626    1.0997   -0.8901 H   0  0  0  0  0  0  0  0  0  0  0  0
    2.2802   -0.2204   -2.3490 C   0  0  0  0  0  0  0  0  0  0  0  0
    1.6795   -0.6833   -3.1351 H   0  0  0  0  0  0  0  0  0  0  0  0
    2.7794    0.6621   -2.7516 H   0  0  0  0  0  0  0  0  0  0  0  0
    3.0295   -0.9411   -2.0158 H   0  0  0  0  0  0  0  0  0  0  0  0
  5  6  2  0  0  0  0
  5  7  1  0  0  0  0
  2  3  1  0  0  0  0
  2  4  1  0  0  0  0
  2  5  1  0  0  0  0
  1  2  1  0  0  0  0
 24 25  2  0  0  0  0
 24 26  1  0  0  0  0
 20 21  1  0  0  0  0
 20 22  1  0  0  0  0
 20 23  1  0  0  0  0
 17 18  1  0  0  0  0
 17 19  1  0  0  0  0
 17 20  1  0  0  0  0
 13 14  1  0  0  0  0
 13 15  1  0  0  0  0
 13 16  1  0  0  0  0
 11 12  1  0  0  0  0
 11 13  1  0  0  0  0
 11 17  1  0  0  0  0
  9 10  1  0  0  0  0
  9 11  1  0  0  0  0
  9 24  1  0  0  0  0
  7  8  1  0  0  0  0
  7  9  1  0  0  0  0
 28 29  1  0  0  0  0
 28 30  1  0  0  0  0
 28 31  1  0  0  0  0
 26 27  1  0  0  0  0
 26 28  1  0  0  0  0
M  END
$$$$
default_name
  -OEChem-01062215323D

 31 30  0     1  0  0  0  0  0999 V2000
   -3.0760   -3.6390    1.5496 H   0  0  0  0  0  0  0  0  0  0  0  0
   -3.0940   -2.6290    1.1426 C   0  0  0  0  0  0  0  0  0  0  0  0
   -3.7160   -1.9930    1.7706 H   0  0  0  0  0  0  0  0  0  0  0  0
   -3.4880   -2.6500    0.1286 H   0  0  0  0  0  0  0  0  0  0  0  0
   -1.6860   -2.0850    1.1196 C   0  0  0  0  0  0  0  0  0  0  0  0
   -0.7540   -2.7700    1.5226 O   0  0  0  0  0  0  0  0  0  0  0  0
   -1.5320   -0.8490    0.6496 N   0  0  0  0  0  0  0  0  0  0  0  0
   -2.3500   -0.3360    0.3566 H   0  0  0  0  0  0  0  0  0  0  0  0
   -0.2470   -0.1410    0.5576 C   0  0  1  0  0  0  0  0  0  0  0  0
   -0.4630    0.9058    0.3411 H   0  0  0  0  0  0  0  0  0  0  0  0
    0.4985   -0.2016    1.9151 C   0  0  1  0  0  0  0  0  0  0  0  0
    0.5665   -1.2538    2.1980 H   0  0  0  0  0  0  0  0  0  0  0  0
    1.9330    0.3529    1.8239 C   0  0  0  0  0  0  0  0  0  0  0  0
    1.9180    1.4244    1.6168 H   0  0  0  0  0  0  0  0  0  0  0  0
    2.4661    0.1784    2.7571 H   0  0  0  0  0  0  0  0  0  0  0  0
    2.4818   -0.1516    1.0278 H   0  0  0  0  0  0  0  0  0  0  0  0
   -0.3034    0.5213    3.0205 C   0  0  0  0  0  0  0  0  0  0  0  0
   -0.3107    1.5958    2.8328 H   0  0  0  0  0  0  0  0  0  0  0  0
   -1.3327    0.1632    2.9981 H   0  0  0  0  0  0  0  0  0  0  0  0
    0.2361    0.2750    4.4360 C   0  0  0  0  0  0  0  0  0  0  0  0
    1.2287    0.7110    4.5479 H   0  0  0  0  0  0  0  0  0  0  0  0
   -0.4311    0.7413    5.1612 H   0  0  0  0  0  0  0  0  0  0  0  0
    0.2838   -0.7960    4.6359 H   0  0  0  0  0  0  0  0  0  0  0  0
    0.5812   -0.6934   -0.6135 C   0  0  0  0  0  0  0  0  0  0  0  0
    0.2724   -1.7595   -1.1440 O   0  0  0  0  0  0  0  0  0  0  0  0
    1.6273    0.0340   -1.0253 N   0  0  0  0  0  0  0  0  0  0  0  0
    1.8127    0.9029   -0.5497 H   0  0  0  0  0  0  0  0  0  0  0  0
    2.5149   -0.3549   -2.1195 C   0  0  0  0  0  0  0  0  0  0  0  0
    1.9248   -0.5793   -3.0108 H   0  0  0  0  0  0  0  0  0  0  0  0
    3.2134    0.4521   -2.3456 H   0  0  0  0  0  0  0  0  0  0  0  0
    3.0731   -1.2502   -1.8391 H   0  0  0  0  0  0  0  0  0  0  0  0
  5  6  2  0  0  0  0
  5  7  1  0  0  0  0
  2  3  1  0  0  0  0
  2  4  1  0  0  0  0
  2  5  1  0  0  0  0
  1  2  1  0  0  0  0
 24 25  2  0  0  0  0
 24 26  1  0  0  0  0
 20 21  1  0  0  0  0
 20 22  1  0  0  0  0
 20 23  1  0  0  0  0
 17 18  1  0  0  0  0
 17 19  1  0  0  0  0
 17 20  1  0  0  0  0
 13 14  1  0  0  0  0
 13 15  1  0  0  0  0
 13 16  1  0  0  0  0
 11 12  1  0  0  0  0
 11 13  1  0  0  0  0
 11 17  1  0  0  0  0
  9 10  1  0  0  0  0
  9 11  1  0  0  0  0
  9 24  1  0  0  0  0
  7  8  1  0  0  0  0
  7  9  1  0  0  0  0
 28 29  1  0  0  0  0
 28 30  1  0  0  0  0
 28 31  1  0  0  0  0
 26 27  1  0  0  0  0
 26 28  1  0  0  0  0
M  END
$$$$
default_name
  -OEChem-01062215323D

 31 30  0     1  0  0  0  0  0999 V2000
   -3.0760   -3.6390    1.5496 H   0  0  0  0  0  0  0  0  0  0  0  0
   -3.0940   -2.6290    1.1426 C   0  0  0  0  0  0  0  0  0  0  0  0
   -3.7160   -1.9930    1.7706 H   0  0  0  0  0  0  0  0  0  0  0  0
   -3.4880   -2.6500    0.1286 H   0  0  0  0  0  0  0  0  0  0  0  0
   -1.6860   -2.0850    1.1196 C   0  0  0  0  0  0  0  0  0  0  0  0
   -0.7540   -2.7700    1.5226 O   0  0  0  0  0  0  0  0  0  0  0  0
   -1.5320   -0.8490    0.6496 N   0  0  0  0  0  0  0  0  0  0  0  0
   -2.3500   -0.3360    0.3566 H   0  0  0  0  0  0  0  0  0  0  0  0
   -0.2470   -0.1410    0.5576 C   0  0  1  0  0  0  0  0  0  0  0  0
   -0.4558    0.9280    0.6116 H   0  0  0  0  0  0  0  0  0  0  0  0
    0.6574   -0.5099    1.7611 C   0  0  1  0  0  0  0  0  0  0  0  0
    0.7274   -1.5990    1.7887 H   0  0  0  0  0  0  0  0  0  0  0  0
    2.0861    0.0481    1.6163 C   0  0  0  0  0  0  0  0  0  0  0  0
    2.0785    1.1387    1.6595 H   0  0  0  0  0  0  0  0  0  0  0  0
    2.7241   -0.3349    2.4112 H   0  0  0  0  0  0  0  0  0  0  0  0
    2.5173   -0.2632    0.6642 H   0  0  0  0  0  0  0  0  0  0  0  0
    0.0197   -0.0557    3.0932 C   0  0  0  0  0  0  0  0  0  0  0  0
    0.0223    1.0334    3.1547 H   0  0  0  0  0  0  0  0  0  0  0  0
   -1.0150   -0.3974    3.1211 H   0  0  0  0  0  0  0  0  0  0  0  0
    0.7212   -0.6182    4.3369 C   0  0  0  0  0  0  0  0  0  0  0  0
    1.7328   -0.2209    4.4177 H   0  0  0  0  0  0  0  0  0  0  0  0
    0.1626   -0.3277    5.2269 H   0  0  0  0  0  0  0  0  0  0  0  0
    0.7603   -1.7067    4.2828 H   0  0  0  0  0  0  0  0  0  0  0  0
    0.4139   -0.4144   -0.8030 C   0  0  0  0  0  0  0  0  0  0  0  0
   -0.1446   -1.1319   -1.6315 O   0  0  0  0  0  0  0  0  0  0  0  0
    1.5980    0.1642   -1.0400 N   0  0  0  0  0  0  0  0  0  0  0  0
    1.9892    0.7484   -0.3179 H   0  0  0  0  0  0  0  0  0  0  0  0
    2.3562   -0.0001   -2.2787 C   0  0  0  0  0  0  0  0  0  0  0  0
    1.7200    0.2367   -3.1343 H   0  0  0  0  0  0  0  0  0  0  0  0
    3.2235    0.6617   -2.2825 H   0  0  0  0  0  0  0  0  0  0  0  0
    2.6894   -1.0356   -2.3708 H   0  0  0  0  0  0  0  0  0  0  0  0
  5  6  2  0  0  0  0
  5  7  1  0  0  0  0
  2  3  1  0  0  0  0
  2  4  1  0  0  0  0
  2  5  1  0  0  0  0
  1  2  1  0  0  0  0
 24 25  2  0  0  0  0
 24 26  1  0  0  0  0
 20 21  1  0  0  0  0
 20 22  1  0  0  0  0
 20 23  1  0  0  0  0
 17 18  1  0  0  0  0
 17 19  1  0  0  0  0
 17 20  1  0  0  0  0
 13 14  1  0  0  0  0
 13 15  1  0  0  0  0
 13 16  1  0  0  0  0
 11 12  1  0  0  0  0
 11 13  1  0  0  0  0
 11 17  1  0  0  0  0
  9 10  1  0  0  0  0
  9 11  1  0  0  0  0
  9 24  1  0  0  0  0
  7  8  1  0  0  0  0
  7  9  1  0  0  0  0
 28 29  1  0  0  0  0
 28 30  1  0  0  0  0
 28 31  1  0  0  0  0
 26 27  1  0  0  0  0
 26 28  1  0  0  0  0
M  END
$$$$
default_name
  -OEChem-01062215323D

 31 30  0     1  0  0  0  0  0999 V2000
   -3.0760   -3.6390    1.5496 H   0  0  0  0  0  0  0  0  0  0  0  0
   -3.0940   -2.6290    1.1426 C   0  0  0  0  0  0  0  0  0  0  0  0
   -3.7160   -1.9930    1.7706 H   0  0  0  0  0  0  0  0  0  0  0  0
   -3.4880   -2.6500    0.1286 H   0  0  0  0  0  0  0  0  0  0  0  0
   -1.6860   -2.0850    1.1196 C   0  0  0  0  0  0  0  0  0  0  0  0
   -0.7540   -2.7700    1.5226 O   0  0  0  0  0  0  0  0  0  0  0  0
   -1.5320   -0.8490    0.6496 N   0  0  0  0  0  0  0  0  0  0  0  0
   -2.3500   -0.3360    0.3566 H   0  0  0  0  0  0  0  0  0  0  0  0
   -0.2470   -0.1410    0.5576 C   0  0  1  0  0  0  0  0  0  0  0  0
   -0.4558    0.9280    0.6116 H   0  0  0  0  0  0  0  0  0  0  0  0
    0.6574   -0.5099    1.7611 C   0  0  1  0  0  0  0  0  0  0  0  0
    0.7274   -1.5990    1.7887 H   0  0  0  0  0  0  0  0  0  0  0  0
    2.0861    0.0481    1.6163 C   0  0  0  0  0  0  0  0  0  0  0  0
    2.0785    1.1387    1.6595 H   0  0  0  0  0  0  0  0  0  0  0  0
    2.7241   -0.3349    2.4112 H   0  0  0  0  0  0  0  0  0  0  0  0
    2.5173   -0.2632    0.6642 H   0  0  0  0  0  0  0  0  0  0  0  0
    0.0197   -0.0557    3.0932 C   0  0  0  0  0  0  0  0  0  0  0  0
    0.0223    1.0334    3.1547 H   0  0  0  0  0  0  0  0  0  0  0  0
   -1.0150   -0.3974    3.1211 H   0  0  0  0  0  0  0  0  0  0  0  0
    0.7212   -0.6182    4.3369 C   0  0  0  0  0  0  0  0  0  0  0  0
    1.7328   -0.2209    4.4177 H   0  0  0  0  0  0  0  0  0  0  0  0
    0.1626   -0.3277    5.2269 H   0  0  0  0  0  0  0  0  0  0  0  0
    0.7603   -1.7067    4.2828 H   0  0  0  0  0  0  0  0  0  0  0  0
    0.4139   -0.4144   -0.8030 C   0  0  0  0  0  0  0  0  0  0  0  0
   -0.2427   -0.8911   -1.7276 O   0  0  0  0  0  0  0  0  0  0  0  0
    1.7101   -0.1042   -0.9316 N   0  0  0  0  0  0  0  0  0  0  0  0
    2.1802    0.2936   -0.1338 H   0  0  0  0  0  0  0  0  0  0  0  0
    2.4832   -0.3075   -2.1552 C   0  0  0  0  0  0  0  0  0  0  0  0
    1.9687    0.1595   -2.9980 H   0  0  0  0  0  0  0  0  0  0  0  0
    3.4765    0.1319   -2.0531 H   0  0  0  0  0  0  0  0  0  0  0  0
    2.5780   -1.3763   -2.3564 H   0  0  0  0  0  0  0  0  0  0  0  0
  5  6  2  0  0  0  0
  5  7  1  0  0  0  0
  2  3  1  0  0  0  0
  2  4  1  0  0  0  0
  2  5  1  0  0  0  0
  1  2  1  0  0  0  0
 24 25  2  0  0  0  0
 24 26  1  0  0  0  0
 20 21  1  0  0  0  0
 20 22  1  0  0  0  0
 20 23  1  0  0  0  0
 17 18  1  0  0  0  0
 17 19  1  0  0  0  0
 17 20  1  0  0  0  0
 13 14  1  0  0  0  0
 13 15  1  0  0  0  0
 13 16  1  0  0  0  0
 11 12  1  0  0  0  0
 11 13  1  0  0  0  0
 11 17  1  0  0  0  0
  9 10  1  0  0  0  0
  9 11  1  0  0  0  0
  9 24  1  0  0  0  0
  7  8  1  0  0  0  0
  7  9  1  0  0  0  0
 28 29  1  0  0  0  0
 28 30  1  0  0  0  0
 28 31  1  0  0  0  0
 26 27  1  0  0  0  0
 26 28  1  0  0  0  0
M  END
$$$$
default_name
  -OEChem-01062215323D

 31 30  0     1  0  0  0  0  0999 V2000
   -3.0760   -3.6390    1.5496 H   0  0  0  0  0  0  0  0  0  0  0  0
   -3.0940   -2.6290    1.1426 C   0  0  0  0  0  0  0  0  0  0  0  0
   -3.7160   -1.9930    1.7706 H   0  0  0  0  0  0  0  0  0  0  0  0
   -3.4880   -2.6500    0.1286 H   0  0  0  0  0  0  0  0  0  0  0  0
   -1.6860   -2.0850    1.1196 C   0  0  0  0  0  0  0  0  0  0  0  0
   -0.7540   -2.7700    1.5226 O   0  0  0  0  0  0  0  0  0  0  0  0
   -1.5320   -0.8490    0.6496 N   0  0  0  0  0  0  0  0  0  0  0  0
   -2.3500   -0.3360    0.3566 H   0  0  0  0  0  0  0  0  0  0  0  0
   -0.2470   -0.1410    0.5576 C   0  0  1  0  0  0  0  0  0  0  0  0
   -0.4558    0.9280    0.6116 H   0  0  0  0  0  0  0  0  0  0  0  0
    0.6574   -0.5099    1.7611 C   0  0  1  0  0  0  0  0  0  0  0  0
    0.7274   -1.5990    1.7887 H   0  0  0  0  0  0  0  0  0  0  0  0
    2.0861    0.0481    1.6163 C   0  0  0  0  0  0  0  0  0  0  0  0
    2.0785    1.1387    1.6595 H   0  0  0  0  0  0  0  0  0  0  0  0
    2.7241   -0.3349    2.4112 H   0  0  0  0  0  0  0  0  0  0  0  0
    2.5173   -0.2632    0.6642 H   0  0  0  0  0  0  0  0  0  0  0  0
    0.0197   -0.0557    3.0932 C   0  0  0  0  0  0  0  0  0  0  0  0
    0.0223    1.0334    3.1547 H   0  0  0  0  0  0  0  0  0  0  0  0
   -1.0150   -0.3974    3.1211 H   0  0  0  0  0  0  0  0  0  0  0  0
    0.7212   -0.6182    4.3369 C   0  0  0  0  0  0  0  0  0  0  0  0
    1.7328   -0.2209    4.4177 H   0  0  0  0  0  0  0  0  0  0  0  0
    0.1626   -0.3277    5.2269 H   0  0  0  0  0  0  0  0  0  0  0  0
    0.7603   -1.7067    4.2828 H   0  0  0  0  0  0  0  0  0  0  0  0
    0.4139   -0.4144   -0.8030 C   0  0  0  0  0  0  0  0  0  0  0  0
   -0.2779   -0.6253   -1.7981 O   0  0  0  0  0  0  0  0  0  0  0  0
    1.7520   -0.4011   -0.8516 N   0  0  0  0  0  0  0  0  0  0  0  0
    2.2520   -0.2098    0.0023 H   0  0  0  0  0  0  0  0  0  0  0  0
    2.5297   -0.6473   -2.0644 C   0  0  0  0  0  0  0  0  0  0  0  0
    2.1850    0.0128   -2.8634 H   0  0  0  0  0  0  0  0  0  0  0  0
    3.5889   -0.4633   -1.8789 H   0  0  0  0  0  0  0  0  0  0  0  0
    2.3917   -1.6815   -2.3856 H   0  0  0  0  0  0  0  0  0  0  0  0
  5  6  2  0  0  0  0
  5  7  1  0  0  0  0
  2  3  1  0  0  0  0
  2  4  1  0  0  0  0
  2  5  1  0  0  0  0
  1  2  1  0  0  0  0
 24 25  2  0  0  0  0
 24 26  1  0  0  0  0
 20 21  1  0  0  0  0
 20 22  1  0  0  0  0
 20 23  1  0  0  0  0
 17 18  1  0  0  0  0
 17 19  1  0  0  0  0
 17 20  1  0  0  0  0
 13 14  1  0  0  0  0
 13 15  1  0  0  0  0
 13 16  1  0  0  0  0
 11 12  1  0  0  0  0
 11 13  1  0  0  0  0
 11 17  1  0  0  0  0
  9 10  1  0  0  0  0
  9 11  1  0  0  0  0
  9 24  1  0  0  0  0
  7  8  1  0  0  0  0
  7  9  1  0  0  0  0
 28 29  1  0  0  0  0
 28 30  1  0  0  0  0
 28 31  1  0  0  0  0
 26 27  1  0  0  0  0
 26 28  1  0  0  0  0
M  END
$$$$
default_name
  -OEChem-01062215323D

 31 30  0     1  0  0  0  0  0999 V2000
   -3.0760   -3.6390    1.5496 H   0  0  0  0  0  0  0  0  0  0  0  0
   -3.0940   -2.6290    1.1426 C   0  0  0  0  0  0  0  0  0  0  0  0
   -3.7160   -1.9930    1.7706 H   0  0  0  0  0  0  0  0  0  0  0  0
   -3.4880   -2.6500    0.1286 H   0  0  0  0  0  0  0  0  0  0  0  0
   -1.6860   -2.0850    1.1196 C   0  0  0  0  0  0  0  0  0  0  0  0
   -0.7540   -2.7700    1.5226 O   0  0  0  0  0  0  0  0  0  0  0  0
   -1.5320   -0.8490    0.6496 N   0  0  0  0  0  0  0  0  0  0  0  0
   -2.3500   -0.3360    0.3566 H   0  0  0  0  0  0  0  0  0  0  0  0
   -0.2470   -0.1410    0.5576 C   0  0  1  0  0  0  0  0  0  0  0  0
   -0.4558    0.9280    0.6116 H   0  0  0  0  0  0  0  0  0  0  0  0
    0.6574   -0.5099    1.7611 C   0  0  1  0  0  0  0  0  0  0  0  0
    0.7274   -1.5990    1.7887 H   0  0  0  0  0  0  0  0  0  0  0  0
    2.0861    0.0481    1.6163 C   0  0  0  0  0  0  0  0  0  0  0  0
    2.0785    1.1387    1.6595 H   0  0  0  0  0  0  0  0  0  0  0  0
    2.7241   -0.3349    2.4112 H   0  0  0  0  0  0  0  0  0  0  0  0
    2.5173   -0.2632    0.6642 H   0  0  0  0  0  0  0  0  0  0  0  0
    0.0197   -0.0557    3.0932 C   0  0  0  0  0  0  0  0  0  0  0  0
    0.0223    1.0334    3.1547 H   0  0  0  0  0  0  0  0  0  0  0  0
   -1.0150   -0.3974    3.1211 H   0  0  0  0  0  0  0  0  0  0  0  0
    0.7212   -0.6182    4.3369 C   0  0  0  0  0  0  0  0  0  0  0  0
    1.7328   -0.2209    4.4177 H   0  0  0  0  0  0  0  0  0  0  0  0
    0.1626   -0.3277    5.2269 H   0  0  0  0  0  0  0  0  0  0  0  0
    0.7603   -1.7067    4.2828 H   0  0  0  0  0  0  0  0  0  0  0  0
    0.4139   -0.4144   -0.8030 C   0  0  0  0  0  0  0  0  0  0  0  0
   -0.2477   -0.3527   -1.8382 O   0  0  0  0  0  0  0  0  0  0  0  0
    1.7207   -0.7065   -0.8054 N   0  0  0  0  0  0  0  0  0  0  0  0
    2.1997   -0.7278    0.0810 H   0  0  0  0  0  0  0  0  0  0  0  0
    2.4926   -0.9962   -2.0123 C   0  0  0  0  0  0  0  0  0  0  0  0
    2.3542   -0.1934   -2.7399 H   0  0  0  0  0  0  0  0  0  0  0  0
    3.5531   -1.0834   -1.7717 H   0  0  0  0  0  0  0  0  0  0  0  0
    2.1431   -1.9303   -2.4563 H   0  0  0  0  0  0  0  0  0  0  0  0
  5  6  2  0  0  0  0
  5  7  1  0  0  0  0
  2  3  1  0  0  0  0
  2  4  1  0  0  0  0
  2  5  1  0  0  0  0
  1  2  1  0  0  0  0
 24 25  2  0  0  0  0
 24 26  1  0  0  0  0
 20 21  1  0  0  0  0
 20 22  1  0  0  0  0
 20 23  1  0  0  0  0
 17 18  1  0  0  0  0
 17 19  1  0  0  0  0
 17 20  1  0  0  0  0
 13 14  1  0  0  0  0
 13 15  1  0  0  0  0
 13 16  1  0  0  0  0
 11 12  1  0  0  0  0
 11 13  1  0  0  0  0
 11 17  1  0  0  0  0
  9 10  1  0  0  0  0
  9 11  1  0  0  0  0
  9 24  1  0  0  0  0
  7  8  1  0  0  0  0
  7  9  1  0  0  0  0
 28 29  1  0  0  0  0
 28 30  1  0  0  0  0
 28 31  1  0  0  0  0
 26 27  1  0  0  0  0
 26 28  1  0  0  0  0
M  END
$$$$
default_name
  -OEChem-01062215323D

 31 30  0     1  0  0  0  0  0999 V2000
   -3.0760   -3.6390    1.5496 H   0  0  0  0  0  0  0  0  0  0  0  0
   -3.0940   -2.6290    1.1426 C   0  0  0  0  0  0  0  0  0  0  0  0
   -3.7160   -1.9930    1.7706 H   0  0  0  0  0  0  0  0  0  0  0  0
   -3.4880   -2.6500    0.1286 H   0  0  0  0  0  0  0  0  0  0  0  0
   -1.6860   -2.0850    1.1196 C   0  0  0  0  0  0  0  0  0  0  0  0
   -0.7540   -2.7700    1.5226 O   0  0  0  0  0  0  0  0  0  0  0  0
   -1.5320   -0.8490    0.6496 N   0  0  0  0  0  0  0  0  0  0  0  0
   -2.3500   -0.3360    0.3566 H   0  0  0  0  0  0  0  0  0  0  0  0
   -0.2470   -0.1410    0.5576 C   0  0  1  0  0  0  0  0  0  0  0  0
   -0.4558    0.9280    0.6116 H   0  0  0  0  0  0  0  0  0  0  0  0
    0.6574   -0.5099    1.7611 C   0  0  1  0  0  0  0  0  0  0  0  0
    0.7274   -1.5990    1.7887 H   0  0  0  0  0  0  0  0  0  0  0  0
    2.0861    0.0481    1.6163 C   0  0  0  0  0  0  0  0  0  0  0  0
    2.0785    1.1387    1.6595 H   0  0  0  0  0  0  0  0  0  0  0  0
    2.7241   -0.3349    2.4112 H   0  0  0  0  0  0  0  0  0  0  0  0
    2.5173   -0.2632    0.6642 H   0  0  0  0  0  0  0  0  0  0  0  0
    0.0197   -0.0557    3.0932 C   0  0  0  0  0  0  0  0  0  0  0  0
    0.0223    1.0334    3.1547 H   0  0  0  0  0  0  0  0  0  0  0  0
   -1.0150   -0.3974    3.1211 H   0  0  0  0  0  0  0  0  0  0  0  0
    0.7212   -0.6182    4.3369 C   0  0  0  0  0  0  0  0  0  0  0  0
    1.7328   -0.2209    4.4177 H   0  0  0  0  0  0  0  0  0  0  0  0
    0.1626   -0.3277    5.2269 H   0  0  0  0  0  0  0  0  0  0  0  0
    0.7603   -1.7067    4.2828 H   0  0  0  0  0  0  0  0  0  0  0  0
    0.4139   -0.4144   -0.8030 C   0  0  0  0  0  0  0  0  0  0  0  0
   -0.1543   -0.0918   -1.8453 O   0  0  0  0  0  0  0  0  0  0  0  0
    1.6184   -0.9994   -0.7963 N   0  0  0  0  0  0  0  0  0  0  0  0
    2.0270   -1.2248    0.0969 H   0  0  0  0  0  0  0  0  0  0  0  0
    2.3744   -1.3306   -2.0025 C   0  0  0  0  0  0  0  0  0  0  0  0
    2.4646   -0.4451   -2.6356 H   0  0  0  0  0  0  0  0  0  0  0  0
    3.3716   -1.6861   -1.7388 H   0  0  0  0  0  0  0  0  0  0  0  0
    1.8493   -2.1058   -2.5638 H   0  0  0  0  0  0  0  0  0  0  0  0
  5  6  2  0  0  0  0
  5  7  1  0  0  0  0
  2  3  1  0  0  0  0
  2  4  1  0  0  0  0
  2  5  1  0  0  0  0
  1  2  1  0  0  0  0
 24 25  2  0  0  0  0
 24 26  1  0  0  0  0
 20 21  1  0  0  0  0
 20 22  1  0  0  0  0
 20 23  1  0  0  0  0
 17 18  1  0  0  0  0
 17 19  1  0  0  0  0
 17 20  1  0  0  0  0
 13 14  1  0  0  0  0
 13 15  1  0  0  0  0
 13 16  1  0  0  0  0
 11 12  1  0  0  0  0
 11 13  1  0  0  0  0
 11 17  1  0  0  0  0
  9 10  1  0  0  0  0
  9 11  1  0  0  0  0
  9 24  1  0  0  0  0
  7  8  1  0  0  0  0
  7  9  1  0  0  0  0
 28 29  1  0  0  0  0
 28 30  1  0  0  0  0
 28 31  1  0  0  0  0
 26 27  1  0  0  0  0
 26 28  1  0  0  0  0
M  END
$$$$
default_name
  -OEChem-01062215323D

 31 30  0     1  0  0  0  0  0999 V2000
   -3.0760   -3.6390    1.5496 H   0  0  0  0  0  0  0  0  0  0  0  0
   -3.0940   -2.6290    1.1426 C   0  0  0  0  0  0  0  0  0  0  0  0
   -3.7160   -1.9930    1.7706 H   0  0  0  0  0  0  0  0  0  0  0  0
   -3.4880   -2.6500    0.1286 H   0  0  0  0  0  0  0  0  0  0  0  0
   -1.6860   -2.0850    1.1196 C   0  0  0  0  0  0  0  0  0  0  0  0
   -0.7540   -2.7700    1.5226 O   0  0  0  0  0  0  0  0  0  0  0  0
   -1.5320   -0.8490    0.6496 N   0  0  0  0  0  0  0  0  0  0  0  0
   -2.3500   -0.3360    0.3566 H   0  0  0  0  0  0  0  0  0  0  0  0
   -0.2470   -0.1410    0.5576 C   0  0  1  0  0  0  0  0  0  0  0  0
   -0.4558    0.9280    0.6116 H   0  0  0  0  0  0  0  0  0  0  0  0
    0.6574   -0.5099    1.7611 C   0  0  1  0  0  0  0  0  0  0  0  0
    0.7274   -1.5990    1.7887 H   0  0  0  0  0  0  0  0  0  0  0  0
    2.0861    0.0481    1.6163 C   0  0  0  0  0  0  0  0  0  0  0  0
    2.0785    1.1387    1.6595 H   0  0  0  0  0  0  0  0  0  0  0  0
    2.7241   -0.3349    2.4112 H   0  0  0  0  0  0  0  0  0  0  0  0
    2.5173   -0.2632    0.6642 H   0  0  0  0  0  0  0  0  0  0  0  0
    0.0197   -0.0557    3.0932 C   0  0  0  0  0  0  0  0  0  0  0  0
    0.0223    1.0334    3.1547 H   0  0  0  0  0  0  0  0  0  0  0  0
   -1.0150   -0.3974    3.1211 H   0  0  0  0  0  0  0  0  0  0  0  0
    0.7212   -0.6182    4.3369 C   0  0  0  0  0  0  0  0  0  0  0  0
    1.7328   -0.2209    4.4177 H   0  0  0  0  0  0  0  0  0  0  0  0
    0.1626   -0.3277    5.2269 H   0  0  0  0  0  0  0  0  0  0  0  0
    0.7603   -1.7067    4.2828 H   0  0  0  0  0  0  0  0  0  0  0  0
    0.4139   -0.4144   -0.8030 C   0  0  0  0  0  0  0  0  0  0  0  0
   -0.0040    0.1396   -1.8188 O   0  0  0  0  0  0  0  0  0  0  0  0
    1.4520   -1.2599   -0.8247 N   0  0  0  0  0  0  0  0  0  0  0  0
    1.7455   -1.6672    0.0491 H   0  0  0  0  0  0  0  0  0  0  0  0
    2.1832   -1.6276   -2.0357 C   0  0  0  0  0  0  0  0  0  0  0  0
    2.5088   -0.7252   -2.5579 H   0  0  0  0  0  0  0  0  0  0  0  0
    3.0566   -2.2303   -1.7824 H   0  0  0  0  0  0  0  0  0  0  0  0
    1.5302   -2.1961   -2.7006 H   0  0  0  0  0  0  0  0  0  0  0  0
  5  6  2  0  0  0  0
  5  7  1  0  0  0  0
  2  3  1  0  0  0  0
  2  4  1  0  0  0  0
  2  5  1  0  0  0  0
  1  2  1  0  0  0  0
 24 25  2  0  0  0  0
 24 26  1  0  0  0  0
 20 21  1  0  0  0  0
 20 22  1  0  0  0  0
 20 23  1  0  0  0  0
 17 18  1  0  0  0  0
 17 19  1  0  0  0  0
 17 20  1  0  0  0  0
 13 14  1  0  0  0  0
 13 15  1  0  0  0  0
 13 16  1  0  0  0  0
 11 12  1  0  0  0  0
 11 13  1  0  0  0  0
 11 17  1  0  0  0  0
  9 10  1  0  0  0  0
  9 11  1  0  0  0  0
  9 24  1  0  0  0  0
  7  8  1  0  0  0  0
  7  9  1  0  0  0  0
 28 29  1  0  0  0  0
 28 30  1  0  0  0  0
 28 31  1  0  0  0  0
 26 27  1  0  0  0  0
 26 28  1  0  0  0  0
M  END
$$$$
default_name
  -OEChem-01062215323D

 31 30  0     1  0  0  0  0  0999 V2000
   -3.0760   -3.6390    1.5496 H   0  0  0  0  0  0  0  0  0  0  0  0
   -3.0940   -2.6290    1.1426 C   0  0  0  0  0  0  0  0  0  0  0  0
   -3.7160   -1.9930    1.7706 H   0  0  0  0  0  0  0  0  0  0  0  0
   -3.4880   -2.6500    0.1286 H   0  0  0  0  0  0  0  0  0  0  0  0
   -1.6860   -2.0850    1.1196 C   0  0  0  0  0  0  0  0  0  0  0  0
   -0.7540   -2.7700    1.5226 O   0  0  0  0  0  0  0  0  0  0  0  0
   -1.5320   -0.8490    0.6496 N   0  0  0  0  0  0  0  0  0  0  0  0
   -2.3500   -0.3360    0.3566 H   0  0  0  0  0  0  0  0  0  0  0  0
   -0.2470   -0.1410    0.5576 C   0  0  1  0  0  0  0  0  0  0  0  0
   -0.4558    0.9280    0.6116 H   0  0  0  0  0  0  0  0  0  0  0  0
    0.6574   -0.5099    1.7611 C   0  0  1  0  0  0  0  0  0  0  0  0
    0.7274   -1.5990    1.7887 H   0  0  0  0  0  0  0  0  0  0  0  0
    2.0861    0.0481    1.6163 C   0  0  0  0  0  0  0  0  0  0  0  0
    2.0785    1.1387    1.6595 H   0  0  0  0  0  0  0  0  0  0  0  0
    2.7241   -0.3349    2.4112 H   0  0  0  0  0  0  0  0  0  0  0  0
    2.5173   -0.2632    0.6642 H   0  0  0  0  0  0  0  0  0  0  0  0
    0.0197   -0.0557    3.0932 C   0  0  0  0  0  0  0  0  0  0  0  0
    0.0223    1.0334    3.1547 H   0  0  0  0  0  0  0  0  0  0  0  0
   -1.0150   -0.3974    3.1211 H   0  0  0  0  0  0  0  0  0  0  0  0
    0.7212   -0.6182    4.3369 C   0  0  0  0  0  0  0  0  0  0  0  0
    1.7328   -0.2209    4.4177 H   0  0  0  0  0  0  0  0  0  0  0  0
    0.1626   -0.3277    5.2269 H   0  0  0  0  0  0  0  0  0  0  0  0
    0.7603   -1.7067    4.2828 H   0  0  0  0  0  0  0  0  0  0  0  0
    0.4139   -0.4144   -0.8030 C   0  0  0  0  0  0  0  0  0  0  0  0
    0.1930    0.3257   -1.7605 O   0  0  0  0  0  0  0  0  0  0  0  0
    1.2330   -1.4702   -0.8889 N   0  0  0  0  0  0  0  0  0  0  0  0
    1.3745   -2.0246   -0.0593 H   0  0  0  0  0  0  0  0  0  0  0  0
    1.9320   -1.8669   -2.1096 C   0  0  0  0  0  0  0  0  0  0  0  0
    2.4837   -1.0144   -2.5119 H   0  0  0  0  0  0  0  0  0  0  0  0
    2.6297   -2.6790   -1.8997 H   0  0  0  0  0  0  0  0  0  0  0  0
    1.2076   -2.1950   -2.8575 H   0  0  0  0  0  0  0  0  0  0  0  0
  5  6  2  0  0  0  0
  5  7  1  0  0  0  0
  2  3  1  0  0  0  0
  2  4  1  0  0  0  0
  2  5  1  0  0  0  0
  1  2  1  0  0  0  0
 24 25  2  0  0  0  0
 24 26  1  0  0  0  0
 20 21  1  0  0  0  0
 20 22  1  0  0  0  0
 20 23  1  0  0  0  0
 17 18  1  0  0  0  0
 17 19  1  0  0  0  0
 17 20  1  0  0  0  0
 13 14  1  0  0  0  0
 13 15  1  0  0  0  0
 13 16  1  0  0  0  0
 11 12  1  0  0  0  0
 11 13  1  0  0  0  0
 11 17  1  0  0  0  0
  9 10  1  0  0  0  0
  9 11  1  0  0  0  0
  9 24  1  0  0  0  0
  7  8  1  0  0  0  0
  7  9  1  0  0  0  0
 28 29  1  0  0  0  0
 28 30  1  0  0  0  0
 28 31  1  0  0  0  0
 26 27  1  0  0  0  0
 26 28  1  0  0  0  0
M  END
$$$$
default_name
  -OEChem-01062215323D

 31 30  0     1  0  0  0  0  0999 V2000
   -3.0760   -3.6390    1.5496 H   0  0  0  0  0  0  0  0  0  0  0  0
   -3.0940   -2.6290    1.1426 C   0  0  0  0  0  0  0  0  0  0  0  0
   -3.7160   -1.9930    1.7706 H   0  0  0  0  0  0  0  0  0  0  0  0
   -3.4880   -2.6500    0.1286 H   0  0  0  0  0  0  0  0  0  0  0  0
   -1.6860   -2.0850    1.1196 C   0  0  0  0  0  0  0  0  0  0  0  0
   -0.7540   -2.7700    1.5226 O   0  0  0  0  0  0  0  0  0  0  0  0
   -1.5320   -0.8490    0.6496 N   0  0  0  0  0  0  0  0  0  0  0  0
   -2.3500   -0.3360    0.3566 H   0  0  0  0  0  0  0  0  0  0  0  0
   -0.2470   -0.1410    0.5576 C   0  0  1  0  0  0  0  0  0  0  0  0
   -0.4558    0.9280    0.6116 H   0  0  0  0  0  0  0  0  0  0  0  0
    0.6574   -0.5099    1.7611 C   0  0  1  0  0  0  0  0  0  0  0  0
    0.7274   -1.5990    1.7887 H   0  0  0  0  0  0  0  0  0  0  0  0
    2.0861    0.0481    1.6163 C   0  0  0  0  0  0  0  0  0  0  0  0
    2.0785    1.1387    1.6595 H   0  0  0  0  0  0  0  0  0  0  0  0
    2.7241   -0.3349    2.4112 H   0  0  0  0  0  0  0  0  0  0  0  0
    2.5173   -0.2632    0.6642 H   0  0  0  0  0  0  0  0  0  0  0  0
    0.0197   -0.0557    3.0932 C   0  0  0  0  0  0  0  0  0  0  0  0
    0.0223    1.0334    3.1547 H   0  0  0  0  0  0  0  0  0  0  0  0
   -1.0150   -0.3974    3.1211 H   0  0  0  0  0  0  0  0  0  0  0  0
    0.7212   -0.6182    4.3369 C   0  0  0  0  0  0  0  0  0  0  0  0
    1.7328   -0.2209    4.4177 H   0  0  0  0  0  0  0  0  0  0  0  0
    0.1626   -0.3277    5.2269 H   0  0  0  0  0  0  0  0  0  0  0  0
    0.7603   -1.7067    4.2828 H   0  0  0  0  0  0  0  0  0  0  0  0
    0.4139   -0.4144   -0.8030 C   0  0  0  0  0  0  0  0  0  0  0  0
    0.4233    0.4539   -1.6744 O   0  0  0  0  0  0  0  0  0  0  0  0
    0.9762   -1.6161   -0.9843 N   0  0  0  0  0  0  0  0  0  0  0  0
    0.9392   -2.2729   -0.2208 H   0  0  0  0  0  0  0  0  0  0  0  0
    1.6380   -2.0324   -2.2192 C   0  0  0  0  0  0  0  0  0  0  0  0
    2.3912   -1.2932   -2.5009 H   0  0  0  0  0  0  0  0  0  0  0  0
    2.1199   -3.0015   -2.0825 H   0  0  0  0  0  0  0  0  0  0  0  0
    0.9035   -2.1025   -3.0238 H   0  0  0  0  0  0  0  0  0  0  0  0
  5  6  2  0  0  0  0
  5  7  1  0  0  0  0
  2  3  1  0  0  0  0
  2  4  1  0  0  0  0
  2  5  1  0  0  0  0
  1  2  1  0  0  0  0
 24 25  2  0  0  0  0
 24 26  1  0  0  0  0
 20 21  1  0  0  0  0
 20 22  1  0  0  0  0
 20 23  1  0  0  0  0
 17 18  1  0  0  0  0
 17 19  1  0  0  0  0
 17 20  1  0  0  0  0
 13 14  1  0  0  0  0
 13 15  1  0  0  0  0
 13 16  1  0  0  0  0
 11 12  1  0  0  0  0
 11 13  1  0  0  0  0
 11 17  1  0  0  0  0
  9 10  1  0  0  0  0
  9 11  1  0  0  0  0
  9 24  1  0  0  0  0
  7  8  1  0  0  0  0
  7  9  1  0  0  0  0
 28 29  1  0  0  0  0
 28 30  1  0  0  0  0
 28 31  1  0  0  0  0
 26 27  1  0  0  0  0
 26 28  1  0  0  0  0
M  END
$$$$
default_name
  -OEChem-01062215323D

 31 30  0     1  0  0  0  0  0999 V2000
   -3.0760   -3.6390    1.5496 H   0  0  0  0  0  0  0  0  0  0  0  0
   -3.0940   -2.6290    1.1426 C   0  0  0  0  0  0  0  0  0  0  0  0
   -3.7160   -1.9930    1.7706 H   0  0  0  0  0  0  0  0  0  0  0  0
   -3.4880   -2.6500    0.1286 H   0  0  0  0  0  0  0  0  0  0  0  0
   -1.6860   -2.0850    1.1196 C   0  0  0  0  0  0  0  0  0  0  0  0
   -0.7540   -2.7700    1.5226 O   0  0  0  0  0  0  0  0  0  0  0  0
   -1.5320   -0.8490    0.6496 N   0  0  0  0  0  0  0  0  0  0  0  0
   -2.3500   -0.3360    0.3566 H   0  0  0  0  0  0  0  0  0  0  0  0
   -0.2470   -0.1410    0.5576 C   0  0  1  0  0  0  0  0  0  0  0  0
   -0.4558    0.9280    0.6116 H   0  0  0  0  0  0  0  0  0  0  0  0
    0.6574   -0.5099    1.7611 C   0  0  1  0  0  0  0  0  0  0  0  0
    0.7274   -1.5990    1.7887 H   0  0  0  0  0  0  0  0  0  0  0  0
    2.0861    0.0481    1.6163 C   0  0  0  0  0  0  0  0  0  0  0  0
    2.0785    1.1387    1.6595 H   0  0  0  0  0  0  0  0  0  0  0  0
    2.7241   -0.3349    2.4112 H   0  0  0  0  0  0  0  0  0  0  0  0
    2.5173   -0.2632    0.6642 H   0  0  0  0  0  0  0  0  0  0  0  0
    0.0197   -0.0557    3.0932 C   0  0  0  0  0  0  0  0  0  0  0  0
    0.0223    1.0334    3.1547 H   0  0  0  0  0  0  0  0  0  0  0  0
   -1.0150   -0.3974    3.1211 H   0  0  0  0  0  0  0  0  0  0  0  0
    0.7212   -0.6182    4.3369 C   0  0  0  0  0  0  0  0  0  0  0  0
    1.7328   -0.2209    4.4177 H   0  0  0  0  0  0  0  0  0  0  0  0
    0.1626   -0.3277    5.2269 H   0  0  0  0  0  0  0  0  0  0  0  0
    0.7603   -1.7067    4.2828 H   0  0  0  0  0  0  0  0  0  0  0  0
    0.4139   -0.4144   -0.8030 C   0  0  0  0  0  0  0  0  0  0  0  0
    0.6711    0.5154   -1.5664 O   0  0  0  0  0  0  0  0  0  0  0  0
    0.6991   -1.6875   -1.1046 N   0  0  0  0  0  0  0  0  0  0  0  0
    0.4694   -2.3949   -0.4246 H   0  0  0  0  0  0  0  0  0  0  0  0
    1.3211   -2.1126   -2.3570 C   0  0  0  0  0  0  0  0  0  0  0  0
    2.2374   -1.5425   -2.5255 H   0  0  0  0  0  0  0  0  0  0  0  0
    1.5621   -3.1759   -2.3184 H   0  0  0  0  0  0  0  0  0  0  0  0
    0.6386   -1.9250   -3.1882 H   0  0  0  0  0  0  0  0  0  0  0  0
  5  6  2  0  0  0  0
  5  7  1  0  0  0  0
  2  3  1  0  0  0  0
  2  4  1  0  0  0  0
  2  5  1  0  0  0  0
  1  2  1  0  0  0  0
 24 25  2  0  0  0  0
 24 26  1  0  0  0  0
 20 21  1  0  0  0  0
 20 22  1  0  0  0  0
 20 23  1  0  0  0  0
 17 18  1  0  0  0  0
 17 19  1  0  0  0  0
 17 20  1  0  0  0  0
 13 14  1  0  0  0  0
 13 15  1  0  0  0  0
 13 16  1  0  0  0  0
 11 12  1  0  0  0  0
 11 13  1  0  0  0  0
 11 17  1  0  0  0  0
  9 10  1  0  0  0  0
  9 11  1  0  0  0  0
  9 24  1  0  0  0  0
  7  8  1  0  0  0  0
  7  9  1  0  0  0  0
 28 29  1  0  0  0  0
 28 30  1  0  0  0  0
 28 31  1  0  0  0  0
 26 27  1  0  0  0  0
 26 28  1  0  0  0  0
M  END
$$$$
default_name
  -OEChem-01062215323D

 31 30  0     1  0  0  0  0  0999 V2000
   -3.0760   -3.6390    1.5496 H   0  0  0  0  0  0  0  0  0  0  0  0
   -3.0940   -2.6290    1.1426 C   0  0  0  0  0  0  0  0  0  0  0  0
   -3.7160   -1.9930    1.7706 H   0  0  0  0  0  0  0  0  0  0  0  0
   -3.4880   -2.6500    0.1286 H   0  0  0  0  0  0  0  0  0  0  0  0
   -1.6860   -2.0850    1.1196 C   0  0  0  0  0  0  0  0  0  0  0  0
   -0.7540   -2.7700    1.5226 O   0  0  0  0  0  0  0  0  0  0  0  0
   -1.5320   -0.8490    0.6496 N   0  0  0  0  0  0  0  0  0  0  0  0
   -2.3500   -0.3360    0.3566 H   0  0  0  0  0  0  0  0  0  0  0  0
   -0.2470   -0.1410    0.5576 C   0  0  1  0  0  0  0  0  0  0  0  0
   -0.4558    0.9280    0.6116 H   0  0  0  0  0  0  0  0  0  0  0  0
    0.6574   -0.5099    1.7611 C   0  0  1  0  0  0  0  0  0  0  0  0
    0.7274   -1.5990    1.7887 H   0  0  0  0  0  0  0  0  0  0  0  0
    2.0861    0.0481    1.6163 C   0  0  0  0  0  0  0  0  0  0  0  0
    2.0785    1.1387    1.6595 H   0  0  0  0  0  0  0  0  0  0  0  0
    2.7241   -0.3349    2.4112 H   0  0  0  0  0  0  0  0  0  0  0  0
    2.5173   -0.2632    0.6642 H   0  0  0  0  0  0  0  0  0  0  0  0
    0.0197   -0.0557    3.0932 C   0  0  0  0  0  0  0  0  0  0  0  0
    0.0223    1.0334    3.1547 H   0  0  0  0  0  0  0  0  0  0  0  0
   -1.0150   -0.3974    3.1211 H   0  0  0  0  0  0  0  0  0  0  0  0
    0.7212   -0.6182    4.3369 C   0  0  0  0  0  0  0  0  0  0  0  0
    1.7328   -0.2209    4.4177 H   0  0  0  0  0  0  0  0  0  0  0  0
    0.1626   -0.3277    5.2269 H   0  0  0  0  0  0  0  0  0  0  0  0
    0.7603   -1.7067    4.2828 H   0  0  0  0  0  0  0  0  0  0  0  0
    0.4139   -0.4144   -0.8030 C   0  0  0  0  0  0  0  0  0  0  0  0
    0.9196    0.5059   -1.4438 O   0  0  0  0  0  0  0  0  0  0  0  0
    0.4206   -1.6796   -1.2414 N   0  0  0  0  0  0  0  0  0  0  0  0
   -0.0031   -2.3825   -0.6565 H   0  0  0  0  0  0  0  0  0  0  0  0
    1.0029   -2.1022   -2.5137 C   0  0  0  0  0  0  0  0  0  0  0  0
    2.0328   -1.7454   -2.5841 H   0  0  0  0  0  0  0  0  0  0  0  0
    0.9941   -3.1903   -2.5914 H   0  0  0  0  0  0  0  0  0  0  0  0
    0.4309   -1.6746   -3.3394 H   0  0  0  0  0  0  0  0  0  0  0  0
  5  6  2  0  0  0  0
  5  7  1  0  0  0  0
  2  3  1  0  0  0  0
  2  4  1  0  0  0  0
  2  5  1  0  0  0  0
  1  2  1  0  0  0  0
 24 25  2  0  0  0  0
 24 26  1  0  0  0  0
 20 21  1  0  0  0  0
 20 22  1  0  0  0  0
 20 23  1  0  0  0  0
 17 18  1  0  0  0  0
 17 19  1  0  0  0  0
 17 20  1  0  0  0  0
 13 14  1  0  0  0  0
 13 15  1  0  0  0  0
 13 16  1  0  0  0  0
 11 12  1  0  0  0  0
 11 13  1  0  0  0  0
 11 17  1  0  0  0  0
  9 10  1  0  0  0  0
  9 11  1  0  0  0  0
  9 24  1  0  0  0  0
  7  8  1  0  0  0  0
  7  9  1  0  0  0  0
 28 29  1  0  0  0  0
 28 30  1  0  0  0  0
 28 31  1  0  0  0  0
 26 27  1  0  0  0  0
 26 28  1  0  0  0  0
M  END
$$$$
default_name
  -OEChem-01062215323D

 31 30  0     1  0  0  0  0  0999 V2000
   -3.0760   -3.6390    1.5496 H   0  0  0  0  0  0  0  0  0  0  0  0
   -3.0940   -2.6290    1.1426 C   0  0  0  0  0  0  0  0  0  0  0  0
   -3.7160   -1.9930    1.7706 H   0  0  0  0  0  0  0  0  0  0  0  0
   -3.4880   -2.6500    0.1286 H   0  0  0  0  0  0  0  0  0  0  0  0
   -1.6860   -2.0850    1.1196 C   0  0  0  0  0  0  0  0  0  0  0  0
   -0.7540   -2.7700    1.5226 O   0  0  0  0  0  0  0  0  0  0  0  0
   -1.5320   -0.8490    0.6496 N   0  0  0  0  0  0  0  0  0  0  0  0
   -2.3500   -0.3360    0.3566 H   0  0  0  0  0  0  0  0  0  0  0  0
   -0.2470   -0.1410    0.5576 C   0  0  1  0  0  0  0  0  0  0  0  0
   -0.4558    0.9280    0.6116 H   0  0  0  0  0  0  0  0  0  0  0  0
    0.6574   -0.5099    1.7611 C   0  0  1  0  0  0  0  0  0  0  0  0
    0.7274   -1.5990    1.7887 H   0  0  0  0  0  0  0  0  0  0  0  0
    2.0861    0.0481    1.6163 C   0  0  0  0  0  0  0  0  0  0  0  0
    2.0785    1.1387    1.6595 H   0  0  0  0  0  0  0  0  0  0  0  0
    2.7241   -0.3349    2.4112 H   0  0  0  0  0  0  0  0  0  0  0  0
    2.5173   -0.2632    0.6642 H   0  0  0  0  0  0  0  0  0  0  0  0
    0.0197   -0.0557    3.0932 C   0  0  0  0  0  0  0  0  0  0  0  0
    0.0223    1.0334    3.1547 H   0  0  0  0  0  0  0  0  0  0  0  0
   -1.0150   -0.3974    3.1211 H   0  0  0  0  0  0  0  0  0  0  0  0
    0.7212   -0.6182    4.3369 C   0  0  0  0  0  0  0  0  0  0  0  0
    1.7328   -0.2209    4.4177 H   0  0  0  0  0  0  0  0  0  0  0  0
    0.1626   -0.3277    5.2269 H   0  0  0  0  0  0  0  0  0  0  0  0
    0.7603   -1.7067    4.2828 H   0  0  0  0  0  0  0  0  0  0  0  0
    0.4139   -0.4144   -0.8030 C   0  0  0  0  0  0  0  0  0  0  0  0
    1.1518    0.4263   -1.3150 O   0  0  0  0  0  0  0  0  0  0  0  0
    0.1597   -1.5930   -1.3855 N   0  0  0  0  0  0  0  0  0  0  0  0
   -0.4459   -2.2365   -0.9010 H   0  0  0  0  0  0  0  0  0  0  0  0
    0.7052   -2.0018   -2.6784 C   0  0  0  0  0  0  0  0  0  0  0  0
    1.7915   -1.8879   -2.6727 H   0  0  0  0  0  0  0  0  0  0  0  0
    0.4548   -3.0438   -2.8828 H   0  0  0  0  0  0  0  0  0  0  0  0
    0.2947   -1.3684   -3.4671 H   0  0  0  0  0  0  0  0  0  0  0  0
  5  6  2  0  0  0  0
  5  7  1  0  0  0  0
  2  3  1  0  0  0  0
  2  4  1  0  0  0  0
  2  5  1  0  0  0  0
  1  2  1  0  0  0  0
 24 25  2  0  0  0  0
 24 26  1  0  0  0  0
 20 21  1  0  0  0  0
 20 22  1  0  0  0  0
 20 23  1  0  0  0  0
 17 18  1  0  0  0  0
 17 19  1  0  0  0  0
 17 20  1  0  0  0  0
 13 14  1  0  0  0  0
 13 15  1  0  0  0  0
 13 16  1  0  0  0  0
 11 12  1  0  0  0  0
 11 13  1  0  0  0  0
 11 17  1  0  0  0  0
  9 10  1  0  0  0  0
  9 11  1  0  0  0  0
  9 24  1  0  0  0  0
  7  8  1  0  0  0  0
  7  9  1  0  0  0  0
 28 29  1  0  0  0  0
 28 30  1  0  0  0  0
 28 31  1  0  0  0  0
 26 27  1  0  0  0  0
 26 28  1  0  0  0  0
M  END
$$$$
default_name
  -OEChem-01062215323D

 31 30  0     1  0  0  0  0  0999 V2000
   -3.0760   -3.6390    1.5496 H   0  0  0  0  0  0  0  0  0  0  0  0
   -3.0940   -2.6290    1.1426 C   0  0  0  0  0  0  0  0  0  0  0  0
   -3.7160   -1.9930    1.7706 H   0  0  0  0  0  0  0  0  0  0  0  0
   -3.4880   -2.6500    0.1286 H   0  0  0  0  0  0  0  0  0  0  0  0
   -1.6860   -2.0850    1.1196 C   0  0  0  0  0  0  0  0  0  0  0  0
   -0.7540   -2.7700    1.5226 O   0  0  0  0  0  0  0  0  0  0  0  0
   -1.5320   -0.8490    0.6496 N   0  0  0  0  0  0  0  0  0  0  0  0
   -2.3500   -0.3360    0.3566 H   0  0  0  0  0  0  0  0  0  0  0  0
   -0.2470   -0.1410    0.5576 C   0  0  1  0  0  0  0  0  0  0  0  0
   -0.4558    0.9280    0.6116 H   0  0  0  0  0  0  0  0  0  0  0  0
    0.6574   -0.5099    1.7611 C   0  0  1  0  0  0  0  0  0  0  0  0
    0.7274   -1.5990    1.7887 H   0  0  0  0  0  0  0  0  0  0  0  0
    2.0861    0.0481    1.6163 C   0  0  0  0  0  0  0  0  0  0  0  0
    2.0785    1.1387    1.6595 H   0  0  0  0  0  0  0  0  0  0  0  0
    2.7241   -0.3349    2.4112 H   0  0  0  0  0  0  0  0  0  0  0  0
    2.5173   -0.2632    0.6642 H   0  0  0  0  0  0  0  0  0  0  0  0
    0.0197   -0.0557    3.0932 C   0  0  0  0  0  0  0  0  0  0  0  0
    0.0223    1.0334    3.1547 H   0  0  0  0  0  0  0  0  0  0  0  0
   -1.0150   -0.3974    3.1211 H   0  0  0  0  0  0  0  0  0  0  0  0
    0.7212   -0.6182    4.3369 C   0  0  0  0  0  0  0  0  0  0  0  0
    1.7328   -0.2209    4.4177 H   0  0  0  0  0  0  0  0  0  0  0  0
    0.1626   -0.3277    5.2269 H   0  0  0  0  0  0  0  0  0  0  0  0
    0.7603   -1.7067    4.2828 H   0  0  0  0  0  0  0  0  0  0  0  0
    0.4139   -0.4144   -0.8030 C   0  0  0  0  0  0  0  0  0  0  0  0
    1.3519    0.2818   -1.1887 O   0  0  0  0  0  0  0  0  0  0  0  0
   -0.0658   -1.4335   -1.5271 N   0  0  0  0  0  0  0  0  0  0  0  0
   -0.8289   -1.9668   -1.1412 H   0  0  0  0  0  0  0  0  0  0  0  0
    0.4482   -1.8183   -2.8401 C   0  0  0  0  0  0  0  0  0  0  0  0
    1.5298   -1.9605   -2.7852 H   0  0  0  0  0  0  0  0  0  0  0  0
   -0.0192   -2.7462   -3.1728 H   0  0  0  0  0  0  0  0  0  0  0  0
    0.2391   -1.0271   -3.5627 H   0  0  0  0  0  0  0  0  0  0  0  0
  5  6  2  0  0  0  0
  5  7  1  0  0  0  0
  2  3  1  0  0  0  0
  2  4  1  0  0  0  0
  2  5  1  0  0  0  0
  1  2  1  0  0  0  0
 24 25  2  0  0  0  0
 24 26  1  0  0  0  0
 20 21  1  0  0  0  0
 20 22  1  0  0  0  0
 20 23  1  0  0  0  0
 17 18  1  0  0  0  0
 17 19  1  0  0  0  0
 17 20  1  0  0  0  0
 13 14  1  0  0  0  0
 13 15  1  0  0  0  0
 13 16  1  0  0  0  0
 11 12  1  0  0  0  0
 11 13  1  0  0  0  0
 11 17  1  0  0  0  0
  9 10  1  0  0  0  0
  9 11  1  0  0  0  0
  9 24  1  0  0  0  0
  7  8  1  0  0  0  0
  7  9  1  0  0  0  0
 28 29  1  0  0  0  0
 28 30  1  0  0  0  0
 28 31  1  0  0  0  0
 26 27  1  0  0  0  0
 26 28  1  0  0  0  0
M  END
$$$$
default_name
  -OEChem-01062215323D

 31 30  0     1  0  0  0  0  0999 V2000
   -3.0760   -3.6390    1.5496 H   0  0  0  0  0  0  0  0  0  0  0  0
   -3.0940   -2.6290    1.1426 C   0  0  0  0  0  0  0  0  0  0  0  0
   -3.7160   -1.9930    1.7706 H   0  0  0  0  0  0  0  0  0  0  0  0
   -3.4880   -2.6500    0.1286 H   0  0  0  0  0  0  0  0  0  0  0  0
   -1.6860   -2.0850    1.1196 C   0  0  0  0  0  0  0  0  0  0  0  0
   -0.7540   -2.7700    1.5226 O   0  0  0  0  0  0  0  0  0  0  0  0
   -1.5320   -0.8490    0.6496 N   0  0  0  0  0  0  0  0  0  0  0  0
   -2.3500   -0.3360    0.3566 H   0  0  0  0  0  0  0  0  0  0  0  0
   -0.2470   -0.1410    0.5576 C   0  0  1  0  0  0  0  0  0  0  0  0
   -0.4558    0.9280    0.6116 H   0  0  0  0  0  0  0  0  0  0  0  0
    0.6574   -0.5099    1.7611 C   0  0  1  0  0  0  0  0  0  0  0  0
    0.7274   -1.5990    1.7887 H   0  0  0  0  0  0  0  0  0  0  0  0
    2.0861    0.0481    1.6163 C   0  0  0  0  0  0  0  0  0  0  0  0
    2.0785    1.1387    1.6595 H   0  0  0  0  0  0  0  0  0  0  0  0
    2.7241   -0.3349    2.4112 H   0  0  0  0  0  0  0  0  0  0  0  0
    2.5173   -0.2632    0.6642 H   0  0  0  0  0  0  0  0  0  0  0  0
    0.0197   -0.0557    3.0932 C   0  0  0  0  0  0  0  0  0  0  0  0
    0.0223    1.0334    3.1547 H   0  0  0  0  0  0  0  0  0  0  0  0
   -1.0150   -0.3974    3.1211 H   0  0  0  0  0  0  0  0  0  0  0  0
    0.7212   -0.6182    4.3369 C   0  0  0  0  0  0  0  0  0  0  0  0
    1.7328   -0.2209    4.4177 H   0  0  0  0  0  0  0  0  0  0  0  0
    0.1626   -0.3277    5.2269 H   0  0  0  0  0  0  0  0  0  0  0  0
    0.7603   -1.7067    4.2828 H   0  0  0  0  0  0  0  0  0  0  0  0
    0.4139   -0.4144   -0.8030 C   0  0  0  0  0  0  0  0  0  0  0  0
    1.5062    0.0823   -1.0737 O   0  0  0  0  0  0  0  0  0  0  0  0
   -0.2406   -1.2120   -1.6565 N   0  0  0  0  0  0  0  0  0  0  0  0
   -1.1261   -1.5918   -1.3609 H   0  0  0  0  0  0  0  0  0  0  0  0
    0.2495   -1.5641   -2.9877 C   0  0  0  0  0  0  0  0  0  0  0  0
    1.2656   -1.9581   -2.9140 H   0  0  0  0  0  0  0  0  0  0  0  0
   -0.3955   -2.3179   -3.4416 H   0  0  0  0  0  0  0  0  0  0  0  0
    0.2680   -0.6741   -3.6196 H   0  0  0  0  0  0  0  0  0  0  0  0
  5  6  2  0  0  0  0
  5  7  1  0  0  0  0
  2  3  1  0  0  0  0
  2  4  1  0  0  0  0
  2  5  1  0  0  0  0
  1  2  1  0  0  0  0
 24 25  2  0  0  0  0
 24 26  1  0  0  0  0
 20 21  1  0  0  0  0
 20 22  1  0  0  0  0
 20 23  1  0  0  0  0
 17 18  1  0  0  0  0
 17 19  1  0  0  0  0
 17 20  1  0  0  0  0
 13 14  1  0  0  0  0
 13 15  1  0  0  0  0
 13 16  1  0  0  0  0
 11 12  1  0  0  0  0
 11 13  1  0  0  0  0
 11 17  1  0  0  0  0
  9 10  1  0  0  0  0
  9 11  1  0  0  0  0
  9 24  1  0  0  0  0
  7  8  1  0  0  0  0
  7  9  1  0  0  0  0
 28 29  1  0  0  0  0
 28 30  1  0  0  0  0
 28 31  1  0  0  0  0
 26 27  1  0  0  0  0
 26 28  1  0  0  0  0
M  END
$$$$
default_name
  -OEChem-01062215323D

 31 30  0     1  0  0  0  0  0999 V2000
   -3.0760   -3.6390    1.5496 H   0  0  0  0  0  0  0  0  0  0  0  0
   -3.0940   -2.6290    1.1426 C   0  0  0  0  0  0  0  0  0  0  0  0
   -3.7160   -1.9930    1.7706 H   0  0  0  0  0  0  0  0  0  0  0  0
   -3.4880   -2.6500    0.1286 H   0  0  0  0  0  0  0  0  0  0  0  0
   -1.6860   -2.0850    1.1196 C   0  0  0  0  0  0  0  0  0  0  0  0
   -0.7540   -2.7700    1.5226 O   0  0  0  0  0  0  0  0  0  0  0  0
   -1.5320   -0.8490    0.6496 N   0  0  0  0  0  0  0  0  0  0  0  0
   -2.3500   -0.3360    0.3566 H   0  0  0  0  0  0  0  0  0  0  0  0
   -0.2470   -0.1410    0.5576 C   0  0  1  0  0  0  0  0  0  0  0  0
   -0.4558    0.9280    0.6116 H   0  0  0  0  0  0  0  0  0  0  0  0
    0.6574   -0.5099    1.7611 C   0  0  1  0  0  0  0  0  0  0  0  0
    0.7274   -1.5990    1.7887 H   0  0  0  0  0  0  0  0  0  0  0  0
    2.0861    0.0481    1.6163 C   0  0  0  0  0  0  0  0  0  0  0  0
    2.0785    1.1387    1.6595 H   0  0  0  0  0  0  0  0  0  0  0  0
    2.7241   -0.3349    2.4112 H   0  0  0  0  0  0  0  0  0  0  0  0
    2.5173   -0.2632    0.6642 H   0  0  0  0  0  0  0  0  0  0  0  0
    0.0197   -0.0557    3.0932 C   0  0  0  0  0  0  0  0  0  0  0  0
    0.0223    1.0334    3.1547 H   0  0  0  0  0  0  0  0  0  0  0  0
   -1.0150   -0.3974    3.1211 H   0  0  0  0  0  0  0  0  0  0  0  0
    0.7212   -0.6182    4.3369 C   0  0  0  0  0  0  0  0  0  0  0  0
    1.7328   -0.2209    4.4177 H   0  0  0  0  0  0  0  0  0  0  0  0
    0.1626   -0.3277    5.2269 H   0  0  0  0  0  0  0  0  0  0  0  0
    0.7603   -1.7067    4.2828 H   0  0  0  0  0  0  0  0  0  0  0  0
    0.4139   -0.4144   -0.8030 C   0  0  0  0  0  0  0  0  0  0  0  0
    1.6044   -0.1585   -0.9776 O   0  0  0  0  0  0  0  0  0  0  0  0
   -0.3527   -0.9437   -1.7649 N   0  0  0  0  0  0  0  0  0  0  0  0
   -1.3170   -1.1370   -1.5450 H   0  0  0  0  0  0  0  0  0  0  0  0
    0.1226   -1.2567   -3.1111 C   0  0  0  0  0  0  0  0  0  0  0  0
    1.0168   -1.8809   -3.0504 H   0  0  0  0  0  0  0  0  0  0  0  0
   -0.6484   -1.7881   -3.6710 H   0  0  0  0  0  0  0  0  0  0  0  0
    0.3794   -0.3334   -3.6339 H   0  0  0  0  0  0  0  0  0  0  0  0
  5  6  2  0  0  0  0
  5  7  1  0  0  0  0
  2  3  1  0  0  0  0
  2  4  1  0  0  0  0
  2  5  1  0  0  0  0
  1  2  1  0  0  0  0
 24 25  2  0  0  0  0
 24 26  1  0  0  0  0
 20 21  1  0  0  0  0
 20 22  1  0  0  0  0
 20 23  1  0  0  0  0
 17 18  1  0  0  0  0
 17 19  1  0  0  0  0
 17 20  1  0  0  0  0
 13 14  1  0  0  0  0
 13 15  1  0  0  0  0
 13 16  1  0  0  0  0
 11 12  1  0  0  0  0
 11 13  1  0  0  0  0
 11 17  1  0  0  0  0
  9 10  1  0  0  0  0
  9 11  1  0  0  0  0
  9 24  1  0  0  0  0
  7  8  1  0  0  0  0
  7  9  1  0  0  0  0
 28 29  1  0  0  0  0
 28 30  1  0  0  0  0
 28 31  1  0  0  0  0
 26 27  1  0  0  0  0
 26 28  1  0  0  0  0
M  END
$$$$
default_name
  -OEChem-01062215323D

 31 30  0     1  0  0  0  0  0999 V2000
   -3.0760   -3.6390    1.5496 H   0  0  0  0  0  0  0  0  0  0  0  0
   -3.0940   -2.6290    1.1426 C   0  0  0  0  0  0  0  0  0  0  0  0
   -3.7160   -1.9930    1.7706 H   0  0  0  0  0  0  0  0  0  0  0  0
   -3.4880   -2.6500    0.1286 H   0  0  0  0  0  0  0  0  0  0  0  0
   -1.6860   -2.0850    1.1196 C   0  0  0  0  0  0  0  0  0  0  0  0
   -0.7540   -2.7700    1.5226 O   0  0  0  0  0  0  0  0  0  0  0  0
   -1.5320   -0.8490    0.6496 N   0  0  0  0  0  0  0  0  0  0  0  0
   -2.3500   -0.3360    0.3566 H   0  0  0  0  0  0  0  0  0  0  0  0
   -0.2470   -0.1410    0.5576 C   0  0  1  0  0  0  0  0  0  0  0  0
   -0.4558    0.9280    0.6116 H   0  0  0  0  0  0  0  0  0  0  0  0
    0.6574   -0.5099    1.7611 C   0  0  1  0  0  0  0  0  0  0  0  0
    0.7274   -1.5990    1.7887 H   0  0  0  0  0  0  0  0  0  0  0  0
    2.0861    0.0481    1.6163 C   0  0  0  0  0  0  0  0  0  0  0  0
    2.0785    1.1387    1.6595 H   0  0  0  0  0  0  0  0  0  0  0  0
    2.7241   -0.3349    2.4112 H   0  0  0  0  0  0  0  0  0  0  0  0
    2.5173   -0.2632    0.6642 H   0  0  0  0  0  0  0  0  0  0  0  0
    0.0197   -0.0557    3.0932 C   0  0  0  0  0  0  0  0  0  0  0  0
    0.0223    1.0334    3.1547 H   0  0  0  0  0  0  0  0  0  0  0  0
   -1.0150   -0.3974    3.1211 H   0  0  0  0  0  0  0  0  0  0  0  0
    0.7212   -0.6182    4.3369 C   0  0  0  0  0  0  0  0  0  0  0  0
    1.7328   -0.2209    4.4177 H   0  0  0  0  0  0  0  0  0  0  0  0
    0.1626   -0.3277    5.2269 H   0  0  0  0  0  0  0  0  0  0  0  0
    0.7603   -1.7067    4.2828 H   0  0  0  0  0  0  0  0  0  0  0  0
    0.4139   -0.4144   -0.8030 C   0  0  0  0  0  0  0  0  0  0  0  0
    1.6396   -0.4243   -0.9071 O   0  0  0  0  0  0  0  0  0  0  0  0
   -0.3946   -0.6467   -1.8449 N   0  0  0  0  0  0  0  0  0  0  0  0
   -1.3889   -0.6335   -1.6811 H   0  0  0  0  0  0  0  0  0  0  0  0
    0.0761   -0.9170   -3.2020 C   0  0  0  0  0  0  0  0  0  0  0  0
    0.8005   -1.7342   -3.1849 H   0  0  0  0  0  0  0  0  0  0  0  0
   -0.7609   -1.1929   -3.8452 H   0  0  0  0  0  0  0  0  0  0  0  0
    0.5657   -0.0282   -3.6047 H   0  0  0  0  0  0  0  0  0  0  0  0
  5  6  2  0  0  0  0
  5  7  1  0  0  0  0
  2  3  1  0  0  0  0
  2  4  1  0  0  0  0
  2  5  1  0  0  0  0
  1  2  1  0  0  0  0
 24 25  2  0  0  0  0
 24 26  1  0  0  0  0
 20 21  1  0  0  0  0
 20 22  1  0  0  0  0
 20 23  1  0  0  0  0
 17 18  1  0  0  0  0
 17 19  1  0  0  0  0
 17 20  1  0  0  0  0
 13 14  1  0  0  0  0
 13 15  1  0  0  0  0
 13 16  1  0  0  0  0
 11 12  1  0  0  0  0
 11 13  1  0  0  0  0
 11 17  1  0  0  0  0
  9 10  1  0  0  0  0
  9 11  1  0  0  0  0
  9 24  1  0  0  0  0
  7  8  1  0  0  0  0
  7  9  1  0  0  0  0
 28 29  1  0  0  0  0
 28 30  1  0  0  0  0
 28 31  1  0  0  0  0
 26 27  1  0  0  0  0
 26 28  1  0  0  0  0
M  END
$$$$
default_name
  -OEChem-01062215323D

 31 30  0     1  0  0  0  0  0999 V2000
   -3.0760   -3.6390    1.5496 H   0  0  0  0  0  0  0  0  0  0  0  0
   -3.0940   -2.6290    1.1426 C   0  0  0  0  0  0  0  0  0  0  0  0
   -3.7160   -1.9930    1.7706 H   0  0  0  0  0  0  0  0  0  0  0  0
   -3.4880   -2.6500    0.1286 H   0  0  0  0  0  0  0  0  0  0  0  0
   -1.6860   -2.0850    1.1196 C   0  0  0  0  0  0  0  0  0  0  0  0
   -0.7540   -2.7700    1.5226 O   0  0  0  0  0  0  0  0  0  0  0  0
   -1.5320   -0.8490    0.6496 N   0  0  0  0  0  0  0  0  0  0  0  0
   -2.3500   -0.3360    0.3566 H   0  0  0  0  0  0  0  0  0  0  0  0
   -0.2470   -0.1410    0.5576 C   0  0  1  0  0  0  0  0  0  0  0  0
   -0.4558    0.9280    0.6116 H   0  0  0  0  0  0  0  0  0  0  0  0
    0.6574   -0.5099    1.7611 C   0  0  1  0  0  0  0  0  0  0  0  0
    0.7274   -1.5990    1.7887 H   0  0  0  0  0  0  0  0  0  0  0  0
    2.0861    0.0481    1.6163 C   0  0  0  0  0  0  0  0  0  0  0  0
    2.0785    1.1387    1.6595 H   0  0  0  0  0  0  0  0  0  0  0  0
    2.7241   -0.3349    2.4112 H   0  0  0  0  0  0  0  0  0  0  0  0
    2.5173   -0.2632    0.6642 H   0  0  0  0  0  0  0  0  0  0  0  0
    0.0197   -0.0557    3.0932 C   0  0  0  0  0  0  0  0  0  0  0  0
    0.0223    1.0334    3.1547 H   0  0  0  0  0  0  0  0  0  0  0  0
   -1.0150   -0.3974    3.1211 H   0  0  0  0  0  0  0  0  0  0  0  0
    0.7212   -0.6182    4.3369 C   0  0  0  0  0  0  0  0  0  0  0  0
    1.7328   -0.2209    4.4177 H   0  0  0  0  0  0  0  0  0  0  0  0
    0.1626   -0.3277    5.2269 H   0  0  0  0  0  0  0  0  0  0  0  0
    0.7603   -1.7067    4.2828 H   0  0  0  0  0  0  0  0  0  0  0  0
    0.4139   -0.4144   -0.8030 C   0  0  0  0  0  0  0  0  0  0  0  0
    1.6094   -0.6969   -0.8670 O   0  0  0  0  0  0  0  0  0  0  0  0
   -0.3633   -0.3414   -1.8910 N   0  0  0  0  0  0  0  0  0  0  0  0
   -1.3366   -0.1156   -1.7598 H   0  0  0  0  0  0  0  0  0  0  0  0
    0.1131   -0.5680   -3.2541 C   0  0  0  0  0  0  0  0  0  0  0  0
    0.6314   -1.5279   -3.3085 H   0  0  0  0  0  0  0  0  0  0  0  0
   -0.7251   -0.5728   -3.9524 H   0  0  0  0  0  0  0  0  0  0  0  0
    0.8143    0.2206   -3.5340 H   0  0  0  0  0  0  0  0  0  0  0  0
  5  6  2  0  0  0  0
  5  7  1  0  0  0  0
  2  3  1  0  0  0  0
  2  4  1  0  0  0  0
  2  5  1  0  0  0  0
  1  2  1  0  0  0  0
 24 25  2  0  0  0  0
 24 26  1  0  0  0  0
 20 21  1  0  0  0  0
 20 22  1  0  0  0  0
 20 23  1  0  0  0  0
 17 18  1  0  0  0  0
 17 19  1  0  0  0  0
 17 20  1  0  0  0  0
 13 14  1  0  0  0  0
 13 15  1  0  0  0  0
 13 16  1  0  0  0  0
 11 12  1  0  0  0  0
 11 13  1  0  0  0  0
 11 17  1  0  0  0  0
  9 10  1  0  0  0  0
  9 11  1  0  0  0  0
  9 24  1  0  0  0  0
  7  8  1  0  0  0  0
  7  9  1  0  0  0  0
 28 29  1  0  0  0  0
 28 30  1  0  0  0  0
 28 31  1  0  0  0  0
 26 27  1  0  0  0  0
 26 28  1  0  0  0  0
M  END
$$$$
default_name
  -OEChem-01062215323D

 31 30  0     1  0  0  0  0  0999 V2000
   -3.0760   -3.6390    1.5496 H   0  0  0  0  0  0  0  0  0  0  0  0
   -3.0940   -2.6290    1.1426 C   0  0  0  0  0  0  0  0  0  0  0  0
   -3.7160   -1.9930    1.7706 H   0  0  0  0  0  0  0  0  0  0  0  0
   -3.4880   -2.6500    0.1286 H   0  0  0  0  0  0  0  0  0  0  0  0
   -1.6860   -2.0850    1.1196 C   0  0  0  0  0  0  0  0  0  0  0  0
   -0.7540   -2.7700    1.5226 O   0  0  0  0  0  0  0  0  0  0  0  0
   -1.5320   -0.8490    0.6496 N   0  0  0  0  0  0  0  0  0  0  0  0
   -2.3500   -0.3360    0.3566 H   0  0  0  0  0  0  0  0  0  0  0  0
   -0.2470   -0.1410    0.5576 C   0  0  1  0  0  0  0  0  0  0  0  0
   -0.4558    0.9280    0.6116 H   0  0  0  0  0  0  0  0  0  0  0  0
    0.6574   -0.5099    1.7611 C   0  0  1  0  0  0  0  0  0  0  0  0
    0.7274   -1.5990    1.7887 H   0  0  0  0  0  0  0  0  0  0  0  0
    2.0861    0.0481    1.6163 C   0  0  0  0  0  0  0  0  0  0  0  0
    2.0785    1.1387    1.6595 H   0  0  0  0  0  0  0  0  0  0  0  0
    2.7241   -0.3349    2.4112 H   0  0  0  0  0  0  0  0  0  0  0  0
    2.5173   -0.2632    0.6642 H   0  0  0  0  0  0  0  0  0  0  0  0
    0.0197   -0.0557    3.0932 C   0  0  0  0  0  0  0  0  0  0  0  0
    0.0223    1.0334    3.1547 H   0  0  0  0  0  0  0  0  0  0  0  0
   -1.0150   -0.3974    3.1211 H   0  0  0  0  0  0  0  0  0  0  0  0
    0.7212   -0.6182    4.3369 C   0  0  0  0  0  0  0  0  0  0  0  0
    1.7328   -0.2209    4.4177 H   0  0  0  0  0  0  0  0  0  0  0  0
    0.1626   -0.3277    5.2269 H   0  0  0  0  0  0  0  0  0  0  0  0
    0.7603   -1.7067    4.2828 H   0  0  0  0  0  0  0  0  0  0  0  0
    0.4139   -0.4144   -0.8030 C   0  0  0  0  0  0  0  0  0  0  0  0
    1.5160   -0.9578   -0.8599 O   0  0  0  0  0  0  0  0  0  0  0  0
   -0.2609   -0.0485   -1.9002 N   0  0  0  0  0  0  0  0  0  0  0  0
   -1.1639    0.3815   -1.7758 H   0  0  0  0  0  0  0  0  0  0  0  0
    0.2313   -0.2337   -3.2639 C   0  0  0  0  0  0  0  0  0  0  0  0
    0.5210   -1.2762   -3.4127 H   0  0  0  0  0  0  0  0  0  0  0  0
   -0.5435    0.0299   -3.9853 H   0  0  0  0  0  0  0  0  0  0  0  0
    1.1081    0.3961   -3.4265 H   0  0  0  0  0  0  0  0  0  0  0  0
  5  6  2  0  0  0  0
  5  7  1  0  0  0  0
  2  3  1  0  0  0  0
  2  4  1  0  0  0  0
  2  5  1  0  0  0  0
  1  2  1  0  0  0  0
 24 25  2  0  0  0  0
 24 26  1  0  0  0  0
 20 21  1  0  0  0  0
 20 22  1  0  0  0  0
 20 23  1  0  0  0  0
 17 18  1  0  0  0  0
 17 19  1  0  0  0  0
 17 20  1  0  0  0  0
 13 14  1  0  0  0  0
 13 15  1  0  0  0  0
 13 16  1  0  0  0  0
 11 12  1  0  0  0  0
 11 13  1  0  0  0  0
 11 17  1  0  0  0  0
  9 10  1  0  0  0  0
  9 11  1  0  0  0  0
  9 24  1  0  0  0  0
  7  8  1  0  0  0  0
  7  9  1  0  0  0  0
 28 29  1  0  0  0  0
 28 30  1  0  0  0  0
 28 31  1  0  0  0  0
 26 27  1  0  0  0  0
 26 28  1  0  0  0  0
M  END
$$$$
default_name
  -OEChem-01062215323D

 31 30  0     1  0  0  0  0  0999 V2000
   -3.0760   -3.6390    1.5496 H   0  0  0  0  0  0  0  0  0  0  0  0
   -3.0940   -2.6290    1.1426 C   0  0  0  0  0  0  0  0  0  0  0  0
   -3.7160   -1.9930    1.7706 H   0  0  0  0  0  0  0  0  0  0  0  0
   -3.4880   -2.6500    0.1286 H   0  0  0  0  0  0  0  0  0  0  0  0
   -1.6860   -2.0850    1.1196 C   0  0  0  0  0  0  0  0  0  0  0  0
   -0.7540   -2.7700    1.5226 O   0  0  0  0  0  0  0  0  0  0  0  0
   -1.5320   -0.8490    0.6496 N   0  0  0  0  0  0  0  0  0  0  0  0
   -2.3500   -0.3360    0.3566 H   0  0  0  0  0  0  0  0  0  0  0  0
   -0.2470   -0.1410    0.5576 C   0  0  1  0  0  0  0  0  0  0  0  0
   -0.4558    0.9280    0.6116 H   0  0  0  0  0  0  0  0  0  0  0  0
    0.6574   -0.5099    1.7611 C   0  0  1  0  0  0  0  0  0  0  0  0
    0.7274   -1.5990    1.7887 H   0  0  0  0  0  0  0  0  0  0  0  0
    2.0861    0.0481    1.6163 C   0  0  0  0  0  0  0  0  0  0  0  0
    2.0785    1.1387    1.6595 H   0  0  0  0  0  0  0  0  0  0  0  0
    2.7241   -0.3349    2.4112 H   0  0  0  0  0  0  0  0  0  0  0  0
    2.5173   -0.2632    0.6642 H   0  0  0  0  0  0  0  0  0  0  0  0
    0.0197   -0.0557    3.0932 C   0  0  0  0  0  0  0  0  0  0  0  0
    0.0223    1.0334    3.1547 H   0  0  0  0  0  0  0  0  0  0  0  0
   -1.0150   -0.3974    3.1211 H   0  0  0  0  0  0  0  0  0  0  0  0
    0.7212   -0.6182    4.3369 C   0  0  0  0  0  0  0  0  0  0  0  0
    1.7328   -0.2209    4.4177 H   0  0  0  0  0  0  0  0  0  0  0  0
    0.1626   -0.3277    5.2269 H   0  0  0  0  0  0  0  0  0  0  0  0
    0.7603   -1.7067    4.2828 H   0  0  0  0  0  0  0  0  0  0  0  0
    0.4139   -0.4144   -0.8030 C   0  0  0  0  0  0  0  0  0  0  0  0
    1.3656   -1.1892   -0.8865 O   0  0  0  0  0  0  0  0  0  0  0  0
   -0.0946    0.2120   -1.8717 N   0  0  0  0  0  0  0  0  0  0  0  0
   -0.8824    0.8238   -1.7279 H   0  0  0  0  0  0  0  0  0  0  0  0
    0.4225    0.0633   -3.2307 C   0  0  0  0  0  0  0  0  0  0  0  0
    0.4768   -0.9962   -3.4905 H   0  0  0  0  0  0  0  0  0  0  0  0
   -0.2285    0.5741   -3.9417 H   0  0  0  0  0  0  0  0  0  0  0  0
    1.4272    0.4864   -3.2897 H   0  0  0  0  0  0  0  0  0  0  0  0
  5  6  2  0  0  0  0
  5  7  1  0  0  0  0
  2  3  1  0  0  0  0
  2  4  1  0  0  0  0
  2  5  1  0  0  0  0
  1  2  1  0  0  0  0
 24 25  2  0  0  0  0
 24 26  1  0  0  0  0
 20 21  1  0  0  0  0
 20 22  1  0  0  0  0
 20 23  1  0  0  0  0
 17 18  1  0  0  0  0
 17 19  1  0  0  0  0
 17 20  1  0  0  0  0
 13 14  1  0  0  0  0
 13 15  1  0  0  0  0
 13 16  1  0  0  0  0
 11 12  1  0  0  0  0
 11 13  1  0  0  0  0
 11 17  1  0  0  0  0
  9 10  1  0  0  0  0
  9 11  1  0  0  0  0
  9 24  1  0  0  0  0
  7  8  1  0  0  0  0
  7  9  1  0  0  0  0
 28 29  1  0  0  0  0
 28 30  1  0  0  0  0
 28 31  1  0  0  0  0
 26 27  1  0  0  0  0
 26 28  1  0  0  0  0
M  END
$$$$
default_name
  -OEChem-01062215323D

 31 30  0     1  0  0  0  0  0999 V2000
   -3.0760   -3.6390    1.5496 H   0  0  0  0  0  0  0  0  0  0  0  0
   -3.0940   -2.6290    1.1426 C   0  0  0  0  0  0  0  0  0  0  0  0
   -3.7160   -1.9930    1.7706 H   0  0  0  0  0  0  0  0  0  0  0  0
   -3.4880   -2.6500    0.1286 H   0  0  0  0  0  0  0  0  0  0  0  0
   -1.6860   -2.0850    1.1196 C   0  0  0  0  0  0  0  0  0  0  0  0
   -0.7540   -2.7700    1.5226 O   0  0  0  0  0  0  0  0  0  0  0  0
   -1.5320   -0.8490    0.6496 N   0  0  0  0  0  0  0  0  0  0  0  0
   -2.3500   -0.3360    0.3566 H   0  0  0  0  0  0  0  0  0  0  0  0
   -0.2470   -0.1410    0.5576 C   0  0  1  0  0  0  0  0  0  0  0  0
   -0.4558    0.9280    0.6116 H   0  0  0  0  0  0  0  0  0  0  0  0
    0.6574   -0.5099    1.7611 C   0  0  1  0  0  0  0  0  0  0  0  0
    0.7274   -1.5990    1.7887 H   0  0  0  0  0  0  0  0  0  0  0  0
    2.0861    0.0481    1.6163 C   0  0  0  0  0  0  0  0  0  0  0  0
    2.0785    1.1387    1.6595 H   0  0  0  0  0  0  0  0  0  0  0  0
    2.7241   -0.3349    2.4112 H   0  0  0  0  0  0  0  0  0  0  0  0
    2.5173   -0.2632    0.6642 H   0  0  0  0  0  0  0  0  0  0  0  0
    0.0197   -0.0557    3.0932 C   0  0  0  0  0  0  0  0  0  0  0  0
    0.0223    1.0334    3.1547 H   0  0  0  0  0  0  0  0  0  0  0  0
   -1.0150   -0.3974    3.1211 H   0  0  0  0  0  0  0  0  0  0  0  0
    0.7212   -0.6182    4.3369 C   0  0  0  0  0  0  0  0  0  0  0  0
    1.7328   -0.2209    4.4177 H   0  0  0  0  0  0  0  0  0  0  0  0
    0.1626   -0.3277    5.2269 H   0  0  0  0  0  0  0  0  0  0  0  0
    0.7603   -1.7067    4.2828 H   0  0  0  0  0  0  0  0  0  0  0  0
    0.4139   -0.4144   -0.8030 C   0  0  0  0  0  0  0  0  0  0  0  0
    1.1686   -1.3753   -0.9448 O   0  0  0  0  0  0  0  0  0  0  0  0
    0.1244    0.4224   -1.8076 N   0  0  0  0  0  0  0  0  0  0  0  0
   -0.5114    1.1813   -1.6195 H   0  0  0  0  0  0  0  0  0  0  0  0
    0.6737    0.3027   -3.1568 C   0  0  0  0  0  0  0  0  0  0  0  0
    0.5018   -0.7069   -3.5364 H   0  0  0  0  0  0  0  0  0  0  0  0
    0.1984    1.0228   -3.8244 H   0  0  0  0  0  0  0  0  0  0  0  0
    1.7497    0.4853   -3.1328 H   0  0  0  0  0  0  0  0  0  0  0  0
  5  6  2  0  0  0  0
  5  7  1  0  0  0  0
  2  3  1  0  0  0  0
  2  4  1  0  0  0  0
  2  5  1  0  0  0  0
  1  2  1  0  0  0  0
 24 25  2  0  0  0  0
 24 26  1  0  0  0  0
 20 21  1  0  0  0  0
 20 22  1  0  0  0  0
 20 23  1  0  0  0  0
 17 18  1  0  0  0  0
 17 19  1  0  0  0  0
 17 20  1  0  0  0  0
 13 14  1  0  0  0  0
 13 15  1  0  0  0  0
 13 16  1  0  0  0  0
 11 12  1  0  0  0  0
 11 13  1  0  0  0  0
 11 17  1  0  0  0  0
  9 10  1  0  0  0  0
  9 11  1  0  0  0  0
  9 24  1  0  0  0  0
  7  8  1  0  0  0  0
  7  9  1  0  0  0  0
 28 29  1  0  0  0  0
 28 30  1  0  0  0  0
 28 31  1  0  0  0  0
 26 27  1  0  0  0  0
 26 28  1  0  0  0  0
M  END
$$$$
default_name
  -OEChem-01062215323D

 31 30  0     1  0  0  0  0  0999 V2000
   -3.0760   -3.6390    1.5496 H   0  0  0  0  0  0  0  0  0  0  0  0
   -3.0940   -2.6290    1.1426 C   0  0  0  0  0  0  0  0  0  0  0  0
   -3.7160   -1.9930    1.7706 H   0  0  0  0  0  0  0  0  0  0  0  0
   -3.4880   -2.6500    0.1286 H   0  0  0  0  0  0  0  0  0  0  0  0
   -1.6860   -2.0850    1.1196 C   0  0  0  0  0  0  0  0  0  0  0  0
   -0.7540   -2.7700    1.5226 O   0  0  0  0  0  0  0  0  0  0  0  0
   -1.5320   -0.8490    0.6496 N   0  0  0  0  0  0  0  0  0  0  0  0
   -2.3500   -0.3360    0.3566 H   0  0  0  0  0  0  0  0  0  0  0  0
   -0.2470   -0.1410    0.5576 C   0  0  1  0  0  0  0  0  0  0  0  0
   -0.4558    0.9280    0.6116 H   0  0  0  0  0  0  0  0  0  0  0  0
    0.6574   -0.5099    1.7611 C   0  0  1  0  0  0  0  0  0  0  0  0
    0.7274   -1.5990    1.7887 H   0  0  0  0  0  0  0  0  0  0  0  0
    2.0861    0.0481    1.6163 C   0  0  0  0  0  0  0  0  0  0  0  0
    2.0785    1.1387    1.6595 H   0  0  0  0  0  0  0  0  0  0  0  0
    2.7241   -0.3349    2.4112 H   0  0  0  0  0  0  0  0  0  0  0  0
    2.5173   -0.2632    0.6642 H   0  0  0  0  0  0  0  0  0  0  0  0
    0.0197   -0.0557    3.0932 C   0  0  0  0  0  0  0  0  0  0  0  0
    0.0223    1.0334    3.1547 H   0  0  0  0  0  0  0  0  0  0  0  0
   -1.0150   -0.3974    3.1211 H   0  0  0  0  0  0  0  0  0  0  0  0
    0.7212   -0.6182    4.3369 C   0  0  0  0  0  0  0  0  0  0  0  0
    1.7328   -0.2209    4.4177 H   0  0  0  0  0  0  0  0  0  0  0  0
    0.1626   -0.3277    5.2269 H   0  0  0  0  0  0  0  0  0  0  0  0
    0.7603   -1.7067    4.2828 H   0  0  0  0  0  0  0  0  0  0  0  0
    0.4139   -0.4144   -0.8030 C   0  0  0  0  0  0  0  0  0  0  0  0
    0.9384   -1.5035   -1.0309 O   0  0  0  0  0  0  0  0  0  0  0  0
    0.3813    0.5682   -1.7122 N   0  0  0  0  0  0  0  0  0  0  0  0
   -0.0761    1.4295   -1.4580 H   0  0  0  0  0  0  0  0  0  0  0  0
    0.9678    0.4681   -3.0472 C   0  0  0  0  0  0  0  0  0  0  0  0
    0.5944   -0.4281   -3.5475 H   0  0  0  0  0  0  0  0  0  0  0  0
    0.7081    1.3453   -3.6416 H   0  0  0  0  0  0  0  0  0  0  0  0
    2.0539    0.3928   -2.9665 H   0  0  0  0  0  0  0  0  0  0  0  0
  5  6  2  0  0  0  0
  5  7  1  0  0  0  0
  2  3  1  0  0  0  0
  2  4  1  0  0  0  0
  2  5  1  0  0  0  0
  1  2  1  0  0  0  0
 24 25  2  0  0  0  0
 24 26  1  0  0  0  0
 20 21  1  0  0  0  0
 20 22  1  0  0  0  0
 20 23  1  0  0  0  0
 17 18  1  0  0  0  0
 17 19  1  0  0  0  0
 17 20  1  0  0  0  0
 13 14  1  0  0  0  0
 13 15  1  0  0  0  0
 13 16  1  0  0  0  0
 11 12  1  0  0  0  0
 11 13  1  0  0  0  0
 11 17  1  0  0  0  0
  9 10  1  0  0  0  0
  9 11  1  0  0  0  0
  9 24  1  0  0  0  0
  7  8  1  0  0  0  0
  7  9  1  0  0  0  0
 28 29  1  0  0  0  0
 28 30  1  0  0  0  0
 28 31  1  0  0  0  0
 26 27  1  0  0  0  0
 26 28  1  0  0  0  0
M  END
$$$$
default_name
  -OEChem-01062215323D

 31 30  0     1  0  0  0  0  0999 V2000
   -3.0760   -3.6390    1.5496 H   0  0  0  0  0  0  0  0  0  0  0  0
   -3.0940   -2.6290    1.1426 C   0  0  0  0  0  0  0  0  0  0  0  0
   -3.7160   -1.9930    1.7706 H   0  0  0  0  0  0  0  0  0  0  0  0
   -3.4880   -2.6500    0.1286 H   0  0  0  0  0  0  0  0  0  0  0  0
   -1.6860   -2.0850    1.1196 C   0  0  0  0  0  0  0  0  0  0  0  0
   -0.7540   -2.7700    1.5226 O   0  0  0  0  0  0  0  0  0  0  0  0
   -1.5320   -0.8490    0.6496 N   0  0  0  0  0  0  0  0  0  0  0  0
   -2.3500   -0.3360    0.3566 H   0  0  0  0  0  0  0  0  0  0  0  0
   -0.2470   -0.1410    0.5576 C   0  0  1  0  0  0  0  0  0  0  0  0
   -0.4558    0.9280    0.6116 H   0  0  0  0  0  0  0  0  0  0  0  0
    0.6574   -0.5099    1.7611 C   0  0  1  0  0  0  0  0  0  0  0  0
    0.7274   -1.5990    1.7887 H   0  0  0  0  0  0  0  0  0  0  0  0
    2.0861    0.0481    1.6163 C   0  0  0  0  0  0  0  0  0  0  0  0
    2.0785    1.1387    1.6595 H   0  0  0  0  0  0  0  0  0  0  0  0
    2.7241   -0.3349    2.4112 H   0  0  0  0  0  0  0  0  0  0  0  0
    2.5173   -0.2632    0.6642 H   0  0  0  0  0  0  0  0  0  0  0  0
    0.0197   -0.0557    3.0932 C   0  0  0  0  0  0  0  0  0  0  0  0
    0.0223    1.0334    3.1547 H   0  0  0  0  0  0  0  0  0  0  0  0
   -1.0150   -0.3974    3.1211 H   0  0  0  0  0  0  0  0  0  0  0  0
    0.7212   -0.6182    4.3369 C   0  0  0  0  0  0  0  0  0  0  0  0
    1.7328   -0.2209    4.4177 H   0  0  0  0  0  0  0  0  0  0  0  0
    0.1626   -0.3277    5.2269 H   0  0  0  0  0  0  0  0  0  0  0  0
    0.7603   -1.7067    4.2828 H   0  0  0  0  0  0  0  0  0  0  0  0
    0.4139   -0.4144   -0.8030 C   0  0  0  0  0  0  0  0  0  0  0  0
    0.6906   -1.5650   -1.1389 O   0  0  0  0  0  0  0  0  0  0  0  0
    0.6584    0.6396   -1.5919 N   0  0  0  0  0  0  0  0  0  0  0  0
    0.3938    1.5516   -1.2543 H   0  0  0  0  0  0  0  0  0  0  0  0
    1.2847    0.5484   -2.9094 C   0  0  0  0  0  0  0  0  0  0  0  0
    0.7482   -0.1788   -3.5229 H   0  0  0  0  0  0  0  0  0  0  0  0
    1.2660    1.5197   -3.4057 H   0  0  0  0  0  0  0  0  0  0  0  0
    2.3188    0.2154   -2.8021 H   0  0  0  0  0  0  0  0  0  0  0  0
  5  6  2  0  0  0  0
  5  7  1  0  0  0  0
  2  3  1  0  0  0  0
  2  4  1  0  0  0  0
  2  5  1  0  0  0  0
  1  2  1  0  0  0  0
 24 25  2  0  0  0  0
 24 26  1  0  0  0  0
 20 21  1  0  0  0  0
 20 22  1  0  0  0  0
 20 23  1  0  0  0  0
 17 18  1  0  0  0  0
 17 19  1  0  0  0  0
 17 20  1  0  0  0  0
 13 14  1  0  0  0  0
 13 15  1  0  0  0  0
 13 16  1  0  0  0  0
 11 12  1  0  0  0  0
 11 13  1  0  0  0  0
 11 17  1  0  0  0  0
  9 10  1  0  0  0  0
  9 11  1  0  0  0  0
  9 24  1  0  0  0  0
  7  8  1  0  0  0  0
  7  9  1  0  0  0  0
 28 29  1  0  0  0  0
 28 30  1  0  0  0  0
 28 31  1  0  0  0  0
 26 27  1  0  0  0  0
 26 28  1  0  0  0  0
M  END
$$$$
default_name
  -OEChem-01062215323D

 31 30  0     1  0  0  0  0  0999 V2000
   -3.0760   -3.6390    1.5496 H   0  0  0  0  0  0  0  0  0  0  0  0
   -3.0940   -2.6290    1.1426 C   0  0  0  0  0  0  0  0  0  0  0  0
   -3.7160   -1.9930    1.7706 H   0  0  0  0  0  0  0  0  0  0  0  0
   -3.4880   -2.6500    0.1286 H   0  0  0  0  0  0  0  0  0  0  0  0
   -1.6860   -2.0850    1.1196 C   0  0  0  0  0  0  0  0  0  0  0  0
   -0.7540   -2.7700    1.5226 O   0  0  0  0  0  0  0  0  0  0  0  0
   -1.5320   -0.8490    0.6496 N   0  0  0  0  0  0  0  0  0  0  0  0
   -2.3500   -0.3360    0.3566 H   0  0  0  0  0  0  0  0  0  0  0  0
   -0.2470   -0.1410    0.5576 C   0  0  1  0  0  0  0  0  0  0  0  0
   -0.4558    0.9280    0.6116 H   0  0  0  0  0  0  0  0  0  0  0  0
    0.6574   -0.5099    1.7611 C   0  0  1  0  0  0  0  0  0  0  0  0
    0.7274   -1.5990    1.7887 H   0  0  0  0  0  0  0  0  0  0  0  0
    2.0861    0.0481    1.6163 C   0  0  0  0  0  0  0  0  0  0  0  0
    2.0785    1.1387    1.6595 H   0  0  0  0  0  0  0  0  0  0  0  0
    2.7241   -0.3349    2.4112 H   0  0  0  0  0  0  0  0  0  0  0  0
    2.5173   -0.2632    0.6642 H   0  0  0  0  0  0  0  0  0  0  0  0
    0.0197   -0.0557    3.0932 C   0  0  0  0  0  0  0  0  0  0  0  0
    0.0223    1.0334    3.1547 H   0  0  0  0  0  0  0  0  0  0  0  0
   -1.0150   -0.3974    3.1211 H   0  0  0  0  0  0  0  0  0  0  0  0
    0.7212   -0.6182    4.3369 C   0  0  0  0  0  0  0  0  0  0  0  0
    1.7328   -0.2209    4.4177 H   0  0  0  0  0  0  0  0  0  0  0  0
    0.1626   -0.3277    5.2269 H   0  0  0  0  0  0  0  0  0  0  0  0
    0.7603   -1.7067    4.2828 H   0  0  0  0  0  0  0  0  0  0  0  0
    0.4139   -0.4144   -0.8030 C   0  0  0  0  0  0  0  0  0  0  0  0
    0.4421   -1.5555   -1.2615 O   0  0  0  0  0  0  0  0  0  0  0  0
    0.9368    0.6318   -1.4551 N   0  0  0  0  0  0  0  0  0  0  0  0
    0.8662    1.5392   -1.0223 H   0  0  0  0  0  0  0  0  0  0  0  0
    1.6028    0.5379   -2.7527 C   0  0  0  0  0  0  0  0  0  0  0  0
    0.9527    0.0240   -3.4643 H   0  0  0  0  0  0  0  0  0  0  0  0
    1.8339    1.5341   -3.1327 H   0  0  0  0  0  0  0  0  0  0  0  0
    2.5264   -0.0350   -2.6509 H   0  0  0  0  0  0  0  0  0  0  0  0
  5  6  2  0  0  0  0
  5  7  1  0  0  0  0
  2  3  1  0  0  0  0
  2  4  1  0  0  0  0
  2  5  1  0  0  0  0
  1  2  1  0  0  0  0
 24 25  2  0  0  0  0
 24 26  1  0  0  0  0
 20 21  1  0  0  0  0
 20 22  1  0  0  0  0
 20 23  1  0  0  0  0
 17 18  1  0  0  0  0
 17 19  1  0  0  0  0
 17 20  1  0  0  0  0
 13 14  1  0  0  0  0
 13 15  1  0  0  0  0
 13 16  1  0  0  0  0
 11 12  1  0  0  0  0
 11 13  1  0  0  0  0
 11 17  1  0  0  0  0
  9 10  1  0  0  0  0
  9 11  1  0  0  0  0
  9 24  1  0  0  0  0
  7  8  1  0  0  0  0
  7  9  1  0  0  0  0
 28 29  1  0  0  0  0
 28 30  1  0  0  0  0
 28 31  1  0  0  0  0
 26 27  1  0  0  0  0
 26 28  1  0  0  0  0
M  END
$$$$
default_name
  -OEChem-01062215323D

 31 30  0     1  0  0  0  0  0999 V2000
   -3.0760   -3.6390    1.5496 H   0  0  0  0  0  0  0  0  0  0  0  0
   -3.0940   -2.6290    1.1426 C   0  0  0  0  0  0  0  0  0  0  0  0
   -3.7160   -1.9930    1.7706 H   0  0  0  0  0  0  0  0  0  0  0  0
   -3.4880   -2.6500    0.1286 H   0  0  0  0  0  0  0  0  0  0  0  0
   -1.6860   -2.0850    1.1196 C   0  0  0  0  0  0  0  0  0  0  0  0
   -0.7540   -2.7700    1.5226 O   0  0  0  0  0  0  0  0  0  0  0  0
   -1.5320   -0.8490    0.6496 N   0  0  0  0  0  0  0  0  0  0  0  0
   -2.3500   -0.3360    0.3566 H   0  0  0  0  0  0  0  0  0  0  0  0
   -0.2470   -0.1410    0.5576 C   0  0  1  0  0  0  0  0  0  0  0  0
   -0.4558    0.9280    0.6116 H   0  0  0  0  0  0  0  0  0  0  0  0
    0.6574   -0.5099    1.7611 C   0  0  1  0  0  0  0  0  0  0  0  0
    0.7274   -1.5990    1.7887 H   0  0  0  0  0  0  0  0  0  0  0  0
    2.0861    0.0481    1.6163 C   0  0  0  0  0  0  0  0  0  0  0  0
    2.0785    1.1387    1.6595 H   0  0  0  0  0  0  0  0  0  0  0  0
    2.7241   -0.3349    2.4112 H   0  0  0  0  0  0  0  0  0  0  0  0
    2.5173   -0.2632    0.6642 H   0  0  0  0  0  0  0  0  0  0  0  0
    0.0197   -0.0557    3.0932 C   0  0  0  0  0  0  0  0  0  0  0  0
    0.0223    1.0334    3.1547 H   0  0  0  0  0  0  0  0  0  0  0  0
   -1.0150   -0.3974    3.1211 H   0  0  0  0  0  0  0  0  0  0  0  0
    0.7212   -0.6182    4.3369 C   0  0  0  0  0  0  0  0  0  0  0  0
    1.7328   -0.2209    4.4177 H   0  0  0  0  0  0  0  0  0  0  0  0
    0.1626   -0.3277    5.2269 H   0  0  0  0  0  0  0  0  0  0  0  0
    0.7603   -1.7067    4.2828 H   0  0  0  0  0  0  0  0  0  0  0  0
    0.4139   -0.4144   -0.8030 C   0  0  0  0  0  0  0  0  0  0  0  0
    0.2099   -1.4759   -1.3903 O   0  0  0  0  0  0  0  0  0  0  0  0
    1.1977    0.5451   -1.3109 N   0  0  0  0  0  0  0  0  0  0  0  0
    1.3090    1.3931   -0.7778 H   0  0  0  0  0  0  0  0  0  0  0  0
    1.9005    0.4375   -2.5880 C   0  0  0  0  0  0  0  0  0  0  0  0
    1.1941    0.1666   -3.3757 H   0  0  0  0  0  0  0  0  0  0  0  0
    2.3733    1.3876   -2.8413 H   0  0  0  0  0  0  0  0  0  0  0  0
    2.6627   -0.3413   -2.5232 H   0  0  0  0  0  0  0  0  0  0  0  0
  5  6  2  0  0  0  0
  5  7  1  0  0  0  0
  2  3  1  0  0  0  0
  2  4  1  0  0  0  0
  2  5  1  0  0  0  0
  1  2  1  0  0  0  0
 24 25  2  0  0  0  0
 24 26  1  0  0  0  0
 20 21  1  0  0  0  0
 20 22  1  0  0  0  0
 20 23  1  0  0  0  0
 17 18  1  0  0  0  0
 17 19  1  0  0  0  0
 17 20  1  0  0  0  0
 13 14  1  0  0  0  0
 13 15  1  0  0  0  0
 13 16  1  0  0  0  0
 11 12  1  0  0  0  0
 11 13  1  0  0  0  0
 11 17  1  0  0  0  0
  9 10  1  0  0  0  0
  9 11  1  0  0  0  0
  9 24  1  0  0  0  0
  7  8  1  0  0  0  0
  7  9  1  0  0  0  0
 28 29  1  0  0  0  0
 28 30  1  0  0  0  0
 28 31  1  0  0  0  0
 26 27  1  0  0  0  0
 26 28  1  0  0  0  0
M  END
$$$$
default_name
  -OEChem-01062215323D

 31 30  0     1  0  0  0  0  0999 V2000
   -3.0760   -3.6390    1.5496 H   0  0  0  0  0  0  0  0  0  0  0  0
   -3.0940   -2.6290    1.1426 C   0  0  0  0  0  0  0  0  0  0  0  0
   -3.7160   -1.9930    1.7706 H   0  0  0  0  0  0  0  0  0  0  0  0
   -3.4880   -2.6500    0.1286 H   0  0  0  0  0  0  0  0  0  0  0  0
   -1.6860   -2.0850    1.1196 C   0  0  0  0  0  0  0  0  0  0  0  0
   -0.7540   -2.7700    1.5226 O   0  0  0  0  0  0  0  0  0  0  0  0
   -1.5320   -0.8490    0.6496 N   0  0  0  0  0  0  0  0  0  0  0  0
   -2.3500   -0.3360    0.3566 H   0  0  0  0  0  0  0  0  0  0  0  0
   -0.2470   -0.1410    0.5576 C   0  0  1  0  0  0  0  0  0  0  0  0
   -0.4558    0.9280    0.6116 H   0  0  0  0  0  0  0  0  0  0  0  0
    0.6574   -0.5099    1.7611 C   0  0  1  0  0  0  0  0  0  0  0  0
    0.7274   -1.5990    1.7887 H   0  0  0  0  0  0  0  0  0  0  0  0
    2.0861    0.0481    1.6163 C   0  0  0  0  0  0  0  0  0  0  0  0
    2.0785    1.1387    1.6595 H   0  0  0  0  0  0  0  0  0  0  0  0
    2.7241   -0.3349    2.4112 H   0  0  0  0  0  0  0  0  0  0  0  0
    2.5173   -0.2632    0.6642 H   0  0  0  0  0  0  0  0  0  0  0  0
    0.0197   -0.0557    3.0932 C   0  0  0  0  0  0  0  0  0  0  0  0
    0.0223    1.0334    3.1547 H   0  0  0  0  0  0  0  0  0  0  0  0
   -1.0150   -0.3974    3.1211 H   0  0  0  0  0  0  0  0  0  0  0  0
    0.7212   -0.6182    4.3369 C   0  0  0  0  0  0  0  0  0  0  0  0
    1.7328   -0.2209    4.4177 H   0  0  0  0  0  0  0  0  0  0  0  0
    0.1626   -0.3277    5.2269 H   0  0  0  0  0  0  0  0  0  0  0  0
    0.7603   -1.7067    4.2828 H   0  0  0  0  0  0  0  0  0  0  0  0
    0.4139   -0.4144   -0.8030 C   0  0  0  0  0  0  0  0  0  0  0  0
    0.0098   -1.3314   -1.5165 O   0  0  0  0  0  0  0  0  0  0  0  0
    1.4232    0.3857   -1.1694 N   0  0  0  0  0  0  0  0  0  0  0  0
    1.6921    1.1234   -0.5376 H   0  0  0  0  0  0  0  0  0  0  0  0
    2.1575    0.2540   -2.4263 C   0  0  0  0  0  0  0  0  0  0  0  0
    1.4558    0.2391   -3.2631 H   0  0  0  0  0  0  0  0  0  0  0  0
    2.8472    1.0900   -2.5513 H   0  0  0  0  0  0  0  0  0  0  0  0
    2.7183   -0.6826   -2.4277 H   0  0  0  0  0  0  0  0  0  0  0  0
  5  6  2  0  0  0  0
  5  7  1  0  0  0  0
  2  3  1  0  0  0  0
  2  4  1  0  0  0  0
  2  5  1  0  0  0  0
  1  2  1  0  0  0  0
 24 25  2  0  0  0  0
 24 26  1  0  0  0  0
 20 21  1  0  0  0  0
 20 22  1  0  0  0  0
 20 23  1  0  0  0  0
 17 18  1  0  0  0  0
 17 19  1  0  0  0  0
 17 20  1  0  0  0  0
 13 14  1  0  0  0  0
 13 15  1  0  0  0  0
 13 16  1  0  0  0  0
 11 12  1  0  0  0  0
 11 13  1  0  0  0  0
 11 17  1  0  0  0  0
  9 10  1  0  0  0  0
  9 11  1  0  0  0  0
  9 24  1  0  0  0  0
  7  8  1  0  0  0  0
  7  9  1  0  0  0  0
 28 29  1  0  0  0  0
 28 30  1  0  0  0  0
 28 31  1  0  0  0  0
 26 27  1  0  0  0  0
 26 28  1  0  0  0  0
M  END
$$$$
default_name
  -OEChem-01062215323D

 31 30  0     1  0  0  0  0  0999 V2000
   -3.0760   -3.6390    1.5496 H   0  0  0  0  0  0  0  0  0  0  0  0
   -3.0940   -2.6290    1.1426 C   0  0  0  0  0  0  0  0  0  0  0  0
   -3.7160   -1.9930    1.7706 H   0  0  0  0  0  0  0  0  0  0  0  0
   -3.4880   -2.6500    0.1286 H   0  0  0  0  0  0  0  0  0  0  0  0
   -1.6860   -2.0850    1.1196 C   0  0  0  0  0  0  0  0  0  0  0  0
   -0.7540   -2.7700    1.5226 O   0  0  0  0  0  0  0  0  0  0  0  0
   -1.5320   -0.8490    0.6496 N   0  0  0  0  0  0  0  0  0  0  0  0
   -2.3500   -0.3360    0.3566 H   0  0  0  0  0  0  0  0  0  0  0  0
   -0.2470   -0.1410    0.5576 C   0  0  1  0  0  0  0  0  0  0  0  0
   -0.4149    0.8882    0.8769 H   0  0  0  0  0  0  0  0  0  0  0  0
    0.7866   -0.7755    1.5227 C   0  0  1  0  0  0  0  0  0  0  0  0
    0.8262   -1.8425    1.2953 H   0  0  0  0  0  0  0  0  0  0  0  0
    2.2031   -0.2017    1.3278 C   0  0  0  0  0  0  0  0  0  0  0  0
    2.2342    0.8505    1.6160 H   0  0  0  0  0  0  0  0  0  0  0  0
    2.9219   -0.7565    1.9287 H   0  0  0  0  0  0  0  0  0  0  0  0
    2.5044   -0.2893    0.2833 H   0  0  0  0  0  0  0  0  0  0  0  0
    0.3315   -0.6347    2.9926 C   0  0  0  0  0  0  0  0  0  0  0  0
    0.3749    0.4119    3.2970 H   0  0  0  0  0  0  0  0  0  0  0  0
   -0.7019   -0.9718    3.0735 H   0  0  0  0  0  0  0  0  0  0  0  0
    1.1629   -1.4664    3.9786 C   0  0  0  0  0  0  0  0  0  0  0  0
    2.1884   -1.0998    4.0182 H   0  0  0  0  0  0  0  0  0  0  0  0
    0.7269   -1.3847    4.9746 H   0  0  0  0  0  0  0  0  0  0  0  0
    1.1618   -2.5142    3.6763 H   0  0  0  0  0  0  0  0  0  0  0  0
    0.2331   -0.0992   -0.9020 C   0  0  0  0  0  0  0  0  0  0  0  0
   -0.4445   -0.6087   -1.7934 O   0  0  0  0  0  0  0  0  0  0  0  0
    1.3963    0.5159   -1.1504 N   0  0  0  0  0  0  0  0  0  0  0  0
    1.8909    0.9200   -0.3708 H   0  0  0  0  0  0  0  0  0  0  0  0
    1.9913    0.6360   -2.4800 C   0  0  0  0  0  0  0  0  0  0  0  0
    1.2624    1.0623   -3.1728 H   0  0  0  0  0  0  0  0  0  0  0  0
    2.8714    1.2798   -2.4444 H   0  0  0  0  0  0  0  0  0  0  0  0
    2.2789   -0.3521   -2.8444 H   0  0  0  0  0  0  0  0  0  0  0  0
  5  6  2  0  0  0  0
  5  7  1  0  0  0  0
  2  3  1  0  0  0  0
  2  4  1  0  0  0  0
  2  5  1  0  0  0  0
  1  2  1  0  0  0  0
 24 25  2  0  0  0  0
 24 26  1  0  0  0  0
 20 21  1  0  0  0  0
 20 22  1  0  0  0  0
 20 23  1  0  0  0  0
 17 18  1  0  0  0  0
 17 19  1  0  0  0  0
 17 20  1  0  0  0  0
 13 14  1  0  0  0  0
 13 15  1  0  0  0  0
 13 16  1  0  0  0  0
 11 12  1  0  0  0  0
 11 13  1  0  0  0  0
 11 17  1  0  0  0  0
  9 10  1  0  0  0  0
  9 11  1  0  0  0  0
  9 24  1  0  0  0  0
  7  8  1  0  0  0  0
  7  9  1  0  0  0  0
 28 29  1  0  0  0  0
 28 30  1  0  0  0  0
 28 31  1  0  0  0  0
 26 27  1  0  0  0  0
 26 28  1  0  0  0  0
M  END
$$$$
default_name
  -OEChem-01062215323D

 31 30  0     1  0  0  0  0  0999 V2000
   -3.0760   -3.6390    1.5496 H   0  0  0  0  0  0  0  0  0  0  0  0
   -3.0940   -2.6290    1.1426 C   0  0  0  0  0  0  0  0  0  0  0  0
   -3.7160   -1.9930    1.7706 H   0  0  0  0  0  0  0  0  0  0  0  0
   -3.4880   -2.6500    0.1286 H   0  0  0  0  0  0  0  0  0  0  0  0
   -1.6860   -2.0850    1.1196 C   0  0  0  0  0  0  0  0  0  0  0  0
   -0.7540   -2.7700    1.5226 O   0  0  0  0  0  0  0  0  0  0  0  0
   -1.5320   -0.8490    0.6496 N   0  0  0  0  0  0  0  0  0  0  0  0
   -2.3500   -0.3360    0.3566 H   0  0  0  0  0  0  0  0  0  0  0  0
   -0.2470   -0.1410    0.5576 C   0  0  1  0  0  0  0  0  0  0  0  0
   -0.4149    0.8882    0.8769 H   0  0  0  0  0  0  0  0  0  0  0  0
    0.7866   -0.7755    1.5227 C   0  0  1  0  0  0  0  0  0  0  0  0
    0.8262   -1.8425    1.2953 H   0  0  0  0  0  0  0  0  0  0  0  0
    2.2031   -0.2017    1.3278 C   0  0  0  0  0  0  0  0  0  0  0  0
    2.2342    0.8505    1.6160 H   0  0  0  0  0  0  0  0  0  0  0  0
    2.9219   -0.7565    1.9287 H   0  0  0  0  0  0  0  0  0  0  0  0
    2.5044   -0.2893    0.2833 H   0  0  0  0  0  0  0  0  0  0  0  0
    0.3315   -0.6347    2.9926 C   0  0  0  0  0  0  0  0  0  0  0  0
    0.3749    0.4119    3.2970 H   0  0  0  0  0  0  0  0  0  0  0  0
   -0.7019   -0.9718    3.0735 H   0  0  0  0  0  0  0  0  0  0  0  0
    1.1629   -1.4664    3.9786 C   0  0  0  0  0  0  0  0  0  0  0  0
    2.1884   -1.0998    4.0182 H   0  0  0  0  0  0  0  0  0  0  0  0
    0.7269   -1.3847    4.9746 H   0  0  0  0  0  0  0  0  0  0  0  0
    1.1618   -2.5142    3.6763 H   0  0  0  0  0  0  0  0  0  0  0  0
    0.2331   -0.0992   -0.9020 C   0  0  0  0  0  0  0  0  0  0  0  0
   -0.5462   -0.3521   -1.8195 O   0  0  0  0  0  0  0  0  0  0  0  0
    1.5127    0.2297   -1.1204 N   0  0  0  0  0  0  0  0  0  0  0  0
    2.0890    0.4349   -0.3195 H   0  0  0  0  0  0  0  0  0  0  0  0
    2.1230    0.3083   -2.4461 C   0  0  0  0  0  0  0  0  0  0  0  0
    1.5235    0.9557   -3.0900 H   0  0  0  0  0  0  0  0  0  0  0  0
    3.1343    0.7112   -2.3742 H   0  0  0  0  0  0  0  0  0  0  0  0
    2.1597   -0.6869   -2.8931 H   0  0  0  0  0  0  0  0  0  0  0  0
  5  6  2  0  0  0  0
  5  7  1  0  0  0  0
  2  3  1  0  0  0  0
  2  4  1  0  0  0  0
  2  5  1  0  0  0  0
  1  2  1  0  0  0  0
 24 25  2  0  0  0  0
 24 26  1  0  0  0  0
 20 21  1  0  0  0  0
 20 22  1  0  0  0  0
 20 23  1  0  0  0  0
 17 18  1  0  0  0  0
 17 19  1  0  0  0  0
 17 20  1  0  0  0  0
 13 14  1  0  0  0  0
 13 15  1  0  0  0  0
 13 16  1  0  0  0  0
 11 12  1  0  0  0  0
 11 13  1  0  0  0  0
 11 17  1  0  0  0  0
  9 10  1  0  0  0  0
  9 11  1  0  0  0  0
  9 24  1  0  0  0  0
  7  8  1  0  0  0  0
  7  9  1  0  0  0  0
 28 29  1  0  0  0  0
 28 30  1  0  0  0  0
 28 31  1  0  0  0  0
 26 27  1  0  0  0  0
 26 28  1  0  0  0  0
M  END
$$$$
default_name
  -OEChem-01062215323D

 31 30  0     1  0  0  0  0  0999 V2000
   -3.0760   -3.6390    1.5496 H   0  0  0  0  0  0  0  0  0  0  0  0
   -3.0940   -2.6290    1.1426 C   0  0  0  0  0  0  0  0  0  0  0  0
   -3.7160   -1.9930    1.7706 H   0  0  0  0  0  0  0  0  0  0  0  0
   -3.4880   -2.6500    0.1286 H   0  0  0  0  0  0  0  0  0  0  0  0
   -1.6860   -2.0850    1.1196 C   0  0  0  0  0  0  0  0  0  0  0  0
   -0.7540   -2.7700    1.5226 O   0  0  0  0  0  0  0  0  0  0  0  0
   -1.5320   -0.8490    0.6496 N   0  0  0  0  0  0  0  0  0  0  0  0
   -2.3500   -0.3360    0.3566 H   0  0  0  0  0  0  0  0  0  0  0  0
   -0.2470   -0.1410    0.5576 C   0  0  1  0  0  0  0  0  0  0  0  0
   -0.4149    0.8882    0.8769 H   0  0  0  0  0  0  0  0  0  0  0  0
    0.7866   -0.7755    1.5227 C   0  0  1  0  0  0  0  0  0  0  0  0
    0.8262   -1.8425    1.2953 H   0  0  0  0  0  0  0  0  0  0  0  0
    2.2031   -0.2017    1.3278 C   0  0  0  0  0  0  0  0  0  0  0  0
    2.2342    0.8505    1.6160 H   0  0  0  0  0  0  0  0  0  0  0  0
    2.9219   -0.7565    1.9287 H   0  0  0  0  0  0  0  0  0  0  0  0
    2.5044   -0.2893    0.2833 H   0  0  0  0  0  0  0  0  0  0  0  0
    0.3315   -0.6347    2.9926 C   0  0  0  0  0  0  0  0  0  0  0  0
    0.3749    0.4119    3.2970 H   0  0  0  0  0  0  0  0  0  0  0  0
   -0.7019   -0.9718    3.0735 H   0  0  0  0  0  0  0  0  0  0  0  0
    1.1629   -1.4664    3.9786 C   0  0  0  0  0  0  0  0  0  0  0  0
    2.1884   -1.0998    4.0182 H   0  0  0  0  0  0  0  0  0  0  0  0
    0.7269   -1.3847    4.9746 H   0  0  0  0  0  0  0  0  0  0  0  0
    1.1618   -2.5142    3.6763 H   0  0  0  0  0  0  0  0  0  0  0  0
    0.2331   -0.0992   -0.9020 C   0  0  0  0  0  0  0  0  0  0  0  0
   -0.5817   -0.0772   -1.8233 O   0  0  0  0  0  0  0  0  0  0  0  0
    1.5549   -0.0778   -1.1153 N   0  0  0  0  0  0  0  0  0  0  0  0
    2.1616   -0.0865   -0.3106 H   0  0  0  0  0  0  0  0  0  0  0  0
    2.1699   -0.0433   -2.4407 C   0  0  0  0  0  0  0  0  0  0  0  0
    1.7501    0.7818   -3.0204 H   0  0  0  0  0  0  0  0  0  0  0  0
    3.2490    0.0918   -2.3541 H   0  0  0  0  0  0  0  0  0  0  0  0
    1.9620   -0.9771   -2.9665 H   0  0  0  0  0  0  0  0  0  0  0  0
  5  6  2  0  0  0  0
  5  7  1  0  0  0  0
  2  3  1  0  0  0  0
  2  4  1  0  0  0  0
  2  5  1  0  0  0  0
  1  2  1  0  0  0  0
 24 25  2  0  0  0  0
 24 26  1  0  0  0  0
 20 21  1  0  0  0  0
 20 22  1  0  0  0  0
 20 23  1  0  0  0  0
 17 18  1  0  0  0  0
 17 19  1  0  0  0  0
 17 20  1  0  0  0  0
 13 14  1  0  0  0  0
 13 15  1  0  0  0  0
 13 16  1  0  0  0  0
 11 12  1  0  0  0  0
 11 13  1  0  0  0  0
 11 17  1  0  0  0  0
  9 10  1  0  0  0  0
  9 11  1  0  0  0  0
  9 24  1  0  0  0  0
  7  8  1  0  0  0  0
  7  9  1  0  0  0  0
 28 29  1  0  0  0  0
 28 30  1  0  0  0  0
 28 31  1  0  0  0  0
 26 27  1  0  0  0  0
 26 28  1  0  0  0  0
M  END
$$$$
default_name
  -OEChem-01062215323D

 31 30  0     1  0  0  0  0  0999 V2000
   -3.0760   -3.6390    1.5496 H   0  0  0  0  0  0  0  0  0  0  0  0
   -3.0940   -2.6290    1.1426 C   0  0  0  0  0  0  0  0  0  0  0  0
   -3.7160   -1.9930    1.7706 H   0  0  0  0  0  0  0  0  0  0  0  0
   -3.4880   -2.6500    0.1286 H   0  0  0  0  0  0  0  0  0  0  0  0
   -1.6860   -2.0850    1.1196 C   0  0  0  0  0  0  0  0  0  0  0  0
   -0.7540   -2.7700    1.5226 O   0  0  0  0  0  0  0  0  0  0  0  0
   -1.5320   -0.8490    0.6496 N   0  0  0  0  0  0  0  0  0  0  0  0
   -2.3500   -0.3360    0.3566 H   0  0  0  0  0  0  0  0  0  0  0  0
   -0.2470   -0.1410    0.5576 C   0  0  1  0  0  0  0  0  0  0  0  0
   -0.4149    0.8882    0.8769 H   0  0  0  0  0  0  0  0  0  0  0  0
    0.7866   -0.7755    1.5227 C   0  0  1  0  0  0  0  0  0  0  0  0
    0.8262   -1.8425    1.2953 H   0  0  0  0  0  0  0  0  0  0  0  0
    2.2031   -0.2017    1.3278 C   0  0  0  0  0  0  0  0  0  0  0  0
    2.2342    0.8505    1.6160 H   0  0  0  0  0  0  0  0  0  0  0  0
    2.9219   -0.7565    1.9287 H   0  0  0  0  0  0  0  0  0  0  0  0
    2.5044   -0.2893    0.2833 H   0  0  0  0  0  0  0  0  0  0  0  0
    0.3315   -0.6347    2.9926 C   0  0  0  0  0  0  0  0  0  0  0  0
    0.3749    0.4119    3.2970 H   0  0  0  0  0  0  0  0  0  0  0  0
   -0.7019   -0.9718    3.0735 H   0  0  0  0  0  0  0  0  0  0  0  0
    1.1629   -1.4664    3.9786 C   0  0  0  0  0  0  0  0  0  0  0  0
    2.1884   -1.0998    4.0182 H   0  0  0  0  0  0  0  0  0  0  0  0
    0.7269   -1.3847    4.9746 H   0  0  0  0  0  0  0  0  0  0  0  0
    1.1618   -2.5142    3.6763 H   0  0  0  0  0  0  0  0  0  0  0  0
    0.2331   -0.0992   -0.9020 C   0  0  0  0  0  0  0  0  0  0  0  0
   -0.5484    0.1974   -1.8045 O   0  0  0  0  0  0  0  0  0  0  0  0
    1.5202   -0.3855   -1.1355 N   0  0  0  0  0  0  0  0  0  0  0  0
    2.1036   -0.6086   -0.3446 H   0  0  0  0  0  0  0  0  0  0  0  0
    2.1289   -0.3948   -2.4643 C   0  0  0  0  0  0  0  0  0  0  0  0
    1.9268    0.5526   -2.9688 H   0  0  0  0  0  0  0  0  0  0  0  0
    3.2078   -0.5364   -2.3857 H   0  0  0  0  0  0  0  0  0  0  0  0
    1.6992   -1.2029   -3.0594 H   0  0  0  0  0  0  0  0  0  0  0  0
  5  6  2  0  0  0  0
  5  7  1  0  0  0  0
  2  3  1  0  0  0  0
  2  4  1  0  0  0  0
  2  5  1  0  0  0  0
  1  2  1  0  0  0  0
 24 25  2  0  0  0  0
 24 26  1  0  0  0  0
 20 21  1  0  0  0  0
 20 22  1  0  0  0  0
 20 23  1  0  0  0  0
 17 18  1  0  0  0  0
 17 19  1  0  0  0  0
 17 20  1  0  0  0  0
 13 14  1  0  0  0  0
 13 15  1  0  0  0  0
 13 16  1  0  0  0  0
 11 12  1  0  0  0  0
 11 13  1  0  0  0  0
 11 17  1  0  0  0  0
  9 10  1  0  0  0  0
  9 11  1  0  0  0  0
  9 24  1  0  0  0  0
  7  8  1  0  0  0  0
  7  9  1  0  0  0  0
 28 29  1  0  0  0  0
 28 30  1  0  0  0  0
 28 31  1  0  0  0  0
 26 27  1  0  0  0  0
 26 28  1  0  0  0  0
M  END
$$$$
default_name
  -OEChem-01062215323D

 31 30  0     1  0  0  0  0  0999 V2000
   -3.0760   -3.6390    1.5496 H   0  0  0  0  0  0  0  0  0  0  0  0
   -3.0940   -2.6290    1.1426 C   0  0  0  0  0  0  0  0  0  0  0  0
   -3.7160   -1.9930    1.7706 H   0  0  0  0  0  0  0  0  0  0  0  0
   -3.4880   -2.6500    0.1286 H   0  0  0  0  0  0  0  0  0  0  0  0
   -1.6860   -2.0850    1.1196 C   0  0  0  0  0  0  0  0  0  0  0  0
   -0.7540   -2.7700    1.5226 O   0  0  0  0  0  0  0  0  0  0  0  0
   -1.5320   -0.8490    0.6496 N   0  0  0  0  0  0  0  0  0  0  0  0
   -2.3500   -0.3360    0.3566 H   0  0  0  0  0  0  0  0  0  0  0  0
   -0.2470   -0.1410    0.5576 C   0  0  1  0  0  0  0  0  0  0  0  0
   -0.4149    0.8882    0.8769 H   0  0  0  0  0  0  0  0  0  0  0  0
    0.7866   -0.7755    1.5227 C   0  0  1  0  0  0  0  0  0  0  0  0
    0.8262   -1.8425    1.2953 H   0  0  0  0  0  0  0  0  0  0  0  0
    2.2031   -0.2017    1.3278 C   0  0  0  0  0  0  0  0  0  0  0  0
    2.2342    0.8505    1.6160 H   0  0  0  0  0  0  0  0  0  0  0  0
    2.9219   -0.7565    1.9287 H   0  0  0  0  0  0  0  0  0  0  0  0
    2.5044   -0.2893    0.2833 H   0  0  0  0  0  0  0  0  0  0  0  0
    0.3315   -0.6347    2.9926 C   0  0  0  0  0  0  0  0  0  0  0  0
    0.3749    0.4119    3.2970 H   0  0  0  0  0  0  0  0  0  0  0  0
   -0.7019   -0.9718    3.0735 H   0  0  0  0  0  0  0  0  0  0  0  0
    1.1629   -1.4664    3.9786 C   0  0  0  0  0  0  0  0  0  0  0  0
    2.1884   -1.0998    4.0182 H   0  0  0  0  0  0  0  0  0  0  0  0
    0.7269   -1.3847    4.9746 H   0  0  0  0  0  0  0  0  0  0  0  0
    1.1618   -2.5142    3.6763 H   0  0  0  0  0  0  0  0  0  0  0  0
    0.2331   -0.0992   -0.9020 C   0  0  0  0  0  0  0  0  0  0  0  0
   -0.4486    0.4529   -1.7644 O   0  0  0  0  0  0  0  0  0  0  0  0
    1.4109   -0.6727   -1.1797 N   0  0  0  0  0  0  0  0  0  0  0  0
    1.9190   -1.0960   -0.4192 H   0  0  0  0  0  0  0  0  0  0  0  0
    2.0026   -0.7225   -2.5152 C   0  0  0  0  0  0  0  0  0  0  0  0
    2.0414    0.2835   -2.9388 H   0  0  0  0  0  0  0  0  0  0  0  0
    3.0133   -1.1304   -2.4667 H   0  0  0  0  0  0  0  0  0  0  0  0
    1.3892   -1.3489   -3.1656 H   0  0  0  0  0  0  0  0  0  0  0  0
  5  6  2  0  0  0  0
  5  7  1  0  0  0  0
  2  3  1  0  0  0  0
  2  4  1  0  0  0  0
  2  5  1  0  0  0  0
  1  2  1  0  0  0  0
 24 25  2  0  0  0  0
 24 26  1  0  0  0  0
 20 21  1  0  0  0  0
 20 22  1  0  0  0  0
 20 23  1  0  0  0  0
 17 18  1  0  0  0  0
 17 19  1  0  0  0  0
 17 20  1  0  0  0  0
 13 14  1  0  0  0  0
 13 15  1  0  0  0  0
 13 16  1  0  0  0  0
 11 12  1  0  0  0  0
 11 13  1  0  0  0  0
 11 17  1  0  0  0  0
  9 10  1  0  0  0  0
  9 11  1  0  0  0  0
  9 24  1  0  0  0  0
  7  8  1  0  0  0  0
  7  9  1  0  0  0  0
 28 29  1  0  0  0  0
 28 30  1  0  0  0  0
 28 31  1  0  0  0  0
 26 27  1  0  0  0  0
 26 28  1  0  0  0  0
M  END
$$$$
default_name
  -OEChem-01062215323D

 31 30  0     1  0  0  0  0  0999 V2000
   -3.0760   -3.6390    1.5496 H   0  0  0  0  0  0  0  0  0  0  0  0
   -3.0940   -2.6290    1.1426 C   0  0  0  0  0  0  0  0  0  0  0  0
   -3.7160   -1.9930    1.7706 H   0  0  0  0  0  0  0  0  0  0  0  0
   -3.4880   -2.6500    0.1286 H   0  0  0  0  0  0  0  0  0  0  0  0
   -1.6860   -2.0850    1.1196 C   0  0  0  0  0  0  0  0  0  0  0  0
   -0.7540   -2.7700    1.5226 O   0  0  0  0  0  0  0  0  0  0  0  0
   -1.5320   -0.8490    0.6496 N   0  0  0  0  0  0  0  0  0  0  0  0
   -2.3500   -0.3360    0.3566 H   0  0  0  0  0  0  0  0  0  0  0  0
   -0.2470   -0.1410    0.5576 C   0  0  1  0  0  0  0  0  0  0  0  0
   -0.4149    0.8882    0.8769 H   0  0  0  0  0  0  0  0  0  0  0  0
    0.7866   -0.7755    1.5227 C   0  0  1  0  0  0  0  0  0  0  0  0
    0.8262   -1.8425    1.2953 H   0  0  0  0  0  0  0  0  0  0  0  0
    2.2031   -0.2017    1.3278 C   0  0  0  0  0  0  0  0  0  0  0  0
    2.2342    0.8505    1.6160 H   0  0  0  0  0  0  0  0  0  0  0  0
    2.9219   -0.7565    1.9287 H   0  0  0  0  0  0  0  0  0  0  0  0
    2.5044   -0.2893    0.2833 H   0  0  0  0  0  0  0  0  0  0  0  0
    0.3315   -0.6347    2.9926 C   0  0  0  0  0  0  0  0  0  0  0  0
    0.3749    0.4119    3.2970 H   0  0  0  0  0  0  0  0  0  0  0  0
   -0.7019   -0.9718    3.0735 H   0  0  0  0  0  0  0  0  0  0  0  0
    1.1629   -1.4664    3.9786 C   0  0  0  0  0  0  0  0  0  0  0  0
    2.1884   -1.0998    4.0182 H   0  0  0  0  0  0  0  0  0  0  0  0
    0.7269   -1.3847    4.9746 H   0  0  0  0  0  0  0  0  0  0  0  0
    1.1618   -2.5142    3.6763 H   0  0  0  0  0  0  0  0  0  0  0  0
    0.2331   -0.0992   -0.9020 C   0  0  0  0  0  0  0  0  0  0  0  0
   -0.2892    0.6719   -1.7057 O   0  0  0  0  0  0  0  0  0  0  0  0
    1.2345   -0.9196   -1.2448 N   0  0  0  0  0  0  0  0  0  0  0  0
    1.6204   -1.5154   -0.5295 H   0  0  0  0  0  0  0  0  0  0  0  0
    1.7998   -1.0038   -2.5900 C   0  0  0  0  0  0  0  0  0  0  0  0
    2.0862   -0.0069   -2.9324 H   0  0  0  0  0  0  0  0  0  0  0  0
    2.6789   -1.6499   -2.5915 H   0  0  0  0  0  0  0  0  0  0  0  0
    1.0531   -1.4051   -3.2777 H   0  0  0  0  0  0  0  0  0  0  0  0
  5  6  2  0  0  0  0
  5  7  1  0  0  0  0
  2  3  1  0  0  0  0
  2  4  1  0  0  0  0
  2  5  1  0  0  0  0
  1  2  1  0  0  0  0
 24 25  2  0  0  0  0
 24 26  1  0  0  0  0
 20 21  1  0  0  0  0
 20 22  1  0  0  0  0
 20 23  1  0  0  0  0
 17 18  1  0  0  0  0
 17 19  1  0  0  0  0
 17 20  1  0  0  0  0
 13 14  1  0  0  0  0
 13 15  1  0  0  0  0
 13 16  1  0  0  0  0
 11 12  1  0  0  0  0
 11 13  1  0  0  0  0
 11 17  1  0  0  0  0
  9 10  1  0  0  0  0
  9 11  1  0  0  0  0
  9 24  1  0  0  0  0
  7  8  1  0  0  0  0
  7  9  1  0  0  0  0
 28 29  1  0  0  0  0
 28 30  1  0  0  0  0
 28 31  1  0  0  0  0
 26 27  1  0  0  0  0
 26 28  1  0  0  0  0
M  END
$$$$
default_name
  -OEChem-01062215323D

 31 30  0     1  0  0  0  0  0999 V2000
   -3.0760   -3.6390    1.5496 H   0  0  0  0  0  0  0  0  0  0  0  0
   -3.0940   -2.6290    1.1426 C   0  0  0  0  0  0  0  0  0  0  0  0
   -3.7160   -1.9930    1.7706 H   0  0  0  0  0  0  0  0  0  0  0  0
   -3.4880   -2.6500    0.1286 H   0  0  0  0  0  0  0  0  0  0  0  0
   -1.6860   -2.0850    1.1196 C   0  0  0  0  0  0  0  0  0  0  0  0
   -0.7540   -2.7700    1.5226 O   0  0  0  0  0  0  0  0  0  0  0  0
   -1.5320   -0.8490    0.6496 N   0  0  0  0  0  0  0  0  0  0  0  0
   -2.3500   -0.3360    0.3566 H   0  0  0  0  0  0  0  0  0  0  0  0
   -0.2470   -0.1410    0.5576 C   0  0  1  0  0  0  0  0  0  0  0  0
   -0.4149    0.8882    0.8769 H   0  0  0  0  0  0  0  0  0  0  0  0
    0.7866   -0.7755    1.5227 C   0  0  1  0  0  0  0  0  0  0  0  0
    0.8262   -1.8425    1.2953 H   0  0  0  0  0  0  0  0  0  0  0  0
    2.2031   -0.2017    1.3278 C   0  0  0  0  0  0  0  0  0  0  0  0
    2.2342    0.8505    1.6160 H   0  0  0  0  0  0  0  0  0  0  0  0
    2.9219   -0.7565    1.9287 H   0  0  0  0  0  0  0  0  0  0  0  0
    2.5044   -0.2893    0.2833 H   0  0  0  0  0  0  0  0  0  0  0  0
    0.3315   -0.6347    2.9926 C   0  0  0  0  0  0  0  0  0  0  0  0
    0.3749    0.4119    3.2970 H   0  0  0  0  0  0  0  0  0  0  0  0
   -0.7019   -0.9718    3.0735 H   0  0  0  0  0  0  0  0  0  0  0  0
    1.1629   -1.4664    3.9786 C   0  0  0  0  0  0  0  0  0  0  0  0
    2.1884   -1.0998    4.0182 H   0  0  0  0  0  0  0  0  0  0  0  0
    0.7269   -1.3847    4.9746 H   0  0  0  0  0  0  0  0  0  0  0  0
    1.1618   -2.5142    3.6763 H   0  0  0  0  0  0  0  0  0  0  0  0
    0.2331   -0.0992   -0.9020 C   0  0  0  0  0  0  0  0  0  0  0  0
   -0.0809    0.8395   -1.6323 O   0  0  0  0  0  0  0  0  0  0  0  0
    1.0029   -1.1094   -1.3264 N   0  0  0  0  0  0  0  0  0  0  0  0
    1.2282   -1.8381   -0.6677 H   0  0  0  0  0  0  0  0  0  0  0  0
    1.5343   -1.2196   -2.6835 C   0  0  0  0  0  0  0  0  0  0  0  0
    2.0582   -0.2990   -2.9500 H   0  0  0  0  0  0  0  0  0  0  0  0
    2.2273   -2.0594   -2.7518 H   0  0  0  0  0  0  0  0  0  0  0  0
    0.7138   -1.3677   -3.3883 H   0  0  0  0  0  0  0  0  0  0  0  0
  5  6  2  0  0  0  0
  5  7  1  0  0  0  0
  2  3  1  0  0  0  0
  2  4  1  0  0  0  0
  2  5  1  0  0  0  0
  1  2  1  0  0  0  0
 24 25  2  0  0  0  0
 24 26  1  0  0  0  0
 20 21  1  0  0  0  0
 20 22  1  0  0  0  0
 20 23  1  0  0  0  0
 17 18  1  0  0  0  0
 17 19  1  0  0  0  0
 17 20  1  0  0  0  0
 13 14  1  0  0  0  0
 13 15  1  0  0  0  0
 13 16  1  0  0  0  0
 11 12  1  0  0  0  0
 11 13  1  0  0  0  0
 11 17  1  0  0  0  0
  9 10  1  0  0  0  0
  9 11  1  0  0  0  0
  9 24  1  0  0  0  0
  7  8  1  0  0  0  0
  7  9  1  0  0  0  0
 28 29  1  0  0  0  0
 28 30  1  0  0  0  0
 28 31  1  0  0  0  0
 26 27  1  0  0  0  0
 26 28  1  0  0  0  0
M  END
$$$$
default_name
  -OEChem-01062215323D

 31 30  0     1  0  0  0  0  0999 V2000
   -3.0760   -3.6390    1.5496 H   0  0  0  0  0  0  0  0  0  0  0  0
   -3.0940   -2.6290    1.1426 C   0  0  0  0  0  0  0  0  0  0  0  0
   -3.7160   -1.9930    1.7706 H   0  0  0  0  0  0  0  0  0  0  0  0
   -3.4880   -2.6500    0.1286 H   0  0  0  0  0  0  0  0  0  0  0  0
   -1.6860   -2.0850    1.1196 C   0  0  0  0  0  0  0  0  0  0  0  0
   -0.7540   -2.7700    1.5226 O   0  0  0  0  0  0  0  0  0  0  0  0
   -1.5320   -0.8490    0.6496 N   0  0  0  0  0  0  0  0  0  0  0  0
   -2.3500   -0.3360    0.3566 H   0  0  0  0  0  0  0  0  0  0  0  0
   -0.2470   -0.1410    0.5576 C   0  0  1  0  0  0  0  0  0  0  0  0
   -0.4149    0.8882    0.8769 H   0  0  0  0  0  0  0  0  0  0  0  0
    0.7866   -0.7755    1.5227 C   0  0  1  0  0  0  0  0  0  0  0  0
    0.8262   -1.8425    1.2953 H   0  0  0  0  0  0  0  0  0  0  0  0
    2.2031   -0.2017    1.3278 C   0  0  0  0  0  0  0  0  0  0  0  0
    2.2342    0.8505    1.6160 H   0  0  0  0  0  0  0  0  0  0  0  0
    2.9219   -0.7565    1.9287 H   0  0  0  0  0  0  0  0  0  0  0  0
    2.5044   -0.2893    0.2833 H   0  0  0  0  0  0  0  0  0  0  0  0
    0.3315   -0.6347    2.9926 C   0  0  0  0  0  0  0  0  0  0  0  0
    0.3749    0.4119    3.2970 H   0  0  0  0  0  0  0  0  0  0  0  0
   -0.7019   -0.9718    3.0735 H   0  0  0  0  0  0  0  0  0  0  0  0
    1.1629   -1.4664    3.9786 C   0  0  0  0  0  0  0  0  0  0  0  0
    2.1884   -1.0998    4.0182 H   0  0  0  0  0  0  0  0  0  0  0  0
    0.7269   -1.3847    4.9746 H   0  0  0  0  0  0  0  0  0  0  0  0
    1.1618   -2.5142    3.6763 H   0  0  0  0  0  0  0  0  0  0  0  0
    0.2331   -0.0992   -0.9020 C   0  0  0  0  0  0  0  0  0  0  0  0
    0.1620    0.9444   -1.5494 O   0  0  0  0  0  0  0  0  0  0  0  0
    0.7319   -1.2293   -1.4189 N   0  0  0  0  0  0  0  0  0  0  0  0
    0.7690   -2.0423   -0.8246 H   0  0  0  0  0  0  0  0  0  0  0  0
    1.2241   -1.3553   -2.7894 C   0  0  0  0  0  0  0  0  0  0  0  0
    1.9592   -0.5728   -2.9904 H   0  0  0  0  0  0  0  0  0  0  0  0
    1.6894   -2.3310   -2.9365 H   0  0  0  0  0  0  0  0  0  0  0  0
    0.3946   -1.2394   -3.4896 H   0  0  0  0  0  0  0  0  0  0  0  0
  5  6  2  0  0  0  0
  5  7  1  0  0  0  0
  2  3  1  0  0  0  0
  2  4  1  0  0  0  0
  2  5  1  0  0  0  0
  1  2  1  0  0  0  0
 24 25  2  0  0  0  0
 24 26  1  0  0  0  0
 20 21  1  0  0  0  0
 20 22  1  0  0  0  0
 20 23  1  0  0  0  0
 17 18  1  0  0  0  0
 17 19  1  0  0  0  0
 17 20  1  0  0  0  0
 13 14  1  0  0  0  0
 13 15  1  0  0  0  0
 13 16  1  0  0  0  0
 11 12  1  0  0  0  0
 11 13  1  0  0  0  0
 11 17  1  0  0  0  0
  9 10  1  0  0  0  0
  9 11  1  0  0  0  0
  9 24  1  0  0  0  0
  7  8  1  0  0  0  0
  7  9  1  0  0  0  0
 28 29  1  0  0  0  0
 28 30  1  0  0  0  0
 28 31  1  0  0  0  0
 26 27  1  0  0  0  0
 26 28  1  0  0  0  0
M  END
$$$$
default_name
  -OEChem-01062215323D

 31 30  0     1  0  0  0  0  0999 V2000
   -3.0760   -3.6390    1.5496 H   0  0  0  0  0  0  0  0  0  0  0  0
   -3.0940   -2.6290    1.1426 C   0  0  0  0  0  0  0  0  0  0  0  0
   -3.7160   -1.9930    1.7706 H   0  0  0  0  0  0  0  0  0  0  0  0
   -3.4880   -2.6500    0.1286 H   0  0  0  0  0  0  0  0  0  0  0  0
   -1.6860   -2.0850    1.1196 C   0  0  0  0  0  0  0  0  0  0  0  0
   -0.7540   -2.7700    1.5226 O   0  0  0  0  0  0  0  0  0  0  0  0
   -1.5320   -0.8490    0.6496 N   0  0  0  0  0  0  0  0  0  0  0  0
   -2.3500   -0.3360    0.3566 H   0  0  0  0  0  0  0  0  0  0  0  0
   -0.2470   -0.1410    0.5576 C   0  0  1  0  0  0  0  0  0  0  0  0
   -0.4149    0.8882    0.8769 H   0  0  0  0  0  0  0  0  0  0  0  0
    0.7866   -0.7755    1.5227 C   0  0  1  0  0  0  0  0  0  0  0  0
    0.8262   -1.8425    1.2953 H   0  0  0  0  0  0  0  0  0  0  0  0
    2.2031   -0.2017    1.3278 C   0  0  0  0  0  0  0  0  0  0  0  0
    2.2342    0.8505    1.6160 H   0  0  0  0  0  0  0  0  0  0  0  0
    2.9219   -0.7565    1.9287 H   0  0  0  0  0  0  0  0  0  0  0  0
    2.5044   -0.2893    0.2833 H   0  0  0  0  0  0  0  0  0  0  0  0
    0.3315   -0.6347    2.9926 C   0  0  0  0  0  0  0  0  0  0  0  0
    0.3749    0.4119    3.2970 H   0  0  0  0  0  0  0  0  0  0  0  0
   -0.7019   -0.9718    3.0735 H   0  0  0  0  0  0  0  0  0  0  0  0
    1.1629   -1.4664    3.9786 C   0  0  0  0  0  0  0  0  0  0  0  0
    2.1884   -1.0998    4.0182 H   0  0  0  0  0  0  0  0  0  0  0  0
    0.7269   -1.3847    4.9746 H   0  0  0  0  0  0  0  0  0  0  0  0
    1.1618   -2.5142    3.6763 H   0  0  0  0  0  0  0  0  0  0  0  0
    0.2331   -0.0992   -0.9020 C   0  0  0  0  0  0  0  0  0  0  0  0
    0.4230    0.9792   -1.4626 O   0  0  0  0  0  0  0  0  0  0  0  0
    0.4401   -1.2710   -1.5161 N   0  0  0  0  0  0  0  0  0  0  0  0
    0.2742   -2.1140   -0.9895 H   0  0  0  0  0  0  0  0  0  0  0  0
    0.8903   -1.4015   -2.9005 C   0  0  0  0  0  0  0  0  0  0  0  0
    1.7960   -0.8098   -3.0508 H   0  0  0  0  0  0  0  0  0  0  0  0
    1.1017   -2.4462   -3.1332 H   0  0  0  0  0  0  0  0  0  0  0  0
    0.1170   -1.0287   -3.5749 H   0  0  0  0  0  0  0  0  0  0  0  0
  5  6  2  0  0  0  0
  5  7  1  0  0  0  0
  2  3  1  0  0  0  0
  2  4  1  0  0  0  0
  2  5  1  0  0  0  0
  1  2  1  0  0  0  0
 24 25  2  0  0  0  0
 24 26  1  0  0  0  0
 20 21  1  0  0  0  0
 20 22  1  0  0  0  0
 20 23  1  0  0  0  0
 17 18  1  0  0  0  0
 17 19  1  0  0  0  0
 17 20  1  0  0  0  0
 13 14  1  0  0  0  0
 13 15  1  0  0  0  0
 13 16  1  0  0  0  0
 11 12  1  0  0  0  0
 11 13  1  0  0  0  0
 11 17  1  0  0  0  0
  9 10  1  0  0  0  0
  9 11  1  0  0  0  0
  9 24  1  0  0  0  0
  7  8  1  0  0  0  0
  7  9  1  0  0  0  0
 28 29  1  0  0  0  0
 28 30  1  0  0  0  0
 28 31  1  0  0  0  0
 26 27  1  0  0  0  0
 26 28  1  0  0  0  0
M  END
$$$$
default_name
  -OEChem-01062215323D

 31 30  0     1  0  0  0  0  0999 V2000
   -3.0760   -3.6390    1.5496 H   0  0  0  0  0  0  0  0  0  0  0  0
   -3.0940   -2.6290    1.1426 C   0  0  0  0  0  0  0  0  0  0  0  0
   -3.7160   -1.9930    1.7706 H   0  0  0  0  0  0  0  0  0  0  0  0
   -3.4880   -2.6500    0.1286 H   0  0  0  0  0  0  0  0  0  0  0  0
   -1.6860   -2.0850    1.1196 C   0  0  0  0  0  0  0  0  0  0  0  0
   -0.7540   -2.7700    1.5226 O   0  0  0  0  0  0  0  0  0  0  0  0
   -1.5320   -0.8490    0.6496 N   0  0  0  0  0  0  0  0  0  0  0  0
   -2.3500   -0.3360    0.3566 H   0  0  0  0  0  0  0  0  0  0  0  0
   -0.2470   -0.1410    0.5576 C   0  0  1  0  0  0  0  0  0  0  0  0
   -0.4149    0.8882    0.8769 H   0  0  0  0  0  0  0  0  0  0  0  0
    0.7866   -0.7755    1.5227 C   0  0  1  0  0  0  0  0  0  0  0  0
    0.8262   -1.8425    1.2953 H   0  0  0  0  0  0  0  0  0  0  0  0
    2.2031   -0.2017    1.3278 C   0  0  0  0  0  0  0  0  0  0  0  0
    2.2342    0.8505    1.6160 H   0  0  0  0  0  0  0  0  0  0  0  0
    2.9219   -0.7565    1.9287 H   0  0  0  0  0  0  0  0  0  0  0  0
    2.5044   -0.2893    0.2833 H   0  0  0  0  0  0  0  0  0  0  0  0
    0.3315   -0.6347    2.9926 C   0  0  0  0  0  0  0  0  0  0  0  0
    0.3749    0.4119    3.2970 H   0  0  0  0  0  0  0  0  0  0  0  0
   -0.7019   -0.9718    3.0735 H   0  0  0  0  0  0  0  0  0  0  0  0
    1.1629   -1.4664    3.9786 C   0  0  0  0  0  0  0  0  0  0  0  0
    2.1884   -1.0998    4.0182 H   0  0  0  0  0  0  0  0  0  0  0  0
    0.7269   -1.3847    4.9746 H   0  0  0  0  0  0  0  0  0  0  0  0
    1.1618   -2.5142    3.6763 H   0  0  0  0  0  0  0  0  0  0  0  0
    0.2331   -0.0992   -0.9020 C   0  0  0  0  0  0  0  0  0  0  0  0
    0.6842    0.9417   -1.3777 O   0  0  0  0  0  0  0  0  0  0  0  0
    0.1473   -1.2317   -1.6113 N   0  0  0  0  0  0  0  0  0  0  0  0
   -0.2226   -2.0484   -1.1510 H   0  0  0  0  0  0  0  0  0  0  0  0
    0.5558   -1.3551   -3.0092 C   0  0  0  0  0  0  0  0  0  0  0  0
    1.5797   -0.9936   -3.1272 H   0  0  0  0  0  0  0  0  0  0  0  0
    0.5044   -2.3972   -3.3283 H   0  0  0  0  0  0  0  0  0  0  0  0
   -0.0999   -0.7501   -3.6383 H   0  0  0  0  0  0  0  0  0  0  0  0
  5  6  2  0  0  0  0
  5  7  1  0  0  0  0
  2  3  1  0  0  0  0
  2  4  1  0  0  0  0
  2  5  1  0  0  0  0
  1  2  1  0  0  0  0
 24 25  2  0  0  0  0
 24 26  1  0  0  0  0
 20 21  1  0  0  0  0
 20 22  1  0  0  0  0
 20 23  1  0  0  0  0
 17 18  1  0  0  0  0
 17 19  1  0  0  0  0
 17 20  1  0  0  0  0
 13 14  1  0  0  0  0
 13 15  1  0  0  0  0
 13 16  1  0  0  0  0
 11 12  1  0  0  0  0
 11 13  1  0  0  0  0
 11 17  1  0  0  0  0
  9 10  1  0  0  0  0
  9 11  1  0  0  0  0
  9 24  1  0  0  0  0
  7  8  1  0  0  0  0
  7  9  1  0  0  0  0
 28 29  1  0  0  0  0
 28 30  1  0  0  0  0
 28 31  1  0  0  0  0
 26 27  1  0  0  0  0
 26 28  1  0  0  0  0
M  END
$$$$
default_name
  -OEChem-01062215323D

 31 30  0     1  0  0  0  0  0999 V2000
   -3.0760   -3.6390    1.5496 H   0  0  0  0  0  0  0  0  0  0  0  0
   -3.0940   -2.6290    1.1426 C   0  0  0  0  0  0  0  0  0  0  0  0
   -3.7160   -1.9930    1.7706 H   0  0  0  0  0  0  0  0  0  0  0  0
   -3.4880   -2.6500    0.1286 H   0  0  0  0  0  0  0  0  0  0  0  0
   -1.6860   -2.0850    1.1196 C   0  0  0  0  0  0  0  0  0  0  0  0
   -0.7540   -2.7700    1.5226 O   0  0  0  0  0  0  0  0  0  0  0  0
   -1.5320   -0.8490    0.6496 N   0  0  0  0  0  0  0  0  0  0  0  0
   -2.3500   -0.3360    0.3566 H   0  0  0  0  0  0  0  0  0  0  0  0
   -0.2470   -0.1410    0.5576 C   0  0  1  0  0  0  0  0  0  0  0  0
   -0.4149    0.8882    0.8769 H   0  0  0  0  0  0  0  0  0  0  0  0
    0.7866   -0.7755    1.5227 C   0  0  1  0  0  0  0  0  0  0  0  0
    0.8262   -1.8425    1.2953 H   0  0  0  0  0  0  0  0  0  0  0  0
    2.2031   -0.2017    1.3278 C   0  0  0  0  0  0  0  0  0  0  0  0
    2.2342    0.8505    1.6160 H   0  0  0  0  0  0  0  0  0  0  0  0
    2.9219   -0.7565    1.9287 H   0  0  0  0  0  0  0  0  0  0  0  0
    2.5044   -0.2893    0.2833 H   0  0  0  0  0  0  0  0  0  0  0  0
    0.3315   -0.6347    2.9926 C   0  0  0  0  0  0  0  0  0  0  0  0
    0.3749    0.4119    3.2970 H   0  0  0  0  0  0  0  0  0  0  0  0
   -0.7019   -0.9718    3.0735 H   0  0  0  0  0  0  0  0  0  0  0  0
    1.1629   -1.4664    3.9786 C   0  0  0  0  0  0  0  0  0  0  0  0
    2.1884   -1.0998    4.0182 H   0  0  0  0  0  0  0  0  0  0  0  0
    0.7269   -1.3847    4.9746 H   0  0  0  0  0  0  0  0  0  0  0  0
    1.1618   -2.5142    3.6763 H   0  0  0  0  0  0  0  0  0  0  0  0
    0.2331   -0.0992   -0.9020 C   0  0  0  0  0  0  0  0  0  0  0  0
    0.9279    0.8344   -1.3006 O   0  0  0  0  0  0  0  0  0  0  0  0
   -0.1265   -1.1141   -1.6981 N   0  0  0  0  0  0  0  0  0  0  0  0
   -0.6874   -1.8498   -1.2983 H   0  0  0  0  0  0  0  0  0  0  0  0
    0.2434   -1.2194   -3.1082 C   0  0  0  0  0  0  0  0  0  0  0  0
    1.3251   -1.1118   -3.2144 H   0  0  0  0  0  0  0  0  0  0  0  0
   -0.0619   -2.1872   -3.5086 H   0  0  0  0  0  0  0  0  0  0  0  0
   -0.2414   -0.4225   -3.6755 H   0  0  0  0  0  0  0  0  0  0  0  0
  5  6  2  0  0  0  0
  5  7  1  0  0  0  0
  2  3  1  0  0  0  0
  2  4  1  0  0  0  0
  2  5  1  0  0  0  0
  1  2  1  0  0  0  0
 24 25  2  0  0  0  0
 24 26  1  0  0  0  0
 20 21  1  0  0  0  0
 20 22  1  0  0  0  0
 20 23  1  0  0  0  0
 17 18  1  0  0  0  0
 17 19  1  0  0  0  0
 17 20  1  0  0  0  0
 13 14  1  0  0  0  0
 13 15  1  0  0  0  0
 13 16  1  0  0  0  0
 11 12  1  0  0  0  0
 11 13  1  0  0  0  0
 11 17  1  0  0  0  0
  9 10  1  0  0  0  0
  9 11  1  0  0  0  0
  9 24  1  0  0  0  0
  7  8  1  0  0  0  0
  7  9  1  0  0  0  0
 28 29  1  0  0  0  0
 28 30  1  0  0  0  0
 28 31  1  0  0  0  0
 26 27  1  0  0  0  0
 26 28  1  0  0  0  0
M  END
$$$$
default_name
  -OEChem-01062215323D

 31 30  0     1  0  0  0  0  0999 V2000
   -3.0760   -3.6390    1.5496 H   0  0  0  0  0  0  0  0  0  0  0  0
   -3.0940   -2.6290    1.1426 C   0  0  0  0  0  0  0  0  0  0  0  0
   -3.7160   -1.9930    1.7706 H   0  0  0  0  0  0  0  0  0  0  0  0
   -3.4880   -2.6500    0.1286 H   0  0  0  0  0  0  0  0  0  0  0  0
   -1.6860   -2.0850    1.1196 C   0  0  0  0  0  0  0  0  0  0  0  0
   -0.7540   -2.7700    1.5226 O   0  0  0  0  0  0  0  0  0  0  0  0
   -1.5320   -0.8490    0.6496 N   0  0  0  0  0  0  0  0  0  0  0  0
   -2.3500   -0.3360    0.3566 H   0  0  0  0  0  0  0  0  0  0  0  0
   -0.2470   -0.1410    0.5576 C   0  0  1  0  0  0  0  0  0  0  0  0
   -0.4149    0.8882    0.8769 H   0  0  0  0  0  0  0  0  0  0  0  0
    0.7866   -0.7755    1.5227 C   0  0  1  0  0  0  0  0  0  0  0  0
    0.8262   -1.8425    1.2953 H   0  0  0  0  0  0  0  0  0  0  0  0
    2.2031   -0.2017    1.3278 C   0  0  0  0  0  0  0  0  0  0  0  0
    2.2342    0.8505    1.6160 H   0  0  0  0  0  0  0  0  0  0  0  0
    2.9219   -0.7565    1.9287 H   0  0  0  0  0  0  0  0  0  0  0  0
    2.5044   -0.2893    0.2833 H   0  0  0  0  0  0  0  0  0  0  0  0
    0.3315   -0.6347    2.9926 C   0  0  0  0  0  0  0  0  0  0  0  0
    0.3749    0.4119    3.2970 H   0  0  0  0  0  0  0  0  0  0  0  0
   -0.7019   -0.9718    3.0735 H   0  0  0  0  0  0  0  0  0  0  0  0
    1.1629   -1.4664    3.9786 C   0  0  0  0  0  0  0  0  0  0  0  0
    2.1884   -1.0998    4.0182 H   0  0  0  0  0  0  0  0  0  0  0  0
    0.7269   -1.3847    4.9746 H   0  0  0  0  0  0  0  0  0  0  0  0
    1.1618   -2.5142    3.6763 H   0  0  0  0  0  0  0  0  0  0  0  0
    0.2331   -0.0992   -0.9020 C   0  0  0  0  0  0  0  0  0  0  0  0
    1.1375    0.6647   -1.2365 O   0  0  0  0  0  0  0  0  0  0  0  0
   -0.3627   -0.9262   -1.7704 N   0  0  0  0  0  0  0  0  0  0  0  0
   -1.0886   -1.5318   -1.4211 H   0  0  0  0  0  0  0  0  0  0  0  0
   -0.0258   -1.0034   -3.1905 C   0  0  0  0  0  0  0  0  0  0  0  0
    1.0495   -1.1564   -3.3063 H   0  0  0  0  0  0  0  0  0  0  0  0
   -0.5586   -1.8306   -3.6617 H   0  0  0  0  0  0  0  0  0  0  0  0
   -0.2978   -0.0684   -3.6839 H   0  0  0  0  0  0  0  0  0  0  0  0
  5  6  2  0  0  0  0
  5  7  1  0  0  0  0
  2  3  1  0  0  0  0
  2  4  1  0  0  0  0
  2  5  1  0  0  0  0
  1  2  1  0  0  0  0
 24 25  2  0  0  0  0
 24 26  1  0  0  0  0
 20 21  1  0  0  0  0
 20 22  1  0  0  0  0
 20 23  1  0  0  0  0
 17 18  1  0  0  0  0
 17 19  1  0  0  0  0
 17 20  1  0  0  0  0
 13 14  1  0  0  0  0
 13 15  1  0  0  0  0
 13 16  1  0  0  0  0
 11 12  1  0  0  0  0
 11 13  1  0  0  0  0
 11 17  1  0  0  0  0
  9 10  1  0  0  0  0
  9 11  1  0  0  0  0
  9 24  1  0  0  0  0
  7  8  1  0  0  0  0
  7  9  1  0  0  0  0
 28 29  1  0  0  0  0
 28 30  1  0  0  0  0
 28 31  1  0  0  0  0
 26 27  1  0  0  0  0
 26 28  1  0  0  0  0
M  END
$$$$
default_name
  -OEChem-01062215323D

 31 30  0     1  0  0  0  0  0999 V2000
   -3.0760   -3.6390    1.5496 H   0  0  0  0  0  0  0  0  0  0  0  0
   -3.0940   -2.6290    1.1426 C   0  0  0  0  0  0  0  0  0  0  0  0
   -3.7160   -1.9930    1.7706 H   0  0  0  0  0  0  0  0  0  0  0  0
   -3.4880   -2.6500    0.1286 H   0  0  0  0  0  0  0  0  0  0  0  0
   -1.6860   -2.0850    1.1196 C   0  0  0  0  0  0  0  0  0  0  0  0
   -0.7540   -2.7700    1.5226 O   0  0  0  0  0  0  0  0  0  0  0  0
   -1.5320   -0.8490    0.6496 N   0  0  0  0  0  0  0  0  0  0  0  0
   -2.3500   -0.3360    0.3566 H   0  0  0  0  0  0  0  0  0  0  0  0
   -0.2470   -0.1410    0.5576 C   0  0  1  0  0  0  0  0  0  0  0  0
   -0.4149    0.8882    0.8769 H   0  0  0  0  0  0  0  0  0  0  0  0
    0.7866   -0.7755    1.5227 C   0  0  1  0  0  0  0  0  0  0  0  0
    0.8262   -1.8425    1.2953 H   0  0  0  0  0  0  0  0  0  0  0  0
    2.2031   -0.2017    1.3278 C   0  0  0  0  0  0  0  0  0  0  0  0
    2.2342    0.8505    1.6160 H   0  0  0  0  0  0  0  0  0  0  0  0
    2.9219   -0.7565    1.9287 H   0  0  0  0  0  0  0  0  0  0  0  0
    2.5044   -0.2893    0.2833 H   0  0  0  0  0  0  0  0  0  0  0  0
    0.3315   -0.6347    2.9926 C   0  0  0  0  0  0  0  0  0  0  0  0
    0.3749    0.4119    3.2970 H   0  0  0  0  0  0  0  0  0  0  0  0
   -0.7019   -0.9718    3.0735 H   0  0  0  0  0  0  0  0  0  0  0  0
    1.1629   -1.4664    3.9786 C   0  0  0  0  0  0  0  0  0  0  0  0
    2.1884   -1.0998    4.0182 H   0  0  0  0  0  0  0  0  0  0  0  0
    0.7269   -1.3847    4.9746 H   0  0  0  0  0  0  0  0  0  0  0  0
    1.1618   -2.5142    3.6763 H   0  0  0  0  0  0  0  0  0  0  0  0
    0.2331   -0.0992   -0.9020 C   0  0  0  0  0  0  0  0  0  0  0  0
    1.2987    0.4440   -1.1898 O   0  0  0  0  0  0  0  0  0  0  0  0
   -0.5452   -0.6808   -1.8234 N   0  0  0  0  0  0  0  0  0  0  0  0
   -1.3989   -1.1161   -1.5113 H   0  0  0  0  0  0  0  0  0  0  0  0
   -0.2333   -0.7221   -3.2507 C   0  0  0  0  0  0  0  0  0  0  0  0
    0.7716   -1.1243   -3.3968 H   0  0  0  0  0  0  0  0  0  0  0  0
   -0.9518   -1.3518   -3.7774 H   0  0  0  0  0  0  0  0  0  0  0  0
   -0.2654    0.2883   -3.6630 H   0  0  0  0  0  0  0  0  0  0  0  0
  5  6  2  0  0  0  0
  5  7  1  0  0  0  0
  2  3  1  0  0  0  0
  2  4  1  0  0  0  0
  2  5  1  0  0  0  0
  1  2  1  0  0  0  0
 24 25  2  0  0  0  0
 24 26  1  0  0  0  0
 20 21  1  0  0  0  0
 20 22  1  0  0  0  0
 20 23  1  0  0  0  0
 17 18  1  0  0  0  0
 17 19  1  0  0  0  0
 17 20  1  0  0  0  0
 13 14  1  0  0  0  0
 13 15  1  0  0  0  0
 13 16  1  0  0  0  0
 11 12  1  0  0  0  0
 11 13  1  0  0  0  0
 11 17  1  0  0  0  0
  9 10  1  0  0  0  0
  9 11  1  0  0  0  0
  9 24  1  0  0  0  0
  7  8  1  0  0  0  0
  7  9  1  0  0  0  0
 28 29  1  0  0  0  0
 28 30  1  0  0  0  0
 28 31  1  0  0  0  0
 26 27  1  0  0  0  0
 26 28  1  0  0  0  0
M  END
$$$$
default_name
  -OEChem-01062215323D

 31 30  0     1  0  0  0  0  0999 V2000
   -3.0760   -3.6390    1.5496 H   0  0  0  0  0  0  0  0  0  0  0  0
   -3.0940   -2.6290    1.1426 C   0  0  0  0  0  0  0  0  0  0  0  0
   -3.7160   -1.9930    1.7706 H   0  0  0  0  0  0  0  0  0  0  0  0
   -3.4880   -2.6500    0.1286 H   0  0  0  0  0  0  0  0  0  0  0  0
   -1.6860   -2.0850    1.1196 C   0  0  0  0  0  0  0  0  0  0  0  0
   -0.7540   -2.7700    1.5226 O   0  0  0  0  0  0  0  0  0  0  0  0
   -1.5320   -0.8490    0.6496 N   0  0  0  0  0  0  0  0  0  0  0  0
   -2.3500   -0.3360    0.3566 H   0  0  0  0  0  0  0  0  0  0  0  0
   -0.2470   -0.1410    0.5576 C   0  0  1  0  0  0  0  0  0  0  0  0
   -0.4149    0.8882    0.8769 H   0  0  0  0  0  0  0  0  0  0  0  0
    0.7866   -0.7755    1.5227 C   0  0  1  0  0  0  0  0  0  0  0  0
    0.8262   -1.8425    1.2953 H   0  0  0  0  0  0  0  0  0  0  0  0
    2.2031   -0.2017    1.3278 C   0  0  0  0  0  0  0  0  0  0  0  0
    2.2342    0.8505    1.6160 H   0  0  0  0  0  0  0  0  0  0  0  0
    2.9219   -0.7565    1.9287 H   0  0  0  0  0  0  0  0  0  0  0  0
    2.5044   -0.2893    0.2833 H   0  0  0  0  0  0  0  0  0  0  0  0
    0.3315   -0.6347    2.9926 C   0  0  0  0  0  0  0  0  0  0  0  0
    0.3749    0.4119    3.2970 H   0  0  0  0  0  0  0  0  0  0  0  0
   -0.7019   -0.9718    3.0735 H   0  0  0  0  0  0  0  0  0  0  0  0
    1.1629   -1.4664    3.9786 C   0  0  0  0  0  0  0  0  0  0  0  0
    2.1884   -1.0998    4.0182 H   0  0  0  0  0  0  0  0  0  0  0  0
    0.7269   -1.3847    4.9746 H   0  0  0  0  0  0  0  0  0  0  0  0
    1.1618   -2.5142    3.6763 H   0  0  0  0  0  0  0  0  0  0  0  0
    0.2331   -0.0992   -0.9020 C   0  0  0  0  0  0  0  0  0  0  0  0
    1.4004    0.1875   -1.1637 O   0  0  0  0  0  0  0  0  0  0  0  0
   -0.6616   -0.3946   -1.8535 N   0  0  0  0  0  0  0  0  0  0  0  0
   -1.5971   -0.6311   -1.5626 H   0  0  0  0  0  0  0  0  0  0  0  0
   -0.3650   -0.3944   -3.2847 C   0  0  0  0  0  0  0  0  0  0  0  0
    0.5105   -1.0177   -3.4797 H   0  0  0  0  0  0  0  0  0  0  0  0
   -1.2147   -0.7832   -3.8476 H   0  0  0  0  0  0  0  0  0  0  0  0
   -0.1462    0.6231   -3.6142 H   0  0  0  0  0  0  0  0  0  0  0  0
  5  6  2  0  0  0  0
  5  7  1  0  0  0  0
  2  3  1  0  0  0  0
  2  4  1  0  0  0  0
  2  5  1  0  0  0  0
  1  2  1  0  0  0  0
 24 25  2  0  0  0  0
 24 26  1  0  0  0  0
 20 21  1  0  0  0  0
 20 22  1  0  0  0  0
 20 23  1  0  0  0  0
 17 18  1  0  0  0  0
 17 19  1  0  0  0  0
 17 20  1  0  0  0  0
 13 14  1  0  0  0  0
 13 15  1  0  0  0  0
 13 16  1  0  0  0  0
 11 12  1  0  0  0  0
 11 13  1  0  0  0  0
 11 17  1  0  0  0  0
  9 10  1  0  0  0  0
  9 11  1  0  0  0  0
  9 24  1  0  0  0  0
  7  8  1  0  0  0  0
  7  9  1  0  0  0  0
 28 29  1  0  0  0  0
 28 30  1  0  0  0  0
 28 31  1  0  0  0  0
 26 27  1  0  0  0  0
 26 28  1  0  0  0  0
M  END
$$$$
default_name
  -OEChem-01062215323D

 31 30  0     1  0  0  0  0  0999 V2000
   -3.0760   -3.6390    1.5496 H   0  0  0  0  0  0  0  0  0  0  0  0
   -3.0940   -2.6290    1.1426 C   0  0  0  0  0  0  0  0  0  0  0  0
   -3.7160   -1.9930    1.7706 H   0  0  0  0  0  0  0  0  0  0  0  0
   -3.4880   -2.6500    0.1286 H   0  0  0  0  0  0  0  0  0  0  0  0
   -1.6860   -2.0850    1.1196 C   0  0  0  0  0  0  0  0  0  0  0  0
   -0.7540   -2.7700    1.5226 O   0  0  0  0  0  0  0  0  0  0  0  0
   -1.5320   -0.8490    0.6496 N   0  0  0  0  0  0  0  0  0  0  0  0
   -2.3500   -0.3360    0.3566 H   0  0  0  0  0  0  0  0  0  0  0  0
   -0.2470   -0.1410    0.5576 C   0  0  1  0  0  0  0  0  0  0  0  0
   -0.4149    0.8882    0.8769 H   0  0  0  0  0  0  0  0  0  0  0  0
    0.7866   -0.7755    1.5227 C   0  0  1  0  0  0  0  0  0  0  0  0
    0.8262   -1.8425    1.2953 H   0  0  0  0  0  0  0  0  0  0  0  0
    2.2031   -0.2017    1.3278 C   0  0  0  0  0  0  0  0  0  0  0  0
    2.2342    0.8505    1.6160 H   0  0  0  0  0  0  0  0  0  0  0  0
    2.9219   -0.7565    1.9287 H   0  0  0  0  0  0  0  0  0  0  0  0
    2.5044   -0.2893    0.2833 H   0  0  0  0  0  0  0  0  0  0  0  0
    0.3315   -0.6347    2.9926 C   0  0  0  0  0  0  0  0  0  0  0  0
    0.3749    0.4119    3.2970 H   0  0  0  0  0  0  0  0  0  0  0  0
   -0.7019   -0.9718    3.0735 H   0  0  0  0  0  0  0  0  0  0  0  0
    1.1629   -1.4664    3.9786 C   0  0  0  0  0  0  0  0  0  0  0  0
    2.1884   -1.0998    4.0182 H   0  0  0  0  0  0  0  0  0  0  0  0
    0.7269   -1.3847    4.9746 H   0  0  0  0  0  0  0  0  0  0  0  0
    1.1618   -2.5142    3.6763 H   0  0  0  0  0  0  0  0  0  0  0  0
    0.2331   -0.0992   -0.9020 C   0  0  0  0  0  0  0  0  0  0  0  0
    1.4359   -0.0875   -1.1599 O   0  0  0  0  0  0  0  0  0  0  0  0
   -0.7038   -0.0872   -1.8586 N   0  0  0  0  0  0  0  0  0  0  0  0
   -1.6696   -0.1097   -1.5716 H   0  0  0  0  0  0  0  0  0  0  0  0
   -0.4119   -0.0428   -3.2900 C   0  0  0  0  0  0  0  0  0  0  0  0
    0.2839   -0.8439   -3.5492 H   0  0  0  0  0  0  0  0  0  0  0  0
   -1.3295   -0.1638   -3.8676 H   0  0  0  0  0  0  0  0  0  0  0  0
    0.0515    0.9133   -3.5409 H   0  0  0  0  0  0  0  0  0  0  0  0
  5  6  2  0  0  0  0
  5  7  1  0  0  0  0
  2  3  1  0  0  0  0
  2  4  1  0  0  0  0
  2  5  1  0  0  0  0
  1  2  1  0  0  0  0
 24 25  2  0  0  0  0
 24 26  1  0  0  0  0
 20 21  1  0  0  0  0
 20 22  1  0  0  0  0
 20 23  1  0  0  0  0
 17 18  1  0  0  0  0
 17 19  1  0  0  0  0
 17 20  1  0  0  0  0
 13 14  1  0  0  0  0
 13 15  1  0  0  0  0
 13 16  1  0  0  0  0
 11 12  1  0  0  0  0
 11 13  1  0  0  0  0
 11 17  1  0  0  0  0
  9 10  1  0  0  0  0
  9 11  1  0  0  0  0
  9 24  1  0  0  0  0
  7  8  1  0  0  0  0
  7  9  1  0  0  0  0
 28 29  1  0  0  0  0
 28 30  1  0  0  0  0
 28 31  1  0  0  0  0
 26 27  1  0  0  0  0
 26 28  1  0  0  0  0
M  END
$$$$
default_name
  -OEChem-01062215323D

 31 30  0     1  0  0  0  0  0999 V2000
   -3.0760   -3.6390    1.5496 H   0  0  0  0  0  0  0  0  0  0  0  0
   -3.0940   -2.6290    1.1426 C   0  0  0  0  0  0  0  0  0  0  0  0
   -3.7160   -1.9930    1.7706 H   0  0  0  0  0  0  0  0  0  0  0  0
   -3.4880   -2.6500    0.1286 H   0  0  0  0  0  0  0  0  0  0  0  0
   -1.6860   -2.0850    1.1196 C   0  0  0  0  0  0  0  0  0  0  0  0
   -0.7540   -2.7700    1.5226 O   0  0  0  0  0  0  0  0  0  0  0  0
   -1.5320   -0.8490    0.6496 N   0  0  0  0  0  0  0  0  0  0  0  0
   -2.3500   -0.3360    0.3566 H   0  0  0  0  0  0  0  0  0  0  0  0
   -0.2470   -0.1410    0.5576 C   0  0  1  0  0  0  0  0  0  0  0  0
   -0.4149    0.8882    0.8769 H   0  0  0  0  0  0  0  0  0  0  0  0
    0.7866   -0.7755    1.5227 C   0  0  1  0  0  0  0  0  0  0  0  0
    0.8262   -1.8425    1.2953 H   0  0  0  0  0  0  0  0  0  0  0  0
    2.2031   -0.2017    1.3278 C   0  0  0  0  0  0  0  0  0  0  0  0
    2.2342    0.8505    1.6160 H   0  0  0  0  0  0  0  0  0  0  0  0
    2.9219   -0.7565    1.9287 H   0  0  0  0  0  0  0  0  0  0  0  0
    2.5044   -0.2893    0.2833 H   0  0  0  0  0  0  0  0  0  0  0  0
    0.3315   -0.6347    2.9926 C   0  0  0  0  0  0  0  0  0  0  0  0
    0.3749    0.4119    3.2970 H   0  0  0  0  0  0  0  0  0  0  0  0
   -0.7019   -0.9718    3.0735 H   0  0  0  0  0  0  0  0  0  0  0  0
    1.1629   -1.4664    3.9786 C   0  0  0  0  0  0  0  0  0  0  0  0
    2.1884   -1.0998    4.0182 H   0  0  0  0  0  0  0  0  0  0  0  0
    0.7269   -1.3847    4.9746 H   0  0  0  0  0  0  0  0  0  0  0  0
    1.1618   -2.5142    3.6763 H   0  0  0  0  0  0  0  0  0  0  0  0
    0.2331   -0.0992   -0.9020 C   0  0  0  0  0  0  0  0  0  0  0  0
    1.4026   -0.3620   -1.1787 O   0  0  0  0  0  0  0  0  0  0  0  0
   -0.6691    0.2206   -1.8384 N   0  0  0  0  0  0  0  0  0  0  0  0
   -1.6116    0.4124   -1.5376 H   0  0  0  0  0  0  0  0  0  0  0  0
   -0.3708    0.3088   -3.2665 C   0  0  0  0  0  0  0  0  0  0  0  0
    0.1073   -0.6146   -3.6008 H   0  0  0  0  0  0  0  0  0  0  0  0
   -1.2882    0.4644   -3.8361 H   0  0  0  0  0  0  0  0  0  0  0  0
    0.3144    1.1391   -3.4480 H   0  0  0  0  0  0  0  0  0  0  0  0
  5  6  2  0  0  0  0
  5  7  1  0  0  0  0
  2  3  1  0  0  0  0
  2  4  1  0  0  0  0
  2  5  1  0  0  0  0
  1  2  1  0  0  0  0
 24 25  2  0  0  0  0
 24 26  1  0  0  0  0
 20 21  1  0  0  0  0
 20 22  1  0  0  0  0
 20 23  1  0  0  0  0
 17 18  1  0  0  0  0
 17 19  1  0  0  0  0
 17 20  1  0  0  0  0
 13 14  1  0  0  0  0
 13 15  1  0  0  0  0
 13 16  1  0  0  0  0
 11 12  1  0  0  0  0
 11 13  1  0  0  0  0
 11 17  1  0  0  0  0
  9 10  1  0  0  0  0
  9 11  1  0  0  0  0
  9 24  1  0  0  0  0
  7  8  1  0  0  0  0
  7  9  1  0  0  0  0
 28 29  1  0  0  0  0
 28 30  1  0  0  0  0
 28 31  1  0  0  0  0
 26 27  1  0  0  0  0
 26 28  1  0  0  0  0
M  END
$$$$
default_name
  -OEChem-01062215323D

 31 30  0     1  0  0  0  0  0999 V2000
   -3.0760   -3.6390    1.5496 H   0  0  0  0  0  0  0  0  0  0  0  0
   -3.0940   -2.6290    1.1426 C   0  0  0  0  0  0  0  0  0  0  0  0
   -3.7160   -1.9930    1.7706 H   0  0  0  0  0  0  0  0  0  0  0  0
   -3.4880   -2.6500    0.1286 H   0  0  0  0  0  0  0  0  0  0  0  0
   -1.6860   -2.0850    1.1196 C   0  0  0  0  0  0  0  0  0  0  0  0
   -0.7540   -2.7700    1.5226 O   0  0  0  0  0  0  0  0  0  0  0  0
   -1.5320   -0.8490    0.6496 N   0  0  0  0  0  0  0  0  0  0  0  0
   -2.3500   -0.3360    0.3566 H   0  0  0  0  0  0  0  0  0  0  0  0
   -0.2470   -0.1410    0.5576 C   0  0  1  0  0  0  0  0  0  0  0  0
   -0.4149    0.8882    0.8769 H   0  0  0  0  0  0  0  0  0  0  0  0
    0.7866   -0.7755    1.5227 C   0  0  1  0  0  0  0  0  0  0  0  0
    0.8262   -1.8425    1.2953 H   0  0  0  0  0  0  0  0  0  0  0  0
    2.2031   -0.2017    1.3278 C   0  0  0  0  0  0  0  0  0  0  0  0
    2.2342    0.8505    1.6160 H   0  0  0  0  0  0  0  0  0  0  0  0
    2.9219   -0.7565    1.9287 H   0  0  0  0  0  0  0  0  0  0  0  0
    2.5044   -0.2893    0.2833 H   0  0  0  0  0  0  0  0  0  0  0  0
    0.3315   -0.6347    2.9926 C   0  0  0  0  0  0  0  0  0  0  0  0
    0.3749    0.4119    3.2970 H   0  0  0  0  0  0  0  0  0  0  0  0
   -0.7019   -0.9718    3.0735 H   0  0  0  0  0  0  0  0  0  0  0  0
    1.1629   -1.4664    3.9786 C   0  0  0  0  0  0  0  0  0  0  0  0
    2.1884   -1.0998    4.0182 H   0  0  0  0  0  0  0  0  0  0  0  0
    0.7269   -1.3847    4.9746 H   0  0  0  0  0  0  0  0  0  0  0  0
    1.1618   -2.5142    3.6763 H   0  0  0  0  0  0  0  0  0  0  0  0
    0.2331   -0.0992   -0.9020 C   0  0  0  0  0  0  0  0  0  0  0  0
    1.3028   -0.6175   -1.2189 O   0  0  0  0  0  0  0  0  0  0  0  0
   -0.5598    0.5077   -1.7942 N   0  0  0  0  0  0  0  0  0  0  0  0
   -1.4271    0.8998   -1.4629 H   0  0  0  0  0  0  0  0  0  0  0  0
   -0.2446    0.6364   -3.2156 C   0  0  0  0  0  0  0  0  0  0  0  0
   -0.0074   -0.3456   -3.6308 H   0  0  0  0  0  0  0  0  0  0  0  0
   -1.0937    1.0584   -3.7551 H   0  0  0  0  0  0  0  0  0  0  0  0
    0.6244    1.2850   -3.3418 H   0  0  0  0  0  0  0  0  0  0  0  0
  5  6  2  0  0  0  0
  5  7  1  0  0  0  0
  2  3  1  0  0  0  0
  2  4  1  0  0  0  0
  2  5  1  0  0  0  0
  1  2  1  0  0  0  0
 24 25  2  0  0  0  0
 24 26  1  0  0  0  0
 20 21  1  0  0  0  0
 20 22  1  0  0  0  0
 20 23  1  0  0  0  0
 17 18  1  0  0  0  0
 17 19  1  0  0  0  0
 17 20  1  0  0  0  0
 13 14  1  0  0  0  0
 13 15  1  0  0  0  0
 13 16  1  0  0  0  0
 11 12  1  0  0  0  0
 11 13  1  0  0  0  0
 11 17  1  0  0  0  0
  9 10  1  0  0  0  0
  9 11  1  0  0  0  0
  9 24  1  0  0  0  0
  7  8  1  0  0  0  0
  7  9  1  0  0  0  0
 28 29  1  0  0  0  0
 28 30  1  0  0  0  0
 28 31  1  0  0  0  0
 26 27  1  0  0  0  0
 26 28  1  0  0  0  0
M  END
$$$$
default_name
  -OEChem-01062215323D

 31 30  0     1  0  0  0  0  0999 V2000
   -3.0760   -3.6390    1.5496 H   0  0  0  0  0  0  0  0  0  0  0  0
   -3.0940   -2.6290    1.1426 C   0  0  0  0  0  0  0  0  0  0  0  0
   -3.7160   -1.9930    1.7706 H   0  0  0  0  0  0  0  0  0  0  0  0
   -3.4880   -2.6500    0.1286 H   0  0  0  0  0  0  0  0  0  0  0  0
   -1.6860   -2.0850    1.1196 C   0  0  0  0  0  0  0  0  0  0  0  0
   -0.7540   -2.7700    1.5226 O   0  0  0  0  0  0  0  0  0  0  0  0
   -1.5320   -0.8490    0.6496 N   0  0  0  0  0  0  0  0  0  0  0  0
   -2.3500   -0.3360    0.3566 H   0  0  0  0  0  0  0  0  0  0  0  0
   -0.2470   -0.1410    0.5576 C   0  0  1  0  0  0  0  0  0  0  0  0
   -0.4149    0.8882    0.8769 H   0  0  0  0  0  0  0  0  0  0  0  0
    0.7866   -0.7755    1.5227 C   0  0  1  0  0  0  0  0  0  0  0  0
    0.8262   -1.8425    1.2953 H   0  0  0  0  0  0  0  0  0  0  0  0
    2.2031   -0.2017    1.3278 C   0  0  0  0  0  0  0  0  0  0  0  0
    2.2342    0.8505    1.6160 H   0  0  0  0  0  0  0  0  0  0  0  0
    2.9219   -0.7565    1.9287 H   0  0  0  0  0  0  0  0  0  0  0  0
    2.5044   -0.2893    0.2833 H   0  0  0  0  0  0  0  0  0  0  0  0
    0.3315   -0.6347    2.9926 C   0  0  0  0  0  0  0  0  0  0  0  0
    0.3749    0.4119    3.2970 H   0  0  0  0  0  0  0  0  0  0  0  0
   -0.7019   -0.9718    3.0735 H   0  0  0  0  0  0  0  0  0  0  0  0
    1.1629   -1.4664    3.9786 C   0  0  0  0  0  0  0  0  0  0  0  0
    2.1884   -1.0998    4.0182 H   0  0  0  0  0  0  0  0  0  0  0  0
    0.7269   -1.3847    4.9746 H   0  0  0  0  0  0  0  0  0  0  0  0
    1.1618   -2.5142    3.6763 H   0  0  0  0  0  0  0  0  0  0  0  0
    0.2331   -0.0992   -0.9020 C   0  0  0  0  0  0  0  0  0  0  0  0
    1.1433   -0.8366   -1.2776 O   0  0  0  0  0  0  0  0  0  0  0  0
   -0.3833    0.7546   -1.7291 N   0  0  0  0  0  0  0  0  0  0  0  0
   -1.1285    1.3192   -1.3527 H   0  0  0  0  0  0  0  0  0  0  0  0
   -0.0418    0.9177   -3.1408 C   0  0  0  0  0  0  0  0  0  0  0  0
   -0.0522   -0.0551   -3.6373 H   0  0  0  0  0  0  0  0  0  0  0  0
   -0.7593    1.5779   -3.6302 H   0  0  0  0  0  0  0  0  0  0  0  0
    0.9604    1.3413   -3.2296 H   0  0  0  0  0  0  0  0  0  0  0  0
  5  6  2  0  0  0  0
  5  7  1  0  0  0  0
  2  3  1  0  0  0  0
  2  4  1  0  0  0  0
  2  5  1  0  0  0  0
  1  2  1  0  0  0  0
 24 25  2  0  0  0  0
 24 26  1  0  0  0  0
 20 21  1  0  0  0  0
 20 22  1  0  0  0  0
 20 23  1  0  0  0  0
 17 18  1  0  0  0  0
 17 19  1  0  0  0  0
 17 20  1  0  0  0  0
 13 14  1  0  0  0  0
 13 15  1  0  0  0  0
 13 16  1  0  0  0  0
 11 12  1  0  0  0  0
 11 13  1  0  0  0  0
 11 17  1  0  0  0  0
  9 10  1  0  0  0  0
  9 11  1  0  0  0  0
  9 24  1  0  0  0  0
  7  8  1  0  0  0  0
  7  9  1  0  0  0  0
 28 29  1  0  0  0  0
 28 30  1  0  0  0  0
 28 31  1  0  0  0  0
 26 27  1  0  0  0  0
 26 28  1  0  0  0  0
M  END
$$$$
default_name
  -OEChem-01062215323D

 31 30  0     1  0  0  0  0  0999 V2000
   -3.0760   -3.6390    1.5496 H   0  0  0  0  0  0  0  0  0  0  0  0
   -3.0940   -2.6290    1.1426 C   0  0  0  0  0  0  0  0  0  0  0  0
   -3.7160   -1.9930    1.7706 H   0  0  0  0  0  0  0  0  0  0  0  0
   -3.4880   -2.6500    0.1286 H   0  0  0  0  0  0  0  0  0  0  0  0
   -1.6860   -2.0850    1.1196 C   0  0  0  0  0  0  0  0  0  0  0  0
   -0.7540   -2.7700    1.5226 O   0  0  0  0  0  0  0  0  0  0  0  0
   -1.5320   -0.8490    0.6496 N   0  0  0  0  0  0  0  0  0  0  0  0
   -2.3500   -0.3360    0.3566 H   0  0  0  0  0  0  0  0  0  0  0  0
   -0.2470   -0.1410    0.5576 C   0  0  1  0  0  0  0  0  0  0  0  0
   -0.4149    0.8882    0.8769 H   0  0  0  0  0  0  0  0  0  0  0  0
    0.7866   -0.7755    1.5227 C   0  0  1  0  0  0  0  0  0  0  0  0
    0.8262   -1.8425    1.2953 H   0  0  0  0  0  0  0  0  0  0  0  0
    2.2031   -0.2017    1.3278 C   0  0  0  0  0  0  0  0  0  0  0  0
    2.2342    0.8505    1.6160 H   0  0  0  0  0  0  0  0  0  0  0  0
    2.9219   -0.7565    1.9287 H   0  0  0  0  0  0  0  0  0  0  0  0
    2.5044   -0.2893    0.2833 H   0  0  0  0  0  0  0  0  0  0  0  0
    0.3315   -0.6347    2.9926 C   0  0  0  0  0  0  0  0  0  0  0  0
    0.3749    0.4119    3.2970 H   0  0  0  0  0  0  0  0  0  0  0  0
   -0.7019   -0.9718    3.0735 H   0  0  0  0  0  0  0  0  0  0  0  0
    1.1629   -1.4664    3.9786 C   0  0  0  0  0  0  0  0  0  0  0  0
    2.1884   -1.0998    4.0182 H   0  0  0  0  0  0  0  0  0  0  0  0
    0.7269   -1.3847    4.9746 H   0  0  0  0  0  0  0  0  0  0  0  0
    1.1618   -2.5142    3.6763 H   0  0  0  0  0  0  0  0  0  0  0  0
    0.2331   -0.0992   -0.9020 C   0  0  0  0  0  0  0  0  0  0  0  0
    0.9351   -1.0042   -1.3509 O   0  0  0  0  0  0  0  0  0  0  0  0
   -0.1518    0.9445   -1.6475 N   0  0  0  0  0  0  0  0  0  0  0  0
   -0.7362    1.6420   -1.2144 H   0  0  0  0  0  0  0  0  0  0  0  0
    0.2238    1.1336   -3.0473 C   0  0  0  0  0  0  0  0  0  0  0  0
   -0.0242    0.2370   -3.6197 H   0  0  0  0  0  0  0  0  0  0  0  0
   -0.3077    1.9874   -3.4700 H   0  0  0  0  0  0  0  0  0  0  0  0
    1.2997    1.3039   -3.1191 H   0  0  0  0  0  0  0  0  0  0  0  0
  5  6  2  0  0  0  0
  5  7  1  0  0  0  0
  2  3  1  0  0  0  0
  2  4  1  0  0  0  0
  2  5  1  0  0  0  0
  1  2  1  0  0  0  0
 24 25  2  0  0  0  0
 24 26  1  0  0  0  0
 20 21  1  0  0  0  0
 20 22  1  0  0  0  0
 20 23  1  0  0  0  0
 17 18  1  0  0  0  0
 17 19  1  0  0  0  0
 17 20  1  0  0  0  0
 13 14  1  0  0  0  0
 13 15  1  0  0  0  0
 13 16  1  0  0  0  0
 11 12  1  0  0  0  0
 11 13  1  0  0  0  0
 11 17  1  0  0  0  0
  9 10  1  0  0  0  0
  9 11  1  0  0  0  0
  9 24  1  0  0  0  0
  7  8  1  0  0  0  0
  7  9  1  0  0  0  0
 28 29  1  0  0  0  0
 28 30  1  0  0  0  0
 28 31  1  0  0  0  0
 26 27  1  0  0  0  0
 26 28  1  0  0  0  0
M  END
$$$$
default_name
  -OEChem-01062215323D

 31 30  0     1  0  0  0  0  0999 V2000
   -3.0760   -3.6390    1.5496 H   0  0  0  0  0  0  0  0  0  0  0  0
   -3.0940   -2.6290    1.1426 C   0  0  0  0  0  0  0  0  0  0  0  0
   -3.7160   -1.9930    1.7706 H   0  0  0  0  0  0  0  0  0  0  0  0
   -3.4880   -2.6500    0.1286 H   0  0  0  0  0  0  0  0  0  0  0  0
   -1.6860   -2.0850    1.1196 C   0  0  0  0  0  0  0  0  0  0  0  0
   -0.7540   -2.7700    1.5226 O   0  0  0  0  0  0  0  0  0  0  0  0
   -1.5320   -0.8490    0.6496 N   0  0  0  0  0  0  0  0  0  0  0  0
   -2.3500   -0.3360    0.3566 H   0  0  0  0  0  0  0  0  0  0  0  0
   -0.2470   -0.1410    0.5576 C   0  0  1  0  0  0  0  0  0  0  0  0
   -0.4149    0.8882    0.8769 H   0  0  0  0  0  0  0  0  0  0  0  0
    0.7866   -0.7755    1.5227 C   0  0  1  0  0  0  0  0  0  0  0  0
    0.8262   -1.8425    1.2953 H   0  0  0  0  0  0  0  0  0  0  0  0
    2.2031   -0.2017    1.3278 C   0  0  0  0  0  0  0  0  0  0  0  0
    2.2342    0.8505    1.6160 H   0  0  0  0  0  0  0  0  0  0  0  0
    2.9219   -0.7565    1.9287 H   0  0  0  0  0  0  0  0  0  0  0  0
    2.5044   -0.2893    0.2833 H   0  0  0  0  0  0  0  0  0  0  0  0
    0.3315   -0.6347    2.9926 C   0  0  0  0  0  0  0  0  0  0  0  0
    0.3749    0.4119    3.2970 H   0  0  0  0  0  0  0  0  0  0  0  0
   -0.7019   -0.9718    3.0735 H   0  0  0  0  0  0  0  0  0  0  0  0
    1.1629   -1.4664    3.9786 C   0  0  0  0  0  0  0  0  0  0  0  0
    2.1884   -1.0998    4.0182 H   0  0  0  0  0  0  0  0  0  0  0  0
    0.7269   -1.3847    4.9746 H   0  0  0  0  0  0  0  0  0  0  0  0
    1.1618   -2.5142    3.6763 H   0  0  0  0  0  0  0  0  0  0  0  0
    0.2331   -0.0992   -0.9020 C   0  0  0  0  0  0  0  0  0  0  0  0
    0.6922   -1.1090   -1.4338 O   0  0  0  0  0  0  0  0  0  0  0  0
    0.1192    1.0643   -1.5549 N   0  0  0  0  0  0  0  0  0  0  0  0
   -0.2770    1.8462   -1.0575 H   0  0  0  0  0  0  0  0  0  0  0  0
    0.5340    1.2692   -2.9414 C   0  0  0  0  0  0  0  0  0  0  0  0
    0.0748    0.5108   -3.5793 H   0  0  0  0  0  0  0  0  0  0  0  0
    0.2302    2.2590   -3.2852 H   0  0  0  0  0  0  0  0  0  0  0  0
    1.6189    1.1755   -3.0178 H   0  0  0  0  0  0  0  0  0  0  0  0
  5  6  2  0  0  0  0
  5  7  1  0  0  0  0
  2  3  1  0  0  0  0
  2  4  1  0  0  0  0
  2  5  1  0  0  0  0
  1  2  1  0  0  0  0
 24 25  2  0  0  0  0
 24 26  1  0  0  0  0
 20 21  1  0  0  0  0
 20 22  1  0  0  0  0
 20 23  1  0  0  0  0
 17 18  1  0  0  0  0
 17 19  1  0  0  0  0
 17 20  1  0  0  0  0
 13 14  1  0  0  0  0
 13 15  1  0  0  0  0
 13 16  1  0  0  0  0
 11 12  1  0  0  0  0
 11 13  1  0  0  0  0
 11 17  1  0  0  0  0
  9 10  1  0  0  0  0
  9 11  1  0  0  0  0
  9 24  1  0  0  0  0
  7  8  1  0  0  0  0
  7  9  1  0  0  0  0
 28 29  1  0  0  0  0
 28 30  1  0  0  0  0
 28 31  1  0  0  0  0
 26 27  1  0  0  0  0
 26 28  1  0  0  0  0
M  END
$$$$
default_name
  -OEChem-01062215323D

 31 30  0     1  0  0  0  0  0999 V2000
   -3.0760   -3.6390    1.5496 H   0  0  0  0  0  0  0  0  0  0  0  0
   -3.0940   -2.6290    1.1426 C   0  0  0  0  0  0  0  0  0  0  0  0
   -3.7160   -1.9930    1.7706 H   0  0  0  0  0  0  0  0  0  0  0  0
   -3.4880   -2.6500    0.1286 H   0  0  0  0  0  0  0  0  0  0  0  0
   -1.6860   -2.0850    1.1196 C   0  0  0  0  0  0  0  0  0  0  0  0
   -0.7540   -2.7700    1.5226 O   0  0  0  0  0  0  0  0  0  0  0  0
   -1.5320   -0.8490    0.6496 N   0  0  0  0  0  0  0  0  0  0  0  0
   -2.3500   -0.3360    0.3566 H   0  0  0  0  0  0  0  0  0  0  0  0
   -0.2470   -0.1410    0.5576 C   0  0  1  0  0  0  0  0  0  0  0  0
   -0.4149    0.8882    0.8769 H   0  0  0  0  0  0  0  0  0  0  0  0
    0.7866   -0.7755    1.5227 C   0  0  1  0  0  0  0  0  0  0  0  0
    0.8262   -1.8425    1.2953 H   0  0  0  0  0  0  0  0  0  0  0  0
    2.2031   -0.2017    1.3278 C   0  0  0  0  0  0  0  0  0  0  0  0
    2.2342    0.8505    1.6160 H   0  0  0  0  0  0  0  0  0  0  0  0
    2.9219   -0.7565    1.9287 H   0  0  0  0  0  0  0  0  0  0  0  0
    2.5044   -0.2893    0.2833 H   0  0  0  0  0  0  0  0  0  0  0  0
    0.3315   -0.6347    2.9926 C   0  0  0  0  0  0  0  0  0  0  0  0
    0.3749    0.4119    3.2970 H   0  0  0  0  0  0  0  0  0  0  0  0
   -0.7019   -0.9718    3.0735 H   0  0  0  0  0  0  0  0  0  0  0  0
    1.1629   -1.4664    3.9786 C   0  0  0  0  0  0  0  0  0  0  0  0
    2.1884   -1.0998    4.0182 H   0  0  0  0  0  0  0  0  0  0  0  0
    0.7269   -1.3847    4.9746 H   0  0  0  0  0  0  0  0  0  0  0  0
    1.1618   -2.5142    3.6763 H   0  0  0  0  0  0  0  0  0  0  0  0
    0.2331   -0.0992   -0.9020 C   0  0  0  0  0  0  0  0  0  0  0  0
    0.4312   -1.1439   -1.5206 O   0  0  0  0  0  0  0  0  0  0  0  0
    0.4110    1.1061   -1.4577 N   0  0  0  0  0  0  0  0  0  0  0  0
    0.2178    1.9179   -0.8927 H   0  0  0  0  0  0  0  0  0  0  0  0
    0.8677    1.3154   -2.8302 C   0  0  0  0  0  0  0  0  0  0  0  0
    0.2380    0.7477   -3.5188 H   0  0  0  0  0  0  0  0  0  0  0  0
    0.8179    2.3742   -3.0886 H   0  0  0  0  0  0  0  0  0  0  0  0
    1.8965    0.9649   -2.9325 H   0  0  0  0  0  0  0  0  0  0  0  0
  5  6  2  0  0  0  0
  5  7  1  0  0  0  0
  2  3  1  0  0  0  0
  2  4  1  0  0  0  0
  2  5  1  0  0  0  0
  1  2  1  0  0  0  0
 24 25  2  0  0  0  0
 24 26  1  0  0  0  0
 20 21  1  0  0  0  0
 20 22  1  0  0  0  0
 20 23  1  0  0  0  0
 17 18  1  0  0  0  0
 17 19  1  0  0  0  0
 17 20  1  0  0  0  0
 13 14  1  0  0  0  0
 13 15  1  0  0  0  0
 13 16  1  0  0  0  0
 11 12  1  0  0  0  0
 11 13  1  0  0  0  0
 11 17  1  0  0  0  0
  9 10  1  0  0  0  0
  9 11  1  0  0  0  0
  9 24  1  0  0  0  0
  7  8  1  0  0  0  0
  7  9  1  0  0  0  0
 28 29  1  0  0  0  0
 28 30  1  0  0  0  0
 28 31  1  0  0  0  0
 26 27  1  0  0  0  0
 26 28  1  0  0  0  0
M  END
$$$$
default_name
  -OEChem-01062215323D

 31 30  0     1  0  0  0  0  0999 V2000
   -3.0760   -3.6390    1.5496 H   0  0  0  0  0  0  0  0  0  0  0  0
   -3.0940   -2.6290    1.1426 C   0  0  0  0  0  0  0  0  0  0  0  0
   -3.7160   -1.9930    1.7706 H   0  0  0  0  0  0  0  0  0  0  0  0
   -3.4880   -2.6500    0.1286 H   0  0  0  0  0  0  0  0  0  0  0  0
   -1.6860   -2.0850    1.1196 C   0  0  0  0  0  0  0  0  0  0  0  0
   -0.7540   -2.7700    1.5226 O   0  0  0  0  0  0  0  0  0  0  0  0
   -1.5320   -0.8490    0.6496 N   0  0  0  0  0  0  0  0  0  0  0  0
   -2.3500   -0.3360    0.3566 H   0  0  0  0  0  0  0  0  0  0  0  0
   -0.2470   -0.1410    0.5576 C   0  0  1  0  0  0  0  0  0  0  0  0
   -0.4149    0.8882    0.8769 H   0  0  0  0  0  0  0  0  0  0  0  0
    0.7866   -0.7755    1.5227 C   0  0  1  0  0  0  0  0  0  0  0  0
    0.8262   -1.8425    1.2953 H   0  0  0  0  0  0  0  0  0  0  0  0
    2.2031   -0.2017    1.3278 C   0  0  0  0  0  0  0  0  0  0  0  0
    2.2342    0.8505    1.6160 H   0  0  0  0  0  0  0  0  0  0  0  0
    2.9219   -0.7565    1.9287 H   0  0  0  0  0  0  0  0  0  0  0  0
    2.5044   -0.2893    0.2833 H   0  0  0  0  0  0  0  0  0  0  0  0
    0.3315   -0.6347    2.9926 C   0  0  0  0  0  0  0  0  0  0  0  0
    0.3749    0.4119    3.2970 H   0  0  0  0  0  0  0  0  0  0  0  0
   -0.7019   -0.9718    3.0735 H   0  0  0  0  0  0  0  0  0  0  0  0
    1.1629   -1.4664    3.9786 C   0  0  0  0  0  0  0  0  0  0  0  0
    2.1884   -1.0998    4.0182 H   0  0  0  0  0  0  0  0  0  0  0  0
    0.7269   -1.3847    4.9746 H   0  0  0  0  0  0  0  0  0  0  0  0
    1.1618   -2.5142    3.6763 H   0  0  0  0  0  0  0  0  0  0  0  0
    0.2331   -0.0992   -0.9020 C   0  0  0  0  0  0  0  0  0  0  0  0
    0.1700   -1.1064   -1.6055 O   0  0  0  0  0  0  0  0  0  0  0  0
    0.7038    1.0668   -1.3625 N   0  0  0  0  0  0  0  0  0  0  0  0
    0.7146    1.8522   -0.7311 H   0  0  0  0  0  0  0  0  0  0  0  0
    1.2022    1.2691   -2.7215 C   0  0  0  0  0  0  0  0  0  0  0  0
    0.4543    0.9315   -3.4424 H   0  0  0  0  0  0  0  0  0  0  0  0
    1.4152    2.3252   -2.8935 H   0  0  0  0  0  0  0  0  0  0  0  0
    2.1134    0.6863   -2.8691 H   0  0  0  0  0  0  0  0  0  0  0  0
  5  6  2  0  0  0  0
  5  7  1  0  0  0  0
  2  3  1  0  0  0  0
  2  4  1  0  0  0  0
  2  5  1  0  0  0  0
  1  2  1  0  0  0  0
 24 25  2  0  0  0  0
 24 26  1  0  0  0  0
 20 21  1  0  0  0  0
 20 22  1  0  0  0  0
 20 23  1  0  0  0  0
 17 18  1  0  0  0  0
 17 19  1  0  0  0  0
 17 20  1  0  0  0  0
 13 14  1  0  0  0  0
 13 15  1  0  0  0  0
 13 16  1  0  0  0  0
 11 12  1  0  0  0  0
 11 13  1  0  0  0  0
 11 17  1  0  0  0  0
  9 10  1  0  0  0  0
  9 11  1  0  0  0  0
  9 24  1  0  0  0  0
  7  8  1  0  0  0  0
  7  9  1  0  0  0  0
 28 29  1  0  0  0  0
 28 30  1  0  0  0  0
 28 31  1  0  0  0  0
 26 27  1  0  0  0  0
 26 28  1  0  0  0  0
M  END
$$$$
default_name
  -OEChem-01062215323D

 31 30  0     1  0  0  0  0  0999 V2000
   -3.0760   -3.6390    1.5496 H   0  0  0  0  0  0  0  0  0  0  0  0
   -3.0940   -2.6290    1.1426 C   0  0  0  0  0  0  0  0  0  0  0  0
   -3.7160   -1.9930    1.7706 H   0  0  0  0  0  0  0  0  0  0  0  0
   -3.4880   -2.6500    0.1286 H   0  0  0  0  0  0  0  0  0  0  0  0
   -1.6860   -2.0850    1.1196 C   0  0  0  0  0  0  0  0  0  0  0  0
   -0.7540   -2.7700    1.5226 O   0  0  0  0  0  0  0  0  0  0  0  0
   -1.5320   -0.8490    0.6496 N   0  0  0  0  0  0  0  0  0  0  0  0
   -2.3500   -0.3360    0.3566 H   0  0  0  0  0  0  0  0  0  0  0  0
   -0.2470   -0.1410    0.5576 C   0  0  1  0  0  0  0  0  0  0  0  0
   -0.4149    0.8882    0.8769 H   0  0  0  0  0  0  0  0  0  0  0  0
    0.7866   -0.7755    1.5227 C   0  0  1  0  0  0  0  0  0  0  0  0
    0.8262   -1.8425    1.2953 H   0  0  0  0  0  0  0  0  0  0  0  0
    2.2031   -0.2017    1.3278 C   0  0  0  0  0  0  0  0  0  0  0  0
    2.2342    0.8505    1.6160 H   0  0  0  0  0  0  0  0  0  0  0  0
    2.9219   -0.7565    1.9287 H   0  0  0  0  0  0  0  0  0  0  0  0
    2.5044   -0.2893    0.2833 H   0  0  0  0  0  0  0  0  0  0  0  0
    0.3315   -0.6347    2.9926 C   0  0  0  0  0  0  0  0  0  0  0  0
    0.3749    0.4119    3.2970 H   0  0  0  0  0  0  0  0  0  0  0  0
   -0.7019   -0.9718    3.0735 H   0  0  0  0  0  0  0  0  0  0  0  0
    1.1629   -1.4664    3.9786 C   0  0  0  0  0  0  0  0  0  0  0  0
    2.1884   -1.0998    4.0182 H   0  0  0  0  0  0  0  0  0  0  0  0
    0.7269   -1.3847    4.9746 H   0  0  0  0  0  0  0  0  0  0  0  0
    1.1618   -2.5142    3.6763 H   0  0  0  0  0  0  0  0  0  0  0  0
    0.2331   -0.0992   -0.9020 C   0  0  0  0  0  0  0  0  0  0  0  0
   -0.0737   -0.9991   -1.6826 O   0  0  0  0  0  0  0  0  0  0  0  0
    0.9776    0.9492   -1.2758 N   0  0  0  0  0  0  0  0  0  0  0  0
    1.1794    1.6536   -0.5839 H   0  0  0  0  0  0  0  0  0  0  0  0
    1.5147    1.1333   -2.6226 C   0  0  0  0  0  0  0  0  0  0  0  0
    0.7089    1.0498   -3.3552 H   0  0  0  0  0  0  0  0  0  0  0  0
    1.9815    2.1152   -2.7132 H   0  0  0  0  0  0  0  0  0  0  0  0
    2.2549    0.3587   -2.8319 H   0  0  0  0  0  0  0  0  0  0  0  0
  5  6  2  0  0  0  0
  5  7  1  0  0  0  0
  2  3  1  0  0  0  0
  2  4  1  0  0  0  0
  2  5  1  0  0  0  0
  1  2  1  0  0  0  0
 24 25  2  0  0  0  0
 24 26  1  0  0  0  0
 20 21  1  0  0  0  0
 20 22  1  0  0  0  0
 20 23  1  0  0  0  0
 17 18  1  0  0  0  0
 17 19  1  0  0  0  0
 17 20  1  0  0  0  0
 13 14  1  0  0  0  0
 13 15  1  0  0  0  0
 13 16  1  0  0  0  0
 11 12  1  0  0  0  0
 11 13  1  0  0  0  0
 11 17  1  0  0  0  0
  9 10  1  0  0  0  0
  9 11  1  0  0  0  0
  9 24  1  0  0  0  0
  7  8  1  0  0  0  0
  7  9  1  0  0  0  0
 28 29  1  0  0  0  0
 28 30  1  0  0  0  0
 28 31  1  0  0  0  0
 26 27  1  0  0  0  0
 26 28  1  0  0  0  0
M  END
$$$$
default_name
  -OEChem-01062215323D

 31 30  0     1  0  0  0  0  0999 V2000
   -3.0760   -3.6390    1.5496 H   0  0  0  0  0  0  0  0  0  0  0  0
   -3.0940   -2.6290    1.1426 C   0  0  0  0  0  0  0  0  0  0  0  0
   -3.7160   -1.9930    1.7706 H   0  0  0  0  0  0  0  0  0  0  0  0
   -3.4880   -2.6500    0.1286 H   0  0  0  0  0  0  0  0  0  0  0  0
   -1.6860   -2.0850    1.1196 C   0  0  0  0  0  0  0  0  0  0  0  0
   -0.7540   -2.7700    1.5226 O   0  0  0  0  0  0  0  0  0  0  0  0
   -1.5320   -0.8490    0.6496 N   0  0  0  0  0  0  0  0  0  0  0  0
   -2.3500   -0.3360    0.3566 H   0  0  0  0  0  0  0  0  0  0  0  0
   -0.2470   -0.1410    0.5576 C   0  0  1  0  0  0  0  0  0  0  0  0
   -0.4149    0.8882    0.8769 H   0  0  0  0  0  0  0  0  0  0  0  0
    0.7866   -0.7755    1.5227 C   0  0  1  0  0  0  0  0  0  0  0  0
    0.8262   -1.8425    1.2953 H   0  0  0  0  0  0  0  0  0  0  0  0
    2.2031   -0.2017    1.3278 C   0  0  0  0  0  0  0  0  0  0  0  0
    2.2342    0.8505    1.6160 H   0  0  0  0  0  0  0  0  0  0  0  0
    2.9219   -0.7565    1.9287 H   0  0  0  0  0  0  0  0  0  0  0  0
    2.5044   -0.2893    0.2833 H   0  0  0  0  0  0  0  0  0  0  0  0
    0.3315   -0.6347    2.9926 C   0  0  0  0  0  0  0  0  0  0  0  0
    0.3749    0.4119    3.2970 H   0  0  0  0  0  0  0  0  0  0  0  0
   -0.7019   -0.9718    3.0735 H   0  0  0  0  0  0  0  0  0  0  0  0
    1.1629   -1.4664    3.9786 C   0  0  0  0  0  0  0  0  0  0  0  0
    2.1884   -1.0998    4.0182 H   0  0  0  0  0  0  0  0  0  0  0  0
    0.7269   -1.3847    4.9746 H   0  0  0  0  0  0  0  0  0  0  0  0
    1.1618   -2.5142    3.6763 H   0  0  0  0  0  0  0  0  0  0  0  0
    0.2331   -0.0992   -0.9020 C   0  0  0  0  0  0  0  0  0  0  0  0
   -0.2833   -0.8293   -1.7467 O   0  0  0  0  0  0  0  0  0  0  0  0
    1.2138    0.7613   -1.2035 N   0  0  0  0  0  0  0  0  0  0  0  0
    1.5806    1.3356   -0.4610 H   0  0  0  0  0  0  0  0  0  0  0  0
    1.7838    0.9174   -2.5403 C   0  0  0  0  0  0  0  0  0  0  0  0
    0.9845    1.0944   -3.2633 H   0  0  0  0  0  0  0  0  0  0  0  0
    2.4782    1.7586   -2.5600 H   0  0  0  0  0  0  0  0  0  0  0  0
    2.3113    0.0045   -2.8235 H   0  0  0  0  0  0  0  0  0  0  0  0
  5  6  2  0  0  0  0
  5  7  1  0  0  0  0
  2  3  1  0  0  0  0
  2  4  1  0  0  0  0
  2  5  1  0  0  0  0
  1  2  1  0  0  0  0
 24 25  2  0  0  0  0
 24 26  1  0  0  0  0
 20 21  1  0  0  0  0
 20 22  1  0  0  0  0
 20 23  1  0  0  0  0
 17 18  1  0  0  0  0
 17 19  1  0  0  0  0
 17 20  1  0  0  0  0
 13 14  1  0  0  0  0
 13 15  1  0  0  0  0
 13 16  1  0  0  0  0
 11 12  1  0  0  0  0
 11 13  1  0  0  0  0
 11 17  1  0  0  0  0
  9 10  1  0  0  0  0
  9 11  1  0  0  0  0
  9 24  1  0  0  0  0
  7  8  1  0  0  0  0
  7  9  1  0  0  0  0
 28 29  1  0  0  0  0
 28 30  1  0  0  0  0
 28 31  1  0  0  0  0
 26 27  1  0  0  0  0
 26 28  1  0  0  0  0
M  END
$$$$
default_name
  -OEChem-01062215323D

 31 30  0     1  0  0  0  0  0999 V2000
   -3.0760   -3.6390    1.5496 H   0  0  0  0  0  0  0  0  0  0  0  0
   -3.0940   -2.6290    1.1426 C   0  0  0  0  0  0  0  0  0  0  0  0
   -3.7160   -1.9930    1.7706 H   0  0  0  0  0  0  0  0  0  0  0  0
   -3.4880   -2.6500    0.1286 H   0  0  0  0  0  0  0  0  0  0  0  0
   -1.6860   -2.0850    1.1196 C   0  0  0  0  0  0  0  0  0  0  0  0
   -0.7540   -2.7700    1.5226 O   0  0  0  0  0  0  0  0  0  0  0  0
   -1.5320   -0.8490    0.6496 N   0  0  0  0  0  0  0  0  0  0  0  0
   -2.3500   -0.3360    0.3566 H   0  0  0  0  0  0  0  0  0  0  0  0
   -0.2470   -0.1410    0.5576 C   0  0  1  0  0  0  0  0  0  0  0  0
   -0.3429    0.7890    1.1191 H   0  0  0  0  0  0  0  0  0  0  0  0
    0.8774   -0.9801    1.2163 C   0  0  1  0  0  0  0  0  0  0  0  0
    0.8562   -1.9676    0.7513 H   0  0  0  0  0  0  0  0  0  0  0  0
    2.2761   -0.3797    0.9780 C   0  0  0  0  0  0  0  0  0  0  0  0
    2.3745    0.5794    1.4895 H   0  0  0  0  0  0  0  0  0  0  0  0
    3.0460   -1.0579    1.3426 H   0  0  0  0  0  0  0  0  0  0  0  0
    2.4441   -0.2282   -0.0889 H   0  0  0  0  0  0  0  0  0  0  0  0
    0.6107   -1.1762    2.7256 C   0  0  0  0  0  0  0  0  0  0  0  0
    0.7231   -0.2263    3.2499 H   0  0  0  0  0  0  0  0  0  0  0  0
   -0.4147   -1.5210    2.8586 H   0  0  0  0  0  0  0  0  0  0  0  0
    1.5311   -2.2118    3.3856 C   0  0  0  0  0  0  0  0  0  0  0  0
    2.5645   -1.8657    3.3766 H   0  0  0  0  0  0  0  0  0  0  0  0
    1.2235   -2.3578    4.4213 H   0  0  0  0  0  0  0  0  0  0  0  0
    1.4610   -3.1635    2.8577 H   0  0  0  0  0  0  0  0  0  0  0  0
    0.0513    0.2305   -0.9038 C   0  0  0  0  0  0  0  0  0  0  0  0
   -0.7458   -0.0617   -1.7940 O   0  0  0  0  0  0  0  0  0  0  0  0
    1.1935    0.8838   -1.1525 N   0  0  0  0  0  0  0  0  0  0  0  0
    1.7921    1.0992   -0.3709 H   0  0  0  0  0  0  0  0  0  0  0  0
    1.6241    1.3019   -2.4852 C   0  0  0  0  0  0  0  0  0  0  0  0
    0.8289    1.8758   -2.9662 H   0  0  0  0  0  0  0  0  0  0  0  0
    2.5211    1.9191   -2.4171 H   0  0  0  0  0  0  0  0  0  0  0  0
    1.8344    0.4219   -3.0960 H   0  0  0  0  0  0  0  0  0  0  0  0
  5  6  2  0  0  0  0
  5  7  1  0  0  0  0
  2  3  1  0  0  0  0
  2  4  1  0  0  0  0
  2  5  1  0  0  0  0
  1  2  1  0  0  0  0
 24 25  2  0  0  0  0
 24 26  1  0  0  0  0
 20 21  1  0  0  0  0
 20 22  1  0  0  0  0
 20 23  1  0  0  0  0
 17 18  1  0  0  0  0
 17 19  1  0  0  0  0
 17 20  1  0  0  0  0
 13 14  1  0  0  0  0
 13 15  1  0  0  0  0
 13 16  1  0  0  0  0
 11 12  1  0  0  0  0
 11 13  1  0  0  0  0
 11 17  1  0  0  0  0
  9 10  1  0  0  0  0
  9 11  1  0  0  0  0
  9 24  1  0  0  0  0
  7  8  1  0  0  0  0
  7  9  1  0  0  0  0
 28 29  1  0  0  0  0
 28 30  1  0  0  0  0
 28 31  1  0  0  0  0
 26 27  1  0  0  0  0
 26 28  1  0  0  0  0
M  END
$$$$
default_name
  -OEChem-01062215323D

 31 30  0     1  0  0  0  0  0999 V2000
   -3.0760   -3.6390    1.5496 H   0  0  0  0  0  0  0  0  0  0  0  0
   -3.0940   -2.6290    1.1426 C   0  0  0  0  0  0  0  0  0  0  0  0
   -3.7160   -1.9930    1.7706 H   0  0  0  0  0  0  0  0  0  0  0  0
   -3.4880   -2.6500    0.1286 H   0  0  0  0  0  0  0  0  0  0  0  0
   -1.6860   -2.0850    1.1196 C   0  0  0  0  0  0  0  0  0  0  0  0
   -0.7540   -2.7700    1.5226 O   0  0  0  0  0  0  0  0  0  0  0  0
   -1.5320   -0.8490    0.6496 N   0  0  0  0  0  0  0  0  0  0  0  0
   -2.3500   -0.3360    0.3566 H   0  0  0  0  0  0  0  0  0  0  0  0
   -0.2470   -0.1410    0.5576 C   0  0  1  0  0  0  0  0  0  0  0  0
   -0.3429    0.7890    1.1191 H   0  0  0  0  0  0  0  0  0  0  0  0
    0.8774   -0.9801    1.2163 C   0  0  1  0  0  0  0  0  0  0  0  0
    0.8562   -1.9676    0.7513 H   0  0  0  0  0  0  0  0  0  0  0  0
    2.2761   -0.3797    0.9780 C   0  0  0  0  0  0  0  0  0  0  0  0
    2.3745    0.5794    1.4895 H   0  0  0  0  0  0  0  0  0  0  0  0
    3.0460   -1.0579    1.3426 H   0  0  0  0  0  0  0  0  0  0  0  0
    2.4441   -0.2282   -0.0889 H   0  0  0  0  0  0  0  0  0  0  0  0
    0.6107   -1.1762    2.7256 C   0  0  0  0  0  0  0  0  0  0  0  0
    0.7231   -0.2263    3.2499 H   0  0  0  0  0  0  0  0  0  0  0  0
   -0.4147   -1.5210    2.8586 H   0  0  0  0  0  0  0  0  0  0  0  0
    1.5311   -2.2118    3.3856 C   0  0  0  0  0  0  0  0  0  0  0  0
    2.5645   -1.8657    3.3766 H   0  0  0  0  0  0  0  0  0  0  0  0
    1.2235   -2.3578    4.4213 H   0  0  0  0  0  0  0  0  0  0  0  0
    1.4610   -3.1635    2.8577 H   0  0  0  0  0  0  0  0  0  0  0  0
    0.0513    0.2305   -0.9038 C   0  0  0  0  0  0  0  0  0  0  0  0
   -0.8422    0.1942   -1.7486 O   0  0  0  0  0  0  0  0  0  0  0  0
    1.3038    0.5981   -1.2026 N   0  0  0  0  0  0  0  0  0  0  0  0
    1.9801    0.6149   -0.4556 H   0  0  0  0  0  0  0  0  0  0  0  0
    1.7489    0.9749   -2.5428 C   0  0  0  0  0  0  0  0  0  0  0  0
    1.0949    1.7527   -2.9432 H   0  0  0  0  0  0  0  0  0  0  0  0
    2.7732    1.3490   -2.5105 H   0  0  0  0  0  0  0  0  0  0  0  0
    1.7000    0.1072   -3.2035 H   0  0  0  0  0  0  0  0  0  0  0  0
  5  6  2  0  0  0  0
  5  7  1  0  0  0  0
  2  3  1  0  0  0  0
  2  4  1  0  0  0  0
  2  5  1  0  0  0  0
  1  2  1  0  0  0  0
 24 25  2  0  0  0  0
 24 26  1  0  0  0  0
 20 21  1  0  0  0  0
 20 22  1  0  0  0  0
 20 23  1  0  0  0  0
 17 18  1  0  0  0  0
 17 19  1  0  0  0  0
 17 20  1  0  0  0  0
 13 14  1  0  0  0  0
 13 15  1  0  0  0  0
 13 16  1  0  0  0  0
 11 12  1  0  0  0  0
 11 13  1  0  0  0  0
 11 17  1  0  0  0  0
  9 10  1  0  0  0  0
  9 11  1  0  0  0  0
  9 24  1  0  0  0  0
  7  8  1  0  0  0  0
  7  9  1  0  0  0  0
 28 29  1  0  0  0  0
 28 30  1  0  0  0  0
 28 31  1  0  0  0  0
 26 27  1  0  0  0  0
 26 28  1  0  0  0  0
M  END
$$$$
default_name
  -OEChem-01062215323D

 31 30  0     1  0  0  0  0  0999 V2000
   -3.0760   -3.6390    1.5496 H   0  0  0  0  0  0  0  0  0  0  0  0
   -3.0940   -2.6290    1.1426 C   0  0  0  0  0  0  0  0  0  0  0  0
   -3.7160   -1.9930    1.7706 H   0  0  0  0  0  0  0  0  0  0  0  0
   -3.4880   -2.6500    0.1286 H   0  0  0  0  0  0  0  0  0  0  0  0
   -1.6860   -2.0850    1.1196 C   0  0  0  0  0  0  0  0  0  0  0  0
   -0.7540   -2.7700    1.5226 O   0  0  0  0  0  0  0  0  0  0  0  0
   -1.5320   -0.8490    0.6496 N   0  0  0  0  0  0  0  0  0  0  0  0
   -2.3500   -0.3360    0.3566 H   0  0  0  0  0  0  0  0  0  0  0  0
   -0.2470   -0.1410    0.5576 C   0  0  1  0  0  0  0  0  0  0  0  0
   -0.3429    0.7890    1.1191 H   0  0  0  0  0  0  0  0  0  0  0  0
    0.8774   -0.9801    1.2163 C   0  0  1  0  0  0  0  0  0  0  0  0
    0.8562   -1.9676    0.7513 H   0  0  0  0  0  0  0  0  0  0  0  0
    2.2761   -0.3797    0.9780 C   0  0  0  0  0  0  0  0  0  0  0  0
    2.3745    0.5794    1.4895 H   0  0  0  0  0  0  0  0  0  0  0  0
    3.0460   -1.0579    1.3426 H   0  0  0  0  0  0  0  0  0  0  0  0
    2.4441   -0.2282   -0.0889 H   0  0  0  0  0  0  0  0  0  0  0  0
    0.6107   -1.1762    2.7256 C   0  0  0  0  0  0  0  0  0  0  0  0
    0.7231   -0.2263    3.2499 H   0  0  0  0  0  0  0  0  0  0  0  0
   -0.4147   -1.5210    2.8586 H   0  0  0  0  0  0  0  0  0  0  0  0
    1.5311   -2.2118    3.3856 C   0  0  0  0  0  0  0  0  0  0  0  0
    2.5645   -1.8657    3.3766 H   0  0  0  0  0  0  0  0  0  0  0  0
    1.2235   -2.3578    4.4213 H   0  0  0  0  0  0  0  0  0  0  0  0
    1.4610   -3.1635    2.8577 H   0  0  0  0  0  0  0  0  0  0  0  0
    0.0513    0.2305   -0.9038 C   0  0  0  0  0  0  0  0  0  0  0  0
   -0.8694    0.4629   -1.6858 O   0  0  0  0  0  0  0  0  0  0  0  0
    1.3370    0.2974   -1.2722 N   0  0  0  0  0  0  0  0  0  0  0  0
    2.0373    0.1050   -0.5736 H   0  0  0  0  0  0  0  0  0  0  0  0
    1.7853    0.6311   -2.6227 C   0  0  0  0  0  0  0  0  0  0  0  0
    1.3229    1.5671   -2.9438 H   0  0  0  0  0  0  0  0  0  0  0  0
    2.8705    0.7410   -2.6452 H   0  0  0  0  0  0  0  0  0  0  0  0
    1.4860   -0.1584   -3.3147 H   0  0  0  0  0  0  0  0  0  0  0  0
  5  6  2  0  0  0  0
  5  7  1  0  0  0  0
  2  3  1  0  0  0  0
  2  4  1  0  0  0  0
  2  5  1  0  0  0  0
  1  2  1  0  0  0  0
 24 25  2  0  0  0  0
 24 26  1  0  0  0  0
 20 21  1  0  0  0  0
 20 22  1  0  0  0  0
 20 23  1  0  0  0  0
 17 18  1  0  0  0  0
 17 19  1  0  0  0  0
 17 20  1  0  0  0  0
 13 14  1  0  0  0  0
 13 15  1  0  0  0  0
 13 16  1  0  0  0  0
 11 12  1  0  0  0  0
 11 13  1  0  0  0  0
 11 17  1  0  0  0  0
  9 10  1  0  0  0  0
  9 11  1  0  0  0  0
  9 24  1  0  0  0  0
  7  8  1  0  0  0  0
  7  9  1  0  0  0  0
 28 29  1  0  0  0  0
 28 30  1  0  0  0  0
 28 31  1  0  0  0  0
 26 27  1  0  0  0  0
 26 28  1  0  0  0  0
M  END
$$$$
default_name
  -OEChem-01062215323D

 31 30  0     1  0  0  0  0  0999 V2000
   -3.0760   -3.6390    1.5496 H   0  0  0  0  0  0  0  0  0  0  0  0
   -3.0940   -2.6290    1.1426 C   0  0  0  0  0  0  0  0  0  0  0  0
   -3.7160   -1.9930    1.7706 H   0  0  0  0  0  0  0  0  0  0  0  0
   -3.4880   -2.6500    0.1286 H   0  0  0  0  0  0  0  0  0  0  0  0
   -1.6860   -2.0850    1.1196 C   0  0  0  0  0  0  0  0  0  0  0  0
   -0.7540   -2.7700    1.5226 O   0  0  0  0  0  0  0  0  0  0  0  0
   -1.5320   -0.8490    0.6496 N   0  0  0  0  0  0  0  0  0  0  0  0
   -2.3500   -0.3360    0.3566 H   0  0  0  0  0  0  0  0  0  0  0  0
   -0.2470   -0.1410    0.5576 C   0  0  1  0  0  0  0  0  0  0  0  0
   -0.3429    0.7890    1.1191 H   0  0  0  0  0  0  0  0  0  0  0  0
    0.8774   -0.9801    1.2163 C   0  0  1  0  0  0  0  0  0  0  0  0
    0.8562   -1.9676    0.7513 H   0  0  0  0  0  0  0  0  0  0  0  0
    2.2761   -0.3797    0.9780 C   0  0  0  0  0  0  0  0  0  0  0  0
    2.3745    0.5794    1.4895 H   0  0  0  0  0  0  0  0  0  0  0  0
    3.0460   -1.0579    1.3426 H   0  0  0  0  0  0  0  0  0  0  0  0
    2.4441   -0.2282   -0.0889 H   0  0  0  0  0  0  0  0  0  0  0  0
    0.6107   -1.1762    2.7256 C   0  0  0  0  0  0  0  0  0  0  0  0
    0.7231   -0.2263    3.2499 H   0  0  0  0  0  0  0  0  0  0  0  0
   -0.4147   -1.5210    2.8586 H   0  0  0  0  0  0  0  0  0  0  0  0
    1.5311   -2.2118    3.3856 C   0  0  0  0  0  0  0  0  0  0  0  0
    2.5645   -1.8657    3.3766 H   0  0  0  0  0  0  0  0  0  0  0  0
    1.2235   -2.3578    4.4213 H   0  0  0  0  0  0  0  0  0  0  0  0
    1.4610   -3.1635    2.8577 H   0  0  0  0  0  0  0  0  0  0  0  0
    0.0513    0.2305   -0.9038 C   0  0  0  0  0  0  0  0  0  0  0  0
   -0.8257    0.7259   -1.6100 O   0  0  0  0  0  0  0  0  0  0  0  0
    1.2907    0.0024   -1.3567 N   0  0  0  0  0  0  0  0  0  0  0  0
    1.9597   -0.3957   -0.7167 H   0  0  0  0  0  0  0  0  0  0  0  0
    1.7310    0.2942   -2.7195 C   0  0  0  0  0  0  0  0  0  0  0  0
    1.4974    1.3318   -2.9680 H   0  0  0  0  0  0  0  0  0  0  0  0
    2.8065    0.1365   -2.8119 H   0  0  0  0  0  0  0  0  0  0  0  0
    1.2070   -0.3567   -3.4220 H   0  0  0  0  0  0  0  0  0  0  0  0
  5  6  2  0  0  0  0
  5  7  1  0  0  0  0
  2  3  1  0  0  0  0
  2  4  1  0  0  0  0
  2  5  1  0  0  0  0
  1  2  1  0  0  0  0
 24 25  2  0  0  0  0
 24 26  1  0  0  0  0
 20 21  1  0  0  0  0
 20 22  1  0  0  0  0
 20 23  1  0  0  0  0
 17 18  1  0  0  0  0
 17 19  1  0  0  0  0
 17 20  1  0  0  0  0
 13 14  1  0  0  0  0
 13 15  1  0  0  0  0
 13 16  1  0  0  0  0
 11 12  1  0  0  0  0
 11 13  1  0  0  0  0
 11 17  1  0  0  0  0
  9 10  1  0  0  0  0
  9 11  1  0  0  0  0
  9 24  1  0  0  0  0
  7  8  1  0  0  0  0
  7  9  1  0  0  0  0
 28 29  1  0  0  0  0
 28 30  1  0  0  0  0
 28 31  1  0  0  0  0
 26 27  1  0  0  0  0
 26 28  1  0  0  0  0
M  END
$$$$
default_name
  -OEChem-01062215323D

 31 30  0     1  0  0  0  0  0999 V2000
   -3.0760   -3.6390    1.5496 H   0  0  0  0  0  0  0  0  0  0  0  0
   -3.0940   -2.6290    1.1426 C   0  0  0  0  0  0  0  0  0  0  0  0
   -3.7160   -1.9930    1.7706 H   0  0  0  0  0  0  0  0  0  0  0  0
   -3.4880   -2.6500    0.1286 H   0  0  0  0  0  0  0  0  0  0  0  0
   -1.6860   -2.0850    1.1196 C   0  0  0  0  0  0  0  0  0  0  0  0
   -0.7540   -2.7700    1.5226 O   0  0  0  0  0  0  0  0  0  0  0  0
   -1.5320   -0.8490    0.6496 N   0  0  0  0  0  0  0  0  0  0  0  0
   -2.3500   -0.3360    0.3566 H   0  0  0  0  0  0  0  0  0  0  0  0
   -0.2470   -0.1410    0.5576 C   0  0  1  0  0  0  0  0  0  0  0  0
   -0.3429    0.7890    1.1191 H   0  0  0  0  0  0  0  0  0  0  0  0
    0.8774   -0.9801    1.2163 C   0  0  1  0  0  0  0  0  0  0  0  0
    0.8562   -1.9676    0.7513 H   0  0  0  0  0  0  0  0  0  0  0  0
    2.2761   -0.3797    0.9780 C   0  0  0  0  0  0  0  0  0  0  0  0
    2.3745    0.5794    1.4895 H   0  0  0  0  0  0  0  0  0  0  0  0
    3.0460   -1.0579    1.3426 H   0  0  0  0  0  0  0  0  0  0  0  0
    2.4441   -0.2282   -0.0889 H   0  0  0  0  0  0  0  0  0  0  0  0
    0.6107   -1.1762    2.7256 C   0  0  0  0  0  0  0  0  0  0  0  0
    0.7231   -0.2263    3.2499 H   0  0  0  0  0  0  0  0  0  0  0  0
   -0.4147   -1.5210    2.8586 H   0  0  0  0  0  0  0  0  0  0  0  0
    1.5311   -2.2118    3.3856 C   0  0  0  0  0  0  0  0  0  0  0  0
    2.5645   -1.8657    3.3766 H   0  0  0  0  0  0  0  0  0  0  0  0
    1.2235   -2.3578    4.4213 H   0  0  0  0  0  0  0  0  0  0  0  0
    1.4610   -3.1635    2.8577 H   0  0  0  0  0  0  0  0  0  0  0  0
    0.0513    0.2305   -0.9038 C   0  0  0  0  0  0  0  0  0  0  0  0
   -0.7140    0.9654   -1.5263 O   0  0  0  0  0  0  0  0  0  0  0  0
    1.1680   -0.2670   -1.4502 N   0  0  0  0  0  0  0  0  0  0  0  0
    1.7525   -0.8530   -0.8752 H   0  0  0  0  0  0  0  0  0  0  0  0
    1.5895   -0.0130   -2.8265 C   0  0  0  0  0  0  0  0  0  0  0  0
    1.6066    1.0628   -3.0141 H   0  0  0  0  0  0  0  0  0  0  0  0
    2.5855   -0.4232   -2.9994 H   0  0  0  0  0  0  0  0  0  0  0  0
    0.8819   -0.4741   -3.5183 H   0  0  0  0  0  0  0  0  0  0  0  0
  5  6  2  0  0  0  0
  5  7  1  0  0  0  0
  2  3  1  0  0  0  0
  2  4  1  0  0  0  0
  2  5  1  0  0  0  0
  1  2  1  0  0  0  0
 24 25  2  0  0  0  0
 24 26  1  0  0  0  0
 20 21  1  0  0  0  0
 20 22  1  0  0  0  0
 20 23  1  0  0  0  0
 17 18  1  0  0  0  0
 17 19  1  0  0  0  0
 17 20  1  0  0  0  0
 13 14  1  0  0  0  0
 13 15  1  0  0  0  0
 13 16  1  0  0  0  0
 11 12  1  0  0  0  0
 11 13  1  0  0  0  0
 11 17  1  0  0  0  0
  9 10  1  0  0  0  0
  9 11  1  0  0  0  0
  9 24  1  0  0  0  0
  7  8  1  0  0  0  0
  7  9  1  0  0  0  0
 28 29  1  0  0  0  0
 28 30  1  0  0  0  0
 28 31  1  0  0  0  0
 26 27  1  0  0  0  0
 26 28  1  0  0  0  0
M  END
$$$$
default_name
  -OEChem-01062215323D

 31 30  0     1  0  0  0  0  0999 V2000
   -3.0760   -3.6390    1.5496 H   0  0  0  0  0  0  0  0  0  0  0  0
   -3.0940   -2.6290    1.1426 C   0  0  0  0  0  0  0  0  0  0  0  0
   -3.7160   -1.9930    1.7706 H   0  0  0  0  0  0  0  0  0  0  0  0
   -3.4880   -2.6500    0.1286 H   0  0  0  0  0  0  0  0  0  0  0  0
   -1.6860   -2.0850    1.1196 C   0  0  0  0  0  0  0  0  0  0  0  0
   -0.7540   -2.7700    1.5226 O   0  0  0  0  0  0  0  0  0  0  0  0
   -1.5320   -0.8490    0.6496 N   0  0  0  0  0  0  0  0  0  0  0  0
   -2.3500   -0.3360    0.3566 H   0  0  0  0  0  0  0  0  0  0  0  0
   -0.2470   -0.1410    0.5576 C   0  0  1  0  0  0  0  0  0  0  0  0
   -0.3429    0.7890    1.1191 H   0  0  0  0  0  0  0  0  0  0  0  0
    0.8774   -0.9801    1.2163 C   0  0  1  0  0  0  0  0  0  0  0  0
    0.8562   -1.9676    0.7513 H   0  0  0  0  0  0  0  0  0  0  0  0
    2.2761   -0.3797    0.9780 C   0  0  0  0  0  0  0  0  0  0  0  0
    2.3745    0.5794    1.4895 H   0  0  0  0  0  0  0  0  0  0  0  0
    3.0460   -1.0579    1.3426 H   0  0  0  0  0  0  0  0  0  0  0  0
    2.4441   -0.2282   -0.0889 H   0  0  0  0  0  0  0  0  0  0  0  0
    0.6107   -1.1762    2.7256 C   0  0  0  0  0  0  0  0  0  0  0  0
    0.7231   -0.2263    3.2499 H   0  0  0  0  0  0  0  0  0  0  0  0
   -0.4147   -1.5210    2.8586 H   0  0  0  0  0  0  0  0  0  0  0  0
    1.5311   -2.2118    3.3856 C   0  0  0  0  0  0  0  0  0  0  0  0
    2.5645   -1.8657    3.3766 H   0  0  0  0  0  0  0  0  0  0  0  0
    1.2235   -2.3578    4.4213 H   0  0  0  0  0  0  0  0  0  0  0  0
    1.4610   -3.1635    2.8577 H   0  0  0  0  0  0  0  0  0  0  0  0
    0.0513    0.2305   -0.9038 C   0  0  0  0  0  0  0  0  0  0  0  0
   -0.5419    1.1651   -1.4404 O   0  0  0  0  0  0  0  0  0  0  0  0
    0.9774   -0.4923   -1.5464 N   0  0  0  0  0  0  0  0  0  0  0  0
    1.4300   -1.2358   -1.0384 H   0  0  0  0  0  0  0  0  0  0  0  0
    1.3705   -0.2696   -2.9364 C   0  0  0  0  0  0  0  0  0  0  0  0
    1.6430    0.7784   -3.0789 H   0  0  0  0  0  0  0  0  0  0  0  0
    2.2226   -0.9001   -3.1947 H   0  0  0  0  0  0  0  0  0  0  0  0
    0.5331   -0.5028   -3.5968 H   0  0  0  0  0  0  0  0  0  0  0  0
  5  6  2  0  0  0  0
  5  7  1  0  0  0  0
  2  3  1  0  0  0  0
  2  4  1  0  0  0  0
  2  5  1  0  0  0  0
  1  2  1  0  0  0  0
 24 25  2  0  0  0  0
 24 26  1  0  0  0  0
 20 21  1  0  0  0  0
 20 22  1  0  0  0  0
 20 23  1  0  0  0  0
 17 18  1  0  0  0  0
 17 19  1  0  0  0  0
 17 20  1  0  0  0  0
 13 14  1  0  0  0  0
 13 15  1  0  0  0  0
 13 16  1  0  0  0  0
 11 12  1  0  0  0  0
 11 13  1  0  0  0  0
 11 17  1  0  0  0  0
  9 10  1  0  0  0  0
  9 11  1  0  0  0  0
  9 24  1  0  0  0  0
  7  8  1  0  0  0  0
  7  9  1  0  0  0  0
 28 29  1  0  0  0  0
 28 30  1  0  0  0  0
 28 31  1  0  0  0  0
 26 27  1  0  0  0  0
 26 28  1  0  0  0  0
M  END
$$$$
default_name
  -OEChem-01062215323D

 31 30  0     1  0  0  0  0  0999 V2000
   -3.0760   -3.6390    1.5496 H   0  0  0  0  0  0  0  0  0  0  0  0
   -3.0940   -2.6290    1.1426 C   0  0  0  0  0  0  0  0  0  0  0  0
   -3.7160   -1.9930    1.7706 H   0  0  0  0  0  0  0  0  0  0  0  0
   -3.4880   -2.6500    0.1286 H   0  0  0  0  0  0  0  0  0  0  0  0
   -1.6860   -2.0850    1.1196 C   0  0  0  0  0  0  0  0  0  0  0  0
   -0.7540   -2.7700    1.5226 O   0  0  0  0  0  0  0  0  0  0  0  0
   -1.5320   -0.8490    0.6496 N   0  0  0  0  0  0  0  0  0  0  0  0
   -2.3500   -0.3360    0.3566 H   0  0  0  0  0  0  0  0  0  0  0  0
   -0.2470   -0.1410    0.5576 C   0  0  1  0  0  0  0  0  0  0  0  0
   -0.3429    0.7890    1.1191 H   0  0  0  0  0  0  0  0  0  0  0  0
    0.8774   -0.9801    1.2163 C   0  0  1  0  0  0  0  0  0  0  0  0
    0.8562   -1.9676    0.7513 H   0  0  0  0  0  0  0  0  0  0  0  0
    2.2761   -0.3797    0.9780 C   0  0  0  0  0  0  0  0  0  0  0  0
    2.3745    0.5794    1.4895 H   0  0  0  0  0  0  0  0  0  0  0  0
    3.0460   -1.0579    1.3426 H   0  0  0  0  0  0  0  0  0  0  0  0
    2.4441   -0.2282   -0.0889 H   0  0  0  0  0  0  0  0  0  0  0  0
    0.6107   -1.1762    2.7256 C   0  0  0  0  0  0  0  0  0  0  0  0
    0.7231   -0.2263    3.2499 H   0  0  0  0  0  0  0  0  0  0  0  0
   -0.4147   -1.5210    2.8586 H   0  0  0  0  0  0  0  0  0  0  0  0
    1.5311   -2.2118    3.3856 C   0  0  0  0  0  0  0  0  0  0  0  0
    2.5645   -1.8657    3.3766 H   0  0  0  0  0  0  0  0  0  0  0  0
    1.2235   -2.3578    4.4213 H   0  0  0  0  0  0  0  0  0  0  0  0
    1.4610   -3.1635    2.8577 H   0  0  0  0  0  0  0  0  0  0  0  0
    0.0513    0.2305   -0.9038 C   0  0  0  0  0  0  0  0  0  0  0  0
   -0.3212    1.3113   -1.3582 O   0  0  0  0  0  0  0  0  0  0  0  0
    0.7319   -0.6582   -1.6387 N   0  0  0  0  0  0  0  0  0  0  0  0
    1.0140   -1.5180   -1.1950 H   0  0  0  0  0  0  0  0  0  0  0  0
    1.0890   -0.4581   -3.0418 C   0  0  0  0  0  0  0  0  0  0  0  0
    1.6042    0.4980   -3.1582 H   0  0  0  0  0  0  0  0  0  0  0  0
    1.7425   -1.2616   -3.3846 H   0  0  0  0  0  0  0  0  0  0  0  0
    0.1841   -0.4406   -3.6522 H   0  0  0  0  0  0  0  0  0  0  0  0
  5  6  2  0  0  0  0
  5  7  1  0  0  0  0
  2  3  1  0  0  0  0
  2  4  1  0  0  0  0
  2  5  1  0  0  0  0
  1  2  1  0  0  0  0
 24 25  2  0  0  0  0
 24 26  1  0  0  0  0
 20 21  1  0  0  0  0
 20 22  1  0  0  0  0
 20 23  1  0  0  0  0
 17 18  1  0  0  0  0
 17 19  1  0  0  0  0
 17 20  1  0  0  0  0
 13 14  1  0  0  0  0
 13 15  1  0  0  0  0
 13 16  1  0  0  0  0
 11 12  1  0  0  0  0
 11 13  1  0  0  0  0
 11 17  1  0  0  0  0
  9 10  1  0  0  0  0
  9 11  1  0  0  0  0
  9 24  1  0  0  0  0
  7  8  1  0  0  0  0
  7  9  1  0  0  0  0
 28 29  1  0  0  0  0
 28 30  1  0  0  0  0
 28 31  1  0  0  0  0
 26 27  1  0  0  0  0
 26 28  1  0  0  0  0
M  END
$$$$
default_name
  -OEChem-01062215323D

 31 30  0     1  0  0  0  0  0999 V2000
   -3.0760   -3.6390    1.5496 H   0  0  0  0  0  0  0  0  0  0  0  0
   -3.0940   -2.6290    1.1426 C   0  0  0  0  0  0  0  0  0  0  0  0
   -3.7160   -1.9930    1.7706 H   0  0  0  0  0  0  0  0  0  0  0  0
   -3.4880   -2.6500    0.1286 H   0  0  0  0  0  0  0  0  0  0  0  0
   -1.6860   -2.0850    1.1196 C   0  0  0  0  0  0  0  0  0  0  0  0
   -0.7540   -2.7700    1.5226 O   0  0  0  0  0  0  0  0  0  0  0  0
   -1.5320   -0.8490    0.6496 N   0  0  0  0  0  0  0  0  0  0  0  0
   -2.3500   -0.3360    0.3566 H   0  0  0  0  0  0  0  0  0  0  0  0
   -0.2470   -0.1410    0.5576 C   0  0  1  0  0  0  0  0  0  0  0  0
   -0.3429    0.7890    1.1191 H   0  0  0  0  0  0  0  0  0  0  0  0
    0.8774   -0.9801    1.2163 C   0  0  1  0  0  0  0  0  0  0  0  0
    0.8562   -1.9676    0.7513 H   0  0  0  0  0  0  0  0  0  0  0  0
    2.2761   -0.3797    0.9780 C   0  0  0  0  0  0  0  0  0  0  0  0
    2.3745    0.5794    1.4895 H   0  0  0  0  0  0  0  0  0  0  0  0
    3.0460   -1.0579    1.3426 H   0  0  0  0  0  0  0  0  0  0  0  0
    2.4441   -0.2282   -0.0889 H   0  0  0  0  0  0  0  0  0  0  0  0
    0.6107   -1.1762    2.7256 C   0  0  0  0  0  0  0  0  0  0  0  0
    0.7231   -0.2263    3.2499 H   0  0  0  0  0  0  0  0  0  0  0  0
   -0.4147   -1.5210    2.8586 H   0  0  0  0  0  0  0  0  0  0  0  0
    1.5311   -2.2118    3.3856 C   0  0  0  0  0  0  0  0  0  0  0  0
    2.5645   -1.8657    3.3766 H   0  0  0  0  0  0  0  0  0  0  0  0
    1.2235   -2.3578    4.4213 H   0  0  0  0  0  0  0  0  0  0  0  0
    1.4610   -3.1635    2.8577 H   0  0  0  0  0  0  0  0  0  0  0  0
    0.0513    0.2305   -0.9038 C   0  0  0  0  0  0  0  0  0  0  0  0
   -0.0669    1.3941   -1.2852 O   0  0  0  0  0  0  0  0  0  0  0  0
    0.4481   -0.7534   -1.7208 N   0  0  0  0  0  0  0  0  0  0  0  0
    0.5330   -1.6803   -1.3345 H   0  0  0  0  0  0  0  0  0  0  0  0
    0.7642   -0.5655   -3.1354 C   0  0  0  0  0  0  0  0  0  0  0  0
    1.4926    0.2407   -3.2463 H   0  0  0  0  0  0  0  0  0  0  0  0
    1.1779   -1.4832   -3.5562 H   0  0  0  0  0  0  0  0  0  0  0  0
   -0.1411   -0.2920   -3.6808 H   0  0  0  0  0  0  0  0  0  0  0  0
  5  6  2  0  0  0  0
  5  7  1  0  0  0  0
  2  3  1  0  0  0  0
  2  4  1  0  0  0  0
  2  5  1  0  0  0  0
  1  2  1  0  0  0  0
 24 25  2  0  0  0  0
 24 26  1  0  0  0  0
 20 21  1  0  0  0  0
 20 22  1  0  0  0  0
 20 23  1  0  0  0  0
 17 18  1  0  0  0  0
 17 19  1  0  0  0  0
 17 20  1  0  0  0  0
 13 14  1  0  0  0  0
 13 15  1  0  0  0  0
 13 16  1  0  0  0  0
 11 12  1  0  0  0  0
 11 13  1  0  0  0  0
 11 17  1  0  0  0  0
  9 10  1  0  0  0  0
  9 11  1  0  0  0  0
  9 24  1  0  0  0  0
  7  8  1  0  0  0  0
  7  9  1  0  0  0  0
 28 29  1  0  0  0  0
 28 30  1  0  0  0  0
 28 31  1  0  0  0  0
 26 27  1  0  0  0  0
 26 28  1  0  0  0  0
M  END
$$$$
default_name
  -OEChem-01062215323D

 31 30  0     1  0  0  0  0  0999 V2000
   -3.0760   -3.6390    1.5496 H   0  0  0  0  0  0  0  0  0  0  0  0
   -3.0940   -2.6290    1.1426 C   0  0  0  0  0  0  0  0  0  0  0  0
   -3.7160   -1.9930    1.7706 H   0  0  0  0  0  0  0  0  0  0  0  0
   -3.4880   -2.6500    0.1286 H   0  0  0  0  0  0  0  0  0  0  0  0
   -1.6860   -2.0850    1.1196 C   0  0  0  0  0  0  0  0  0  0  0  0
   -0.7540   -2.7700    1.5226 O   0  0  0  0  0  0  0  0  0  0  0  0
   -1.5320   -0.8490    0.6496 N   0  0  0  0  0  0  0  0  0  0  0  0
   -2.3500   -0.3360    0.3566 H   0  0  0  0  0  0  0  0  0  0  0  0
   -0.2470   -0.1410    0.5576 C   0  0  1  0  0  0  0  0  0  0  0  0
   -0.3429    0.7890    1.1191 H   0  0  0  0  0  0  0  0  0  0  0  0
    0.8774   -0.9801    1.2163 C   0  0  1  0  0  0  0  0  0  0  0  0
    0.8562   -1.9676    0.7513 H   0  0  0  0  0  0  0  0  0  0  0  0
    2.2761   -0.3797    0.9780 C   0  0  0  0  0  0  0  0  0  0  0  0
    2.3745    0.5794    1.4895 H   0  0  0  0  0  0  0  0  0  0  0  0
    3.0460   -1.0579    1.3426 H   0  0  0  0  0  0  0  0  0  0  0  0
    2.4441   -0.2282   -0.0889 H   0  0  0  0  0  0  0  0  0  0  0  0
    0.6107   -1.1762    2.7256 C   0  0  0  0  0  0  0  0  0  0  0  0
    0.7231   -0.2263    3.2499 H   0  0  0  0  0  0  0  0  0  0  0  0
   -0.4147   -1.5210    2.8586 H   0  0  0  0  0  0  0  0  0  0  0  0
    1.5311   -2.2118    3.3856 C   0  0  0  0  0  0  0  0  0  0  0  0
    2.5645   -1.8657    3.3766 H   0  0  0  0  0  0  0  0  0  0  0  0
    1.2235   -2.3578    4.4213 H   0  0  0  0  0  0  0  0  0  0  0  0
    1.4610   -3.1635    2.8577 H   0  0  0  0  0  0  0  0  0  0  0  0
    0.0513    0.2305   -0.9038 C   0  0  0  0  0  0  0  0  0  0  0  0
    0.2037    1.4078   -1.2265 O   0  0  0  0  0  0  0  0  0  0  0  0
    0.1455   -0.7714   -1.7872 N   0  0  0  0  0  0  0  0  0  0  0  0
    0.0197   -1.7118   -1.4473 H   0  0  0  0  0  0  0  0  0  0  0  0
    0.4181   -0.5847   -3.2110 C   0  0  0  0  0  0  0  0  0  0  0  0
    1.3161    0.0241   -3.3375 H   0  0  0  0  0  0  0  0  0  0  0  0
    0.5673   -1.5496   -3.6977 H   0  0  0  0  0  0  0  0  0  0  0  0
   -0.4204   -0.0669   -3.6806 H   0  0  0  0  0  0  0  0  0  0  0  0
  5  6  2  0  0  0  0
  5  7  1  0  0  0  0
  2  3  1  0  0  0  0
  2  4  1  0  0  0  0
  2  5  1  0  0  0  0
  1  2  1  0  0  0  0
 24 25  2  0  0  0  0
 24 26  1  0  0  0  0
 20 21  1  0  0  0  0
 20 22  1  0  0  0  0
 20 23  1  0  0  0  0
 17 18  1  0  0  0  0
 17 19  1  0  0  0  0
 17 20  1  0  0  0  0
 13 14  1  0  0  0  0
 13 15  1  0  0  0  0
 13 16  1  0  0  0  0
 11 12  1  0  0  0  0
 11 13  1  0  0  0  0
 11 17  1  0  0  0  0
  9 10  1  0  0  0  0
  9 11  1  0  0  0  0
  9 24  1  0  0  0  0
  7  8  1  0  0  0  0
  7  9  1  0  0  0  0
 28 29  1  0  0  0  0
 28 30  1  0  0  0  0
 28 31  1  0  0  0  0
 26 27  1  0  0  0  0
 26 28  1  0  0  0  0
M  END
$$$$
default_name
  -OEChem-01062215323D

 31 30  0     1  0  0  0  0  0999 V2000
   -3.0760   -3.6390    1.5496 H   0  0  0  0  0  0  0  0  0  0  0  0
   -3.0940   -2.6290    1.1426 C   0  0  0  0  0  0  0  0  0  0  0  0
   -3.7160   -1.9930    1.7706 H   0  0  0  0  0  0  0  0  0  0  0  0
   -3.4880   -2.6500    0.1286 H   0  0  0  0  0  0  0  0  0  0  0  0
   -1.6860   -2.0850    1.1196 C   0  0  0  0  0  0  0  0  0  0  0  0
   -0.7540   -2.7700    1.5226 O   0  0  0  0  0  0  0  0  0  0  0  0
   -1.5320   -0.8490    0.6496 N   0  0  0  0  0  0  0  0  0  0  0  0
   -2.3500   -0.3360    0.3566 H   0  0  0  0  0  0  0  0  0  0  0  0
   -0.2470   -0.1410    0.5576 C   0  0  1  0  0  0  0  0  0  0  0  0
   -0.3429    0.7890    1.1191 H   0  0  0  0  0  0  0  0  0  0  0  0
    0.8774   -0.9801    1.2163 C   0  0  1  0  0  0  0  0  0  0  0  0
    0.8562   -1.9676    0.7513 H   0  0  0  0  0  0  0  0  0  0  0  0
    2.2761   -0.3797    0.9780 C   0  0  0  0  0  0  0  0  0  0  0  0
    2.3745    0.5794    1.4895 H   0  0  0  0  0  0  0  0  0  0  0  0
    3.0460   -1.0579    1.3426 H   0  0  0  0  0  0  0  0  0  0  0  0
    2.4441   -0.2282   -0.0889 H   0  0  0  0  0  0  0  0  0  0  0  0
    0.6107   -1.1762    2.7256 C   0  0  0  0  0  0  0  0  0  0  0  0
    0.7231   -0.2263    3.2499 H   0  0  0  0  0  0  0  0  0  0  0  0
   -0.4147   -1.5210    2.8586 H   0  0  0  0  0  0  0  0  0  0  0  0
    1.5311   -2.2118    3.3856 C   0  0  0  0  0  0  0  0  0  0  0  0
    2.5645   -1.8657    3.3766 H   0  0  0  0  0  0  0  0  0  0  0  0
    1.2235   -2.3578    4.4213 H   0  0  0  0  0  0  0  0  0  0  0  0
    1.4610   -3.1635    2.8577 H   0  0  0  0  0  0  0  0  0  0  0  0
    0.0513    0.2305   -0.9038 C   0  0  0  0  0  0  0  0  0  0  0  0
    0.4721    1.3515   -1.1860 O   0  0  0  0  0  0  0  0  0  0  0  0
   -0.1555   -0.7110   -1.8333 N   0  0  0  0  0  0  0  0  0  0  0  0
   -0.4909   -1.6102   -1.5257 H   0  0  0  0  0  0  0  0  0  0  0  0
    0.0743   -0.5142   -3.2632 C   0  0  0  0  0  0  0  0  0  0  0  0
    1.0866   -0.1372   -3.4253 H   0  0  0  0  0  0  0  0  0  0  0  0
   -0.0477   -1.4564   -3.7996 H   0  0  0  0  0  0  0  0  0  0  0  0
   -0.6349    0.2192   -3.6517 H   0  0  0  0  0  0  0  0  0  0  0  0
  5  6  2  0  0  0  0
  5  7  1  0  0  0  0
  2  3  1  0  0  0  0
  2  4  1  0  0  0  0
  2  5  1  0  0  0  0
  1  2  1  0  0  0  0
 24 25  2  0  0  0  0
 24 26  1  0  0  0  0
 20 21  1  0  0  0  0
 20 22  1  0  0  0  0
 20 23  1  0  0  0  0
 17 18  1  0  0  0  0
 17 19  1  0  0  0  0
 17 20  1  0  0  0  0
 13 14  1  0  0  0  0
 13 15  1  0  0  0  0
 13 16  1  0  0  0  0
 11 12  1  0  0  0  0
 11 13  1  0  0  0  0
 11 17  1  0  0  0  0
  9 10  1  0  0  0  0
  9 11  1  0  0  0  0
  9 24  1  0  0  0  0
  7  8  1  0  0  0  0
  7  9  1  0  0  0  0
 28 29  1  0  0  0  0
 28 30  1  0  0  0  0
 28 31  1  0  0  0  0
 26 27  1  0  0  0  0
 26 28  1  0  0  0  0
M  END
$$$$
default_name
  -OEChem-01062215323D

 31 30  0     1  0  0  0  0  0999 V2000
   -3.0760   -3.6390    1.5496 H   0  0  0  0  0  0  0  0  0  0  0  0
   -3.0940   -2.6290    1.1426 C   0  0  0  0  0  0  0  0  0  0  0  0
   -3.7160   -1.9930    1.7706 H   0  0  0  0  0  0  0  0  0  0  0  0
   -3.4880   -2.6500    0.1286 H   0  0  0  0  0  0  0  0  0  0  0  0
   -1.6860   -2.0850    1.1196 C   0  0  0  0  0  0  0  0  0  0  0  0
   -0.7540   -2.7700    1.5226 O   0  0  0  0  0  0  0  0  0  0  0  0
   -1.5320   -0.8490    0.6496 N   0  0  0  0  0  0  0  0  0  0  0  0
   -2.3500   -0.3360    0.3566 H   0  0  0  0  0  0  0  0  0  0  0  0
   -0.2470   -0.1410    0.5576 C   0  0  1  0  0  0  0  0  0  0  0  0
   -0.3429    0.7890    1.1191 H   0  0  0  0  0  0  0  0  0  0  0  0
    0.8774   -0.9801    1.2163 C   0  0  1  0  0  0  0  0  0  0  0  0
    0.8562   -1.9676    0.7513 H   0  0  0  0  0  0  0  0  0  0  0  0
    2.2761   -0.3797    0.9780 C   0  0  0  0  0  0  0  0  0  0  0  0
    2.3745    0.5794    1.4895 H   0  0  0  0  0  0  0  0  0  0  0  0
    3.0460   -1.0579    1.3426 H   0  0  0  0  0  0  0  0  0  0  0  0
    2.4441   -0.2282   -0.0889 H   0  0  0  0  0  0  0  0  0  0  0  0
    0.6107   -1.1762    2.7256 C   0  0  0  0  0  0  0  0  0  0  0  0
    0.7231   -0.2263    3.2499 H   0  0  0  0  0  0  0  0  0  0  0  0
   -0.4147   -1.5210    2.8586 H   0  0  0  0  0  0  0  0  0  0  0  0
    1.5311   -2.2118    3.3856 C   0  0  0  0  0  0  0  0  0  0  0  0
    2.5645   -1.8657    3.3766 H   0  0  0  0  0  0  0  0  0  0  0  0
    1.2235   -2.3578    4.4213 H   0  0  0  0  0  0  0  0  0  0  0  0
    1.4610   -3.1635    2.8577 H   0  0  0  0  0  0  0  0  0  0  0  0
    0.0513    0.2305   -0.9038 C   0  0  0  0  0  0  0  0  0  0  0  0
    0.7201    1.2290   -1.1665 O   0  0  0  0  0  0  0  0  0  0  0  0
   -0.4342   -0.5762   -1.8559 N   0  0  0  0  0  0  0  0  0  0  0  0
   -0.9640   -1.3824   -1.5644 H   0  0  0  0  0  0  0  0  0  0  0  0
   -0.2436   -0.3589   -3.2887 C   0  0  0  0  0  0  0  0  0  0  0  0
    0.8197   -0.2321   -3.5039 H   0  0  0  0  0  0  0  0  0  0  0  0
   -0.6252   -1.2099   -3.8548 H   0  0  0  0  0  0  0  0  0  0  0  0
   -0.7698    0.5469   -3.5959 H   0  0  0  0  0  0  0  0  0  0  0  0
  5  6  2  0  0  0  0
  5  7  1  0  0  0  0
  2  3  1  0  0  0  0
  2  4  1  0  0  0  0
  2  5  1  0  0  0  0
  1  2  1  0  0  0  0
 24 25  2  0  0  0  0
 24 26  1  0  0  0  0
 20 21  1  0  0  0  0
 20 22  1  0  0  0  0
 20 23  1  0  0  0  0
 17 18  1  0  0  0  0
 17 19  1  0  0  0  0
 17 20  1  0  0  0  0
 13 14  1  0  0  0  0
 13 15  1  0  0  0  0
 13 16  1  0  0  0  0
 11 12  1  0  0  0  0
 11 13  1  0  0  0  0
 11 17  1  0  0  0  0
  9 10  1  0  0  0  0
  9 11  1  0  0  0  0
  9 24  1  0  0  0  0
  7  8  1  0  0  0  0
  7  9  1  0  0  0  0
 28 29  1  0  0  0  0
 28 30  1  0  0  0  0
 28 31  1  0  0  0  0
 26 27  1  0  0  0  0
 26 28  1  0  0  0  0
M  END
$$$$
default_name
  -OEChem-01062215323D

 31 30  0     1  0  0  0  0  0999 V2000
   -3.0760   -3.6390    1.5496 H   0  0  0  0  0  0  0  0  0  0  0  0
   -3.0940   -2.6290    1.1426 C   0  0  0  0  0  0  0  0  0  0  0  0
   -3.7160   -1.9930    1.7706 H   0  0  0  0  0  0  0  0  0  0  0  0
   -3.4880   -2.6500    0.1286 H   0  0  0  0  0  0  0  0  0  0  0  0
   -1.6860   -2.0850    1.1196 C   0  0  0  0  0  0  0  0  0  0  0  0
   -0.7540   -2.7700    1.5226 O   0  0  0  0  0  0  0  0  0  0  0  0
   -1.5320   -0.8490    0.6496 N   0  0  0  0  0  0  0  0  0  0  0  0
   -2.3500   -0.3360    0.3566 H   0  0  0  0  0  0  0  0  0  0  0  0
   -0.2470   -0.1410    0.5576 C   0  0  1  0  0  0  0  0  0  0  0  0
   -0.3429    0.7890    1.1191 H   0  0  0  0  0  0  0  0  0  0  0  0
    0.8774   -0.9801    1.2163 C   0  0  1  0  0  0  0  0  0  0  0  0
    0.8562   -1.9676    0.7513 H   0  0  0  0  0  0  0  0  0  0  0  0
    2.2761   -0.3797    0.9780 C   0  0  0  0  0  0  0  0  0  0  0  0
    2.3745    0.5794    1.4895 H   0  0  0  0  0  0  0  0  0  0  0  0
    3.0460   -1.0579    1.3426 H   0  0  0  0  0  0  0  0  0  0  0  0
    2.4441   -0.2282   -0.0889 H   0  0  0  0  0  0  0  0  0  0  0  0
    0.6107   -1.1762    2.7256 C   0  0  0  0  0  0  0  0  0  0  0  0
    0.7231   -0.2263    3.2499 H   0  0  0  0  0  0  0  0  0  0  0  0
   -0.4147   -1.5210    2.8586 H   0  0  0  0  0  0  0  0  0  0  0  0
    1.5311   -2.2118    3.3856 C   0  0  0  0  0  0  0  0  0  0  0  0
    2.5645   -1.8657    3.3766 H   0  0  0  0  0  0  0  0  0  0  0  0
    1.2235   -2.3578    4.4213 H   0  0  0  0  0  0  0  0  0  0  0  0
    1.4610   -3.1635    2.8577 H   0  0  0  0  0  0  0  0  0  0  0  0
    0.0513    0.2305   -0.9038 C   0  0  0  0  0  0  0  0  0  0  0  0
    0.9307    1.0488   -1.1694 O   0  0  0  0  0  0  0  0  0  0  0  0
   -0.6716   -0.3764   -1.8536 N   0  0  0  0  0  0  0  0  0  0  0  0
   -1.3673   -1.0441   -1.5607 H   0  0  0  0  0  0  0  0  0  0  0  0
   -0.5141   -0.1294   -3.2855 C   0  0  0  0  0  0  0  0  0  0  0  0
    0.5336   -0.2541   -3.5679 H   0  0  0  0  0  0  0  0  0  0  0  0
   -1.1258   -0.8269   -3.8597 H   0  0  0  0  0  0  0  0  0  0  0  0
   -0.8160    0.8938   -3.5172 H   0  0  0  0  0  0  0  0  0  0  0  0
  5  6  2  0  0  0  0
  5  7  1  0  0  0  0
  2  3  1  0  0  0  0
  2  4  1  0  0  0  0
  2  5  1  0  0  0  0
  1  2  1  0  0  0  0
 24 25  2  0  0  0  0
 24 26  1  0  0  0  0
 20 21  1  0  0  0  0
 20 22  1  0  0  0  0
 20 23  1  0  0  0  0
 17 18  1  0  0  0  0
 17 19  1  0  0  0  0
 17 20  1  0  0  0  0
 13 14  1  0  0  0  0
 13 15  1  0  0  0  0
 13 16  1  0  0  0  0
 11 12  1  0  0  0  0
 11 13  1  0  0  0  0
 11 17  1  0  0  0  0
  9 10  1  0  0  0  0
  9 11  1  0  0  0  0
  9 24  1  0  0  0  0
  7  8  1  0  0  0  0
  7  9  1  0  0  0  0
 28 29  1  0  0  0  0
 28 30  1  0  0  0  0
 28 31  1  0  0  0  0
 26 27  1  0  0  0  0
 26 28  1  0  0  0  0
M  END
$$$$
default_name
  -OEChem-01062215323D

 31 30  0     1  0  0  0  0  0999 V2000
   -3.0760   -3.6390    1.5496 H   0  0  0  0  0  0  0  0  0  0  0  0
   -3.0940   -2.6290    1.1426 C   0  0  0  0  0  0  0  0  0  0  0  0
   -3.7160   -1.9930    1.7706 H   0  0  0  0  0  0  0  0  0  0  0  0
   -3.4880   -2.6500    0.1286 H   0  0  0  0  0  0  0  0  0  0  0  0
   -1.6860   -2.0850    1.1196 C   0  0  0  0  0  0  0  0  0  0  0  0
   -0.7540   -2.7700    1.5226 O   0  0  0  0  0  0  0  0  0  0  0  0
   -1.5320   -0.8490    0.6496 N   0  0  0  0  0  0  0  0  0  0  0  0
   -2.3500   -0.3360    0.3566 H   0  0  0  0  0  0  0  0  0  0  0  0
   -0.2470   -0.1410    0.5576 C   0  0  1  0  0  0  0  0  0  0  0  0
   -0.3429    0.7890    1.1191 H   0  0  0  0  0  0  0  0  0  0  0  0
    0.8774   -0.9801    1.2163 C   0  0  1  0  0  0  0  0  0  0  0  0
    0.8562   -1.9676    0.7513 H   0  0  0  0  0  0  0  0  0  0  0  0
    2.2761   -0.3797    0.9780 C   0  0  0  0  0  0  0  0  0  0  0  0
    2.3745    0.5794    1.4895 H   0  0  0  0  0  0  0  0  0  0  0  0
    3.0460   -1.0579    1.3426 H   0  0  0  0  0  0  0  0  0  0  0  0
    2.4441   -0.2282   -0.0889 H   0  0  0  0  0  0  0  0  0  0  0  0
    0.6107   -1.1762    2.7256 C   0  0  0  0  0  0  0  0  0  0  0  0
    0.7231   -0.2263    3.2499 H   0  0  0  0  0  0  0  0  0  0  0  0
   -0.4147   -1.5210    2.8586 H   0  0  0  0  0  0  0  0  0  0  0  0
    1.5311   -2.2118    3.3856 C   0  0  0  0  0  0  0  0  0  0  0  0
    2.5645   -1.8657    3.3766 H   0  0  0  0  0  0  0  0  0  0  0  0
    1.2235   -2.3578    4.4213 H   0  0  0  0  0  0  0  0  0  0  0  0
    1.4610   -3.1635    2.8577 H   0  0  0  0  0  0  0  0  0  0  0  0
    0.0513    0.2305   -0.9038 C   0  0  0  0  0  0  0  0  0  0  0  0
    1.0895    0.8230   -1.1943 O   0  0  0  0  0  0  0  0  0  0  0  0
   -0.8517   -0.1250   -1.8264 N   0  0  0  0  0  0  0  0  0  0  0  0
   -1.6735   -0.6183   -1.5150 H   0  0  0  0  0  0  0  0  0  0  0  0
   -0.7188    0.1586   -3.2541 C   0  0  0  0  0  0  0  0  0  0  0  0
    0.2478   -0.2017   -3.6130 H   0  0  0  0  0  0  0  0  0  0  0  0
   -1.5154   -0.3336   -3.8138 H   0  0  0  0  0  0  0  0  0  0  0  0
   -0.7704    1.2363   -3.4208 H   0  0  0  0  0  0  0  0  0  0  0  0
  5  6  2  0  0  0  0
  5  7  1  0  0  0  0
  2  3  1  0  0  0  0
  2  4  1  0  0  0  0
  2  5  1  0  0  0  0
  1  2  1  0  0  0  0
 24 25  2  0  0  0  0
 24 26  1  0  0  0  0
 20 21  1  0  0  0  0
 20 22  1  0  0  0  0
 20 23  1  0  0  0  0
 17 18  1  0  0  0  0
 17 19  1  0  0  0  0
 17 20  1  0  0  0  0
 13 14  1  0  0  0  0
 13 15  1  0  0  0  0
 13 16  1  0  0  0  0
 11 12  1  0  0  0  0
 11 13  1  0  0  0  0
 11 17  1  0  0  0  0
  9 10  1  0  0  0  0
  9 11  1  0  0  0  0
  9 24  1  0  0  0  0
  7  8  1  0  0  0  0
  7  9  1  0  0  0  0
 28 29  1  0  0  0  0
 28 30  1  0  0  0  0
 28 31  1  0  0  0  0
 26 27  1  0  0  0  0
 26 28  1  0  0  0  0
M  END
$$$$
default_name
  -OEChem-01062215323D

 31 30  0     1  0  0  0  0  0999 V2000
   -3.0760   -3.6390    1.5496 H   0  0  0  0  0  0  0  0  0  0  0  0
   -3.0940   -2.6290    1.1426 C   0  0  0  0  0  0  0  0  0  0  0  0
   -3.7160   -1.9930    1.7706 H   0  0  0  0  0  0  0  0  0  0  0  0
   -3.4880   -2.6500    0.1286 H   0  0  0  0  0  0  0  0  0  0  0  0
   -1.6860   -2.0850    1.1196 C   0  0  0  0  0  0  0  0  0  0  0  0
   -0.7540   -2.7700    1.5226 O   0  0  0  0  0  0  0  0  0  0  0  0
   -1.5320   -0.8490    0.6496 N   0  0  0  0  0  0  0  0  0  0  0  0
   -2.3500   -0.3360    0.3566 H   0  0  0  0  0  0  0  0  0  0  0  0
   -0.2470   -0.1410    0.5576 C   0  0  1  0  0  0  0  0  0  0  0  0
   -0.3429    0.7890    1.1191 H   0  0  0  0  0  0  0  0  0  0  0  0
    0.8774   -0.9801    1.2163 C   0  0  1  0  0  0  0  0  0  0  0  0
    0.8562   -1.9676    0.7513 H   0  0  0  0  0  0  0  0  0  0  0  0
    2.2761   -0.3797    0.9780 C   0  0  0  0  0  0  0  0  0  0  0  0
    2.3745    0.5794    1.4895 H   0  0  0  0  0  0  0  0  0  0  0  0
    3.0460   -1.0579    1.3426 H   0  0  0  0  0  0  0  0  0  0  0  0
    2.4441   -0.2282   -0.0889 H   0  0  0  0  0  0  0  0  0  0  0  0
    0.6107   -1.1762    2.7256 C   0  0  0  0  0  0  0  0  0  0  0  0
    0.7231   -0.2263    3.2499 H   0  0  0  0  0  0  0  0  0  0  0  0
   -0.4147   -1.5210    2.8586 H   0  0  0  0  0  0  0  0  0  0  0  0
    1.5311   -2.2118    3.3856 C   0  0  0  0  0  0  0  0  0  0  0  0
    2.5645   -1.8657    3.3766 H   0  0  0  0  0  0  0  0  0  0  0  0
    1.2235   -2.3578    4.4213 H   0  0  0  0  0  0  0  0  0  0  0  0
    1.4610   -3.1635    2.8577 H   0  0  0  0  0  0  0  0  0  0  0  0
    0.0513    0.2305   -0.9038 C   0  0  0  0  0  0  0  0  0  0  0  0
    1.1859    0.5670   -1.2397 O   0  0  0  0  0  0  0  0  0  0  0  0
   -0.9621    0.1607   -1.7763 N   0  0  0  0  0  0  0  0  0  0  0  0
   -1.8615   -0.1339   -1.4302 H   0  0  0  0  0  0  0  0  0  0  0  0
   -0.8436    0.4857   -3.1964 C   0  0  0  0  0  0  0  0  0  0  0  0
   -0.0181   -0.0786   -3.6359 H   0  0  0  0  0  0  0  0  0  0  0  0
   -1.7675    0.2365   -3.7203 H   0  0  0  0  0  0  0  0  0  0  0  0
   -0.6359    1.5511   -3.3133 H   0  0  0  0  0  0  0  0  0  0  0  0
  5  6  2  0  0  0  0
  5  7  1  0  0  0  0
  2  3  1  0  0  0  0
  2  4  1  0  0  0  0
  2  5  1  0  0  0  0
  1  2  1  0  0  0  0
 24 25  2  0  0  0  0
 24 26  1  0  0  0  0
 20 21  1  0  0  0  0
 20 22  1  0  0  0  0
 20 23  1  0  0  0  0
 17 18  1  0  0  0  0
 17 19  1  0  0  0  0
 17 20  1  0  0  0  0
 13 14  1  0  0  0  0
 13 15  1  0  0  0  0
 13 16  1  0  0  0  0
 11 12  1  0  0  0  0
 11 13  1  0  0  0  0
 11 17  1  0  0  0  0
  9 10  1  0  0  0  0
  9 11  1  0  0  0  0
  9 24  1  0  0  0  0
  7  8  1  0  0  0  0
  7  9  1  0  0  0  0
 28 29  1  0  0  0  0
 28 30  1  0  0  0  0
 28 31  1  0  0  0  0
 26 27  1  0  0  0  0
 26 28  1  0  0  0  0
M  END
$$$$
default_name
  -OEChem-01062215323D

 31 30  0     1  0  0  0  0  0999 V2000
   -3.0760   -3.6390    1.5496 H   0  0  0  0  0  0  0  0  0  0  0  0
   -3.0940   -2.6290    1.1426 C   0  0  0  0  0  0  0  0  0  0  0  0
   -3.7160   -1.9930    1.7706 H   0  0  0  0  0  0  0  0  0  0  0  0
   -3.4880   -2.6500    0.1286 H   0  0  0  0  0  0  0  0  0  0  0  0
   -1.6860   -2.0850    1.1196 C   0  0  0  0  0  0  0  0  0  0  0  0
   -0.7540   -2.7700    1.5226 O   0  0  0  0  0  0  0  0  0  0  0  0
   -1.5320   -0.8490    0.6496 N   0  0  0  0  0  0  0  0  0  0  0  0
   -2.3500   -0.3360    0.3566 H   0  0  0  0  0  0  0  0  0  0  0  0
   -0.2470   -0.1410    0.5576 C   0  0  1  0  0  0  0  0  0  0  0  0
   -0.3429    0.7890    1.1191 H   0  0  0  0  0  0  0  0  0  0  0  0
    0.8774   -0.9801    1.2163 C   0  0  1  0  0  0  0  0  0  0  0  0
    0.8562   -1.9676    0.7513 H   0  0  0  0  0  0  0  0  0  0  0  0
    2.2761   -0.3797    0.9780 C   0  0  0  0  0  0  0  0  0  0  0  0
    2.3745    0.5794    1.4895 H   0  0  0  0  0  0  0  0  0  0  0  0
    3.0460   -1.0579    1.3426 H   0  0  0  0  0  0  0  0  0  0  0  0
    2.4441   -0.2282   -0.0889 H   0  0  0  0  0  0  0  0  0  0  0  0
    0.6107   -1.1762    2.7256 C   0  0  0  0  0  0  0  0  0  0  0  0
    0.7231   -0.2263    3.2499 H   0  0  0  0  0  0  0  0  0  0  0  0
   -0.4147   -1.5210    2.8586 H   0  0  0  0  0  0  0  0  0  0  0  0
    1.5311   -2.2118    3.3856 C   0  0  0  0  0  0  0  0  0  0  0  0
    2.5645   -1.8657    3.3766 H   0  0  0  0  0  0  0  0  0  0  0  0
    1.2235   -2.3578    4.4213 H   0  0  0  0  0  0  0  0  0  0  0  0
    1.4610   -3.1635    2.8577 H   0  0  0  0  0  0  0  0  0  0  0  0
    0.0513    0.2305   -0.9038 C   0  0  0  0  0  0  0  0  0  0  0  0
    1.2131    0.2984   -1.3025 O   0  0  0  0  0  0  0  0  0  0  0  0
   -0.9952    0.4614   -1.7067 N   0  0  0  0  0  0  0  0  0  0  0  0
   -1.9187    0.3760   -1.3123 H   0  0  0  0  0  0  0  0  0  0  0  0
   -0.8800    0.8294   -3.1165 C   0  0  0  0  0  0  0  0  0  0  0  0
   -0.2461    0.1069   -3.6353 H   0  0  0  0  0  0  0  0  0  0  0  0
   -1.8648    0.8445   -3.5856 H   0  0  0  0  0  0  0  0  0  0  0  0
   -0.4219    1.8166   -3.2021 H   0  0  0  0  0  0  0  0  0  0  0  0
  5  6  2  0  0  0  0
  5  7  1  0  0  0  0
  2  3  1  0  0  0  0
  2  4  1  0  0  0  0
  2  5  1  0  0  0  0
  1  2  1  0  0  0  0
 24 25  2  0  0  0  0
 24 26  1  0  0  0  0
 20 21  1  0  0  0  0
 20 22  1  0  0  0  0
 20 23  1  0  0  0  0
 17 18  1  0  0  0  0
 17 19  1  0  0  0  0
 17 20  1  0  0  0  0
 13 14  1  0  0  0  0
 13 15  1  0  0  0  0
 13 16  1  0  0  0  0
 11 12  1  0  0  0  0
 11 13  1  0  0  0  0
 11 17  1  0  0  0  0
  9 10  1  0  0  0  0
  9 11  1  0  0  0  0
  9 24  1  0  0  0  0
  7  8  1  0  0  0  0
  7  9  1  0  0  0  0
 28 29  1  0  0  0  0
 28 30  1  0  0  0  0
 28 31  1  0  0  0  0
 26 27  1  0  0  0  0
 26 28  1  0  0  0  0
M  END
$$$$
default_name
  -OEChem-01062215323D

 31 30  0     1  0  0  0  0  0999 V2000
   -3.0760   -3.6390    1.5496 H   0  0  0  0  0  0  0  0  0  0  0  0
   -3.0940   -2.6290    1.1426 C   0  0  0  0  0  0  0  0  0  0  0  0
   -3.7160   -1.9930    1.7706 H   0  0  0  0  0  0  0  0  0  0  0  0
   -3.4880   -2.6500    0.1286 H   0  0  0  0  0  0  0  0  0  0  0  0
   -1.6860   -2.0850    1.1196 C   0  0  0  0  0  0  0  0  0  0  0  0
   -0.7540   -2.7700    1.5226 O   0  0  0  0  0  0  0  0  0  0  0  0
   -1.5320   -0.8490    0.6496 N   0  0  0  0  0  0  0  0  0  0  0  0
   -2.3500   -0.3360    0.3566 H   0  0  0  0  0  0  0  0  0  0  0  0
   -0.2470   -0.1410    0.5576 C   0  0  1  0  0  0  0  0  0  0  0  0
   -0.3429    0.7890    1.1191 H   0  0  0  0  0  0  0  0  0  0  0  0
    0.8774   -0.9801    1.2163 C   0  0  1  0  0  0  0  0  0  0  0  0
    0.8562   -1.9676    0.7513 H   0  0  0  0  0  0  0  0  0  0  0  0
    2.2761   -0.3797    0.9780 C   0  0  0  0  0  0  0  0  0  0  0  0
    2.3745    0.5794    1.4895 H   0  0  0  0  0  0  0  0  0  0  0  0
    3.0460   -1.0579    1.3426 H   0  0  0  0  0  0  0  0  0  0  0  0
    2.4441   -0.2282   -0.0889 H   0  0  0  0  0  0  0  0  0  0  0  0
    0.6107   -1.1762    2.7256 C   0  0  0  0  0  0  0  0  0  0  0  0
    0.7231   -0.2263    3.2499 H   0  0  0  0  0  0  0  0  0  0  0  0
   -0.4147   -1.5210    2.8586 H   0  0  0  0  0  0  0  0  0  0  0  0
    1.5311   -2.2118    3.3856 C   0  0  0  0  0  0  0  0  0  0  0  0
    2.5645   -1.8657    3.3766 H   0  0  0  0  0  0  0  0  0  0  0  0
    1.2235   -2.3578    4.4213 H   0  0  0  0  0  0  0  0  0  0  0  0
    1.4610   -3.1635    2.8577 H   0  0  0  0  0  0  0  0  0  0  0  0
    0.0513    0.2305   -0.9038 C   0  0  0  0  0  0  0  0  0  0  0  0
    1.1694    0.0353   -1.3783 O   0  0  0  0  0  0  0  0  0  0  0  0
   -0.9489    0.7565   -1.6222 N   0  0  0  0  0  0  0  0  0  0  0  0
   -1.8410    0.8767   -1.1692 H   0  0  0  0  0  0  0  0  0  0  0  0
   -0.8257    1.1664   -3.0197 C   0  0  0  0  0  0  0  0  0  0  0  0
   -0.4207    0.3422   -3.6111 H   0  0  0  0  0  0  0  0  0  0  0  0
   -1.8008    1.4490   -3.4189 H   0  0  0  0  0  0  0  0  0  0  0  0
   -0.1429    2.0149   -3.0948 H   0  0  0  0  0  0  0  0  0  0  0  0
  5  6  2  0  0  0  0
  5  7  1  0  0  0  0
  2  3  1  0  0  0  0
  2  4  1  0  0  0  0
  2  5  1  0  0  0  0
  1  2  1  0  0  0  0
 24 25  2  0  0  0  0
 24 26  1  0  0  0  0
 20 21  1  0  0  0  0
 20 22  1  0  0  0  0
 20 23  1  0  0  0  0
 17 18  1  0  0  0  0
 17 19  1  0  0  0  0
 17 20  1  0  0  0  0
 13 14  1  0  0  0  0
 13 15  1  0  0  0  0
 13 16  1  0  0  0  0
 11 12  1  0  0  0  0
 11 13  1  0  0  0  0
 11 17  1  0  0  0  0
  9 10  1  0  0  0  0
  9 11  1  0  0  0  0
  9 24  1  0  0  0  0
  7  8  1  0  0  0  0
  7  9  1  0  0  0  0
 28 29  1  0  0  0  0
 28 30  1  0  0  0  0
 28 31  1  0  0  0  0
 26 27  1  0  0  0  0
 26 28  1  0  0  0  0
M  END
$$$$
default_name
  -OEChem-01062215323D

 31 30  0     1  0  0  0  0  0999 V2000
   -3.0760   -3.6390    1.5496 H   0  0  0  0  0  0  0  0  0  0  0  0
   -3.0940   -2.6290    1.1426 C   0  0  0  0  0  0  0  0  0  0  0  0
   -3.7160   -1.9930    1.7706 H   0  0  0  0  0  0  0  0  0  0  0  0
   -3.4880   -2.6500    0.1286 H   0  0  0  0  0  0  0  0  0  0  0  0
   -1.6860   -2.0850    1.1196 C   0  0  0  0  0  0  0  0  0  0  0  0
   -0.7540   -2.7700    1.5226 O   0  0  0  0  0  0  0  0  0  0  0  0
   -1.5320   -0.8490    0.6496 N   0  0  0  0  0  0  0  0  0  0  0  0
   -2.3500   -0.3360    0.3566 H   0  0  0  0  0  0  0  0  0  0  0  0
   -0.2470   -0.1410    0.5576 C   0  0  1  0  0  0  0  0  0  0  0  0
   -0.3429    0.7890    1.1191 H   0  0  0  0  0  0  0  0  0  0  0  0
    0.8774   -0.9801    1.2163 C   0  0  1  0  0  0  0  0  0  0  0  0
    0.8562   -1.9676    0.7513 H   0  0  0  0  0  0  0  0  0  0  0  0
    2.2761   -0.3797    0.9780 C   0  0  0  0  0  0  0  0  0  0  0  0
    2.3745    0.5794    1.4895 H   0  0  0  0  0  0  0  0  0  0  0  0
    3.0460   -1.0579    1.3426 H   0  0  0  0  0  0  0  0  0  0  0  0
    2.4441   -0.2282   -0.0889 H   0  0  0  0  0  0  0  0  0  0  0  0
    0.6107   -1.1762    2.7256 C   0  0  0  0  0  0  0  0  0  0  0  0
    0.7231   -0.2263    3.2499 H   0  0  0  0  0  0  0  0  0  0  0  0
   -0.4147   -1.5210    2.8586 H   0  0  0  0  0  0  0  0  0  0  0  0
    1.5311   -2.2118    3.3856 C   0  0  0  0  0  0  0  0  0  0  0  0
    2.5645   -1.8657    3.3766 H   0  0  0  0  0  0  0  0  0  0  0  0
    1.2235   -2.3578    4.4213 H   0  0  0  0  0  0  0  0  0  0  0  0
    1.4610   -3.1635    2.8577 H   0  0  0  0  0  0  0  0  0  0  0  0
    0.0513    0.2305   -0.9038 C   0  0  0  0  0  0  0  0  0  0  0  0
    1.0577   -0.2042   -1.4620 O   0  0  0  0  0  0  0  0  0  0  0  0
   -0.8263    1.0258   -1.5287 N   0  0  0  0  0  0  0  0  0  0  0  0
   -1.6339    1.3340   -1.0106 H   0  0  0  0  0  0  0  0  0  0  0  0
   -0.6842    1.4736   -2.9127 C   0  0  0  0  0  0  0  0  0  0  0  0
   -0.5299    0.6112   -3.5651 H   0  0  0  0  0  0  0  0  0  0  0  0
   -1.5798    2.0088   -3.2315 H   0  0  0  0  0  0  0  0  0  0  0  0
    0.1821    2.1323   -2.9985 H   0  0  0  0  0  0  0  0  0  0  0  0
  5  6  2  0  0  0  0
  5  7  1  0  0  0  0
  2  3  1  0  0  0  0
  2  4  1  0  0  0  0
  2  5  1  0  0  0  0
  1  2  1  0  0  0  0
 24 25  2  0  0  0  0
 24 26  1  0  0  0  0
 20 21  1  0  0  0  0
 20 22  1  0  0  0  0
 20 23  1  0  0  0  0
 17 18  1  0  0  0  0
 17 19  1  0  0  0  0
 17 20  1  0  0  0  0
 13 14  1  0  0  0  0
 13 15  1  0  0  0  0
 13 16  1  0  0  0  0
 11 12  1  0  0  0  0
 11 13  1  0  0  0  0
 11 17  1  0  0  0  0
  9 10  1  0  0  0  0
  9 11  1  0  0  0  0
  9 24  1  0  0  0  0
  7  8  1  0  0  0  0
  7  9  1  0  0  0  0
 28 29  1  0  0  0  0
 28 30  1  0  0  0  0
 28 31  1  0  0  0  0
 26 27  1  0  0  0  0
 26 28  1  0  0  0  0
M  END
$$$$
default_name
  -OEChem-01062215323D

 31 30  0     1  0  0  0  0  0999 V2000
   -3.0760   -3.6390    1.5496 H   0  0  0  0  0  0  0  0  0  0  0  0
   -3.0940   -2.6290    1.1426 C   0  0  0  0  0  0  0  0  0  0  0  0
   -3.7160   -1.9930    1.7706 H   0  0  0  0  0  0  0  0  0  0  0  0
   -3.4880   -2.6500    0.1286 H   0  0  0  0  0  0  0  0  0  0  0  0
   -1.6860   -2.0850    1.1196 C   0  0  0  0  0  0  0  0  0  0  0  0
   -0.7540   -2.7700    1.5226 O   0  0  0  0  0  0  0  0  0  0  0  0
   -1.5320   -0.8490    0.6496 N   0  0  0  0  0  0  0  0  0  0  0  0
   -2.3500   -0.3360    0.3566 H   0  0  0  0  0  0  0  0  0  0  0  0
   -0.2470   -0.1410    0.5576 C   0  0  1  0  0  0  0  0  0  0  0  0
   -0.3429    0.7890    1.1191 H   0  0  0  0  0  0  0  0  0  0  0  0
    0.8774   -0.9801    1.2163 C   0  0  1  0  0  0  0  0  0  0  0  0
    0.8562   -1.9676    0.7513 H   0  0  0  0  0  0  0  0  0  0  0  0
    2.2761   -0.3797    0.9780 C   0  0  0  0  0  0  0  0  0  0  0  0
    2.3745    0.5794    1.4895 H   0  0  0  0  0  0  0  0  0  0  0  0
    3.0460   -1.0579    1.3426 H   0  0  0  0  0  0  0  0  0  0  0  0
    2.4441   -0.2282   -0.0889 H   0  0  0  0  0  0  0  0  0  0  0  0
    0.6107   -1.1762    2.7256 C   0  0  0  0  0  0  0  0  0  0  0  0
    0.7231   -0.2263    3.2499 H   0  0  0  0  0  0  0  0  0  0  0  0
   -0.4147   -1.5210    2.8586 H   0  0  0  0  0  0  0  0  0  0  0  0
    1.5311   -2.2118    3.3856 C   0  0  0  0  0  0  0  0  0  0  0  0
    2.5645   -1.8657    3.3766 H   0  0  0  0  0  0  0  0  0  0  0  0
    1.2235   -2.3578    4.4213 H   0  0  0  0  0  0  0  0  0  0  0  0
    1.4610   -3.1635    2.8577 H   0  0  0  0  0  0  0  0  0  0  0  0
    0.0513    0.2305   -0.9038 C   0  0  0  0  0  0  0  0  0  0  0  0
    0.8856   -0.4039   -1.5479 O   0  0  0  0  0  0  0  0  0  0  0  0
   -0.6357    1.2511   -1.4325 N   0  0  0  0  0  0  0  0  0  0  0  0
   -1.3114    1.7168   -0.8475 H   0  0  0  0  0  0  0  0  0  0  0  0
   -0.4652    1.7302   -2.8028 C   0  0  0  0  0  0  0  0  0  0  0  0
   -0.5663    0.8956   -3.5002 H   0  0  0  0  0  0  0  0  0  0  0  0
   -1.2169    2.4856   -3.0362 H   0  0  0  0  0  0  0  0  0  0  0  0
    0.5310    2.1610   -2.9200 H   0  0  0  0  0  0  0  0  0  0  0  0
  5  6  2  0  0  0  0
  5  7  1  0  0  0  0
  2  3  1  0  0  0  0
  2  4  1  0  0  0  0
  2  5  1  0  0  0  0
  1  2  1  0  0  0  0
 24 25  2  0  0  0  0
 24 26  1  0  0  0  0
 20 21  1  0  0  0  0
 20 22  1  0  0  0  0
 20 23  1  0  0  0  0
 17 18  1  0  0  0  0
 17 19  1  0  0  0  0
 17 20  1  0  0  0  0
 13 14  1  0  0  0  0
 13 15  1  0  0  0  0
 13 16  1  0  0  0  0
 11 12  1  0  0  0  0
 11 13  1  0  0  0  0
 11 17  1  0  0  0  0
  9 10  1  0  0  0  0
  9 11  1  0  0  0  0
  9 24  1  0  0  0  0
  7  8  1  0  0  0  0
  7  9  1  0  0  0  0
 28 29  1  0  0  0  0
 28 30  1  0  0  0  0
 28 31  1  0  0  0  0
 26 27  1  0  0  0  0
 26 28  1  0  0  0  0
M  END
$$$$
default_name
  -OEChem-01062215323D

 31 30  0     1  0  0  0  0  0999 V2000
   -3.0760   -3.6390    1.5496 H   0  0  0  0  0  0  0  0  0  0  0  0
   -3.0940   -2.6290    1.1426 C   0  0  0  0  0  0  0  0  0  0  0  0
   -3.7160   -1.9930    1.7706 H   0  0  0  0  0  0  0  0  0  0  0  0
   -3.4880   -2.6500    0.1286 H   0  0  0  0  0  0  0  0  0  0  0  0
   -1.6860   -2.0850    1.1196 C   0  0  0  0  0  0  0  0  0  0  0  0
   -0.7540   -2.7700    1.5226 O   0  0  0  0  0  0  0  0  0  0  0  0
   -1.5320   -0.8490    0.6496 N   0  0  0  0  0  0  0  0  0  0  0  0
   -2.3500   -0.3360    0.3566 H   0  0  0  0  0  0  0  0  0  0  0  0
   -0.2470   -0.1410    0.5576 C   0  0  1  0  0  0  0  0  0  0  0  0
   -0.3429    0.7890    1.1191 H   0  0  0  0  0  0  0  0  0  0  0  0
    0.8774   -0.9801    1.2163 C   0  0  1  0  0  0  0  0  0  0  0  0
    0.8562   -1.9676    0.7513 H   0  0  0  0  0  0  0  0  0  0  0  0
    2.2761   -0.3797    0.9780 C   0  0  0  0  0  0  0  0  0  0  0  0
    2.3745    0.5794    1.4895 H   0  0  0  0  0  0  0  0  0  0  0  0
    3.0460   -1.0579    1.3426 H   0  0  0  0  0  0  0  0  0  0  0  0
    2.4441   -0.2282   -0.0889 H   0  0  0  0  0  0  0  0  0  0  0  0
    0.6107   -1.1762    2.7256 C   0  0  0  0  0  0  0  0  0  0  0  0
    0.7231   -0.2263    3.2499 H   0  0  0  0  0  0  0  0  0  0  0  0
   -0.4147   -1.5210    2.8586 H   0  0  0  0  0  0  0  0  0  0  0  0
    1.5311   -2.2118    3.3856 C   0  0  0  0  0  0  0  0  0  0  0  0
    2.5645   -1.8657    3.3766 H   0  0  0  0  0  0  0  0  0  0  0  0
    1.2235   -2.3578    4.4213 H   0  0  0  0  0  0  0  0  0  0  0  0
    1.4610   -3.1635    2.8577 H   0  0  0  0  0  0  0  0  0  0  0  0
    0.0513    0.2305   -0.9038 C   0  0  0  0  0  0  0  0  0  0  0  0
    0.6649   -0.5501   -1.6301 O   0  0  0  0  0  0  0  0  0  0  0  0
   -0.3901    1.4170   -1.3402 N   0  0  0  0  0  0  0  0  0  0  0  0
   -0.8954    1.9989   -0.6908 H   0  0  0  0  0  0  0  0  0  0  0  0
   -0.1837    1.9186   -2.6975 C   0  0  0  0  0  0  0  0  0  0  0  0
   -0.5274    1.1760   -3.4210 H   0  0  0  0  0  0  0  0  0  0  0  0
   -0.7368    2.8472   -2.8462 H   0  0  0  0  0  0  0  0  0  0  0  0
    0.8799    2.0988   -2.8646 H   0  0  0  0  0  0  0  0  0  0  0  0
  5  6  2  0  0  0  0
  5  7  1  0  0  0  0
  2  3  1  0  0  0  0
  2  4  1  0  0  0  0
  2  5  1  0  0  0  0
  1  2  1  0  0  0  0
 24 25  2  0  0  0  0
 24 26  1  0  0  0  0
 20 21  1  0  0  0  0
 20 22  1  0  0  0  0
 20 23  1  0  0  0  0
 17 18  1  0  0  0  0
 17 19  1  0  0  0  0
 17 20  1  0  0  0  0
 13 14  1  0  0  0  0
 13 15  1  0  0  0  0
 13 16  1  0  0  0  0
 11 12  1  0  0  0  0
 11 13  1  0  0  0  0
 11 17  1  0  0  0  0
  9 10  1  0  0  0  0
  9 11  1  0  0  0  0
  9 24  1  0  0  0  0
  7  8  1  0  0  0  0
  7  9  1  0  0  0  0
 28 29  1  0  0  0  0
 28 30  1  0  0  0  0
 28 31  1  0  0  0  0
 26 27  1  0  0  0  0
 26 28  1  0  0  0  0
M  END
$$$$
default_name
  -OEChem-01062215323D

 31 30  0     1  0  0  0  0  0999 V2000
   -3.0760   -3.6390    1.5496 H   0  0  0  0  0  0  0  0  0  0  0  0
   -3.0940   -2.6290    1.1426 C   0  0  0  0  0  0  0  0  0  0  0  0
   -3.7160   -1.9930    1.7706 H   0  0  0  0  0  0  0  0  0  0  0  0
   -3.4880   -2.6500    0.1286 H   0  0  0  0  0  0  0  0  0  0  0  0
   -1.6860   -2.0850    1.1196 C   0  0  0  0  0  0  0  0  0  0  0  0
   -0.7540   -2.7700    1.5226 O   0  0  0  0  0  0  0  0  0  0  0  0
   -1.5320   -0.8490    0.6496 N   0  0  0  0  0  0  0  0  0  0  0  0
   -2.3500   -0.3360    0.3566 H   0  0  0  0  0  0  0  0  0  0  0  0
   -0.2470   -0.1410    0.5576 C   0  0  1  0  0  0  0  0  0  0  0  0
   -0.3429    0.7890    1.1191 H   0  0  0  0  0  0  0  0  0  0  0  0
    0.8774   -0.9801    1.2163 C   0  0  1  0  0  0  0  0  0  0  0  0
    0.8562   -1.9676    0.7513 H   0  0  0  0  0  0  0  0  0  0  0  0
    2.2761   -0.3797    0.9780 C   0  0  0  0  0  0  0  0  0  0  0  0
    2.3745    0.5794    1.4895 H   0  0  0  0  0  0  0  0  0  0  0  0
    3.0460   -1.0579    1.3426 H   0  0  0  0  0  0  0  0  0  0  0  0
    2.4441   -0.2282   -0.0889 H   0  0  0  0  0  0  0  0  0  0  0  0
    0.6107   -1.1762    2.7256 C   0  0  0  0  0  0  0  0  0  0  0  0
    0.7231   -0.2263    3.2499 H   0  0  0  0  0  0  0  0  0  0  0  0
   -0.4147   -1.5210    2.8586 H   0  0  0  0  0  0  0  0  0  0  0  0
    1.5311   -2.2118    3.3856 C   0  0  0  0  0  0  0  0  0  0  0  0
    2.5645   -1.8657    3.3766 H   0  0  0  0  0  0  0  0  0  0  0  0
    1.2235   -2.3578    4.4213 H   0  0  0  0  0  0  0  0  0  0  0  0
    1.4610   -3.1635    2.8577 H   0  0  0  0  0  0  0  0  0  0  0  0
    0.0513    0.2305   -0.9038 C   0  0  0  0  0  0  0  0  0  0  0  0
    0.4106   -0.6328   -1.7030 O   0  0  0  0  0  0  0  0  0  0  0  0
   -0.1064    1.5122   -1.2581 N   0  0  0  0  0  0  0  0  0  0  0  0
   -0.4144    2.1613   -0.5513 H   0  0  0  0  0  0  0  0  0  0  0  0
    0.1411    2.0261   -2.6038 C   0  0  0  0  0  0  0  0  0  0  0  0
   -0.4159    1.4333   -3.3328 H   0  0  0  0  0  0  0  0  0  0  0  0
   -0.1722    3.0687   -2.6747 H   0  0  0  0  0  0  0  0  0  0  0  0
    1.2051    1.9502   -2.8360 H   0  0  0  0  0  0  0  0  0  0  0  0
  5  6  2  0  0  0  0
  5  7  1  0  0  0  0
  2  3  1  0  0  0  0
  2  4  1  0  0  0  0
  2  5  1  0  0  0  0
  1  2  1  0  0  0  0
 24 25  2  0  0  0  0
 24 26  1  0  0  0  0
 20 21  1  0  0  0  0
 20 22  1  0  0  0  0
 20 23  1  0  0  0  0
 17 18  1  0  0  0  0
 17 19  1  0  0  0  0
 17 20  1  0  0  0  0
 13 14  1  0  0  0  0
 13 15  1  0  0  0  0
 13 16  1  0  0  0  0
 11 12  1  0  0  0  0
 11 13  1  0  0  0  0
 11 17  1  0  0  0  0
  9 10  1  0  0  0  0
  9 11  1  0  0  0  0
  9 24  1  0  0  0  0
  7  8  1  0  0  0  0
  7  9  1  0  0  0  0
 28 29  1  0  0  0  0
 28 30  1  0  0  0  0
 28 31  1  0  0  0  0
 26 27  1  0  0  0  0
 26 28  1  0  0  0  0
M  END
$$$$
default_name
  -OEChem-01062215323D

 31 30  0     1  0  0  0  0  0999 V2000
   -3.0760   -3.6390    1.5496 H   0  0  0  0  0  0  0  0  0  0  0  0
   -3.0940   -2.6290    1.1426 C   0  0  0  0  0  0  0  0  0  0  0  0
   -3.7160   -1.9930    1.7706 H   0  0  0  0  0  0  0  0  0  0  0  0
   -3.4880   -2.6500    0.1286 H   0  0  0  0  0  0  0  0  0  0  0  0
   -1.6860   -2.0850    1.1196 C   0  0  0  0  0  0  0  0  0  0  0  0
   -0.7540   -2.7700    1.5226 O   0  0  0  0  0  0  0  0  0  0  0  0
   -1.5320   -0.8490    0.6496 N   0  0  0  0  0  0  0  0  0  0  0  0
   -2.3500   -0.3360    0.3566 H   0  0  0  0  0  0  0  0  0  0  0  0
   -0.2470   -0.1410    0.5576 C   0  0  1  0  0  0  0  0  0  0  0  0
   -0.3429    0.7890    1.1191 H   0  0  0  0  0  0  0  0  0  0  0  0
    0.8774   -0.9801    1.2163 C   0  0  1  0  0  0  0  0  0  0  0  0
    0.8562   -1.9676    0.7513 H   0  0  0  0  0  0  0  0  0  0  0  0
    2.2761   -0.3797    0.9780 C   0  0  0  0  0  0  0  0  0  0  0  0
    2.3745    0.5794    1.4895 H   0  0  0  0  0  0  0  0  0  0  0  0
    3.0460   -1.0579    1.3426 H   0  0  0  0  0  0  0  0  0  0  0  0
    2.4441   -0.2282   -0.0889 H   0  0  0  0  0  0  0  0  0  0  0  0
    0.6107   -1.1762    2.7256 C   0  0  0  0  0  0  0  0  0  0  0  0
    0.7231   -0.2263    3.2499 H   0  0  0  0  0  0  0  0  0  0  0  0
   -0.4147   -1.5210    2.8586 H   0  0  0  0  0  0  0  0  0  0  0  0
    1.5311   -2.2118    3.3856 C   0  0  0  0  0  0  0  0  0  0  0  0
    2.5645   -1.8657    3.3766 H   0  0  0  0  0  0  0  0  0  0  0  0
    1.2235   -2.3578    4.4213 H   0  0  0  0  0  0  0  0  0  0  0  0
    1.4610   -3.1635    2.8577 H   0  0  0  0  0  0  0  0  0  0  0  0
    0.0513    0.2305   -0.9038 C   0  0  0  0  0  0  0  0  0  0  0  0
    0.1400   -0.6466   -1.7618 O   0  0  0  0  0  0  0  0  0  0  0  0
    0.1963    1.5302   -1.1917 N   0  0  0  0  0  0  0  0  0  0  0  0
    0.0989    2.1927   -0.4386 H   0  0  0  0  0  0  0  0  0  0  0  0
    0.4872    2.0452   -2.5283 C   0  0  0  0  0  0  0  0  0  0  0  0
   -0.2393    1.6500   -3.2417 H   0  0  0  0  0  0  0  0  0  0  0  0
    0.4384    3.1351   -2.5331 H   0  0  0  0  0  0  0  0  0  0  0  0
    1.4845    1.7251   -2.8362 H   0  0  0  0  0  0  0  0  0  0  0  0
  5  6  2  0  0  0  0
  5  7  1  0  0  0  0
  2  3  1  0  0  0  0
  2  4  1  0  0  0  0
  2  5  1  0  0  0  0
  1  2  1  0  0  0  0
 24 25  2  0  0  0  0
 24 26  1  0  0  0  0
 20 21  1  0  0  0  0
 20 22  1  0  0  0  0
 20 23  1  0  0  0  0
 17 18  1  0  0  0  0
 17 19  1  0  0  0  0
 17 20  1  0  0  0  0
 13 14  1  0  0  0  0
 13 15  1  0  0  0  0
 13 16  1  0  0  0  0
 11 12  1  0  0  0  0
 11 13  1  0  0  0  0
 11 17  1  0  0  0  0
  9 10  1  0  0  0  0
  9 11  1  0  0  0  0
  9 24  1  0  0  0  0
  7  8  1  0  0  0  0
  7  9  1  0  0  0  0
 28 29  1  0  0  0  0
 28 30  1  0  0  0  0
 28 31  1  0  0  0  0
 26 27  1  0  0  0  0
 26 28  1  0  0  0  0
M  END
$$$$
default_name
  -OEChem-01062215323D

 31 30  0     1  0  0  0  0  0999 V2000
   -3.0760   -3.6390    1.5496 H   0  0  0  0  0  0  0  0  0  0  0  0
   -3.0940   -2.6290    1.1426 C   0  0  0  0  0  0  0  0  0  0  0  0
   -3.7160   -1.9930    1.7706 H   0  0  0  0  0  0  0  0  0  0  0  0
   -3.4880   -2.6500    0.1286 H   0  0  0  0  0  0  0  0  0  0  0  0
   -1.6860   -2.0850    1.1196 C   0  0  0  0  0  0  0  0  0  0  0  0
   -0.7540   -2.7700    1.5226 O   0  0  0  0  0  0  0  0  0  0  0  0
   -1.5320   -0.8490    0.6496 N   0  0  0  0  0  0  0  0  0  0  0  0
   -2.3500   -0.3360    0.3566 H   0  0  0  0  0  0  0  0  0  0  0  0
   -0.2470   -0.1410    0.5576 C   0  0  1  0  0  0  0  0  0  0  0  0
   -0.3429    0.7890    1.1191 H   0  0  0  0  0  0  0  0  0  0  0  0
    0.8774   -0.9801    1.2163 C   0  0  1  0  0  0  0  0  0  0  0  0
    0.8562   -1.9676    0.7513 H   0  0  0  0  0  0  0  0  0  0  0  0
    2.2761   -0.3797    0.9780 C   0  0  0  0  0  0  0  0  0  0  0  0
    2.3745    0.5794    1.4895 H   0  0  0  0  0  0  0  0  0  0  0  0
    3.0460   -1.0579    1.3426 H   0  0  0  0  0  0  0  0  0  0  0  0
    2.4441   -0.2282   -0.0889 H   0  0  0  0  0  0  0  0  0  0  0  0
    0.6107   -1.1762    2.7256 C   0  0  0  0  0  0  0  0  0  0  0  0
    0.7231   -0.2263    3.2499 H   0  0  0  0  0  0  0  0  0  0  0  0
   -0.4147   -1.5210    2.8586 H   0  0  0  0  0  0  0  0  0  0  0  0
    1.5311   -2.2118    3.3856 C   0  0  0  0  0  0  0  0  0  0  0  0
    2.5645   -1.8657    3.3766 H   0  0  0  0  0  0  0  0  0  0  0  0
    1.2235   -2.3578    4.4213 H   0  0  0  0  0  0  0  0  0  0  0  0
    1.4610   -3.1635    2.8577 H   0  0  0  0  0  0  0  0  0  0  0  0
    0.0513    0.2305   -0.9038 C   0  0  0  0  0  0  0  0  0  0  0  0
   -0.1284   -0.5903   -1.8023 O   0  0  0  0  0  0  0  0  0  0  0  0
    0.4973    1.4698   -1.1456 N   0  0  0  0  0  0  0  0  0  0  0  0
    0.6095    2.0911   -0.3601 H   0  0  0  0  0  0  0  0  0  0  0  0
    0.8310    1.9748   -2.4760 C   0  0  0  0  0  0  0  0  0  0  0  0
   -0.0098    1.8113   -3.1538 H   0  0  0  0  0  0  0  0  0  0  0  0
    1.0534    3.0419   -2.4313 H   0  0  0  0  0  0  0  0  0  0  0  0
    1.6989    1.4390   -2.8651 H   0  0  0  0  0  0  0  0  0  0  0  0
  5  6  2  0  0  0  0
  5  7  1  0  0  0  0
  2  3  1  0  0  0  0
  2  4  1  0  0  0  0
  2  5  1  0  0  0  0
  1  2  1  0  0  0  0
 24 25  2  0  0  0  0
 24 26  1  0  0  0  0
 20 21  1  0  0  0  0
 20 22  1  0  0  0  0
 20 23  1  0  0  0  0
 17 18  1  0  0  0  0
 17 19  1  0  0  0  0
 17 20  1  0  0  0  0
 13 14  1  0  0  0  0
 13 15  1  0  0  0  0
 13 16  1  0  0  0  0
 11 12  1  0  0  0  0
 11 13  1  0  0  0  0
 11 17  1  0  0  0  0
  9 10  1  0  0  0  0
  9 11  1  0  0  0  0
  9 24  1  0  0  0  0
  7  8  1  0  0  0  0
  7  9  1  0  0  0  0
 28 29  1  0  0  0  0
 28 30  1  0  0  0  0
 28 31  1  0  0  0  0
 26 27  1  0  0  0  0
 26 28  1  0  0  0  0
M  END
$$$$
default_name
  -OEChem-01062215323D

 31 30  0     1  0  0  0  0  0999 V2000
   -3.0760   -3.6390    1.5496 H   0  0  0  0  0  0  0  0  0  0  0  0
   -3.0940   -2.6290    1.1426 C   0  0  0  0  0  0  0  0  0  0  0  0
   -3.7160   -1.9930    1.7706 H   0  0  0  0  0  0  0  0  0  0  0  0
   -3.4880   -2.6500    0.1286 H   0  0  0  0  0  0  0  0  0  0  0  0
   -1.6860   -2.0850    1.1196 C   0  0  0  0  0  0  0  0  0  0  0  0
   -0.7540   -2.7700    1.5226 O   0  0  0  0  0  0  0  0  0  0  0  0
   -1.5320   -0.8490    0.6496 N   0  0  0  0  0  0  0  0  0  0  0  0
   -2.3500   -0.3360    0.3566 H   0  0  0  0  0  0  0  0  0  0  0  0
   -0.2470   -0.1410    0.5576 C   0  0  1  0  0  0  0  0  0  0  0  0
   -0.3429    0.7890    1.1191 H   0  0  0  0  0  0  0  0  0  0  0  0
    0.8774   -0.9801    1.2163 C   0  0  1  0  0  0  0  0  0  0  0  0
    0.8562   -1.9676    0.7513 H   0  0  0  0  0  0  0  0  0  0  0  0
    2.2761   -0.3797    0.9780 C   0  0  0  0  0  0  0  0  0  0  0  0
    2.3745    0.5794    1.4895 H   0  0  0  0  0  0  0  0  0  0  0  0
    3.0460   -1.0579    1.3426 H   0  0  0  0  0  0  0  0  0  0  0  0
    2.4441   -0.2282   -0.0889 H   0  0  0  0  0  0  0  0  0  0  0  0
    0.6107   -1.1762    2.7256 C   0  0  0  0  0  0  0  0  0  0  0  0
    0.7231   -0.2263    3.2499 H   0  0  0  0  0  0  0  0  0  0  0  0
   -0.4147   -1.5210    2.8586 H   0  0  0  0  0  0  0  0  0  0  0  0
    1.5311   -2.2118    3.3856 C   0  0  0  0  0  0  0  0  0  0  0  0
    2.5645   -1.8657    3.3766 H   0  0  0  0  0  0  0  0  0  0  0  0
    1.2235   -2.3578    4.4213 H   0  0  0  0  0  0  0  0  0  0  0  0
    1.4610   -3.1635    2.8577 H   0  0  0  0  0  0  0  0  0  0  0  0
    0.0513    0.2305   -0.9038 C   0  0  0  0  0  0  0  0  0  0  0  0
   -0.3764   -0.4678   -1.8218 O   0  0  0  0  0  0  0  0  0  0  0  0
    0.7760    1.3351   -1.1230 N   0  0  0  0  0  0  0  0  0  0  0  0
    1.0826    1.8634   -0.3214 H   0  0  0  0  0  0  0  0  0  0  0  0
    1.1489    1.8195   -2.4506 C   0  0  0  0  0  0  0  0  0  0  0  0
    0.2571    1.9061   -3.0752 H   0  0  0  0  0  0  0  0  0  0  0  0
    1.6309    2.7954   -2.3760 H   0  0  0  0  0  0  0  0  0  0  0  0
    1.8339    1.1113   -2.9209 H   0  0  0  0  0  0  0  0  0  0  0  0
  5  6  2  0  0  0  0
  5  7  1  0  0  0  0
  2  3  1  0  0  0  0
  2  4  1  0  0  0  0
  2  5  1  0  0  0  0
  1  2  1  0  0  0  0
 24 25  2  0  0  0  0
 24 26  1  0  0  0  0
 20 21  1  0  0  0  0
 20 22  1  0  0  0  0
 20 23  1  0  0  0  0
 17 18  1  0  0  0  0
 17 19  1  0  0  0  0
 17 20  1  0  0  0  0
 13 14  1  0  0  0  0
 13 15  1  0  0  0  0
 13 16  1  0  0  0  0
 11 12  1  0  0  0  0
 11 13  1  0  0  0  0
 11 17  1  0  0  0  0
  9 10  1  0  0  0  0
  9 11  1  0  0  0  0
  9 24  1  0  0  0  0
  7  8  1  0  0  0  0
  7  9  1  0  0  0  0
 28 29  1  0  0  0  0
 28 30  1  0  0  0  0
 28 31  1  0  0  0  0
 26 27  1  0  0  0  0
 26 28  1  0  0  0  0
M  END
$$$$
default_name
  -OEChem-01062215323D

 31 30  0     1  0  0  0  0  0999 V2000
   -3.0760   -3.6390    1.5496 H   0  0  0  0  0  0  0  0  0  0  0  0
   -3.0940   -2.6290    1.1426 C   0  0  0  0  0  0  0  0  0  0  0  0
   -3.7160   -1.9930    1.7706 H   0  0  0  0  0  0  0  0  0  0  0  0
   -3.4880   -2.6500    0.1286 H   0  0  0  0  0  0  0  0  0  0  0  0
   -1.6860   -2.0850    1.1196 C   0  0  0  0  0  0  0  0  0  0  0  0
   -0.7540   -2.7700    1.5226 O   0  0  0  0  0  0  0  0  0  0  0  0
   -1.5320   -0.8490    0.6496 N   0  0  0  0  0  0  0  0  0  0  0  0
   -2.3500   -0.3360    0.3566 H   0  0  0  0  0  0  0  0  0  0  0  0
   -0.2470   -0.1410    0.5576 C   0  0  1  0  0  0  0  0  0  0  0  0
   -0.3429    0.7890    1.1191 H   0  0  0  0  0  0  0  0  0  0  0  0
    0.8774   -0.9801    1.2163 C   0  0  1  0  0  0  0  0  0  0  0  0
    0.8562   -1.9676    0.7513 H   0  0  0  0  0  0  0  0  0  0  0  0
    2.2761   -0.3797    0.9780 C   0  0  0  0  0  0  0  0  0  0  0  0
    2.3745    0.5794    1.4895 H   0  0  0  0  0  0  0  0  0  0  0  0
    3.0460   -1.0579    1.3426 H   0  0  0  0  0  0  0  0  0  0  0  0
    2.4441   -0.2282   -0.0889 H   0  0  0  0  0  0  0  0  0  0  0  0
    0.6107   -1.1762    2.7256 C   0  0  0  0  0  0  0  0  0  0  0  0
    0.7231   -0.2263    3.2499 H   0  0  0  0  0  0  0  0  0  0  0  0
   -0.4147   -1.5210    2.8586 H   0  0  0  0  0  0  0  0  0  0  0  0
    1.5311   -2.2118    3.3856 C   0  0  0  0  0  0  0  0  0  0  0  0
    2.5645   -1.8657    3.3766 H   0  0  0  0  0  0  0  0  0  0  0  0
    1.2235   -2.3578    4.4213 H   0  0  0  0  0  0  0  0  0  0  0  0
    1.4610   -3.1635    2.8577 H   0  0  0  0  0  0  0  0  0  0  0  0
    0.0513    0.2305   -0.9038 C   0  0  0  0  0  0  0  0  0  0  0  0
   -0.5870   -0.2875   -1.8189 O   0  0  0  0  0  0  0  0  0  0  0  0
    1.0134    1.1352   -1.1253 N   0  0  0  0  0  0  0  0  0  0  0  0
    1.4859    1.5251   -0.3251 H   0  0  0  0  0  0  0  0  0  0  0  0
    1.4194    1.5900   -2.4537 C   0  0  0  0  0  0  0  0  0  0  0  0
    0.5432    1.9281   -3.0112 H   0  0  0  0  0  0  0  0  0  0  0  0
    2.1315    2.4124   -2.3712 H   0  0  0  0  0  0  0  0  0  0  0  0
    1.8801    0.7644   -2.9996 H   0  0  0  0  0  0  0  0  0  0  0  0
  5  6  2  0  0  0  0
  5  7  1  0  0  0  0
  2  3  1  0  0  0  0
  2  4  1  0  0  0  0
  2  5  1  0  0  0  0
  1  2  1  0  0  0  0
 24 25  2  0  0  0  0
 24 26  1  0  0  0  0
 20 21  1  0  0  0  0
 20 22  1  0  0  0  0
 20 23  1  0  0  0  0
 17 18  1  0  0  0  0
 17 19  1  0  0  0  0
 17 20  1  0  0  0  0
 13 14  1  0  0  0  0
 13 15  1  0  0  0  0
 13 16  1  0  0  0  0
 11 12  1  0  0  0  0
 11 13  1  0  0  0  0
 11 17  1  0  0  0  0
  9 10  1  0  0  0  0
  9 11  1  0  0  0  0
  9 24  1  0  0  0  0
  7  8  1  0  0  0  0
  7  9  1  0  0  0  0
 28 29  1  0  0  0  0
 28 30  1  0  0  0  0
 28 31  1  0  0  0  0
 26 27  1  0  0  0  0
 26 28  1  0  0  0  0
M  END
$$$$
default_name
  -OEChem-01062215323D

 31 30  0     1  0  0  0  0  0999 V2000
   -3.0760   -3.6390    1.5496 H   0  0  0  0  0  0  0  0  0  0  0  0
   -3.0940   -2.6290    1.1426 C   0  0  0  0  0  0  0  0  0  0  0  0
   -3.7160   -1.9930    1.7706 H   0  0  0  0  0  0  0  0  0  0  0  0
   -3.4880   -2.6500    0.1286 H   0  0  0  0  0  0  0  0  0  0  0  0
   -1.6860   -2.0850    1.1196 C   0  0  0  0  0  0  0  0  0  0  0  0
   -0.7540   -2.7700    1.5226 O   0  0  0  0  0  0  0  0  0  0  0  0
   -1.5320   -0.8490    0.6496 N   0  0  0  0  0  0  0  0  0  0  0  0
   -2.3500   -0.3360    0.3566 H   0  0  0  0  0  0  0  0  0  0  0  0
   -0.2470   -0.1410    0.5576 C   0  0  1  0  0  0  0  0  0  0  0  0
   -0.2448    0.6372    1.3216 H   0  0  0  0  0  0  0  0  0  0  0  0
    0.9236   -1.1099    0.8627 C   0  0  1  0  0  0  0  0  0  0  0  0
    0.8153   -1.9658    0.1937 H   0  0  0  0  0  0  0  0  0  0  0  0
    2.3002   -0.4737    0.5907 C   0  0  0  0  0  0  0  0  0  0  0  0
    2.4899    0.3439    1.2884 H   0  0  0  0  0  0  0  0  0  0  0  0
    3.0879   -1.2184    0.6928 H   0  0  0  0  0  0  0  0  0  0  0  0
    2.3404   -0.0840   -0.4271 H   0  0  0  0  0  0  0  0  0  0  0  0
    0.8384   -1.6434    2.3103 C   0  0  0  0  0  0  0  0  0  0  0  0
    1.0433   -0.8377    3.0165 H   0  0  0  0  0  0  0  0  0  0  0  0
   -0.1729   -2.0076    2.4909 H   0  0  0  0  0  0  0  0  0  0  0  0
    1.8008   -2.8036    2.5983 C   0  0  0  0  0  0  0  0  0  0  0  0
    2.8354   -2.4664    2.5368 H   0  0  0  0  0  0  0  0  0  0  0  0
    1.6184   -3.1807    3.6049 H   0  0  0  0  0  0  0  0  0  0  0  0
    1.6373   -3.6103    1.8829 H   0  0  0  0  0  0  0  0  0  0  0  0
   -0.1192    0.5524   -0.8083 C   0  0  0  0  0  0  0  0  0  0  0  0
   -1.0282    0.4716   -1.6332 O   0  0  0  0  0  0  0  0  0  0  0  0
    1.0032    1.2430   -1.0459 N   0  0  0  0  0  0  0  0  0  0  0  0
    1.6996    1.2740   -0.3180 H   0  0  0  0  0  0  0  0  0  0  0  0
    1.2795    1.9522   -2.2936 C   0  0  0  0  0  0  0  0  0  0  0  0
    0.4492    2.6219   -2.5285 H   0  0  0  0  0  0  0  0  0  0  0  0
    2.1965    2.5361   -2.2024 H   0  0  0  0  0  0  0  0  0  0  0  0
    1.3862    1.2337   -3.1086 H   0  0  0  0  0  0  0  0  0  0  0  0
  5  6  2  0  0  0  0
  5  7  1  0  0  0  0
  2  3  1  0  0  0  0
  2  4  1  0  0  0  0
  2  5  1  0  0  0  0
  1  2  1  0  0  0  0
 24 25  2  0  0  0  0
 24 26  1  0  0  0  0
 20 21  1  0  0  0  0
 20 22  1  0  0  0  0
 20 23  1  0  0  0  0
 17 18  1  0  0  0  0
 17 19  1  0  0  0  0
 17 20  1  0  0  0  0
 13 14  1  0  0  0  0
 13 15  1  0  0  0  0
 13 16  1  0  0  0  0
 11 12  1  0  0  0  0
 11 13  1  0  0  0  0
 11 17  1  0  0  0  0
  9 10  1  0  0  0  0
  9 11  1  0  0  0  0
  9 24  1  0  0  0  0
  7  8  1  0  0  0  0
  7  9  1  0  0  0  0
 28 29  1  0  0  0  0
 28 30  1  0  0  0  0
 28 31  1  0  0  0  0
 26 27  1  0  0  0  0
 26 28  1  0  0  0  0
M  END
$$$$
default_name
  -OEChem-01062215323D

 31 30  0     1  0  0  0  0  0999 V2000
   -3.0760   -3.6390    1.5496 H   0  0  0  0  0  0  0  0  0  0  0  0
   -3.0940   -2.6290    1.1426 C   0  0  0  0  0  0  0  0  0  0  0  0
   -3.7160   -1.9930    1.7706 H   0  0  0  0  0  0  0  0  0  0  0  0
   -3.4880   -2.6500    0.1286 H   0  0  0  0  0  0  0  0  0  0  0  0
   -1.6860   -2.0850    1.1196 C   0  0  0  0  0  0  0  0  0  0  0  0
   -0.7540   -2.7700    1.5226 O   0  0  0  0  0  0  0  0  0  0  0  0
   -1.5320   -0.8490    0.6496 N   0  0  0  0  0  0  0  0  0  0  0  0
   -2.3500   -0.3360    0.3566 H   0  0  0  0  0  0  0  0  0  0  0  0
   -0.2470   -0.1410    0.5576 C   0  0  1  0  0  0  0  0  0  0  0  0
   -0.2448    0.6372    1.3216 H   0  0  0  0  0  0  0  0  0  0  0  0
    0.9236   -1.1099    0.8627 C   0  0  1  0  0  0  0  0  0  0  0  0
    0.8153   -1.9658    0.1937 H   0  0  0  0  0  0  0  0  0  0  0  0
    2.3002   -0.4737    0.5907 C   0  0  0  0  0  0  0  0  0  0  0  0
    2.4899    0.3439    1.2884 H   0  0  0  0  0  0  0  0  0  0  0  0
    3.0879   -1.2184    0.6928 H   0  0  0  0  0  0  0  0  0  0  0  0
    2.3404   -0.0840   -0.4271 H   0  0  0  0  0  0  0  0  0  0  0  0
    0.8384   -1.6434    2.3103 C   0  0  0  0  0  0  0  0  0  0  0  0
    1.0433   -0.8377    3.0165 H   0  0  0  0  0  0  0  0  0  0  0  0
   -0.1729   -2.0076    2.4909 H   0  0  0  0  0  0  0  0  0  0  0  0
    1.8008   -2.8036    2.5983 C   0  0  0  0  0  0  0  0  0  0  0  0
    2.8354   -2.4664    2.5368 H   0  0  0  0  0  0  0  0  0  0  0  0
    1.6184   -3.1807    3.6049 H   0  0  0  0  0  0  0  0  0  0  0  0
    1.6373   -3.6103    1.8829 H   0  0  0  0  0  0  0  0  0  0  0  0
   -0.1192    0.5524   -0.8083 C   0  0  0  0  0  0  0  0  0  0  0  0
   -1.1103    0.7107   -1.5195 O   0  0  0  0  0  0  0  0  0  0  0  0
    1.0978    0.9759   -1.1726 N   0  0  0  0  0  0  0  0  0  0  0  0
    1.8609    0.8212   -0.5328 H   0  0  0  0  0  0  0  0  0  0  0  0
    1.3862    1.6466   -2.4388 C   0  0  0  0  0  0  0  0  0  0  0  0
    0.7121    2.4963   -2.5677 H   0  0  0  0  0  0  0  0  0  0  0  0
    2.4177    2.0017   -2.4529 H   0  0  0  0  0  0  0  0  0  0  0  0
    1.2301    0.9518   -3.2663 H   0  0  0  0  0  0  0  0  0  0  0  0
  5  6  2  0  0  0  0
  5  7  1  0  0  0  0
  2  3  1  0  0  0  0
  2  4  1  0  0  0  0
  2  5  1  0  0  0  0
  1  2  1  0  0  0  0
 24 25  2  0  0  0  0
 24 26  1  0  0  0  0
 20 21  1  0  0  0  0
 20 22  1  0  0  0  0
 20 23  1  0  0  0  0
 17 18  1  0  0  0  0
 17 19  1  0  0  0  0
 17 20  1  0  0  0  0
 13 14  1  0  0  0  0
 13 15  1  0  0  0  0
 13 16  1  0  0  0  0
 11 12  1  0  0  0  0
 11 13  1  0  0  0  0
 11 17  1  0  0  0  0
  9 10  1  0  0  0  0
  9 11  1  0  0  0  0
  9 24  1  0  0  0  0
  7  8  1  0  0  0  0
  7  9  1  0  0  0  0
 28 29  1  0  0  0  0
 28 30  1  0  0  0  0
 28 31  1  0  0  0  0
 26 27  1  0  0  0  0
 26 28  1  0  0  0  0
M  END
$$$$
default_name
  -OEChem-01062215323D

 31 30  0     1  0  0  0  0  0999 V2000
   -3.0760   -3.6390    1.5496 H   0  0  0  0  0  0  0  0  0  0  0  0
   -3.0940   -2.6290    1.1426 C   0  0  0  0  0  0  0  0  0  0  0  0
   -3.7160   -1.9930    1.7706 H   0  0  0  0  0  0  0  0  0  0  0  0
   -3.4880   -2.6500    0.1286 H   0  0  0  0  0  0  0  0  0  0  0  0
   -1.6860   -2.0850    1.1196 C   0  0  0  0  0  0  0  0  0  0  0  0
   -0.7540   -2.7700    1.5226 O   0  0  0  0  0  0  0  0  0  0  0  0
   -1.5320   -0.8490    0.6496 N   0  0  0  0  0  0  0  0  0  0  0  0
   -2.3500   -0.3360    0.3566 H   0  0  0  0  0  0  0  0  0  0  0  0
   -0.2470   -0.1410    0.5576 C   0  0  1  0  0  0  0  0  0  0  0  0
   -0.2448    0.6372    1.3216 H   0  0  0  0  0  0  0  0  0  0  0  0
    0.9236   -1.1099    0.8627 C   0  0  1  0  0  0  0  0  0  0  0  0
    0.8153   -1.9658    0.1937 H   0  0  0  0  0  0  0  0  0  0  0  0
    2.3002   -0.4737    0.5907 C   0  0  0  0  0  0  0  0  0  0  0  0
    2.4899    0.3439    1.2884 H   0  0  0  0  0  0  0  0  0  0  0  0
    3.0879   -1.2184    0.6928 H   0  0  0  0  0  0  0  0  0  0  0  0
    2.3404   -0.0840   -0.4271 H   0  0  0  0  0  0  0  0  0  0  0  0
    0.8384   -1.6434    2.3103 C   0  0  0  0  0  0  0  0  0  0  0  0
    1.0433   -0.8377    3.0165 H   0  0  0  0  0  0  0  0  0  0  0  0
   -0.1729   -2.0076    2.4909 H   0  0  0  0  0  0  0  0  0  0  0  0
    1.8008   -2.8036    2.5983 C   0  0  0  0  0  0  0  0  0  0  0  0
    2.8354   -2.4664    2.5368 H   0  0  0  0  0  0  0  0  0  0  0  0
    1.6184   -3.1807    3.6049 H   0  0  0  0  0  0  0  0  0  0  0  0
    1.6373   -3.6103    1.8829 H   0  0  0  0  0  0  0  0  0  0  0  0
   -0.1192    0.5524   -0.8083 C   0  0  0  0  0  0  0  0  0  0  0  0
   -1.1214    0.9581   -1.3949 O   0  0  0  0  0  0  0  0  0  0  0  0
    1.1129    0.6989   -1.3118 N   0  0  0  0  0  0  0  0  0  0  0  0
    1.8875    0.3514   -0.7688 H   0  0  0  0  0  0  0  0  0  0  0  0
    1.4021    1.3300   -2.5980 C   0  0  0  0  0  0  0  0  0  0  0  0
    0.9325    2.3153   -2.6389 H   0  0  0  0  0  0  0  0  0  0  0  0
    2.4791    1.4400   -2.7323 H   0  0  0  0  0  0  0  0  0  0  0  0
    0.9960    0.7189   -3.4064 H   0  0  0  0  0  0  0  0  0  0  0  0
  5  6  2  0  0  0  0
  5  7  1  0  0  0  0
  2  3  1  0  0  0  0
  2  4  1  0  0  0  0
  2  5  1  0  0  0  0
  1  2  1  0  0  0  0
 24 25  2  0  0  0  0
 24 26  1  0  0  0  0
 20 21  1  0  0  0  0
 20 22  1  0  0  0  0
 20 23  1  0  0  0  0
 17 18  1  0  0  0  0
 17 19  1  0  0  0  0
 17 20  1  0  0  0  0
 13 14  1  0  0  0  0
 13 15  1  0  0  0  0
 13 16  1  0  0  0  0
 11 12  1  0  0  0  0
 11 13  1  0  0  0  0
 11 17  1  0  0  0  0
  9 10  1  0  0  0  0
  9 11  1  0  0  0  0
  9 24  1  0  0  0  0
  7  8  1  0  0  0  0
  7  9  1  0  0  0  0
 28 29  1  0  0  0  0
 28 30  1  0  0  0  0
 28 31  1  0  0  0  0
 26 27  1  0  0  0  0
 26 28  1  0  0  0  0
M  END
$$$$
default_name
  -OEChem-01062215323D

 31 30  0     1  0  0  0  0  0999 V2000
   -3.0760   -3.6390    1.5496 H   0  0  0  0  0  0  0  0  0  0  0  0
   -3.0940   -2.6290    1.1426 C   0  0  0  0  0  0  0  0  0  0  0  0
   -3.7160   -1.9930    1.7706 H   0  0  0  0  0  0  0  0  0  0  0  0
   -3.4880   -2.6500    0.1286 H   0  0  0  0  0  0  0  0  0  0  0  0
   -1.6860   -2.0850    1.1196 C   0  0  0  0  0  0  0  0  0  0  0  0
   -0.7540   -2.7700    1.5226 O   0  0  0  0  0  0  0  0  0  0  0  0
   -1.5320   -0.8490    0.6496 N   0  0  0  0  0  0  0  0  0  0  0  0
   -2.3500   -0.3360    0.3566 H   0  0  0  0  0  0  0  0  0  0  0  0
   -0.2470   -0.1410    0.5576 C   0  0  1  0  0  0  0  0  0  0  0  0
   -0.2448    0.6372    1.3216 H   0  0  0  0  0  0  0  0  0  0  0  0
    0.9236   -1.1099    0.8627 C   0  0  1  0  0  0  0  0  0  0  0  0
    0.8153   -1.9658    0.1937 H   0  0  0  0  0  0  0  0  0  0  0  0
    2.3002   -0.4737    0.5907 C   0  0  0  0  0  0  0  0  0  0  0  0
    2.4899    0.3439    1.2884 H   0  0  0  0  0  0  0  0  0  0  0  0
    3.0879   -1.2184    0.6928 H   0  0  0  0  0  0  0  0  0  0  0  0
    2.3404   -0.0840   -0.4271 H   0  0  0  0  0  0  0  0  0  0  0  0
    0.8384   -1.6434    2.3103 C   0  0  0  0  0  0  0  0  0  0  0  0
    1.0433   -0.8377    3.0165 H   0  0  0  0  0  0  0  0  0  0  0  0
   -0.1729   -2.0076    2.4909 H   0  0  0  0  0  0  0  0  0  0  0  0
    1.8008   -2.8036    2.5983 C   0  0  0  0  0  0  0  0  0  0  0  0
    2.8354   -2.4664    2.5368 H   0  0  0  0  0  0  0  0  0  0  0  0
    1.6184   -3.1807    3.6049 H   0  0  0  0  0  0  0  0  0  0  0  0
    1.6373   -3.6103    1.8829 H   0  0  0  0  0  0  0  0  0  0  0  0
   -0.1192    0.5524   -0.8083 C   0  0  0  0  0  0  0  0  0  0  0  0
   -1.0607    1.1969   -1.2680 O   0  0  0  0  0  0  0  0  0  0  0  0
    1.0476    0.4308   -1.4540 N   0  0  0  0  0  0  0  0  0  0  0  0
    1.7777   -0.1035   -1.0100 H   0  0  0  0  0  0  0  0  0  0  0  0
    1.3260    1.0239   -2.7605 C   0  0  0  0  0  0  0  0  0  0  0  0
    1.0955    2.0913   -2.7373 H   0  0  0  0  0  0  0  0  0  0  0  0
    2.3767    0.8894   -3.0214 H   0  0  0  0  0  0  0  0  0  0  0  0
    0.7000    0.5507   -3.5195 H   0  0  0  0  0  0  0  0  0  0  0  0
  5  6  2  0  0  0  0
  5  7  1  0  0  0  0
  2  3  1  0  0  0  0
  2  4  1  0  0  0  0
  2  5  1  0  0  0  0
  1  2  1  0  0  0  0
 24 25  2  0  0  0  0
 24 26  1  0  0  0  0
 20 21  1  0  0  0  0
 20 22  1  0  0  0  0
 20 23  1  0  0  0  0
 17 18  1  0  0  0  0
 17 19  1  0  0  0  0
 17 20  1  0  0  0  0
 13 14  1  0  0  0  0
 13 15  1  0  0  0  0
 13 16  1  0  0  0  0
 11 12  1  0  0  0  0
 11 13  1  0  0  0  0
 11 17  1  0  0  0  0
  9 10  1  0  0  0  0
  9 11  1  0  0  0  0
  9 24  1  0  0  0  0
  7  8  1  0  0  0  0
  7  9  1  0  0  0  0
 28 29  1  0  0  0  0
 28 30  1  0  0  0  0
 28 31  1  0  0  0  0
 26 27  1  0  0  0  0
 26 28  1  0  0  0  0
M  END
$$$$
default_name
  -OEChem-01062215323D

 31 30  0     1  0  0  0  0  0999 V2000
   -3.0760   -3.6390    1.5496 H   0  0  0  0  0  0  0  0  0  0  0  0
   -3.0940   -2.6290    1.1426 C   0  0  0  0  0  0  0  0  0  0  0  0
   -3.7160   -1.9930    1.7706 H   0  0  0  0  0  0  0  0  0  0  0  0
   -3.4880   -2.6500    0.1286 H   0  0  0  0  0  0  0  0  0  0  0  0
   -1.6860   -2.0850    1.1196 C   0  0  0  0  0  0  0  0  0  0  0  0
   -0.7540   -2.7700    1.5226 O   0  0  0  0  0  0  0  0  0  0  0  0
   -1.5320   -0.8490    0.6496 N   0  0  0  0  0  0  0  0  0  0  0  0
   -2.3500   -0.3360    0.3566 H   0  0  0  0  0  0  0  0  0  0  0  0
   -0.2470   -0.1410    0.5576 C   0  0  1  0  0  0  0  0  0  0  0  0
   -0.2448    0.6372    1.3216 H   0  0  0  0  0  0  0  0  0  0  0  0
    0.9236   -1.1099    0.8627 C   0  0  1  0  0  0  0  0  0  0  0  0
    0.8153   -1.9658    0.1937 H   0  0  0  0  0  0  0  0  0  0  0  0
    2.3002   -0.4737    0.5907 C   0  0  0  0  0  0  0  0  0  0  0  0
    2.4899    0.3439    1.2884 H   0  0  0  0  0  0  0  0  0  0  0  0
    3.0879   -1.2184    0.6928 H   0  0  0  0  0  0  0  0  0  0  0  0
    2.3404   -0.0840   -0.4271 H   0  0  0  0  0  0  0  0  0  0  0  0
    0.8384   -1.6434    2.3103 C   0  0  0  0  0  0  0  0  0  0  0  0
    1.0433   -0.8377    3.0165 H   0  0  0  0  0  0  0  0  0  0  0  0
   -0.1729   -2.0076    2.4909 H   0  0  0  0  0  0  0  0  0  0  0  0
    1.8008   -2.8036    2.5983 C   0  0  0  0  0  0  0  0  0  0  0  0
    2.8354   -2.4664    2.5368 H   0  0  0  0  0  0  0  0  0  0  0  0
    1.6184   -3.1807    3.6049 H   0  0  0  0  0  0  0  0  0  0  0  0
    1.6373   -3.6103    1.8829 H   0  0  0  0  0  0  0  0  0  0  0  0
   -0.1192    0.5524   -0.8083 C   0  0  0  0  0  0  0  0  0  0  0  0
   -0.9323    1.4110   -1.1473 O   0  0  0  0  0  0  0  0  0  0  0  0
    0.9063    0.1900   -1.5895 N   0  0  0  0  0  0  0  0  0  0  0  0
    1.5387   -0.5124   -1.2399 H   0  0  0  0  0  0  0  0  0  0  0  0
    1.1631    0.7493   -2.9152 C   0  0  0  0  0  0  0  0  0  0  0  0
    1.1899    1.8396   -2.8563 H   0  0  0  0  0  0  0  0  0  0  0  0
    2.1174    0.3873   -3.3006 H   0  0  0  0  0  0  0  0  0  0  0  0
    0.3622    0.4588   -3.5978 H   0  0  0  0  0  0  0  0  0  0  0  0
  5  6  2  0  0  0  0
  5  7  1  0  0  0  0
  2  3  1  0  0  0  0
  2  4  1  0  0  0  0
  2  5  1  0  0  0  0
  1  2  1  0  0  0  0
 24 25  2  0  0  0  0
 24 26  1  0  0  0  0
 20 21  1  0  0  0  0
 20 22  1  0  0  0  0
 20 23  1  0  0  0  0
 17 18  1  0  0  0  0
 17 19  1  0  0  0  0
 17 20  1  0  0  0  0
 13 14  1  0  0  0  0
 13 15  1  0  0  0  0
 13 16  1  0  0  0  0
 11 12  1  0  0  0  0
 11 13  1  0  0  0  0
 11 17  1  0  0  0  0
  9 10  1  0  0  0  0
  9 11  1  0  0  0  0
  9 24  1  0  0  0  0
  7  8  1  0  0  0  0
  7  9  1  0  0  0  0
 28 29  1  0  0  0  0
 28 30  1  0  0  0  0
 28 31  1  0  0  0  0
 26 27  1  0  0  0  0
 26 28  1  0  0  0  0
M  END
$$$$
default_name
  -OEChem-01062215323D

 31 30  0     1  0  0  0  0  0999 V2000
   -3.0760   -3.6390    1.5496 H   0  0  0  0  0  0  0  0  0  0  0  0
   -3.0940   -2.6290    1.1426 C   0  0  0  0  0  0  0  0  0  0  0  0
   -3.7160   -1.9930    1.7706 H   0  0  0  0  0  0  0  0  0  0  0  0
   -3.4880   -2.6500    0.1286 H   0  0  0  0  0  0  0  0  0  0  0  0
   -1.6860   -2.0850    1.1196 C   0  0  0  0  0  0  0  0  0  0  0  0
   -0.7540   -2.7700    1.5226 O   0  0  0  0  0  0  0  0  0  0  0  0
   -1.5320   -0.8490    0.6496 N   0  0  0  0  0  0  0  0  0  0  0  0
   -2.3500   -0.3360    0.3566 H   0  0  0  0  0  0  0  0  0  0  0  0
   -0.2470   -0.1410    0.5576 C   0  0  1  0  0  0  0  0  0  0  0  0
   -0.2448    0.6372    1.3216 H   0  0  0  0  0  0  0  0  0  0  0  0
    0.9236   -1.1099    0.8627 C   0  0  1  0  0  0  0  0  0  0  0  0
    0.8153   -1.9658    0.1937 H   0  0  0  0  0  0  0  0  0  0  0  0
    2.3002   -0.4737    0.5907 C   0  0  0  0  0  0  0  0  0  0  0  0
    2.4899    0.3439    1.2884 H   0  0  0  0  0  0  0  0  0  0  0  0
    3.0879   -1.2184    0.6928 H   0  0  0  0  0  0  0  0  0  0  0  0
    2.3404   -0.0840   -0.4271 H   0  0  0  0  0  0  0  0  0  0  0  0
    0.8384   -1.6434    2.3103 C   0  0  0  0  0  0  0  0  0  0  0  0
    1.0433   -0.8377    3.0165 H   0  0  0  0  0  0  0  0  0  0  0  0
   -0.1729   -2.0076    2.4909 H   0  0  0  0  0  0  0  0  0  0  0  0
    1.8008   -2.8036    2.5983 C   0  0  0  0  0  0  0  0  0  0  0  0
    2.8354   -2.4664    2.5368 H   0  0  0  0  0  0  0  0  0  0  0  0
    1.6184   -3.1807    3.6049 H   0  0  0  0  0  0  0  0  0  0  0  0
    1.6373   -3.6103    1.8829 H   0  0  0  0  0  0  0  0  0  0  0  0
   -0.1192    0.5524   -0.8083 C   0  0  0  0  0  0  0  0  0  0  0  0
   -0.7450    1.5856   -1.0412 O   0  0  0  0  0  0  0  0  0  0  0  0
    0.6985   -0.0072   -1.7090 N   0  0  0  0  0  0  0  0  0  0  0  0
    1.1871   -0.8475   -1.4430 H   0  0  0  0  0  0  0  0  0  0  0  0
    0.9246    0.5248   -3.0515 C   0  0  0  0  0  0  0  0  0  0  0  0
    1.2094    1.5774   -2.9876 H   0  0  0  0  0  0  0  0  0  0  0  0
    1.7188   -0.0321   -3.5507 H   0  0  0  0  0  0  0  0  0  0  0  0
    0.0056    0.4494   -3.6359 H   0  0  0  0  0  0  0  0  0  0  0  0
  5  6  2  0  0  0  0
  5  7  1  0  0  0  0
  2  3  1  0  0  0  0
  2  4  1  0  0  0  0
  2  5  1  0  0  0  0
  1  2  1  0  0  0  0
 24 25  2  0  0  0  0
 24 26  1  0  0  0  0
 20 21  1  0  0  0  0
 20 22  1  0  0  0  0
 20 23  1  0  0  0  0
 17 18  1  0  0  0  0
 17 19  1  0  0  0  0
 17 20  1  0  0  0  0
 13 14  1  0  0  0  0
 13 15  1  0  0  0  0
 13 16  1  0  0  0  0
 11 12  1  0  0  0  0
 11 13  1  0  0  0  0
 11 17  1  0  0  0  0
  9 10  1  0  0  0  0
  9 11  1  0  0  0  0
  9 24  1  0  0  0  0
  7  8  1  0  0  0  0
  7  9  1  0  0  0  0
 28 29  1  0  0  0  0
 28 30  1  0  0  0  0
 28 31  1  0  0  0  0
 26 27  1  0  0  0  0
 26 28  1  0  0  0  0
M  END
$$$$
default_name
  -OEChem-01062215323D

 31 30  0     1  0  0  0  0  0999 V2000
   -3.0760   -3.6390    1.5496 H   0  0  0  0  0  0  0  0  0  0  0  0
   -3.0940   -2.6290    1.1426 C   0  0  0  0  0  0  0  0  0  0  0  0
   -3.7160   -1.9930    1.7706 H   0  0  0  0  0  0  0  0  0  0  0  0
   -3.4880   -2.6500    0.1286 H   0  0  0  0  0  0  0  0  0  0  0  0
   -1.6860   -2.0850    1.1196 C   0  0  0  0  0  0  0  0  0  0  0  0
   -0.7540   -2.7700    1.5226 O   0  0  0  0  0  0  0  0  0  0  0  0
   -1.5320   -0.8490    0.6496 N   0  0  0  0  0  0  0  0  0  0  0  0
   -2.3500   -0.3360    0.3566 H   0  0  0  0  0  0  0  0  0  0  0  0
   -0.2470   -0.1410    0.5576 C   0  0  1  0  0  0  0  0  0  0  0  0
   -0.2448    0.6372    1.3216 H   0  0  0  0  0  0  0  0  0  0  0  0
    0.9236   -1.1099    0.8627 C   0  0  1  0  0  0  0  0  0  0  0  0
    0.8153   -1.9658    0.1937 H   0  0  0  0  0  0  0  0  0  0  0  0
    2.3002   -0.4737    0.5907 C   0  0  0  0  0  0  0  0  0  0  0  0
    2.4899    0.3439    1.2884 H   0  0  0  0  0  0  0  0  0  0  0  0
    3.0879   -1.2184    0.6928 H   0  0  0  0  0  0  0  0  0  0  0  0
    2.3404   -0.0840   -0.4271 H   0  0  0  0  0  0  0  0  0  0  0  0
    0.8384   -1.6434    2.3103 C   0  0  0  0  0  0  0  0  0  0  0  0
    1.0433   -0.8377    3.0165 H   0  0  0  0  0  0  0  0  0  0  0  0
   -0.1729   -2.0076    2.4909 H   0  0  0  0  0  0  0  0  0  0  0  0
    1.8008   -2.8036    2.5983 C   0  0  0  0  0  0  0  0  0  0  0  0
    2.8354   -2.4664    2.5368 H   0  0  0  0  0  0  0  0  0  0  0  0
    1.6184   -3.1807    3.6049 H   0  0  0  0  0  0  0  0  0  0  0  0
    1.6373   -3.6103    1.8829 H   0  0  0  0  0  0  0  0  0  0  0  0
   -0.1192    0.5524   -0.8083 C   0  0  0  0  0  0  0  0  0  0  0  0
   -0.5115    1.7088   -0.9567 O   0  0  0  0  0  0  0  0  0  0  0  0
    0.4386   -0.1473   -1.8045 N   0  0  0  0  0  0  0  0  0  0  0  0
    0.7466   -1.0859   -1.6052 H   0  0  0  0  0  0  0  0  0  0  0  0
    0.6267    0.3658   -3.1601 C   0  0  0  0  0  0  0  0  0  0  0  0
    1.1525    1.3224   -3.1223 H   0  0  0  0  0  0  0  0  0  0  0  0
    1.2082   -0.3401   -3.7549 H   0  0  0  0  0  0  0  0  0  0  0  0
   -0.3454    0.5232   -3.6314 H   0  0  0  0  0  0  0  0  0  0  0  0
  5  6  2  0  0  0  0
  5  7  1  0  0  0  0
  2  3  1  0  0  0  0
  2  4  1  0  0  0  0
  2  5  1  0  0  0  0
  1  2  1  0  0  0  0
 24 25  2  0  0  0  0
 24 26  1  0  0  0  0
 20 21  1  0  0  0  0
 20 22  1  0  0  0  0
 20 23  1  0  0  0  0
 17 18  1  0  0  0  0
 17 19  1  0  0  0  0
 17 20  1  0  0  0  0
 13 14  1  0  0  0  0
 13 15  1  0  0  0  0
 13 16  1  0  0  0  0
 11 12  1  0  0  0  0
 11 13  1  0  0  0  0
 11 17  1  0  0  0  0
  9 10  1  0  0  0  0
  9 11  1  0  0  0  0
  9 24  1  0  0  0  0
  7  8  1  0  0  0  0
  7  9  1  0  0  0  0
 28 29  1  0  0  0  0
 28 30  1  0  0  0  0
 28 31  1  0  0  0  0
 26 27  1  0  0  0  0
 26 28  1  0  0  0  0
M  END
$$$$
default_name
  -OEChem-01062215323D

 31 30  0     1  0  0  0  0  0999 V2000
   -3.0760   -3.6390    1.5496 H   0  0  0  0  0  0  0  0  0  0  0  0
   -3.0940   -2.6290    1.1426 C   0  0  0  0  0  0  0  0  0  0  0  0
   -3.7160   -1.9930    1.7706 H   0  0  0  0  0  0  0  0  0  0  0  0
   -3.4880   -2.6500    0.1286 H   0  0  0  0  0  0  0  0  0  0  0  0
   -1.6860   -2.0850    1.1196 C   0  0  0  0  0  0  0  0  0  0  0  0
   -0.7540   -2.7700    1.5226 O   0  0  0  0  0  0  0  0  0  0  0  0
   -1.5320   -0.8490    0.6496 N   0  0  0  0  0  0  0  0  0  0  0  0
   -2.3500   -0.3360    0.3566 H   0  0  0  0  0  0  0  0  0  0  0  0
   -0.2470   -0.1410    0.5576 C   0  0  1  0  0  0  0  0  0  0  0  0
   -0.2448    0.6372    1.3216 H   0  0  0  0  0  0  0  0  0  0  0  0
    0.9236   -1.1099    0.8627 C   0  0  1  0  0  0  0  0  0  0  0  0
    0.8153   -1.9658    0.1937 H   0  0  0  0  0  0  0  0  0  0  0  0
    2.3002   -0.4737    0.5907 C   0  0  0  0  0  0  0  0  0  0  0  0
    2.4899    0.3439    1.2884 H   0  0  0  0  0  0  0  0  0  0  0  0
    3.0879   -1.2184    0.6928 H   0  0  0  0  0  0  0  0  0  0  0  0
    2.3404   -0.0840   -0.4271 H   0  0  0  0  0  0  0  0  0  0  0  0
    0.8384   -1.6434    2.3103 C   0  0  0  0  0  0  0  0  0  0  0  0
    1.0433   -0.8377    3.0165 H   0  0  0  0  0  0  0  0  0  0  0  0
   -0.1729   -2.0076    2.4909 H   0  0  0  0  0  0  0  0  0  0  0  0
    1.8008   -2.8036    2.5983 C   0  0  0  0  0  0  0  0  0  0  0  0
    2.8354   -2.4664    2.5368 H   0  0  0  0  0  0  0  0  0  0  0  0
    1.6184   -3.1807    3.6049 H   0  0  0  0  0  0  0  0  0  0  0  0
    1.6373   -3.6103    1.8829 H   0  0  0  0  0  0  0  0  0  0  0  0
   -0.1192    0.5524   -0.8083 C   0  0  0  0  0  0  0  0  0  0  0  0
   -0.2477    1.7724   -0.8998 O   0  0  0  0  0  0  0  0  0  0  0  0
    0.1441   -0.2208   -1.8694 N   0  0  0  0  0  0  0  0  0  0  0  0
    0.2474   -1.2115   -1.7157 H   0  0  0  0  0  0  0  0  0  0  0  0
    0.2896    0.2830   -3.2336 C   0  0  0  0  0  0  0  0  0  0  0  0
    1.0232    1.0920   -3.2514 H   0  0  0  0  0  0  0  0  0  0  0  0
    0.6203   -0.5157   -3.8991 H   0  0  0  0  0  0  0  0  0  0  0  0
   -0.6670    0.6750   -3.5844 H   0  0  0  0  0  0  0  0  0  0  0  0
  5  6  2  0  0  0  0
  5  7  1  0  0  0  0
  2  3  1  0  0  0  0
  2  4  1  0  0  0  0
  2  5  1  0  0  0  0
  1  2  1  0  0  0  0
 24 25  2  0  0  0  0
 24 26  1  0  0  0  0
 20 21  1  0  0  0  0
 20 22  1  0  0  0  0
 20 23  1  0  0  0  0
 17 18  1  0  0  0  0
 17 19  1  0  0  0  0
 17 20  1  0  0  0  0
 13 14  1  0  0  0  0
 13 15  1  0  0  0  0
 13 16  1  0  0  0  0
 11 12  1  0  0  0  0
 11 13  1  0  0  0  0
 11 17  1  0  0  0  0
  9 10  1  0  0  0  0
  9 11  1  0  0  0  0
  9 24  1  0  0  0  0
  7  8  1  0  0  0  0
  7  9  1  0  0  0  0
 28 29  1  0  0  0  0
 28 30  1  0  0  0  0
 28 31  1  0  0  0  0
 26 27  1  0  0  0  0
 26 28  1  0  0  0  0
M  END
$$$$
default_name
  -OEChem-01062215323D

 31 30  0     1  0  0  0  0  0999 V2000
   -3.0760   -3.6390    1.5496 H   0  0  0  0  0  0  0  0  0  0  0  0
   -3.0940   -2.6290    1.1426 C   0  0  0  0  0  0  0  0  0  0  0  0
   -3.7160   -1.9930    1.7706 H   0  0  0  0  0  0  0  0  0  0  0  0
   -3.4880   -2.6500    0.1286 H   0  0  0  0  0  0  0  0  0  0  0  0
   -1.6860   -2.0850    1.1196 C   0  0  0  0  0  0  0  0  0  0  0  0
   -0.7540   -2.7700    1.5226 O   0  0  0  0  0  0  0  0  0  0  0  0
   -1.5320   -0.8490    0.6496 N   0  0  0  0  0  0  0  0  0  0  0  0
   -2.3500   -0.3360    0.3566 H   0  0  0  0  0  0  0  0  0  0  0  0
   -0.2470   -0.1410    0.5576 C   0  0  1  0  0  0  0  0  0  0  0  0
   -0.2448    0.6372    1.3216 H   0  0  0  0  0  0  0  0  0  0  0  0
    0.9236   -1.1099    0.8627 C   0  0  1  0  0  0  0  0  0  0  0  0
    0.8153   -1.9658    0.1937 H   0  0  0  0  0  0  0  0  0  0  0  0
    2.3002   -0.4737    0.5907 C   0  0  0  0  0  0  0  0  0  0  0  0
    2.4899    0.3439    1.2884 H   0  0  0  0  0  0  0  0  0  0  0  0
    3.0879   -1.2184    0.6928 H   0  0  0  0  0  0  0  0  0  0  0  0
    2.3404   -0.0840   -0.4271 H   0  0  0  0  0  0  0  0  0  0  0  0
    0.8384   -1.6434    2.3103 C   0  0  0  0  0  0  0  0  0  0  0  0
    1.0433   -0.8377    3.0165 H   0  0  0  0  0  0  0  0  0  0  0  0
   -0.1729   -2.0076    2.4909 H   0  0  0  0  0  0  0  0  0  0  0  0
    1.8008   -2.8036    2.5983 C   0  0  0  0  0  0  0  0  0  0  0  0
    2.8354   -2.4664    2.5368 H   0  0  0  0  0  0  0  0  0  0  0  0
    1.6184   -3.1807    3.6049 H   0  0  0  0  0  0  0  0  0  0  0  0
    1.6373   -3.6103    1.8829 H   0  0  0  0  0  0  0  0  0  0  0  0
   -0.1192    0.5524   -0.8083 C   0  0  0  0  0  0  0  0  0  0  0  0
    0.0283    1.7719   -0.8742 O   0  0  0  0  0  0  0  0  0  0  0  0
   -0.1649   -0.2227   -1.8992 N   0  0  0  0  0  0  0  0  0  0  0  0
   -0.2766   -1.2155   -1.7668 H   0  0  0  0  0  0  0  0  0  0  0  0
   -0.0636    0.2822   -3.2671 C   0  0  0  0  0  0  0  0  0  0  0  0
    0.8303    0.9021   -3.3659 H   0  0  0  0  0  0  0  0  0  0  0  0
   -0.0048   -0.5471   -3.9736 H   0  0  0  0  0  0  0  0  0  0  0  0
   -0.9372    0.8947   -3.4982 H   0  0  0  0  0  0  0  0  0  0  0  0
  5  6  2  0  0  0  0
  5  7  1  0  0  0  0
  2  3  1  0  0  0  0
  2  4  1  0  0  0  0
  2  5  1  0  0  0  0
  1  2  1  0  0  0  0
 24 25  2  0  0  0  0
 24 26  1  0  0  0  0
 20 21  1  0  0  0  0
 20 22  1  0  0  0  0
 20 23  1  0  0  0  0
 17 18  1  0  0  0  0
 17 19  1  0  0  0  0
 17 20  1  0  0  0  0
 13 14  1  0  0  0  0
 13 15  1  0  0  0  0
 13 16  1  0  0  0  0
 11 12  1  0  0  0  0
 11 13  1  0  0  0  0
 11 17  1  0  0  0  0
  9 10  1  0  0  0  0
  9 11  1  0  0  0  0
  9 24  1  0  0  0  0
  7  8  1  0  0  0  0
  7  9  1  0  0  0  0
 28 29  1  0  0  0  0
 28 30  1  0  0  0  0
 28 31  1  0  0  0  0
 26 27  1  0  0  0  0
 26 28  1  0  0  0  0
M  END
$$$$
default_name
  -OEChem-01062215323D

 31 30  0     1  0  0  0  0  0999 V2000
   -3.0760   -3.6390    1.5496 H   0  0  0  0  0  0  0  0  0  0  0  0
   -3.0940   -2.6290    1.1426 C   0  0  0  0  0  0  0  0  0  0  0  0
   -3.7160   -1.9930    1.7706 H   0  0  0  0  0  0  0  0  0  0  0  0
   -3.4880   -2.6500    0.1286 H   0  0  0  0  0  0  0  0  0  0  0  0
   -1.6860   -2.0850    1.1196 C   0  0  0  0  0  0  0  0  0  0  0  0
   -0.7540   -2.7700    1.5226 O   0  0  0  0  0  0  0  0  0  0  0  0
   -1.5320   -0.8490    0.6496 N   0  0  0  0  0  0  0  0  0  0  0  0
   -2.3500   -0.3360    0.3566 H   0  0  0  0  0  0  0  0  0  0  0  0
   -0.2470   -0.1410    0.5576 C   0  0  1  0  0  0  0  0  0  0  0  0
   -0.2448    0.6372    1.3216 H   0  0  0  0  0  0  0  0  0  0  0  0
    0.9236   -1.1099    0.8627 C   0  0  1  0  0  0  0  0  0  0  0  0
    0.8153   -1.9658    0.1937 H   0  0  0  0  0  0  0  0  0  0  0  0
    2.3002   -0.4737    0.5907 C   0  0  0  0  0  0  0  0  0  0  0  0
    2.4899    0.3439    1.2884 H   0  0  0  0  0  0  0  0  0  0  0  0
    3.0879   -1.2184    0.6928 H   0  0  0  0  0  0  0  0  0  0  0  0
    2.3404   -0.0840   -0.4271 H   0  0  0  0  0  0  0  0  0  0  0  0
    0.8384   -1.6434    2.3103 C   0  0  0  0  0  0  0  0  0  0  0  0
    1.0433   -0.8377    3.0165 H   0  0  0  0  0  0  0  0  0  0  0  0
   -0.1729   -2.0076    2.4909 H   0  0  0  0  0  0  0  0  0  0  0  0
    1.8008   -2.8036    2.5983 C   0  0  0  0  0  0  0  0  0  0  0  0
    2.8354   -2.4664    2.5368 H   0  0  0  0  0  0  0  0  0  0  0  0
    1.6184   -3.1807    3.6049 H   0  0  0  0  0  0  0  0  0  0  0  0
    1.6373   -3.6103    1.8829 H   0  0  0  0  0  0  0  0  0  0  0  0
   -0.1192    0.5524   -0.8083 C   0  0  0  0  0  0  0  0  0  0  0  0
    0.2978    1.7074   -0.8817 O   0  0  0  0  0  0  0  0  0  0  0  0
   -0.4672   -0.1528   -1.8921 N   0  0  0  0  0  0  0  0  0  0  0  0
   -0.7896   -1.0978   -1.7550 H   0  0  0  0  0  0  0  0  0  0  0  0
   -0.4088    0.3633   -3.2583 C   0  0  0  0  0  0  0  0  0  0  0  0
    0.5869    0.7654   -3.4580 H   0  0  0  0  0  0  0  0  0  0  0  0
   -0.6245   -0.4320   -3.9732 H   0  0  0  0  0  0  0  0  0  0  0  0
   -1.1376    1.1671   -3.3786 H   0  0  0  0  0  0  0  0  0  0  0  0
  5  6  2  0  0  0  0
  5  7  1  0  0  0  0
  2  3  1  0  0  0  0
  2  4  1  0  0  0  0
  2  5  1  0  0  0  0
  1  2  1  0  0  0  0
 24 25  2  0  0  0  0
 24 26  1  0  0  0  0
 20 21  1  0  0  0  0
 20 22  1  0  0  0  0
 20 23  1  0  0  0  0
 17 18  1  0  0  0  0
 17 19  1  0  0  0  0
 17 20  1  0  0  0  0
 13 14  1  0  0  0  0
 13 15  1  0  0  0  0
 13 16  1  0  0  0  0
 11 12  1  0  0  0  0
 11 13  1  0  0  0  0
 11 17  1  0  0  0  0
  9 10  1  0  0  0  0
  9 11  1  0  0  0  0
  9 24  1  0  0  0  0
  7  8  1  0  0  0  0
  7  9  1  0  0  0  0
 28 29  1  0  0  0  0
 28 30  1  0  0  0  0
 28 31  1  0  0  0  0
 26 27  1  0  0  0  0
 26 28  1  0  0  0  0
M  END
$$$$
default_name
  -OEChem-01062215323D

 31 30  0     1  0  0  0  0  0999 V2000
   -3.0760   -3.6390    1.5496 H   0  0  0  0  0  0  0  0  0  0  0  0
   -3.0940   -2.6290    1.1426 C   0  0  0  0  0  0  0  0  0  0  0  0
   -3.7160   -1.9930    1.7706 H   0  0  0  0  0  0  0  0  0  0  0  0
   -3.4880   -2.6500    0.1286 H   0  0  0  0  0  0  0  0  0  0  0  0
   -1.6860   -2.0850    1.1196 C   0  0  0  0  0  0  0  0  0  0  0  0
   -0.7540   -2.7700    1.5226 O   0  0  0  0  0  0  0  0  0  0  0  0
   -1.5320   -0.8490    0.6496 N   0  0  0  0  0  0  0  0  0  0  0  0
   -2.3500   -0.3360    0.3566 H   0  0  0  0  0  0  0  0  0  0  0  0
   -0.2470   -0.1410    0.5576 C   0  0  1  0  0  0  0  0  0  0  0  0
   -0.2448    0.6372    1.3216 H   0  0  0  0  0  0  0  0  0  0  0  0
    0.9236   -1.1099    0.8627 C   0  0  1  0  0  0  0  0  0  0  0  0
    0.8153   -1.9658    0.1937 H   0  0  0  0  0  0  0  0  0  0  0  0
    2.3002   -0.4737    0.5907 C   0  0  0  0  0  0  0  0  0  0  0  0
    2.4899    0.3439    1.2884 H   0  0  0  0  0  0  0  0  0  0  0  0
    3.0879   -1.2184    0.6928 H   0  0  0  0  0  0  0  0  0  0  0  0
    2.3404   -0.0840   -0.4271 H   0  0  0  0  0  0  0  0  0  0  0  0
    0.8384   -1.6434    2.3103 C   0  0  0  0  0  0  0  0  0  0  0  0
    1.0433   -0.8377    3.0165 H   0  0  0  0  0  0  0  0  0  0  0  0
   -0.1729   -2.0076    2.4909 H   0  0  0  0  0  0  0  0  0  0  0  0
    1.8008   -2.8036    2.5983 C   0  0  0  0  0  0  0  0  0  0  0  0
    2.8354   -2.4664    2.5368 H   0  0  0  0  0  0  0  0  0  0  0  0
    1.6184   -3.1807    3.6049 H   0  0  0  0  0  0  0  0  0  0  0  0
    1.6373   -3.6103    1.8829 H   0  0  0  0  0  0  0  0  0  0  0  0
   -0.1192    0.5524   -0.8083 C   0  0  0  0  0  0  0  0  0  0  0  0
    0.5424    1.5832   -0.9218 O   0  0  0  0  0  0  0  0  0  0  0  0
   -0.7423   -0.0160   -1.8483 N   0  0  0  0  0  0  0  0  0  0  0  0
   -1.2567   -0.8664   -1.6813 H   0  0  0  0  0  0  0  0  0  0  0  0
   -0.7226    0.5209   -3.2076 C   0  0  0  0  0  0  0  0  0  0  0  0
    0.3096    0.6914   -3.5215 H   0  0  0  0  0  0  0  0  0  0  0  0
   -1.1966   -0.1784   -3.8979 H   0  0  0  0  0  0  0  0  0  0  0  0
   -1.2546    1.4738   -3.2339 H   0  0  0  0  0  0  0  0  0  0  0  0
  5  6  2  0  0  0  0
  5  7  1  0  0  0  0
  2  3  1  0  0  0  0
  2  4  1  0  0  0  0
  2  5  1  0  0  0  0
  1  2  1  0  0  0  0
 24 25  2  0  0  0  0
 24 26  1  0  0  0  0
 20 21  1  0  0  0  0
 20 22  1  0  0  0  0
 20 23  1  0  0  0  0
 17 18  1  0  0  0  0
 17 19  1  0  0  0  0
 17 20  1  0  0  0  0
 13 14  1  0  0  0  0
 13 15  1  0  0  0  0
 13 16  1  0  0  0  0
 11 12  1  0  0  0  0
 11 13  1  0  0  0  0
 11 17  1  0  0  0  0
  9 10  1  0  0  0  0
  9 11  1  0  0  0  0
  9 24  1  0  0  0  0
  7  8  1  0  0  0  0
  7  9  1  0  0  0  0
 28 29  1  0  0  0  0
 28 30  1  0  0  0  0
 28 31  1  0  0  0  0
 26 27  1  0  0  0  0
 26 28  1  0  0  0  0
M  END
$$$$
default_name
  -OEChem-01062215323D

 31 30  0     1  0  0  0  0  0999 V2000
   -3.0760   -3.6390    1.5496 H   0  0  0  0  0  0  0  0  0  0  0  0
   -3.0940   -2.6290    1.1426 C   0  0  0  0  0  0  0  0  0  0  0  0
   -3.7160   -1.9930    1.7706 H   0  0  0  0  0  0  0  0  0  0  0  0
   -3.4880   -2.6500    0.1286 H   0  0  0  0  0  0  0  0  0  0  0  0
   -1.6860   -2.0850    1.1196 C   0  0  0  0  0  0  0  0  0  0  0  0
   -0.7540   -2.7700    1.5226 O   0  0  0  0  0  0  0  0  0  0  0  0
   -1.5320   -0.8490    0.6496 N   0  0  0  0  0  0  0  0  0  0  0  0
   -2.3500   -0.3360    0.3566 H   0  0  0  0  0  0  0  0  0  0  0  0
   -0.2470   -0.1410    0.5576 C   0  0  1  0  0  0  0  0  0  0  0  0
   -0.2448    0.6372    1.3216 H   0  0  0  0  0  0  0  0  0  0  0  0
    0.9236   -1.1099    0.8627 C   0  0  1  0  0  0  0  0  0  0  0  0
    0.8153   -1.9658    0.1937 H   0  0  0  0  0  0  0  0  0  0  0  0
    2.3002   -0.4737    0.5907 C   0  0  0  0  0  0  0  0  0  0  0  0
    2.4899    0.3439    1.2884 H   0  0  0  0  0  0  0  0  0  0  0  0
    3.0879   -1.2184    0.6928 H   0  0  0  0  0  0  0  0  0  0  0  0
    2.3404   -0.0840   -0.4271 H   0  0  0  0  0  0  0  0  0  0  0  0
    0.8384   -1.6434    2.3103 C   0  0  0  0  0  0  0  0  0  0  0  0
    1.0433   -0.8377    3.0165 H   0  0  0  0  0  0  0  0  0  0  0  0
   -0.1729   -2.0076    2.4909 H   0  0  0  0  0  0  0  0  0  0  0  0
    1.8008   -2.8036    2.5983 C   0  0  0  0  0  0  0  0  0  0  0  0
    2.8354   -2.4664    2.5368 H   0  0  0  0  0  0  0  0  0  0  0  0
    1.6184   -3.1807    3.6049 H   0  0  0  0  0  0  0  0  0  0  0  0
    1.6373   -3.6103    1.8829 H   0  0  0  0  0  0  0  0  0  0  0  0
   -0.1192    0.5524   -0.8083 C   0  0  0  0  0  0  0  0  0  0  0  0
    0.7455    1.4079   -0.9918 O   0  0  0  0  0  0  0  0  0  0  0  0
   -0.9715    0.1786   -1.7710 N   0  0  0  0  0  0  0  0  0  0  0  0
   -1.6460   -0.5370   -1.5505 H   0  0  0  0  0  0  0  0  0  0  0  0
   -0.9835    0.7442   -3.1187 C   0  0  0  0  0  0  0  0  0  0  0  0
    0.0173    0.6850   -3.5521 H   0  0  0  0  0  0  0  0  0  0  0  0
   -1.6821    0.1966   -3.7530 H   0  0  0  0  0  0  0  0  0  0  0  0
   -1.2802    1.7938   -3.0738 H   0  0  0  0  0  0  0  0  0  0  0  0
  5  6  2  0  0  0  0
  5  7  1  0  0  0  0
  2  3  1  0  0  0  0
  2  4  1  0  0  0  0
  2  5  1  0  0  0  0
  1  2  1  0  0  0  0
 24 25  2  0  0  0  0
 24 26  1  0  0  0  0
 20 21  1  0  0  0  0
 20 22  1  0  0  0  0
 20 23  1  0  0  0  0
 17 18  1  0  0  0  0
 17 19  1  0  0  0  0
 17 20  1  0  0  0  0
 13 14  1  0  0  0  0
 13 15  1  0  0  0  0
 13 16  1  0  0  0  0
 11 12  1  0  0  0  0
 11 13  1  0  0  0  0
 11 17  1  0  0  0  0
  9 10  1  0  0  0  0
  9 11  1  0  0  0  0
  9 24  1  0  0  0  0
  7  8  1  0  0  0  0
  7  9  1  0  0  0  0
 28 29  1  0  0  0  0
 28 30  1  0  0  0  0
 28 31  1  0  0  0  0
 26 27  1  0  0  0  0
 26 28  1  0  0  0  0
M  END
$$$$
default_name
  -OEChem-01062215323D

 31 30  0     1  0  0  0  0  0999 V2000
   -3.0760   -3.6390    1.5496 H   0  0  0  0  0  0  0  0  0  0  0  0
   -3.0940   -2.6290    1.1426 C   0  0  0  0  0  0  0  0  0  0  0  0
   -3.7160   -1.9930    1.7706 H   0  0  0  0  0  0  0  0  0  0  0  0
   -3.4880   -2.6500    0.1286 H   0  0  0  0  0  0  0  0  0  0  0  0
   -1.6860   -2.0850    1.1196 C   0  0  0  0  0  0  0  0  0  0  0  0
   -0.7540   -2.7700    1.5226 O   0  0  0  0  0  0  0  0  0  0  0  0
   -1.5320   -0.8490    0.6496 N   0  0  0  0  0  0  0  0  0  0  0  0
   -2.3500   -0.3360    0.3566 H   0  0  0  0  0  0  0  0  0  0  0  0
   -0.2470   -0.1410    0.5576 C   0  0  1  0  0  0  0  0  0  0  0  0
   -0.2448    0.6372    1.3216 H   0  0  0  0  0  0  0  0  0  0  0  0
    0.9236   -1.1099    0.8627 C   0  0  1  0  0  0  0  0  0  0  0  0
    0.8153   -1.9658    0.1937 H   0  0  0  0  0  0  0  0  0  0  0  0
    2.3002   -0.4737    0.5907 C   0  0  0  0  0  0  0  0  0  0  0  0
    2.4899    0.3439    1.2884 H   0  0  0  0  0  0  0  0  0  0  0  0
    3.0879   -1.2184    0.6928 H   0  0  0  0  0  0  0  0  0  0  0  0
    2.3404   -0.0840   -0.4271 H   0  0  0  0  0  0  0  0  0  0  0  0
    0.8384   -1.6434    2.3103 C   0  0  0  0  0  0  0  0  0  0  0  0
    1.0433   -0.8377    3.0165 H   0  0  0  0  0  0  0  0  0  0  0  0
   -0.1729   -2.0076    2.4909 H   0  0  0  0  0  0  0  0  0  0  0  0
    1.8008   -2.8036    2.5983 C   0  0  0  0  0  0  0  0  0  0  0  0
    2.8354   -2.4664    2.5368 H   0  0  0  0  0  0  0  0  0  0  0  0
    1.6184   -3.1807    3.6049 H   0  0  0  0  0  0  0  0  0  0  0  0
    1.6373   -3.6103    1.8829 H   0  0  0  0  0  0  0  0  0  0  0  0
   -0.1192    0.5524   -0.8083 C   0  0  0  0  0  0  0  0  0  0  0  0
    0.8931    1.1934   -1.0869 O   0  0  0  0  0  0  0  0  0  0  0  0
   -1.1391    0.4175   -1.6654 N   0  0  0  0  0  0  0  0  0  0  0  0
   -1.9311   -0.1321   -1.3717 H   0  0  0  0  0  0  0  0  0  0  0  0
   -1.1739    1.0180   -2.9976 C   0  0  0  0  0  0  0  0  0  0  0  0
   -0.2701    0.7468   -3.5477 H   0  0  0  0  0  0  0  0  0  0  0  0
   -2.0479    0.6673   -3.5483 H   0  0  0  0  0  0  0  0  0  0  0  0
   -1.2126    2.1054   -2.9094 H   0  0  0  0  0  0  0  0  0  0  0  0
  5  6  2  0  0  0  0
  5  7  1  0  0  0  0
  2  3  1  0  0  0  0
  2  4  1  0  0  0  0
  2  5  1  0  0  0  0
  1  2  1  0  0  0  0
 24 25  2  0  0  0  0
 24 26  1  0  0  0  0
 20 21  1  0  0  0  0
 20 22  1  0  0  0  0
 20 23  1  0  0  0  0
 17 18  1  0  0  0  0
 17 19  1  0  0  0  0
 17 20  1  0  0  0  0
 13 14  1  0  0  0  0
 13 15  1  0  0  0  0
 13 16  1  0  0  0  0
 11 12  1  0  0  0  0
 11 13  1  0  0  0  0
 11 17  1  0  0  0  0
  9 10  1  0  0  0  0
  9 11  1  0  0  0  0
  9 24  1  0  0  0  0
  7  8  1  0  0  0  0
  7  9  1  0  0  0  0
 28 29  1  0  0  0  0
 28 30  1  0  0  0  0
 28 31  1  0  0  0  0
 26 27  1  0  0  0  0
 26 28  1  0  0  0  0
M  END
$$$$
default_name
  -OEChem-01062215323D

 31 30  0     1  0  0  0  0  0999 V2000
   -3.0760   -3.6390    1.5496 H   0  0  0  0  0  0  0  0  0  0  0  0
   -3.0940   -2.6290    1.1426 C   0  0  0  0  0  0  0  0  0  0  0  0
   -3.7160   -1.9930    1.7706 H   0  0  0  0  0  0  0  0  0  0  0  0
   -3.4880   -2.6500    0.1286 H   0  0  0  0  0  0  0  0  0  0  0  0
   -1.6860   -2.0850    1.1196 C   0  0  0  0  0  0  0  0  0  0  0  0
   -0.7540   -2.7700    1.5226 O   0  0  0  0  0  0  0  0  0  0  0  0
   -1.5320   -0.8490    0.6496 N   0  0  0  0  0  0  0  0  0  0  0  0
   -2.3500   -0.3360    0.3566 H   0  0  0  0  0  0  0  0  0  0  0  0
   -0.2470   -0.1410    0.5576 C   0  0  1  0  0  0  0  0  0  0  0  0
   -0.2448    0.6372    1.3216 H   0  0  0  0  0  0  0  0  0  0  0  0
    0.9236   -1.1099    0.8627 C   0  0  1  0  0  0  0  0  0  0  0  0
    0.8153   -1.9658    0.1937 H   0  0  0  0  0  0  0  0  0  0  0  0
    2.3002   -0.4737    0.5907 C   0  0  0  0  0  0  0  0  0  0  0  0
    2.4899    0.3439    1.2884 H   0  0  0  0  0  0  0  0  0  0  0  0
    3.0879   -1.2184    0.6928 H   0  0  0  0  0  0  0  0  0  0  0  0
    2.3404   -0.0840   -0.4271 H   0  0  0  0  0  0  0  0  0  0  0  0
    0.8384   -1.6434    2.3103 C   0  0  0  0  0  0  0  0  0  0  0  0
    1.0433   -0.8377    3.0165 H   0  0  0  0  0  0  0  0  0  0  0  0
   -0.1729   -2.0076    2.4909 H   0  0  0  0  0  0  0  0  0  0  0  0
    1.8008   -2.8036    2.5983 C   0  0  0  0  0  0  0  0  0  0  0  0
    2.8354   -2.4664    2.5368 H   0  0  0  0  0  0  0  0  0  0  0  0
    1.6184   -3.1807    3.6049 H   0  0  0  0  0  0  0  0  0  0  0  0
    1.6373   -3.6103    1.8829 H   0  0  0  0  0  0  0  0  0  0  0  0
   -0.1192    0.5524   -0.8083 C   0  0  0  0  0  0  0  0  0  0  0  0
    0.9753    0.9543   -1.2006 O   0  0  0  0  0  0  0  0  0  0  0  0
   -1.2337    0.6846   -1.5387 N   0  0  0  0  0  0  0  0  0  0  0  0
   -2.0924    0.3207   -1.1569 H   0  0  0  0  0  0  0  0  0  0  0  0
   -1.2806    1.3236   -2.8524 C   0  0  0  0  0  0  0  0  0  0  0  0
   -0.5330    0.8724   -3.5085 H   0  0  0  0  0  0  0  0  0  0  0  0
   -2.2690    1.2017   -3.2977 H   0  0  0  0  0  0  0  0  0  0  0  0
   -1.0564    2.3872   -2.7517 H   0  0  0  0  0  0  0  0  0  0  0  0
  5  6  2  0  0  0  0
  5  7  1  0  0  0  0
  2  3  1  0  0  0  0
  2  4  1  0  0  0  0
  2  5  1  0  0  0  0
  1  2  1  0  0  0  0
 24 25  2  0  0  0  0
 24 26  1  0  0  0  0
 20 21  1  0  0  0  0
 20 22  1  0  0  0  0
 20 23  1  0  0  0  0
 17 18  1  0  0  0  0
 17 19  1  0  0  0  0
 17 20  1  0  0  0  0
 13 14  1  0  0  0  0
 13 15  1  0  0  0  0
 13 16  1  0  0  0  0
 11 12  1  0  0  0  0
 11 13  1  0  0  0  0
 11 17  1  0  0  0  0
  9 10  1  0  0  0  0
  9 11  1  0  0  0  0
  9 24  1  0  0  0  0
  7  8  1  0  0  0  0
  7  9  1  0  0  0  0
 28 29  1  0  0  0  0
 28 30  1  0  0  0  0
 28 31  1  0  0  0  0
 26 27  1  0  0  0  0
 26 28  1  0  0  0  0
M  END
$$$$
default_name
  -OEChem-01062215323D

 31 30  0     1  0  0  0  0  0999 V2000
   -3.0760   -3.6390    1.5496 H   0  0  0  0  0  0  0  0  0  0  0  0
   -3.0940   -2.6290    1.1426 C   0  0  0  0  0  0  0  0  0  0  0  0
   -3.7160   -1.9930    1.7706 H   0  0  0  0  0  0  0  0  0  0  0  0
   -3.4880   -2.6500    0.1286 H   0  0  0  0  0  0  0  0  0  0  0  0
   -1.6860   -2.0850    1.1196 C   0  0  0  0  0  0  0  0  0  0  0  0
   -0.7540   -2.7700    1.5226 O   0  0  0  0  0  0  0  0  0  0  0  0
   -1.5320   -0.8490    0.6496 N   0  0  0  0  0  0  0  0  0  0  0  0
   -2.3500   -0.3360    0.3566 H   0  0  0  0  0  0  0  0  0  0  0  0
   -0.2470   -0.1410    0.5576 C   0  0  1  0  0  0  0  0  0  0  0  0
   -0.2448    0.6372    1.3216 H   0  0  0  0  0  0  0  0  0  0  0  0
    0.9236   -1.1099    0.8627 C   0  0  1  0  0  0  0  0  0  0  0  0
    0.8153   -1.9658    0.1937 H   0  0  0  0  0  0  0  0  0  0  0  0
    2.3002   -0.4737    0.5907 C   0  0  0  0  0  0  0  0  0  0  0  0
    2.4899    0.3439    1.2884 H   0  0  0  0  0  0  0  0  0  0  0  0
    3.0879   -1.2184    0.6928 H   0  0  0  0  0  0  0  0  0  0  0  0
    2.3404   -0.0840   -0.4271 H   0  0  0  0  0  0  0  0  0  0  0  0
    0.8384   -1.6434    2.3103 C   0  0  0  0  0  0  0  0  0  0  0  0
    1.0433   -0.8377    3.0165 H   0  0  0  0  0  0  0  0  0  0  0  0
   -0.1729   -2.0076    2.4909 H   0  0  0  0  0  0  0  0  0  0  0  0
    1.8008   -2.8036    2.5983 C   0  0  0  0  0  0  0  0  0  0  0  0
    2.8354   -2.4664    2.5368 H   0  0  0  0  0  0  0  0  0  0  0  0
    1.6184   -3.1807    3.6049 H   0  0  0  0  0  0  0  0  0  0  0  0
    1.6373   -3.6103    1.8829 H   0  0  0  0  0  0  0  0  0  0  0  0
   -0.1192    0.5524   -0.8083 C   0  0  0  0  0  0  0  0  0  0  0  0
    0.9864    0.7069   -1.3251 O   0  0  0  0  0  0  0  0  0  0  0  0
   -1.2488    0.9616   -1.3995 N   0  0  0  0  0  0  0  0  0  0  0  0
   -2.1191    0.7905   -0.9209 H   0  0  0  0  0  0  0  0  0  0  0  0
   -1.2964    1.6402   -2.6932 C   0  0  0  0  0  0  0  0  0  0  0  0
   -0.7534    1.0534   -3.4373 H   0  0  0  0  0  0  0  0  0  0  0  0
   -2.3305    1.7634   -3.0184 H   0  0  0  0  0  0  0  0  0  0  0  0
   -0.8224    2.6202   -2.6115 H   0  0  0  0  0  0  0  0  0  0  0  0
  5  6  2  0  0  0  0
  5  7  1  0  0  0  0
  2  3  1  0  0  0  0
  2  4  1  0  0  0  0
  2  5  1  0  0  0  0
  1  2  1  0  0  0  0
 24 25  2  0  0  0  0
 24 26  1  0  0  0  0
 20 21  1  0  0  0  0
 20 22  1  0  0  0  0
 20 23  1  0  0  0  0
 17 18  1  0  0  0  0
 17 19  1  0  0  0  0
 17 20  1  0  0  0  0
 13 14  1  0  0  0  0
 13 15  1  0  0  0  0
 13 16  1  0  0  0  0
 11 12  1  0  0  0  0
 11 13  1  0  0  0  0
 11 17  1  0  0  0  0
  9 10  1  0  0  0  0
  9 11  1  0  0  0  0
  9 24  1  0  0  0  0
  7  8  1  0  0  0  0
  7  9  1  0  0  0  0
 28 29  1  0  0  0  0
 28 30  1  0  0  0  0
 28 31  1  0  0  0  0
 26 27  1  0  0  0  0
 26 28  1  0  0  0  0
M  END
$$$$
default_name
  -OEChem-01062215323D

 31 30  0     1  0  0  0  0  0999 V2000
   -3.0760   -3.6390    1.5496 H   0  0  0  0  0  0  0  0  0  0  0  0
   -3.0940   -2.6290    1.1426 C   0  0  0  0  0  0  0  0  0  0  0  0
   -3.7160   -1.9930    1.7706 H   0  0  0  0  0  0  0  0  0  0  0  0
   -3.4880   -2.6500    0.1286 H   0  0  0  0  0  0  0  0  0  0  0  0
   -1.6860   -2.0850    1.1196 C   0  0  0  0  0  0  0  0  0  0  0  0
   -0.7540   -2.7700    1.5226 O   0  0  0  0  0  0  0  0  0  0  0  0
   -1.5320   -0.8490    0.6496 N   0  0  0  0  0  0  0  0  0  0  0  0
   -2.3500   -0.3360    0.3566 H   0  0  0  0  0  0  0  0  0  0  0  0
   -0.2470   -0.1410    0.5576 C   0  0  1  0  0  0  0  0  0  0  0  0
   -0.2448    0.6372    1.3216 H   0  0  0  0  0  0  0  0  0  0  0  0
    0.9236   -1.1099    0.8627 C   0  0  1  0  0  0  0  0  0  0  0  0
    0.8153   -1.9658    0.1937 H   0  0  0  0  0  0  0  0  0  0  0  0
    2.3002   -0.4737    0.5907 C   0  0  0  0  0  0  0  0  0  0  0  0
    2.4899    0.3439    1.2884 H   0  0  0  0  0  0  0  0  0  0  0  0
    3.0879   -1.2184    0.6928 H   0  0  0  0  0  0  0  0  0  0  0  0
    2.3404   -0.0840   -0.4271 H   0  0  0  0  0  0  0  0  0  0  0  0
    0.8384   -1.6434    2.3103 C   0  0  0  0  0  0  0  0  0  0  0  0
    1.0433   -0.8377    3.0165 H   0  0  0  0  0  0  0  0  0  0  0  0
   -0.1729   -2.0076    2.4909 H   0  0  0  0  0  0  0  0  0  0  0  0
    1.8008   -2.8036    2.5983 C   0  0  0  0  0  0  0  0  0  0  0  0
    2.8354   -2.4664    2.5368 H   0  0  0  0  0  0  0  0  0  0  0  0
    1.6184   -3.1807    3.6049 H   0  0  0  0  0  0  0  0  0  0  0  0
    1.6373   -3.6103    1.8829 H   0  0  0  0  0  0  0  0  0  0  0  0
   -0.1192    0.5524   -0.8083 C   0  0  0  0  0  0  0  0  0  0  0  0
    0.9257    0.4680   -1.4521 O   0  0  0  0  0  0  0  0  0  0  0  0
   -1.1835    1.2297   -1.2573 N   0  0  0  0  0  0  0  0  0  0  0  0
   -2.0092    1.2454   -0.6797 H   0  0  0  0  0  0  0  0  0  0  0  0
   -1.2203    1.9462   -2.5307 C   0  0  0  0  0  0  0  0  0  0  0  0
   -0.9164    1.2773   -3.3389 H   0  0  0  0  0  0  0  0  0  0  0  0
   -2.2281    2.3140   -2.7293 H   0  0  0  0  0  0  0  0  0  0  0  0
   -0.5264    2.7883   -2.4984 H   0  0  0  0  0  0  0  0  0  0  0  0
  5  6  2  0  0  0  0
  5  7  1  0  0  0  0
  2  3  1  0  0  0  0
  2  4  1  0  0  0  0
  2  5  1  0  0  0  0
  1  2  1  0  0  0  0
 24 25  2  0  0  0  0
 24 26  1  0  0  0  0
 20 21  1  0  0  0  0
 20 22  1  0  0  0  0
 20 23  1  0  0  0  0
 17 18  1  0  0  0  0
 17 19  1  0  0  0  0
 17 20  1  0  0  0  0
 13 14  1  0  0  0  0
 13 15  1  0  0  0  0
 13 16  1  0  0  0  0
 11 12  1  0  0  0  0
 11 13  1  0  0  0  0
 11 17  1  0  0  0  0
  9 10  1  0  0  0  0
  9 11  1  0  0  0  0
  9 24  1  0  0  0  0
  7  8  1  0  0  0  0
  7  9  1  0  0  0  0
 28 29  1  0  0  0  0
 28 30  1  0  0  0  0
 28 31  1  0  0  0  0
 26 27  1  0  0  0  0
 26 28  1  0  0  0  0
M  END
$$$$
default_name
  -OEChem-01062215323D

 31 30  0     1  0  0  0  0  0999 V2000
   -3.0760   -3.6390    1.5496 H   0  0  0  0  0  0  0  0  0  0  0  0
   -3.0940   -2.6290    1.1426 C   0  0  0  0  0  0  0  0  0  0  0  0
   -3.7160   -1.9930    1.7706 H   0  0  0  0  0  0  0  0  0  0  0  0
   -3.4880   -2.6500    0.1286 H   0  0  0  0  0  0  0  0  0  0  0  0
   -1.6860   -2.0850    1.1196 C   0  0  0  0  0  0  0  0  0  0  0  0
   -0.7540   -2.7700    1.5226 O   0  0  0  0  0  0  0  0  0  0  0  0
   -1.5320   -0.8490    0.6496 N   0  0  0  0  0  0  0  0  0  0  0  0
   -2.3500   -0.3360    0.3566 H   0  0  0  0  0  0  0  0  0  0  0  0
   -0.2470   -0.1410    0.5576 C   0  0  1  0  0  0  0  0  0  0  0  0
   -0.2448    0.6372    1.3216 H   0  0  0  0  0  0  0  0  0  0  0  0
    0.9236   -1.1099    0.8627 C   0  0  1  0  0  0  0  0  0  0  0  0
    0.8153   -1.9658    0.1937 H   0  0  0  0  0  0  0  0  0  0  0  0
    2.3002   -0.4737    0.5907 C   0  0  0  0  0  0  0  0  0  0  0  0
    2.4899    0.3439    1.2884 H   0  0  0  0  0  0  0  0  0  0  0  0
    3.0879   -1.2184    0.6928 H   0  0  0  0  0  0  0  0  0  0  0  0
    2.3404   -0.0840   -0.4271 H   0  0  0  0  0  0  0  0  0  0  0  0
    0.8384   -1.6434    2.3103 C   0  0  0  0  0  0  0  0  0  0  0  0
    1.0433   -0.8377    3.0165 H   0  0  0  0  0  0  0  0  0  0  0  0
   -0.1729   -2.0076    2.4909 H   0  0  0  0  0  0  0  0  0  0  0  0
    1.8008   -2.8036    2.5983 C   0  0  0  0  0  0  0  0  0  0  0  0
    2.8354   -2.4664    2.5368 H   0  0  0  0  0  0  0  0  0  0  0  0
    1.6184   -3.1807    3.6049 H   0  0  0  0  0  0  0  0  0  0  0  0
    1.6373   -3.6103    1.8829 H   0  0  0  0  0  0  0  0  0  0  0  0
   -0.1192    0.5524   -0.8083 C   0  0  0  0  0  0  0  0  0  0  0  0
    0.7973    0.2540   -1.5727 O   0  0  0  0  0  0  0  0  0  0  0  0
   -1.0421    1.4705   -1.1218 N   0  0  0  0  0  0  0  0  0  0  0  0
   -1.7703    1.6544   -0.4497 H   0  0  0  0  0  0  0  0  0  0  0  0
   -1.0575    2.2209   -2.3760 C   0  0  0  0  0  0  0  0  0  0  0  0
   -1.0108    1.5290   -3.2199 H   0  0  0  0  0  0  0  0  0  0  0  0
   -1.9687    2.8161   -2.4501 H   0  0  0  0  0  0  0  0  0  0  0  0
   -0.1886    2.8802   -2.4202 H   0  0  0  0  0  0  0  0  0  0  0  0
  5  6  2  0  0  0  0
  5  7  1  0  0  0  0
  2  3  1  0  0  0  0
  2  4  1  0  0  0  0
  2  5  1  0  0  0  0
  1  2  1  0  0  0  0
 24 25  2  0  0  0  0
 24 26  1  0  0  0  0
 20 21  1  0  0  0  0
 20 22  1  0  0  0  0
 20 23  1  0  0  0  0
 17 18  1  0  0  0  0
 17 19  1  0  0  0  0
 17 20  1  0  0  0  0
 13 14  1  0  0  0  0
 13 15  1  0  0  0  0
 13 16  1  0  0  0  0
 11 12  1  0  0  0  0
 11 13  1  0  0  0  0
 11 17  1  0  0  0  0
  9 10  1  0  0  0  0
  9 11  1  0  0  0  0
  9 24  1  0  0  0  0
  7  8  1  0  0  0  0
  7  9  1  0  0  0  0
 28 29  1  0  0  0  0
 28 30  1  0  0  0  0
 28 31  1  0  0  0  0
 26 27  1  0  0  0  0
 26 28  1  0  0  0  0
M  END
$$$$
default_name
  -OEChem-01062215323D

 31 30  0     1  0  0  0  0  0999 V2000
   -3.0760   -3.6390    1.5496 H   0  0  0  0  0  0  0  0  0  0  0  0
   -3.0940   -2.6290    1.1426 C   0  0  0  0  0  0  0  0  0  0  0  0
   -3.7160   -1.9930    1.7706 H   0  0  0  0  0  0  0  0  0  0  0  0
   -3.4880   -2.6500    0.1286 H   0  0  0  0  0  0  0  0  0  0  0  0
   -1.6860   -2.0850    1.1196 C   0  0  0  0  0  0  0  0  0  0  0  0
   -0.7540   -2.7700    1.5226 O   0  0  0  0  0  0  0  0  0  0  0  0
   -1.5320   -0.8490    0.6496 N   0  0  0  0  0  0  0  0  0  0  0  0
   -2.3500   -0.3360    0.3566 H   0  0  0  0  0  0  0  0  0  0  0  0
   -0.2470   -0.1410    0.5576 C   0  0  1  0  0  0  0  0  0  0  0  0
   -0.2448    0.6372    1.3216 H   0  0  0  0  0  0  0  0  0  0  0  0
    0.9236   -1.1099    0.8627 C   0  0  1  0  0  0  0  0  0  0  0  0
    0.8153   -1.9658    0.1937 H   0  0  0  0  0  0  0  0  0  0  0  0
    2.3002   -0.4737    0.5907 C   0  0  0  0  0  0  0  0  0  0  0  0
    2.4899    0.3439    1.2884 H   0  0  0  0  0  0  0  0  0  0  0  0
    3.0879   -1.2184    0.6928 H   0  0  0  0  0  0  0  0  0  0  0  0
    2.3404   -0.0840   -0.4271 H   0  0  0  0  0  0  0  0  0  0  0  0
    0.8384   -1.6434    2.3103 C   0  0  0  0  0  0  0  0  0  0  0  0
    1.0433   -0.8377    3.0165 H   0  0  0  0  0  0  0  0  0  0  0  0
   -0.1729   -2.0076    2.4909 H   0  0  0  0  0  0  0  0  0  0  0  0
    1.8008   -2.8036    2.5983 C   0  0  0  0  0  0  0  0  0  0  0  0
    2.8354   -2.4664    2.5368 H   0  0  0  0  0  0  0  0  0  0  0  0
    1.6184   -3.1807    3.6049 H   0  0  0  0  0  0  0  0  0  0  0  0
    1.6373   -3.6103    1.8829 H   0  0  0  0  0  0  0  0  0  0  0  0
   -0.1192    0.5524   -0.8083 C   0  0  0  0  0  0  0  0  0  0  0  0
    0.6099    0.0794   -1.6789 O   0  0  0  0  0  0  0  0  0  0  0  0
   -0.8344    1.6677   -1.0023 N   0  0  0  0  0  0  0  0  0  0  0  0
   -1.4186    1.9894   -0.2467 H   0  0  0  0  0  0  0  0  0  0  0  0
   -0.8190    2.4453   -2.2397 C   0  0  0  0  0  0  0  0  0  0  0  0
   -1.0303    1.7913   -3.0886 H   0  0  0  0  0  0  0  0  0  0  0  0
   -1.5702    3.2355   -2.1999 H   0  0  0  0  0  0  0  0  0  0  0  0
    0.1680    2.8897   -2.3820 H   0  0  0  0  0  0  0  0  0  0  0  0
  5  6  2  0  0  0  0
  5  7  1  0  0  0  0
  2  3  1  0  0  0  0
  2  4  1  0  0  0  0
  2  5  1  0  0  0  0
  1  2  1  0  0  0  0
 24 25  2  0  0  0  0
 24 26  1  0  0  0  0
 20 21  1  0  0  0  0
 20 22  1  0  0  0  0
 20 23  1  0  0  0  0
 17 18  1  0  0  0  0
 17 19  1  0  0  0  0
 17 20  1  0  0  0  0
 13 14  1  0  0  0  0
 13 15  1  0  0  0  0
 13 16  1  0  0  0  0
 11 12  1  0  0  0  0
 11 13  1  0  0  0  0
 11 17  1  0  0  0  0
  9 10  1  0  0  0  0
  9 11  1  0  0  0  0
  9 24  1  0  0  0  0
  7  8  1  0  0  0  0
  7  9  1  0  0  0  0
 28 29  1  0  0  0  0
 28 30  1  0  0  0  0
 28 31  1  0  0  0  0
 26 27  1  0  0  0  0
 26 28  1  0  0  0  0
M  END
$$$$
default_name
  -OEChem-01062215323D

 31 30  0     1  0  0  0  0  0999 V2000
   -3.0760   -3.6390    1.5496 H   0  0  0  0  0  0  0  0  0  0  0  0
   -3.0940   -2.6290    1.1426 C   0  0  0  0  0  0  0  0  0  0  0  0
   -3.7160   -1.9930    1.7706 H   0  0  0  0  0  0  0  0  0  0  0  0
   -3.4880   -2.6500    0.1286 H   0  0  0  0  0  0  0  0  0  0  0  0
   -1.6860   -2.0850    1.1196 C   0  0  0  0  0  0  0  0  0  0  0  0
   -0.7540   -2.7700    1.5226 O   0  0  0  0  0  0  0  0  0  0  0  0
   -1.5320   -0.8490    0.6496 N   0  0  0  0  0  0  0  0  0  0  0  0
   -2.3500   -0.3360    0.3566 H   0  0  0  0  0  0  0  0  0  0  0  0
   -0.2470   -0.1410    0.5576 C   0  0  1  0  0  0  0  0  0  0  0  0
   -0.2448    0.6372    1.3216 H   0  0  0  0  0  0  0  0  0  0  0  0
    0.9236   -1.1099    0.8627 C   0  0  1  0  0  0  0  0  0  0  0  0
    0.8153   -1.9658    0.1937 H   0  0  0  0  0  0  0  0  0  0  0  0
    2.3002   -0.4737    0.5907 C   0  0  0  0  0  0  0  0  0  0  0  0
    2.4899    0.3439    1.2884 H   0  0  0  0  0  0  0  0  0  0  0  0
    3.0879   -1.2184    0.6928 H   0  0  0  0  0  0  0  0  0  0  0  0
    2.3404   -0.0840   -0.4271 H   0  0  0  0  0  0  0  0  0  0  0  0
    0.8384   -1.6434    2.3103 C   0  0  0  0  0  0  0  0  0  0  0  0
    1.0433   -0.8377    3.0165 H   0  0  0  0  0  0  0  0  0  0  0  0
   -0.1729   -2.0076    2.4909 H   0  0  0  0  0  0  0  0  0  0  0  0
    1.8008   -2.8036    2.5983 C   0  0  0  0  0  0  0  0  0  0  0  0
    2.8354   -2.4664    2.5368 H   0  0  0  0  0  0  0  0  0  0  0  0
    1.6184   -3.1807    3.6049 H   0  0  0  0  0  0  0  0  0  0  0  0
    1.6373   -3.6103    1.8829 H   0  0  0  0  0  0  0  0  0  0  0  0
   -0.1192    0.5524   -0.8083 C   0  0  0  0  0  0  0  0  0  0  0  0
    0.3764   -0.0438   -1.7633 O   0  0  0  0  0  0  0  0  0  0  0  0
   -0.5744    1.8078   -0.9068 N   0  0  0  0  0  0  0  0  0  0  0  0
   -0.9781    2.2279   -0.0845 H   0  0  0  0  0  0  0  0  0  0  0  0
   -0.5210    2.6044   -2.1311 C   0  0  0  0  0  0  0  0  0  0  0  0
   -0.9734    2.0463   -2.9539 H   0  0  0  0  0  0  0  0  0  0  0  0
   -1.0596    3.5435   -1.9958 H   0  0  0  0  0  0  0  0  0  0  0  0
    0.5191    2.8159   -2.3866 H   0  0  0  0  0  0  0  0  0  0  0  0
  5  6  2  0  0  0  0
  5  7  1  0  0  0  0
  2  3  1  0  0  0  0
  2  4  1  0  0  0  0
  2  5  1  0  0  0  0
  1  2  1  0  0  0  0
 24 25  2  0  0  0  0
 24 26  1  0  0  0  0
 20 21  1  0  0  0  0
 20 22  1  0  0  0  0
 20 23  1  0  0  0  0
 17 18  1  0  0  0  0
 17 19  1  0  0  0  0
 17 20  1  0  0  0  0
 13 14  1  0  0  0  0
 13 15  1  0  0  0  0
 13 16  1  0  0  0  0
 11 12  1  0  0  0  0
 11 13  1  0  0  0  0
 11 17  1  0  0  0  0
  9 10  1  0  0  0  0
  9 11  1  0  0  0  0
  9 24  1  0  0  0  0
  7  8  1  0  0  0  0
  7  9  1  0  0  0  0
 28 29  1  0  0  0  0
 28 30  1  0  0  0  0
 28 31  1  0  0  0  0
 26 27  1  0  0  0  0
 26 28  1  0  0  0  0
M  END
$$$$
default_name
  -OEChem-01062215323D

 31 30  0     1  0  0  0  0  0999 V2000
   -3.0760   -3.6390    1.5496 H   0  0  0  0  0  0  0  0  0  0  0  0
   -3.0940   -2.6290    1.1426 C   0  0  0  0  0  0  0  0  0  0  0  0
   -3.7160   -1.9930    1.7706 H   0  0  0  0  0  0  0  0  0  0  0  0
   -3.4880   -2.6500    0.1286 H   0  0  0  0  0  0  0  0  0  0  0  0
   -1.6860   -2.0850    1.1196 C   0  0  0  0  0  0  0  0  0  0  0  0
   -0.7540   -2.7700    1.5226 O   0  0  0  0  0  0  0  0  0  0  0  0
   -1.5320   -0.8490    0.6496 N   0  0  0  0  0  0  0  0  0  0  0  0
   -2.3500   -0.3360    0.3566 H   0  0  0  0  0  0  0  0  0  0  0  0
   -0.2470   -0.1410    0.5576 C   0  0  1  0  0  0  0  0  0  0  0  0
   -0.2448    0.6372    1.3216 H   0  0  0  0  0  0  0  0  0  0  0  0
    0.9236   -1.1099    0.8627 C   0  0  1  0  0  0  0  0  0  0  0  0
    0.8153   -1.9658    0.1937 H   0  0  0  0  0  0  0  0  0  0  0  0
    2.3002   -0.4737    0.5907 C   0  0  0  0  0  0  0  0  0  0  0  0
    2.4899    0.3439    1.2884 H   0  0  0  0  0  0  0  0  0  0  0  0
    3.0879   -1.2184    0.6928 H   0  0  0  0  0  0  0  0  0  0  0  0
    2.3404   -0.0840   -0.4271 H   0  0  0  0  0  0  0  0  0  0  0  0
    0.8384   -1.6434    2.3103 C   0  0  0  0  0  0  0  0  0  0  0  0
    1.0433   -0.8377    3.0165 H   0  0  0  0  0  0  0  0  0  0  0  0
   -0.1729   -2.0076    2.4909 H   0  0  0  0  0  0  0  0  0  0  0  0
    1.8008   -2.8036    2.5983 C   0  0  0  0  0  0  0  0  0  0  0  0
    2.8354   -2.4664    2.5368 H   0  0  0  0  0  0  0  0  0  0  0  0
    1.6184   -3.1807    3.6049 H   0  0  0  0  0  0  0  0  0  0  0  0
    1.6373   -3.6103    1.8829 H   0  0  0  0  0  0  0  0  0  0  0  0
   -0.1192    0.5524   -0.8083 C   0  0  0  0  0  0  0  0  0  0  0  0
    0.1127   -0.1074   -1.8203 O   0  0  0  0  0  0  0  0  0  0  0  0
   -0.2799    1.8814   -0.8419 N   0  0  0  0  0  0  0  0  0  0  0  0
   -0.4789    2.3534    0.0260 H   0  0  0  0  0  0  0  0  0  0  0  0
   -0.1840    2.6871   -2.0576 C   0  0  0  0  0  0  0  0  0  0  0  0
   -0.8441    2.2766   -2.8248 H   0  0  0  0  0  0  0  0  0  0  0  0
   -0.4716    3.7191   -1.8516 H   0  0  0  0  0  0  0  0  0  0  0  0
    0.8406    2.6640   -2.4336 H   0  0  0  0  0  0  0  0  0  0  0  0
  5  6  2  0  0  0  0
  5  7  1  0  0  0  0
  2  3  1  0  0  0  0
  2  4  1  0  0  0  0
  2  5  1  0  0  0  0
  1  2  1  0  0  0  0
 24 25  2  0  0  0  0
 24 26  1  0  0  0  0
 20 21  1  0  0  0  0
 20 22  1  0  0  0  0
 20 23  1  0  0  0  0
 17 18  1  0  0  0  0
 17 19  1  0  0  0  0
 17 20  1  0  0  0  0
 13 14  1  0  0  0  0
 13 15  1  0  0  0  0
 13 16  1  0  0  0  0
 11 12  1  0  0  0  0
 11 13  1  0  0  0  0
 11 17  1  0  0  0  0
  9 10  1  0  0  0  0
  9 11  1  0  0  0  0
  9 24  1  0  0  0  0
  7  8  1  0  0  0  0
  7  9  1  0  0  0  0
 28 29  1  0  0  0  0
 28 30  1  0  0  0  0
 28 31  1  0  0  0  0
 26 27  1  0  0  0  0
 26 28  1  0  0  0  0
M  END
$$$$
default_name
  -OEChem-01062215323D

 31 30  0     1  0  0  0  0  0999 V2000
   -3.0760   -3.6390    1.5496 H   0  0  0  0  0  0  0  0  0  0  0  0
   -3.0940   -2.6290    1.1426 C   0  0  0  0  0  0  0  0  0  0  0  0
   -3.7160   -1.9930    1.7706 H   0  0  0  0  0  0  0  0  0  0  0  0
   -3.4880   -2.6500    0.1286 H   0  0  0  0  0  0  0  0  0  0  0  0
   -1.6860   -2.0850    1.1196 C   0  0  0  0  0  0  0  0  0  0  0  0
   -0.7540   -2.7700    1.5226 O   0  0  0  0  0  0  0  0  0  0  0  0
   -1.5320   -0.8490    0.6496 N   0  0  0  0  0  0  0  0  0  0  0  0
   -2.3500   -0.3360    0.3566 H   0  0  0  0  0  0  0  0  0  0  0  0
   -0.2470   -0.1410    0.5576 C   0  0  1  0  0  0  0  0  0  0  0  0
   -0.2448    0.6372    1.3216 H   0  0  0  0  0  0  0  0  0  0  0  0
    0.9236   -1.1099    0.8627 C   0  0  1  0  0  0  0  0  0  0  0  0
    0.8153   -1.9658    0.1937 H   0  0  0  0  0  0  0  0  0  0  0  0
    2.3002   -0.4737    0.5907 C   0  0  0  0  0  0  0  0  0  0  0  0
    2.4899    0.3439    1.2884 H   0  0  0  0  0  0  0  0  0  0  0  0
    3.0879   -1.2184    0.6928 H   0  0  0  0  0  0  0  0  0  0  0  0
    2.3404   -0.0840   -0.4271 H   0  0  0  0  0  0  0  0  0  0  0  0
    0.8384   -1.6434    2.3103 C   0  0  0  0  0  0  0  0  0  0  0  0
    1.0433   -0.8377    3.0165 H   0  0  0  0  0  0  0  0  0  0  0  0
   -0.1729   -2.0076    2.4909 H   0  0  0  0  0  0  0  0  0  0  0  0
    1.8008   -2.8036    2.5983 C   0  0  0  0  0  0  0  0  0  0  0  0
    2.8354   -2.4664    2.5368 H   0  0  0  0  0  0  0  0  0  0  0  0
    1.6184   -3.1807    3.6049 H   0  0  0  0  0  0  0  0  0  0  0  0
    1.6373   -3.6103    1.8829 H   0  0  0  0  0  0  0  0  0  0  0  0
   -0.1192    0.5524   -0.8083 C   0  0  0  0  0  0  0  0  0  0  0  0
   -0.1634   -0.1069   -1.8459 O   0  0  0  0  0  0  0  0  0  0  0  0
    0.0290    1.8832   -0.8120 N   0  0  0  0  0  0  0  0  0  0  0  0
    0.0451    2.3574    0.0771 H   0  0  0  0  0  0  0  0  0  0  0  0
    0.1692    2.6880   -2.0241 C   0  0  0  0  0  0  0  0  0  0  0  0
   -0.6512    2.4666   -2.7103 H   0  0  0  0  0  0  0  0  0  0  0  0
    0.1535    3.7505   -1.7771 H   0  0  0  0  0  0  0  0  0  0  0  0
    1.1109    2.4444   -2.5198 H   0  0  0  0  0  0  0  0  0  0  0  0
  5  6  2  0  0  0  0
  5  7  1  0  0  0  0
  2  3  1  0  0  0  0
  2  4  1  0  0  0  0
  2  5  1  0  0  0  0
  1  2  1  0  0  0  0
 24 25  2  0  0  0  0
 24 26  1  0  0  0  0
 20 21  1  0  0  0  0
 20 22  1  0  0  0  0
 20 23  1  0  0  0  0
 17 18  1  0  0  0  0
 17 19  1  0  0  0  0
 17 20  1  0  0  0  0
 13 14  1  0  0  0  0
 13 15  1  0  0  0  0
 13 16  1  0  0  0  0
 11 12  1  0  0  0  0
 11 13  1  0  0  0  0
 11 17  1  0  0  0  0
  9 10  1  0  0  0  0
  9 11  1  0  0  0  0
  9 24  1  0  0  0  0
  7  8  1  0  0  0  0
  7  9  1  0  0  0  0
 28 29  1  0  0  0  0
 28 30  1  0  0  0  0
 28 31  1  0  0  0  0
 26 27  1  0  0  0  0
 26 28  1  0  0  0  0
M  END
$$$$
default_name
  -OEChem-01062215323D

 31 30  0     1  0  0  0  0  0999 V2000
   -3.0760   -3.6390    1.5496 H   0  0  0  0  0  0  0  0  0  0  0  0
   -3.0940   -2.6290    1.1426 C   0  0  0  0  0  0  0  0  0  0  0  0
   -3.7160   -1.9930    1.7706 H   0  0  0  0  0  0  0  0  0  0  0  0
   -3.4880   -2.6500    0.1286 H   0  0  0  0  0  0  0  0  0  0  0  0
   -1.6860   -2.0850    1.1196 C   0  0  0  0  0  0  0  0  0  0  0  0
   -0.7540   -2.7700    1.5226 O   0  0  0  0  0  0  0  0  0  0  0  0
   -1.5320   -0.8490    0.6496 N   0  0  0  0  0  0  0  0  0  0  0  0
   -2.3500   -0.3360    0.3566 H   0  0  0  0  0  0  0  0  0  0  0  0
   -0.2470   -0.1410    0.5576 C   0  0  1  0  0  0  0  0  0  0  0  0
   -0.2448    0.6372    1.3216 H   0  0  0  0  0  0  0  0  0  0  0  0
    0.9236   -1.1099    0.8627 C   0  0  1  0  0  0  0  0  0  0  0  0
    0.8153   -1.9658    0.1937 H   0  0  0  0  0  0  0  0  0  0  0  0
    2.3002   -0.4737    0.5907 C   0  0  0  0  0  0  0  0  0  0  0  0
    2.4899    0.3439    1.2884 H   0  0  0  0  0  0  0  0  0  0  0  0
    3.0879   -1.2184    0.6928 H   0  0  0  0  0  0  0  0  0  0  0  0
    2.3404   -0.0840   -0.4271 H   0  0  0  0  0  0  0  0  0  0  0  0
    0.8384   -1.6434    2.3103 C   0  0  0  0  0  0  0  0  0  0  0  0
    1.0433   -0.8377    3.0165 H   0  0  0  0  0  0  0  0  0  0  0  0
   -0.1729   -2.0076    2.4909 H   0  0  0  0  0  0  0  0  0  0  0  0
    1.8008   -2.8036    2.5983 C   0  0  0  0  0  0  0  0  0  0  0  0
    2.8354   -2.4664    2.5368 H   0  0  0  0  0  0  0  0  0  0  0  0
    1.6184   -3.1807    3.6049 H   0  0  0  0  0  0  0  0  0  0  0  0
    1.6373   -3.6103    1.8829 H   0  0  0  0  0  0  0  0  0  0  0  0
   -0.1192    0.5524   -0.8083 C   0  0  0  0  0  0  0  0  0  0  0  0
   -0.4329   -0.0424   -1.8384 O   0  0  0  0  0  0  0  0  0  0  0  0
    0.3313    1.8134   -0.8192 N   0  0  0  0  0  0  0  0  0  0  0  0
    0.5581    2.2397    0.0653 H   0  0  0  0  0  0  0  0  0  0  0  0
    0.5144    2.6068   -2.0329 C   0  0  0  0  0  0  0  0  0  0  0  0
   -0.4078    2.6032   -2.6182 H   0  0  0  0  0  0  0  0  0  0  0  0
    0.7732    3.6355   -1.7775 H   0  0  0  0  0  0  0  0  0  0  0  0
    1.3113    2.1720   -2.6393 H   0  0  0  0  0  0  0  0  0  0  0  0
  5  6  2  0  0  0  0
  5  7  1  0  0  0  0
  2  3  1  0  0  0  0
  2  4  1  0  0  0  0
  2  5  1  0  0  0  0
  1  2  1  0  0  0  0
 24 25  2  0  0  0  0
 24 26  1  0  0  0  0
 20 21  1  0  0  0  0
 20 22  1  0  0  0  0
 20 23  1  0  0  0  0
 17 18  1  0  0  0  0
 17 19  1  0  0  0  0
 17 20  1  0  0  0  0
 13 14  1  0  0  0  0
 13 15  1  0  0  0  0
 13 16  1  0  0  0  0
 11 12  1  0  0  0  0
 11 13  1  0  0  0  0
 11 17  1  0  0  0  0
  9 10  1  0  0  0  0
  9 11  1  0  0  0  0
  9 24  1  0  0  0  0
  7  8  1  0  0  0  0
  7  9  1  0  0  0  0
 28 29  1  0  0  0  0
 28 30  1  0  0  0  0
 28 31  1  0  0  0  0
 26 27  1  0  0  0  0
 26 28  1  0  0  0  0
M  END
$$$$
default_name
  -OEChem-01062215323D

 31 30  0     1  0  0  0  0  0999 V2000
   -3.0760   -3.6390    1.5496 H   0  0  0  0  0  0  0  0  0  0  0  0
   -3.0940   -2.6290    1.1426 C   0  0  0  0  0  0  0  0  0  0  0  0
   -3.7160   -1.9930    1.7706 H   0  0  0  0  0  0  0  0  0  0  0  0
   -3.4880   -2.6500    0.1286 H   0  0  0  0  0  0  0  0  0  0  0  0
   -1.6860   -2.0850    1.1196 C   0  0  0  0  0  0  0  0  0  0  0  0
   -0.7540   -2.7700    1.5226 O   0  0  0  0  0  0  0  0  0  0  0  0
   -1.5320   -0.8490    0.6496 N   0  0  0  0  0  0  0  0  0  0  0  0
   -2.3500   -0.3360    0.3566 H   0  0  0  0  0  0  0  0  0  0  0  0
   -0.2470   -0.1410    0.5576 C   0  0  1  0  0  0  0  0  0  0  0  0
   -0.2448    0.6372    1.3216 H   0  0  0  0  0  0  0  0  0  0  0  0
    0.9236   -1.1099    0.8627 C   0  0  1  0  0  0  0  0  0  0  0  0
    0.8153   -1.9658    0.1937 H   0  0  0  0  0  0  0  0  0  0  0  0
    2.3002   -0.4737    0.5907 C   0  0  0  0  0  0  0  0  0  0  0  0
    2.4899    0.3439    1.2884 H   0  0  0  0  0  0  0  0  0  0  0  0
    3.0879   -1.2184    0.6928 H   0  0  0  0  0  0  0  0  0  0  0  0
    2.3404   -0.0840   -0.4271 H   0  0  0  0  0  0  0  0  0  0  0  0
    0.8384   -1.6434    2.3103 C   0  0  0  0  0  0  0  0  0  0  0  0
    1.0433   -0.8377    3.0165 H   0  0  0  0  0  0  0  0  0  0  0  0
   -0.1729   -2.0076    2.4909 H   0  0  0  0  0  0  0  0  0  0  0  0
    1.8008   -2.8036    2.5983 C   0  0  0  0  0  0  0  0  0  0  0  0
    2.8354   -2.4664    2.5368 H   0  0  0  0  0  0  0  0  0  0  0  0
    1.6184   -3.1807    3.6049 H   0  0  0  0  0  0  0  0  0  0  0  0
    1.6373   -3.6103    1.8829 H   0  0  0  0  0  0  0  0  0  0  0  0
   -0.1192    0.5524   -0.8083 C   0  0  0  0  0  0  0  0  0  0  0  0
   -0.6775    0.0817   -1.7982 O   0  0  0  0  0  0  0  0  0  0  0  0
    0.6065    1.6765   -0.8629 N   0  0  0  0  0  0  0  0  0  0  0  0
    1.0252    2.0083   -0.0084 H   0  0  0  0  0  0  0  0  0  0  0  0
    0.8282    2.4493   -2.0836 C   0  0  0  0  0  0  0  0  0  0  0  0
   -0.1305    2.6773   -2.5547 H   0  0  0  0  0  0  0  0  0  0  0  0
    1.3453    3.3818   -1.8527 H   0  0  0  0  0  0  0  0  0  0  0  0
    1.4283    1.8653   -2.7840 H   0  0  0  0  0  0  0  0  0  0  0  0
  5  6  2  0  0  0  0
  5  7  1  0  0  0  0
  2  3  1  0  0  0  0
  2  4  1  0  0  0  0
  2  5  1  0  0  0  0
  1  2  1  0  0  0  0
 24 25  2  0  0  0  0
 24 26  1  0  0  0  0
 20 21  1  0  0  0  0
 20 22  1  0  0  0  0
 20 23  1  0  0  0  0
 17 18  1  0  0  0  0
 17 19  1  0  0  0  0
 17 20  1  0  0  0  0
 13 14  1  0  0  0  0
 13 15  1  0  0  0  0
 13 16  1  0  0  0  0
 11 12  1  0  0  0  0
 11 13  1  0  0  0  0
 11 17  1  0  0  0  0
  9 10  1  0  0  0  0
  9 11  1  0  0  0  0
  9 24  1  0  0  0  0
  7  8  1  0  0  0  0
  7  9  1  0  0  0  0
 28 29  1  0  0  0  0
 28 30  1  0  0  0  0
 28 31  1  0  0  0  0
 26 27  1  0  0  0  0
 26 28  1  0  0  0  0
M  END
$$$$
default_name
  -OEChem-01062215323D

 31 30  0     1  0  0  0  0  0999 V2000
   -3.0760   -3.6390    1.5496 H   0  0  0  0  0  0  0  0  0  0  0  0
   -3.0940   -2.6290    1.1426 C   0  0  0  0  0  0  0  0  0  0  0  0
   -3.7160   -1.9930    1.7706 H   0  0  0  0  0  0  0  0  0  0  0  0
   -3.4880   -2.6500    0.1286 H   0  0  0  0  0  0  0  0  0  0  0  0
   -1.6860   -2.0850    1.1196 C   0  0  0  0  0  0  0  0  0  0  0  0
   -0.7540   -2.7700    1.5226 O   0  0  0  0  0  0  0  0  0  0  0  0
   -1.5320   -0.8490    0.6496 N   0  0  0  0  0  0  0  0  0  0  0  0
   -2.3500   -0.3360    0.3566 H   0  0  0  0  0  0  0  0  0  0  0  0
   -0.2470   -0.1410    0.5576 C   0  0  1  0  0  0  0  0  0  0  0  0
   -0.2448    0.6372    1.3216 H   0  0  0  0  0  0  0  0  0  0  0  0
    0.9236   -1.1099    0.8627 C   0  0  1  0  0  0  0  0  0  0  0  0
    0.8153   -1.9658    0.1937 H   0  0  0  0  0  0  0  0  0  0  0  0
    2.3002   -0.4737    0.5907 C   0  0  0  0  0  0  0  0  0  0  0  0
    2.4899    0.3439    1.2884 H   0  0  0  0  0  0  0  0  0  0  0  0
    3.0879   -1.2184    0.6928 H   0  0  0  0  0  0  0  0  0  0  0  0
    2.3404   -0.0840   -0.4271 H   0  0  0  0  0  0  0  0  0  0  0  0
    0.8384   -1.6434    2.3103 C   0  0  0  0  0  0  0  0  0  0  0  0
    1.0433   -0.8377    3.0165 H   0  0  0  0  0  0  0  0  0  0  0  0
   -0.1729   -2.0076    2.4909 H   0  0  0  0  0  0  0  0  0  0  0  0
    1.8008   -2.8036    2.5983 C   0  0  0  0  0  0  0  0  0  0  0  0
    2.8354   -2.4664    2.5368 H   0  0  0  0  0  0  0  0  0  0  0  0
    1.6184   -3.1807    3.6049 H   0  0  0  0  0  0  0  0  0  0  0  0
    1.6373   -3.6103    1.8829 H   0  0  0  0  0  0  0  0  0  0  0  0
   -0.1192    0.5524   -0.8083 C   0  0  0  0  0  0  0  0  0  0  0  0
   -0.8805    0.2570   -1.7283 O   0  0  0  0  0  0  0  0  0  0  0  0
    0.8356    1.4819   -0.9402 N   0  0  0  0  0  0  0  0  0  0  0  0
    1.4145    1.6789   -0.1392 H   0  0  0  0  0  0  0  0  0  0  0  0
    1.0892    2.2260   -2.1725 C   0  0  0  0  0  0  0  0  0  0  0  0
    0.1618    2.6836   -2.5241 H   0  0  0  0  0  0  0  0  0  0  0  0
    1.8307    3.0068   -1.9976 H   0  0  0  0  0  0  0  0  0  0  0  0
    1.4538    1.5453   -2.9441 H   0  0  0  0  0  0  0  0  0  0  0  0
  5  6  2  0  0  0  0
  5  7  1  0  0  0  0
  2  3  1  0  0  0  0
  2  4  1  0  0  0  0
  2  5  1  0  0  0  0
  1  2  1  0  0  0  0
 24 25  2  0  0  0  0
 24 26  1  0  0  0  0
 20 21  1  0  0  0  0
 20 22  1  0  0  0  0
 20 23  1  0  0  0  0
 17 18  1  0  0  0  0
 17 19  1  0  0  0  0
 17 20  1  0  0  0  0
 13 14  1  0  0  0  0
 13 15  1  0  0  0  0
 13 16  1  0  0  0  0
 11 12  1  0  0  0  0
 11 13  1  0  0  0  0
 11 17  1  0  0  0  0
  9 10  1  0  0  0  0
  9 11  1  0  0  0  0
  9 24  1  0  0  0  0
  7  8  1  0  0  0  0
  7  9  1  0  0  0  0
 28 29  1  0  0  0  0
 28 30  1  0  0  0  0
 28 31  1  0  0  0  0
 26 27  1  0  0  0  0
 26 28  1  0  0  0  0
M  END
$$$$
default_name
  -OEChem-01062215323D

 31 30  0     1  0  0  0  0  0999 V2000
   -3.0760   -3.6390    1.5496 H   0  0  0  0  0  0  0  0  0  0  0  0
   -3.0940   -2.6290    1.1426 C   0  0  0  0  0  0  0  0  0  0  0  0
   -3.7160   -1.9930    1.7706 H   0  0  0  0  0  0  0  0  0  0  0  0
   -3.4880   -2.6500    0.1286 H   0  0  0  0  0  0  0  0  0  0  0  0
   -1.6860   -2.0850    1.1196 C   0  0  0  0  0  0  0  0  0  0  0  0
   -0.7540   -2.7700    1.5226 O   0  0  0  0  0  0  0  0  0  0  0  0
   -1.5320   -0.8490    0.6496 N   0  0  0  0  0  0  0  0  0  0  0  0
   -2.3500   -0.3360    0.3566 H   0  0  0  0  0  0  0  0  0  0  0  0
   -0.2470   -0.1410    0.5576 C   0  0  1  0  0  0  0  0  0  0  0  0
   -0.1272    0.4432    1.4706 H   0  0  0  0  0  0  0  0  0  0  0  0
    0.9221   -1.1561    0.4860 C   0  0  1  0  0  0  0  0  0  0  0  0
    0.7064   -1.8373   -0.3393 H   0  0  0  0  0  0  0  0  0  0  0  0
    2.2736   -0.4772    0.1924 C   0  0  0  0  0  0  0  0  0  0  0  0
    2.5724    0.1601    1.0266 H   0  0  0  0  0  0  0  0  0  0  0  0
    3.0448   -1.2271    0.0236 H   0  0  0  0  0  0  0  0  0  0  0  0
    2.2005    0.1335   -0.7082 H   0  0  0  0  0  0  0  0  0  0  0  0
    0.9990   -2.0045    1.7751 C   0  0  0  0  0  0  0  0  0  0  0  0
    1.3136   -1.3807    2.6129 H   0  0  0  0  0  0  0  0  0  0  0  0
    0.0068   -2.3982    1.9955 H   0  0  0  0  0  0  0  0  0  0  0  0
    1.9536   -3.2015    1.6703 C   0  0  0  0  0  0  0  0  0  0  0  0
    2.9826   -2.8611    1.5559 H   0  0  0  0  0  0  0  0  0  0  0  0
    1.8847   -3.7971    2.5808 H   0  0  0  0  0  0  0  0  0  0  0  0
    1.6790   -3.8242    0.8181 H   0  0  0  0  0  0  0  0  0  0  0  0
   -0.2667    0.8444   -0.6219 C   0  0  0  0  0  0  0  0  0  0  0  0
   -1.2722    0.9549   -1.3220 O   0  0  0  0  0  0  0  0  0  0  0  0
    0.8385    1.5689   -0.8379 N   0  0  0  0  0  0  0  0  0  0  0  0
    1.6196    1.4324   -0.2159 H   0  0  0  0  0  0  0  0  0  0  0  0
    0.9810    2.5426   -1.9186 C   0  0  0  0  0  0  0  0  0  0  0  0
    0.1490    3.2497   -1.8896 H   0  0  0  0  0  0  0  0  0  0  0  0
    1.9197    3.0888   -1.8149 H   0  0  0  0  0  0  0  0  0  0  0  0
    0.9649    2.0279   -2.8812 H   0  0  0  0  0  0  0  0  0  0  0  0
  5  6  2  0  0  0  0
  5  7  1  0  0  0  0
  2  3  1  0  0  0  0
  2  4  1  0  0  0  0
  2  5  1  0  0  0  0
  1  2  1  0  0  0  0
 24 25  2  0  0  0  0
 24 26  1  0  0  0  0
 20 21  1  0  0  0  0
 20 22  1  0  0  0  0
 20 23  1  0  0  0  0
 17 18  1  0  0  0  0
 17 19  1  0  0  0  0
 17 20  1  0  0  0  0
 13 14  1  0  0  0  0
 13 15  1  0  0  0  0
 13 16  1  0  0  0  0
 11 12  1  0  0  0  0
 11 13  1  0  0  0  0
 11 17  1  0  0  0  0
  9 10  1  0  0  0  0
  9 11  1  0  0  0  0
  9 24  1  0  0  0  0
  7  8  1  0  0  0  0
  7  9  1  0  0  0  0
 28 29  1  0  0  0  0
 28 30  1  0  0  0  0
 28 31  1  0  0  0  0
 26 27  1  0  0  0  0
 26 28  1  0  0  0  0
M  END
$$$$
default_name
  -OEChem-01062215323D

 31 30  0     1  0  0  0  0  0999 V2000
   -3.0760   -3.6390    1.5496 H   0  0  0  0  0  0  0  0  0  0  0  0
   -3.0940   -2.6290    1.1426 C   0  0  0  0  0  0  0  0  0  0  0  0
   -3.7160   -1.9930    1.7706 H   0  0  0  0  0  0  0  0  0  0  0  0
   -3.4880   -2.6500    0.1286 H   0  0  0  0  0  0  0  0  0  0  0  0
   -1.6860   -2.0850    1.1196 C   0  0  0  0  0  0  0  0  0  0  0  0
   -0.7540   -2.7700    1.5226 O   0  0  0  0  0  0  0  0  0  0  0  0
   -1.5320   -0.8490    0.6496 N   0  0  0  0  0  0  0  0  0  0  0  0
   -2.3500   -0.3360    0.3566 H   0  0  0  0  0  0  0  0  0  0  0  0
   -0.2470   -0.1410    0.5576 C   0  0  1  0  0  0  0  0  0  0  0  0
   -0.1272    0.4432    1.4706 H   0  0  0  0  0  0  0  0  0  0  0  0
    0.9221   -1.1561    0.4860 C   0  0  1  0  0  0  0  0  0  0  0  0
    0.7064   -1.8373   -0.3393 H   0  0  0  0  0  0  0  0  0  0  0  0
    2.2736   -0.4772    0.1924 C   0  0  0  0  0  0  0  0  0  0  0  0
    2.5724    0.1601    1.0266 H   0  0  0  0  0  0  0  0  0  0  0  0
    3.0448   -1.2271    0.0236 H   0  0  0  0  0  0  0  0  0  0  0  0
    2.2005    0.1335   -0.7082 H   0  0  0  0  0  0  0  0  0  0  0  0
    0.9990   -2.0045    1.7751 C   0  0  0  0  0  0  0  0  0  0  0  0
    1.3136   -1.3807    2.6129 H   0  0  0  0  0  0  0  0  0  0  0  0
    0.0068   -2.3982    1.9955 H   0  0  0  0  0  0  0  0  0  0  0  0
    1.9536   -3.2015    1.6703 C   0  0  0  0  0  0  0  0  0  0  0  0
    2.9826   -2.8611    1.5559 H   0  0  0  0  0  0  0  0  0  0  0  0
    1.8847   -3.7971    2.5808 H   0  0  0  0  0  0  0  0  0  0  0  0
    1.6790   -3.8242    0.8181 H   0  0  0  0  0  0  0  0  0  0  0  0
   -0.2667    0.8444   -0.6219 C   0  0  0  0  0  0  0  0  0  0  0  0
   -1.3324    1.1620   -1.1480 O   0  0  0  0  0  0  0  0  0  0  0  0
    0.9087    1.3374   -1.0325 N   0  0  0  0  0  0  0  0  0  0  0  0
    1.7395    1.0400   -0.5457 H   0  0  0  0  0  0  0  0  0  0  0  0
    1.0597    2.2778   -2.1411 C   0  0  0  0  0  0  0  0  0  0  0  0
    0.4012    3.1357   -1.9890 H   0  0  0  0  0  0  0  0  0  0  0  0
    2.0920    2.6249   -2.2053 H   0  0  0  0  0  0  0  0  0  0  0  0
    0.7821    1.7896   -3.0773 H   0  0  0  0  0  0  0  0  0  0  0  0
  5  6  2  0  0  0  0
  5  7  1  0  0  0  0
  2  3  1  0  0  0  0
  2  4  1  0  0  0  0
  2  5  1  0  0  0  0
  1  2  1  0  0  0  0
 24 25  2  0  0  0  0
 24 26  1  0  0  0  0
 20 21  1  0  0  0  0
 20 22  1  0  0  0  0
 20 23  1  0  0  0  0
 17 18  1  0  0  0  0
 17 19  1  0  0  0  0
 17 20  1  0  0  0  0
 13 14  1  0  0  0  0
 13 15  1  0  0  0  0
 13 16  1  0  0  0  0
 11 12  1  0  0  0  0
 11 13  1  0  0  0  0
 11 17  1  0  0  0  0
  9 10  1  0  0  0  0
  9 11  1  0  0  0  0
  9 24  1  0  0  0  0
  7  8  1  0  0  0  0
  7  9  1  0  0  0  0
 28 29  1  0  0  0  0
 28 30  1  0  0  0  0
 28 31  1  0  0  0  0
 26 27  1  0  0  0  0
 26 28  1  0  0  0  0
M  END
$$$$
default_name
  -OEChem-01062215323D

 31 30  0     1  0  0  0  0  0999 V2000
   -3.0760   -3.6390    1.5496 H   0  0  0  0  0  0  0  0  0  0  0  0
   -3.0940   -2.6290    1.1426 C   0  0  0  0  0  0  0  0  0  0  0  0
   -3.7160   -1.9930    1.7706 H   0  0  0  0  0  0  0  0  0  0  0  0
   -3.4880   -2.6500    0.1286 H   0  0  0  0  0  0  0  0  0  0  0  0
   -1.6860   -2.0850    1.1196 C   0  0  0  0  0  0  0  0  0  0  0  0
   -0.7540   -2.7700    1.5226 O   0  0  0  0  0  0  0  0  0  0  0  0
   -1.5320   -0.8490    0.6496 N   0  0  0  0  0  0  0  0  0  0  0  0
   -2.3500   -0.3360    0.3566 H   0  0  0  0  0  0  0  0  0  0  0  0
   -0.2470   -0.1410    0.5576 C   0  0  1  0  0  0  0  0  0  0  0  0
   -0.1272    0.4432    1.4706 H   0  0  0  0  0  0  0  0  0  0  0  0
    0.9221   -1.1561    0.4860 C   0  0  1  0  0  0  0  0  0  0  0  0
    0.7064   -1.8373   -0.3393 H   0  0  0  0  0  0  0  0  0  0  0  0
    2.2736   -0.4772    0.1924 C   0  0  0  0  0  0  0  0  0  0  0  0
    2.5724    0.1601    1.0266 H   0  0  0  0  0  0  0  0  0  0  0  0
    3.0448   -1.2271    0.0236 H   0  0  0  0  0  0  0  0  0  0  0  0
    2.2005    0.1335   -0.7082 H   0  0  0  0  0  0  0  0  0  0  0  0
    0.9990   -2.0045    1.7751 C   0  0  0  0  0  0  0  0  0  0  0  0
    1.3136   -1.3807    2.6129 H   0  0  0  0  0  0  0  0  0  0  0  0
    0.0068   -2.3982    1.9955 H   0  0  0  0  0  0  0  0  0  0  0  0
    1.9536   -3.2015    1.6703 C   0  0  0  0  0  0  0  0  0  0  0  0
    2.9826   -2.8611    1.5559 H   0  0  0  0  0  0  0  0  0  0  0  0
    1.8847   -3.7971    2.5808 H   0  0  0  0  0  0  0  0  0  0  0  0
    1.6790   -3.8242    0.8181 H   0  0  0  0  0  0  0  0  0  0  0  0
   -0.2667    0.8444   -0.6219 C   0  0  0  0  0  0  0  0  0  0  0  0
   -1.3206    1.3747   -0.9705 O   0  0  0  0  0  0  0  0  0  0  0  0
    0.8981    1.0993   -1.2312 N   0  0  0  0  0  0  0  0  0  0  0  0
    1.7226    0.6360   -0.8829 H   0  0  0  0  0  0  0  0  0  0  0  0
    1.0463    2.0056   -2.3683 C   0  0  0  0  0  0  0  0  0  0  0  0
    0.6055    2.9753   -2.1264 H   0  0  0  0  0  0  0  0  0  0  0  0
    2.1015    2.1413   -2.6095 H   0  0  0  0  0  0  0  0  0  0  0  0
    0.5256    1.5950   -3.2355 H   0  0  0  0  0  0  0  0  0  0  0  0
  5  6  2  0  0  0  0
  5  7  1  0  0  0  0
  2  3  1  0  0  0  0
  2  4  1  0  0  0  0
  2  5  1  0  0  0  0
  1  2  1  0  0  0  0
 24 25  2  0  0  0  0
 24 26  1  0  0  0  0
 20 21  1  0  0  0  0
 20 22  1  0  0  0  0
 20 23  1  0  0  0  0
 17 18  1  0  0  0  0
 17 19  1  0  0  0  0
 17 20  1  0  0  0  0
 13 14  1  0  0  0  0
 13 15  1  0  0  0  0
 13 16  1  0  0  0  0
 11 12  1  0  0  0  0
 11 13  1  0  0  0  0
 11 17  1  0  0  0  0
  9 10  1  0  0  0  0
  9 11  1  0  0  0  0
  9 24  1  0  0  0  0
  7  8  1  0  0  0  0
  7  9  1  0  0  0  0
 28 29  1  0  0  0  0
 28 30  1  0  0  0  0
 28 31  1  0  0  0  0
 26 27  1  0  0  0  0
 26 28  1  0  0  0  0
M  END
$$$$
default_name
  -OEChem-01062215323D

 31 30  0     1  0  0  0  0  0999 V2000
   -3.0760   -3.6390    1.5496 H   0  0  0  0  0  0  0  0  0  0  0  0
   -3.0940   -2.6290    1.1426 C   0  0  0  0  0  0  0  0  0  0  0  0
   -3.7160   -1.9930    1.7706 H   0  0  0  0  0  0  0  0  0  0  0  0
   -3.4880   -2.6500    0.1286 H   0  0  0  0  0  0  0  0  0  0  0  0
   -1.6860   -2.0850    1.1196 C   0  0  0  0  0  0  0  0  0  0  0  0
   -0.7540   -2.7700    1.5226 O   0  0  0  0  0  0  0  0  0  0  0  0
   -1.5320   -0.8490    0.6496 N   0  0  0  0  0  0  0  0  0  0  0  0
   -2.3500   -0.3360    0.3566 H   0  0  0  0  0  0  0  0  0  0  0  0
   -0.2470   -0.1410    0.5576 C   0  0  1  0  0  0  0  0  0  0  0  0
   -0.1272    0.4432    1.4706 H   0  0  0  0  0  0  0  0  0  0  0  0
    0.9221   -1.1561    0.4860 C   0  0  1  0  0  0  0  0  0  0  0  0
    0.7064   -1.8373   -0.3393 H   0  0  0  0  0  0  0  0  0  0  0  0
    2.2736   -0.4772    0.1924 C   0  0  0  0  0  0  0  0  0  0  0  0
    2.5724    0.1601    1.0266 H   0  0  0  0  0  0  0  0  0  0  0  0
    3.0448   -1.2271    0.0236 H   0  0  0  0  0  0  0  0  0  0  0  0
    2.2005    0.1335   -0.7082 H   0  0  0  0  0  0  0  0  0  0  0  0
    0.9990   -2.0045    1.7751 C   0  0  0  0  0  0  0  0  0  0  0  0
    1.3136   -1.3807    2.6129 H   0  0  0  0  0  0  0  0  0  0  0  0
    0.0068   -2.3982    1.9955 H   0  0  0  0  0  0  0  0  0  0  0  0
    1.9536   -3.2015    1.6703 C   0  0  0  0  0  0  0  0  0  0  0  0
    2.9826   -2.8611    1.5559 H   0  0  0  0  0  0  0  0  0  0  0  0
    1.8847   -3.7971    2.5808 H   0  0  0  0  0  0  0  0  0  0  0  0
    1.6790   -3.8242    0.8181 H   0  0  0  0  0  0  0  0  0  0  0  0
   -0.2667    0.8444   -0.6219 C   0  0  0  0  0  0  0  0  0  0  0  0
   -1.2375    1.5783   -0.8018 O   0  0  0  0  0  0  0  0  0  0  0  0
    0.8077    0.8707   -1.4207 N   0  0  0  0  0  0  0  0  0  0  0  0
    1.5700    0.2480   -1.2045 H   0  0  0  0  0  0  0  0  0  0  0  0
    0.9415    1.7446   -2.5846 C   0  0  0  0  0  0  0  0  0  0  0  0
    0.7483    2.7793   -2.2926 H   0  0  0  0  0  0  0  0  0  0  0  0
    1.9476    1.6710   -2.9998 H   0  0  0  0  0  0  0  0  0  0  0  0
    0.2129    1.4575   -3.3452 H   0  0  0  0  0  0  0  0  0  0  0  0
  5  6  2  0  0  0  0
  5  7  1  0  0  0  0
  2  3  1  0  0  0  0
  2  4  1  0  0  0  0
  2  5  1  0  0  0  0
  1  2  1  0  0  0  0
 24 25  2  0  0  0  0
 24 26  1  0  0  0  0
 20 21  1  0  0  0  0
 20 22  1  0  0  0  0
 20 23  1  0  0  0  0
 17 18  1  0  0  0  0
 17 19  1  0  0  0  0
 17 20  1  0  0  0  0
 13 14  1  0  0  0  0
 13 15  1  0  0  0  0
 13 16  1  0  0  0  0
 11 12  1  0  0  0  0
 11 13  1  0  0  0  0
 11 17  1  0  0  0  0
  9 10  1  0  0  0  0
  9 11  1  0  0  0  0
  9 24  1  0  0  0  0
  7  8  1  0  0  0  0
  7  9  1  0  0  0  0
 28 29  1  0  0  0  0
 28 30  1  0  0  0  0
 28 31  1  0  0  0  0
 26 27  1  0  0  0  0
 26 28  1  0  0  0  0
M  END
$$$$
default_name
  -OEChem-01062215323D

 31 30  0     1  0  0  0  0  0999 V2000
   -3.0760   -3.6390    1.5496 H   0  0  0  0  0  0  0  0  0  0  0  0
   -3.0940   -2.6290    1.1426 C   0  0  0  0  0  0  0  0  0  0  0  0
   -3.7160   -1.9930    1.7706 H   0  0  0  0  0  0  0  0  0  0  0  0
   -3.4880   -2.6500    0.1286 H   0  0  0  0  0  0  0  0  0  0  0  0
   -1.6860   -2.0850    1.1196 C   0  0  0  0  0  0  0  0  0  0  0  0
   -0.7540   -2.7700    1.5226 O   0  0  0  0  0  0  0  0  0  0  0  0
   -1.5320   -0.8490    0.6496 N   0  0  0  0  0  0  0  0  0  0  0  0
   -2.3500   -0.3360    0.3566 H   0  0  0  0  0  0  0  0  0  0  0  0
   -0.2470   -0.1410    0.5576 C   0  0  1  0  0  0  0  0  0  0  0  0
   -0.1272    0.4432    1.4706 H   0  0  0  0  0  0  0  0  0  0  0  0
    0.9221   -1.1561    0.4860 C   0  0  1  0  0  0  0  0  0  0  0  0
    0.7064   -1.8373   -0.3393 H   0  0  0  0  0  0  0  0  0  0  0  0
    2.2736   -0.4772    0.1924 C   0  0  0  0  0  0  0  0  0  0  0  0
    2.5724    0.1601    1.0266 H   0  0  0  0  0  0  0  0  0  0  0  0
    3.0448   -1.2271    0.0236 H   0  0  0  0  0  0  0  0  0  0  0  0
    2.2005    0.1335   -0.7082 H   0  0  0  0  0  0  0  0  0  0  0  0
    0.9990   -2.0045    1.7751 C   0  0  0  0  0  0  0  0  0  0  0  0
    1.3136   -1.3807    2.6129 H   0  0  0  0  0  0  0  0  0  0  0  0
    0.0068   -2.3982    1.9955 H   0  0  0  0  0  0  0  0  0  0  0  0
    1.9536   -3.2015    1.6703 C   0  0  0  0  0  0  0  0  0  0  0  0
    2.9826   -2.8611    1.5559 H   0  0  0  0  0  0  0  0  0  0  0  0
    1.8847   -3.7971    2.5808 H   0  0  0  0  0  0  0  0  0  0  0  0
    1.6790   -3.8242    0.8181 H   0  0  0  0  0  0  0  0  0  0  0  0
   -0.2667    0.8444   -0.6219 C   0  0  0  0  0  0  0  0  0  0  0  0
   -1.0888    1.7591   -0.6533 O   0  0  0  0  0  0  0  0  0  0  0  0
    0.6435    0.6672   -1.5880 N   0  0  0  0  0  0  0  0  0  0  0  0
    1.2923   -0.0975   -1.4885 H   0  0  0  0  0  0  0  0  0  0  0  0
    0.7525    1.5127   -2.7752 C   0  0  0  0  0  0  0  0  0  0  0  0
    0.8197    2.5610   -2.4761 H   0  0  0  0  0  0  0  0  0  0  0  0
    1.6408    1.2459   -3.3498 H   0  0  0  0  0  0  0  0  0  0  0  0
   -0.1346    1.3864   -3.3987 H   0  0  0  0  0  0  0  0  0  0  0  0
  5  6  2  0  0  0  0
  5  7  1  0  0  0  0
  2  3  1  0  0  0  0
  2  4  1  0  0  0  0
  2  5  1  0  0  0  0
  1  2  1  0  0  0  0
 24 25  2  0  0  0  0
 24 26  1  0  0  0  0
 20 21  1  0  0  0  0
 20 22  1  0  0  0  0
 20 23  1  0  0  0  0
 17 18  1  0  0  0  0
 17 19  1  0  0  0  0
 17 20  1  0  0  0  0
 13 14  1  0  0  0  0
 13 15  1  0  0  0  0
 13 16  1  0  0  0  0
 11 12  1  0  0  0  0
 11 13  1  0  0  0  0
 11 17  1  0  0  0  0
  9 10  1  0  0  0  0
  9 11  1  0  0  0  0
  9 24  1  0  0  0  0
  7  8  1  0  0  0  0
  7  9  1  0  0  0  0
 28 29  1  0  0  0  0
 28 30  1  0  0  0  0
 28 31  1  0  0  0  0
 26 27  1  0  0  0  0
 26 28  1  0  0  0  0
M  END
$$$$
default_name
  -OEChem-01062215323D

 31 30  0     1  0  0  0  0  0999 V2000
   -3.0760   -3.6390    1.5496 H   0  0  0  0  0  0  0  0  0  0  0  0
   -3.0940   -2.6290    1.1426 C   0  0  0  0  0  0  0  0  0  0  0  0
   -3.7160   -1.9930    1.7706 H   0  0  0  0  0  0  0  0  0  0  0  0
   -3.4880   -2.6500    0.1286 H   0  0  0  0  0  0  0  0  0  0  0  0
   -1.6860   -2.0850    1.1196 C   0  0  0  0  0  0  0  0  0  0  0  0
   -0.7540   -2.7700    1.5226 O   0  0  0  0  0  0  0  0  0  0  0  0
   -1.5320   -0.8490    0.6496 N   0  0  0  0  0  0  0  0  0  0  0  0
   -2.3500   -0.3360    0.3566 H   0  0  0  0  0  0  0  0  0  0  0  0
   -0.2470   -0.1410    0.5576 C   0  0  1  0  0  0  0  0  0  0  0  0
   -0.1272    0.4432    1.4706 H   0  0  0  0  0  0  0  0  0  0  0  0
    0.9221   -1.1561    0.4860 C   0  0  1  0  0  0  0  0  0  0  0  0
    0.7064   -1.8373   -0.3393 H   0  0  0  0  0  0  0  0  0  0  0  0
    2.2736   -0.4772    0.1924 C   0  0  0  0  0  0  0  0  0  0  0  0
    2.5724    0.1601    1.0266 H   0  0  0  0  0  0  0  0  0  0  0  0
    3.0448   -1.2271    0.0236 H   0  0  0  0  0  0  0  0  0  0  0  0
    2.2005    0.1335   -0.7082 H   0  0  0  0  0  0  0  0  0  0  0  0
    0.9990   -2.0045    1.7751 C   0  0  0  0  0  0  0  0  0  0  0  0
    1.3136   -1.3807    2.6129 H   0  0  0  0  0  0  0  0  0  0  0  0
    0.0068   -2.3982    1.9955 H   0  0  0  0  0  0  0  0  0  0  0  0
    1.9536   -3.2015    1.6703 C   0  0  0  0  0  0  0  0  0  0  0  0
    2.9826   -2.8611    1.5559 H   0  0  0  0  0  0  0  0  0  0  0  0
    1.8847   -3.7971    2.5808 H   0  0  0  0  0  0  0  0  0  0  0  0
    1.6790   -3.8242    0.8181 H   0  0  0  0  0  0  0  0  0  0  0  0
   -0.2667    0.8444   -0.6219 C   0  0  0  0  0  0  0  0  0  0  0  0
   -0.8846    1.9047   -0.5351 O   0  0  0  0  0  0  0  0  0  0  0  0
    0.4167    0.5027   -1.7216 N   0  0  0  0  0  0  0  0  0  0  0  0
    0.9083   -0.3770   -1.7156 H   0  0  0  0  0  0  0  0  0  0  0  0
    0.4923    1.3255   -2.9272 C   0  0  0  0  0  0  0  0  0  0  0  0
    0.8149    2.3354   -2.6645 H   0  0  0  0  0  0  0  0  0  0  0  0
    1.2019    0.8952   -3.6355 H   0  0  0  0  0  0  0  0  0  0  0  0
   -0.4933    1.3866   -3.3926 H   0  0  0  0  0  0  0  0  0  0  0  0
  5  6  2  0  0  0  0
  5  7  1  0  0  0  0
  2  3  1  0  0  0  0
  2  4  1  0  0  0  0
  2  5  1  0  0  0  0
  1  2  1  0  0  0  0
 24 25  2  0  0  0  0
 24 26  1  0  0  0  0
 20 21  1  0  0  0  0
 20 22  1  0  0  0  0
 20 23  1  0  0  0  0
 17 18  1  0  0  0  0
 17 19  1  0  0  0  0
 17 20  1  0  0  0  0
 13 14  1  0  0  0  0
 13 15  1  0  0  0  0
 13 16  1  0  0  0  0
 11 12  1  0  0  0  0
 11 13  1  0  0  0  0
 11 17  1  0  0  0  0
  9 10  1  0  0  0  0
  9 11  1  0  0  0  0
  9 24  1  0  0  0  0
  7  8  1  0  0  0  0
  7  9  1  0  0  0  0
 28 29  1  0  0  0  0
 28 30  1  0  0  0  0
 28 31  1  0  0  0  0
 26 27  1  0  0  0  0
 26 28  1  0  0  0  0
M  END
$$$$
default_name
  -OEChem-01062215323D

 31 30  0     1  0  0  0  0  0999 V2000
   -3.0760   -3.6390    1.5496 H   0  0  0  0  0  0  0  0  0  0  0  0
   -3.0940   -2.6290    1.1426 C   0  0  0  0  0  0  0  0  0  0  0  0
   -3.7160   -1.9930    1.7706 H   0  0  0  0  0  0  0  0  0  0  0  0
   -3.4880   -2.6500    0.1286 H   0  0  0  0  0  0  0  0  0  0  0  0
   -1.6860   -2.0850    1.1196 C   0  0  0  0  0  0  0  0  0  0  0  0
   -0.7540   -2.7700    1.5226 O   0  0  0  0  0  0  0  0  0  0  0  0
   -1.5320   -0.8490    0.6496 N   0  0  0  0  0  0  0  0  0  0  0  0
   -2.3500   -0.3360    0.3566 H   0  0  0  0  0  0  0  0  0  0  0  0
   -0.2470   -0.1410    0.5576 C   0  0  1  0  0  0  0  0  0  0  0  0
   -0.1272    0.4432    1.4706 H   0  0  0  0  0  0  0  0  0  0  0  0
    0.9221   -1.1561    0.4860 C   0  0  1  0  0  0  0  0  0  0  0  0
    0.7064   -1.8373   -0.3393 H   0  0  0  0  0  0  0  0  0  0  0  0
    2.2736   -0.4772    0.1924 C   0  0  0  0  0  0  0  0  0  0  0  0
    2.5724    0.1601    1.0266 H   0  0  0  0  0  0  0  0  0  0  0  0
    3.0448   -1.2271    0.0236 H   0  0  0  0  0  0  0  0  0  0  0  0
    2.2005    0.1335   -0.7082 H   0  0  0  0  0  0  0  0  0  0  0  0
    0.9990   -2.0045    1.7751 C   0  0  0  0  0  0  0  0  0  0  0  0
    1.3136   -1.3807    2.6129 H   0  0  0  0  0  0  0  0  0  0  0  0
    0.0068   -2.3982    1.9955 H   0  0  0  0  0  0  0  0  0  0  0  0
    1.9536   -3.2015    1.6703 C   0  0  0  0  0  0  0  0  0  0  0  0
    2.9826   -2.8611    1.5559 H   0  0  0  0  0  0  0  0  0  0  0  0
    1.8847   -3.7971    2.5808 H   0  0  0  0  0  0  0  0  0  0  0  0
    1.6790   -3.8242    0.8181 H   0  0  0  0  0  0  0  0  0  0  0  0
   -0.2667    0.8444   -0.6219 C   0  0  0  0  0  0  0  0  0  0  0  0
   -0.6388    2.0051   -0.4553 O   0  0  0  0  0  0  0  0  0  0  0  0
    0.1428    0.3884   -1.8125 N   0  0  0  0  0  0  0  0  0  0  0  0
    0.4442   -0.5715   -1.8703 H   0  0  0  0  0  0  0  0  0  0  0  0
    0.1786    1.1958   -3.0303 C   0  0  0  0  0  0  0  0  0  0  0  0
    0.7341    2.1178   -2.8449 H   0  0  0  0  0  0  0  0  0  0  0  0
    0.6609    0.6426   -3.8375 H   0  0  0  0  0  0  0  0  0  0  0  0
   -0.8387    1.4580   -3.3272 H   0  0  0  0  0  0  0  0  0  0  0  0
  5  6  2  0  0  0  0
  5  7  1  0  0  0  0
  2  3  1  0  0  0  0
  2  4  1  0  0  0  0
  2  5  1  0  0  0  0
  1  2  1  0  0  0  0
 24 25  2  0  0  0  0
 24 26  1  0  0  0  0
 20 21  1  0  0  0  0
 20 22  1  0  0  0  0
 20 23  1  0  0  0  0
 17 18  1  0  0  0  0
 17 19  1  0  0  0  0
 17 20  1  0  0  0  0
 13 14  1  0  0  0  0
 13 15  1  0  0  0  0
 13 16  1  0  0  0  0
 11 12  1  0  0  0  0
 11 13  1  0  0  0  0
 11 17  1  0  0  0  0
  9 10  1  0  0  0  0
  9 11  1  0  0  0  0
  9 24  1  0  0  0  0
  7  8  1  0  0  0  0
  7  9  1  0  0  0  0
 28 29  1  0  0  0  0
 28 30  1  0  0  0  0
 28 31  1  0  0  0  0
 26 27  1  0  0  0  0
 26 28  1  0  0  0  0
M  END
$$$$
default_name
  -OEChem-01062215323D

 31 30  0     1  0  0  0  0  0999 V2000
   -3.0760   -3.6390    1.5496 H   0  0  0  0  0  0  0  0  0  0  0  0
   -3.0940   -2.6290    1.1426 C   0  0  0  0  0  0  0  0  0  0  0  0
   -3.7160   -1.9930    1.7706 H   0  0  0  0  0  0  0  0  0  0  0  0
   -3.4880   -2.6500    0.1286 H   0  0  0  0  0  0  0  0  0  0  0  0
   -1.6860   -2.0850    1.1196 C   0  0  0  0  0  0  0  0  0  0  0  0
   -0.7540   -2.7700    1.5226 O   0  0  0  0  0  0  0  0  0  0  0  0
   -1.5320   -0.8490    0.6496 N   0  0  0  0  0  0  0  0  0  0  0  0
   -2.3500   -0.3360    0.3566 H   0  0  0  0  0  0  0  0  0  0  0  0
   -0.2470   -0.1410    0.5576 C   0  0  1  0  0  0  0  0  0  0  0  0
   -0.1272    0.4432    1.4706 H   0  0  0  0  0  0  0  0  0  0  0  0
    0.9221   -1.1561    0.4860 C   0  0  1  0  0  0  0  0  0  0  0  0
    0.7064   -1.8373   -0.3393 H   0  0  0  0  0  0  0  0  0  0  0  0
    2.2736   -0.4772    0.1924 C   0  0  0  0  0  0  0  0  0  0  0  0
    2.5724    0.1601    1.0266 H   0  0  0  0  0  0  0  0  0  0  0  0
    3.0448   -1.2271    0.0236 H   0  0  0  0  0  0  0  0  0  0  0  0
    2.2005    0.1335   -0.7082 H   0  0  0  0  0  0  0  0  0  0  0  0
    0.9990   -2.0045    1.7751 C   0  0  0  0  0  0  0  0  0  0  0  0
    1.3136   -1.3807    2.6129 H   0  0  0  0  0  0  0  0  0  0  0  0
    0.0068   -2.3982    1.9955 H   0  0  0  0  0  0  0  0  0  0  0  0
    1.9536   -3.2015    1.6703 C   0  0  0  0  0  0  0  0  0  0  0  0
    2.9826   -2.8611    1.5559 H   0  0  0  0  0  0  0  0  0  0  0  0
    1.8847   -3.7971    2.5808 H   0  0  0  0  0  0  0  0  0  0  0  0
    1.6790   -3.8242    0.8181 H   0  0  0  0  0  0  0  0  0  0  0  0
   -0.2667    0.8444   -0.6219 C   0  0  0  0  0  0  0  0  0  0  0  0
   -0.3682    2.0535   -0.4193 O   0  0  0  0  0  0  0  0  0  0  0  0
   -0.1595    0.3321   -1.8545 N   0  0  0  0  0  0  0  0  0  0  0  0
   -0.0684   -0.6677   -1.9421 H   0  0  0  0  0  0  0  0  0  0  0  0
   -0.1673    1.1326   -3.0774 C   0  0  0  0  0  0  0  0  0  0  0  0
    0.5830    1.9231   -3.0051 H   0  0  0  0  0  0  0  0  0  0  0  0
    0.0546    0.5054   -3.9420 H   0  0  0  0  0  0  0  0  0  0  0  0
   -1.1473    1.5958   -3.2069 H   0  0  0  0  0  0  0  0  0  0  0  0
  5  6  2  0  0  0  0
  5  7  1  0  0  0  0
  2  3  1  0  0  0  0
  2  4  1  0  0  0  0
  2  5  1  0  0  0  0
  1  2  1  0  0  0  0
 24 25  2  0  0  0  0
 24 26  1  0  0  0  0
 20 21  1  0  0  0  0
 20 22  1  0  0  0  0
 20 23  1  0  0  0  0
 17 18  1  0  0  0  0
 17 19  1  0  0  0  0
 17 20  1  0  0  0  0
 13 14  1  0  0  0  0
 13 15  1  0  0  0  0
 13 16  1  0  0  0  0
 11 12  1  0  0  0  0
 11 13  1  0  0  0  0
 11 17  1  0  0  0  0
  9 10  1  0  0  0  0
  9 11  1  0  0  0  0
  9 24  1  0  0  0  0
  7  8  1  0  0  0  0
  7  9  1  0  0  0  0
 28 29  1  0  0  0  0
 28 30  1  0  0  0  0
 28 31  1  0  0  0  0
 26 27  1  0  0  0  0
 26 28  1  0  0  0  0
M  END
$$$$
default_name
  -OEChem-01062215323D

 31 30  0     1  0  0  0  0  0999 V2000
   -3.0760   -3.6390    1.5496 H   0  0  0  0  0  0  0  0  0  0  0  0
   -3.0940   -2.6290    1.1426 C   0  0  0  0  0  0  0  0  0  0  0  0
   -3.7160   -1.9930    1.7706 H   0  0  0  0  0  0  0  0  0  0  0  0
   -3.4880   -2.6500    0.1286 H   0  0  0  0  0  0  0  0  0  0  0  0
   -1.6860   -2.0850    1.1196 C   0  0  0  0  0  0  0  0  0  0  0  0
   -0.7540   -2.7700    1.5226 O   0  0  0  0  0  0  0  0  0  0  0  0
   -1.5320   -0.8490    0.6496 N   0  0  0  0  0  0  0  0  0  0  0  0
   -2.3500   -0.3360    0.3566 H   0  0  0  0  0  0  0  0  0  0  0  0
   -0.2470   -0.1410    0.5576 C   0  0  1  0  0  0  0  0  0  0  0  0
   -0.1272    0.4432    1.4706 H   0  0  0  0  0  0  0  0  0  0  0  0
    0.9221   -1.1561    0.4860 C   0  0  1  0  0  0  0  0  0  0  0  0
    0.7064   -1.8373   -0.3393 H   0  0  0  0  0  0  0  0  0  0  0  0
    2.2736   -0.4772    0.1924 C   0  0  0  0  0  0  0  0  0  0  0  0
    2.5724    0.1601    1.0266 H   0  0  0  0  0  0  0  0  0  0  0  0
    3.0448   -1.2271    0.0236 H   0  0  0  0  0  0  0  0  0  0  0  0
    2.2005    0.1335   -0.7082 H   0  0  0  0  0  0  0  0  0  0  0  0
    0.9990   -2.0045    1.7751 C   0  0  0  0  0  0  0  0  0  0  0  0
    1.3136   -1.3807    2.6129 H   0  0  0  0  0  0  0  0  0  0  0  0
    0.0068   -2.3982    1.9955 H   0  0  0  0  0  0  0  0  0  0  0  0
    1.9536   -3.2015    1.6703 C   0  0  0  0  0  0  0  0  0  0  0  0
    2.9826   -2.8611    1.5559 H   0  0  0  0  0  0  0  0  0  0  0  0
    1.8847   -3.7971    2.5808 H   0  0  0  0  0  0  0  0  0  0  0  0
    1.6790   -3.8242    0.8181 H   0  0  0  0  0  0  0  0  0  0  0  0
   -0.2667    0.8444   -0.6219 C   0  0  0  0  0  0  0  0  0  0  0  0
   -0.0913    2.0467   -0.4296 O   0  0  0  0  0  0  0  0  0  0  0  0
   -0.4697    0.3376   -1.8447 N   0  0  0  0  0  0  0  0  0  0  0  0
   -0.5946   -0.6591   -1.9261 H   0  0  0  0  0  0  0  0  0  0  0  0
   -0.5218    1.1400   -3.0652 C   0  0  0  0  0  0  0  0  0  0  0  0
    0.3717    1.7645   -3.1341 H   0  0  0  0  0  0  0  0  0  0  0  0
   -0.5756    0.4929   -3.9419 H   0  0  0  0  0  0  0  0  0  0  0  0
   -1.3980    1.7906   -3.0399 H   0  0  0  0  0  0  0  0  0  0  0  0
  5  6  2  0  0  0  0
  5  7  1  0  0  0  0
  2  3  1  0  0  0  0
  2  4  1  0  0  0  0
  2  5  1  0  0  0  0
  1  2  1  0  0  0  0
 24 25  2  0  0  0  0
 24 26  1  0  0  0  0
 20 21  1  0  0  0  0
 20 22  1  0  0  0  0
 20 23  1  0  0  0  0
 17 18  1  0  0  0  0
 17 19  1  0  0  0  0
 17 20  1  0  0  0  0
 13 14  1  0  0  0  0
 13 15  1  0  0  0  0
 13 16  1  0  0  0  0
 11 12  1  0  0  0  0
 11 13  1  0  0  0  0
 11 17  1  0  0  0  0
  9 10  1  0  0  0  0
  9 11  1  0  0  0  0
  9 24  1  0  0  0  0
  7  8  1  0  0  0  0
  7  9  1  0  0  0  0
 28 29  1  0  0  0  0
 28 30  1  0  0  0  0
 28 31  1  0  0  0  0
 26 27  1  0  0  0  0
 26 28  1  0  0  0  0
M  END
$$$$
default_name
  -OEChem-01062215323D

 31 30  0     1  0  0  0  0  0999 V2000
   -3.0760   -3.6390    1.5496 H   0  0  0  0  0  0  0  0  0  0  0  0
   -3.0940   -2.6290    1.1426 C   0  0  0  0  0  0  0  0  0  0  0  0
   -3.7160   -1.9930    1.7706 H   0  0  0  0  0  0  0  0  0  0  0  0
   -3.4880   -2.6500    0.1286 H   0  0  0  0  0  0  0  0  0  0  0  0
   -1.6860   -2.0850    1.1196 C   0  0  0  0  0  0  0  0  0  0  0  0
   -0.7540   -2.7700    1.5226 O   0  0  0  0  0  0  0  0  0  0  0  0
   -1.5320   -0.8490    0.6496 N   0  0  0  0  0  0  0  0  0  0  0  0
   -2.3500   -0.3360    0.3566 H   0  0  0  0  0  0  0  0  0  0  0  0
   -0.2470   -0.1410    0.5576 C   0  0  1  0  0  0  0  0  0  0  0  0
   -0.1272    0.4432    1.4706 H   0  0  0  0  0  0  0  0  0  0  0  0
    0.9221   -1.1561    0.4860 C   0  0  1  0  0  0  0  0  0  0  0  0
    0.7064   -1.8373   -0.3393 H   0  0  0  0  0  0  0  0  0  0  0  0
    2.2736   -0.4772    0.1924 C   0  0  0  0  0  0  0  0  0  0  0  0
    2.5724    0.1601    1.0266 H   0  0  0  0  0  0  0  0  0  0  0  0
    3.0448   -1.2271    0.0236 H   0  0  0  0  0  0  0  0  0  0  0  0
    2.2005    0.1335   -0.7082 H   0  0  0  0  0  0  0  0  0  0  0  0
    0.9990   -2.0045    1.7751 C   0  0  0  0  0  0  0  0  0  0  0  0
    1.3136   -1.3807    2.6129 H   0  0  0  0  0  0  0  0  0  0  0  0
    0.0068   -2.3982    1.9955 H   0  0  0  0  0  0  0  0  0  0  0  0
    1.9536   -3.2015    1.6703 C   0  0  0  0  0  0  0  0  0  0  0  0
    2.9826   -2.8611    1.5559 H   0  0  0  0  0  0  0  0  0  0  0  0
    1.8847   -3.7971    2.5808 H   0  0  0  0  0  0  0  0  0  0  0  0
    1.6790   -3.8242    0.8181 H   0  0  0  0  0  0  0  0  0  0  0  0
   -0.2667    0.8444   -0.6219 C   0  0  0  0  0  0  0  0  0  0  0  0
    0.1732    1.9851   -0.4855 O   0  0  0  0  0  0  0  0  0  0  0  0
   -0.7666    0.4046   -1.7837 N   0  0  0  0  0  0  0  0  0  0  0  0
   -1.0984   -0.5461   -1.8234 H   0  0  0  0  0  0  0  0  0  0  0  0
   -0.8607    1.2177   -2.9947 C   0  0  0  0  0  0  0  0  0  0  0  0
    0.1148    1.6528   -3.2231 H   0  0  0  0  0  0  0  0  0  0  0  0
   -1.1867    0.6060   -3.8372 H   0  0  0  0  0  0  0  0  0  0  0  0
   -1.5738    2.0291   -2.8377 H   0  0  0  0  0  0  0  0  0  0  0  0
  5  6  2  0  0  0  0
  5  7  1  0  0  0  0
  2  3  1  0  0  0  0
  2  4  1  0  0  0  0
  2  5  1  0  0  0  0
  1  2  1  0  0  0  0
 24 25  2  0  0  0  0
 24 26  1  0  0  0  0
 20 21  1  0  0  0  0
 20 22  1  0  0  0  0
 20 23  1  0  0  0  0
 17 18  1  0  0  0  0
 17 19  1  0  0  0  0
 17 20  1  0  0  0  0
 13 14  1  0  0  0  0
 13 15  1  0  0  0  0
 13 16  1  0  0  0  0
 11 12  1  0  0  0  0
 11 13  1  0  0  0  0
 11 17  1  0  0  0  0
  9 10  1  0  0  0  0
  9 11  1  0  0  0  0
  9 24  1  0  0  0  0
  7  8  1  0  0  0  0
  7  9  1  0  0  0  0
 28 29  1  0  0  0  0
 28 30  1  0  0  0  0
 28 31  1  0  0  0  0
 26 27  1  0  0  0  0
 26 28  1  0  0  0  0
M  END
$$$$
default_name
  -OEChem-01062215323D

 31 30  0     1  0  0  0  0  0999 V2000
   -3.0760   -3.6390    1.5496 H   0  0  0  0  0  0  0  0  0  0  0  0
   -3.0940   -2.6290    1.1426 C   0  0  0  0  0  0  0  0  0  0  0  0
   -3.7160   -1.9930    1.7706 H   0  0  0  0  0  0  0  0  0  0  0  0
   -3.4880   -2.6500    0.1286 H   0  0  0  0  0  0  0  0  0  0  0  0
   -1.6860   -2.0850    1.1196 C   0  0  0  0  0  0  0  0  0  0  0  0
   -0.7540   -2.7700    1.5226 O   0  0  0  0  0  0  0  0  0  0  0  0
   -1.5320   -0.8490    0.6496 N   0  0  0  0  0  0  0  0  0  0  0  0
   -2.3500   -0.3360    0.3566 H   0  0  0  0  0  0  0  0  0  0  0  0
   -0.2470   -0.1410    0.5576 C   0  0  1  0  0  0  0  0  0  0  0  0
   -0.1272    0.4432    1.4706 H   0  0  0  0  0  0  0  0  0  0  0  0
    0.9221   -1.1561    0.4860 C   0  0  1  0  0  0  0  0  0  0  0  0
    0.7064   -1.8373   -0.3393 H   0  0  0  0  0  0  0  0  0  0  0  0
    2.2736   -0.4772    0.1924 C   0  0  0  0  0  0  0  0  0  0  0  0
    2.5724    0.1601    1.0266 H   0  0  0  0  0  0  0  0  0  0  0  0
    3.0448   -1.2271    0.0236 H   0  0  0  0  0  0  0  0  0  0  0  0
    2.2005    0.1335   -0.7082 H   0  0  0  0  0  0  0  0  0  0  0  0
    0.9990   -2.0045    1.7751 C   0  0  0  0  0  0  0  0  0  0  0  0
    1.3136   -1.3807    2.6129 H   0  0  0  0  0  0  0  0  0  0  0  0
    0.0068   -2.3982    1.9955 H   0  0  0  0  0  0  0  0  0  0  0  0
    1.9536   -3.2015    1.6703 C   0  0  0  0  0  0  0  0  0  0  0  0
    2.9826   -2.8611    1.5559 H   0  0  0  0  0  0  0  0  0  0  0  0
    1.8847   -3.7971    2.5808 H   0  0  0  0  0  0  0  0  0  0  0  0
    1.6790   -3.8242    0.8181 H   0  0  0  0  0  0  0  0  0  0  0  0
   -0.2667    0.8444   -0.6219 C   0  0  0  0  0  0  0  0  0  0  0  0
    0.4071    1.8729   -0.5832 O   0  0  0  0  0  0  0  0  0  0  0  0
   -1.0300    0.5285   -1.6759 N   0  0  0  0  0  0  0  0  0  0  0  0
   -1.5456   -0.3367   -1.6409 H   0  0  0  0  0  0  0  0  0  0  0  0
   -1.1609    1.3602   -2.8706 C   0  0  0  0  0  0  0  0  0  0  0  0
   -0.1704    1.5957   -3.2661 H   0  0  0  0  0  0  0  0  0  0  0  0
   -1.7372    0.8370   -3.6350 H   0  0  0  0  0  0  0  0  0  0  0  0
   -1.6628    2.2951   -2.6141 H   0  0  0  0  0  0  0  0  0  0  0  0
  5  6  2  0  0  0  0
  5  7  1  0  0  0  0
  2  3  1  0  0  0  0
  2  4  1  0  0  0  0
  2  5  1  0  0  0  0
  1  2  1  0  0  0  0
 24 25  2  0  0  0  0
 24 26  1  0  0  0  0
 20 21  1  0  0  0  0
 20 22  1  0  0  0  0
 20 23  1  0  0  0  0
 17 18  1  0  0  0  0
 17 19  1  0  0  0  0
 17 20  1  0  0  0  0
 13 14  1  0  0  0  0
 13 15  1  0  0  0  0
 13 16  1  0  0  0  0
 11 12  1  0  0  0  0
 11 13  1  0  0  0  0
 11 17  1  0  0  0  0
  9 10  1  0  0  0  0
  9 11  1  0  0  0  0
  9 24  1  0  0  0  0
  7  8  1  0  0  0  0
  7  9  1  0  0  0  0
 28 29  1  0  0  0  0
 28 30  1  0  0  0  0
 28 31  1  0  0  0  0
 26 27  1  0  0  0  0
 26 28  1  0  0  0  0
M  END
$$$$
default_name
  -OEChem-01062215323D

 31 30  0     1  0  0  0  0  0999 V2000
   -3.0760   -3.6390    1.5496 H   0  0  0  0  0  0  0  0  0  0  0  0
   -3.0940   -2.6290    1.1426 C   0  0  0  0  0  0  0  0  0  0  0  0
   -3.7160   -1.9930    1.7706 H   0  0  0  0  0  0  0  0  0  0  0  0
   -3.4880   -2.6500    0.1286 H   0  0  0  0  0  0  0  0  0  0  0  0
   -1.6860   -2.0850    1.1196 C   0  0  0  0  0  0  0  0  0  0  0  0
   -0.7540   -2.7700    1.5226 O   0  0  0  0  0  0  0  0  0  0  0  0
   -1.5320   -0.8490    0.6496 N   0  0  0  0  0  0  0  0  0  0  0  0
   -2.3500   -0.3360    0.3566 H   0  0  0  0  0  0  0  0  0  0  0  0
   -0.2470   -0.1410    0.5576 C   0  0  1  0  0  0  0  0  0  0  0  0
   -0.1272    0.4432    1.4706 H   0  0  0  0  0  0  0  0  0  0  0  0
    0.9221   -1.1561    0.4860 C   0  0  1  0  0  0  0  0  0  0  0  0
    0.7064   -1.8373   -0.3393 H   0  0  0  0  0  0  0  0  0  0  0  0
    2.2736   -0.4772    0.1924 C   0  0  0  0  0  0  0  0  0  0  0  0
    2.5724    0.1601    1.0266 H   0  0  0  0  0  0  0  0  0  0  0  0
    3.0448   -1.2271    0.0236 H   0  0  0  0  0  0  0  0  0  0  0  0
    2.2005    0.1335   -0.7082 H   0  0  0  0  0  0  0  0  0  0  0  0
    0.9990   -2.0045    1.7751 C   0  0  0  0  0  0  0  0  0  0  0  0
    1.3136   -1.3807    2.6129 H   0  0  0  0  0  0  0  0  0  0  0  0
    0.0068   -2.3982    1.9955 H   0  0  0  0  0  0  0  0  0  0  0  0
    1.9536   -3.2015    1.6703 C   0  0  0  0  0  0  0  0  0  0  0  0
    2.9826   -2.8611    1.5559 H   0  0  0  0  0  0  0  0  0  0  0  0
    1.8847   -3.7971    2.5808 H   0  0  0  0  0  0  0  0  0  0  0  0
    1.6790   -3.8242    0.8181 H   0  0  0  0  0  0  0  0  0  0  0  0
   -0.2667    0.8444   -0.6219 C   0  0  0  0  0  0  0  0  0  0  0  0
    0.5946    1.7177   -0.7160 O   0  0  0  0  0  0  0  0  0  0  0  0
   -1.2418    0.7008   -1.5284 N   0  0  0  0  0  0  0  0  0  0  0  0
   -1.9057   -0.0449   -1.3912 H   0  0  0  0  0  0  0  0  0  0  0  0
   -1.4020    1.5579   -2.7014 C   0  0  0  0  0  0  0  0  0  0  0  0
   -0.4643    1.5970   -3.2601 H   0  0  0  0  0  0  0  0  0  0  0  0
   -2.1896    1.1701   -3.3491 H   0  0  0  0  0  0  0  0  0  0  0  0
   -1.6587    2.5704   -2.3841 H   0  0  0  0  0  0  0  0  0  0  0  0
  5  6  2  0  0  0  0
  5  7  1  0  0  0  0
  2  3  1  0  0  0  0
  2  4  1  0  0  0  0
  2  5  1  0  0  0  0
  1  2  1  0  0  0  0
 24 25  2  0  0  0  0
 24 26  1  0  0  0  0
 20 21  1  0  0  0  0
 20 22  1  0  0  0  0
 20 23  1  0  0  0  0
 17 18  1  0  0  0  0
 17 19  1  0  0  0  0
 17 20  1  0  0  0  0
 13 14  1  0  0  0  0
 13 15  1  0  0  0  0
 13 16  1  0  0  0  0
 11 12  1  0  0  0  0
 11 13  1  0  0  0  0
 11 17  1  0  0  0  0
  9 10  1  0  0  0  0
  9 11  1  0  0  0  0
  9 24  1  0  0  0  0
  7  8  1  0  0  0  0
  7  9  1  0  0  0  0
 28 29  1  0  0  0  0
 28 30  1  0  0  0  0
 28 31  1  0  0  0  0
 26 27  1  0  0  0  0
 26 28  1  0  0  0  0
M  END
$$$$
default_name
  -OEChem-01062215323D

 31 30  0     1  0  0  0  0  0999 V2000
   -3.0760   -3.6390    1.5496 H   0  0  0  0  0  0  0  0  0  0  0  0
   -3.0940   -2.6290    1.1426 C   0  0  0  0  0  0  0  0  0  0  0  0
   -3.7160   -1.9930    1.7706 H   0  0  0  0  0  0  0  0  0  0  0  0
   -3.4880   -2.6500    0.1286 H   0  0  0  0  0  0  0  0  0  0  0  0
   -1.6860   -2.0850    1.1196 C   0  0  0  0  0  0  0  0  0  0  0  0
   -0.7540   -2.7700    1.5226 O   0  0  0  0  0  0  0  0  0  0  0  0
   -1.5320   -0.8490    0.6496 N   0  0  0  0  0  0  0  0  0  0  0  0
   -2.3500   -0.3360    0.3566 H   0  0  0  0  0  0  0  0  0  0  0  0
   -0.2470   -0.1410    0.5576 C   0  0  1  0  0  0  0  0  0  0  0  0
   -0.1272    0.4432    1.4706 H   0  0  0  0  0  0  0  0  0  0  0  0
    0.9221   -1.1561    0.4860 C   0  0  1  0  0  0  0  0  0  0  0  0
    0.7064   -1.8373   -0.3393 H   0  0  0  0  0  0  0  0  0  0  0  0
    2.2736   -0.4772    0.1924 C   0  0  0  0  0  0  0  0  0  0  0  0
    2.5724    0.1601    1.0266 H   0  0  0  0  0  0  0  0  0  0  0  0
    3.0448   -1.2271    0.0236 H   0  0  0  0  0  0  0  0  0  0  0  0
    2.2005    0.1335   -0.7082 H   0  0  0  0  0  0  0  0  0  0  0  0
    0.9990   -2.0045    1.7751 C   0  0  0  0  0  0  0  0  0  0  0  0
    1.3136   -1.3807    2.6129 H   0  0  0  0  0  0  0  0  0  0  0  0
    0.0068   -2.3982    1.9955 H   0  0  0  0  0  0  0  0  0  0  0  0
    1.9536   -3.2015    1.6703 C   0  0  0  0  0  0  0  0  0  0  0  0
    2.9826   -2.8611    1.5559 H   0  0  0  0  0  0  0  0  0  0  0  0
    1.8847   -3.7971    2.5808 H   0  0  0  0  0  0  0  0  0  0  0  0
    1.6790   -3.8242    0.8181 H   0  0  0  0  0  0  0  0  0  0  0  0
   -0.2667    0.8444   -0.6219 C   0  0  0  0  0  0  0  0  0  0  0  0
    0.7228    1.5301   -0.8748 O   0  0  0  0  0  0  0  0  0  0  0  0
   -1.3878    0.9098   -1.3513 N   0  0  0  0  0  0  0  0  0  0  0  0
   -2.1542    0.3093   -1.0911 H   0  0  0  0  0  0  0  0  0  0  0  0
   -1.5676    1.7973   -2.4986 C   0  0  0  0  0  0  0  0  0  0  0  0
   -0.7469    1.6566   -3.2055 H   0  0  0  0  0  0  0  0  0  0  0  0
   -2.5129    1.5827   -2.9991 H   0  0  0  0  0  0  0  0  0  0  0  0
   -1.5619    2.8363   -2.1636 H   0  0  0  0  0  0  0  0  0  0  0  0
  5  6  2  0  0  0  0
  5  7  1  0  0  0  0
  2  3  1  0  0  0  0
  2  4  1  0  0  0  0
  2  5  1  0  0  0  0
  1  2  1  0  0  0  0
 24 25  2  0  0  0  0
 24 26  1  0  0  0  0
 20 21  1  0  0  0  0
 20 22  1  0  0  0  0
 20 23  1  0  0  0  0
 17 18  1  0  0  0  0
 17 19  1  0  0  0  0
 17 20  1  0  0  0  0
 13 14  1  0  0  0  0
 13 15  1  0  0  0  0
 13 16  1  0  0  0  0
 11 12  1  0  0  0  0
 11 13  1  0  0  0  0
 11 17  1  0  0  0  0
  9 10  1  0  0  0  0
  9 11  1  0  0  0  0
  9 24  1  0  0  0  0
  7  8  1  0  0  0  0
  7  9  1  0  0  0  0
 28 29  1  0  0  0  0
 28 30  1  0  0  0  0
 28 31  1  0  0  0  0
 26 27  1  0  0  0  0
 26 28  1  0  0  0  0
M  END
$$$$
default_name
  -OEChem-01062215323D

 31 30  0     1  0  0  0  0  0999 V2000
   -3.0760   -3.6390    1.5496 H   0  0  0  0  0  0  0  0  0  0  0  0
   -3.0940   -2.6290    1.1426 C   0  0  0  0  0  0  0  0  0  0  0  0
   -3.7160   -1.9930    1.7706 H   0  0  0  0  0  0  0  0  0  0  0  0
   -3.4880   -2.6500    0.1286 H   0  0  0  0  0  0  0  0  0  0  0  0
   -1.6860   -2.0850    1.1196 C   0  0  0  0  0  0  0  0  0  0  0  0
   -0.7540   -2.7700    1.5226 O   0  0  0  0  0  0  0  0  0  0  0  0
   -1.5320   -0.8490    0.6496 N   0  0  0  0  0  0  0  0  0  0  0  0
   -2.3500   -0.3360    0.3566 H   0  0  0  0  0  0  0  0  0  0  0  0
   -0.2470   -0.1410    0.5576 C   0  0  1  0  0  0  0  0  0  0  0  0
   -0.1272    0.4432    1.4706 H   0  0  0  0  0  0  0  0  0  0  0  0
    0.9221   -1.1561    0.4860 C   0  0  1  0  0  0  0  0  0  0  0  0
    0.7064   -1.8373   -0.3393 H   0  0  0  0  0  0  0  0  0  0  0  0
    2.2736   -0.4772    0.1924 C   0  0  0  0  0  0  0  0  0  0  0  0
    2.5724    0.1601    1.0266 H   0  0  0  0  0  0  0  0  0  0  0  0
    3.0448   -1.2271    0.0236 H   0  0  0  0  0  0  0  0  0  0  0  0
    2.2005    0.1335   -0.7082 H   0  0  0  0  0  0  0  0  0  0  0  0
    0.9990   -2.0045    1.7751 C   0  0  0  0  0  0  0  0  0  0  0  0
    1.3136   -1.3807    2.6129 H   0  0  0  0  0  0  0  0  0  0  0  0
    0.0068   -2.3982    1.9955 H   0  0  0  0  0  0  0  0  0  0  0  0
    1.9536   -3.2015    1.6703 C   0  0  0  0  0  0  0  0  0  0  0  0
    2.9826   -2.8611    1.5559 H   0  0  0  0  0  0  0  0  0  0  0  0
    1.8847   -3.7971    2.5808 H   0  0  0  0  0  0  0  0  0  0  0  0
    1.6790   -3.8242    0.8181 H   0  0  0  0  0  0  0  0  0  0  0  0
   -0.2667    0.8444   -0.6219 C   0  0  0  0  0  0  0  0  0  0  0  0
    0.7830    1.3230   -1.0489 O   0  0  0  0  0  0  0  0  0  0  0  0
   -1.4579    1.1413   -1.1568 N   0  0  0  0  0  0  0  0  0  0  0  0
   -2.2740    0.7017   -0.7613 H   0  0  0  0  0  0  0  0  0  0  0  0
   -1.6463    2.0622   -2.2761 C   0  0  0  0  0  0  0  0  0  0  0  0
   -0.9990    1.7705   -3.1061 H   0  0  0  0  0  0  0  0  0  0  0  0
   -2.6852    2.0465   -2.6087 H   0  0  0  0  0  0  0  0  0  0  0  0
   -1.3791    3.0747   -1.9675 H   0  0  0  0  0  0  0  0  0  0  0  0
  5  6  2  0  0  0  0
  5  7  1  0  0  0  0
  2  3  1  0  0  0  0
  2  4  1  0  0  0  0
  2  5  1  0  0  0  0
  1  2  1  0  0  0  0
 24 25  2  0  0  0  0
 24 26  1  0  0  0  0
 20 21  1  0  0  0  0
 20 22  1  0  0  0  0
 20 23  1  0  0  0  0
 17 18  1  0  0  0  0
 17 19  1  0  0  0  0
 17 20  1  0  0  0  0
 13 14  1  0  0  0  0
 13 15  1  0  0  0  0
 13 16  1  0  0  0  0
 11 12  1  0  0  0  0
 11 13  1  0  0  0  0
 11 17  1  0  0  0  0
  9 10  1  0  0  0  0
  9 11  1  0  0  0  0
  9 24  1  0  0  0  0
  7  8  1  0  0  0  0
  7  9  1  0  0  0  0
 28 29  1  0  0  0  0
 28 30  1  0  0  0  0
 28 31  1  0  0  0  0
 26 27  1  0  0  0  0
 26 28  1  0  0  0  0
M  END
$$$$
default_name
  -OEChem-01062215323D

 31 30  0     1  0  0  0  0  0999 V2000
   -3.0760   -3.6390    1.5496 H   0  0  0  0  0  0  0  0  0  0  0  0
   -3.0940   -2.6290    1.1426 C   0  0  0  0  0  0  0  0  0  0  0  0
   -3.7160   -1.9930    1.7706 H   0  0  0  0  0  0  0  0  0  0  0  0
   -3.4880   -2.6500    0.1286 H   0  0  0  0  0  0  0  0  0  0  0  0
   -1.6860   -2.0850    1.1196 C   0  0  0  0  0  0  0  0  0  0  0  0
   -0.7540   -2.7700    1.5226 O   0  0  0  0  0  0  0  0  0  0  0  0
   -1.5320   -0.8490    0.6496 N   0  0  0  0  0  0  0  0  0  0  0  0
   -2.3500   -0.3360    0.3566 H   0  0  0  0  0  0  0  0  0  0  0  0
   -0.2470   -0.1410    0.5576 C   0  0  1  0  0  0  0  0  0  0  0  0
   -0.1272    0.4432    1.4706 H   0  0  0  0  0  0  0  0  0  0  0  0
    0.9221   -1.1561    0.4860 C   0  0  1  0  0  0  0  0  0  0  0  0
    0.7064   -1.8373   -0.3393 H   0  0  0  0  0  0  0  0  0  0  0  0
    2.2736   -0.4772    0.1924 C   0  0  0  0  0  0  0  0  0  0  0  0
    2.5724    0.1601    1.0266 H   0  0  0  0  0  0  0  0  0  0  0  0
    3.0448   -1.2271    0.0236 H   0  0  0  0  0  0  0  0  0  0  0  0
    2.2005    0.1335   -0.7082 H   0  0  0  0  0  0  0  0  0  0  0  0
    0.9990   -2.0045    1.7751 C   0  0  0  0  0  0  0  0  0  0  0  0
    1.3136   -1.3807    2.6129 H   0  0  0  0  0  0  0  0  0  0  0  0
    0.0068   -2.3982    1.9955 H   0  0  0  0  0  0  0  0  0  0  0  0
    1.9536   -3.2015    1.6703 C   0  0  0  0  0  0  0  0  0  0  0  0
    2.9826   -2.8611    1.5559 H   0  0  0  0  0  0  0  0  0  0  0  0
    1.8847   -3.7971    2.5808 H   0  0  0  0  0  0  0  0  0  0  0  0
    1.6790   -3.8242    0.8181 H   0  0  0  0  0  0  0  0  0  0  0  0
   -0.2667    0.8444   -0.6219 C   0  0  0  0  0  0  0  0  0  0  0  0
    0.7712    1.1103   -1.2263 O   0  0  0  0  0  0  0  0  0  0  0  0
   -1.4474    1.3794   -0.9580 N   0  0  0  0  0  0  0  0  0  0  0  0
   -2.2571    1.1057   -0.4241 H   0  0  0  0  0  0  0  0  0  0  0  0
   -1.6328    2.3343   -2.0489 C   0  0  0  0  0  0  0  0  0  0  0  0
   -1.2034    1.9310   -2.9687 H   0  0  0  0  0  0  0  0  0  0  0  0
   -2.6947    2.5301   -2.2045 H   0  0  0  0  0  0  0  0  0  0  0  0
   -1.1226    3.2692   -1.8093 H   0  0  0  0  0  0  0  0  0  0  0  0
  5  6  2  0  0  0  0
  5  7  1  0  0  0  0
  2  3  1  0  0  0  0
  2  4  1  0  0  0  0
  2  5  1  0  0  0  0
  1  2  1  0  0  0  0
 24 25  2  0  0  0  0
 24 26  1  0  0  0  0
 20 21  1  0  0  0  0
 20 22  1  0  0  0  0
 20 23  1  0  0  0  0
 17 18  1  0  0  0  0
 17 19  1  0  0  0  0
 17 20  1  0  0  0  0
 13 14  1  0  0  0  0
 13 15  1  0  0  0  0
 13 16  1  0  0  0  0
 11 12  1  0  0  0  0
 11 13  1  0  0  0  0
 11 17  1  0  0  0  0
  9 10  1  0  0  0  0
  9 11  1  0  0  0  0
  9 24  1  0  0  0  0
  7  8  1  0  0  0  0
  7  9  1  0  0  0  0
 28 29  1  0  0  0  0
 28 30  1  0  0  0  0
 28 31  1  0  0  0  0
 26 27  1  0  0  0  0
 26 28  1  0  0  0  0
M  END
$$$$
default_name
  -OEChem-01062215323D

 31 30  0     1  0  0  0  0  0999 V2000
   -3.0760   -3.6390    1.5496 H   0  0  0  0  0  0  0  0  0  0  0  0
   -3.0940   -2.6290    1.1426 C   0  0  0  0  0  0  0  0  0  0  0  0
   -3.7160   -1.9930    1.7706 H   0  0  0  0  0  0  0  0  0  0  0  0
   -3.4880   -2.6500    0.1286 H   0  0  0  0  0  0  0  0  0  0  0  0
   -1.6860   -2.0850    1.1196 C   0  0  0  0  0  0  0  0  0  0  0  0
   -0.7540   -2.7700    1.5226 O   0  0  0  0  0  0  0  0  0  0  0  0
   -1.5320   -0.8490    0.6496 N   0  0  0  0  0  0  0  0  0  0  0  0
   -2.3500   -0.3360    0.3566 H   0  0  0  0  0  0  0  0  0  0  0  0
   -0.2470   -0.1410    0.5576 C   0  0  1  0  0  0  0  0  0  0  0  0
   -0.1272    0.4432    1.4706 H   0  0  0  0  0  0  0  0  0  0  0  0
    0.9221   -1.1561    0.4860 C   0  0  1  0  0  0  0  0  0  0  0  0
    0.7064   -1.8373   -0.3393 H   0  0  0  0  0  0  0  0  0  0  0  0
    2.2736   -0.4772    0.1924 C   0  0  0  0  0  0  0  0  0  0  0  0
    2.5724    0.1601    1.0266 H   0  0  0  0  0  0  0  0  0  0  0  0
    3.0448   -1.2271    0.0236 H   0  0  0  0  0  0  0  0  0  0  0  0
    2.2005    0.1335   -0.7082 H   0  0  0  0  0  0  0  0  0  0  0  0
    0.9990   -2.0045    1.7751 C   0  0  0  0  0  0  0  0  0  0  0  0
    1.3136   -1.3807    2.6129 H   0  0  0  0  0  0  0  0  0  0  0  0
    0.0068   -2.3982    1.9955 H   0  0  0  0  0  0  0  0  0  0  0  0
    1.9536   -3.2015    1.6703 C   0  0  0  0  0  0  0  0  0  0  0  0
    2.9826   -2.8611    1.5559 H   0  0  0  0  0  0  0  0  0  0  0  0
    1.8847   -3.7971    2.5808 H   0  0  0  0  0  0  0  0  0  0  0  0
    1.6790   -3.8242    0.8181 H   0  0  0  0  0  0  0  0  0  0  0  0
   -0.2667    0.8444   -0.6219 C   0  0  0  0  0  0  0  0  0  0  0  0
    0.6881    0.9067   -1.3951 O   0  0  0  0  0  0  0  0  0  0  0  0
   -1.3570    1.6080   -0.7685 N   0  0  0  0  0  0  0  0  0  0  0  0
   -2.1046    1.4936   -0.1025 H   0  0  0  0  0  0  0  0  0  0  0  0
   -1.5280    2.5953   -1.8326 C   0  0  0  0  0  0  0  0  0  0  0  0
   -1.3461    2.1270   -2.8025 H   0  0  0  0  0  0  0  0  0  0  0  0
   -2.5408    3.0005   -1.8142 H   0  0  0  0  0  0  0  0  0  0  0  0
   -0.8099    3.4067   -1.6996 H   0  0  0  0  0  0  0  0  0  0  0  0
  5  6  2  0  0  0  0
  5  7  1  0  0  0  0
  2  3  1  0  0  0  0
  2  4  1  0  0  0  0
  2  5  1  0  0  0  0
  1  2  1  0  0  0  0
 24 25  2  0  0  0  0
 24 26  1  0  0  0  0
 20 21  1  0  0  0  0
 20 22  1  0  0  0  0
 20 23  1  0  0  0  0
 17 18  1  0  0  0  0
 17 19  1  0  0  0  0
 17 20  1  0  0  0  0
 13 14  1  0  0  0  0
 13 15  1  0  0  0  0
 13 16  1  0  0  0  0
 11 12  1  0  0  0  0
 11 13  1  0  0  0  0
 11 17  1  0  0  0  0
  9 10  1  0  0  0  0
  9 11  1  0  0  0  0
  9 24  1  0  0  0  0
  7  8  1  0  0  0  0
  7  9  1  0  0  0  0
 28 29  1  0  0  0  0
 28 30  1  0  0  0  0
 28 31  1  0  0  0  0
 26 27  1  0  0  0  0
 26 28  1  0  0  0  0
M  END
$$$$
default_name
  -OEChem-01062215323D

 31 30  0     1  0  0  0  0  0999 V2000
   -3.0760   -3.6390    1.5496 H   0  0  0  0  0  0  0  0  0  0  0  0
   -3.0940   -2.6290    1.1426 C   0  0  0  0  0  0  0  0  0  0  0  0
   -3.7160   -1.9930    1.7706 H   0  0  0  0  0  0  0  0  0  0  0  0
   -3.4880   -2.6500    0.1286 H   0  0  0  0  0  0  0  0  0  0  0  0
   -1.6860   -2.0850    1.1196 C   0  0  0  0  0  0  0  0  0  0  0  0
   -0.7540   -2.7700    1.5226 O   0  0  0  0  0  0  0  0  0  0  0  0
   -1.5320   -0.8490    0.6496 N   0  0  0  0  0  0  0  0  0  0  0  0
   -2.3500   -0.3360    0.3566 H   0  0  0  0  0  0  0  0  0  0  0  0
   -0.2470   -0.1410    0.5576 C   0  0  1  0  0  0  0  0  0  0  0  0
   -0.1272    0.4432    1.4706 H   0  0  0  0  0  0  0  0  0  0  0  0
    0.9221   -1.1561    0.4860 C   0  0  1  0  0  0  0  0  0  0  0  0
    0.7064   -1.8373   -0.3393 H   0  0  0  0  0  0  0  0  0  0  0  0
    2.2736   -0.4772    0.1924 C   0  0  0  0  0  0  0  0  0  0  0  0
    2.5724    0.1601    1.0266 H   0  0  0  0  0  0  0  0  0  0  0  0
    3.0448   -1.2271    0.0236 H   0  0  0  0  0  0  0  0  0  0  0  0
    2.2005    0.1335   -0.7082 H   0  0  0  0  0  0  0  0  0  0  0  0
    0.9990   -2.0045    1.7751 C   0  0  0  0  0  0  0  0  0  0  0  0
    1.3136   -1.3807    2.6129 H   0  0  0  0  0  0  0  0  0  0  0  0
    0.0068   -2.3982    1.9955 H   0  0  0  0  0  0  0  0  0  0  0  0
    1.9536   -3.2015    1.6703 C   0  0  0  0  0  0  0  0  0  0  0  0
    2.9826   -2.8611    1.5559 H   0  0  0  0  0  0  0  0  0  0  0  0
    1.8847   -3.7971    2.5808 H   0  0  0  0  0  0  0  0  0  0  0  0
    1.6790   -3.8242    0.8181 H   0  0  0  0  0  0  0  0  0  0  0  0
   -0.2667    0.8444   -0.6219 C   0  0  0  0  0  0  0  0  0  0  0  0
    0.5393    0.7259   -1.5436 O   0  0  0  0  0  0  0  0  0  0  0  0
   -1.1928    1.8115   -0.6013 N   0  0  0  0  0  0  0  0  0  0  0  0
   -1.8269    1.8391    0.1815 H   0  0  0  0  0  0  0  0  0  0  0  0
   -1.3391    2.8273   -1.6420 C   0  0  0  0  0  0  0  0  0  0  0  0
   -1.4175    2.3453   -2.6190 H   0  0  0  0  0  0  0  0  0  0  0  0
   -2.2339    3.4255   -1.4642 H   0  0  0  0  0  0  0  0  0  0  0  0
   -0.4624    3.4778   -1.6461 H   0  0  0  0  0  0  0  0  0  0  0  0
  5  6  2  0  0  0  0
  5  7  1  0  0  0  0
  2  3  1  0  0  0  0
  2  4  1  0  0  0  0
  2  5  1  0  0  0  0
  1  2  1  0  0  0  0
 24 25  2  0  0  0  0
 24 26  1  0  0  0  0
 20 21  1  0  0  0  0
 20 22  1  0  0  0  0
 20 23  1  0  0  0  0
 17 18  1  0  0  0  0
 17 19  1  0  0  0  0
 17 20  1  0  0  0  0
 13 14  1  0  0  0  0
 13 15  1  0  0  0  0
 13 16  1  0  0  0  0
 11 12  1  0  0  0  0
 11 13  1  0  0  0  0
 11 17  1  0  0  0  0
  9 10  1  0  0  0  0
  9 11  1  0  0  0  0
  9 24  1  0  0  0  0
  7  8  1  0  0  0  0
  7  9  1  0  0  0  0
 28 29  1  0  0  0  0
 28 30  1  0  0  0  0
 28 31  1  0  0  0  0
 26 27  1  0  0  0  0
 26 28  1  0  0  0  0
M  END
$$$$
default_name
  -OEChem-01062215323D

 31 30  0     1  0  0  0  0  0999 V2000
   -3.0760   -3.6390    1.5496 H   0  0  0  0  0  0  0  0  0  0  0  0
   -3.0940   -2.6290    1.1426 C   0  0  0  0  0  0  0  0  0  0  0  0
   -3.7160   -1.9930    1.7706 H   0  0  0  0  0  0  0  0  0  0  0  0
   -3.4880   -2.6500    0.1286 H   0  0  0  0  0  0  0  0  0  0  0  0
   -1.6860   -2.0850    1.1196 C   0  0  0  0  0  0  0  0  0  0  0  0
   -0.7540   -2.7700    1.5226 O   0  0  0  0  0  0  0  0  0  0  0  0
   -1.5320   -0.8490    0.6496 N   0  0  0  0  0  0  0  0  0  0  0  0
   -2.3500   -0.3360    0.3566 H   0  0  0  0  0  0  0  0  0  0  0  0
   -0.2470   -0.1410    0.5576 C   0  0  1  0  0  0  0  0  0  0  0  0
   -0.1272    0.4432    1.4706 H   0  0  0  0  0  0  0  0  0  0  0  0
    0.9221   -1.1561    0.4860 C   0  0  1  0  0  0  0  0  0  0  0  0
    0.7064   -1.8373   -0.3393 H   0  0  0  0  0  0  0  0  0  0  0  0
    2.2736   -0.4772    0.1924 C   0  0  0  0  0  0  0  0  0  0  0  0
    2.5724    0.1601    1.0266 H   0  0  0  0  0  0  0  0  0  0  0  0
    3.0448   -1.2271    0.0236 H   0  0  0  0  0  0  0  0  0  0  0  0
    2.2005    0.1335   -0.7082 H   0  0  0  0  0  0  0  0  0  0  0  0
    0.9990   -2.0045    1.7751 C   0  0  0  0  0  0  0  0  0  0  0  0
    1.3136   -1.3807    2.6129 H   0  0  0  0  0  0  0  0  0  0  0  0
    0.0068   -2.3982    1.9955 H   0  0  0  0  0  0  0  0  0  0  0  0
    1.9536   -3.2015    1.6703 C   0  0  0  0  0  0  0  0  0  0  0  0
    2.9826   -2.8611    1.5559 H   0  0  0  0  0  0  0  0  0  0  0  0
    1.8847   -3.7971    2.5808 H   0  0  0  0  0  0  0  0  0  0  0  0
    1.6790   -3.8242    0.8181 H   0  0  0  0  0  0  0  0  0  0  0  0
   -0.2667    0.8444   -0.6219 C   0  0  0  0  0  0  0  0  0  0  0  0
    0.3351    0.5804   -1.6618 O   0  0  0  0  0  0  0  0  0  0  0  0
   -0.9660    1.9760   -0.4677 N   0  0  0  0  0  0  0  0  0  0  0  0
   -1.4429    2.1187    0.4086 H   0  0  0  0  0  0  0  0  0  0  0  0
   -1.0789    3.0145   -1.4900 C   0  0  0  0  0  0  0  0  0  0  0  0
   -1.4127    2.5709   -2.4306 H   0  0  0  0  0  0  0  0  0  0  0  0
   -1.7950    3.7763   -1.1785 H   0  0  0  0  0  0  0  0  0  0  0  0
   -0.1037    3.4777   -1.6522 H   0  0  0  0  0  0  0  0  0  0  0  0
  5  6  2  0  0  0  0
  5  7  1  0  0  0  0
  2  3  1  0  0  0  0
  2  4  1  0  0  0  0
  2  5  1  0  0  0  0
  1  2  1  0  0  0  0
 24 25  2  0  0  0  0
 24 26  1  0  0  0  0
 20 21  1  0  0  0  0
 20 22  1  0  0  0  0
 20 23  1  0  0  0  0
 17 18  1  0  0  0  0
 17 19  1  0  0  0  0
 17 20  1  0  0  0  0
 13 14  1  0  0  0  0
 13 15  1  0  0  0  0
 13 16  1  0  0  0  0
 11 12  1  0  0  0  0
 11 13  1  0  0  0  0
 11 17  1  0  0  0  0
  9 10  1  0  0  0  0
  9 11  1  0  0  0  0
  9 24  1  0  0  0  0
  7  8  1  0  0  0  0
  7  9  1  0  0  0  0
 28 29  1  0  0  0  0
 28 30  1  0  0  0  0
 28 31  1  0  0  0  0
 26 27  1  0  0  0  0
 26 28  1  0  0  0  0
M  END
$$$$
default_name
  -OEChem-01062215323D

 31 30  0     1  0  0  0  0  0999 V2000
   -3.0760   -3.6390    1.5496 H   0  0  0  0  0  0  0  0  0  0  0  0
   -3.0940   -2.6290    1.1426 C   0  0  0  0  0  0  0  0  0  0  0  0
   -3.7160   -1.9930    1.7706 H   0  0  0  0  0  0  0  0  0  0  0  0
   -3.4880   -2.6500    0.1286 H   0  0  0  0  0  0  0  0  0  0  0  0
   -1.6860   -2.0850    1.1196 C   0  0  0  0  0  0  0  0  0  0  0  0
   -0.7540   -2.7700    1.5226 O   0  0  0  0  0  0  0  0  0  0  0  0
   -1.5320   -0.8490    0.6496 N   0  0  0  0  0  0  0  0  0  0  0  0
   -2.3500   -0.3360    0.3566 H   0  0  0  0  0  0  0  0  0  0  0  0
   -0.2470   -0.1410    0.5576 C   0  0  1  0  0  0  0  0  0  0  0  0
   -0.1272    0.4432    1.4706 H   0  0  0  0  0  0  0  0  0  0  0  0
    0.9221   -1.1561    0.4860 C   0  0  1  0  0  0  0  0  0  0  0  0
    0.7064   -1.8373   -0.3393 H   0  0  0  0  0  0  0  0  0  0  0  0
    2.2736   -0.4772    0.1924 C   0  0  0  0  0  0  0  0  0  0  0  0
    2.5724    0.1601    1.0266 H   0  0  0  0  0  0  0  0  0  0  0  0
    3.0448   -1.2271    0.0236 H   0  0  0  0  0  0  0  0  0  0  0  0
    2.2005    0.1335   -0.7082 H   0  0  0  0  0  0  0  0  0  0  0  0
    0.9990   -2.0045    1.7751 C   0  0  0  0  0  0  0  0  0  0  0  0
    1.3136   -1.3807    2.6129 H   0  0  0  0  0  0  0  0  0  0  0  0
    0.0068   -2.3982    1.9955 H   0  0  0  0  0  0  0  0  0  0  0  0
    1.9536   -3.2015    1.6703 C   0  0  0  0  0  0  0  0  0  0  0  0
    2.9826   -2.8611    1.5559 H   0  0  0  0  0  0  0  0  0  0  0  0
    1.8847   -3.7971    2.5808 H   0  0  0  0  0  0  0  0  0  0  0  0
    1.6790   -3.8242    0.8181 H   0  0  0  0  0  0  0  0  0  0  0  0
   -0.2667    0.8444   -0.6219 C   0  0  0  0  0  0  0  0  0  0  0  0
    0.0894    0.4799   -1.7416 O   0  0  0  0  0  0  0  0  0  0  0  0
   -0.6921    2.0903   -0.3768 N   0  0  0  0  0  0  0  0  0  0  0  0
   -0.9787    2.3132    0.5633 H   0  0  0  0  0  0  0  0  0  0  0  0
   -0.7651    3.1441   -1.3869 C   0  0  0  0  0  0  0  0  0  0  0  0
   -1.3320    2.7885   -2.2502 H   0  0  0  0  0  0  0  0  0  0  0  0
   -1.2540    4.0289   -0.9765 H   0  0  0  0  0  0  0  0  0  0  0  0
    0.2417    3.4062   -1.7176 H   0  0  0  0  0  0  0  0  0  0  0  0
  5  6  2  0  0  0  0
  5  7  1  0  0  0  0
  2  3  1  0  0  0  0
  2  4  1  0  0  0  0
  2  5  1  0  0  0  0
  1  2  1  0  0  0  0
 24 25  2  0  0  0  0
 24 26  1  0  0  0  0
 20 21  1  0  0  0  0
 20 22  1  0  0  0  0
 20 23  1  0  0  0  0
 17 18  1  0  0  0  0
 17 19  1  0  0  0  0
 17 20  1  0  0  0  0
 13 14  1  0  0  0  0
 13 15  1  0  0  0  0
 13 16  1  0  0  0  0
 11 12  1  0  0  0  0
 11 13  1  0  0  0  0
 11 17  1  0  0  0  0
  9 10  1  0  0  0  0
  9 11  1  0  0  0  0
  9 24  1  0  0  0  0
  7  8  1  0  0  0  0
  7  9  1  0  0  0  0
 28 29  1  0  0  0  0
 28 30  1  0  0  0  0
 28 31  1  0  0  0  0
 26 27  1  0  0  0  0
 26 28  1  0  0  0  0
M  END
$$$$
default_name
  -OEChem-01062215323D

 31 30  0     1  0  0  0  0  0999 V2000
   -3.0760   -3.6390    1.5496 H   0  0  0  0  0  0  0  0  0  0  0  0
   -3.0940   -2.6290    1.1426 C   0  0  0  0  0  0  0  0  0  0  0  0
   -3.7160   -1.9930    1.7706 H   0  0  0  0  0  0  0  0  0  0  0  0
   -3.4880   -2.6500    0.1286 H   0  0  0  0  0  0  0  0  0  0  0  0
   -1.6860   -2.0850    1.1196 C   0  0  0  0  0  0  0  0  0  0  0  0
   -0.7540   -2.7700    1.5226 O   0  0  0  0  0  0  0  0  0  0  0  0
   -1.5320   -0.8490    0.6496 N   0  0  0  0  0  0  0  0  0  0  0  0
   -2.3500   -0.3360    0.3566 H   0  0  0  0  0  0  0  0  0  0  0  0
   -0.2470   -0.1410    0.5576 C   0  0  1  0  0  0  0  0  0  0  0  0
   -0.1272    0.4432    1.4706 H   0  0  0  0  0  0  0  0  0  0  0  0
    0.9221   -1.1561    0.4860 C   0  0  1  0  0  0  0  0  0  0  0  0
    0.7064   -1.8373   -0.3393 H   0  0  0  0  0  0  0  0  0  0  0  0
    2.2736   -0.4772    0.1924 C   0  0  0  0  0  0  0  0  0  0  0  0
    2.5724    0.1601    1.0266 H   0  0  0  0  0  0  0  0  0  0  0  0
    3.0448   -1.2271    0.0236 H   0  0  0  0  0  0  0  0  0  0  0  0
    2.2005    0.1335   -0.7082 H   0  0  0  0  0  0  0  0  0  0  0  0
    0.9990   -2.0045    1.7751 C   0  0  0  0  0  0  0  0  0  0  0  0
    1.3136   -1.3807    2.6129 H   0  0  0  0  0  0  0  0  0  0  0  0
    0.0068   -2.3982    1.9955 H   0  0  0  0  0  0  0  0  0  0  0  0
    1.9536   -3.2015    1.6703 C   0  0  0  0  0  0  0  0  0  0  0  0
    2.9826   -2.8611    1.5559 H   0  0  0  0  0  0  0  0  0  0  0  0
    1.8847   -3.7971    2.5808 H   0  0  0  0  0  0  0  0  0  0  0  0
    1.6790   -3.8242    0.8181 H   0  0  0  0  0  0  0  0  0  0  0  0
   -0.2667    0.8444   -0.6219 C   0  0  0  0  0  0  0  0  0  0  0  0
   -0.1812    0.4315   -1.7775 O   0  0  0  0  0  0  0  0  0  0  0  0
   -0.3898    2.1466   -0.3348 N   0  0  0  0  0  0  0  0  0  0  0  0
   -0.4661    2.4094    0.6351 H   0  0  0  0  0  0  0  0  0  0  0  0
   -0.4192    3.2074   -1.3398 C   0  0  0  0  0  0  0  0  0  0  0  0
   -1.1808    2.9832   -2.0900 H   0  0  0  0  0  0  0  0  0  0  0  0
   -0.6478    4.1661   -0.8720 H   0  0  0  0  0  0  0  0  0  0  0  0
    0.5503    3.2684   -1.8379 H   0  0  0  0  0  0  0  0  0  0  0  0
  5  6  2  0  0  0  0
  5  7  1  0  0  0  0
  2  3  1  0  0  0  0
  2  4  1  0  0  0  0
  2  5  1  0  0  0  0
  1  2  1  0  0  0  0
 24 25  2  0  0  0  0
 24 26  1  0  0  0  0
 20 21  1  0  0  0  0
 20 22  1  0  0  0  0
 20 23  1  0  0  0  0
 17 18  1  0  0  0  0
 17 19  1  0  0  0  0
 17 20  1  0  0  0  0
 13 14  1  0  0  0  0
 13 15  1  0  0  0  0
 13 16  1  0  0  0  0
 11 12  1  0  0  0  0
 11 13  1  0  0  0  0
 11 17  1  0  0  0  0
  9 10  1  0  0  0  0
  9 11  1  0  0  0  0
  9 24  1  0  0  0  0
  7  8  1  0  0  0  0
  7  9  1  0  0  0  0
 28 29  1  0  0  0  0
 28 30  1  0  0  0  0
 28 31  1  0  0  0  0
 26 27  1  0  0  0  0
 26 28  1  0  0  0  0
M  END
$$$$
default_name
  -OEChem-01062215323D

 31 30  0     1  0  0  0  0  0999 V2000
   -3.0760   -3.6390    1.5496 H   0  0  0  0  0  0  0  0  0  0  0  0
   -3.0940   -2.6290    1.1426 C   0  0  0  0  0  0  0  0  0  0  0  0
   -3.7160   -1.9930    1.7706 H   0  0  0  0  0  0  0  0  0  0  0  0
   -3.4880   -2.6500    0.1286 H   0  0  0  0  0  0  0  0  0  0  0  0
   -1.6860   -2.0850    1.1196 C   0  0  0  0  0  0  0  0  0  0  0  0
   -0.7540   -2.7700    1.5226 O   0  0  0  0  0  0  0  0  0  0  0  0
   -1.5320   -0.8490    0.6496 N   0  0  0  0  0  0  0  0  0  0  0  0
   -2.3500   -0.3360    0.3566 H   0  0  0  0  0  0  0  0  0  0  0  0
   -0.2470   -0.1410    0.5576 C   0  0  1  0  0  0  0  0  0  0  0  0
   -0.1272    0.4432    1.4706 H   0  0  0  0  0  0  0  0  0  0  0  0
    0.9221   -1.1561    0.4860 C   0  0  1  0  0  0  0  0  0  0  0  0
    0.7064   -1.8373   -0.3393 H   0  0  0  0  0  0  0  0  0  0  0  0
    2.2736   -0.4772    0.1924 C   0  0  0  0  0  0  0  0  0  0  0  0
    2.5724    0.1601    1.0266 H   0  0  0  0  0  0  0  0  0  0  0  0
    3.0448   -1.2271    0.0236 H   0  0  0  0  0  0  0  0  0  0  0  0
    2.2005    0.1335   -0.7082 H   0  0  0  0  0  0  0  0  0  0  0  0
    0.9990   -2.0045    1.7751 C   0  0  0  0  0  0  0  0  0  0  0  0
    1.3136   -1.3807    2.6129 H   0  0  0  0  0  0  0  0  0  0  0  0
    0.0068   -2.3982    1.9955 H   0  0  0  0  0  0  0  0  0  0  0  0
    1.9536   -3.2015    1.6703 C   0  0  0  0  0  0  0  0  0  0  0  0
    2.9826   -2.8611    1.5559 H   0  0  0  0  0  0  0  0  0  0  0  0
    1.8847   -3.7971    2.5808 H   0  0  0  0  0  0  0  0  0  0  0  0
    1.6790   -3.8242    0.8181 H   0  0  0  0  0  0  0  0  0  0  0  0
   -0.2667    0.8444   -0.6219 C   0  0  0  0  0  0  0  0  0  0  0  0
   -0.4581    0.4383   -1.7672 O   0  0  0  0  0  0  0  0  0  0  0  0
   -0.0796    2.1410   -0.3446 N   0  0  0  0  0  0  0  0  0  0  0  0
    0.0600    2.4007    0.6191 H   0  0  0  0  0  0  0  0  0  0  0  0
   -0.0648    3.1999   -1.3520 C   0  0  0  0  0  0  0  0  0  0  0  0
   -0.9696    3.1418   -1.9610 H   0  0  0  0  0  0  0  0  0  0  0  0
   -0.0176    4.1786   -0.8721 H   0  0  0  0  0  0  0  0  0  0  0  0
    0.8010    3.0736   -2.0048 H   0  0  0  0  0  0  0  0  0  0  0  0
  5  6  2  0  0  0  0
  5  7  1  0  0  0  0
  2  3  1  0  0  0  0
  2  4  1  0  0  0  0
  2  5  1  0  0  0  0
  1  2  1  0  0  0  0
 24 25  2  0  0  0  0
 24 26  1  0  0  0  0
 20 21  1  0  0  0  0
 20 22  1  0  0  0  0
 20 23  1  0  0  0  0
 17 18  1  0  0  0  0
 17 19  1  0  0  0  0
 17 20  1  0  0  0  0
 13 14  1  0  0  0  0
 13 15  1  0  0  0  0
 13 16  1  0  0  0  0
 11 12  1  0  0  0  0
 11 13  1  0  0  0  0
 11 17  1  0  0  0  0
  9 10  1  0  0  0  0
  9 11  1  0  0  0  0
  9 24  1  0  0  0  0
  7  8  1  0  0  0  0
  7  9  1  0  0  0  0
 28 29  1  0  0  0  0
 28 30  1  0  0  0  0
 28 31  1  0  0  0  0
 26 27  1  0  0  0  0
 26 28  1  0  0  0  0
M  END
$$$$
default_name
  -OEChem-01062215323D

 31 30  0     1  0  0  0  0  0999 V2000
   -3.0760   -3.6390    1.5496 H   0  0  0  0  0  0  0  0  0  0  0  0
   -3.0940   -2.6290    1.1426 C   0  0  0  0  0  0  0  0  0  0  0  0
   -3.7160   -1.9930    1.7706 H   0  0  0  0  0  0  0  0  0  0  0  0
   -3.4880   -2.6500    0.1286 H   0  0  0  0  0  0  0  0  0  0  0  0
   -1.6860   -2.0850    1.1196 C   0  0  0  0  0  0  0  0  0  0  0  0
   -0.7540   -2.7700    1.5226 O   0  0  0  0  0  0  0  0  0  0  0  0
   -1.5320   -0.8490    0.6496 N   0  0  0  0  0  0  0  0  0  0  0  0
   -2.3500   -0.3360    0.3566 H   0  0  0  0  0  0  0  0  0  0  0  0
   -0.2470   -0.1410    0.5576 C   0  0  1  0  0  0  0  0  0  0  0  0
   -0.1272    0.4432    1.4706 H   0  0  0  0  0  0  0  0  0  0  0  0
    0.9221   -1.1561    0.4860 C   0  0  1  0  0  0  0  0  0  0  0  0
    0.7064   -1.8373   -0.3393 H   0  0  0  0  0  0  0  0  0  0  0  0
    2.2736   -0.4772    0.1924 C   0  0  0  0  0  0  0  0  0  0  0  0
    2.5724    0.1601    1.0266 H   0  0  0  0  0  0  0  0  0  0  0  0
    3.0448   -1.2271    0.0236 H   0  0  0  0  0  0  0  0  0  0  0  0
    2.2005    0.1335   -0.7082 H   0  0  0  0  0  0  0  0  0  0  0  0
    0.9990   -2.0045    1.7751 C   0  0  0  0  0  0  0  0  0  0  0  0
    1.3136   -1.3807    2.6129 H   0  0  0  0  0  0  0  0  0  0  0  0
    0.0068   -2.3982    1.9955 H   0  0  0  0  0  0  0  0  0  0  0  0
    1.9536   -3.2015    1.6703 C   0  0  0  0  0  0  0  0  0  0  0  0
    2.9826   -2.8611    1.5559 H   0  0  0  0  0  0  0  0  0  0  0  0
    1.8847   -3.7971    2.5808 H   0  0  0  0  0  0  0  0  0  0  0  0
    1.6790   -3.8242    0.8181 H   0  0  0  0  0  0  0  0  0  0  0  0
   -0.2667    0.8444   -0.6219 C   0  0  0  0  0  0  0  0  0  0  0  0
   -0.7226    0.4999   -1.7113 O   0  0  0  0  0  0  0  0  0  0  0  0
    0.2173    2.0741   -0.4055 N   0  0  0  0  0  0  0  0  0  0  0  0
    0.5639    2.2878    0.5164 H   0  0  0  0  0  0  0  0  0  0  0  0
    0.2741    3.1223   -1.4225 C   0  0  0  0  0  0  0  0  0  0  0  0
   -0.7126    3.2535   -1.8720 H   0  0  0  0  0  0  0  0  0  0  0  0
    0.5936    4.0654   -0.9768 H   0  0  0  0  0  0  0  0  0  0  0  0
    0.9768    2.8351   -2.2070 H   0  0  0  0  0  0  0  0  0  0  0  0
  5  6  2  0  0  0  0
  5  7  1  0  0  0  0
  2  3  1  0  0  0  0
  2  4  1  0  0  0  0
  2  5  1  0  0  0  0
  1  2  1  0  0  0  0
 24 25  2  0  0  0  0
 24 26  1  0  0  0  0
 20 21  1  0  0  0  0
 20 22  1  0  0  0  0
 20 23  1  0  0  0  0
 17 18  1  0  0  0  0
 17 19  1  0  0  0  0
 17 20  1  0  0  0  0
 13 14  1  0  0  0  0
 13 15  1  0  0  0  0
 13 16  1  0  0  0  0
 11 12  1  0  0  0  0
 11 13  1  0  0  0  0
 11 17  1  0  0  0  0
  9 10  1  0  0  0  0
  9 11  1  0  0  0  0
  9 24  1  0  0  0  0
  7  8  1  0  0  0  0
  7  9  1  0  0  0  0
 28 29  1  0  0  0  0
 28 30  1  0  0  0  0
 28 31  1  0  0  0  0
 26 27  1  0  0  0  0
 26 28  1  0  0  0  0
M  END
$$$$
default_name
  -OEChem-01062215323D

 31 30  0     1  0  0  0  0  0999 V2000
   -3.0760   -3.6390    1.5496 H   0  0  0  0  0  0  0  0  0  0  0  0
   -3.0940   -2.6290    1.1426 C   0  0  0  0  0  0  0  0  0  0  0  0
   -3.7160   -1.9930    1.7706 H   0  0  0  0  0  0  0  0  0  0  0  0
   -3.4880   -2.6500    0.1286 H   0  0  0  0  0  0  0  0  0  0  0  0
   -1.6860   -2.0850    1.1196 C   0  0  0  0  0  0  0  0  0  0  0  0
   -0.7540   -2.7700    1.5226 O   0  0  0  0  0  0  0  0  0  0  0  0
   -1.5320   -0.8490    0.6496 N   0  0  0  0  0  0  0  0  0  0  0  0
   -2.3500   -0.3360    0.3566 H   0  0  0  0  0  0  0  0  0  0  0  0
   -0.2470   -0.1410    0.5576 C   0  0  1  0  0  0  0  0  0  0  0  0
   -0.1272    0.4432    1.4706 H   0  0  0  0  0  0  0  0  0  0  0  0
    0.9221   -1.1561    0.4860 C   0  0  1  0  0  0  0  0  0  0  0  0
    0.7064   -1.8373   -0.3393 H   0  0  0  0  0  0  0  0  0  0  0  0
    2.2736   -0.4772    0.1924 C   0  0  0  0  0  0  0  0  0  0  0  0
    2.5724    0.1601    1.0266 H   0  0  0  0  0  0  0  0  0  0  0  0
    3.0448   -1.2271    0.0236 H   0  0  0  0  0  0  0  0  0  0  0  0
    2.2005    0.1335   -0.7082 H   0  0  0  0  0  0  0  0  0  0  0  0
    0.9990   -2.0045    1.7751 C   0  0  0  0  0  0  0  0  0  0  0  0
    1.3136   -1.3807    2.6129 H   0  0  0  0  0  0  0  0  0  0  0  0
    0.0068   -2.3982    1.9955 H   0  0  0  0  0  0  0  0  0  0  0  0
    1.9536   -3.2015    1.6703 C   0  0  0  0  0  0  0  0  0  0  0  0
    2.9826   -2.8611    1.5559 H   0  0  0  0  0  0  0  0  0  0  0  0
    1.8847   -3.7971    2.5808 H   0  0  0  0  0  0  0  0  0  0  0  0
    1.6790   -3.8242    0.8181 H   0  0  0  0  0  0  0  0  0  0  0  0
   -0.2667    0.8444   -0.6219 C   0  0  0  0  0  0  0  0  0  0  0  0
   -0.9565    0.6121   -1.6137 O   0  0  0  0  0  0  0  0  0  0  0  0
    0.4807    1.9502   -0.5134 N   0  0  0  0  0  0  0  0  0  0  0  0
    1.0111    2.0783    0.3339 H   0  0  0  0  0  0  0  0  0  0  0  0
    0.5744    2.9798   -1.5466 C   0  0  0  0  0  0  0  0  0  0  0  0
   -0.4275    3.3106   -1.8291 H   0  0  0  0  0  0  0  0  0  0  0  0
    1.1441    3.8345   -1.1790 H   0  0  0  0  0  0  0  0  0  0  0  0
    1.0658    2.5691   -2.4307 H   0  0  0  0  0  0  0  0  0  0  0  0
  5  6  2  0  0  0  0
  5  7  1  0  0  0  0
  2  3  1  0  0  0  0
  2  4  1  0  0  0  0
  2  5  1  0  0  0  0
  1  2  1  0  0  0  0
 24 25  2  0  0  0  0
 24 26  1  0  0  0  0
 20 21  1  0  0  0  0
 20 22  1  0  0  0  0
 20 23  1  0  0  0  0
 17 18  1  0  0  0  0
 17 19  1  0  0  0  0
 17 20  1  0  0  0  0
 13 14  1  0  0  0  0
 13 15  1  0  0  0  0
 13 16  1  0  0  0  0
 11 12  1  0  0  0  0
 11 13  1  0  0  0  0
 11 17  1  0  0  0  0
  9 10  1  0  0  0  0
  9 11  1  0  0  0  0
  9 24  1  0  0  0  0
  7  8  1  0  0  0  0
  7  9  1  0  0  0  0
 28 29  1  0  0  0  0
 28 30  1  0  0  0  0
 28 31  1  0  0  0  0
 26 27  1  0  0  0  0
 26 28  1  0  0  0  0
M  END
$$$$
default_name
  -OEChem-01062215323D

 31 30  0     1  0  0  0  0  0999 V2000
   -3.0760   -3.6390    1.5496 H   0  0  0  0  0  0  0  0  0  0  0  0
   -3.0940   -2.6290    1.1426 C   0  0  0  0  0  0  0  0  0  0  0  0
   -3.7160   -1.9930    1.7706 H   0  0  0  0  0  0  0  0  0  0  0  0
   -3.4880   -2.6500    0.1286 H   0  0  0  0  0  0  0  0  0  0  0  0
   -1.6860   -2.0850    1.1196 C   0  0  0  0  0  0  0  0  0  0  0  0
   -0.7540   -2.7700    1.5226 O   0  0  0  0  0  0  0  0  0  0  0  0
   -1.5320   -0.8490    0.6496 N   0  0  0  0  0  0  0  0  0  0  0  0
   -2.3500   -0.3360    0.3566 H   0  0  0  0  0  0  0  0  0  0  0  0
   -0.2470   -0.1410    0.5576 C   0  0  1  0  0  0  0  0  0  0  0  0
   -0.1272    0.4432    1.4706 H   0  0  0  0  0  0  0  0  0  0  0  0
    0.9221   -1.1561    0.4860 C   0  0  1  0  0  0  0  0  0  0  0  0
    0.7064   -1.8373   -0.3393 H   0  0  0  0  0  0  0  0  0  0  0  0
    2.2736   -0.4772    0.1924 C   0  0  0  0  0  0  0  0  0  0  0  0
    2.5724    0.1601    1.0266 H   0  0  0  0  0  0  0  0  0  0  0  0
    3.0448   -1.2271    0.0236 H   0  0  0  0  0  0  0  0  0  0  0  0
    2.2005    0.1335   -0.7082 H   0  0  0  0  0  0  0  0  0  0  0  0
    0.9990   -2.0045    1.7751 C   0  0  0  0  0  0  0  0  0  0  0  0
    1.3136   -1.3807    2.6129 H   0  0  0  0  0  0  0  0  0  0  0  0
    0.0068   -2.3982    1.9955 H   0  0  0  0  0  0  0  0  0  0  0  0
    1.9536   -3.2015    1.6703 C   0  0  0  0  0  0  0  0  0  0  0  0
    2.9826   -2.8611    1.5559 H   0  0  0  0  0  0  0  0  0  0  0  0
    1.8847   -3.7971    2.5808 H   0  0  0  0  0  0  0  0  0  0  0  0
    1.6790   -3.8242    0.8181 H   0  0  0  0  0  0  0  0  0  0  0  0
   -0.2667    0.8444   -0.6219 C   0  0  0  0  0  0  0  0  0  0  0  0
   -1.1440    0.7673   -1.4809 O   0  0  0  0  0  0  0  0  0  0  0  0
    0.6926    1.7779   -0.6609 N   0  0  0  0  0  0  0  0  0  0  0  0
    1.3712    1.7866    0.0841 H   0  0  0  0  0  0  0  0  0  0  0  0
    0.8155    2.7820   -1.7158 C   0  0  0  0  0  0  0  0  0  0  0  0
   -0.1336    3.3093   -1.8351 H   0  0  0  0  0  0  0  0  0  0  0  0
    1.5964    3.5013   -1.4649 H   0  0  0  0  0  0  0  0  0  0  0  0
    1.0617    2.2938   -2.6607 H   0  0  0  0  0  0  0  0  0  0  0  0
  5  6  2  0  0  0  0
  5  7  1  0  0  0  0
  2  3  1  0  0  0  0
  2  4  1  0  0  0  0
  2  5  1  0  0  0  0
  1  2  1  0  0  0  0
 24 25  2  0  0  0  0
 24 26  1  0  0  0  0
 20 21  1  0  0  0  0
 20 22  1  0  0  0  0
 20 23  1  0  0  0  0
 17 18  1  0  0  0  0
 17 19  1  0  0  0  0
 17 20  1  0  0  0  0
 13 14  1  0  0  0  0
 13 15  1  0  0  0  0
 13 16  1  0  0  0  0
 11 12  1  0  0  0  0
 11 13  1  0  0  0  0
 11 17  1  0  0  0  0
  9 10  1  0  0  0  0
  9 11  1  0  0  0  0
  9 24  1  0  0  0  0
  7  8  1  0  0  0  0
  7  9  1  0  0  0  0
 28 29  1  0  0  0  0
 28 30  1  0  0  0  0
 28 31  1  0  0  0  0
 26 27  1  0  0  0  0
 26 28  1  0  0  0  0
M  END
$$$$
default_name
  -OEChem-01062215323D

 31 30  0     1  0  0  0  0  0999 V2000
   -3.0760   -3.6390    1.5496 H   0  0  0  0  0  0  0  0  0  0  0  0
   -3.0940   -2.6290    1.1426 C   0  0  0  0  0  0  0  0  0  0  0  0
   -3.7160   -1.9930    1.7706 H   0  0  0  0  0  0  0  0  0  0  0  0
   -3.4880   -2.6500    0.1286 H   0  0  0  0  0  0  0  0  0  0  0  0
   -1.6860   -2.0850    1.1196 C   0  0  0  0  0  0  0  0  0  0  0  0
   -0.7540   -2.7700    1.5226 O   0  0  0  0  0  0  0  0  0  0  0  0
   -1.5320   -0.8490    0.6496 N   0  0  0  0  0  0  0  0  0  0  0  0
   -2.3500   -0.3360    0.3566 H   0  0  0  0  0  0  0  0  0  0  0  0
   -0.2470   -0.1410    0.5576 C   0  0  1  0  0  0  0  0  0  0  0  0
    0.0018    0.2202    1.5561 H   0  0  0  0  0  0  0  0  0  0  0  0
    0.8729   -1.1154    0.1119 C   0  0  1  0  0  0  0  0  0  0  0  0
    0.5367   -1.5909   -0.8116 H   0  0  0  0  0  0  0  0  0  0  0  0
    2.1982   -0.3901   -0.1899 C   0  0  0  0  0  0  0  0  0  0  0  0
    2.6165    0.0404    0.7217 H   0  0  0  0  0  0  0  0  0  0  0  0
    2.9196   -1.0834   -0.6194 H   0  0  0  0  0  0  0  0  0  0  0  0
    2.0338    0.4095   -0.9131 H   0  0  0  0  0  0  0  0  0  0  0  0
    1.0816   -2.2347    1.1564 C   0  0  0  0  0  0  0  0  0  0  0  0
    1.5155   -1.8183    2.0665 H   0  0  0  0  0  0  0  0  0  0  0  0
    0.1124   -2.6664    1.4062 H   0  0  0  0  0  0  0  0  0  0  0  0
    1.9791   -3.3784    0.6648 C   0  0  0  0  0  0  0  0  0  0  0  0
    2.9961   -3.0228    0.5008 H   0  0  0  0  0  0  0  0  0  0  0  0
    2.0043   -4.1652    1.4190 H   0  0  0  0  0  0  0  0  0  0  0  0
    1.5830   -3.7906   -0.2639 H   0  0  0  0  0  0  0  0  0  0  0  0
   -0.3813    1.0868   -0.3575 C   0  0  0  0  0  0  0  0  0  0  0  0
   -1.4613    1.3553   -0.8817 O   0  0  0  0  0  0  0  0  0  0  0  0
    0.7107    1.8393   -0.5428 N   0  0  0  0  0  0  0  0  0  0  0  0
    1.5577    1.5636   -0.0715 H   0  0  0  0  0  0  0  0  0  0  0  0
    0.7491    3.0329   -1.3855 C   0  0  0  0  0  0  0  0  0  0  0  0
   -0.0511    3.7164   -1.0930 H   0  0  0  0  0  0  0  0  0  0  0  0
    1.7097    3.5394   -1.2811 H   0  0  0  0  0  0  0  0  0  0  0  0
    0.5992    2.7505   -2.4293 H   0  0  0  0  0  0  0  0  0  0  0  0
  5  6  2  0  0  0  0
  5  7  1  0  0  0  0
  2  3  1  0  0  0  0
  2  4  1  0  0  0  0
  2  5  1  0  0  0  0
  1  2  1  0  0  0  0
 24 25  2  0  0  0  0
 24 26  1  0  0  0  0
 20 21  1  0  0  0  0
 20 22  1  0  0  0  0
 20 23  1  0  0  0  0
 17 18  1  0  0  0  0
 17 19  1  0  0  0  0
 17 20  1  0  0  0  0
 13 14  1  0  0  0  0
 13 15  1  0  0  0  0
 13 16  1  0  0  0  0
 11 12  1  0  0  0  0
 11 13  1  0  0  0  0
 11 17  1  0  0  0  0
  9 10  1  0  0  0  0
  9 11  1  0  0  0  0
  9 24  1  0  0  0  0
  7  8  1  0  0  0  0
  7  9  1  0  0  0  0
 28 29  1  0  0  0  0
 28 30  1  0  0  0  0
 28 31  1  0  0  0  0
 26 27  1  0  0  0  0
 26 28  1  0  0  0  0
M  END
$$$$
default_name
  -OEChem-01062215323D

 31 30  0     1  0  0  0  0  0999 V2000
   -3.0760   -3.6390    1.5496 H   0  0  0  0  0  0  0  0  0  0  0  0
   -3.0940   -2.6290    1.1426 C   0  0  0  0  0  0  0  0  0  0  0  0
   -3.7160   -1.9930    1.7706 H   0  0  0  0  0  0  0  0  0  0  0  0
   -3.4880   -2.6500    0.1286 H   0  0  0  0  0  0  0  0  0  0  0  0
   -1.6860   -2.0850    1.1196 C   0  0  0  0  0  0  0  0  0  0  0  0
   -0.7540   -2.7700    1.5226 O   0  0  0  0  0  0  0  0  0  0  0  0
   -1.5320   -0.8490    0.6496 N   0  0  0  0  0  0  0  0  0  0  0  0
   -2.3500   -0.3360    0.3566 H   0  0  0  0  0  0  0  0  0  0  0  0
   -0.2470   -0.1410    0.5576 C   0  0  1  0  0  0  0  0  0  0  0  0
    0.0018    0.2202    1.5561 H   0  0  0  0  0  0  0  0  0  0  0  0
    0.8729   -1.1154    0.1119 C   0  0  1  0  0  0  0  0  0  0  0  0
    0.5367   -1.5909   -0.8116 H   0  0  0  0  0  0  0  0  0  0  0  0
    2.1982   -0.3901   -0.1899 C   0  0  0  0  0  0  0  0  0  0  0  0
    2.6165    0.0404    0.7217 H   0  0  0  0  0  0  0  0  0  0  0  0
    2.9196   -1.0834   -0.6194 H   0  0  0  0  0  0  0  0  0  0  0  0
    2.0338    0.4095   -0.9131 H   0  0  0  0  0  0  0  0  0  0  0  0
    1.0816   -2.2347    1.1564 C   0  0  0  0  0  0  0  0  0  0  0  0
    1.5155   -1.8183    2.0665 H   0  0  0  0  0  0  0  0  0  0  0  0
    0.1124   -2.6664    1.4062 H   0  0  0  0  0  0  0  0  0  0  0  0
    1.9791   -3.3784    0.6648 C   0  0  0  0  0  0  0  0  0  0  0  0
    2.9961   -3.0228    0.5008 H   0  0  0  0  0  0  0  0  0  0  0  0
    2.0043   -4.1652    1.4190 H   0  0  0  0  0  0  0  0  0  0  0  0
    1.5830   -3.7906   -0.2639 H   0  0  0  0  0  0  0  0  0  0  0  0
   -0.3813    1.0868   -0.3575 C   0  0  0  0  0  0  0  0  0  0  0  0
   -1.4933    1.5176   -0.6593 O   0  0  0  0  0  0  0  0  0  0  0  0
    0.7493    1.6580   -0.7918 N   0  0  0  0  0  0  0  0  0  0  0  0
    1.6241    1.2561   -0.4937 H   0  0  0  0  0  0  0  0  0  0  0  0
    0.7917    2.8254   -1.6701 C   0  0  0  0  0  0  0  0  0  0  0  0
    0.1833    3.6276   -1.2466 H   0  0  0  0  0  0  0  0  0  0  0  0
    1.8184    3.1761   -1.7846 H   0  0  0  0  0  0  0  0  0  0  0  0
    0.3864    2.5632   -2.6493 H   0  0  0  0  0  0  0  0  0  0  0  0
  5  6  2  0  0  0  0
  5  7  1  0  0  0  0
  2  3  1  0  0  0  0
  2  4  1  0  0  0  0
  2  5  1  0  0  0  0
  1  2  1  0  0  0  0
 24 25  2  0  0  0  0
 24 26  1  0  0  0  0
 20 21  1  0  0  0  0
 20 22  1  0  0  0  0
 20 23  1  0  0  0  0
 17 18  1  0  0  0  0
 17 19  1  0  0  0  0
 17 20  1  0  0  0  0
 13 14  1  0  0  0  0
 13 15  1  0  0  0  0
 13 16  1  0  0  0  0
 11 12  1  0  0  0  0
 11 13  1  0  0  0  0
 11 17  1  0  0  0  0
  9 10  1  0  0  0  0
  9 11  1  0  0  0  0
  9 24  1  0  0  0  0
  7  8  1  0  0  0  0
  7  9  1  0  0  0  0
 28 29  1  0  0  0  0
 28 30  1  0  0  0  0
 28 31  1  0  0  0  0
 26 27  1  0  0  0  0
 26 28  1  0  0  0  0
M  END
$$$$
default_name
  -OEChem-01062215323D

 31 30  0     1  0  0  0  0  0999 V2000
   -3.0760   -3.6390    1.5496 H   0  0  0  0  0  0  0  0  0  0  0  0
   -3.0940   -2.6290    1.1426 C   0  0  0  0  0  0  0  0  0  0  0  0
   -3.7160   -1.9930    1.7706 H   0  0  0  0  0  0  0  0  0  0  0  0
   -3.4880   -2.6500    0.1286 H   0  0  0  0  0  0  0  0  0  0  0  0
   -1.6860   -2.0850    1.1196 C   0  0  0  0  0  0  0  0  0  0  0  0
   -0.7540   -2.7700    1.5226 O   0  0  0  0  0  0  0  0  0  0  0  0
   -1.5320   -0.8490    0.6496 N   0  0  0  0  0  0  0  0  0  0  0  0
   -2.3500   -0.3360    0.3566 H   0  0  0  0  0  0  0  0  0  0  0  0
   -0.2470   -0.1410    0.5576 C   0  0  1  0  0  0  0  0  0  0  0  0
    0.0018    0.2202    1.5561 H   0  0  0  0  0  0  0  0  0  0  0  0
    0.8729   -1.1154    0.1119 C   0  0  1  0  0  0  0  0  0  0  0  0
    0.5367   -1.5909   -0.8116 H   0  0  0  0  0  0  0  0  0  0  0  0
    2.1982   -0.3901   -0.1899 C   0  0  0  0  0  0  0  0  0  0  0  0
    2.6165    0.0404    0.7217 H   0  0  0  0  0  0  0  0  0  0  0  0
    2.9196   -1.0834   -0.6194 H   0  0  0  0  0  0  0  0  0  0  0  0
    2.0338    0.4095   -0.9131 H   0  0  0  0  0  0  0  0  0  0  0  0
    1.0816   -2.2347    1.1564 C   0  0  0  0  0  0  0  0  0  0  0  0
    1.5155   -1.8183    2.0665 H   0  0  0  0  0  0  0  0  0  0  0  0
    0.1124   -2.6664    1.4062 H   0  0  0  0  0  0  0  0  0  0  0  0
    1.9791   -3.3784    0.6648 C   0  0  0  0  0  0  0  0  0  0  0  0
    2.9961   -3.0228    0.5008 H   0  0  0  0  0  0  0  0  0  0  0  0
    2.0043   -4.1652    1.4190 H   0  0  0  0  0  0  0  0  0  0  0  0
    1.5830   -3.7906   -0.2639 H   0  0  0  0  0  0  0  0  0  0  0  0
   -0.3813    1.0868   -0.3575 C   0  0  0  0  0  0  0  0  0  0  0  0
   -1.4533    1.6843   -0.4415 O   0  0  0  0  0  0  0  0  0  0  0  0
    0.7071    1.4712   -1.0361 N   0  0  0  0  0  0  0  0  0  0  0  0
    1.5536    0.9394   -0.9083 H   0  0  0  0  0  0  0  0  0  0  0  0
    0.7421    2.6120   -1.9492 C   0  0  0  0  0  0  0  0  0  0  0  0
    0.3643    3.5022   -1.4414 H   0  0  0  0  0  0  0  0  0  0  0  0
    1.7635    2.7970   -2.2851 H   0  0  0  0  0  0  0  0  0  0  0  0
    0.1066    2.4102   -2.8135 H   0  0  0  0  0  0  0  0  0  0  0  0
  5  6  2  0  0  0  0
  5  7  1  0  0  0  0
  2  3  1  0  0  0  0
  2  4  1  0  0  0  0
  2  5  1  0  0  0  0
  1  2  1  0  0  0  0
 24 25  2  0  0  0  0
 24 26  1  0  0  0  0
 20 21  1  0  0  0  0
 20 22  1  0  0  0  0
 20 23  1  0  0  0  0
 17 18  1  0  0  0  0
 17 19  1  0  0  0  0
 17 20  1  0  0  0  0
 13 14  1  0  0  0  0
 13 15  1  0  0  0  0
 13 16  1  0  0  0  0
 11 12  1  0  0  0  0
 11 13  1  0  0  0  0
 11 17  1  0  0  0  0
  9 10  1  0  0  0  0
  9 11  1  0  0  0  0
  9 24  1  0  0  0  0
  7  8  1  0  0  0  0
  7  9  1  0  0  0  0
 28 29  1  0  0  0  0
 28 30  1  0  0  0  0
 28 31  1  0  0  0  0
 26 27  1  0  0  0  0
 26 28  1  0  0  0  0
M  END
$$$$
default_name
  -OEChem-01062215323D

 31 30  0     1  0  0  0  0  0999 V2000
   -3.0760   -3.6390    1.5496 H   0  0  0  0  0  0  0  0  0  0  0  0
   -3.0940   -2.6290    1.1426 C   0  0  0  0  0  0  0  0  0  0  0  0
   -3.7160   -1.9930    1.7706 H   0  0  0  0  0  0  0  0  0  0  0  0
   -3.4880   -2.6500    0.1286 H   0  0  0  0  0  0  0  0  0  0  0  0
   -1.6860   -2.0850    1.1196 C   0  0  0  0  0  0  0  0  0  0  0  0
   -0.7540   -2.7700    1.5226 O   0  0  0  0  0  0  0  0  0  0  0  0
   -1.5320   -0.8490    0.6496 N   0  0  0  0  0  0  0  0  0  0  0  0
   -2.3500   -0.3360    0.3566 H   0  0  0  0  0  0  0  0  0  0  0  0
   -0.2470   -0.1410    0.5576 C   0  0  1  0  0  0  0  0  0  0  0  0
    0.0018    0.2202    1.5561 H   0  0  0  0  0  0  0  0  0  0  0  0
    0.8729   -1.1154    0.1119 C   0  0  1  0  0  0  0  0  0  0  0  0
    0.5367   -1.5909   -0.8116 H   0  0  0  0  0  0  0  0  0  0  0  0
    2.1982   -0.3901   -0.1899 C   0  0  0  0  0  0  0  0  0  0  0  0
    2.6165    0.0404    0.7217 H   0  0  0  0  0  0  0  0  0  0  0  0
    2.9196   -1.0834   -0.6194 H   0  0  0  0  0  0  0  0  0  0  0  0
    2.0338    0.4095   -0.9131 H   0  0  0  0  0  0  0  0  0  0  0  0
    1.0816   -2.2347    1.1564 C   0  0  0  0  0  0  0  0  0  0  0  0
    1.5155   -1.8183    2.0665 H   0  0  0  0  0  0  0  0  0  0  0  0
    0.1124   -2.6664    1.4062 H   0  0  0  0  0  0  0  0  0  0  0  0
    1.9791   -3.3784    0.6648 C   0  0  0  0  0  0  0  0  0  0  0  0
    2.9961   -3.0228    0.5008 H   0  0  0  0  0  0  0  0  0  0  0  0
    2.0043   -4.1652    1.4190 H   0  0  0  0  0  0  0  0  0  0  0  0
    1.5830   -3.7906   -0.2639 H   0  0  0  0  0  0  0  0  0  0  0  0
   -0.3813    1.0868   -0.3575 C   0  0  0  0  0  0  0  0  0  0  0  0
   -1.3439    1.8441   -0.2431 O   0  0  0  0  0  0  0  0  0  0  0  0
    0.5872    1.2918   -1.2592 N   0  0  0  0  0  0  0  0  0  0  0  0
    1.3510    0.6350   -1.2870 H   0  0  0  0  0  0  0  0  0  0  0  0
    0.6037    2.4072   -2.2036 C   0  0  0  0  0  0  0  0  0  0  0  0
    0.4795    3.3488   -1.6641 H   0  0  0  0  0  0  0  0  0  0  0  0
    1.5485    2.4280   -2.7487 H   0  0  0  0  0  0  0  0  0  0  0  0
   -0.2212    2.3018   -2.9109 H   0  0  0  0  0  0  0  0  0  0  0  0
  5  6  2  0  0  0  0
  5  7  1  0  0  0  0
  2  3  1  0  0  0  0
  2  4  1  0  0  0  0
  2  5  1  0  0  0  0
  1  2  1  0  0  0  0
 24 25  2  0  0  0  0
 24 26  1  0  0  0  0
 20 21  1  0  0  0  0
 20 22  1  0  0  0  0
 20 23  1  0  0  0  0
 17 18  1  0  0  0  0
 17 19  1  0  0  0  0
 17 20  1  0  0  0  0
 13 14  1  0  0  0  0
 13 15  1  0  0  0  0
 13 16  1  0  0  0  0
 11 12  1  0  0  0  0
 11 13  1  0  0  0  0
 11 17  1  0  0  0  0
  9 10  1  0  0  0  0
  9 11  1  0  0  0  0
  9 24  1  0  0  0  0
  7  8  1  0  0  0  0
  7  9  1  0  0  0  0
 28 29  1  0  0  0  0
 28 30  1  0  0  0  0
 28 31  1  0  0  0  0
 26 27  1  0  0  0  0
 26 28  1  0  0  0  0
M  END
$$$$
default_name
  -OEChem-01062215323D

 31 30  0     1  0  0  0  0  0999 V2000
   -3.0760   -3.6390    1.5496 H   0  0  0  0  0  0  0  0  0  0  0  0
   -3.0940   -2.6290    1.1426 C   0  0  0  0  0  0  0  0  0  0  0  0
   -3.7160   -1.9930    1.7706 H   0  0  0  0  0  0  0  0  0  0  0  0
   -3.4880   -2.6500    0.1286 H   0  0  0  0  0  0  0  0  0  0  0  0
   -1.6860   -2.0850    1.1196 C   0  0  0  0  0  0  0  0  0  0  0  0
   -0.7540   -2.7700    1.5226 O   0  0  0  0  0  0  0  0  0  0  0  0
   -1.5320   -0.8490    0.6496 N   0  0  0  0  0  0  0  0  0  0  0  0
   -2.3500   -0.3360    0.3566 H   0  0  0  0  0  0  0  0  0  0  0  0
   -0.2470   -0.1410    0.5576 C   0  0  1  0  0  0  0  0  0  0  0  0
    0.0018    0.2202    1.5561 H   0  0  0  0  0  0  0  0  0  0  0  0
    0.8729   -1.1154    0.1119 C   0  0  1  0  0  0  0  0  0  0  0  0
    0.5367   -1.5909   -0.8116 H   0  0  0  0  0  0  0  0  0  0  0  0
    2.1982   -0.3901   -0.1899 C   0  0  0  0  0  0  0  0  0  0  0  0
    2.6165    0.0404    0.7217 H   0  0  0  0  0  0  0  0  0  0  0  0
    2.9196   -1.0834   -0.6194 H   0  0  0  0  0  0  0  0  0  0  0  0
    2.0338    0.4095   -0.9131 H   0  0  0  0  0  0  0  0  0  0  0  0
    1.0816   -2.2347    1.1564 C   0  0  0  0  0  0  0  0  0  0  0  0
    1.5155   -1.8183    2.0665 H   0  0  0  0  0  0  0  0  0  0  0  0
    0.1124   -2.6664    1.4062 H   0  0  0  0  0  0  0  0  0  0  0  0
    1.9791   -3.3784    0.6648 C   0  0  0  0  0  0  0  0  0  0  0  0
    2.9961   -3.0228    0.5008 H   0  0  0  0  0  0  0  0  0  0  0  0
    2.0043   -4.1652    1.4190 H   0  0  0  0  0  0  0  0  0  0  0  0
    1.5830   -3.7906   -0.2639 H   0  0  0  0  0  0  0  0  0  0  0  0
   -0.3813    1.0868   -0.3575 C   0  0  0  0  0  0  0  0  0  0  0  0
   -1.1726    1.9861   -0.0777 O   0  0  0  0  0  0  0  0  0  0  0  0
    0.3975    1.1320   -1.4458 N   0  0  0  0  0  0  0  0  0  0  0  0
    1.0300    0.3635   -1.6040 H   0  0  0  0  0  0  0  0  0  0  0  0
    0.3858    2.2250   -2.4161 C   0  0  0  0  0  0  0  0  0  0  0  0
    0.5211    3.1778   -1.8996 H   0  0  0  0  0  0  0  0  0  0  0  0
    1.1882    2.0942   -3.1437 H   0  0  0  0  0  0  0  0  0  0  0  0
   -0.5747    2.2454   -2.9347 H   0  0  0  0  0  0  0  0  0  0  0  0
  5  6  2  0  0  0  0
  5  7  1  0  0  0  0
  2  3  1  0  0  0  0
  2  4  1  0  0  0  0
  2  5  1  0  0  0  0
  1  2  1  0  0  0  0
 24 25  2  0  0  0  0
 24 26  1  0  0  0  0
 20 21  1  0  0  0  0
 20 22  1  0  0  0  0
 20 23  1  0  0  0  0
 17 18  1  0  0  0  0
 17 19  1  0  0  0  0
 17 20  1  0  0  0  0
 13 14  1  0  0  0  0
 13 15  1  0  0  0  0
 13 16  1  0  0  0  0
 11 12  1  0  0  0  0
 11 13  1  0  0  0  0
 11 17  1  0  0  0  0
  9 10  1  0  0  0  0
  9 11  1  0  0  0  0
  9 24  1  0  0  0  0
  7  8  1  0  0  0  0
  7  9  1  0  0  0  0
 28 29  1  0  0  0  0
 28 30  1  0  0  0  0
 28 31  1  0  0  0  0
 26 27  1  0  0  0  0
 26 28  1  0  0  0  0
M  END
$$$$
default_name
  -OEChem-01062215323D

 31 30  0     1  0  0  0  0  0999 V2000
   -3.0760   -3.6390    1.5496 H   0  0  0  0  0  0  0  0  0  0  0  0
   -3.0940   -2.6290    1.1426 C   0  0  0  0  0  0  0  0  0  0  0  0
   -3.7160   -1.9930    1.7706 H   0  0  0  0  0  0  0  0  0  0  0  0
   -3.4880   -2.6500    0.1286 H   0  0  0  0  0  0  0  0  0  0  0  0
   -1.6860   -2.0850    1.1196 C   0  0  0  0  0  0  0  0  0  0  0  0
   -0.7540   -2.7700    1.5226 O   0  0  0  0  0  0  0  0  0  0  0  0
   -1.5320   -0.8490    0.6496 N   0  0  0  0  0  0  0  0  0  0  0  0
   -2.3500   -0.3360    0.3566 H   0  0  0  0  0  0  0  0  0  0  0  0
   -0.2470   -0.1410    0.5576 C   0  0  1  0  0  0  0  0  0  0  0  0
    0.0018    0.2202    1.5561 H   0  0  0  0  0  0  0  0  0  0  0  0
    0.8729   -1.1154    0.1119 C   0  0  1  0  0  0  0  0  0  0  0  0
    0.5367   -1.5909   -0.8116 H   0  0  0  0  0  0  0  0  0  0  0  0
    2.1982   -0.3901   -0.1899 C   0  0  0  0  0  0  0  0  0  0  0  0
    2.6165    0.0404    0.7217 H   0  0  0  0  0  0  0  0  0  0  0  0
    2.9196   -1.0834   -0.6194 H   0  0  0  0  0  0  0  0  0  0  0  0
    2.0338    0.4095   -0.9131 H   0  0  0  0  0  0  0  0  0  0  0  0
    1.0816   -2.2347    1.1564 C   0  0  0  0  0  0  0  0  0  0  0  0
    1.5155   -1.8183    2.0665 H   0  0  0  0  0  0  0  0  0  0  0  0
    0.1124   -2.6664    1.4062 H   0  0  0  0  0  0  0  0  0  0  0  0
    1.9791   -3.3784    0.6648 C   0  0  0  0  0  0  0  0  0  0  0  0
    2.9961   -3.0228    0.5008 H   0  0  0  0  0  0  0  0  0  0  0  0
    2.0043   -4.1652    1.4190 H   0  0  0  0  0  0  0  0  0  0  0  0
    1.5830   -3.7906   -0.2639 H   0  0  0  0  0  0  0  0  0  0  0  0
   -0.3813    1.0868   -0.3575 C   0  0  0  0  0  0  0  0  0  0  0  0
   -0.9511    2.1006    0.0434 O   0  0  0  0  0  0  0  0  0  0  0  0
    0.1512    1.0026   -1.5832 N   0  0  0  0  0  0  0  0  0  0  0  0
    0.6127    0.1437   -1.8378 H   0  0  0  0  0  0  0  0  0  0  0  0
    0.1033    2.0777   -2.5722 C   0  0  0  0  0  0  0  0  0  0  0  0
    0.4863    3.0009   -2.1318 H   0  0  0  0  0  0  0  0  0  0  0  0
    0.7070    1.8183   -3.4431 H   0  0  0  0  0  0  0  0  0  0  0  0
   -0.9297    2.2448   -2.8833 H   0  0  0  0  0  0  0  0  0  0  0  0
  5  6  2  0  0  0  0
  5  7  1  0  0  0  0
  2  3  1  0  0  0  0
  2  4  1  0  0  0  0
  2  5  1  0  0  0  0
  1  2  1  0  0  0  0
 24 25  2  0  0  0  0
 24 26  1  0  0  0  0
 20 21  1  0  0  0  0
 20 22  1  0  0  0  0
 20 23  1  0  0  0  0
 17 18  1  0  0  0  0
 17 19  1  0  0  0  0
 17 20  1  0  0  0  0
 13 14  1  0  0  0  0
 13 15  1  0  0  0  0
 13 16  1  0  0  0  0
 11 12  1  0  0  0  0
 11 13  1  0  0  0  0
 11 17  1  0  0  0  0
  9 10  1  0  0  0  0
  9 11  1  0  0  0  0
  9 24  1  0  0  0  0
  7  8  1  0  0  0  0
  7  9  1  0  0  0  0
 28 29  1  0  0  0  0
 28 30  1  0  0  0  0
 28 31  1  0  0  0  0
 26 27  1  0  0  0  0
 26 28  1  0  0  0  0
M  END
$$$$
default_name
  -OEChem-01062215323D

 31 30  0     1  0  0  0  0  0999 V2000
   -3.0760   -3.6390    1.5496 H   0  0  0  0  0  0  0  0  0  0  0  0
   -3.0940   -2.6290    1.1426 C   0  0  0  0  0  0  0  0  0  0  0  0
   -3.7160   -1.9930    1.7706 H   0  0  0  0  0  0  0  0  0  0  0  0
   -3.4880   -2.6500    0.1286 H   0  0  0  0  0  0  0  0  0  0  0  0
   -1.6860   -2.0850    1.1196 C   0  0  0  0  0  0  0  0  0  0  0  0
   -0.7540   -2.7700    1.5226 O   0  0  0  0  0  0  0  0  0  0  0  0
   -1.5320   -0.8490    0.6496 N   0  0  0  0  0  0  0  0  0  0  0  0
   -2.3500   -0.3360    0.3566 H   0  0  0  0  0  0  0  0  0  0  0  0
   -0.2470   -0.1410    0.5576 C   0  0  1  0  0  0  0  0  0  0  0  0
    0.0018    0.2202    1.5561 H   0  0  0  0  0  0  0  0  0  0  0  0
    0.8729   -1.1154    0.1119 C   0  0  1  0  0  0  0  0  0  0  0  0
    0.5367   -1.5909   -0.8116 H   0  0  0  0  0  0  0  0  0  0  0  0
    2.1982   -0.3901   -0.1899 C   0  0  0  0  0  0  0  0  0  0  0  0
    2.6165    0.0404    0.7217 H   0  0  0  0  0  0  0  0  0  0  0  0
    2.9196   -1.0834   -0.6194 H   0  0  0  0  0  0  0  0  0  0  0  0
    2.0338    0.4095   -0.9131 H   0  0  0  0  0  0  0  0  0  0  0  0
    1.0816   -2.2347    1.1564 C   0  0  0  0  0  0  0  0  0  0  0  0
    1.5155   -1.8183    2.0665 H   0  0  0  0  0  0  0  0  0  0  0  0
    0.1124   -2.6664    1.4062 H   0  0  0  0  0  0  0  0  0  0  0  0
    1.9791   -3.3784    0.6648 C   0  0  0  0  0  0  0  0  0  0  0  0
    2.9961   -3.0228    0.5008 H   0  0  0  0  0  0  0  0  0  0  0  0
    2.0043   -4.1652    1.4190 H   0  0  0  0  0  0  0  0  0  0  0  0
    1.5830   -3.7906   -0.2639 H   0  0  0  0  0  0  0  0  0  0  0  0
   -0.3813    1.0868   -0.3575 C   0  0  0  0  0  0  0  0  0  0  0  0
   -0.6945    2.1798    0.1120 O   0  0  0  0  0  0  0  0  0  0  0  0
   -0.1352    0.9125   -1.6621 N   0  0  0  0  0  0  0  0  0  0  0  0
    0.1274   -0.0097   -1.9724 H   0  0  0  0  0  0  0  0  0  0  0  0
   -0.2245    1.9755   -2.6613 C   0  0  0  0  0  0  0  0  0  0  0  0
    0.3774    2.8302   -2.3449 H   0  0  0  0  0  0  0  0  0  0  0  0
    0.1378    1.6193   -3.6267 H   0  0  0  0  0  0  0  0  0  0  0  0
   -1.2621    2.3002   -2.7603 H   0  0  0  0  0  0  0  0  0  0  0  0
  5  6  2  0  0  0  0
  5  7  1  0  0  0  0
  2  3  1  0  0  0  0
  2  4  1  0  0  0  0
  2  5  1  0  0  0  0
  1  2  1  0  0  0  0
 24 25  2  0  0  0  0
 24 26  1  0  0  0  0
 20 21  1  0  0  0  0
 20 22  1  0  0  0  0
 20 23  1  0  0  0  0
 17 18  1  0  0  0  0
 17 19  1  0  0  0  0
 17 20  1  0  0  0  0
 13 14  1  0  0  0  0
 13 15  1  0  0  0  0
 13 16  1  0  0  0  0
 11 12  1  0  0  0  0
 11 13  1  0  0  0  0
 11 17  1  0  0  0  0
  9 10  1  0  0  0  0
  9 11  1  0  0  0  0
  9 24  1  0  0  0  0
  7  8  1  0  0  0  0
  7  9  1  0  0  0  0
 28 29  1  0  0  0  0
 28 30  1  0  0  0  0
 28 31  1  0  0  0  0
 26 27  1  0  0  0  0
 26 28  1  0  0  0  0
M  END
$$$$
default_name
  -OEChem-01062215323D

 31 30  0     1  0  0  0  0  0999 V2000
   -3.0760   -3.6390    1.5496 H   0  0  0  0  0  0  0  0  0  0  0  0
   -3.0940   -2.6290    1.1426 C   0  0  0  0  0  0  0  0  0  0  0  0
   -3.7160   -1.9930    1.7706 H   0  0  0  0  0  0  0  0  0  0  0  0
   -3.4880   -2.6500    0.1286 H   0  0  0  0  0  0  0  0  0  0  0  0
   -1.6860   -2.0850    1.1196 C   0  0  0  0  0  0  0  0  0  0  0  0
   -0.7540   -2.7700    1.5226 O   0  0  0  0  0  0  0  0  0  0  0  0
   -1.5320   -0.8490    0.6496 N   0  0  0  0  0  0  0  0  0  0  0  0
   -2.3500   -0.3360    0.3566 H   0  0  0  0  0  0  0  0  0  0  0  0
   -0.2470   -0.1410    0.5576 C   0  0  1  0  0  0  0  0  0  0  0  0
    0.0018    0.2202    1.5561 H   0  0  0  0  0  0  0  0  0  0  0  0
    0.8729   -1.1154    0.1119 C   0  0  1  0  0  0  0  0  0  0  0  0
    0.5367   -1.5909   -0.8116 H   0  0  0  0  0  0  0  0  0  0  0  0
    2.1982   -0.3901   -0.1899 C   0  0  0  0  0  0  0  0  0  0  0  0
    2.6165    0.0404    0.7217 H   0  0  0  0  0  0  0  0  0  0  0  0
    2.9196   -1.0834   -0.6194 H   0  0  0  0  0  0  0  0  0  0  0  0
    2.0338    0.4095   -0.9131 H   0  0  0  0  0  0  0  0  0  0  0  0
    1.0816   -2.2347    1.1564 C   0  0  0  0  0  0  0  0  0  0  0  0
    1.5155   -1.8183    2.0665 H   0  0  0  0  0  0  0  0  0  0  0  0
    0.1124   -2.6664    1.4062 H   0  0  0  0  0  0  0  0  0  0  0  0
    1.9791   -3.3784    0.6648 C   0  0  0  0  0  0  0  0  0  0  0  0
    2.9961   -3.0228    0.5008 H   0  0  0  0  0  0  0  0  0  0  0  0
    2.0043   -4.1652    1.4190 H   0  0  0  0  0  0  0  0  0  0  0  0
    1.5830   -3.7906   -0.2639 H   0  0  0  0  0  0  0  0  0  0  0  0
   -0.3813    1.0868   -0.3575 C   0  0  0  0  0  0  0  0  0  0  0  0
   -0.4202    2.2184    0.1234 O   0  0  0  0  0  0  0  0  0  0  0  0
   -0.4420    0.8678   -1.6771 N   0  0  0  0  0  0  0  0  0  0  0  0
   -0.3929   -0.0861   -1.9985 H   0  0  0  0  0  0  0  0  0  0  0  0
   -0.5754    1.9252   -2.6773 C   0  0  0  0  0  0  0  0  0  0  0  0
    0.2019    2.6772   -2.5243 H   0  0  0  0  0  0  0  0  0  0  0  0
   -0.4806    1.5105   -3.6819 H   0  0  0  0  0  0  0  0  0  0  0  0
   -1.5492    2.4076   -2.5741 H   0  0  0  0  0  0  0  0  0  0  0  0
  5  6  2  0  0  0  0
  5  7  1  0  0  0  0
  2  3  1  0  0  0  0
  2  4  1  0  0  0  0
  2  5  1  0  0  0  0
  1  2  1  0  0  0  0
 24 25  2  0  0  0  0
 24 26  1  0  0  0  0
 20 21  1  0  0  0  0
 20 22  1  0  0  0  0
 20 23  1  0  0  0  0
 17 18  1  0  0  0  0
 17 19  1  0  0  0  0
 17 20  1  0  0  0  0
 13 14  1  0  0  0  0
 13 15  1  0  0  0  0
 13 16  1  0  0  0  0
 11 12  1  0  0  0  0
 11 13  1  0  0  0  0
 11 17  1  0  0  0  0
  9 10  1  0  0  0  0
  9 11  1  0  0  0  0
  9 24  1  0  0  0  0
  7  8  1  0  0  0  0
  7  9  1  0  0  0  0
 28 29  1  0  0  0  0
 28 30  1  0  0  0  0
 28 31  1  0  0  0  0
 26 27  1  0  0  0  0
 26 28  1  0  0  0  0
M  END
$$$$
default_name
  -OEChem-01062215323D

 31 30  0     1  0  0  0  0  0999 V2000
   -3.0760   -3.6390    1.5496 H   0  0  0  0  0  0  0  0  0  0  0  0
   -3.0940   -2.6290    1.1426 C   0  0  0  0  0  0  0  0  0  0  0  0
   -3.7160   -1.9930    1.7706 H   0  0  0  0  0  0  0  0  0  0  0  0
   -3.4880   -2.6500    0.1286 H   0  0  0  0  0  0  0  0  0  0  0  0
   -1.6860   -2.0850    1.1196 C   0  0  0  0  0  0  0  0  0  0  0  0
   -0.7540   -2.7700    1.5226 O   0  0  0  0  0  0  0  0  0  0  0  0
   -1.5320   -0.8490    0.6496 N   0  0  0  0  0  0  0  0  0  0  0  0
   -2.3500   -0.3360    0.3566 H   0  0  0  0  0  0  0  0  0  0  0  0
   -0.2470   -0.1410    0.5576 C   0  0  1  0  0  0  0  0  0  0  0  0
    0.0018    0.2202    1.5561 H   0  0  0  0  0  0  0  0  0  0  0  0
    0.8729   -1.1154    0.1119 C   0  0  1  0  0  0  0  0  0  0  0  0
    0.5367   -1.5909   -0.8116 H   0  0  0  0  0  0  0  0  0  0  0  0
    2.1982   -0.3901   -0.1899 C   0  0  0  0  0  0  0  0  0  0  0  0
    2.6165    0.0404    0.7217 H   0  0  0  0  0  0  0  0  0  0  0  0
    2.9196   -1.0834   -0.6194 H   0  0  0  0  0  0  0  0  0  0  0  0
    2.0338    0.4095   -0.9131 H   0  0  0  0  0  0  0  0  0  0  0  0
    1.0816   -2.2347    1.1564 C   0  0  0  0  0  0  0  0  0  0  0  0
    1.5155   -1.8183    2.0665 H   0  0  0  0  0  0  0  0  0  0  0  0
    0.1124   -2.6664    1.4062 H   0  0  0  0  0  0  0  0  0  0  0  0
    1.9791   -3.3784    0.6648 C   0  0  0  0  0  0  0  0  0  0  0  0
    2.9961   -3.0228    0.5008 H   0  0  0  0  0  0  0  0  0  0  0  0
    2.0043   -4.1652    1.4190 H   0  0  0  0  0  0  0  0  0  0  0  0
    1.5830   -3.7906   -0.2639 H   0  0  0  0  0  0  0  0  0  0  0  0
   -0.3813    1.0868   -0.3575 C   0  0  0  0  0  0  0  0  0  0  0  0
   -0.1469    2.2136    0.0769 O   0  0  0  0  0  0  0  0  0  0  0  0
   -0.7483    0.8715   -1.6272 N   0  0  0  0  0  0  0  0  0  0  0  0
   -0.9126   -0.0804   -1.9145 H   0  0  0  0  0  0  0  0  0  0  0  0
   -0.9253    1.9304   -2.6190 C   0  0  0  0  0  0  0  0  0  0  0  0
   -0.0283    2.5525   -2.6579 H   0  0  0  0  0  0  0  0  0  0  0  0
   -1.1061    1.4995   -3.6048 H   0  0  0  0  0  0  0  0  0  0  0  0
   -1.7715    2.5598   -2.3372 H   0  0  0  0  0  0  0  0  0  0  0  0
  5  6  2  0  0  0  0
  5  7  1  0  0  0  0
  2  3  1  0  0  0  0
  2  4  1  0  0  0  0
  2  5  1  0  0  0  0
  1  2  1  0  0  0  0
 24 25  2  0  0  0  0
 24 26  1  0  0  0  0
 20 21  1  0  0  0  0
 20 22  1  0  0  0  0
 20 23  1  0  0  0  0
 17 18  1  0  0  0  0
 17 19  1  0  0  0  0
 17 20  1  0  0  0  0
 13 14  1  0  0  0  0
 13 15  1  0  0  0  0
 13 16  1  0  0  0  0
 11 12  1  0  0  0  0
 11 13  1  0  0  0  0
 11 17  1  0  0  0  0
  9 10  1  0  0  0  0
  9 11  1  0  0  0  0
  9 24  1  0  0  0  0
  7  8  1  0  0  0  0
  7  9  1  0  0  0  0
 28 29  1  0  0  0  0
 28 30  1  0  0  0  0
 28 31  1  0  0  0  0
 26 27  1  0  0  0  0
 26 28  1  0  0  0  0
M  END
$$$$
default_name
  -OEChem-01062215323D

 31 30  0     1  0  0  0  0  0999 V2000
   -3.0760   -3.6390    1.5496 H   0  0  0  0  0  0  0  0  0  0  0  0
   -3.0940   -2.6290    1.1426 C   0  0  0  0  0  0  0  0  0  0  0  0
   -3.7160   -1.9930    1.7706 H   0  0  0  0  0  0  0  0  0  0  0  0
   -3.4880   -2.6500    0.1286 H   0  0  0  0  0  0  0  0  0  0  0  0
   -1.6860   -2.0850    1.1196 C   0  0  0  0  0  0  0  0  0  0  0  0
   -0.7540   -2.7700    1.5226 O   0  0  0  0  0  0  0  0  0  0  0  0
   -1.5320   -0.8490    0.6496 N   0  0  0  0  0  0  0  0  0  0  0  0
   -2.3500   -0.3360    0.3566 H   0  0  0  0  0  0  0  0  0  0  0  0
   -0.2470   -0.1410    0.5576 C   0  0  1  0  0  0  0  0  0  0  0  0
    0.0018    0.2202    1.5561 H   0  0  0  0  0  0  0  0  0  0  0  0
    0.8729   -1.1154    0.1119 C   0  0  1  0  0  0  0  0  0  0  0  0
    0.5367   -1.5909   -0.8116 H   0  0  0  0  0  0  0  0  0  0  0  0
    2.1982   -0.3901   -0.1899 C   0  0  0  0  0  0  0  0  0  0  0  0
    2.6165    0.0404    0.7217 H   0  0  0  0  0  0  0  0  0  0  0  0
    2.9196   -1.0834   -0.6194 H   0  0  0  0  0  0  0  0  0  0  0  0
    2.0338    0.4095   -0.9131 H   0  0  0  0  0  0  0  0  0  0  0  0
    1.0816   -2.2347    1.1564 C   0  0  0  0  0  0  0  0  0  0  0  0
    1.5155   -1.8183    2.0665 H   0  0  0  0  0  0  0  0  0  0  0  0
    0.1124   -2.6664    1.4062 H   0  0  0  0  0  0  0  0  0  0  0  0
    1.9791   -3.3784    0.6648 C   0  0  0  0  0  0  0  0  0  0  0  0
    2.9961   -3.0228    0.5008 H   0  0  0  0  0  0  0  0  0  0  0  0
    2.0043   -4.1652    1.4190 H   0  0  0  0  0  0  0  0  0  0  0  0
    1.5830   -3.7906   -0.2639 H   0  0  0  0  0  0  0  0  0  0  0  0
   -0.3813    1.0868   -0.3575 C   0  0  0  0  0  0  0  0  0  0  0  0
    0.1066    2.1658   -0.0244 O   0  0  0  0  0  0  0  0  0  0  0  0
   -1.0333    0.9234   -1.5157 N   0  0  0  0  0  0  0  0  0  0  0  0
   -1.3963    0.0072   -1.7261 H   0  0  0  0  0  0  0  0  0  0  0  0
   -1.2504    1.9906   -2.4905 C   0  0  0  0  0  0  0  0  0  0  0  0
   -0.2976    2.4644   -2.7366 H   0  0  0  0  0  0  0  0  0  0  0  0
   -1.6960    1.5870   -3.4009 H   0  0  0  0  0  0  0  0  0  0  0  0
   -1.9138    2.7465   -2.0659 H   0  0  0  0  0  0  0  0  0  0  0  0
  5  6  2  0  0  0  0
  5  7  1  0  0  0  0
  2  3  1  0  0  0  0
  2  4  1  0  0  0  0
  2  5  1  0  0  0  0
  1  2  1  0  0  0  0
 24 25  2  0  0  0  0
 24 26  1  0  0  0  0
 20 21  1  0  0  0  0
 20 22  1  0  0  0  0
 20 23  1  0  0  0  0
 17 18  1  0  0  0  0
 17 19  1  0  0  0  0
 17 20  1  0  0  0  0
 13 14  1  0  0  0  0
 13 15  1  0  0  0  0
 13 16  1  0  0  0  0
 11 12  1  0  0  0  0
 11 13  1  0  0  0  0
 11 17  1  0  0  0  0
  9 10  1  0  0  0  0
  9 11  1  0  0  0  0
  9 24  1  0  0  0  0
  7  8  1  0  0  0  0
  7  9  1  0  0  0  0
 28 29  1  0  0  0  0
 28 30  1  0  0  0  0
 28 31  1  0  0  0  0
 26 27  1  0  0  0  0
 26 28  1  0  0  0  0
M  END
$$$$
default_name
  -OEChem-01062215323D

 31 30  0     1  0  0  0  0  0999 V2000
   -3.0760   -3.6390    1.5496 H   0  0  0  0  0  0  0  0  0  0  0  0
   -3.0940   -2.6290    1.1426 C   0  0  0  0  0  0  0  0  0  0  0  0
   -3.7160   -1.9930    1.7706 H   0  0  0  0  0  0  0  0  0  0  0  0
   -3.4880   -2.6500    0.1286 H   0  0  0  0  0  0  0  0  0  0  0  0
   -1.6860   -2.0850    1.1196 C   0  0  0  0  0  0  0  0  0  0  0  0
   -0.7540   -2.7700    1.5226 O   0  0  0  0  0  0  0  0  0  0  0  0
   -1.5320   -0.8490    0.6496 N   0  0  0  0  0  0  0  0  0  0  0  0
   -2.3500   -0.3360    0.3566 H   0  0  0  0  0  0  0  0  0  0  0  0
   -0.2470   -0.1410    0.5576 C   0  0  1  0  0  0  0  0  0  0  0  0
    0.0018    0.2202    1.5561 H   0  0  0  0  0  0  0  0  0  0  0  0
    0.8729   -1.1154    0.1119 C   0  0  1  0  0  0  0  0  0  0  0  0
    0.5367   -1.5909   -0.8116 H   0  0  0  0  0  0  0  0  0  0  0  0
    2.1982   -0.3901   -0.1899 C   0  0  0  0  0  0  0  0  0  0  0  0
    2.6165    0.0404    0.7217 H   0  0  0  0  0  0  0  0  0  0  0  0
    2.9196   -1.0834   -0.6194 H   0  0  0  0  0  0  0  0  0  0  0  0
    2.0338    0.4095   -0.9131 H   0  0  0  0  0  0  0  0  0  0  0  0
    1.0816   -2.2347    1.1564 C   0  0  0  0  0  0  0  0  0  0  0  0
    1.5155   -1.8183    2.0665 H   0  0  0  0  0  0  0  0  0  0  0  0
    0.1124   -2.6664    1.4062 H   0  0  0  0  0  0  0  0  0  0  0  0
    1.9791   -3.3784    0.6648 C   0  0  0  0  0  0  0  0  0  0  0  0
    2.9961   -3.0228    0.5008 H   0  0  0  0  0  0  0  0  0  0  0  0
    2.0043   -4.1652    1.4190 H   0  0  0  0  0  0  0  0  0  0  0  0
    1.5830   -3.7906   -0.2639 H   0  0  0  0  0  0  0  0  0  0  0  0
   -0.3813    1.0868   -0.3575 C   0  0  0  0  0  0  0  0  0  0  0  0
    0.3233    2.0783   -0.1737 O   0  0  0  0  0  0  0  0  0  0  0  0
   -1.2775    1.0200   -1.3502 N   0  0  0  0  0  0  0  0  0  0  0  0
   -1.8111    0.1705   -1.4461 H   0  0  0  0  0  0  0  0  0  0  0  0
   -1.5286    2.1017   -2.3005 C   0  0  0  0  0  0  0  0  0  0  0  0
   -0.5874    2.4191   -2.7549 H   0  0  0  0  0  0  0  0  0  0  0  0
   -2.2102    1.7670   -3.0839 H   0  0  0  0  0  0  0  0  0  0  0  0
   -1.9664    2.9548   -1.7786 H   0  0  0  0  0  0  0  0  0  0  0  0
  5  6  2  0  0  0  0
  5  7  1  0  0  0  0
  2  3  1  0  0  0  0
  2  4  1  0  0  0  0
  2  5  1  0  0  0  0
  1  2  1  0  0  0  0
 24 25  2  0  0  0  0
 24 26  1  0  0  0  0
 20 21  1  0  0  0  0
 20 22  1  0  0  0  0
 20 23  1  0  0  0  0
 17 18  1  0  0  0  0
 17 19  1  0  0  0  0
 17 20  1  0  0  0  0
 13 14  1  0  0  0  0
 13 15  1  0  0  0  0
 13 16  1  0  0  0  0
 11 12  1  0  0  0  0
 11 13  1  0  0  0  0
 11 17  1  0  0  0  0
  9 10  1  0  0  0  0
  9 11  1  0  0  0  0
  9 24  1  0  0  0  0
  7  8  1  0  0  0  0
  7  9  1  0  0  0  0
 28 29  1  0  0  0  0
 28 30  1  0  0  0  0
 28 31  1  0  0  0  0
 26 27  1  0  0  0  0
 26 28  1  0  0  0  0
M  END
$$$$
default_name
  -OEChem-01062215323D

 31 30  0     1  0  0  0  0  0999 V2000
   -3.0760   -3.6390    1.5496 H   0  0  0  0  0  0  0  0  0  0  0  0
   -3.0940   -2.6290    1.1426 C   0  0  0  0  0  0  0  0  0  0  0  0
   -3.7160   -1.9930    1.7706 H   0  0  0  0  0  0  0  0  0  0  0  0
   -3.4880   -2.6500    0.1286 H   0  0  0  0  0  0  0  0  0  0  0  0
   -1.6860   -2.0850    1.1196 C   0  0  0  0  0  0  0  0  0  0  0  0
   -0.7540   -2.7700    1.5226 O   0  0  0  0  0  0  0  0  0  0  0  0
   -1.5320   -0.8490    0.6496 N   0  0  0  0  0  0  0  0  0  0  0  0
   -2.3500   -0.3360    0.3566 H   0  0  0  0  0  0  0  0  0  0  0  0
   -0.2470   -0.1410    0.5576 C   0  0  1  0  0  0  0  0  0  0  0  0
    0.0018    0.2202    1.5561 H   0  0  0  0  0  0  0  0  0  0  0  0
    0.8729   -1.1154    0.1119 C   0  0  1  0  0  0  0  0  0  0  0  0
    0.5367   -1.5909   -0.8116 H   0  0  0  0  0  0  0  0  0  0  0  0
    2.1982   -0.3901   -0.1899 C   0  0  0  0  0  0  0  0  0  0  0  0
    2.6165    0.0404    0.7217 H   0  0  0  0  0  0  0  0  0  0  0  0
    2.9196   -1.0834   -0.6194 H   0  0  0  0  0  0  0  0  0  0  0  0
    2.0338    0.4095   -0.9131 H   0  0  0  0  0  0  0  0  0  0  0  0
    1.0816   -2.2347    1.1564 C   0  0  0  0  0  0  0  0  0  0  0  0
    1.5155   -1.8183    2.0665 H   0  0  0  0  0  0  0  0  0  0  0  0
    0.1124   -2.6664    1.4062 H   0  0  0  0  0  0  0  0  0  0  0  0
    1.9791   -3.3784    0.6648 C   0  0  0  0  0  0  0  0  0  0  0  0
    2.9961   -3.0228    0.5008 H   0  0  0  0  0  0  0  0  0  0  0  0
    2.0043   -4.1652    1.4190 H   0  0  0  0  0  0  0  0  0  0  0  0
    1.5830   -3.7906   -0.2639 H   0  0  0  0  0  0  0  0  0  0  0  0
   -0.3813    1.0868   -0.3575 C   0  0  0  0  0  0  0  0  0  0  0  0
    0.4882    1.9570   -0.3606 O   0  0  0  0  0  0  0  0  0  0  0  0
   -1.4643    1.1547   -1.1421 N   0  0  0  0  0  0  0  0  0  0  0  0
   -2.1287    0.3985   -1.0935 H   0  0  0  0  0  0  0  0  0  0  0  0
   -1.7410    2.2563   -2.0621 C   0  0  0  0  0  0  0  0  0  0  0  0
   -0.8782    2.4195   -2.7116 H   0  0  0  0  0  0  0  0  0  0  0  0
   -2.6136    2.0273   -2.6755 H   0  0  0  0  0  0  0  0  0  0  0  0
   -1.9257    3.1707   -1.4950 H   0  0  0  0  0  0  0  0  0  0  0  0
  5  6  2  0  0  0  0
  5  7  1  0  0  0  0
  2  3  1  0  0  0  0
  2  4  1  0  0  0  0
  2  5  1  0  0  0  0
  1  2  1  0  0  0  0
 24 25  2  0  0  0  0
 24 26  1  0  0  0  0
 20 21  1  0  0  0  0
 20 22  1  0  0  0  0
 20 23  1  0  0  0  0
 17 18  1  0  0  0  0
 17 19  1  0  0  0  0
 17 20  1  0  0  0  0
 13 14  1  0  0  0  0
 13 15  1  0  0  0  0
 13 16  1  0  0  0  0
 11 12  1  0  0  0  0
 11 13  1  0  0  0  0
 11 17  1  0  0  0  0
  9 10  1  0  0  0  0
  9 11  1  0  0  0  0
  9 24  1  0  0  0  0
  7  8  1  0  0  0  0
  7  9  1  0  0  0  0
 28 29  1  0  0  0  0
 28 30  1  0  0  0  0
 28 31  1  0  0  0  0
 26 27  1  0  0  0  0
 26 28  1  0  0  0  0
M  END
$$$$
default_name
  -OEChem-01062215323D

 31 30  0     1  0  0  0  0  0999 V2000
   -3.0760   -3.6390    1.5496 H   0  0  0  0  0  0  0  0  0  0  0  0
   -3.0940   -2.6290    1.1426 C   0  0  0  0  0  0  0  0  0  0  0  0
   -3.7160   -1.9930    1.7706 H   0  0  0  0  0  0  0  0  0  0  0  0
   -3.4880   -2.6500    0.1286 H   0  0  0  0  0  0  0  0  0  0  0  0
   -1.6860   -2.0850    1.1196 C   0  0  0  0  0  0  0  0  0  0  0  0
   -0.7540   -2.7700    1.5226 O   0  0  0  0  0  0  0  0  0  0  0  0
   -1.5320   -0.8490    0.6496 N   0  0  0  0  0  0  0  0  0  0  0  0
   -2.3500   -0.3360    0.3566 H   0  0  0  0  0  0  0  0  0  0  0  0
   -0.2470   -0.1410    0.5576 C   0  0  1  0  0  0  0  0  0  0  0  0
    0.0018    0.2202    1.5561 H   0  0  0  0  0  0  0  0  0  0  0  0
    0.8729   -1.1154    0.1119 C   0  0  1  0  0  0  0  0  0  0  0  0
    0.5367   -1.5909   -0.8116 H   0  0  0  0  0  0  0  0  0  0  0  0
    2.1982   -0.3901   -0.1899 C   0  0  0  0  0  0  0  0  0  0  0  0
    2.6165    0.0404    0.7217 H   0  0  0  0  0  0  0  0  0  0  0  0
    2.9196   -1.0834   -0.6194 H   0  0  0  0  0  0  0  0  0  0  0  0
    2.0338    0.4095   -0.9131 H   0  0  0  0  0  0  0  0  0  0  0  0
    1.0816   -2.2347    1.1564 C   0  0  0  0  0  0  0  0  0  0  0  0
    1.5155   -1.8183    2.0665 H   0  0  0  0  0  0  0  0  0  0  0  0
    0.1124   -2.6664    1.4062 H   0  0  0  0  0  0  0  0  0  0  0  0
    1.9791   -3.3784    0.6648 C   0  0  0  0  0  0  0  0  0  0  0  0
    2.9961   -3.0228    0.5008 H   0  0  0  0  0  0  0  0  0  0  0  0
    2.0043   -4.1652    1.4190 H   0  0  0  0  0  0  0  0  0  0  0  0
    1.5830   -3.7906   -0.2639 H   0  0  0  0  0  0  0  0  0  0  0  0
   -0.3813    1.0868   -0.3575 C   0  0  0  0  0  0  0  0  0  0  0  0
    0.5901    1.8102   -0.5725 O   0  0  0  0  0  0  0  0  0  0  0  0
   -1.5810    1.3183   -0.9056 N   0  0  0  0  0  0  0  0  0  0  0  0
   -2.3275    0.6757   -0.6925 H   0  0  0  0  0  0  0  0  0  0  0  0
   -1.8730    2.4436   -1.7913 C   0  0  0  0  0  0  0  0  0  0  0  0
   -1.1500    2.4657   -2.6097 H   0  0  0  0  0  0  0  0  0  0  0  0
   -2.8788    2.3501   -2.2035 H   0  0  0  0  0  0  0  0  0  0  0  0
   -1.7946    3.3793   -1.2344 H   0  0  0  0  0  0  0  0  0  0  0  0
  5  6  2  0  0  0  0
  5  7  1  0  0  0  0
  2  3  1  0  0  0  0
  2  4  1  0  0  0  0
  2  5  1  0  0  0  0
  1  2  1  0  0  0  0
 24 25  2  0  0  0  0
 24 26  1  0  0  0  0
 20 21  1  0  0  0  0
 20 22  1  0  0  0  0
 20 23  1  0  0  0  0
 17 18  1  0  0  0  0
 17 19  1  0  0  0  0
 17 20  1  0  0  0  0
 13 14  1  0  0  0  0
 13 15  1  0  0  0  0
 13 16  1  0  0  0  0
 11 12  1  0  0  0  0
 11 13  1  0  0  0  0
 11 17  1  0  0  0  0
  9 10  1  0  0  0  0
  9 11  1  0  0  0  0
  9 24  1  0  0  0  0
  7  8  1  0  0  0  0
  7  9  1  0  0  0  0
 28 29  1  0  0  0  0
 28 30  1  0  0  0  0
 28 31  1  0  0  0  0
 26 27  1  0  0  0  0
 26 28  1  0  0  0  0
M  END
$$$$
default_name
  -OEChem-01062215323D

 31 30  0     1  0  0  0  0  0999 V2000
   -3.0760   -3.6390    1.5496 H   0  0  0  0  0  0  0  0  0  0  0  0
   -3.0940   -2.6290    1.1426 C   0  0  0  0  0  0  0  0  0  0  0  0
   -3.7160   -1.9930    1.7706 H   0  0  0  0  0  0  0  0  0  0  0  0
   -3.4880   -2.6500    0.1286 H   0  0  0  0  0  0  0  0  0  0  0  0
   -1.6860   -2.0850    1.1196 C   0  0  0  0  0  0  0  0  0  0  0  0
   -0.7540   -2.7700    1.5226 O   0  0  0  0  0  0  0  0  0  0  0  0
   -1.5320   -0.8490    0.6496 N   0  0  0  0  0  0  0  0  0  0  0  0
   -2.3500   -0.3360    0.3566 H   0  0  0  0  0  0  0  0  0  0  0  0
   -0.2470   -0.1410    0.5576 C   0  0  1  0  0  0  0  0  0  0  0  0
    0.0018    0.2202    1.5561 H   0  0  0  0  0  0  0  0  0  0  0  0
    0.8729   -1.1154    0.1119 C   0  0  1  0  0  0  0  0  0  0  0  0
    0.5367   -1.5909   -0.8116 H   0  0  0  0  0  0  0  0  0  0  0  0
    2.1982   -0.3901   -0.1899 C   0  0  0  0  0  0  0  0  0  0  0  0
    2.6165    0.0404    0.7217 H   0  0  0  0  0  0  0  0  0  0  0  0
    2.9196   -1.0834   -0.6194 H   0  0  0  0  0  0  0  0  0  0  0  0
    2.0338    0.4095   -0.9131 H   0  0  0  0  0  0  0  0  0  0  0  0
    1.0816   -2.2347    1.1564 C   0  0  0  0  0  0  0  0  0  0  0  0
    1.5155   -1.8183    2.0665 H   0  0  0  0  0  0  0  0  0  0  0  0
    0.1124   -2.6664    1.4062 H   0  0  0  0  0  0  0  0  0  0  0  0
    1.9791   -3.3784    0.6648 C   0  0  0  0  0  0  0  0  0  0  0  0
    2.9961   -3.0228    0.5008 H   0  0  0  0  0  0  0  0  0  0  0  0
    2.0043   -4.1652    1.4190 H   0  0  0  0  0  0  0  0  0  0  0  0
    1.5830   -3.7906   -0.2639 H   0  0  0  0  0  0  0  0  0  0  0  0
   -0.3813    1.0868   -0.3575 C   0  0  0  0  0  0  0  0  0  0  0  0
    0.6222    1.6479   -0.7950 O   0  0  0  0  0  0  0  0  0  0  0  0
   -1.6196    1.4996   -0.6566 N   0  0  0  0  0  0  0  0  0  0  0  0
   -2.3939    0.9831   -0.2703 H   0  0  0  0  0  0  0  0  0  0  0  0
   -1.9157    2.6511   -1.5067 C   0  0  0  0  0  0  0  0  0  0  0  0
   -1.3844    2.5546   -2.4561 H   0  0  0  0  0  0  0  0  0  0  0  0
   -2.9876    2.7134   -1.7001 H   0  0  0  0  0  0  0  0  0  0  0  0
   -1.5818    3.5665   -1.0144 H   0  0  0  0  0  0  0  0  0  0  0  0
  5  6  2  0  0  0  0
  5  7  1  0  0  0  0
  2  3  1  0  0  0  0
  2  4  1  0  0  0  0
  2  5  1  0  0  0  0
  1  2  1  0  0  0  0
 24 25  2  0  0  0  0
 24 26  1  0  0  0  0
 20 21  1  0  0  0  0
 20 22  1  0  0  0  0
 20 23  1  0  0  0  0
 17 18  1  0  0  0  0
 17 19  1  0  0  0  0
 17 20  1  0  0  0  0
 13 14  1  0  0  0  0
 13 15  1  0  0  0  0
 13 16  1  0  0  0  0
 11 12  1  0  0  0  0
 11 13  1  0  0  0  0
 11 17  1  0  0  0  0
  9 10  1  0  0  0  0
  9 11  1  0  0  0  0
  9 24  1  0  0  0  0
  7  8  1  0  0  0  0
  7  9  1  0  0  0  0
 28 29  1  0  0  0  0
 28 30  1  0  0  0  0
 28 31  1  0  0  0  0
 26 27  1  0  0  0  0
 26 28  1  0  0  0  0
M  END
$$$$
default_name
  -OEChem-01062215323D

 31 30  0     1  0  0  0  0  0999 V2000
   -3.0760   -3.6390    1.5496 H   0  0  0  0  0  0  0  0  0  0  0  0
   -3.0940   -2.6290    1.1426 C   0  0  0  0  0  0  0  0  0  0  0  0
   -3.7160   -1.9930    1.7706 H   0  0  0  0  0  0  0  0  0  0  0  0
   -3.4880   -2.6500    0.1286 H   0  0  0  0  0  0  0  0  0  0  0  0
   -1.6860   -2.0850    1.1196 C   0  0  0  0  0  0  0  0  0  0  0  0
   -0.7540   -2.7700    1.5226 O   0  0  0  0  0  0  0  0  0  0  0  0
   -1.5320   -0.8490    0.6496 N   0  0  0  0  0  0  0  0  0  0  0  0
   -2.3500   -0.3360    0.3566 H   0  0  0  0  0  0  0  0  0  0  0  0
   -0.2470   -0.1410    0.5576 C   0  0  1  0  0  0  0  0  0  0  0  0
    0.0018    0.2202    1.5561 H   0  0  0  0  0  0  0  0  0  0  0  0
    0.8729   -1.1154    0.1119 C   0  0  1  0  0  0  0  0  0  0  0  0
    0.5367   -1.5909   -0.8116 H   0  0  0  0  0  0  0  0  0  0  0  0
    2.1982   -0.3901   -0.1899 C   0  0  0  0  0  0  0  0  0  0  0  0
    2.6165    0.0404    0.7217 H   0  0  0  0  0  0  0  0  0  0  0  0
    2.9196   -1.0834   -0.6194 H   0  0  0  0  0  0  0  0  0  0  0  0
    2.0338    0.4095   -0.9131 H   0  0  0  0  0  0  0  0  0  0  0  0
    1.0816   -2.2347    1.1564 C   0  0  0  0  0  0  0  0  0  0  0  0
    1.5155   -1.8183    2.0665 H   0  0  0  0  0  0  0  0  0  0  0  0
    0.1124   -2.6664    1.4062 H   0  0  0  0  0  0  0  0  0  0  0  0
    1.9791   -3.3784    0.6648 C   0  0  0  0  0  0  0  0  0  0  0  0
    2.9961   -3.0228    0.5008 H   0  0  0  0  0  0  0  0  0  0  0  0
    2.0043   -4.1652    1.4190 H   0  0  0  0  0  0  0  0  0  0  0  0
    1.5830   -3.7906   -0.2639 H   0  0  0  0  0  0  0  0  0  0  0  0
   -0.3813    1.0868   -0.3575 C   0  0  0  0  0  0  0  0  0  0  0  0
    0.5822    1.4811   -1.0128 O   0  0  0  0  0  0  0  0  0  0  0  0
   -1.5774    1.6863   -0.4123 N   0  0  0  0  0  0  0  0  0  0  0  0
   -2.3234    1.2999    0.1443 H   0  0  0  0  0  0  0  0  0  0  0  0
   -1.8661    2.8645   -1.2276 C   0  0  0  0  0  0  0  0  0  0  0  0
   -1.5654    2.6799   -2.2613 H   0  0  0  0  0  0  0  0  0  0  0  0
   -2.9326    3.0925   -1.1995 H   0  0  0  0  0  0  0  0  0  0  0  0
   -1.3020    3.7195   -0.8502 H   0  0  0  0  0  0  0  0  0  0  0  0
  5  6  2  0  0  0  0
  5  7  1  0  0  0  0
  2  3  1  0  0  0  0
  2  4  1  0  0  0  0
  2  5  1  0  0  0  0
  1  2  1  0  0  0  0
 24 25  2  0  0  0  0
 24 26  1  0  0  0  0
 20 21  1  0  0  0  0
 20 22  1  0  0  0  0
 20 23  1  0  0  0  0
 17 18  1  0  0  0  0
 17 19  1  0  0  0  0
 17 20  1  0  0  0  0
 13 14  1  0  0  0  0
 13 15  1  0  0  0  0
 13 16  1  0  0  0  0
 11 12  1  0  0  0  0
 11 13  1  0  0  0  0
 11 17  1  0  0  0  0
  9 10  1  0  0  0  0
  9 11  1  0  0  0  0
  9 24  1  0  0  0  0
  7  8  1  0  0  0  0
  7  9  1  0  0  0  0
 28 29  1  0  0  0  0
 28 30  1  0  0  0  0
 28 31  1  0  0  0  0
 26 27  1  0  0  0  0
 26 28  1  0  0  0  0
M  END
$$$$
default_name
  -OEChem-01062215323D

 31 30  0     1  0  0  0  0  0999 V2000
   -3.0760   -3.6390    1.5496 H   0  0  0  0  0  0  0  0  0  0  0  0
   -3.0940   -2.6290    1.1426 C   0  0  0  0  0  0  0  0  0  0  0  0
   -3.7160   -1.9930    1.7706 H   0  0  0  0  0  0  0  0  0  0  0  0
   -3.4880   -2.6500    0.1286 H   0  0  0  0  0  0  0  0  0  0  0  0
   -1.6860   -2.0850    1.1196 C   0  0  0  0  0  0  0  0  0  0  0  0
   -0.7540   -2.7700    1.5226 O   0  0  0  0  0  0  0  0  0  0  0  0
   -1.5320   -0.8490    0.6496 N   0  0  0  0  0  0  0  0  0  0  0  0
   -2.3500   -0.3360    0.3566 H   0  0  0  0  0  0  0  0  0  0  0  0
   -0.2470   -0.1410    0.5576 C   0  0  1  0  0  0  0  0  0  0  0  0
    0.0018    0.2202    1.5561 H   0  0  0  0  0  0  0  0  0  0  0  0
    0.8729   -1.1154    0.1119 C   0  0  1  0  0  0  0  0  0  0  0  0
    0.5367   -1.5909   -0.8116 H   0  0  0  0  0  0  0  0  0  0  0  0
    2.1982   -0.3901   -0.1899 C   0  0  0  0  0  0  0  0  0  0  0  0
    2.6165    0.0404    0.7217 H   0  0  0  0  0  0  0  0  0  0  0  0
    2.9196   -1.0834   -0.6194 H   0  0  0  0  0  0  0  0  0  0  0  0
    2.0338    0.4095   -0.9131 H   0  0  0  0  0  0  0  0  0  0  0  0
    1.0816   -2.2347    1.1564 C   0  0  0  0  0  0  0  0  0  0  0  0
    1.5155   -1.8183    2.0665 H   0  0  0  0  0  0  0  0  0  0  0  0
    0.1124   -2.6664    1.4062 H   0  0  0  0  0  0  0  0  0  0  0  0
    1.9791   -3.3784    0.6648 C   0  0  0  0  0  0  0  0  0  0  0  0
    2.9961   -3.0228    0.5008 H   0  0  0  0  0  0  0  0  0  0  0  0
    2.0043   -4.1652    1.4190 H   0  0  0  0  0  0  0  0  0  0  0  0
    1.5830   -3.7906   -0.2639 H   0  0  0  0  0  0  0  0  0  0  0  0
   -0.3813    1.0868   -0.3575 C   0  0  0  0  0  0  0  0  0  0  0  0
    0.4728    1.3213   -1.2112 O   0  0  0  0  0  0  0  0  0  0  0  0
   -1.4575    1.8657   -0.1892 N   0  0  0  0  0  0  0  0  0  0  0  0
   -2.1208    1.6043    0.5230 H   0  0  0  0  0  0  0  0  0  0  0  0
   -1.7276    3.0693   -0.9732 C   0  0  0  0  0  0  0  0  0  0  0  0
   -1.6806    2.8334   -2.0386 H   0  0  0  0  0  0  0  0  0  0  0  0
   -2.7176    3.4615   -0.7360 H   0  0  0  0  0  0  0  0  0  0  0  0
   -0.9742    3.8280   -0.7528 H   0  0  0  0  0  0  0  0  0  0  0  0
  5  6  2  0  0  0  0
  5  7  1  0  0  0  0
  2  3  1  0  0  0  0
  2  4  1  0  0  0  0
  2  5  1  0  0  0  0
  1  2  1  0  0  0  0
 24 25  2  0  0  0  0
 24 26  1  0  0  0  0
 20 21  1  0  0  0  0
 20 22  1  0  0  0  0
 20 23  1  0  0  0  0
 17 18  1  0  0  0  0
 17 19  1  0  0  0  0
 17 20  1  0  0  0  0
 13 14  1  0  0  0  0
 13 15  1  0  0  0  0
 13 16  1  0  0  0  0
 11 12  1  0  0  0  0
 11 13  1  0  0  0  0
 11 17  1  0  0  0  0
  9 10  1  0  0  0  0
  9 11  1  0  0  0  0
  9 24  1  0  0  0  0
  7  8  1  0  0  0  0
  7  9  1  0  0  0  0
 28 29  1  0  0  0  0
 28 30  1  0  0  0  0
 28 31  1  0  0  0  0
 26 27  1  0  0  0  0
 26 28  1  0  0  0  0
M  END
$$$$
default_name
  -OEChem-01062215323D

 31 30  0     1  0  0  0  0  0999 V2000
   -3.0760   -3.6390    1.5496 H   0  0  0  0  0  0  0  0  0  0  0  0
   -3.0940   -2.6290    1.1426 C   0  0  0  0  0  0  0  0  0  0  0  0
   -3.7160   -1.9930    1.7706 H   0  0  0  0  0  0  0  0  0  0  0  0
   -3.4880   -2.6500    0.1286 H   0  0  0  0  0  0  0  0  0  0  0  0
   -1.6860   -2.0850    1.1196 C   0  0  0  0  0  0  0  0  0  0  0  0
   -0.7540   -2.7700    1.5226 O   0  0  0  0  0  0  0  0  0  0  0  0
   -1.5320   -0.8490    0.6496 N   0  0  0  0  0  0  0  0  0  0  0  0
   -2.3500   -0.3360    0.3566 H   0  0  0  0  0  0  0  0  0  0  0  0
   -0.2470   -0.1410    0.5576 C   0  0  1  0  0  0  0  0  0  0  0  0
    0.0018    0.2202    1.5561 H   0  0  0  0  0  0  0  0  0  0  0  0
    0.8729   -1.1154    0.1119 C   0  0  1  0  0  0  0  0  0  0  0  0
    0.5367   -1.5909   -0.8116 H   0  0  0  0  0  0  0  0  0  0  0  0
    2.1982   -0.3901   -0.1899 C   0  0  0  0  0  0  0  0  0  0  0  0
    2.6165    0.0404    0.7217 H   0  0  0  0  0  0  0  0  0  0  0  0
    2.9196   -1.0834   -0.6194 H   0  0  0  0  0  0  0  0  0  0  0  0
    2.0338    0.4095   -0.9131 H   0  0  0  0  0  0  0  0  0  0  0  0
    1.0816   -2.2347    1.1564 C   0  0  0  0  0  0  0  0  0  0  0  0
    1.5155   -1.8183    2.0665 H   0  0  0  0  0  0  0  0  0  0  0  0
    0.1124   -2.6664    1.4062 H   0  0  0  0  0  0  0  0  0  0  0  0
    1.9791   -3.3784    0.6648 C   0  0  0  0  0  0  0  0  0  0  0  0
    2.9961   -3.0228    0.5008 H   0  0  0  0  0  0  0  0  0  0  0  0
    2.0043   -4.1652    1.4190 H   0  0  0  0  0  0  0  0  0  0  0  0
    1.5830   -3.7906   -0.2639 H   0  0  0  0  0  0  0  0  0  0  0  0
   -0.3813    1.0868   -0.3575 C   0  0  0  0  0  0  0  0  0  0  0  0
    0.3015    1.1793   -1.3765 O   0  0  0  0  0  0  0  0  0  0  0  0
   -1.2678    2.0255   -0.0026 N   0  0  0  0  0  0  0  0  0  0  0  0
   -1.7999    1.8757    0.8401 H   0  0  0  0  0  0  0  0  0  0  0  0
   -1.5097    3.2515   -0.7607 C   0  0  0  0  0  0  0  0  0  0  0  0
   -1.7222    3.0043   -1.8031 H   0  0  0  0  0  0  0  0  0  0  0  0
   -2.3573    3.7953   -0.3410 H   0  0  0  0  0  0  0  0  0  0  0  0
   -0.6207    3.8844   -0.7290 H   0  0  0  0  0  0  0  0  0  0  0  0
  5  6  2  0  0  0  0
  5  7  1  0  0  0  0
  2  3  1  0  0  0  0
  2  4  1  0  0  0  0
  2  5  1  0  0  0  0
  1  2  1  0  0  0  0
 24 25  2  0  0  0  0
 24 26  1  0  0  0  0
 20 21  1  0  0  0  0
 20 22  1  0  0  0  0
 20 23  1  0  0  0  0
 17 18  1  0  0  0  0
 17 19  1  0  0  0  0
 17 20  1  0  0  0  0
 13 14  1  0  0  0  0
 13 15  1  0  0  0  0
 13 16  1  0  0  0  0
 11 12  1  0  0  0  0
 11 13  1  0  0  0  0
 11 17  1  0  0  0  0
  9 10  1  0  0  0  0
  9 11  1  0  0  0  0
  9 24  1  0  0  0  0
  7  8  1  0  0  0  0
  7  9  1  0  0  0  0
 28 29  1  0  0  0  0
 28 30  1  0  0  0  0
 28 31  1  0  0  0  0
 26 27  1  0  0  0  0
 26 28  1  0  0  0  0
M  END
$$$$
default_name
  -OEChem-01062215323D

 31 30  0     1  0  0  0  0  0999 V2000
   -3.0760   -3.6390    1.5496 H   0  0  0  0  0  0  0  0  0  0  0  0
   -3.0940   -2.6290    1.1426 C   0  0  0  0  0  0  0  0  0  0  0  0
   -3.7160   -1.9930    1.7706 H   0  0  0  0  0  0  0  0  0  0  0  0
   -3.4880   -2.6500    0.1286 H   0  0  0  0  0  0  0  0  0  0  0  0
   -1.6860   -2.0850    1.1196 C   0  0  0  0  0  0  0  0  0  0  0  0
   -0.7540   -2.7700    1.5226 O   0  0  0  0  0  0  0  0  0  0  0  0
   -1.5320   -0.8490    0.6496 N   0  0  0  0  0  0  0  0  0  0  0  0
   -2.3500   -0.3360    0.3566 H   0  0  0  0  0  0  0  0  0  0  0  0
   -0.2470   -0.1410    0.5576 C   0  0  1  0  0  0  0  0  0  0  0  0
    0.0018    0.2202    1.5561 H   0  0  0  0  0  0  0  0  0  0  0  0
    0.8729   -1.1154    0.1119 C   0  0  1  0  0  0  0  0  0  0  0  0
    0.5367   -1.5909   -0.8116 H   0  0  0  0  0  0  0  0  0  0  0  0
    2.1982   -0.3901   -0.1899 C   0  0  0  0  0  0  0  0  0  0  0  0
    2.6165    0.0404    0.7217 H   0  0  0  0  0  0  0  0  0  0  0  0
    2.9196   -1.0834   -0.6194 H   0  0  0  0  0  0  0  0  0  0  0  0
    2.0338    0.4095   -0.9131 H   0  0  0  0  0  0  0  0  0  0  0  0
    1.0816   -2.2347    1.1564 C   0  0  0  0  0  0  0  0  0  0  0  0
    1.5155   -1.8183    2.0665 H   0  0  0  0  0  0  0  0  0  0  0  0
    0.1124   -2.6664    1.4062 H   0  0  0  0  0  0  0  0  0  0  0  0
    1.9791   -3.3784    0.6648 C   0  0  0  0  0  0  0  0  0  0  0  0
    2.9961   -3.0228    0.5008 H   0  0  0  0  0  0  0  0  0  0  0  0
    2.0043   -4.1652    1.4190 H   0  0  0  0  0  0  0  0  0  0  0  0
    1.5830   -3.7906   -0.2639 H   0  0  0  0  0  0  0  0  0  0  0  0
   -0.3813    1.0868   -0.3575 C   0  0  0  0  0  0  0  0  0  0  0  0
    0.0800    1.0648   -1.4976 O   0  0  0  0  0  0  0  0  0  0  0  0
   -1.0214    2.1549    0.1349 N   0  0  0  0  0  0  0  0  0  0  0  0
   -1.3825    2.0956    1.0739 H   0  0  0  0  0  0  0  0  0  0  0  0
   -1.2272    3.3988   -0.6046 C   0  0  0  0  0  0  0  0  0  0  0  0
   -1.6874    3.1812   -1.5709 H   0  0  0  0  0  0  0  0  0  0  0  0
   -1.8761    4.0712   -0.0415 H   0  0  0  0  0  0  0  0  0  0  0  0
   -0.2657    3.8849   -0.7803 H   0  0  0  0  0  0  0  0  0  0  0  0
  5  6  2  0  0  0  0
  5  7  1  0  0  0  0
  2  3  1  0  0  0  0
  2  4  1  0  0  0  0
  2  5  1  0  0  0  0
  1  2  1  0  0  0  0
 24 25  2  0  0  0  0
 24 26  1  0  0  0  0
 20 21  1  0  0  0  0
 20 22  1  0  0  0  0
 20 23  1  0  0  0  0
 17 18  1  0  0  0  0
 17 19  1  0  0  0  0
 17 20  1  0  0  0  0
 13 14  1  0  0  0  0
 13 15  1  0  0  0  0
 13 16  1  0  0  0  0
 11 12  1  0  0  0  0
 11 13  1  0  0  0  0
 11 17  1  0  0  0  0
  9 10  1  0  0  0  0
  9 11  1  0  0  0  0
  9 24  1  0  0  0  0
  7  8  1  0  0  0  0
  7  9  1  0  0  0  0
 28 29  1  0  0  0  0
 28 30  1  0  0  0  0
 28 31  1  0  0  0  0
 26 27  1  0  0  0  0
 26 28  1  0  0  0  0
M  END
$$$$
default_name
  -OEChem-01062215323D

 31 30  0     1  0  0  0  0  0999 V2000
   -3.0760   -3.6390    1.5496 H   0  0  0  0  0  0  0  0  0  0  0  0
   -3.0940   -2.6290    1.1426 C   0  0  0  0  0  0  0  0  0  0  0  0
   -3.7160   -1.9930    1.7706 H   0  0  0  0  0  0  0  0  0  0  0  0
   -3.4880   -2.6500    0.1286 H   0  0  0  0  0  0  0  0  0  0  0  0
   -1.6860   -2.0850    1.1196 C   0  0  0  0  0  0  0  0  0  0  0  0
   -0.7540   -2.7700    1.5226 O   0  0  0  0  0  0  0  0  0  0  0  0
   -1.5320   -0.8490    0.6496 N   0  0  0  0  0  0  0  0  0  0  0  0
   -2.3500   -0.3360    0.3566 H   0  0  0  0  0  0  0  0  0  0  0  0
   -0.2470   -0.1410    0.5576 C   0  0  1  0  0  0  0  0  0  0  0  0
    0.0018    0.2202    1.5561 H   0  0  0  0  0  0  0  0  0  0  0  0
    0.8729   -1.1154    0.1119 C   0  0  1  0  0  0  0  0  0  0  0  0
    0.5367   -1.5909   -0.8116 H   0  0  0  0  0  0  0  0  0  0  0  0
    2.1982   -0.3901   -0.1899 C   0  0  0  0  0  0  0  0  0  0  0  0
    2.6165    0.0404    0.7217 H   0  0  0  0  0  0  0  0  0  0  0  0
    2.9196   -1.0834   -0.6194 H   0  0  0  0  0  0  0  0  0  0  0  0
    2.0338    0.4095   -0.9131 H   0  0  0  0  0  0  0  0  0  0  0  0
    1.0816   -2.2347    1.1564 C   0  0  0  0  0  0  0  0  0  0  0  0
    1.5155   -1.8183    2.0665 H   0  0  0  0  0  0  0  0  0  0  0  0
    0.1124   -2.6664    1.4062 H   0  0  0  0  0  0  0  0  0  0  0  0
    1.9791   -3.3784    0.6648 C   0  0  0  0  0  0  0  0  0  0  0  0
    2.9961   -3.0228    0.5008 H   0  0  0  0  0  0  0  0  0  0  0  0
    2.0043   -4.1652    1.4190 H   0  0  0  0  0  0  0  0  0  0  0  0
    1.5830   -3.7906   -0.2639 H   0  0  0  0  0  0  0  0  0  0  0  0
   -0.3813    1.0868   -0.3575 C   0  0  0  0  0  0  0  0  0  0  0  0
   -0.1767    0.9856   -1.5663 O   0  0  0  0  0  0  0  0  0  0  0  0
   -0.7351    2.2451    0.2138 N   0  0  0  0  0  0  0  0  0  0  0  0
   -0.8972    2.2490    1.2084 H   0  0  0  0  0  0  0  0  0  0  0  0
   -0.8994    3.5010   -0.5155 C   0  0  0  0  0  0  0  0  0  0  0  0
   -1.5785    3.3519   -1.3578 H   0  0  0  0  0  0  0  0  0  0  0  0
   -1.3069    4.2703    0.1421 H   0  0  0  0  0  0  0  0  0  0  0  0
    0.0667    3.8296   -0.9034 H   0  0  0  0  0  0  0  0  0  0  0  0
  5  6  2  0  0  0  0
  5  7  1  0  0  0  0
  2  3  1  0  0  0  0
  2  4  1  0  0  0  0
  2  5  1  0  0  0  0
  1  2  1  0  0  0  0
 24 25  2  0  0  0  0
 24 26  1  0  0  0  0
 20 21  1  0  0  0  0
 20 22  1  0  0  0  0
 20 23  1  0  0  0  0
 17 18  1  0  0  0  0
 17 19  1  0  0  0  0
 17 20  1  0  0  0  0
 13 14  1  0  0  0  0
 13 15  1  0  0  0  0
 13 16  1  0  0  0  0
 11 12  1  0  0  0  0
 11 13  1  0  0  0  0
 11 17  1  0  0  0  0
  9 10  1  0  0  0  0
  9 11  1  0  0  0  0
  9 24  1  0  0  0  0
  7  8  1  0  0  0  0
  7  9  1  0  0  0  0
 28 29  1  0  0  0  0
 28 30  1  0  0  0  0
 28 31  1  0  0  0  0
 26 27  1  0  0  0  0
 26 28  1  0  0  0  0
M  END
$$$$
default_name
  -OEChem-01062215323D

 31 30  0     1  0  0  0  0  0999 V2000
   -3.0760   -3.6390    1.5496 H   0  0  0  0  0  0  0  0  0  0  0  0
   -3.0940   -2.6290    1.1426 C   0  0  0  0  0  0  0  0  0  0  0  0
   -3.7160   -1.9930    1.7706 H   0  0  0  0  0  0  0  0  0  0  0  0
   -3.4880   -2.6500    0.1286 H   0  0  0  0  0  0  0  0  0  0  0  0
   -1.6860   -2.0850    1.1196 C   0  0  0  0  0  0  0  0  0  0  0  0
   -0.7540   -2.7700    1.5226 O   0  0  0  0  0  0  0  0  0  0  0  0
   -1.5320   -0.8490    0.6496 N   0  0  0  0  0  0  0  0  0  0  0  0
   -2.3500   -0.3360    0.3566 H   0  0  0  0  0  0  0  0  0  0  0  0
   -0.2470   -0.1410    0.5576 C   0  0  1  0  0  0  0  0  0  0  0  0
    0.0018    0.2202    1.5561 H   0  0  0  0  0  0  0  0  0  0  0  0
    0.8729   -1.1154    0.1119 C   0  0  1  0  0  0  0  0  0  0  0  0
    0.5367   -1.5909   -0.8116 H   0  0  0  0  0  0  0  0  0  0  0  0
    2.1982   -0.3901   -0.1899 C   0  0  0  0  0  0  0  0  0  0  0  0
    2.6165    0.0404    0.7217 H   0  0  0  0  0  0  0  0  0  0  0  0
    2.9196   -1.0834   -0.6194 H   0  0  0  0  0  0  0  0  0  0  0  0
    2.0338    0.4095   -0.9131 H   0  0  0  0  0  0  0  0  0  0  0  0
    1.0816   -2.2347    1.1564 C   0  0  0  0  0  0  0  0  0  0  0  0
    1.5155   -1.8183    2.0665 H   0  0  0  0  0  0  0  0  0  0  0  0
    0.1124   -2.6664    1.4062 H   0  0  0  0  0  0  0  0  0  0  0  0
    1.9791   -3.3784    0.6648 C   0  0  0  0  0  0  0  0  0  0  0  0
    2.9961   -3.0228    0.5008 H   0  0  0  0  0  0  0  0  0  0  0  0
    2.0043   -4.1652    1.4190 H   0  0  0  0  0  0  0  0  0  0  0  0
    1.5830   -3.7906   -0.2639 H   0  0  0  0  0  0  0  0  0  0  0  0
   -0.3813    1.0868   -0.3575 C   0  0  0  0  0  0  0  0  0  0  0  0
   -0.4510    0.9471   -1.5777 O   0  0  0  0  0  0  0  0  0  0  0  0
   -0.4283    2.2898    0.2287 N   0  0  0  0  0  0  0  0  0  0  0  0
   -0.3770    2.3254    1.2346 H   0  0  0  0  0  0  0  0  0  0  0  0
   -0.5486    3.5513   -0.4996 C   0  0  0  0  0  0  0  0  0  0  0  0
   -1.4030    3.5049   -1.1784 H   0  0  0  0  0  0  0  0  0  0  0  0
   -0.6885    4.3790    0.1972 H   0  0  0  0  0  0  0  0  0  0  0  0
    0.3539    3.7222   -1.0896 H   0  0  0  0  0  0  0  0  0  0  0  0
  5  6  2  0  0  0  0
  5  7  1  0  0  0  0
  2  3  1  0  0  0  0
  2  4  1  0  0  0  0
  2  5  1  0  0  0  0
  1  2  1  0  0  0  0
 24 25  2  0  0  0  0
 24 26  1  0  0  0  0
 20 21  1  0  0  0  0
 20 22  1  0  0  0  0
 20 23  1  0  0  0  0
 17 18  1  0  0  0  0
 17 19  1  0  0  0  0
 17 20  1  0  0  0  0
 13 14  1  0  0  0  0
 13 15  1  0  0  0  0
 13 16  1  0  0  0  0
 11 12  1  0  0  0  0
 11 13  1  0  0  0  0
 11 17  1  0  0  0  0
  9 10  1  0  0  0  0
  9 11  1  0  0  0  0
  9 24  1  0  0  0  0
  7  8  1  0  0  0  0
  7  9  1  0  0  0  0
 28 29  1  0  0  0  0
 28 30  1  0  0  0  0
 28 31  1  0  0  0  0
 26 27  1  0  0  0  0
 26 28  1  0  0  0  0
M  END
$$$$
default_name
  -OEChem-01062215323D

 31 30  0     1  0  0  0  0  0999 V2000
   -3.0760   -3.6390    1.5496 H   0  0  0  0  0  0  0  0  0  0  0  0
   -3.0940   -2.6290    1.1426 C   0  0  0  0  0  0  0  0  0  0  0  0
   -3.7160   -1.9930    1.7706 H   0  0  0  0  0  0  0  0  0  0  0  0
   -3.4880   -2.6500    0.1286 H   0  0  0  0  0  0  0  0  0  0  0  0
   -1.6860   -2.0850    1.1196 C   0  0  0  0  0  0  0  0  0  0  0  0
   -0.7540   -2.7700    1.5226 O   0  0  0  0  0  0  0  0  0  0  0  0
   -1.5320   -0.8490    0.6496 N   0  0  0  0  0  0  0  0  0  0  0  0
   -2.3500   -0.3360    0.3566 H   0  0  0  0  0  0  0  0  0  0  0  0
   -0.2470   -0.1410    0.5576 C   0  0  1  0  0  0  0  0  0  0  0  0
    0.0018    0.2202    1.5561 H   0  0  0  0  0  0  0  0  0  0  0  0
    0.8729   -1.1154    0.1119 C   0  0  1  0  0  0  0  0  0  0  0  0
    0.5367   -1.5909   -0.8116 H   0  0  0  0  0  0  0  0  0  0  0  0
    2.1982   -0.3901   -0.1899 C   0  0  0  0  0  0  0  0  0  0  0  0
    2.6165    0.0404    0.7217 H   0  0  0  0  0  0  0  0  0  0  0  0
    2.9196   -1.0834   -0.6194 H   0  0  0  0  0  0  0  0  0  0  0  0
    2.0338    0.4095   -0.9131 H   0  0  0  0  0  0  0  0  0  0  0  0
    1.0816   -2.2347    1.1564 C   0  0  0  0  0  0  0  0  0  0  0  0
    1.5155   -1.8183    2.0665 H   0  0  0  0  0  0  0  0  0  0  0  0
    0.1124   -2.6664    1.4062 H   0  0  0  0  0  0  0  0  0  0  0  0
    1.9791   -3.3784    0.6648 C   0  0  0  0  0  0  0  0  0  0  0  0
    2.9961   -3.0228    0.5008 H   0  0  0  0  0  0  0  0  0  0  0  0
    2.0043   -4.1652    1.4190 H   0  0  0  0  0  0  0  0  0  0  0  0
    1.5830   -3.7906   -0.2639 H   0  0  0  0  0  0  0  0  0  0  0  0
   -0.3813    1.0868   -0.3575 C   0  0  0  0  0  0  0  0  0  0  0  0
   -0.7242    0.9519   -1.5311 O   0  0  0  0  0  0  0  0  0  0  0  0
   -0.1220    2.2861    0.1788 N   0  0  0  0  0  0  0  0  0  0  0  0
    0.1427    2.3196    1.1506 H   0  0  0  0  0  0  0  0  0  0  0  0
   -0.1987    3.5461   -0.5578 C   0  0  0  0  0  0  0  0  0  0  0  0
   -1.1728    3.6296   -1.0448 H   0  0  0  0  0  0  0  0  0  0  0  0
   -0.0631    4.3900    0.1202 H   0  0  0  0  0  0  0  0  0  0  0  0
    0.5761    3.5699   -1.3265 H   0  0  0  0  0  0  0  0  0  0  0  0
  5  6  2  0  0  0  0
  5  7  1  0  0  0  0
  2  3  1  0  0  0  0
  2  4  1  0  0  0  0
  2  5  1  0  0  0  0
  1  2  1  0  0  0  0
 24 25  2  0  0  0  0
 24 26  1  0  0  0  0
 20 21  1  0  0  0  0
 20 22  1  0  0  0  0
 20 23  1  0  0  0  0
 17 18  1  0  0  0  0
 17 19  1  0  0  0  0
 17 20  1  0  0  0  0
 13 14  1  0  0  0  0
 13 15  1  0  0  0  0
 13 16  1  0  0  0  0
 11 12  1  0  0  0  0
 11 13  1  0  0  0  0
 11 17  1  0  0  0  0
  9 10  1  0  0  0  0
  9 11  1  0  0  0  0
  9 24  1  0  0  0  0
  7  8  1  0  0  0  0
  7  9  1  0  0  0  0
 28 29  1  0  0  0  0
 28 30  1  0  0  0  0
 28 31  1  0  0  0  0
 26 27  1  0  0  0  0
 26 28  1  0  0  0  0
M  END
$$$$
default_name
  -OEChem-01062215323D

 31 30  0     1  0  0  0  0  0999 V2000
   -3.0760   -3.6390    1.5496 H   0  0  0  0  0  0  0  0  0  0  0  0
   -3.0940   -2.6290    1.1426 C   0  0  0  0  0  0  0  0  0  0  0  0
   -3.7160   -1.9930    1.7706 H   0  0  0  0  0  0  0  0  0  0  0  0
   -3.4880   -2.6500    0.1286 H   0  0  0  0  0  0  0  0  0  0  0  0
   -1.6860   -2.0850    1.1196 C   0  0  0  0  0  0  0  0  0  0  0  0
   -0.7540   -2.7700    1.5226 O   0  0  0  0  0  0  0  0  0  0  0  0
   -1.5320   -0.8490    0.6496 N   0  0  0  0  0  0  0  0  0  0  0  0
   -2.3500   -0.3360    0.3566 H   0  0  0  0  0  0  0  0  0  0  0  0
   -0.2470   -0.1410    0.5576 C   0  0  1  0  0  0  0  0  0  0  0  0
    0.0018    0.2202    1.5561 H   0  0  0  0  0  0  0  0  0  0  0  0
    0.8729   -1.1154    0.1119 C   0  0  1  0  0  0  0  0  0  0  0  0
    0.5367   -1.5909   -0.8116 H   0  0  0  0  0  0  0  0  0  0  0  0
    2.1982   -0.3901   -0.1899 C   0  0  0  0  0  0  0  0  0  0  0  0
    2.6165    0.0404    0.7217 H   0  0  0  0  0  0  0  0  0  0  0  0
    2.9196   -1.0834   -0.6194 H   0  0  0  0  0  0  0  0  0  0  0  0
    2.0338    0.4095   -0.9131 H   0  0  0  0  0  0  0  0  0  0  0  0
    1.0816   -2.2347    1.1564 C   0  0  0  0  0  0  0  0  0  0  0  0
    1.5155   -1.8183    2.0665 H   0  0  0  0  0  0  0  0  0  0  0  0
    0.1124   -2.6664    1.4062 H   0  0  0  0  0  0  0  0  0  0  0  0
    1.9791   -3.3784    0.6648 C   0  0  0  0  0  0  0  0  0  0  0  0
    2.9961   -3.0228    0.5008 H   0  0  0  0  0  0  0  0  0  0  0  0
    2.0043   -4.1652    1.4190 H   0  0  0  0  0  0  0  0  0  0  0  0
    1.5830   -3.7906   -0.2639 H   0  0  0  0  0  0  0  0  0  0  0  0
   -0.3813    1.0868   -0.3575 C   0  0  0  0  0  0  0  0  0  0  0  0
   -0.9778    0.9997   -1.4298 O   0  0  0  0  0  0  0  0  0  0  0  0
    0.1630    2.2341    0.0673 N   0  0  0  0  0  0  0  0  0  0  0  0
    0.6265    2.2321    0.9622 H   0  0  0  0  0  0  0  0  0  0  0  0
    0.1265    3.4859   -0.6863 C   0  0  0  0  0  0  0  0  0  0  0  0
   -0.9035    3.7177   -0.9662 H   0  0  0  0  0  0  0  0  0  0  0  0
    0.5269    4.3025   -0.0837 H   0  0  0  0  0  0  0  0  0  0  0  0
    0.7184    3.3833   -1.5978 H   0  0  0  0  0  0  0  0  0  0  0  0
  5  6  2  0  0  0  0
  5  7  1  0  0  0  0
  2  3  1  0  0  0  0
  2  4  1  0  0  0  0
  2  5  1  0  0  0  0
  1  2  1  0  0  0  0
 24 25  2  0  0  0  0
 24 26  1  0  0  0  0
 20 21  1  0  0  0  0
 20 22  1  0  0  0  0
 20 23  1  0  0  0  0
 17 18  1  0  0  0  0
 17 19  1  0  0  0  0
 17 20  1  0  0  0  0
 13 14  1  0  0  0  0
 13 15  1  0  0  0  0
 13 16  1  0  0  0  0
 11 12  1  0  0  0  0
 11 13  1  0  0  0  0
 11 17  1  0  0  0  0
  9 10  1  0  0  0  0
  9 11  1  0  0  0  0
  9 24  1  0  0  0  0
  7  8  1  0  0  0  0
  7  9  1  0  0  0  0
 28 29  1  0  0  0  0
 28 30  1  0  0  0  0
 28 31  1  0  0  0  0
 26 27  1  0  0  0  0
 26 28  1  0  0  0  0
M  END
$$$$
default_name
  -OEChem-01062215323D

 31 30  0     1  0  0  0  0  0999 V2000
   -3.0760   -3.6390    1.5496 H   0  0  0  0  0  0  0  0  0  0  0  0
   -3.0940   -2.6290    1.1426 C   0  0  0  0  0  0  0  0  0  0  0  0
   -3.7160   -1.9930    1.7706 H   0  0  0  0  0  0  0  0  0  0  0  0
   -3.4880   -2.6500    0.1286 H   0  0  0  0  0  0  0  0  0  0  0  0
   -1.6860   -2.0850    1.1196 C   0  0  0  0  0  0  0  0  0  0  0  0
   -0.7540   -2.7700    1.5226 O   0  0  0  0  0  0  0  0  0  0  0  0
   -1.5320   -0.8490    0.6496 N   0  0  0  0  0  0  0  0  0  0  0  0
   -2.3500   -0.3360    0.3566 H   0  0  0  0  0  0  0  0  0  0  0  0
   -0.2470   -0.1410    0.5576 C   0  0  1  0  0  0  0  0  0  0  0  0
    0.0018    0.2202    1.5561 H   0  0  0  0  0  0  0  0  0  0  0  0
    0.8729   -1.1154    0.1119 C   0  0  1  0  0  0  0  0  0  0  0  0
    0.5367   -1.5909   -0.8116 H   0  0  0  0  0  0  0  0  0  0  0  0
    2.1982   -0.3901   -0.1899 C   0  0  0  0  0  0  0  0  0  0  0  0
    2.6165    0.0404    0.7217 H   0  0  0  0  0  0  0  0  0  0  0  0
    2.9196   -1.0834   -0.6194 H   0  0  0  0  0  0  0  0  0  0  0  0
    2.0338    0.4095   -0.9131 H   0  0  0  0  0  0  0  0  0  0  0  0
    1.0816   -2.2347    1.1564 C   0  0  0  0  0  0  0  0  0  0  0  0
    1.5155   -1.8183    2.0665 H   0  0  0  0  0  0  0  0  0  0  0  0
    0.1124   -2.6664    1.4062 H   0  0  0  0  0  0  0  0  0  0  0  0
    1.9791   -3.3784    0.6648 C   0  0  0  0  0  0  0  0  0  0  0  0
    2.9961   -3.0228    0.5008 H   0  0  0  0  0  0  0  0  0  0  0  0
    2.0043   -4.1652    1.4190 H   0  0  0  0  0  0  0  0  0  0  0  0
    1.5830   -3.7906   -0.2639 H   0  0  0  0  0  0  0  0  0  0  0  0
   -0.3813    1.0868   -0.3575 C   0  0  0  0  0  0  0  0  0  0  0  0
   -1.1944    1.0872   -1.2806 O   0  0  0  0  0  0  0  0  0  0  0  0
    0.4072    2.1375   -0.0981 N   0  0  0  0  0  0  0  0  0  0  0  0
    1.0413    2.0688    0.6821 H   0  0  0  0  0  0  0  0  0  0  0  0
    0.4047    3.3748   -0.8763 C   0  0  0  0  0  0  0  0  0  0  0  0
   -0.6137    3.7630   -0.9479 H   0  0  0  0  0  0  0  0  0  0  0  0
    1.0411    4.1225   -0.4007 H   0  0  0  0  0  0  0  0  0  0  0  0
    0.7710    3.1749   -1.8850 H   0  0  0  0  0  0  0  0  0  0  0  0
  5  6  2  0  0  0  0
  5  7  1  0  0  0  0
  2  3  1  0  0  0  0
  2  4  1  0  0  0  0
  2  5  1  0  0  0  0
  1  2  1  0  0  0  0
 24 25  2  0  0  0  0
 24 26  1  0  0  0  0
 20 21  1  0  0  0  0
 20 22  1  0  0  0  0
 20 23  1  0  0  0  0
 17 18  1  0  0  0  0
 17 19  1  0  0  0  0
 17 20  1  0  0  0  0
 13 14  1  0  0  0  0
 13 15  1  0  0  0  0
 13 16  1  0  0  0  0
 11 12  1  0  0  0  0
 11 13  1  0  0  0  0
 11 17  1  0  0  0  0
  9 10  1  0  0  0  0
  9 11  1  0  0  0  0
  9 24  1  0  0  0  0
  7  8  1  0  0  0  0
  7  9  1  0  0  0  0
 28 29  1  0  0  0  0
 28 30  1  0  0  0  0
 28 31  1  0  0  0  0
 26 27  1  0  0  0  0
 26 28  1  0  0  0  0
M  END
$$$$
default_name
  -OEChem-01062215323D

 31 30  0     1  0  0  0  0  0999 V2000
   -3.0760   -3.6390    1.5496 H   0  0  0  0  0  0  0  0  0  0  0  0
   -3.0940   -2.6290    1.1426 C   0  0  0  0  0  0  0  0  0  0  0  0
   -3.7160   -1.9930    1.7706 H   0  0  0  0  0  0  0  0  0  0  0  0
   -3.4880   -2.6500    0.1286 H   0  0  0  0  0  0  0  0  0  0  0  0
   -1.6860   -2.0850    1.1196 C   0  0  0  0  0  0  0  0  0  0  0  0
   -0.7540   -2.7700    1.5226 O   0  0  0  0  0  0  0  0  0  0  0  0
   -1.5320   -0.8490    0.6496 N   0  0  0  0  0  0  0  0  0  0  0  0
   -2.3500   -0.3360    0.3566 H   0  0  0  0  0  0  0  0  0  0  0  0
   -0.2470   -0.1410    0.5576 C   0  0  1  0  0  0  0  0  0  0  0  0
    0.0018    0.2202    1.5561 H   0  0  0  0  0  0  0  0  0  0  0  0
    0.8729   -1.1154    0.1119 C   0  0  1  0  0  0  0  0  0  0  0  0
    0.5367   -1.5909   -0.8116 H   0  0  0  0  0  0  0  0  0  0  0  0
    2.1982   -0.3901   -0.1899 C   0  0  0  0  0  0  0  0  0  0  0  0
    2.6165    0.0404    0.7217 H   0  0  0  0  0  0  0  0  0  0  0  0
    2.9196   -1.0834   -0.6194 H   0  0  0  0  0  0  0  0  0  0  0  0
    2.0338    0.4095   -0.9131 H   0  0  0  0  0  0  0  0  0  0  0  0
    1.0816   -2.2347    1.1564 C   0  0  0  0  0  0  0  0  0  0  0  0
    1.5155   -1.8183    2.0665 H   0  0  0  0  0  0  0  0  0  0  0  0
    0.1124   -2.6664    1.4062 H   0  0  0  0  0  0  0  0  0  0  0  0
    1.9791   -3.3784    0.6648 C   0  0  0  0  0  0  0  0  0  0  0  0
    2.9961   -3.0228    0.5008 H   0  0  0  0  0  0  0  0  0  0  0  0
    2.0043   -4.1652    1.4190 H   0  0  0  0  0  0  0  0  0  0  0  0
    1.5830   -3.7906   -0.2639 H   0  0  0  0  0  0  0  0  0  0  0  0
   -0.3813    1.0868   -0.3575 C   0  0  0  0  0  0  0  0  0  0  0  0
   -1.3593    1.2085   -1.0937 O   0  0  0  0  0  0  0  0  0  0  0  0
    0.5940    2.0029   -0.3062 N   0  0  0  0  0  0  0  0  0  0  0  0
    1.3589    1.8407    0.3296 H   0  0  0  0  0  0  0  0  0  0  0  0
    0.6171    3.2203   -1.1148 C   0  0  0  0  0  0  0  0  0  0  0  0
   -0.3229    3.7626   -0.9911 H   0  0  0  0  0  0  0  0  0  0  0  0
    1.4445    3.8622   -0.8091 H   0  0  0  0  0  0  0  0  0  0  0  0
    0.7304    2.9591   -2.1687 H   0  0  0  0  0  0  0  0  0  0  0  0
  5  6  2  0  0  0  0
  5  7  1  0  0  0  0
  2  3  1  0  0  0  0
  2  4  1  0  0  0  0
  2  5  1  0  0  0  0
  1  2  1  0  0  0  0
 24 25  2  0  0  0  0
 24 26  1  0  0  0  0
 20 21  1  0  0  0  0
 20 22  1  0  0  0  0
 20 23  1  0  0  0  0
 17 18  1  0  0  0  0
 17 19  1  0  0  0  0
 17 20  1  0  0  0  0
 13 14  1  0  0  0  0
 13 15  1  0  0  0  0
 13 16  1  0  0  0  0
 11 12  1  0  0  0  0
 11 13  1  0  0  0  0
 11 17  1  0  0  0  0
  9 10  1  0  0  0  0
  9 11  1  0  0  0  0
  9 24  1  0  0  0  0
  7  8  1  0  0  0  0
  7  9  1  0  0  0  0
 28 29  1  0  0  0  0
 28 30  1  0  0  0  0
 28 31  1  0  0  0  0
 26 27  1  0  0  0  0
 26 28  1  0  0  0  0
M  END
$$$$
